CRH.pdb
     RDKit          3D

 28 28  0  0  1  0  0  0  0  0999 V2000
    6.6590  -13.8819   19.2817 N   0  0  0  0  0  0  0  0  0  0  0  0
    7.9074  -13.4938   18.6877 C   0  0  1  0  0  0  0  0  0  0  0  0
    8.4886  -12.2759   19.3854 C   0  0  0  0  0  0  0  0  0  0  0  0
    8.7952  -12.6053   21.1273 S   0  0  0  0  0  0  0  0  0  0  0  0
    8.8975  -14.6130   18.6946 C   0  0  0  0  0  0  0  0  0  0  0  0
    8.8019  -15.5530   19.5238 O   0  0  0  0  0  0  0  0  0  0  0  0
   12.2923  -14.3659   11.2449 N   0  0  0  0  0  0  0  0  0  0  0  0
   11.2640  -14.4742   12.2314 C   0  0  0  0  0  0  0  0  0  0  0  0
   10.0370  -14.3372   11.9322 N   0  0  0  0  0  0  0  0  0  0  0  0
   11.6474  -14.7433   13.5766 N   0  0  0  0  0  0  0  0  0  0  0  0
   11.5616  -16.0755   14.0882 C   0  0  0  0  0  0  0  0  0  0  0  0
   10.8202  -16.0539   15.4075 C   0  0  0  0  0  0  0  0  0  0  0  0
   11.7907  -15.5496   16.4534 C   0  0  0  0  0  0  0  0  0  0  0  0
   11.0690  -15.5472   17.8002 C   0  0  2  0  0  0  0  0  0  0  0  0
    9.9721  -14.6230   17.7480 N   0  0  0  0  0  0  0  0  0  0  0  0
   12.0742  -15.0462   18.7916 C   0  0  0  0  0  0  0  0  0  0  0  0
   12.1286  -13.8214   19.0578 O   0  0  0  0  0  0  0  0  0  0  0  0
    9.2879  -14.5265   12.6154 N   0  0  0  0  0  0  0  0  0  0  0  0
   12.9788  -15.9070   19.4511 C   0  0  1  0  0  0  0  0  0  0  0  0
   12.8466  -16.1197   20.8660 C   0  0  0  0  0  0  0  0  0  0  0  0
   11.5254  -16.7796   21.2204 C   0  0  0  0  0  0  0  0  0  0  0  0
   11.4444  -16.8398   22.6872 C   0  0  0  0  0  0  0  0  0  0  0  0
   12.3813  -16.3631   23.5587 N   0  0  0  0  0  0  0  0  0  0  0  0
   11.9531  -16.6019   24.8253 C   0  0  0  0  0  0  0  0  0  0  0  0
   10.7610  -17.2211   24.7161 N   0  0  0  0  0  0  0  0  0  0  0  0
   10.4508  -17.3660   23.3995 C   0  0  0  0  0  0  0  0  0  0  0  0
   13.9336  -16.9855   21.4060 O   0  0  0  0  0  0  0  0  0  0  0  0
   13.9215  -17.2742   22.6129 O   0  0  0  0  0  0  0  0  0  0  0  0
  2  1  1  1
  3  2  1  0
  3  4  1  0
  5  2  1  0
  5  6  2  0
  7  8  1  0
  8  9  2  0
 10  8  1  0
 10 11  1  0
 11 12  1  0
 14 13  1  6
 13 12  1  0
 14 15  1  0
 15  5  1  0
 16 14  1  0
 17 16  2  0
 18 16  1  0
 19 20  1  1
 19 18  1  0
 21 22  2  0
 21 20  1  0
 23 22  1  0
 24 25  2  0
 24 23  1  0
 25 21  1  0
 26 19  1  0
 27 26  2  0
 28 26  1  0
M  END
$$$$
