CRH.pdb
     RDKit          3D

 28 28  0  0  1  0  0  0  0  0999 V2000
    8.0089  -14.0848   16.4471 N   0  0  0  0  0  0  0  0  0  0  0  0
    8.6085  -13.4658   17.5958 C   0  0  1  0  0  0  0  0  0  0  0  0
    7.5502  -12.8802   18.5150 C   0  0  0  0  0  0  0  0  0  0  0  0
    8.2978  -11.9996   19.8942 S   0  0  0  0  0  0  0  0  0  0  0  0
    9.4765  -14.4194   18.3509 C   0  0  0  0  0  0  0  0  0  0  0  0
    9.0674  -15.5723   18.6407 O   0  0  0  0  0  0  0  0  0  0  0  0
   16.7930  -13.2877   16.7179 N   0  0  0  0  0  0  0  0  0  0  0  0
   16.7900  -13.4138   18.1414 C   0  0  0  0  0  0  0  0  0  0  0  0
   17.8080  -13.1120   18.8389 N   0  0  0  0  0  0  0  0  0  0  0  0
   15.6055  -13.8910   18.7724 N   0  0  0  0  0  0  0  0  0  0  0  0
   15.4323  -15.2927   18.9937 C   0  0  0  0  0  0  0  0  0  0  0  0
   14.0796  -15.5317   19.6290 C   0  0  0  0  0  0  0  0  0  0  0  0
   13.1435  -14.4711   19.0914 C   0  0  0  0  0  0  0  0  0  0  0  0
   11.7139  -14.8942   19.4263 C   0  0  2  0  0  0  0  0  0  0  0  0
   10.7925  -14.0232   18.7537 N   0  0  0  0  0  0  0  0  0  0  0  0
   11.5739  -14.6946   20.9044 C   0  0  0  0  0  0  0  0  0  0  0  0
   10.8960  -13.7336   21.3411 O   0  0  0  0  0  0  0  0  0  0  0  0
   17.7735  -13.0950   19.8695 N   0  0  0  0  0  0  0  0  0  0  0  0
   12.1819  -15.5558   21.8440 C   0  0  2  0  0  0  0  0  0  0  0  0
   11.3660  -16.2256   22.8188 C   0  0  0  0  0  0  0  0  0  0  0  0
   10.4102  -17.2156   22.1762 C   0  0  0  0  0  0  0  0  0  0  0  0
    9.0990  -16.5579   22.0759 C   0  0  0  0  0  0  0  0  0  0  0  0
    8.8246  -15.2670   22.4261 N   0  0  0  0  0  0  0  0  0  0  0  0
    7.5087  -15.0266   22.1907 C   0  0  0  0  0  0  0  0  0  0  0  0
    6.9924  -16.1707   21.6998 N   0  0  0  0  0  0  0  0  0  0  0  0
    7.9732  -17.1109   21.6304 C   0  0  0  0  0  0  0  0  0  0  0  0
   12.1844  -16.9797   23.8110 O   0  0  0  0  0  0  0  0  0  0  0  0
   13.0207  -17.7971   23.3956 O   0  0  0  0  0  0  0  0  0  0  0  0
  2  1  1  6
  3  2  1  0
  3  4  1  0
  5  2  1  0
  5  6  2  0
  7  8  1  0
  8  9  2  0
 10  8  1  0
 10 11  1  0
 11 12  1  0
 14 13  1  6
 13 12  1  0
 14 15  1  0
 15  5  1  0
 16 14  1  0
 17 16  2  0
 18 16  1  0
 19 20  1  1
 19 18  1  0
 21 22  2  0
 21 20  1  0
 23 22  1  0
 24 25  2  0
 24 23  1  0
 25 21  1  0
 26 19  1  0
 27 26  2  0
 28 26  1  0
M  END
$$$$
