CRH.pdb
     RDKit          3D

 28 28  0  0  1  0  0  0  0  0999 V2000
    5.0554  -19.7133   21.5248 N   0  0  0  0  0  0  0  0  0  0  0  0
    5.2990  -18.4635   22.1887 C   0  0  1  0  0  0  0  0  0  0  0  0
    5.4739  -18.6649   23.6842 C   0  0  0  0  0  0  0  0  0  0  0  0
    5.4176  -17.0975   24.5655 S   0  0  0  0  0  0  0  0  0  0  0  0
    6.4867  -17.7557   21.6217 C   0  0  0  0  0  0  0  0  0  0  0  0
    7.5626  -18.3702   21.4096 O   0  0  0  0  0  0  0  0  0  0  0  0
    7.8036  -13.3569   15.4161 N   0  0  0  0  0  0  0  0  0  0  0  0
    8.3878  -14.4753   16.0871 C   0  0  0  0  0  0  0  0  0  0  0  0
    8.8163  -15.4860   15.4479 N   0  0  0  0  0  0  0  0  0  0  0  0
    8.4819  -14.4337   17.5078 N   0  0  0  0  0  0  0  0  0  0  0  0
    7.8850  -13.3536   18.2294 C   0  0  0  0  0  0  0  0  0  0  0  0
    8.1893  -13.5128   19.7034 C   0  0  0  0  0  0  0  0  0  0  0  0
    7.0157  -14.2405   20.3225 C   0  0  0  0  0  0  0  0  0  0  0  0
    7.5211  -15.5832   20.8483 C   0  0  2  0  0  0  0  0  0  0  0  0
    6.4070  -16.3595   21.3131 N   0  0  0  0  0  0  0  0  0  0  0  0
    8.3974  -15.2505   22.0170 C   0  0  0  0  0  0  0  0  0  0  0  0
    8.1852  -14.2043   22.6760 O   0  0  0  0  0  0  0  0  0  0  0  0
    9.2388  -16.2936   15.9305 N   0  0  0  0  0  0  0  0  0  0  0  0
    9.4704  -16.0773   22.4163 C   0  0  1  0  0  0  0  0  0  0  0  0
   10.3491  -15.6363   23.4642 C   0  0  0  0  0  0  0  0  0  0  0  0
   10.0099  -16.2785   24.7980 C   0  0  0  0  0  0  0  0  0  0  0  0
    8.8423  -15.5697   25.3422 C   0  0  0  0  0  0  0  0  0  0  0  0
    8.2253  -14.4929   24.7728 N   0  0  0  0  0  0  0  0  0  0  0  0
    7.1893  -14.1193   25.5676 C   0  0  0  0  0  0  0  0  0  0  0  0
    7.1830  -14.9696   26.6133 N   0  0  0  0  0  0  0  0  0  0  0  0
    8.2012  -15.8607   26.4717 C   0  0  0  0  0  0  0  0  0  0  0  0
   11.7756  -15.9536   23.1692 O   0  0  0  0  0  0  0  0  0  0  0  0
   12.0381  -16.6525   22.1778 O   0  0  0  0  0  0  0  0  0  0  0  0
  2  1  1  6
  3  2  1  0
  3  4  1  0
  5  2  1  0
  5  6  2  0
  7  8  1  0
  8  9  2  0
 10  8  1  0
 10 11  1  0
 11 12  1  0
 14 13  1  1
 13 12  1  0
 14 15  1  0
 15  5  1  0
 16 14  1  0
 17 16  2  0
 18 16  1  0
 19 20  1  6
 19 18  1  0
 21 22  2  0
 21 20  1  0
 23 22  1  0
 24 25  2  0
 24 23  1  0
 25 21  1  0
 26 19  1  0
 27 26  2  0
 28 26  1  0
M  END
$$$$
