CRH.pdb
     RDKit          3D

 28 28  0  0  1  0  0  0  0  0999 V2000
    6.9111  -20.9446   23.1742 N   0  0  0  0  0  0  0  0  0  0  0  0
    6.4539  -19.5840   23.2172 C   0  0  1  0  0  0  0  0  0  0  0  0
    6.0283  -19.1954   24.6228 C   0  0  0  0  0  0  0  0  0  0  0  0
    7.4216  -19.2308   25.7604 S   0  0  0  0  0  0  0  0  0  0  0  0
    7.4901  -18.6336   22.7113 C   0  0  0  0  0  0  0  0  0  0  0  0
    8.6961  -18.9788   22.6292 O   0  0  0  0  0  0  0  0  0  0  0  0
    9.7367  -13.1331   18.2984 N   0  0  0  0  0  0  0  0  0  0  0  0
    8.4372  -13.4176   17.7762 C   0  0  0  0  0  0  0  0  0  0  0  0
    8.2601  -13.7079   16.5522 N   0  0  0  0  0  0  0  0  0  0  0  0
    7.3279  -13.3689   18.6684 N   0  0  0  0  0  0  0  0  0  0  0  0
    7.5356  -13.0450   20.0453 C   0  0  0  0  0  0  0  0  0  0  0  0
    8.3069  -14.1659   20.7082 C   0  0  0  0  0  0  0  0  0  0  0  0
    7.2890  -15.1590   21.2260 C   0  0  0  0  0  0  0  0  0  0  0  0
    8.0496  -16.3164   21.8713 C   0  0  2  0  0  0  0  0  0  0  0  0
    7.1133  -17.3107   22.3127 N   0  0  0  0  0  0  0  0  0  0  0  0
    8.7294  -15.7291   23.0701 C   0  0  0  0  0  0  0  0  0  0  0  0
    9.5188  -14.7645   22.9275 O   0  0  0  0  0  0  0  0  0  0  0  0
    7.3230  -13.9130   16.1736 N   0  0  0  0  0  0  0  0  0  0  0  0
    8.5170  -16.2221   24.3763 C   0  0  1  0  0  0  0  0  0  0  0  0
    9.2645  -15.6667   25.4705 C   0  0  0  0  0  0  0  0  0  0  0  0
    8.3834  -15.3825   26.6744 C   0  0  0  0  0  0  0  0  0  0  0  0
    9.2400  -14.7996   27.7176 C   0  0  0  0  0  0  0  0  0  0  0  0
    9.8268  -13.5675   27.6724 N   0  0  0  0  0  0  0  0  0  0  0  0
   10.5385  -13.3866   28.8150 C   0  0  0  0  0  0  0  0  0  0  0  0
   10.3801  -14.5077   29.5461 N   0  0  0  0  0  0  0  0  0  0  0  0
    9.5808  -15.3750   28.8683 C   0  0  0  0  0  0  0  0  0  0  0  0
   10.3543  -16.5776   25.9238 O   0  0  0  0  0  0  0  0  0  0  0  0
   10.3926  -17.7325   25.4710 O   0  0  0  0  0  0  0  0  0  0  0  0
  2  1  1  1
  3  2  1  0
  3  4  1  0
  5  2  1  0
  5  6  2  0
  7  8  1  0
  8  9  2  0
 10  8  1  0
 10 11  1  0
 11 12  1  0
 14 13  1  1
 13 12  1  0
 14 15  1  0
 15  5  1  0
 16 14  1  0
 17 16  2  0
 18 16  1  0
 19 20  1  6
 19 18  1  0
 21 22  2  0
 21 20  1  0
 23 22  1  0
 24 25  2  0
 24 23  1  0
 25 21  1  0
 26 19  1  0
 27 26  2  0
 28 26  1  0
M  END
$$$$
