CRH.pdb
     RDKit          3D

 28 28  0  0  1  0  0  0  0  0999 V2000
    6.7475  -14.3025   17.0003 N   0  0  0  0  0  0  0  0  0  0  0  0
    8.1085  -13.8508   16.9256 C   0  0  1  0  0  0  0  0  0  0  0  0
    8.5705  -13.2871   18.2585 C   0  0  0  0  0  0  0  0  0  0  0  0
    8.2204  -14.4263   19.6062 S   0  0  0  0  0  0  0  0  0  0  0  0
    9.0308  -14.9382   16.4785 C   0  0  0  0  0  0  0  0  0  0  0  0
    8.7348  -16.1473   16.6544 O   0  0  0  0  0  0  0  0  0  0  0  0
   11.6888  -13.6729   10.1843 N   0  0  0  0  0  0  0  0  0  0  0  0
   12.4449  -14.8851   10.2183 C   0  0  0  0  0  0  0  0  0  0  0  0
   12.5630  -15.6253    9.1926 N   0  0  0  0  0  0  0  0  0  0  0  0
   13.0732  -15.2523   11.4428 N   0  0  0  0  0  0  0  0  0  0  0  0
   12.4893  -16.2640   12.2669 C   0  0  0  0  0  0  0  0  0  0  0  0
   12.9438  -16.0635   13.6965 C   0  0  0  0  0  0  0  0  0  0  0  0
   12.0847  -14.9653   14.2851 C   0  0  0  0  0  0  0  0  0  0  0  0
   11.2081  -15.5871   15.3712 C   0  0  2  0  0  0  0  0  0  0  0  0
   10.2697  -14.6078   15.8406 N   0  0  0  0  0  0  0  0  0  0  0  0
   12.1427  -15.9336   16.4895 C   0  0  0  0  0  0  0  0  0  0  0  0
   12.9958  -15.0960   16.8697 O   0  0  0  0  0  0  0  0  0  0  0  0
   13.0636  -16.5262    9.2289 N   0  0  0  0  0  0  0  0  0  0  0  0
   12.1048  -17.1833   17.1461 C   0  0  2  0  0  0  0  0  0  0  0  0
   13.3341  -17.8776   17.4135 C   0  0  0  0  0  0  0  0  0  0  0  0
   13.8580  -18.5993   16.1842 C   0  0  0  0  0  0  0  0  0  0  0  0
   13.0862  -19.8428   16.0429 C   0  0  0  0  0  0  0  0  0  0  0  0
   12.1220  -20.2858   16.9022 N   0  0  0  0  0  0  0  0  0  0  0  0
   11.6397  -21.4672   16.4372 C   0  0  0  0  0  0  0  0  0  0  0  0
   12.3125  -21.7346   15.3004 N   0  0  0  0  0  0  0  0  0  0  0  0
   13.2017  -20.7333   15.0605 C   0  0  0  0  0  0  0  0  0  0  0  0
   14.4090  -16.9546   17.8776 O   0  0  0  0  0  0  0  0  0  0  0  0
   14.3727  -15.7679   17.5161 O   0  0  0  0  0  0  0  0  0  0  0  0
  2  1  1  1
  3  2  1  0
  3  4  1  0
  5  2  1  0
  5  6  2  0
  7  8  1  0
  8  9  2  0
 10  8  1  0
 10 11  1  0
 11 12  1  0
 14 13  1  6
 13 12  1  0
 14 15  1  0
 15  5  1  0
 16 14  1  0
 17 16  2  0
 18 16  1  0
 19 20  1  6
 19 18  1  0
 21 22  2  0
 21 20  1  0
 23 22  1  0
 24 25  2  0
 24 23  1  0
 25 21  1  0
 26 19  1  0
 27 26  2  0
 28 26  1  0
M  END
$$$$
