CRH.pdb
     RDKit          3D

 28 28  0  0  1  0  0  0  0  0999 V2000
    3.5170  -19.7222   19.5098 N   0  0  0  0  0  0  0  0  0  0  0  0
    3.6814  -18.7375   20.5420 C   0  0  1  0  0  0  0  0  0  0  0  0
    2.6239  -18.8960   21.6209 C   0  0  0  0  0  0  0  0  0  0  0  0
    3.2135  -19.9353   22.9659 S   0  0  0  0  0  0  0  0  0  0  0  0
    5.0468  -18.7898   21.1470 C   0  0  0  0  0  0  0  0  0  0  0  0
    5.9831  -19.4016   20.5731 O   0  0  0  0  0  0  0  0  0  0  0  0
    8.0619  -11.9307   19.3067 N   0  0  0  0  0  0  0  0  0  0  0  0
    8.5249  -13.2333   18.9446 C   0  0  0  0  0  0  0  0  0  0  0  0
    9.1376  -13.4424   17.8516 N   0  0  0  0  0  0  0  0  0  0  0  0
    8.2827  -14.3086   19.8469 N   0  0  0  0  0  0  0  0  0  0  0  0
    7.5787  -14.0684   21.0678 C   0  0  0  0  0  0  0  0  0  0  0  0
    7.6703  -15.2990   21.9441 C   0  0  0  0  0  0  0  0  0  0  0  0
    6.3836  -16.0735   21.7569 C   0  0  0  0  0  0  0  0  0  0  0  0
    6.4507  -17.3153   22.6446 C   0  0  2  0  0  0  0  0  0  0  0  0
    5.3007  -18.1375   22.3964 N   0  0  0  0  0  0  0  0  0  0  0  0
    6.3835  -16.8052   24.0516 C   0  0  0  0  0  0  0  0  0  0  0  0
    6.4034  -15.5694   24.2670 O   0  0  0  0  0  0  0  0  0  0  0  0
    9.4891  -14.3781   17.5974 N   0  0  0  0  0  0  0  0  0  0  0  0
    6.2971  -17.6691   25.1653 C   0  0  2  0  0  0  0  0  0  0  0  0
    7.4978  -18.2383   25.7118 C   0  0  0  0  0  0  0  0  0  0  0  0
    8.1663  -19.1954   24.7404 C   0  0  0  0  0  0  0  0  0  0  0  0
    9.2817  -19.8360   25.4527 C   0  0  0  0  0  0  0  0  0  0  0  0
    9.5047  -19.7831   26.7988 N   0  0  0  0  0  0  0  0  0  0  0  0
   10.6280  -20.4936   27.0781 C   0  0  0  0  0  0  0  0  0  0  0  0
   11.0800  -20.9731   25.9024 N   0  0  0  0  0  0  0  0  0  0  0  0
   10.2496  -20.5668   24.9043 C   0  0  0  0  0  0  0  0  0  0  0  0
    8.5012  -17.1943   26.0668 O   0  0  0  0  0  0  0  0  0  0  0  0
    8.8630  -16.3930   25.1909 O   0  0  0  0  0  0  0  0  0  0  0  0
  2  1  1  6
  3  2  1  0
  3  4  1  0
  5  2  1  0
  5  6  2  0
  7  8  1  0
  8  9  2  0
 10  8  1  0
 10 11  1  0
 11 12  1  0
 14 13  1  6
 13 12  1  0
 14 15  1  0
 15  5  1  0
 16 14  1  0
 17 16  2  0
 18 16  1  0
 19 20  1  6
 19 18  1  0
 21 22  2  0
 21 20  1  0
 23 22  1  0
 24 25  2  0
 24 23  1  0
 25 21  1  0
 26 19  1  0
 27 26  2  0
 28 26  1  0
M  END
$$$$
