CRH.pdb
     RDKit          3D

 28 28  0  0  1  0  0  0  0  0999 V2000
    4.6122  -12.7599   26.2398 N   0  0  0  0  0  0  0  0  0  0  0  0
    5.9598  -12.6412   25.7581 C   0  0  1  0  0  0  0  0  0  0  0  0
    6.7906  -11.7576   26.6730 C   0  0  0  0  0  0  0  0  0  0  0  0
    8.5173  -11.7359   26.1686 S   0  0  0  0  0  0  0  0  0  0  0  0
    6.6123  -13.9760   25.5991 C   0  0  0  0  0  0  0  0  0  0  0  0
    6.5982  -14.8159   26.5344 O   0  0  0  0  0  0  0  0  0  0  0  0
    7.9656  -12.2803   19.4488 N   0  0  0  0  0  0  0  0  0  0  0  0
    8.9147  -13.3303   19.2514 C   0  0  0  0  0  0  0  0  0  0  0  0
   10.0479  -13.1127   18.7200 N   0  0  0  0  0  0  0  0  0  0  0  0
    8.5602  -14.6453   19.6687 N   0  0  0  0  0  0  0  0  0  0  0  0
    7.3578  -14.8559   20.4128 C   0  0  0  0  0  0  0  0  0  0  0  0
    7.6189  -14.5572   21.8733 C   0  0  0  0  0  0  0  0  0  0  0  0
    7.7030  -15.8875   22.5900 C   0  0  0  0  0  0  0  0  0  0  0  0
    7.8142  -15.6068   24.0878 C   0  0  2  0  0  0  0  0  0  0  0  0
    7.2645  -14.3111   24.3689 N   0  0  0  0  0  0  0  0  0  0  0  0
    9.2830  -15.5810   24.3817 C   0  0  0  0  0  0  0  0  0  0  0  0
    9.9834  -14.6252   23.9695 O   0  0  0  0  0  0  0  0  0  0  0  0
   10.6882  -13.8827   18.4735 N   0  0  0  0  0  0  0  0  0  0  0  0
    9.9249  -16.6029   25.1151 C   0  0  1  0  0  0  0  0  0  0  0  0
   11.3517  -16.5634   25.2804 C   0  0  0  0  0  0  0  0  0  0  0  0
   11.7811  -17.0882   26.6393 C   0  0  0  0  0  0  0  0  0  0  0  0
   11.2216  -16.1848   27.6555 C   0  0  0  0  0  0  0  0  0  0  0  0
   10.9607  -14.8555   27.4851 N   0  0  0  0  0  0  0  0  0  0  0  0
   10.4518  -14.3637   28.6444 C   0  0  0  0  0  0  0  0  0  0  0  0
   10.4068  -15.3952   29.5106 N   0  0  0  0  0  0  0  0  0  0  0  0
   10.8810  -16.5142   28.8994 C   0  0  0  0  0  0  0  0  0  0  0  0
   12.0575  -17.3753   24.2482 O   0  0  0  0  0  0  0  0  0  0  0  0
   11.3810  -18.0058   23.4205 O   0  0  0  0  0  0  0  0  0  0  0  0
  2  1  1  1
  3  2  1  0
  3  4  1  0
  5  2  1  0
  5  6  2  0
  7  8  1  0
  8  9  2  0
 10  8  1  0
 10 11  1  0
 11 12  1  0
 14 13  1  6
 13 12  1  0
 14 15  1  0
 15  5  1  0
 16 14  1  0
 17 16  2  0
 18 16  1  0
 19 20  1  6
 19 18  1  0
 21 22  2  0
 21 20  1  0
 23 22  1  0
 24 25  2  0
 24 23  1  0
 25 21  1  0
 26 19  1  0
 27 26  2  0
 28 26  1  0
M  END
$$$$
