CRH.pdb
     RDKit          3D

 28 28  0  0  1  0  0  0  0  0999 V2000
    6.4832  -21.1673   25.2577 N   0  0  0  0  0  0  0  0  0  0  0  0
    6.6969  -19.7508   25.3574 C   0  0  1  0  0  0  0  0  0  0  0  0
    7.5221  -19.4085   26.5861 C   0  0  0  0  0  0  0  0  0  0  0  0
    6.9773  -17.8634   27.3292 S   0  0  0  0  0  0  0  0  0  0  0  0
    7.3470  -19.1995   24.1300 C   0  0  0  0  0  0  0  0  0  0  0  0
    8.2421  -19.8460   23.5290 O   0  0  0  0  0  0  0  0  0  0  0  0
    8.4925  -12.4594   20.0120 N   0  0  0  0  0  0  0  0  0  0  0  0
    8.1337  -13.1627   18.8209 C   0  0  0  0  0  0  0  0  0  0  0  0
    8.6818  -12.9045   17.7042 N   0  0  0  0  0  0  0  0  0  0  0  0
    7.1350  -14.1743   18.9115 N   0  0  0  0  0  0  0  0  0  0  0  0
    6.5868  -14.5211   20.1854 C   0  0  0  0  0  0  0  0  0  0  0  0
    7.5493  -15.4396   20.9069 C   0  0  0  0  0  0  0  0  0  0  0  0
    6.7524  -16.1781   21.9604 C   0  0  0  0  0  0  0  0  0  0  0  0
    7.6766  -17.2050   22.6131 C   0  0  2  0  0  0  0  0  0  0  0  0
    6.9514  -17.9190   23.6251 N   0  0  0  0  0  0  0  0  0  0  0  0
    8.7606  -16.4065   23.2701 C   0  0  0  0  0  0  0  0  0  0  0  0
    9.5916  -15.7860   22.5641 O   0  0  0  0  0  0  0  0  0  0  0  0
    8.3996  -13.3867   16.8373 N   0  0  0  0  0  0  0  0  0  0  0  0
    8.8904  -16.3200   24.6737 C   0  0  1  0  0  0  0  0  0  0  0  0
    9.8983  -15.4655   25.2380 C   0  0  0  0  0  0  0  0  0  0  0  0
    9.5007  -14.9463   26.6087 C   0  0  0  0  0  0  0  0  0  0  0  0
    8.2243  -14.2329   26.4547 C   0  0  0  0  0  0  0  0  0  0  0  0
    7.6171  -13.9300   25.2698 N   0  0  0  0  0  0  0  0  0  0  0  0
    6.4601  -13.2698   25.5346 C   0  0  0  0  0  0  0  0  0  0  0  0
    6.3714  -13.1757   26.8761 N   0  0  0  0  0  0  0  0  0  0  0  0
    7.4582  -13.7691   27.4393 C   0  0  0  0  0  0  0  0  0  0  0  0
   11.2051  -16.1666   25.3913 O   0  0  0  0  0  0  0  0  0  0  0  0
   11.2777  -17.3663   25.0820 O   0  0  0  0  0  0  0  0  0  0  0  0
  2  1  1  6
  3  2  1  0
  3  4  1  0
  5  2  1  0
  5  6  2  0
  7  8  1  0
  8  9  2  0
 10  8  1  0
 10 11  1  0
 11 12  1  0
 14 13  1  1
 13 12  1  0
 14 15  1  0
 15  5  1  0
 16 14  1  0
 17 16  2  0
 18 16  1  0
 19 20  1  1
 19 18  1  0
 21 22  2  0
 21 20  1  0
 23 22  1  0
 24 25  2  0
 24 23  1  0
 25 21  1  0
 26 19  1  0
 27 26  2  0
 28 26  1  0
M  END
$$$$
