STK.pdb
     RDKit          3D

 23 22  0  0  1  0  0  0  0  0999 V2000
   23.2282  -13.9975  -16.6883 O   0  0  0  0  0  0  0  0  0  0  0  0
   22.6787  -12.8404  -17.2235 C   0  0  0  0  0  0  0  0  0  0  0  0
   21.2296  -12.6719  -16.7538 C   0  0  2  0  0  0  0  0  0  0  0  0
   20.3854  -13.6069  -17.4708 N   0  0  0  0  0  0  0  0  0  0  0  0
   20.7727  -11.2756  -16.9759 C   0  0  0  0  0  0  0  0  0  0  0  0
   20.5234  -10.8443  -18.1302 O   0  0  0  0  0  0  0  0  0  0  0  0
   17.6650   -9.7427  -16.0478 C   0  0  0  0  0  0  0  0  0  0  0  0
   18.7136   -8.9610  -15.3243 C   0  0  1  0  0  0  0  0  0  0  0  0
   18.8848   -9.3273  -14.0157 O   0  0  0  0  0  0  0  0  0  0  0  0
   20.0664   -9.0193  -16.0506 C   0  0  2  0  0  0  0  0  0  0  0  0
   20.5968  -10.3670  -15.9004 N   0  0  0  0  0  0  0  0  0  0  0  0
   21.0125   -8.0034  -15.5652 C   0  0  0  0  0  0  0  0  0  0  0  0
   21.8979   -8.3475  -14.7434 O   0  0  0  0  0  0  0  0  0  0  0  0
   20.9654   -6.6575  -15.9871 N   0  0  0  0  0  0  0  0  0  0  0  0
   21.8437   -5.6104  -15.4776 C   0  0  1  0  0  0  0  0  0  0  0  0
   21.9023   -4.4340  -16.3680 C   0  0  0  0  0  0  0  0  0  0  0  0
   22.7592   -3.2961  -15.9677 C   0  0  0  0  0  0  0  0  0  0  0  0
   22.8029   -2.1194  -16.8959 C   0  0  0  0  0  0  0  0  0  0  0  0
   23.7445   -1.0559  -16.3888 C   0  0  0  0  0  0  0  0  0  0  0  0
   23.8926    0.0363  -17.3139 N   0  0  0  0  0  0  0  0  0  0  0  0
   21.6018   -5.2986  -14.0782 C   0  0  0  0  0  0  0  0  0  0  0  0
   20.4188   -5.2700  -13.6446 O   0  0  0  0  0  0  0  0  0  0  0  0
   22.6303   -5.0212  -13.1659 O   0  0  0  0  0  0  0  0  0  0  0  0
  2  1  1  0
  3  4  1  6
  3  2  1  0
  5  6  2  0
  5  3  1  0
  8  7  1  6
  8 10  1  0
  9  8  1  0
 10 11  1  1
 10 12  1  0
 11  5  1  0
 12 14  1  0
 13 12  2  0
 14 15  1  0
 15 21  1  0
 15 16  1  6
 16 17  1  0
 18 17  1  0
 19 18  1  0
 20 19  1  0
 21 22  2  0
 21 23  1  0
M  END
$$$$
