STK.pdb
     RDKit          3D

 23 22  0  0  1  0  0  0  0  0999 V2000
   16.9261  -11.6386  -18.2581 O   0  0  0  0  0  0  0  0  0  0  0  0
   17.5898  -11.0552  -17.1874 C   0  0  0  0  0  0  0  0  0  0  0  0
   18.8667  -11.8379  -16.8616 C   0  0  2  0  0  0  0  0  0  0  0  0
   18.5069  -13.1620  -16.3944 N   0  0  0  0  0  0  0  0  0  0  0  0
   19.6668  -11.1191  -15.8364 C   0  0  0  0  0  0  0  0  0  0  0  0
   19.3931  -11.2072  -14.6126 O   0  0  0  0  0  0  0  0  0  0  0  0
   23.1365  -11.4500  -14.8544 C   0  0  0  0  0  0  0  0  0  0  0  0
   23.0110  -10.0320  -15.3103 C   0  0  1  0  0  0  0  0  0  0  0  0
   23.5015   -9.8006  -16.5679 O   0  0  0  0  0  0  0  0  0  0  0  0
   21.5583   -9.5374  -15.2312 C   0  0  2  0  0  0  0  0  0  0  0  0
   20.7727  -10.3029  -16.1888 N   0  0  0  0  0  0  0  0  0  0  0  0
   21.4410   -8.0899  -15.4624 C   0  0  0  0  0  0  0  0  0  0  0  0
   20.9753   -7.6900  -16.5583 O   0  0  0  0  0  0  0  0  0  0  0  0
   21.8300   -7.1325  -14.5014 N   0  0  0  0  0  0  0  0  0  0  0  0
   21.7667   -5.6907  -14.7124 C   0  0  1  0  0  0  0  0  0  0  0  0
   20.4624   -5.2508  -15.2468 C   0  0  0  0  0  0  0  0  0  0  0  0
   20.2184   -3.7982  -15.3878 C   0  0  0  0  0  0  0  0  0  0  0  0
   18.8446   -3.3789  -15.8176 C   0  0  0  0  0  0  0  0  0  0  0  0
   18.7503   -1.8810  -15.9671 C   0  0  0  0  0  0  0  0  0  0  0  0
   17.4469   -1.4509  -16.3991 N   0  0  0  0  0  0  0  0  0  0  0  0
   22.2396   -4.9287  -13.5679 C   0  0  0  0  0  0  0  0  0  0  0  0
   22.4849   -3.6996  -13.6996 O   0  0  0  0  0  0  0  0  0  0  0  0
   22.4434   -5.4953  -12.3012 O   0  0  0  0  0  0  0  0  0  0  0  0
  2  1  1  0
  3  4  1  1
  3  2  1  0
  5  6  2  0
  5  3  1  0
  8  7  1  6
  8 10  1  0
  9  8  1  0
 10 11  1  6
 10 12  1  0
 11  5  1  0
 12 14  1  0
 13 12  2  0
 14 15  1  0
 15 21  1  0
 15 16  1  1
 16 17  1  0
 18 17  1  0
 19 18  1  0
 20 19  1  0
 21 22  2  0
 21 23  1  0
M  END
$$$$
