STK.pdb
     RDKit          3D

 23 22  0  0  1  0  0  0  0  0999 V2000
   26.7318  -23.1554  -19.0644 O   0  0  0  0  0  0  0  0  0  0  0  0
   27.6972  -22.1649  -19.1839 C   0  0  0  0  0  0  0  0  0  0  0  0
   28.6178  -22.1674  -17.9585 C   0  0  2  0  0  0  0  0  0  0  0  0
   29.3282  -23.4295  -17.8998 N   0  0  0  0  0  0  0  0  0  0  0  0
   27.8288  -21.9513  -16.7181 C   0  0  0  0  0  0  0  0  0  0  0  0
   27.7408  -22.8417  -15.8349 O   0  0  0  0  0  0  0  0  0  0  0  0
   26.3722  -18.8348  -13.3257 C   0  0  0  0  0  0  0  0  0  0  0  0
   27.1354  -19.3023  -14.5228 C   0  0  1  0  0  0  0  0  0  0  0  0
   28.4239  -19.6814  -14.2549 O   0  0  0  0  0  0  0  0  0  0  0  0
   26.4085  -20.4457  -15.2478 C   0  0  2  0  0  0  0  0  0  0  0  0
   27.1404  -20.7351  -16.4728 N   0  0  0  0  0  0  0  0  0  0  0  0
   24.9959  -20.1368  -15.5160 C   0  0  0  0  0  0  0  0  0  0  0  0
   24.7222  -19.2719  -16.3848 O   0  0  0  0  0  0  0  0  0  0  0  0
   23.9360  -20.7745  -14.8368 N   0  0  0  0  0  0  0  0  0  0  0  0
   22.5249  -20.5038  -15.0873 C   0  0  1  0  0  0  0  0  0  0  0  0
   21.6389  -21.5500  -14.5390 C   0  0  0  0  0  0  0  0  0  0  0  0
   20.1840  -21.4318  -14.7811 C   0  0  0  0  0  0  0  0  0  0  0  0
   19.3126  -22.5181  -14.2256 C   0  0  0  0  0  0  0  0  0  0  0  0
   17.8910  -22.3826  -14.7110 C   0  0  0  0  0  0  0  0  0  0  0  0
   16.9941  -23.2950  -14.0526 N   0  0  0  0  0  0  0  0  0  0  0  0
   22.1389  -19.1442  -14.7458 C   0  0  0  0  0  0  0  0  0  0  0  0
   22.5731  -18.6246  -13.6829 O   0  0  0  0  0  0  0  0  0  0  0  0
   21.2934  -18.3632  -15.5473 O   0  0  0  0  0  0  0  0  0  0  0  0
  2  1  1  0
  3  4  1  1
  3  2  1  0
  5  6  2  0
  5  3  1  0
  8  7  1  1
  8 10  1  0
  9  8  1  0
 10 11  1  6
 10 12  1  0
 11  5  1  0
 12 14  1  0
 13 12  2  0
 14 15  1  0
 15 21  1  0
 15 16  1  1
 16 17  1  0
 18 17  1  0
 19 18  1  0
 20 19  1  0
 21 22  2  0
 21 23  1  0
M  END
$$$$
