STK.pdb
     RDKit          3D

 23 22  0  0  1  0  0  0  0  0999 V2000
   17.4983  -12.4625  -15.3397 O   0  0  0  0  0  0  0  0  0  0  0  0
   17.5145  -11.0754  -15.2864 C   0  0  0  0  0  0  0  0  0  0  0  0
   16.5412  -10.5718  -14.2150 C   0  0  2  0  0  0  0  0  0  0  0  0
   15.2445  -10.3418  -14.8205 N   0  0  0  0  0  0  0  0  0  0  0  0
   17.0575   -9.3259  -13.5913 C   0  0  0  0  0  0  0  0  0  0  0  0
   18.1040   -9.3278  -12.8947 O   0  0  0  0  0  0  0  0  0  0  0  0
   18.6415   -6.5267  -14.9720 C   0  0  0  0  0  0  0  0  0  0  0  0
   17.3911   -5.9649  -14.3765 C   0  0  1  0  0  0  0  0  0  0  0  0
   16.3745   -5.7794  -15.2754 O   0  0  0  0  0  0  0  0  0  0  0  0
   16.8855   -6.8223  -13.2059 C   0  0  2  0  0  0  0  0  0  0  0  0
   16.3966   -8.0806  -13.7518 N   0  0  0  0  0  0  0  0  0  0  0  0
   15.8577   -6.1382  -12.4070 C   0  0  0  0  0  0  0  0  0  0  0  0
   14.6807   -6.5758  -12.4363 O   0  0  0  0  0  0  0  0  0  0  0  0
   16.1418   -5.0101  -11.6080 N   0  0  0  0  0  0  0  0  0  0  0  0
   15.1439   -4.2935  -10.8219 C   0  0  1  0  0  0  0  0  0  0  0  0
   14.4429   -5.1673   -9.8599 C   0  0  0  0  0  0  0  0  0  0  0  0
   13.4301   -4.5571   -8.9703 C   0  0  0  0  0  0  0  0  0  0  0  0
   12.7574   -5.4644   -7.9844 C   0  0  0  0  0  0  0  0  0  0  0  0
   11.7502   -4.7150   -7.1484 C   0  0  0  0  0  0  0  0  0  0  0  0
   11.0647   -5.5683   -6.2143 N   0  0  0  0  0  0  0  0  0  0  0  0
   15.6513   -3.0543  -10.2552 C   0  0  0  0  0  0  0  0  0  0  0  0
   16.8829   -2.9419  -10.0125 O   0  0  0  0  0  0  0  0  0  0  0  0
   14.8318   -1.9561   -9.9565 O   0  0  0  0  0  0  0  0  0  0  0  0
  2  1  1  0
  3  4  1  6
  3  2  1  0
  5  6  2  0
  5  3  1  0
  8  7  1  6
  8 10  1  0
  9  8  1  0
 10 11  1  6
 10 12  1  0
 11  5  1  0
 12 14  1  0
 13 12  2  0
 14 15  1  0
 15 21  1  0
 15 16  1  1
 16 17  1  0
 18 17  1  0
 19 18  1  0
 20 19  1  0
 21 22  2  0
 21 23  1  0
M  END
$$$$
