STK.pdb
     RDKit          3D

 23 22  0  0  1  0  0  0  0  0999 V2000
   20.9624  -17.6322  -18.3918 O   0  0  0  0  0  0  0  0  0  0  0  0
   21.0316  -16.6278  -17.4359 C   0  0  0  0  0  0  0  0  0  0  0  0
   22.4404  -16.5591  -16.8363 C   0  0  2  0  0  0  0  0  0  0  0  0
   22.7278  -17.8046  -16.1529 N   0  0  0  0  0  0  0  0  0  0  0  0
   22.5489  -15.4100  -15.9006 C   0  0  0  0  0  0  0  0  0  0  0  0
   21.9620  -15.4135  -14.7889 O   0  0  0  0  0  0  0  0  0  0  0  0
   25.6829  -14.0222  -14.4684 C   0  0  0  0  0  0  0  0  0  0  0  0
   25.0077  -12.8847  -15.1642 C   0  0  1  0  0  0  0  0  0  0  0  0
   25.5433  -12.5759  -16.3863 O   0  0  0  0  0  0  0  0  0  0  0  0
   23.4983  -13.1288  -15.3167 C   0  0  2  0  0  0  0  0  0  0  0  0
   23.3169  -14.2594  -16.2162 N   0  0  0  0  0  0  0  0  0  0  0  0
   22.7778  -11.9362  -15.7871 C   0  0  0  0  0  0  0  0  0  0  0  0
   22.2271  -11.9703  -16.9155 O   0  0  0  0  0  0  0  0  0  0  0  0
   22.6800  -10.7554  -15.0204 N   0  0  0  0  0  0  0  0  0  0  0  0
   21.9524   -9.5644  -15.4438 C   0  0  1  0  0  0  0  0  0  0  0  0
   20.5572   -9.8569  -15.8286 C   0  0  0  0  0  0  0  0  0  0  0  0
   19.6862   -8.7248  -16.2147 C   0  0  0  0  0  0  0  0  0  0  0  0
   18.2262   -9.0191  -16.3865 C   0  0  0  0  0  0  0  0  0  0  0  0
   17.4868   -7.8240  -16.9342 C   0  0  0  0  0  0  0  0  0  0  0  0
   16.0602   -8.0119  -16.9373 N   0  0  0  0  0  0  0  0  0  0  0  0
   22.1049   -8.4494  -14.5230 C   0  0  0  0  0  0  0  0  0  0  0  0
   21.7229   -7.3002  -14.8719 O   0  0  0  0  0  0  0  0  0  0  0  0
   22.6650   -8.5828  -13.2441 O   0  0  0  0  0  0  0  0  0  0  0  0
  2  1  1  0
  3  4  1  1
  3  2  1  0
  5  6  2  0
  5  3  1  0
  8  7  1  6
  8 10  1  0
  9  8  1  0
 10 11  1  6
 10 12  1  0
 11  5  1  0
 12 14  1  0
 13 12  2  0
 14 15  1  0
 15 21  1  0
 15 16  1  1
 16 17  1  0
 18 17  1  0
 19 18  1  0
 20 19  1  0
 21 22  2  0
 21 23  1  0
M  END
$$$$
