STK.pdb
     RDKit          3D

 23 22  0  0  1  0  0  0  0  0999 V2000
   18.7277  -14.8080  -19.1817 O   0  0  0  0  0  0  0  0  0  0  0  0
   19.4405  -13.8576  -18.4633 C   0  0  0  0  0  0  0  0  0  0  0  0
   20.9008  -13.8235  -18.9276 C   0  0  2  0  0  0  0  0  0  0  0  0
   21.5014  -15.1236  -18.7042 N   0  0  0  0  0  0  0  0  0  0  0  0
   21.6505  -12.7671  -18.1998 C   0  0  0  0  0  0  0  0  0  0  0  0
   22.7439  -13.0144  -17.6310 O   0  0  0  0  0  0  0  0  0  0  0  0
   23.9923  -11.4006  -18.4145 C   0  0  0  0  0  0  0  0  0  0  0  0
   23.2020  -10.1362  -18.3107 C   0  0  1  0  0  0  0  0  0  0  0  0
   22.8977   -9.5630  -19.5168 O   0  0  0  0  0  0  0  0  0  0  0  0
   21.9105  -10.3394  -17.5033 C   0  0  2  0  0  0  0  0  0  0  0  0
   21.1698  -11.4349  -18.1129 N   0  0  0  0  0  0  0  0  0  0  0  0
   21.1005   -9.1152  -17.4156 C   0  0  0  0  0  0  0  0  0  0  0  0
   20.2577   -8.8838  -18.3178 O   0  0  0  0  0  0  0  0  0  0  0  0
   21.2319   -8.1908  -16.3575 N   0  0  0  0  0  0  0  0  0  0  0  0
   20.2675   -7.1349  -16.0705 C   0  0  1  0  0  0  0  0  0  0  0  0
   18.8780   -7.6320  -16.0203 C   0  0  0  0  0  0  0  0  0  0  0  0
   17.8179   -6.7010  -15.5744 C   0  0  0  0  0  0  0  0  0  0  0  0
   16.4233   -7.2460  -15.4987 C   0  0  0  0  0  0  0  0  0  0  0  0
   15.4589   -6.2130  -14.9714 C   0  0  0  0  0  0  0  0  0  0  0  0
   14.1108   -6.7090  -14.8877 N   0  0  0  0  0  0  0  0  0  0  0  0
   20.6544   -6.3052  -14.9409 C   0  0  0  0  0  0  0  0  0  0  0  0
   19.9497   -5.3060  -14.6352 O   0  0  0  0  0  0  0  0  0  0  0  0
   21.7900   -6.5580  -14.1577 O   0  0  0  0  0  0  0  0  0  0  0  0
  2  1  1  0
  3  4  1  1
  3  2  1  0
  5  6  2  0
  5  3  1  0
  8  7  1  6
  8 10  1  0
  9  8  1  0
 10 11  1  6
 10 12  1  0
 11  5  1  0
 12 14  1  0
 13 12  2  0
 14 15  1  0
 15 21  1  0
 15 16  1  1
 16 17  1  0
 18 17  1  0
 19 18  1  0
 20 19  1  0
 21 22  2  0
 21 23  1  0
M  END
$$$$
