STK.pdb
     RDKit          3D

 23 22  0  0  1  0  0  0  0  0999 V2000
   25.0725  -12.7476  -19.5958 O   0  0  0  0  0  0  0  0  0  0  0  0
   23.9742  -11.9129  -19.4400 C   0  0  0  0  0  0  0  0  0  0  0  0
   23.0696  -12.4270  -18.3146 C   0  0  2  0  0  0  0  0  0  0  0  0
   22.4773  -13.6868  -18.7185 N   0  0  0  0  0  0  0  0  0  0  0  0
   22.0153  -11.4281  -18.0010 C   0  0  0  0  0  0  0  0  0  0  0  0
   21.0422  -11.2389  -18.7742 O   0  0  0  0  0  0  0  0  0  0  0  0
   19.5410  -11.3987  -15.4121 C   0  0  0  0  0  0  0  0  0  0  0  0
   20.3559  -10.1704  -15.1645 C   0  0  1  0  0  0  0  0  0  0  0  0
   21.2952  -10.3086  -14.1774 O   0  0  0  0  0  0  0  0  0  0  0  0
   21.0366   -9.6730  -16.4492 C   0  0  2  0  0  0  0  0  0  0  0  0
   22.0568  -10.6439  -16.8192 N   0  0  0  0  0  0  0  0  0  0  0  0
   21.5969   -8.3210  -16.3047 C   0  0  0  0  0  0  0  0  0  0  0  0
   22.8411   -8.1930  -16.1897 O   0  0  0  0  0  0  0  0  0  0  0  0
   20.7919   -7.1620  -16.2912 N   0  0  0  0  0  0  0  0  0  0  0  0
   21.3108   -5.8088  -16.1270 C   0  0  1  0  0  0  0  0  0  0  0  0
   20.4061   -4.7816  -16.6806 C   0  0  0  0  0  0  0  0  0  0  0  0
   20.7825   -3.3594  -16.5221 C   0  0  0  0  0  0  0  0  0  0  0  0
   19.7910   -2.3380  -16.9926 C   0  0  0  0  0  0  0  0  0  0  0  0
   20.2560   -0.9377  -16.6796 C   0  0  0  0  0  0  0  0  0  0  0  0
   19.3101    0.0636  -17.0956 N   0  0  0  0  0  0  0  0  0  0  0  0
   21.7766   -5.5402  -14.7761 C   0  0  0  0  0  0  0  0  0  0  0  0
   21.1515   -6.0272  -13.7961 O   0  0  0  0  0  0  0  0  0  0  0  0
   22.9035   -4.7534  -14.4962 O   0  0  0  0  0  0  0  0  0  0  0  0
  2  1  1  0
  3  4  1  6
  3  2  1  0
  5  6  2  0
  5  3  1  0
  8  7  1  6
  8 10  1  0
  9  8  1  0
 10 11  1  1
 10 12  1  0
 11  5  1  0
 12 14  1  0
 13 12  2  0
 14 15  1  0
 15 21  1  0
 15 16  1  1
 16 17  1  0
 18 17  1  0
 19 18  1  0
 20 19  1  0
 21 22  2  0
 21 23  1  0
M  END
$$$$
