STK.pdb
     RDKit          3D

 23 22  0  0  1  0  0  0  0  0999 V2000
   17.1195  -12.6366  -17.8224 O   0  0  0  0  0  0  0  0  0  0  0  0
   17.9085  -11.8844  -16.9628 C   0  0  0  0  0  0  0  0  0  0  0  0
   19.3765  -11.9414  -17.3998 C   0  0  2  0  0  0  0  0  0  0  0  0
   19.8300  -13.3177  -17.3650 N   0  0  0  0  0  0  0  0  0  0  0  0
   20.2133  -11.0906  -16.5145 C   0  0  0  0  0  0  0  0  0  0  0  0
   20.5357  -11.4669  -15.3592 O   0  0  0  0  0  0  0  0  0  0  0  0
   23.5645   -9.6804  -17.5308 C   0  0  0  0  0  0  0  0  0  0  0  0
   22.7292   -8.5299  -17.0695 C   0  0  1  0  0  0  0  0  0  0  0  0
   22.2111   -7.7693  -18.0838 O   0  0  0  0  0  0  0  0  0  0  0  0
   21.5909   -8.9901  -16.1456 C   0  0  2  0  0  0  0  0  0  0  0  0
   20.6860   -9.8188  -16.9296 N   0  0  0  0  0  0  0  0  0  0  0  0
   20.8884   -7.8647  -15.5109 C   0  0  0  0  0  0  0  0  0  0  0  0
   19.8591   -7.4062  -16.0659 O   0  0  0  0  0  0  0  0  0  0  0  0
   21.3245   -7.2805  -14.3026 N   0  0  0  0  0  0  0  0  0  0  0  0
   20.6156   -6.2104  -13.6100 C   0  0  1  0  0  0  0  0  0  0  0  0
   19.7797   -6.7079  -12.4992 C   0  0  0  0  0  0  0  0  0  0  0  0
   19.0580   -5.7180  -11.6694 C   0  0  0  0  0  0  0  0  0  0  0  0
   18.2960   -6.2461  -10.4911 C   0  0  0  0  0  0  0  0  0  0  0  0
   17.7394   -5.1242   -9.6507 C   0  0  0  0  0  0  0  0  0  0  0  0
   16.8727   -5.5969   -8.6038 N   0  0  0  0  0  0  0  0  0  0  0  0
   21.4765   -5.0906  -13.2648 C   0  0  0  0  0  0  0  0  0  0  0  0
   22.7038   -5.2917  -13.0609 O   0  0  0  0  0  0  0  0  0  0  0  0
   21.0092   -3.7739  -13.1425 O   0  0  0  0  0  0  0  0  0  0  0  0
  2  1  1  0
  3  4  1  1
  3  2  1  0
  5  6  2  0
  5  3  1  0
  8  7  1  6
  8 10  1  0
  9  8  1  0
 10 11  1  6
 10 12  1  0
 11  5  1  0
 12 14  1  0
 13 12  2  0
 14 15  1  0
 15 21  1  0
 15 16  1  1
 16 17  1  0
 18 17  1  0
 19 18  1  0
 20 19  1  0
 21 22  2  0
 21 23  1  0
M  END
$$$$
