STK.pdb
     RDKit          3D

 23 22  0  0  1  0  0  0  0  0999 V2000
   28.4543  -22.0244  -19.6172 O   0  0  0  0  0  0  0  0  0  0  0  0
   27.5873  -21.8210  -18.5522 C   0  0  0  0  0  0  0  0  0  0  0  0
   28.3768  -21.5738  -17.2620 C   0  0  2  0  0  0  0  0  0  0  0  0
   29.1275  -22.7678  -16.9275 N   0  0  0  0  0  0  0  0  0  0  0  0
   27.4569  -21.2050  -16.1550 C   0  0  0  0  0  0  0  0  0  0  0  0
   27.5178  -21.7748  -15.0361 O   0  0  0  0  0  0  0  0  0  0  0  0
   27.0754  -17.7893  -14.6784 C   0  0  0  0  0  0  0  0  0  0  0  0
   25.7201  -18.2099  -15.1477 C   0  0  1  0  0  0  0  0  0  0  0  0
   25.3421  -17.6565  -16.3421 O   0  0  0  0  0  0  0  0  0  0  0  0
   25.5994  -19.7393  -15.2344 C   0  0  2  0  0  0  0  0  0  0  0  0
   26.4706  -20.1965  -16.3078 N   0  0  0  0  0  0  0  0  0  0  0  0
   24.2121  -20.1865  -15.4296 C   0  0  0  0  0  0  0  0  0  0  0  0
   23.8410  -20.5143  -16.5840 O   0  0  0  0  0  0  0  0  0  0  0  0
   23.2818  -20.2627  -14.3712 N   0  0  0  0  0  0  0  0  0  0  0  0
   21.8807  -20.6313  -14.5399 C   0  0  1  0  0  0  0  0  0  0  0  0
   21.4276  -21.6177  -13.5391 C   0  0  0  0  0  0  0  0  0  0  0  0
   20.0567  -22.1605  -13.6630 C   0  0  0  0  0  0  0  0  0  0  0  0
   19.6426  -23.1950  -12.6600 C   0  0  0  0  0  0  0  0  0  0  0  0
   18.2331  -23.6693  -12.9116 C   0  0  0  0  0  0  0  0  0  0  0  0
   17.7772  -24.5989  -11.9124 N   0  0  0  0  0  0  0  0  0  0  0  0
   21.0060  -19.4800  -14.6938 C   0  0  0  0  0  0  0  0  0  0  0  0
   21.2974  -18.3982  -14.1166 O   0  0  0  0  0  0  0  0  0  0  0  0
   19.8330  -19.5059  -15.4621 O   0  0  0  0  0  0  0  0  0  0  0  0
  2  1  1  0
  3  4  1  1
  3  2  1  0
  5  6  2  0
  5  3  1  0
  8  7  1  6
  8 10  1  0
  9  8  1  0
 10 11  1  6
 10 12  1  0
 11  5  1  0
 12 14  1  0
 13 12  2  0
 14 15  1  0
 15 21  1  0
 15 16  1  1
 16 17  1  0
 18 17  1  0
 19 18  1  0
 20 19  1  0
 21 22  2  0
 21 23  1  0
M  END
$$$$
