STK.pdb
     RDKit          3D

 23 22  0  0  1  0  0  0  0  0999 V2000
   23.1580  -12.9450  -20.3081 O   0  0  0  0  0  0  0  0  0  0  0  0
   22.3394  -12.4603  -19.2971 C   0  0  0  0  0  0  0  0  0  0  0  0
   23.1193  -12.3615  -17.9813 C   0  0  2  0  0  0  0  0  0  0  0  0
   23.4902  -13.6936  -17.5470 N   0  0  0  0  0  0  0  0  0  0  0  0
   22.3011  -11.6803  -16.9448 C   0  0  0  0  0  0  0  0  0  0  0  0
   21.3968  -12.2901  -16.3197 O   0  0  0  0  0  0  0  0  0  0  0  0
   21.8066  -11.7414  -14.2153 C   0  0  0  0  0  0  0  0  0  0  0  0
   22.1503  -10.2868  -14.2188 C   0  0  1  0  0  0  0  0  0  0  0  0
   23.4603  -10.0182  -13.9230 O   0  0  0  0  0  0  0  0  0  0  0  0
   21.7828   -9.6206  -15.5538 C   0  0  2  0  0  0  0  0  0  0  0  0
   22.5011  -10.3153  -16.6129 N   0  0  0  0  0  0  0  0  0  0  0  0
   22.0628   -8.1769  -15.5608 C   0  0  0  0  0  0  0  0  0  0  0  0
   23.1698   -7.7794  -16.0019 O   0  0  0  0  0  0  0  0  0  0  0  0
   21.1368   -7.2206  -15.0924 N   0  0  0  0  0  0  0  0  0  0  0  0
   21.3833   -5.7831  -15.0786 C   0  0  1  0  0  0  0  0  0  0  0  0
   20.1732   -4.9955  -15.3880 C   0  0  0  0  0  0  0  0  0  0  0  0
   20.2977   -3.5230  -15.4642 C   0  0  0  0  0  0  0  0  0  0  0  0
   19.0523   -2.7518  -15.7834 C   0  0  0  0  0  0  0  0  0  0  0  0
   19.3209   -1.2682  -15.8218 C   0  0  0  0  0  0  0  0  0  0  0  0
   18.1331   -0.4992  -16.0832 N   0  0  0  0  0  0  0  0  0  0  0  0
   22.1056   -5.3429  -13.8960 C   0  0  0  0  0  0  0  0  0  0  0  0
   22.7749   -4.2759  -13.9394 O   0  0  0  0  0  0  0  0  0  0  0  0
   22.1005   -6.0527  -12.6864 O   0  0  0  0  0  0  0  0  0  0  0  0
  2  1  1  0
  3  4  1  1
  3  2  1  0
  5  6  2  0
  5  3  1  0
  8  7  1  6
  8 10  1  0
  9  8  1  0
 10 11  1  6
 10 12  1  0
 11  5  1  0
 12 14  1  0
 13 12  2  0
 14 15  1  0
 15 21  1  0
 15 16  1  1
 16 17  1  0
 18 17  1  0
 19 18  1  0
 20 19  1  0
 21 22  2  0
 21 23  1  0
M  END
$$$$
