LRE.pdb
     RDKit          3D

 29 28  0  0  1  0  0  0  0  0999 V2000
   15.4454   -9.6370  -18.2846 C   0  0  0  0  0  0  0  0  0  0  0  0
   14.9394  -10.3720  -17.0395 C   0  0  2  0  0  0  0  0  0  0  0  0
   13.6873   -9.7090  -16.5135 C   0  0  0  0  0  0  0  0  0  0  0  0
   15.9994  -10.2582  -15.9452 C   0  0  0  0  0  0  0  0  0  0  0  0
   17.2378  -10.9038  -16.4692 C   0  0  2  0  0  0  0  0  0  0  0  0
   17.0952  -12.3239  -16.5103 N   0  0  0  0  0  0  0  0  0  0  0  0
   18.3898  -10.4332  -15.6615 C   0  0  0  0  0  0  0  0  0  0  0  0
   18.8945  -11.2285  -14.8417 O   0  0  0  0  0  0  0  0  0  0  0  0
   25.6543  -12.2793  -16.8074 N   0  0  0  0  0  0  0  0  0  0  0  0
   25.8981  -11.3522  -15.7189 C   0  0  0  0  0  0  0  0  0  0  0  0
   27.0548  -11.3111  -15.2278 N   0  0  0  0  0  0  0  0  0  0  0  0
   24.8621  -10.5435  -15.2572 N   0  0  0  0  0  0  0  0  0  0  0  0
   23.5466  -10.4371  -15.8003 C   0  0  0  0  0  0  0  0  0  0  0  0
   22.6114   -9.5074  -15.0917 C   0  0  0  0  0  0  0  0  0  0  0  0
   21.2258   -9.6805  -15.6917 C   0  0  0  0  0  0  0  0  0  0  0  0
   20.1601   -8.8405  -15.0437 C   0  0  2  0  0  0  0  0  0  0  0  0
   18.9320   -9.1398  -15.7805 N   0  0  0  0  0  0  0  0  0  0  0  0
   20.5505   -7.4226  -15.3145 C   0  0  0  0  0  0  0  0  0  0  0  0
   20.7757   -7.0390  -16.4733 O   0  0  0  0  0  0  0  0  0  0  0  0
   27.3798  -10.7412  -14.4734 N   0  0  0  0  0  0  0  0  0  0  0  0
   20.6588   -6.5276  -14.2376 C   0  0  2  0  0  0  0  0  0  0  0  0
   21.0243   -5.1076  -14.4723 C   0  0  0  0  0  0  0  0  0  0  0  0
   19.8430   -4.3213  -14.0188 C   0  0  0  0  0  0  0  0  0  0  0  0
   18.9057   -4.0473  -15.1453 C   0  0  0  0  0  0  0  0  0  0  0  0
   17.7612   -3.2360  -14.6895 O   0  0  0  0  0  0  0  0  0  0  0  0
   17.7342   -2.8785  -13.4567 C   0  0  0  0  0  0  0  0  0  0  0  0
   22.2657   -4.8589  -13.7219 O   0  0  0  0  0  0  0  0  0  0  0  0
   22.6995   -5.6712  -12.8654 O   0  0  0  0  0  0  0  0  0  0  0  0
   16.7145   -2.8336  -15.4886 O   0  0  0  0  0  0  0  0  0  0  0  0
  2  1  1  6
  2  3  1  0
  2  4  1  0
  5  6  1  1
  5  4  1  0
  7  5  1  0
  8  7  2  0
 10  9  1  0
 10 12  1  0
 11 10  2  0
 13 12  1  0
 13 14  1  0
 14 15  1  0
 16 15  1  6
 16 17  1  0
 17  7  1  0
 18 16  1  0
 18 19  2  0
 20 18  1  0
 21 20  1  0
 21 22  1  1
 23 24  1  0
 23 22  1  0
 24 25  2  0
 26 21  1  0
 27 26  2  0
 28 24  1  0
 29 26  1  0
M  END
$$$$
