LRE.pdb
     RDKit          3D

 29 28  0  0  1  0  0  0  0  0999 V2000
   29.2640  -18.9972   -5.6128 C   0  0  0  0  0  0  0  0  0  0  0  0
   28.2807  -20.1267   -5.2902 C   0  0  2  0  0  0  0  0  0  0  0  0
   28.9473  -21.1680   -4.4210 C   0  0  0  0  0  0  0  0  0  0  0  0
   27.8903  -20.8172   -6.5959 C   0  0  0  0  0  0  0  0  0  0  0  0
   27.3985  -19.7549   -7.5204 C   0  0  2  0  0  0  0  0  0  0  0  0
   26.5322  -18.8465   -6.8399 N   0  0  0  0  0  0  0  0  0  0  0  0
   26.7840  -20.4090   -8.7018 C   0  0  0  0  0  0  0  0  0  0  0  0
   27.4879  -21.1968   -9.3677 O   0  0  0  0  0  0  0  0  0  0  0  0
   19.6568  -21.0068  -13.0394 N   0  0  0  0  0  0  0  0  0  0  0  0
   20.6016  -21.7982  -13.8043 C   0  0  0  0  0  0  0  0  0  0  0  0
   20.3632  -21.9832  -15.0248 N   0  0  0  0  0  0  0  0  0  0  0  0
   21.7305  -22.3203  -13.1768 N   0  0  0  0  0  0  0  0  0  0  0  0
   22.2426  -21.9650  -11.8930 C   0  0  0  0  0  0  0  0  0  0  0  0
   22.9196  -20.6333  -11.7960 C   0  0  0  0  0  0  0  0  0  0  0  0
   23.5161  -20.5050  -10.4041 C   0  0  0  0  0  0  0  0  0  0  0  0
   24.9839  -20.8224  -10.3268 C   0  0  2  0  0  0  0  0  0  0  0  0
   25.4531  -20.1805   -9.0986 N   0  0  0  0  0  0  0  0  0  0  0  0
   25.6036  -20.1303  -11.4987 C   0  0  0  0  0  0  0  0  0  0  0  0
   25.6862  -18.8923  -11.5309 O   0  0  0  0  0  0  0  0  0  0  0  0
   20.9148  -22.4906  -15.6864 N   0  0  0  0  0  0  0  0  0  0  0  0
   26.0932  -20.9016  -12.5654 C   0  0  2  0  0  0  0  0  0  0  0  0
   26.7317  -20.2485  -13.7362 C   0  0  0  0  0  0  0  0  0  0  0  0
   27.6976  -21.2526  -14.2635 C   0  0  0  0  0  0  0  0  0  0  0  0
   28.2679  -20.8248  -15.5729 C   0  0  0  0  0  0  0  0  0  0  0  0
   29.2452  -21.8129  -16.0671 O   0  0  0  0  0  0  0  0  0  0  0  0
   29.5003  -22.8267  -15.3218 C   0  0  0  0  0  0  0  0  0  0  0  0
   25.6474  -19.8795  -14.6605 O   0  0  0  0  0  0  0  0  0  0  0  0
   24.5308  -20.4578  -14.6409 O   0  0  0  0  0  0  0  0  0  0  0  0
   29.9089  -21.7287  -17.2706 O   0  0  0  0  0  0  0  0  0  0  0  0
  2  1  1  6
  2  3  1  0
  2  4  1  0
  5  6  1  1
  5  4  1  0
  7  5  1  0
  8  7  2  0
 10  9  1  0
 10 12  1  0
 11 10  2  0
 13 12  1  0
 13 14  1  0
 14 15  1  0
 16 15  1  6
 16 17  1  0
 17  7  1  0
 18 16  1  0
 18 19  2  0
 20 18  1  0
 21 20  1  0
 21 22  1  1
 23 24  1  0
 23 22  1  0
 24 25  2  0
 26 21  1  0
 27 26  2  0
 28 24  1  0
 29 26  1  0
M  END
$$$$
