LRE.pdb
     RDKit          3D

 29 28  0  0  1  0  0  0  0  0999 V2000
   26.7996  -14.6906  -15.0603 C   0  0  0  0  0  0  0  0  0  0  0  0
   26.5603  -14.7940  -16.5698 C   0  0  2  0  0  0  0  0  0  0  0  0
   25.9317  -13.5211  -17.0882 C   0  0  0  0  0  0  0  0  0  0  0  0
   25.5627  -15.9222  -16.8264 C   0  0  0  0  0  0  0  0  0  0  0  0
   26.1146  -17.1475  -16.1788 C   0  0  2  0  0  0  0  0  0  0  0  0
   27.2929  -17.5935  -16.8506 N   0  0  0  0  0  0  0  0  0  0  0  0
   25.0370  -18.1646  -16.1046 C   0  0  0  0  0  0  0  0  0  0  0  0
   24.2130  -18.2146  -17.0415 O   0  0  0  0  0  0  0  0  0  0  0  0
   23.5441  -24.4333  -15.8793 N   0  0  0  0  0  0  0  0  0  0  0  0
   24.8785  -24.9449  -16.1273 C   0  0  0  0  0  0  0  0  0  0  0  0
   25.0132  -25.8429  -16.9969 N   0  0  0  0  0  0  0  0  0  0  0  0
   25.9573  -24.4334  -15.4094 N   0  0  0  0  0  0  0  0  0  0  0  0
   25.9826  -23.2380  -14.6302 C   0  0  0  0  0  0  0  0  0  0  0  0
   25.5576  -21.9839  -15.3284 C   0  0  0  0  0  0  0  0  0  0  0  0
   24.4728  -21.3216  -14.4950 C   0  0  0  0  0  0  0  0  0  0  0  0
   23.8705  -20.0952  -15.1229 C   0  0  2  0  0  0  0  0  0  0  0  0
   24.9071  -19.0667  -15.0321 N   0  0  0  0  0  0  0  0  0  0  0  0
   22.7315  -19.7105  -14.2334 C   0  0  0  0  0  0  0  0  0  0  0  0
   22.9155  -19.5063  -13.0230 O   0  0  0  0  0  0  0  0  0  0  0  0
   25.8449  -26.3429  -17.2370 N   0  0  0  0  0  0  0  0  0  0  0  0
   21.4472  -19.5822  -14.7870 C   0  0  2  0  0  0  0  0  0  0  0  0
   20.3087  -19.1253  -13.9504 C   0  0  0  0  0  0  0  0  0  0  0  0
   19.6096  -18.0976  -14.7717 C   0  0  0  0  0  0  0  0  0  0  0  0
   19.0632  -18.6839  -16.0288 C   0  0  0  0  0  0  0  0  0  0  0  0
   18.3797  -17.6541  -16.8338 O   0  0  0  0  0  0  0  0  0  0  0  0
   18.3725  -16.4511  -16.3854 C   0  0  0  0  0  0  0  0  0  0  0  0
   19.5096  -20.3195  -13.6317 O   0  0  0  0  0  0  0  0  0  0  0  0
   19.6758  -21.4113  -14.2334 O   0  0  0  0  0  0  0  0  0  0  0  0
   17.7444  -17.8867  -18.0330 O   0  0  0  0  0  0  0  0  0  0  0  0
  2  1  1  1
  2  3  1  0
  2  4  1  0
  5  6  1  6
  5  4  1  0
  7  5  1  0
  8  7  2  0
 10  9  1  0
 10 12  1  0
 11 10  2  0
 13 12  1  0
 13 14  1  0
 14 15  1  0
 16 15  1  1
 16 17  1  0
 17  7  1  0
 18 16  1  0
 18 19  2  0
 20 18  1  0
 21 20  1  0
 21 22  1  6
 23 24  1  0
 23 22  1  0
 24 25  2  0
 26 21  1  0
 27 26  2  0
 28 24  1  0
 29 26  1  0
M  END
$$$$
