LRE.pdb
     RDKit          3D

 29 28  0  0  1  0  0  0  0  0999 V2000
   27.3613  -22.2613  -13.6292 C   0  0  0  0  0  0  0  0  0  0  0  0
   27.3381  -20.8495  -13.0354 C   0  0  2  0  0  0  0  0  0  0  0  0
   28.3267  -20.7445  -11.8971 C   0  0  0  0  0  0  0  0  0  0  0  0
   25.9511  -20.5932  -12.4485 C   0  0  0  0  0  0  0  0  0  0  0  0
   24.9675  -20.7920  -13.5521 C   0  0  2  0  0  0  0  0  0  0  0  0
   25.2402  -19.9133  -14.6439 N   0  0  0  0  0  0  0  0  0  0  0  0
   23.6003  -20.6568  -12.9918 C   0  0  0  0  0  0  0  0  0  0  0  0
   23.3928  -19.7422  -12.1673 O   0  0  0  0  0  0  0  0  0  0  0  0
   17.1333  -19.5530  -17.5856 N   0  0  0  0  0  0  0  0  0  0  0  0
   18.2513  -18.8568  -16.9781 C   0  0  0  0  0  0  0  0  0  0  0  0
   18.7813  -17.9170  -17.6236 N   0  0  0  0  0  0  0  0  0  0  0  0
   18.6981  -19.2399  -15.7155 N   0  0  0  0  0  0  0  0  0  0  0  0
   18.1712  -20.2834  -14.8967 C   0  0  0  0  0  0  0  0  0  0  0  0
   18.9085  -20.5620  -13.6240 C   0  0  0  0  0  0  0  0  0  0  0  0
   20.3565  -20.8654  -13.9716 C   0  0  0  0  0  0  0  0  0  0  0  0
   21.2153  -21.2255  -12.7910 C   0  0  2  0  0  0  0  0  0  0  0  0
   22.5382  -21.5086  -13.3483 N   0  0  0  0  0  0  0  0  0  0  0  0
   20.6387  -22.4953  -12.2510 C   0  0  0  0  0  0  0  0  0  0  0  0
   20.7544  -23.5596  -12.8791 O   0  0  0  0  0  0  0  0  0  0  0  0
   19.5621  -17.3535  -17.3548 N   0  0  0  0  0  0  0  0  0  0  0  0
   19.9629  -22.4681  -11.0202 C   0  0  2  0  0  0  0  0  0  0  0  0
   19.4577  -23.7242  -10.4105 C   0  0  0  0  0  0  0  0  0  0  0  0
   19.4815  -23.4809   -8.9409 C   0  0  0  0  0  0  0  0  0  0  0  0
   19.0030  -24.6726   -8.1835 C   0  0  0  0  0  0  0  0  0  0  0  0
   18.9870  -24.4007   -6.7339 O   0  0  0  0  0  0  0  0  0  0  0  0
   18.5090  -25.3070   -5.9602 C   0  0  0  0  0  0  0  0  0  0  0  0
   18.1232  -23.9670  -10.9818 O   0  0  0  0  0  0  0  0  0  0  0  0
   17.3698  -23.0245  -11.3365 O   0  0  0  0  0  0  0  0  0  0  0  0
   19.4454  -23.2432   -6.1456 O   0  0  0  0  0  0  0  0  0  0  0  0
  2  1  1  1
  2  3  1  0
  2  4  1  0
  5  6  1  6
  5  4  1  0
  7  5  1  0
  8  7  2  0
 10  9  1  0
 10 12  1  0
 11 10  2  0
 13 12  1  0
 13 14  1  0
 14 15  1  0
 16 15  1  6
 16 17  1  0
 17  7  1  0
 18 16  1  0
 18 19  2  0
 20 18  1  0
 21 20  1  0
 21 22  1  1
 23 24  1  0
 23 22  1  0
 24 25  2  0
 26 21  1  0
 27 26  2  0
 28 24  1  0
 29 26  1  0
M  END
$$$$
