LRE.pdb
     RDKit          3D

 29 28  0  0  1  0  0  0  0  0999 V2000
   26.1761  -14.8571  -17.1911 C   0  0  0  0  0  0  0  0  0  0  0  0
   25.4285  -15.2168  -18.4788 C   0  0  2  0  0  0  0  0  0  0  0  0
   24.7779  -13.9859  -19.0670 C   0  0  0  0  0  0  0  0  0  0  0  0
   24.3061  -16.1932  -18.1312 C   0  0  0  0  0  0  0  0  0  0  0  0
   24.9527  -17.4348  -17.6162 C   0  0  2  0  0  0  0  0  0  0  0  0
   25.8251  -18.0000  -18.5950 N   0  0  0  0  0  0  0  0  0  0  0  0
   23.8897  -18.3571  -17.1466 C   0  0  0  0  0  0  0  0  0  0  0  0
   23.2314  -18.9789  -18.0066 O   0  0  0  0  0  0  0  0  0  0  0  0
   23.1997  -24.0163  -13.5599 N   0  0  0  0  0  0  0  0  0  0  0  0
   24.1775  -23.2429  -12.8186 C   0  0  0  0  0  0  0  0  0  0  0  0
   25.3753  -23.6241  -12.8477 N   0  0  0  0  0  0  0  0  0  0  0  0
   23.7701  -22.1156  -12.1087 N   0  0  0  0  0  0  0  0  0  0  0  0
   22.4899  -21.4865  -12.1546 C   0  0  0  0  0  0  0  0  0  0  0  0
   21.9953  -21.0910  -13.5111 C   0  0  0  0  0  0  0  0  0  0  0  0
   22.9408  -20.0424  -14.0733 C   0  0  0  0  0  0  0  0  0  0  0  0
   22.5705  -19.5442  -15.4429 C   0  0  2  0  0  0  0  0  0  0  0  0
   23.5959  -18.5582  -15.7850 N   0  0  0  0  0  0  0  0  0  0  0  0
   21.2631  -18.8390  -15.2706 C   0  0  0  0  0  0  0  0  0  0  0  0
   21.1619  -17.8751  -14.4950 O   0  0  0  0  0  0  0  0  0  0  0  0
   26.1679  -23.1854  -12.4251 N   0  0  0  0  0  0  0  0  0  0  0  0
   20.1479  -19.2822  -16.0002 C   0  0  2  0  0  0  0  0  0  0  0  0
   18.8464  -18.5758  -15.8897 C   0  0  0  0  0  0  0  0  0  0  0  0
   18.2067  -18.7267  -17.2266 C   0  0  0  0  0  0  0  0  0  0  0  0
   19.0301  -18.0982  -18.2988 C   0  0  0  0  0  0  0  0  0  0  0  0
   18.3371  -18.1650  -19.5992 O   0  0  0  0  0  0  0  0  0  0  0  0
   17.5042  -17.2300  -19.8823 C   0  0  0  0  0  0  0  0  0  0  0  0
   18.1173  -19.2006  -14.7743 O   0  0  0  0  0  0  0  0  0  0  0  0
   18.4102  -20.3466  -14.3469 O   0  0  0  0  0  0  0  0  0  0  0  0
   18.5149  -19.1594  -20.5349 O   0  0  0  0  0  0  0  0  0  0  0  0
  2  1  1  1
  2  3  1  0
  2  4  1  0
  5  6  1  6
  5  4  1  0
  7  5  1  0
  8  7  2  0
 10  9  1  0
 10 12  1  0
 11 10  2  0
 13 12  1  0
 13 14  1  0
 14 15  1  0
 16 15  1  1
 16 17  1  0
 17  7  1  0
 18 16  1  0
 18 19  2  0
 20 18  1  0
 21 20  1  0
 21 22  1  1
 23 24  1  0
 23 22  1  0
 24 25  2  0
 26 21  1  0
 27 26  2  0
 28 24  1  0
 29 26  1  0
M  END
$$$$
