LRE.pdb
     RDKit          3D

 29 28  0  0  1  0  0  0  0  0999 V2000
   27.0967  -12.7108  -17.0877 C   0  0  0  0  0  0  0  0  0  0  0  0
   25.8699  -13.6272  -17.1292 C   0  0  2  0  0  0  0  0  0  0  0  0
   26.0090  -14.6373  -18.2448 C   0  0  0  0  0  0  0  0  0  0  0  0
   24.6405  -12.7774  -17.4459 C   0  0  0  0  0  0  0  0  0  0  0  0
   24.4626  -11.8279  -16.3093 C   0  0  2  0  0  0  0  0  0  0  0  0
   24.5746  -12.5040  -15.0567 N   0  0  0  0  0  0  0  0  0  0  0  0
   23.1794  -11.1072  -16.4967 C   0  0  0  0  0  0  0  0  0  0  0  0
   23.0314  -10.4355  -17.5390 O   0  0  0  0  0  0  0  0  0  0  0  0
   15.0213  -13.0118  -13.9735 N   0  0  0  0  0  0  0  0  0  0  0  0
   14.8894  -11.8850  -14.8772 C   0  0  0  0  0  0  0  0  0  0  0  0
   13.7386  -11.5930  -15.2909 N   0  0  0  0  0  0  0  0  0  0  0  0
   16.0222  -11.1667  -15.2533 N   0  0  0  0  0  0  0  0  0  0  0  0
   17.3842  -11.5281  -15.0271 C   0  0  0  0  0  0  0  0  0  0  0  0
   18.4161  -10.5696  -15.5344 C   0  0  0  0  0  0  0  0  0  0  0  0
   19.7865  -11.1899  -15.3177 C   0  0  0  0  0  0  0  0  0  0  0  0
   20.9306  -10.3618  -15.8337 C   0  0  2  0  0  0  0  0  0  0  0  0
   22.1323  -11.1493  -15.5572 N   0  0  0  0  0  0  0  0  0  0  0  0
   20.9520   -9.1348  -14.9790 C   0  0  0  0  0  0  0  0  0  0  0  0
   21.3848   -9.1813  -13.8166 O   0  0  0  0  0  0  0  0  0  0  0  0
   13.4820  -10.8605  -15.9209 N   0  0  0  0  0  0  0  0  0  0  0  0
   20.4752   -7.9254  -15.5103 C   0  0  2  0  0  0  0  0  0  0  0  0
   20.5730   -6.6680  -14.7265 C   0  0  0  0  0  0  0  0  0  0  0  0
   21.2814   -5.7074  -15.6179 C   0  0  0  0  0  0  0  0  0  0  0  0
   21.3206   -4.3403  -15.0243 C   0  0  0  0  0  0  0  0  0  0  0  0
   22.0148   -3.3985  -15.9225 O   0  0  0  0  0  0  0  0  0  0  0  0
   21.8262   -2.1426  -15.7340 C   0  0  0  0  0  0  0  0  0  0  0  0
   19.1988   -6.2860  -14.3630 O   0  0  0  0  0  0  0  0  0  0  0  0
   18.2042   -6.6612  -15.0350 O   0  0  0  0  0  0  0  0  0  0  0  0
   22.8509   -3.7656  -16.9530 O   0  0  0  0  0  0  0  0  0  0  0  0
  2  1  1  6
  2  3  1  0
  2  4  1  0
  5  6  1  1
  5  4  1  0
  7  5  1  0
  8  7  2  0
 10  9  1  0
 10 12  1  0
 11 10  2  0
 13 12  1  0
 13 14  1  0
 14 15  1  0
 16 15  1  1
 16 17  1  0
 17  7  1  0
 18 16  1  0
 18 19  2  0
 20 18  1  0
 21 20  1  0
 21 22  1  6
 23 24  1  0
 23 22  1  0
 24 25  2  0
 26 21  1  0
 27 26  2  0
 28 24  1  0
 29 26  1  0
M  END
$$$$
