LRE.pdb
     RDKit          3D

 29 28  0  0  1  0  0  0  0  0999 V2000
   26.8862  -21.7746  -10.2266 C   0  0  0  0  0  0  0  0  0  0  0  0
   26.0844  -20.4696  -10.2092 C   0  0  2  0  0  0  0  0  0  0  0  0
   25.2012  -20.4147   -8.9840 C   0  0  0  0  0  0  0  0  0  0  0  0
   25.1619  -20.4511  -11.4268 C   0  0  0  0  0  0  0  0  0  0  0  0
   25.9043  -21.1006  -12.5458 C   0  0  2  0  0  0  0  0  0  0  0  0
   26.8537  -20.2011  -13.1187 N   0  0  0  0  0  0  0  0  0  0  0  0
   24.9171  -21.6380  -13.5142 C   0  0  0  0  0  0  0  0  0  0  0  0
   24.1853  -20.8252  -14.1169 O   0  0  0  0  0  0  0  0  0  0  0  0
   24.7063  -26.8753  -18.4980 N   0  0  0  0  0  0  0  0  0  0  0  0
   25.3457  -27.3132  -17.2719 C   0  0  0  0  0  0  0  0  0  0  0  0
   26.5516  -27.6644  -17.3291 N   0  0  0  0  0  0  0  0  0  0  0  0
   24.6192  -27.3292  -16.0833 N   0  0  0  0  0  0  0  0  0  0  0  0
   23.2367  -27.0173  -15.9160 C   0  0  0  0  0  0  0  0  0  0  0  0
   22.8951  -25.5640  -15.8043 C   0  0  0  0  0  0  0  0  0  0  0  0
   23.9448  -24.8961  -14.9315 C   0  0  0  0  0  0  0  0  0  0  0  0
   23.7220  -23.4258  -14.7089 C   0  0  2  0  0  0  0  0  0  0  0  0
   24.7732  -23.0128  -13.7788 N   0  0  0  0  0  0  0  0  0  0  0  0
   22.3999  -23.3230  -14.0176 C   0  0  0  0  0  0  0  0  0  0  0  0
   22.2695  -23.7019  -12.8428 O   0  0  0  0  0  0  0  0  0  0  0  0
   27.1280  -27.9984  -16.5838 N   0  0  0  0  0  0  0  0  0  0  0  0
   21.3045  -22.7901  -14.7165 C   0  0  2  0  0  0  0  0  0  0  0  0
   20.0126  -22.5525  -14.0240 C   0  0  0  0  0  0  0  0  0  0  0  0
   19.4498  -21.3280  -14.6590 C   0  0  0  0  0  0  0  0  0  0  0  0
   18.0372  -21.5365  -15.0875 C   0  0  0  0  0  0  0  0  0  0  0  0
   17.2973  -20.2605  -15.0935 O   0  0  0  0  0  0  0  0  0  0  0  0
   17.9482  -19.1899  -14.8137 C   0  0  0  0  0  0  0  0  0  0  0  0
   19.2073  -23.7722  -14.1969 O   0  0  0  0  0  0  0  0  0  0  0  0
   19.4755  -24.6270  -15.0795 O   0  0  0  0  0  0  0  0  0  0  0  0
   15.9557  -20.1306  -15.3752 O   0  0  0  0  0  0  0  0  0  0  0  0
  2  1  1  1
  2  3  1  0
  2  4  1  0
  5  6  1  6
  5  4  1  0
  7  5  1  0
  8  7  2  0
 10  9  1  0
 10 12  1  0
 11 10  2  0
 13 12  1  0
 13 14  1  0
 14 15  1  0
 16 15  1  1
 16 17  1  0
 17  7  1  0
 18 16  1  0
 18 19  2  0
 20 18  1  0
 21 20  1  0
 21 22  1  1
 23 24  1  0
 23 22  1  0
 24 25  2  0
 26 21  1  0
 27 26  2  0
 28 24  1  0
 29 26  1  0
M  END
$$$$
