LRE.pdb
     RDKit          3D

 29 28  0  0  1  0  0  0  0  0999 V2000
   23.5956  -12.3732  -20.2109 C   0  0  0  0  0  0  0  0  0  0  0  0
   25.0232  -12.8826  -20.4321 C   0  0  2  0  0  0  0  0  0  0  0  0
   25.3378  -12.9321  -21.9095 C   0  0  0  0  0  0  0  0  0  0  0  0
   25.1138  -14.3145  -19.9073 C   0  0  0  0  0  0  0  0  0  0  0  0
   24.7657  -14.2699  -18.4575 C   0  0  2  0  0  0  0  0  0  0  0  0
   25.6389  -13.3897  -17.7494 N   0  0  0  0  0  0  0  0  0  0  0  0
   24.7511  -15.6588  -17.9358 C   0  0  0  0  0  0  0  0  0  0  0  0
   24.1944  -16.5381  -18.6259 O   0  0  0  0  0  0  0  0  0  0  0  0
   26.2393  -21.6478  -13.4778 N   0  0  0  0  0  0  0  0  0  0  0  0
   26.1619  -20.9846  -12.1902 C   0  0  0  0  0  0  0  0  0  0  0  0
   25.6437  -21.6142  -11.2332 N   0  0  0  0  0  0  0  0  0  0  0  0
   26.6588  -19.6907  -12.0503 N   0  0  0  0  0  0  0  0  0  0  0  0
   26.8359  -18.7211  -13.0825 C   0  0  0  0  0  0  0  0  0  0  0  0
   25.7970  -18.7047  -14.1603 C   0  0  0  0  0  0  0  0  0  0  0  0
   26.1302  -17.5767  -15.1227 C   0  0  0  0  0  0  0  0  0  0  0  0
   25.1293  -17.3899  -16.2293 C   0  0  2  0  0  0  0  0  0  0  0  0
   25.3335  -16.0221  -16.7072 N   0  0  0  0  0  0  0  0  0  0  0  0
   23.7885  -17.4752  -15.5727 C   0  0  0  0  0  0  0  0  0  0  0  0
   23.4308  -16.6162  -14.7512 O   0  0  0  0  0  0  0  0  0  0  0  0
   25.5835  -21.3324  -10.2760 N   0  0  0  0  0  0  0  0  0  0  0  0
   22.9362  -18.5427  -15.8990 C   0  0  2  0  0  0  0  0  0  0  0  0
   21.6094  -18.6741  -15.2452 C   0  0  0  0  0  0  0  0  0  0  0  0
   20.6462  -18.8961  -16.3597 C   0  0  0  0  0  0  0  0  0  0  0  0
   20.3156  -20.3416  -16.5144 C   0  0  0  0  0  0  0  0  0  0  0  0
   19.8127  -20.6220  -17.8724 O   0  0  0  0  0  0  0  0  0  0  0  0
   19.7532  -19.6443  -18.7023 C   0  0  0  0  0  0  0  0  0  0  0  0
   21.7178  -19.7827  -14.2832 O   0  0  0  0  0  0  0  0  0  0  0  0
   22.6763  -20.5964  -14.3110 O   0  0  0  0  0  0  0  0  0  0  0  0
   19.3986  -21.8572  -18.3183 O   0  0  0  0  0  0  0  0  0  0  0  0
  2  1  1  6
  2  3  1  0
  2  4  1  0
  5  6  1  1
  5  4  1  0
  7  5  1  0
  8  7  2  0
 10  9  1  0
 10 12  1  0
 11 10  2  0
 13 12  1  0
 13 14  1  0
 14 15  1  0
 16 15  1  1
 16 17  1  0
 17  7  1  0
 18 16  1  0
 18 19  2  0
 20 18  1  0
 21 20  1  0
 21 22  1  6
 23 24  1  0
 23 22  1  0
 24 25  2  0
 26 21  1  0
 27 26  2  0
 28 24  1  0
 29 26  1  0
M  END
$$$$
