LRE.pdb
     RDKit          3D

 29 28  0  0  1  0  0  0  0  0999 V2000
   20.6468  -11.4221  -16.3098 C   0  0  0  0  0  0  0  0  0  0  0  0
   21.7232  -11.5694  -17.3897 C   0  0  2  0  0  0  0  0  0  0  0  0
   21.2319  -10.9971  -18.6994 C   0  0  0  0  0  0  0  0  0  0  0  0
   21.9786  -13.0580  -17.6198 C   0  0  0  0  0  0  0  0  0  0  0  0
   22.4489  -13.6249  -16.3227 C   0  0  2  0  0  0  0  0  0  0  0  0
   23.6189  -12.9475  -15.8635 N   0  0  0  0  0  0  0  0  0  0  0  0
   22.6209  -15.0895  -16.4859 C   0  0  0  0  0  0  0  0  0  0  0  0
   21.7203  -15.7232  -17.0748 O   0  0  0  0  0  0  0  0  0  0  0  0
   28.6955  -21.1042  -15.9182 N   0  0  0  0  0  0  0  0  0  0  0  0
   27.5052  -21.7273  -16.4648 C   0  0  0  0  0  0  0  0  0  0  0  0
   27.4062  -22.9783  -16.3867 N   0  0  0  0  0  0  0  0  0  0  0  0
   26.5190  -20.9355  -17.0489 N   0  0  0  0  0  0  0  0  0  0  0  0
   26.3123  -19.5368  -16.8551 C   0  0  0  0  0  0  0  0  0  0  0  0
   25.3917  -19.1523  -15.7390 C   0  0  0  0  0  0  0  0  0  0  0  0
   25.1784  -17.6487  -15.7970 C   0  0  0  0  0  0  0  0  0  0  0  0
   23.7952  -17.2344  -16.2166 C   0  0  2  0  0  0  0  0  0  0  0  0
   23.7465  -15.7869  -16.0090 N   0  0  0  0  0  0  0  0  0  0  0  0
   22.8696  -17.8917  -15.2431 C   0  0  0  0  0  0  0  0  0  0  0  0
   22.9328  -17.6261  -14.0323 O   0  0  0  0  0  0  0  0  0  0  0  0
   26.6456  -23.5523  -16.6890 N   0  0  0  0  0  0  0  0  0  0  0  0
   21.9245  -18.8156  -15.7180 C   0  0  2  0  0  0  0  0  0  0  0  0
   20.9369  -19.4261  -14.7923 C   0  0  0  0  0  0  0  0  0  0  0  0
   19.6059  -19.1296  -15.3921 C   0  0  0  0  0  0  0  0  0  0  0  0
   18.5073  -19.7980  -14.6378 C   0  0  0  0  0  0  0  0  0  0  0  0
   17.1996  -19.5226  -15.2621 O   0  0  0  0  0  0  0  0  0  0  0  0
   16.7633  -18.3156  -15.2299 C   0  0  0  0  0  0  0  0  0  0  0  0
   21.2735  -20.8555  -14.6944 O   0  0  0  0  0  0  0  0  0  0  0  0
   21.8951  -21.4567  -15.6075 O   0  0  0  0  0  0  0  0  0  0  0  0
   16.4073  -20.4661  -15.8771 O   0  0  0  0  0  0  0  0  0  0  0  0
  2  1  1  1
  2  3  1  0
  2  4  1  0
  5  6  1  6
  5  4  1  0
  7  5  1  0
  8  7  2  0
 10  9  1  0
 10 12  1  0
 11 10  2  0
 13 12  1  0
 13 14  1  0
 14 15  1  0
 16 15  1  1
 16 17  1  0
 17  7  1  0
 18 16  1  0
 18 19  2  0
 20 18  1  0
 21 20  1  0
 21 22  1  6
 23 24  1  0
 23 22  1  0
 24 25  2  0
 26 21  1  0
 27 26  2  0
 28 24  1  0
 29 26  1  0
M  END
$$$$
