LRE.pdb
     RDKit          3D

 29 28  0  0  1  0  0  0  0  0999 V2000
   24.2804  -20.7358   -8.7799 C   0  0  0  0  0  0  0  0  0  0  0  0
   25.7064  -20.7495   -9.3392 C   0  0  2  0  0  0  0  0  0  0  0  0
   26.5769  -19.7778   -8.5760 C   0  0  0  0  0  0  0  0  0  0  0  0
   25.6634  -20.2683  -10.7885 C   0  0  0  0  0  0  0  0  0  0  0  0
   24.7157  -21.1614  -11.5161 C   0  0  2  0  0  0  0  0  0  0  0  0
   25.3921  -22.3033  -12.0425 N   0  0  0  0  0  0  0  0  0  0  0  0
   24.0019  -20.3555  -12.5369 C   0  0  0  0  0  0  0  0  0  0  0  0
   23.4070  -19.3247  -12.1588 O   0  0  0  0  0  0  0  0  0  0  0  0
   28.3851  -21.5576  -15.7925 N   0  0  0  0  0  0  0  0  0  0  0  0
   27.9906  -22.0547  -17.0967 C   0  0  0  0  0  0  0  0  0  0  0  0
   28.5592  -23.0891  -17.5297 N   0  0  0  0  0  0  0  0  0  0  0  0
   27.0064  -21.3855  -17.8208 N   0  0  0  0  0  0  0  0  0  0  0  0
   26.1414  -20.3542  -17.3465 C   0  0  0  0  0  0  0  0  0  0  0  0
   25.2477  -20.7150  -16.2009 C   0  0  0  0  0  0  0  0  0  0  0  0
   24.3466  -19.5262  -15.9100 C   0  0  0  0  0  0  0  0  0  0  0  0
   23.3294  -19.7690  -14.8295 C   0  0  2  0  0  0  0  0  0  0  0  0
   23.9684  -20.7016  -13.9007 N   0  0  0  0  0  0  0  0  0  0  0  0
   22.1904  -20.4654  -15.5034 C   0  0  0  0  0  0  0  0  0  0  0  0
   22.3460  -21.5880  -16.0095 O   0  0  0  0  0  0  0  0  0  0  0  0
   28.4696  -23.5036  -18.4350 N   0  0  0  0  0  0  0  0  0  0  0  0
   20.9385  -19.8311  -15.5559 C   0  0  1  0  0  0  0  0  0  0  0  0
   19.7681  -20.5231  -16.1528 C   0  0  0  0  0  0  0  0  0  0  0  0
   18.6281  -20.2139  -15.2449 C   0  0  0  0  0  0  0  0  0  0  0  0
   18.7034  -21.0083  -13.9856 C   0  0  0  0  0  0  0  0  0  0  0  0
   18.5040  -20.1435  -12.8075 O   0  0  0  0  0  0  0  0  0  0  0  0
   18.2028  -18.9125  -13.0128 C   0  0  0  0  0  0  0  0  0  0  0  0
   19.6284  -20.0138  -17.5265 O   0  0  0  0  0  0  0  0  0  0  0  0
   20.3771  -19.1110  -17.9807 O   0  0  0  0  0  0  0  0  0  0  0  0
   18.6191  -20.5576  -11.4993 O   0  0  0  0  0  0  0  0  0  0  0  0
  2  1  1  1
  2  3  1  0
  2  4  1  0
  5  6  1  6
  5  4  1  0
  7  5  1  0
  8  7  2  0
 10  9  1  0
 10 12  1  0
 11 10  2  0
 13 12  1  0
 13 14  1  0
 14 15  1  0
 16 15  1  6
 16 17  1  0
 17  7  1  0
 18 16  1  0
 18 19  2  0
 20 18  1  0
 21 20  1  0
 21 22  1  6
 23 24  1  0
 23 22  1  0
 24 25  2  0
 26 21  1  0
 27 26  2  0
 28 24  1  0
 29 26  1  0
M  END
$$$$
