LRE.pdb
     RDKit          3D

 29 28  0  0  1  0  0  0  0  0999 V2000
   21.7412  -19.0245  -15.7382 C   0  0  0  0  0  0  0  0  0  0  0  0
   22.7754  -20.1501  -15.6387 C   0  0  2  0  0  0  0  0  0  0  0  0
   23.3314  -20.4719  -17.0067 C   0  0  0  0  0  0  0  0  0  0  0  0
   22.0740  -21.4097  -15.1333 C   0  0  0  0  0  0  0  0  0  0  0  0
   21.3873  -21.0449  -13.8603 C   0  0  2  0  0  0  0  0  0  0  0  0
   22.3264  -20.9136  -12.7929 N   0  0  0  0  0  0  0  0  0  0  0  0
   20.3143  -22.0372  -13.6052 C   0  0  0  0  0  0  0  0  0  0  0  0
   19.5913  -22.3781  -14.5646 O   0  0  0  0  0  0  0  0  0  0  0  0
   19.6612  -29.0753   -9.4826 N   0  0  0  0  0  0  0  0  0  0  0  0
   18.3564  -28.6324   -9.0299 C   0  0  0  0  0  0  0  0  0  0  0  0
   17.4972  -29.5098   -8.7599 N   0  0  0  0  0  0  0  0  0  0  0  0
   18.0959  -27.2696   -8.9055 N   0  0  0  0  0  0  0  0  0  0  0  0
   18.8983  -26.1929   -9.3889 C   0  0  0  0  0  0  0  0  0  0  0  0
   18.4081  -25.5054  -10.6251 C   0  0  0  0  0  0  0  0  0  0  0  0
   19.3703  -24.3756  -10.9524 C   0  0  0  0  0  0  0  0  0  0  0  0
   19.0622  -23.6501  -12.2330 C   0  0  2  0  0  0  0  0  0  0  0  0
   20.0804  -22.6048  -12.3387 N   0  0  0  0  0  0  0  0  0  0  0  0
   17.7308  -23.0049  -12.0153 C   0  0  0  0  0  0  0  0  0  0  0  0
   17.6413  -21.9328  -11.3962 O   0  0  0  0  0  0  0  0  0  0  0  0
   16.5498  -29.3711   -8.4727 N   0  0  0  0  0  0  0  0  0  0  0  0
   16.5795  -23.6293  -12.5224 C   0  0  2  0  0  0  0  0  0  0  0  0
   15.4007  -22.8216  -12.9261 C   0  0  0  0  0  0  0  0  0  0  0  0
   15.8550  -22.0314  -14.1045 C   0  0  0  0  0  0  0  0  0  0  0  0
   14.7311  -21.2619  -14.7106 C   0  0  0  0  0  0  0  0  0  0  0  0
   15.2003  -20.4674  -15.8615 O   0  0  0  0  0  0  0  0  0  0  0  0
   15.0767  -19.1911  -15.7979 C   0  0  0  0  0  0  0  0  0  0  0  0
   14.3075  -23.7700  -13.1939 O   0  0  0  0  0  0  0  0  0  0  0  0
   13.1217  -23.3874  -13.3648 O   0  0  0  0  0  0  0  0  0  0  0  0
   15.7607  -20.9932  -17.0040 O   0  0  0  0  0  0  0  0  0  0  0  0
  2  1  1  6
  2  3  1  0
  2  4  1  0
  5  6  1  1
  5  4  1  0
  7  5  1  0
  8  7  2  0
 10  9  1  0
 10 12  1  0
 11 10  2  0
 13 12  1  0
 13 14  1  0
 14 15  1  0
 16 15  1  1
 16 17  1  0
 17  7  1  0
 18 16  1  0
 18 19  2  0
 20 18  1  0
 21 20  1  0
 21 22  1  6
 23 24  1  0
 23 22  1  0
 24 25  2  0
 26 21  1  0
 27 26  2  0
 28 24  1  0
 29 26  1  0
M  END
$$$$
