LRE.pdb
     RDKit          3D

 29 28  0  0  1  0  0  0  0  0999 V2000
   17.8585  -12.1692  -19.3829 C   0  0  0  0  0  0  0  0  0  0  0  0
   16.9122  -12.2191  -18.1793 C   0  0  2  0  0  0  0  0  0  0  0  0
   15.5874  -11.5814  -18.5289 C   0  0  0  0  0  0  0  0  0  0  0  0
   17.5221  -11.3923  -17.0486 C   0  0  0  0  0  0  0  0  0  0  0  0
   18.8603  -11.9807  -16.7516 C   0  0  2  0  0  0  0  0  0  0  0  0
   18.7308  -13.2056  -16.0295 N   0  0  0  0  0  0  0  0  0  0  0  0
   19.6813  -10.9547  -16.0628 C   0  0  0  0  0  0  0  0  0  0  0  0
   19.4598  -10.7428  -14.8523 O   0  0  0  0  0  0  0  0  0  0  0  0
   26.9273  -12.5249  -14.8727 N   0  0  0  0  0  0  0  0  0  0  0  0
   26.7808  -11.2312  -15.5119 C   0  0  0  0  0  0  0  0  0  0  0  0
   27.7375  -10.8062  -16.2083 N   0  0  0  0  0  0  0  0  0  0  0  0
   25.6022  -10.5081  -15.3424 N   0  0  0  0  0  0  0  0  0  0  0  0
   25.3011   -9.2176  -15.8722 C   0  0  0  0  0  0  0  0  0  0  0  0
   23.9307   -8.6878  -15.5855 C   0  0  0  0  0  0  0  0  0  0  0  0
   22.9162   -9.6523  -16.1773 C   0  0  0  0  0  0  0  0  0  0  0  0
   21.4826   -9.2862  -15.9089 C   0  0  2  0  0  0  0  0  0  0  0  0
   20.6899  -10.2179  -16.7116 N   0  0  0  0  0  0  0  0  0  0  0  0
   21.3126   -7.9078  -16.4634 C   0  0  0  0  0  0  0  0  0  0  0  0
   21.5839   -7.6657  -17.6501 O   0  0  0  0  0  0  0  0  0  0  0  0
   27.7917   -9.9457  -16.7141 N   0  0  0  0  0  0  0  0  0  0  0  0
   20.8399   -6.8878  -15.6217 C   0  0  2  0  0  0  0  0  0  0  0  0
   20.6811   -5.5027  -16.1328 C   0  0  0  0  0  0  0  0  0  0  0  0
   19.5998   -4.9026  -15.3022 C   0  0  0  0  0  0  0  0  0  0  0  0
   18.2537   -5.3732  -15.7373 C   0  0  0  0  0  0  0  0  0  0  0  0
   17.1989   -4.8236  -14.8649 O   0  0  0  0  0  0  0  0  0  0  0  0
   17.0584   -3.5481  -14.8264 C   0  0  0  0  0  0  0  0  0  0  0  0
   21.9957   -4.8519  -16.0118 O   0  0  0  0  0  0  0  0  0  0  0  0
   22.8843   -5.2867  -15.2352 O   0  0  0  0  0  0  0  0  0  0  0  0
   16.3519   -5.5778  -14.0840 O   0  0  0  0  0  0  0  0  0  0  0  0
  2  1  1  6
  2  3  1  0
  2  4  1  0
  5  6  1  1
  5  4  1  0
  7  5  1  0
  8  7  2  0
 10  9  1  0
 10 12  1  0
 11 10  2  0
 13 12  1  0
 13 14  1  0
 14 15  1  0
 16 15  1  6
 16 17  1  0
 17  7  1  0
 18 16  1  0
 18 19  2  0
 20 18  1  0
 21 20  1  0
 21 22  1  1
 23 24  1  0
 23 22  1  0
 24 25  2  0
 26 21  1  0
 27 26  2  0
 28 24  1  0
 29 26  1  0
M  END
$$$$
