LRE.pdb
     RDKit          3D

 29 28  0  0  1  0  0  0  0  0999 V2000
   29.0774  -18.8700  -16.3734 C   0  0  0  0  0  0  0  0  0  0  0  0
   28.6980  -20.0136  -17.3193 C   0  0  2  0  0  0  0  0  0  0  0  0
   29.2008  -19.7263  -18.7153 C   0  0  0  0  0  0  0  0  0  0  0  0
   27.1744  -20.0911  -17.3997 C   0  0  0  0  0  0  0  0  0  0  0  0
   26.6944  -20.6068  -16.0848 C   0  0  2  0  0  0  0  0  0  0  0  0
   27.5244  -21.6716  -15.6200 N   0  0  0  0  0  0  0  0  0  0  0  0
   25.2617  -20.9686  -16.2177 C   0  0  0  0  0  0  0  0  0  0  0  0
   24.4826  -20.1133  -16.6878 O   0  0  0  0  0  0  0  0  0  0  0  0
   21.8315  -28.5632  -14.2499 N   0  0  0  0  0  0  0  0  0  0  0  0
   21.9150  -27.3770  -13.4194 C   0  0  0  0  0  0  0  0  0  0  0  0
   22.0456  -27.5341  -12.1788 N   0  0  0  0  0  0  0  0  0  0  0  0
   21.8528  -26.1166  -14.0095 N   0  0  0  0  0  0  0  0  0  0  0  0
   21.6175  -25.8221  -15.3860 C   0  0  0  0  0  0  0  0  0  0  0  0
   21.6670  -24.3763  -15.7712 C   0  0  0  0  0  0  0  0  0  0  0  0
   23.0977  -23.8906  -15.6068 C   0  0  0  0  0  0  0  0  0  0  0  0
   23.3134  -22.4542  -15.9956 C   0  0  2  0  0  0  0  0  0  0  0  0
   24.7498  -22.2239  -15.8395 N   0  0  0  0  0  0  0  0  0  0  0  0
   22.5826  -21.6492  -14.9688 C   0  0  0  0  0  0  0  0  0  0  0  0
   23.0605  -21.4869  -13.8348 O   0  0  0  0  0  0  0  0  0  0  0  0
   22.1067  -26.8268  -11.4751 N   0  0  0  0  0  0  0  0  0  0  0  0
   21.3449  -21.0769  -15.3052 C   0  0  1  0  0  0  0  0  0  0  0  0
   20.6509  -20.1711  -14.3551 C   0  0  0  0  0  0  0  0  0  0  0  0
   20.6422  -18.8392  -15.0225 C   0  0  0  0  0  0  0  0  0  0  0  0
   19.8058  -17.8593  -14.2723 C   0  0  0  0  0  0  0  0  0  0  0  0
   19.7637  -16.5616  -14.9723 O   0  0  0  0  0  0  0  0  0  0  0  0
   20.3530  -16.4758  -16.1097 C   0  0  0  0  0  0  0  0  0  0  0  0
   19.3224  -20.7536  -14.1063 O   0  0  0  0  0  0  0  0  0  0  0  0
   18.7828  -21.5502  -14.9163 O   0  0  0  0  0  0  0  0  0  0  0  0
   19.1400  -15.4305  -14.4954 O   0  0  0  0  0  0  0  0  0  0  0  0
  2  1  1  1
  2  3  1  0
  2  4  1  0
  5  6  1  6
  5  4  1  0
  7  5  1  0
  8  7  2  0
 10  9  1  0
 10 12  1  0
 11 10  2  0
 13 12  1  0
 13 14  1  0
 14 15  1  0
 16 15  1  1
 16 17  1  0
 17  7  1  0
 18 16  1  0
 18 19  2  0
 20 18  1  0
 21 20  1  0
 21 22  1  6
 23 24  1  0
 23 22  1  0
 24 25  2  0
 26 21  1  0
 27 26  2  0
 28 24  1  0
 29 26  1  0
M  END
$$$$
