PNQ.pdb
     RDKit          3D

 25 25  0  0  1  0  0  0  0  0999 V2000
    9.2107  -13.9816   18.1200 N   0  0  0  0  0  0  0  0  0  0  0  0
    8.1500  -13.2094   17.4962 C   0  0  0  0  0  0  0  0  0  0  0  0
    7.1364  -13.2022   18.6482 C   0  0  0  0  0  0  0  0  0  0  0  0
    8.0628  -12.7309   19.7756 C   0  0  0  0  0  0  0  0  0  0  0  0
    9.3080  -13.5460   19.4936 C   0  0  1  0  0  0  0  0  0  0  0  0
    9.3062  -14.6916   20.4396 C   0  0  0  0  0  0  0  0  0  0  0  0
    9.2266  -14.4923   21.6947 O   0  0  0  0  0  0  0  0  0  0  0  0
    6.4513  -18.1459   21.0862 N   0  0  0  0  0  0  0  0  0  0  0  0
    7.3908  -18.1231   20.0212 C   0  0  0  0  0  0  0  0  0  0  0  0
    6.9620  -17.8721   18.8688 O   0  0  0  0  0  0  0  0  0  0  0  0
    8.8161  -18.3950   20.3269 C   0  0  0  0  0  0  0  0  0  0  0  0
    9.4779  -17.1566   20.9262 C   0  0  2  0  0  0  0  0  0  0  0  0
    9.3892  -16.0365   20.0130 N   0  0  0  0  0  0  0  0  0  0  0  0
   10.8916  -17.4204   21.2693 C   0  0  0  0  0  0  0  0  0  0  0  0
   11.6519  -17.8221   20.3571 O   0  0  0  0  0  0  0  0  0  0  0  0
   15.3776  -15.5296   19.9791 N   0  0  0  0  0  0  0  0  0  0  0  0
   15.1791  -14.9247   21.2507 C   0  0  0  0  0  0  0  0  0  0  0  0
   15.7833  -13.8569   21.4796 O   0  0  0  0  0  0  0  0  0  0  0  0
   14.2878  -15.5900   22.1983 C   0  0  0  0  0  0  0  0  0  0  0  0
   13.6531  -16.8453   21.7299 C   0  0  0  0  0  0  0  0  0  0  0  0
   12.8388  -17.4990   22.7745 C   0  0  2  0  0  0  0  0  0  0  0  0
   11.3982  -17.2335   22.5792 N   0  0  0  0  0  0  0  0  0  0  0  0
   13.2307  -17.2401   24.1584 C   0  0  0  0  0  0  0  0  0  0  0  0
   12.4106  -16.7058   24.9858 O   0  0  0  0  0  0  0  0  0  0  0  0
   14.4673  -17.5300   24.7036 O   0  0  0  0  0  0  0  0  0  0  0  0
  2  1  1  0
  3  2  1  0
  4  3  1  0
  4  5  1  0
  5  6  1  1
  5  1  1  0
  6  7  2  0
  9  8  1  0
 10  9  2  0
 11  9  1  0
 12 11  1  6
 13 12  1  0
 13  6  1  0
 14 12  1  0
 14 15  2  0
 16 17  1  0
 17 19  1  0
 18 17  2  0
 19 20  1  0
 21 20  1  6
 21 22  1  0
 21 23  1  0
 22 14  1  0
 23 24  2  0
 23 25  1  0
M  END
$$$$
