PNQ.pdb
     RDKit          3D

 25 25  0  0  1  0  0  0  0  0999 V2000
    8.3152  -14.6042   18.6007 N   0  0  0  0  0  0  0  0  0  0  0  0
    7.5903  -13.5252   17.9521 C   0  0  0  0  0  0  0  0  0  0  0  0
    7.0427  -12.8105   19.1947 C   0  0  0  0  0  0  0  0  0  0  0  0
    8.3486  -12.6814   19.9880 C   0  0  0  0  0  0  0  0  0  0  0  0
    8.9660  -14.0462   19.7630 C   0  0  1  0  0  0  0  0  0  0  0  0
    8.7060  -14.8521   20.9838 C   0  0  0  0  0  0  0  0  0  0  0  0
    7.6558  -14.6544   21.6764 O   0  0  0  0  0  0  0  0  0  0  0  0
   10.6076  -18.9633   20.3797 N   0  0  0  0  0  0  0  0  0  0  0  0
    9.7100  -18.7693   21.4632 C   0  0  0  0  0  0  0  0  0  0  0  0
    8.5836  -19.3183   21.3946 O   0  0  0  0  0  0  0  0  0  0  0  0
   10.1496  -17.9350   22.6076 C   0  0  0  0  0  0  0  0  0  0  0  0
    9.3641  -16.6264   22.6455 C   0  0  2  0  0  0  0  0  0  0  0  0
    9.5859  -15.8613   21.4365 N   0  0  0  0  0  0  0  0  0  0  0  0
    9.7278  -15.8200   23.8300 C   0  0  0  0  0  0  0  0  0  0  0  0
   10.7973  -15.1673   23.7898 O   0  0  0  0  0  0  0  0  0  0  0  0
    7.1417  -11.3954   26.4085 N   0  0  0  0  0  0  0  0  0  0  0  0
    6.4832  -12.6359   26.6313 C   0  0  0  0  0  0  0  0  0  0  0  0
    5.2546  -12.6034   26.8487 O   0  0  0  0  0  0  0  0  0  0  0  0
    7.2839  -13.8575   26.5922 C   0  0  0  0  0  0  0  0  0  0  0  0
    8.7175  -13.6903   26.2535 C   0  0  0  0  0  0  0  0  0  0  0  0
    9.4289  -14.9782   26.1247 C   0  0  2  0  0  0  0  0  0  0  0  0
    8.9122  -15.7677   24.9873 N   0  0  0  0  0  0  0  0  0  0  0  0
    9.5081  -15.7985   27.3317 C   0  0  0  0  0  0  0  0  0  0  0  0
    9.0624  -17.0001   27.3413 O   0  0  0  0  0  0  0  0  0  0  0  0
   10.0474  -15.3913   28.5374 O   0  0  0  0  0  0  0  0  0  0  0  0
  2  1  1  0
  3  2  1  0
  4  3  1  0
  4  5  1  0
  5  6  1  1
  5  1  1  0
  6  7  2  0
  9  8  1  0
 10  9  2  0
 11  9  1  0
 12 11  1  6
 13 12  1  0
 13  6  1  0
 14 12  1  0
 14 15  2  0
 16 17  1  0
 17 19  1  0
 18 17  2  0
 19 20  1  0
 21 20  1  1
 21 22  1  0
 21 23  1  0
 22 14  1  0
 23 24  2  0
 23 25  1  0
M  END
$$$$
