PNQ.pdb
     RDKit          3D

 25 25  0  0  1  0  0  0  0  0999 V2000
    9.2415  -14.8074   18.9036 N   0  0  0  0  0  0  0  0  0  0  0  0
    8.7091  -14.3657   17.6261 C   0  0  0  0  0  0  0  0  0  0  0  0
    7.3126  -13.9193   18.0789 C   0  0  0  0  0  0  0  0  0  0  0  0
    7.7203  -13.0224   19.2539 C   0  0  0  0  0  0  0  0  0  0  0  0
    8.8033  -13.8600   19.9018 C   0  0  1  0  0  0  0  0  0  0  0  0
    8.1925  -14.5352   21.0759 C   0  0  0  0  0  0  0  0  0  0  0  0
    7.6820  -13.8509   22.0207 O   0  0  0  0  0  0  0  0  0  0  0  0
    5.6170  -19.4499   23.1865 N   0  0  0  0  0  0  0  0  0  0  0  0
    6.8771  -18.8009   23.2777 C   0  0  0  0  0  0  0  0  0  0  0  0
    7.4810  -18.8487   24.3767 O   0  0  0  0  0  0  0  0  0  0  0  0
    7.4062  -18.1077   22.0783 C   0  0  0  0  0  0  0  0  0  0  0  0
    7.5465  -16.6114   22.3466 C   0  0  2  0  0  0  0  0  0  0  0  0
    8.1420  -15.9413   21.2096 N   0  0  0  0  0  0  0  0  0  0  0  0
    8.3506  -16.3603   23.5615 C   0  0  0  0  0  0  0  0  0  0  0  0
    9.5859  -16.1964   23.4243 O   0  0  0  0  0  0  0  0  0  0  0  0
    5.4525  -12.1483   26.5757 N   0  0  0  0  0  0  0  0  0  0  0  0
    6.7487  -12.0507   27.1523 C   0  0  0  0  0  0  0  0  0  0  0  0
    6.9875  -11.0534   27.8638 O   0  0  0  0  0  0  0  0  0  0  0  0
    7.7084  -13.1167   26.8741 C   0  0  0  0  0  0  0  0  0  0  0  0
    7.2477  -14.1911   25.9623 C   0  0  0  0  0  0  0  0  0  0  0  0
    8.2667  -15.2395   25.7524 C   0  0  2  0  0  0  0  0  0  0  0  0
    7.7699  -16.3011   24.8525 N   0  0  0  0  0  0  0  0  0  0  0  0
    8.8605  -15.8165   26.9568 C   0  0  0  0  0  0  0  0  0  0  0  0
    8.5877  -17.0165   27.3150 O   0  0  0  0  0  0  0  0  0  0  0  0
    9.7404  -15.1660   27.8012 O   0  0  0  0  0  0  0  0  0  0  0  0
  2  1  1  0
  3  2  1  0
  4  3  1  0
  4  5  1  0
  5  6  1  1
  5  1  1  0
  6  7  2  0
  9  8  1  0
 10  9  2  0
 11  9  1  0
 12 11  1  6
 13 12  1  0
 13  6  1  0
 14 12  1  0
 14 15  2  0
 16 17  1  0
 17 19  1  0
 18 17  2  0
 19 20  1  0
 21 20  1  1
 21 22  1  0
 21 23  1  0
 22 14  1  0
 23 24  2  0
 23 25  1  0
M  END
$$$$
