PNQ.pdb
     RDKit          3D

 25 25  0  0  1  0  0  0  0  0999 V2000
    8.9343  -14.5872   19.1308 N   0  0  0  0  0  0  0  0  0  0  0  0
    8.4011  -13.9242   17.9533 C   0  0  0  0  0  0  0  0  0  0  0  0
    7.1544  -13.2794   18.5733 C   0  0  0  0  0  0  0  0  0  0  0  0
    7.8142  -12.6004   19.7795 C   0  0  0  0  0  0  0  0  0  0  0  0
    8.7626  -13.6855   20.2459 C   0  0  1  0  0  0  0  0  0  0  0  0
    8.1245  -14.3565   21.4077 C   0  0  0  0  0  0  0  0  0  0  0  0
    7.1228  -13.8270   21.9889 O   0  0  0  0  0  0  0  0  0  0  0  0
    6.5125  -17.8758   24.6960 N   0  0  0  0  0  0  0  0  0  0  0  0
    5.7736  -17.4692   23.5533 C   0  0  0  0  0  0  0  0  0  0  0  0
    4.5750  -17.8323   23.4726 O   0  0  0  0  0  0  0  0  0  0  0  0
    6.4535  -16.6438   22.5258 C   0  0  0  0  0  0  0  0  0  0  0  0
    7.8829  -16.3265   22.9580 C   0  0  2  0  0  0  0  0  0  0  0  0
    8.5792  -15.5916   21.9229 N   0  0  0  0  0  0  0  0  0  0  0  0
    8.6259  -17.5605   23.2912 C   0  0  0  0  0  0  0  0  0  0  0  0
    8.7662  -18.4221   22.3915 O   0  0  0  0  0  0  0  0  0  0  0  0
   13.3158  -15.3365   22.2078 N   0  0  0  0  0  0  0  0  0  0  0  0
   13.2588  -16.1615   23.3647 C   0  0  0  0  0  0  0  0  0  0  0  0
   13.9863  -17.1755   23.3837 O   0  0  0  0  0  0  0  0  0  0  0  0
   12.3576  -15.7700   24.4460 C   0  0  0  0  0  0  0  0  0  0  0  0
   10.9284  -16.1211   24.2670 C   0  0  0  0  0  0  0  0  0  0  0  0
   10.6082  -17.4798   24.7497 C   0  0  2  0  0  0  0  0  0  0  0  0
    9.1732  -17.7882   24.5780 N   0  0  0  0  0  0  0  0  0  0  0  0
   11.0506  -17.8076   26.1035 C   0  0  0  0  0  0  0  0  0  0  0  0
   12.1849  -18.3684   26.3076 O   0  0  0  0  0  0  0  0  0  0  0  0
   10.3323  -17.5599   27.2581 O   0  0  0  0  0  0  0  0  0  0  0  0
  2  1  1  0
  3  2  1  0
  4  3  1  0
  4  5  1  0
  5  6  1  1
  5  1  1  0
  6  7  2  0
  9  8  1  0
 10  9  2  0
 11  9  1  0
 12 11  1  6
 13 12  1  0
 13  6  1  0
 14 12  1  0
 14 15  2  0
 16 17  1  0
 17 19  1  0
 18 17  2  0
 19 20  1  0
 21 20  1  1
 21 22  1  0
 21 23  1  0
 22 14  1  0
 23 24  2  0
 23 25  1  0
M  END
$$$$
