PNQ.pdb
     RDKit          3D

 25 25  0  0  1  0  0  0  0  0999 V2000
    9.1881  -14.5529   19.5862 N   0  0  0  0  0  0  0  0  0  0  0  0
    8.5844  -14.0400   18.3684 C   0  0  0  0  0  0  0  0  0  0  0  0
    7.1945  -13.6817   18.9111 C   0  0  0  0  0  0  0  0  0  0  0  0
    7.6222  -12.8579   20.1316 C   0  0  0  0  0  0  0  0  0  0  0  0
    8.7617  -13.6984   20.6696 C   0  0  1  0  0  0  0  0  0  0  0  0
    8.2277  -14.4803   21.8146 C   0  0  0  0  0  0  0  0  0  0  0  0
    7.6525  -13.8915   22.7861 O   0  0  0  0  0  0  0  0  0  0  0  0
    5.2019  -18.8761   23.5921 N   0  0  0  0  0  0  0  0  0  0  0  0
    6.6186  -18.8023   23.5236 C   0  0  0  0  0  0  0  0  0  0  0  0
    7.2788  -19.4130   24.3989 O   0  0  0  0  0  0  0  0  0  0  0  0
    7.2357  -18.0136   22.4298 C   0  0  0  0  0  0  0  0  0  0  0  0
    7.7315  -16.6693   22.9567 C   0  0  2  0  0  0  0  0  0  0  0  0
    8.3229  -15.8884   21.8905 N   0  0  0  0  0  0  0  0  0  0  0  0
    8.7071  -16.8527   24.0523 C   0  0  0  0  0  0  0  0  0  0  0  0
    8.3602  -17.5467   25.0370 O   0  0  0  0  0  0  0  0  0  0  0  0
    8.7780  -13.3230   27.9397 N   0  0  0  0  0  0  0  0  0  0  0  0
    9.8722  -14.0824   28.4381 C   0  0  0  0  0  0  0  0  0  0  0  0
   10.1961  -13.9087   29.6309 O   0  0  0  0  0  0  0  0  0  0  0  0
   10.5403  -15.0081   27.5263 C   0  0  0  0  0  0  0  0  0  0  0  0
    9.9664  -15.1137   26.1635 C   0  0  0  0  0  0  0  0  0  0  0  0
   10.6783  -16.0925   25.3170 C   0  0  2  0  0  0  0  0  0  0  0  0
   10.0000  -16.2744   24.0168 N   0  0  0  0  0  0  0  0  0  0  0  0
   10.9766  -17.3846   25.9314 C   0  0  0  0  0  0  0  0  0  0  0  0
   10.2770  -18.4222   25.6545 O   0  0  0  0  0  0  0  0  0  0  0  0
   11.9970  -17.6212   26.8332 O   0  0  0  0  0  0  0  0  0  0  0  0
  2  1  1  0
  3  2  1  0
  4  3  1  0
  4  5  1  0
  5  6  1  1
  5  1  1  0
  6  7  2  0
  9  8  1  0
 10  9  2  0
 11  9  1  0
 12 11  1  6
 13 12  1  0
 13  6  1  0
 14 12  1  0
 14 15  2  0
 16 17  1  0
 17 19  1  0
 18 17  2  0
 19 20  1  0
 21 20  1  1
 21 22  1  0
 21 23  1  0
 22 14  1  0
 23 24  2  0
 23 25  1  0
M  END
$$$$
