PNQ.pdb
     RDKit          3D

 25 25  0  0  1  0  0  0  0  0999 V2000
    8.2715  -18.1636   20.1168 N   0  0  0  0  0  0  0  0  0  0  0  0
    8.1171  -17.9719   18.6850 C   0  0  0  0  0  0  0  0  0  0  0  0
    9.5078  -18.4254   18.2214 C   0  0  0  0  0  0  0  0  0  0  0  0
    9.5760  -19.7689   18.9575 C   0  0  0  0  0  0  0  0  0  0  0  0
    9.0034  -19.3938   20.3087 C   0  0  1  0  0  0  0  0  0  0  0  0
   10.1495  -19.2174   21.2375 C   0  0  0  0  0  0  0  0  0  0  0  0
   10.9430  -20.1846   21.4746 O   0  0  0  0  0  0  0  0  0  0  0  0
   13.0640  -17.4547   20.6109 N   0  0  0  0  0  0  0  0  0  0  0  0
   12.8934  -16.2949   21.4127 C   0  0  0  0  0  0  0  0  0  0  0  0
   13.4135  -15.2254   21.0119 O   0  0  0  0  0  0  0  0  0  0  0  0
   12.1158  -16.4101   22.6702 C   0  0  0  0  0  0  0  0  0  0  0  0
   11.5300  -17.8131   22.8075 C   0  0  2  0  0  0  0  0  0  0  0  0
   10.4208  -17.9960   21.8950 N   0  0  0  0  0  0  0  0  0  0  0  0
   11.0936  -18.0756   24.1954 C   0  0  0  0  0  0  0  0  0  0  0  0
   10.0403  -17.5245   24.5936 O   0  0  0  0  0  0  0  0  0  0  0  0
    9.5078  -22.9743   27.1559 N   0  0  0  0  0  0  0  0  0  0  0  0
   10.7899  -22.8866   26.5471 C   0  0  0  0  0  0  0  0  0  0  0  0
   11.2892  -23.9413   26.1043 O   0  0  0  0  0  0  0  0  0  0  0  0
   11.4333  -21.5763   26.4820 C   0  0  0  0  0  0  0  0  0  0  0  0
   10.5304  -20.4010   26.5154 C   0  0  0  0  0  0  0  0  0  0  0  0
   11.2569  -19.1185   26.4200 C   0  0  2  0  0  0  0  0  0  0  0  0
   11.8228  -18.9191   25.0696 N   0  0  0  0  0  0  0  0  0  0  0  0
   12.2657  -18.8673   27.4472 C   0  0  0  0  0  0  0  0  0  0  0  0
   13.4716  -18.5736   27.1274 O   0  0  0  0  0  0  0  0  0  0  0  0
   12.0431  -18.9137   28.8105 O   0  0  0  0  0  0  0  0  0  0  0  0
  2  1  1  0
  3  2  1  0
  4  3  1  0
  4  5  1  0
  5  6  1  1
  5  1  1  0
  6  7  2  0
  9  8  1  0
 10  9  2  0
 11  9  1  0
 12 11  1  1
 13 12  1  0
 13  6  1  0
 14 12  1  0
 14 15  2  0
 16 17  1  0
 17 19  1  0
 18 17  2  0
 19 20  1  0
 21 20  1  6
 21 22  1  0
 21 23  1  0
 22 14  1  0
 23 24  2  0
 23 25  1  0
M  END
$$$$
