PNQ.pdb
     RDKit          3D

 25 25  0  0  1  0  0  0  0  0999 V2000
    8.5497  -14.6253   18.4610 N   0  0  0  0  0  0  0  0  0  0  0  0
    7.7070  -13.7489   17.6658 C   0  0  0  0  0  0  0  0  0  0  0  0
    7.0812  -12.9155   18.7921 C   0  0  0  0  0  0  0  0  0  0  0  0
    8.3636  -12.5185   19.5332 C   0  0  0  0  0  0  0  0  0  0  0  0
    9.1322  -13.8235   19.5116 C   0  0  1  0  0  0  0  0  0  0  0  0
    8.9650  -14.4535   20.8467 C   0  0  0  0  0  0  0  0  0  0  0  0
    9.3588  -13.8526   21.8980 O   0  0  0  0  0  0  0  0  0  0  0  0
    6.9318  -17.9403   19.8792 N   0  0  0  0  0  0  0  0  0  0  0  0
    7.1781  -18.3144   21.2270 C   0  0  0  0  0  0  0  0  0  0  0  0
    7.5443  -19.4940   21.4486 O   0  0  0  0  0  0  0  0  0  0  0  0
    6.9908  -17.2982   22.2907 C   0  0  0  0  0  0  0  0  0  0  0  0
    8.1753  -16.3355   22.3221 C   0  0  2  0  0  0  0  0  0  0  0  0
    8.3727  -15.7244   21.0245 N   0  0  0  0  0  0  0  0  0  0  0  0
    9.4111  -17.0241   22.7517 C   0  0  0  0  0  0  0  0  0  0  0  0
   10.0831  -17.6227   21.8790 O   0  0  0  0  0  0  0  0  0  0  0  0
   12.4005  -15.0836   21.9471 N   0  0  0  0  0  0  0  0  0  0  0  0
   13.3017  -16.1819   22.0079 C   0  0  0  0  0  0  0  0  0  0  0  0
   14.1115  -16.3134   21.0673 O   0  0  0  0  0  0  0  0  0  0  0  0
   13.2192  -17.0776   23.1593 C   0  0  0  0  0  0  0  0  0  0  0  0
   12.2609  -16.6911   24.2224 C   0  0  0  0  0  0  0  0  0  0  0  0
   11.1533  -17.6566   24.3728 C   0  0  2  0  0  0  0  0  0  0  0  0
    9.8461  -17.0235   24.1001 N   0  0  0  0  0  0  0  0  0  0  0  0
   11.1141  -18.4078   25.6258 C   0  0  0  0  0  0  0  0  0  0  0  0
   10.1079  -18.3199   26.4148 O   0  0  0  0  0  0  0  0  0  0  0  0
   12.1072  -19.2567   26.0770 O   0  0  0  0  0  0  0  0  0  0  0  0
  2  1  1  0
  3  2  1  0
  4  3  1  0
  4  5  1  0
  5  6  1  1
  5  1  1  0
  6  7  2  0
  9  8  1  0
 10  9  2  0
 11  9  1  0
 12 11  1  6
 13 12  1  0
 13  6  1  0
 14 12  1  0
 14 15  2  0
 16 17  1  0
 17 19  1  0
 18 17  2  0
 19 20  1  0
 21 20  1  1
 21 22  1  0
 21 23  1  0
 22 14  1  0
 23 24  2  0
 23 25  1  0
M  END
$$$$
