PNQ.pdb
     RDKit          3D

 25 25  0  0  1  0  0  0  0  0999 V2000
    8.8169  -14.7817   19.1263 N   0  0  0  0  0  0  0  0  0  0  0  0
    8.2550  -14.0664   17.9935 C   0  0  0  0  0  0  0  0  0  0  0  0
    7.0989  -13.3473   18.7013 C   0  0  0  0  0  0  0  0  0  0  0  0
    7.8815  -12.7329   19.8681 C   0  0  0  0  0  0  0  0  0  0  0  0
    8.7811  -13.8869   20.2594 C   0  0  1  0  0  0  0  0  0  0  0  0
    8.1755  -14.5300   21.4540 C   0  0  0  0  0  0  0  0  0  0  0  0
    8.0346  -13.8760   22.5375 O   0  0  0  0  0  0  0  0  0  0  0  0
    6.2103  -17.9196   24.7274 N   0  0  0  0  0  0  0  0  0  0  0  0
    6.0404  -18.5498   23.4660 C   0  0  0  0  0  0  0  0  0  0  0  0
    5.4538  -19.6589   23.4409 O   0  0  0  0  0  0  0  0  0  0  0  0
    6.5613  -17.8678   22.2566 C   0  0  0  0  0  0  0  0  0  0  0  0
    7.1841  -16.5247   22.6291 C   0  0  2  0  0  0  0  0  0  0  0  0
    7.7299  -15.8713   21.4580 N   0  0  0  0  0  0  0  0  0  0  0  0
    8.2366  -16.6906   23.6541 C   0  0  0  0  0  0  0  0  0  0  0  0
    9.3658  -17.0839   23.2774 O   0  0  0  0  0  0  0  0  0  0  0  0
   10.1221  -14.6821   30.3322 N   0  0  0  0  0  0  0  0  0  0  0  0
    9.8632  -14.1931   29.0222 C   0  0  0  0  0  0  0  0  0  0  0  0
    9.4767  -13.0111   28.9161 O   0  0  0  0  0  0  0  0  0  0  0  0
   10.0646  -15.1014   27.8956 C   0  0  0  0  0  0  0  0  0  0  0  0
    8.9120  -15.2739   26.9793 C   0  0  0  0  0  0  0  0  0  0  0  0
    9.1991  -16.2028   25.8674 C   0  0  2  0  0  0  0  0  0  0  0  0
    8.0044  -16.4208   25.0254 N   0  0  0  0  0  0  0  0  0  0  0  0
    9.8171  -17.4765   26.2302 C   0  0  0  0  0  0  0  0  0  0  0  0
    9.1090  -18.5358   26.3691 O   0  0  0  0  0  0  0  0  0  0  0  0
   11.1674  -17.6724   26.4512 O   0  0  0  0  0  0  0  0  0  0  0  0
  2  1  1  0
  3  2  1  0
  4  3  1  0
  4  5  1  0
  5  6  1  1
  5  1  1  0
  6  7  2  0
  9  8  1  0
 10  9  2  0
 11  9  1  0
 12 11  1  6
 13 12  1  0
 13  6  1  0
 14 12  1  0
 14 15  2  0
 16 17  1  0
 17 19  1  0
 18 17  2  0
 19 20  1  0
 21 20  1  1
 21 22  1  0
 21 23  1  0
 22 14  1  0
 23 24  2  0
 23 25  1  0
M  END
$$$$
