PNQ.pdb
     RDKit          3D

 25 25  0  0  1  0  0  0  0  0999 V2000
    8.1389  -14.0898   20.2322 N   0  0  0  0  0  0  0  0  0  0  0  0
    7.7253  -12.7288   19.9374 C   0  0  0  0  0  0  0  0  0  0  0  0
    8.9193  -12.2852   19.0818 C   0  0  0  0  0  0  0  0  0  0  0  0
    8.9535  -13.4595   18.0964 C   0  0  0  0  0  0  0  0  0  0  0  0
    8.7219  -14.6318   19.0272 C   0  0  1  0  0  0  0  0  0  0  0  0
   10.0453  -15.2561   19.2844 C   0  0  0  0  0  0  0  0  0  0  0  0
   10.5775  -16.0217   18.4170 O   0  0  0  0  0  0  0  0  0  0  0  0
   13.6195  -13.6616   18.0626 N   0  0  0  0  0  0  0  0  0  0  0  0
   13.6737  -14.7421   18.9828 C   0  0  0  0  0  0  0  0  0  0  0  0
   14.1535  -15.8295   18.5800 O   0  0  0  0  0  0  0  0  0  0  0  0
   13.1641  -14.5279   20.3588 C   0  0  0  0  0  0  0  0  0  0  0  0
   12.1029  -15.5704   20.7021 C   0  0  2  0  0  0  0  0  0  0  0  0
   10.7742  -15.0416   20.4761 N   0  0  0  0  0  0  0  0  0  0  0  0
   12.2361  -16.0262   22.1022 C   0  0  0  0  0  0  0  0  0  0  0  0
   12.1790  -15.1621   23.0087 O   0  0  0  0  0  0  0  0  0  0  0  0
   10.4754  -21.2772   25.0242 N   0  0  0  0  0  0  0  0  0  0  0  0
   11.1860  -20.5555   26.0224 C   0  0  0  0  0  0  0  0  0  0  0  0
   11.1529  -21.0022   27.1874 O   0  0  0  0  0  0  0  0  0  0  0  0
   11.9015  -19.3468   25.6204 C   0  0  0  0  0  0  0  0  0  0  0  0
   11.8014  -18.9717   24.1896 C   0  0  0  0  0  0  0  0  0  0  0  0
   12.5044  -17.7106   23.8781 C   0  0  2  0  0  0  0  0  0  0  0  0
   12.4227  -17.3899   22.4379 N   0  0  0  0  0  0  0  0  0  0  0  0
   13.8810  -17.6009   24.3565 C   0  0  0  0  0  0  0  0  0  0  0  0
   14.1452  -17.6161   25.6106 O   0  0  0  0  0  0  0  0  0  0  0  0
   14.9968  -17.4767   23.5504 O   0  0  0  0  0  0  0  0  0  0  0  0
  2  1  1  0
  3  2  1  0
  4  3  1  0
  4  5  1  0
  5  6  1  1
  5  1  1  0
  6  7  2  0
  9  8  1  0
 10  9  2  0
 11  9  1  0
 12 11  1  1
 13 12  1  0
 13  6  1  0
 14 12  1  0
 14 15  2  0
 16 17  1  0
 17 19  1  0
 18 17  2  0
 19 20  1  0
 21 20  1  6
 21 22  1  0
 21 23  1  0
 22 14  1  0
 23 24  2  0
 23 25  1  0
M  END
$$$$
