PNQ.pdb
     RDKit          3D

 25 25  0  0  1  0  0  0  0  0999 V2000
    9.5220  -13.9046   18.6757 N   0  0  0  0  0  0  0  0  0  0  0  0
    8.7017  -13.3523   17.6114 C   0  0  0  0  0  0  0  0  0  0  0  0
    7.3196  -13.4937   18.2630 C   0  0  0  0  0  0  0  0  0  0  0  0
    7.6255  -12.8327   19.6124 C   0  0  0  0  0  0  0  0  0  0  0  0
    8.9861  -13.4198   19.9261 C   0  0  1  0  0  0  0  0  0  0  0  0
    8.7749  -14.5201   20.9019 C   0  0  0  0  0  0  0  0  0  0  0  0
    8.0465  -14.3396   21.9307 O   0  0  0  0  0  0  0  0  0  0  0  0
    8.9292  -18.8723   18.7827 N   0  0  0  0  0  0  0  0  0  0  0  0
    8.5444  -18.6544   20.1324 C   0  0  0  0  0  0  0  0  0  0  0  0
    7.3426  -18.8492   20.4364 O   0  0  0  0  0  0  0  0  0  0  0  0
    9.5762  -18.2119   21.1013 C   0  0  0  0  0  0  0  0  0  0  0  0
    9.1902  -16.8677   21.7136 C   0  0  2  0  0  0  0  0  0  0  0  0
    9.3541  -15.8003   20.7492 N   0  0  0  0  0  0  0  0  0  0  0  0
    9.9892  -16.5841   22.9248 C   0  0  0  0  0  0  0  0  0  0  0  0
   11.2246  -16.4209   22.7880 O   0  0  0  0  0  0  0  0  0  0  0  0
    8.6988  -13.4467   28.1907 N   0  0  0  0  0  0  0  0  0  0  0  0
    9.9426  -14.0713   28.4821 C   0  0  0  0  0  0  0  0  0  0  0  0
   10.4821  -13.7959   29.5734 O   0  0  0  0  0  0  0  0  0  0  0  0
   10.5027  -14.9868   27.4906 C   0  0  0  0  0  0  0  0  0  0  0  0
    9.6313  -15.3159   26.3372 C   0  0  0  0  0  0  0  0  0  0  0  0
   10.3104  -16.1535   25.3278 C   0  0  2  0  0  0  0  0  0  0  0  0
    9.4035  -16.4935   24.2117 N   0  0  0  0  0  0  0  0  0  0  0  0
   10.9888  -17.3479   25.8270 C   0  0  0  0  0  0  0  0  0  0  0  0
   12.2337  -17.3194   26.1303 O   0  0  0  0  0  0  0  0  0  0  0  0
   10.3931  -18.5800   26.0203 O   0  0  0  0  0  0  0  0  0  0  0  0
  2  1  1  0
  3  2  1  0
  4  3  1  0
  4  5  1  0
  5  6  1  1
  5  1  1  0
  6  7  2  0
  9  8  1  0
 10  9  2  0
 11  9  1  0
 12 11  1  6
 13 12  1  0
 13  6  1  0
 14 12  1  0
 14 15  2  0
 16 17  1  0
 17 19  1  0
 18 17  2  0
 19 20  1  0
 21 20  1  1
 21 22  1  0
 21 23  1  0
 22 14  1  0
 23 24  2  0
 23 25  1  0
M  END
$$$$
