PNQ.pdb
     RDKit          3D

 25 25  0  0  1  0  0  0  0  0999 V2000
    9.1123  -16.7761   15.3261 N   0  0  0  0  0  0  0  0  0  0  0  0
    8.2386  -16.4655   14.2077 C   0  0  0  0  0  0  0  0  0  0  0  0
    8.3073  -14.9333   14.2558 C   0  0  0  0  0  0  0  0  0  0  0  0
    9.8311  -14.7659   14.2940 C   0  0  0  0  0  0  0  0  0  0  0  0
   10.2224  -15.8538   15.2726 C   0  0  1  0  0  0  0  0  0  0  0  0
   10.4620  -15.1987   16.5843 C   0  0  0  0  0  0  0  0  0  0  0  0
   11.4572  -14.4206   16.7451 O   0  0  0  0  0  0  0  0  0  0  0  0
    7.4558  -12.3177   19.2437 N   0  0  0  0  0  0  0  0  0  0  0  0
    7.5484  -13.6950   18.9092 C   0  0  0  0  0  0  0  0  0  0  0  0
    6.8414  -14.1151   17.9614 O   0  0  0  0  0  0  0  0  0  0  0  0
    8.4687  -14.5546   19.6922 C   0  0  0  0  0  0  0  0  0  0  0  0
    9.8021  -14.7085   18.9648 C   0  0  2  0  0  0  0  0  0  0  0  0
    9.6202  -15.3943   17.7027 N   0  0  0  0  0  0  0  0  0  0  0  0
   10.7843  -15.4333   19.7989 C   0  0  0  0  0  0  0  0  0  0  0  0
   10.6383  -16.6708   19.9357 O   0  0  0  0  0  0  0  0  0  0  0  0
   16.8810  -16.0496   19.1325 N   0  0  0  0  0  0  0  0  0  0  0  0
   16.0126  -14.9873   19.5060 C   0  0  0  0  0  0  0  0  0  0  0  0
   16.5109  -13.8478   19.6113 O   0  0  0  0  0  0  0  0  0  0  0  0
   14.6046  -15.2990   19.7412 C   0  0  0  0  0  0  0  0  0  0  0  0
   14.1500  -15.2517   21.1515 C   0  0  0  0  0  0  0  0  0  0  0  0
   12.7245  -15.6060   21.3053 C   0  0  2  0  0  0  0  0  0  0  0  0
   11.8661  -14.7756   20.4349 N   0  0  0  0  0  0  0  0  0  0  0  0
   12.2068  -15.6314   22.6718 C   0  0  0  0  0  0  0  0  0  0  0  0
   11.2241  -14.8847   23.0174 O   0  0  0  0  0  0  0  0  0  0  0  0
   12.6932  -16.4255   23.6932 O   0  0  0  0  0  0  0  0  0  0  0  0
  2  1  1  0
  3  2  1  0
  4  3  1  0
  4  5  1  0
  5  6  1  1
  5  1  1  0
  6  7  2  0
  9  8  1  0
 10  9  2  0
 11  9  1  0
 12 11  1  1
 13 12  1  0
 13  6  1  0
 14 12  1  0
 14 15  2  0
 16 17  1  0
 17 19  1  0
 18 17  2  0
 19 20  1  0
 21 20  1  1
 21 22  1  0
 21 23  1  0
 22 14  1  0
 23 24  2  0
 23 25  1  0
M  END
$$$$
