SRR.pdb
     RDKit          3D

 29 28  0  0  1  0  0  0  0  0999 V2000
    9.8264  -17.8830   14.9238 O   0  0  0  0  0  0  0  0  0  0  0  0
    8.6780  -17.1471   14.6801 C   0  0  0  0  0  0  0  0  0  0  0  0
    9.0168  -15.6723   14.7298 C   0  0  2  0  0  0  0  0  0  0  0  0
    9.7974  -15.2854   13.5828 N   0  0  0  0  0  0  0  0  0  0  0  0
    9.7018  -15.3976   16.0195 C   0  0  0  0  0  0  0  0  0  0  0  0
   10.9544  -15.4313   16.0240 O   0  0  0  0  0  0  0  0  0  0  0  0
    7.7480  -12.2970   23.8438 N   0  0  0  0  0  0  0  0  0  0  0  0
    7.5224  -13.1363   22.7258 C   0  0  0  0  0  0  0  0  0  0  0  0
    7.6216  -14.4085   22.8776 N   0  0  0  0  0  0  0  0  0  0  0  0
    7.1947  -12.6223   21.4512 N   0  0  0  0  0  0  0  0  0  0  0  0
    6.7958  -13.5297   20.4031 C   0  0  0  0  0  0  0  0  0  0  0  0
    7.8752  -13.5350   19.3505 C   0  0  0  0  0  0  0  0  0  0  0  0
    8.7690  -14.7176   19.5688 C   0  0  0  0  0  0  0  0  0  0  0  0
    9.7276  -14.9090   18.4699 C   0  0  2  0  0  0  0  0  0  0  0  0
    9.0258  -15.1048   17.2239 N   0  0  0  0  0  0  0  0  0  0  0  0
   10.6483  -16.0529   18.6544 C   0  0  0  0  0  0  0  0  0  0  0  0
   10.9561  -16.7450   17.6658 O   0  0  0  0  0  0  0  0  0  0  0  0
    7.4829  -15.0848   22.0980 N   0  0  0  0  0  0  0  0  0  0  0  0
   15.1624  -15.3771   16.2172 C   0  0  0  0  0  0  0  0  0  0  0  0
   16.2872  -14.7393   16.7946 N   0  0  0  0  0  0  0  0  0  0  0  0
   17.4294  -14.9499   16.2009 N   0  0  0  0  0  0  0  0  0  0  0  0
   16.2111  -13.9235   17.9346 C   0  0  0  0  0  0  0  0  0  0  0  0
   14.9139  -13.7778   18.6293 C   0  0  0  0  0  0  0  0  0  0  0  0
   14.3645  -15.1188   18.9638 C   0  0  0  0  0  0  0  0  0  0  0  0
   13.1483  -15.0302   19.8174 C   0  0  2  0  0  0  0  0  0  0  0  0
   12.5441  -16.3002   20.2987 N   0  0  0  0  0  0  0  0  0  0  0  0
   11.1394  -16.3104   19.9490 C   0  0  0  0  0  0  0  0  0  0  0  0
   12.7308  -16.6504   21.7138 O   0  0  0  0  0  0  0  0  0  0  0  0
   12.0326  -16.1448   22.6600 O   0  0  0  0  0  0  0  0  0  0  0  0
  2  1  1  0
  3  4  1  6
  3  2  1  0
  5  3  1  0
  6  5  2  0
  7  8  1  0
  8  9  2  0
 10  8  1  0
 11 10  1  0
 12 11  1  0
 12 13  1  0
 14 15  1  0
 14 13  1  1
 15  5  1  0
 16 14  1  0
 17 16  2  0
 18 19  1  0
 19 20  2  0
 19 21  1  0
 21 22  1  0
 23 22  1  0
 24 23  1  0
 25 24  1  6
 25 26  1  0
 26 16  1  0
 27 29  1  0
 27 25  1  0
 28 27  2  0
M  END
$$$$
