SRR.pdb
     RDKit          3D

 29 28  0  0  1  0  0  0  0  0999 V2000
    8.7722  -22.4301   19.4276 O   0  0  0  0  0  0  0  0  0  0  0  0
    7.5456  -21.7866   19.3937 C   0  0  0  0  0  0  0  0  0  0  0  0
    7.6350  -20.6027   18.4541 C   0  0  2  0  0  0  0  0  0  0  0  0
    8.3535  -20.9512   17.2554 N   0  0  0  0  0  0  0  0  0  0  0  0
    8.2506  -19.4701   19.1932 C   0  0  0  0  0  0  0  0  0  0  0  0
    9.4817  -19.2889   19.0463 O   0  0  0  0  0  0  0  0  0  0  0  0
    8.8121  -11.4485   19.9104 N   0  0  0  0  0  0  0  0  0  0  0  0
    8.0724  -12.6106   20.2387 C   0  0  0  0  0  0  0  0  0  0  0  0
    7.7398  -13.4186   19.2964 N   0  0  0  0  0  0  0  0  0  0  0  0
    7.6869  -12.9093   21.5646 N   0  0  0  0  0  0  0  0  0  0  0  0
    6.9851  -14.1397   21.8377 C   0  0  0  0  0  0  0  0  0  0  0  0
    7.9632  -15.2788   21.7005 C   0  0  0  0  0  0  0  0  0  0  0  0
    7.3132  -16.3966   20.9435 C   0  0  0  0  0  0  0  0  0  0  0  0
    8.1852  -17.5744   20.8198 C   0  0  2  0  0  0  0  0  0  0  0  0
    7.5321  -18.5992   20.0409 N   0  0  0  0  0  0  0  0  0  0  0  0
    8.5870  -18.1757   22.1110 C   0  0  0  0  0  0  0  0  0  0  0  0
    8.0376  -19.2298   22.4825 O   0  0  0  0  0  0  0  0  0  0  0  0
    7.2322  -14.3114   19.4682 N   0  0  0  0  0  0  0  0  0  0  0  0
   15.3466  -21.8956   20.3847 C   0  0  0  0  0  0  0  0  0  0  0  0
   14.9476  -22.3640   21.6601 N   0  0  0  0  0  0  0  0  0  0  0  0
   15.3771  -23.5500   21.9923 N   0  0  0  0  0  0  0  0  0  0  0  0
   14.1409  -21.6218   22.5373 C   0  0  0  0  0  0  0  0  0  0  0  0
   13.0817  -20.7537   21.9796 C   0  0  0  0  0  0  0  0  0  0  0  0
   12.4474  -19.9643   23.0688 C   0  0  0  0  0  0  0  0  0  0  0  0
   11.3731  -19.0682   22.5603 C   0  0  2  0  0  0  0  0  0  0  0  0
   10.6620  -18.2097   23.5436 N   0  0  0  0  0  0  0  0  0  0  0  0
    9.5801  -17.5248   22.8684 C   0  0  0  0  0  0  0  0  0  0  0  0
   11.4664  -17.2640   24.3300 O   0  0  0  0  0  0  0  0  0  0  0  0
   11.7610  -16.0863   23.9241 O   0  0  0  0  0  0  0  0  0  0  0  0
  2  1  1  0
  3  4  1  6
  3  2  1  0
  5  3  1  0
  6  5  2  0
  7  8  1  0
  8  9  2  0
 10  8  1  0
 11 10  1  0
 12 11  1  0
 12 13  1  0
 14 15  1  0
 14 13  1  1
 15  5  1  0
 16 14  1  0
 17 16  2  0
 18 19  1  0
 19 20  2  0
 19 21  1  0
 21 22  1  0
 23 22  1  0
 24 23  1  0
 25 24  1  1
 25 26  1  0
 26 16  1  0
 27 29  1  0
 27 25  1  0
 28 27  2  0
M  END
$$$$
