SRR.pdb
     RDKit          3D

 29 28  0  0  1  0  0  0  0  0999 V2000
    2.5399  -20.0811   19.8533 O   0  0  0  0  0  0  0  0  0  0  0  0
    3.8404  -19.7966   20.2375 C   0  0  0  0  0  0  0  0  0  0  0  0
    3.8111  -18.9759   21.5096 C   0  0  2  0  0  0  0  0  0  0  0  0
    2.6588  -18.1122   21.5373 N   0  0  0  0  0  0  0  0  0  0  0  0
    5.0957  -18.2362   21.6133 C   0  0  0  0  0  0  0  0  0  0  0  0
    6.1499  -18.9134   21.6255 O   0  0  0  0  0  0  0  0  0  0  0  0
    8.4261  -12.6948   17.7457 N   0  0  0  0  0  0  0  0  0  0  0  0
    8.3680  -13.9747   18.3487 C   0  0  0  0  0  0  0  0  0  0  0  0
    8.8698  -14.9774   17.7208 N   0  0  0  0  0  0  0  0  0  0  0  0
    7.7762  -14.1857   19.6141 N   0  0  0  0  0  0  0  0  0  0  0  0
    8.2430  -13.4278   20.7493 C   0  0  0  0  0  0  0  0  0  0  0  0
    7.5490  -13.9513   21.9811 C   0  0  0  0  0  0  0  0  0  0  0  0
    6.3439  -14.7404   21.5685 C   0  0  0  0  0  0  0  0  0  0  0  0
    6.4443  -16.1588   21.9440 C   0  0  2  0  0  0  0  0  0  0  0  0
    5.1904  -16.8301   21.6980 N   0  0  0  0  0  0  0  0  0  0  0  0
    6.8117  -16.3921   23.3585 C   0  0  0  0  0  0  0  0  0  0  0  0
    6.0156  -16.0496   24.2529 O   0  0  0  0  0  0  0  0  0  0  0  0
    8.8716  -15.9445   18.1069 N   0  0  0  0  0  0  0  0  0  0  0  0
    7.5074  -23.3134   27.7902 C   0  0  0  0  0  0  0  0  0  0  0  0
    8.5908  -22.5865   28.3408 N   0  0  0  0  0  0  0  0  0  0  0  0
    9.2753  -23.1977   29.2678 N   0  0  0  0  0  0  0  0  0  0  0  0
    8.9339  -21.2870   27.9352 C   0  0  0  0  0  0  0  0  0  0  0  0
    8.3728  -20.7555   26.6746 C   0  0  0  0  0  0  0  0  0  0  0  0
    8.7392  -19.3223   26.5211 C   0  0  0  0  0  0  0  0  0  0  0  0
    8.2646  -18.7567   25.2286 C   0  0  1  0  0  0  0  0  0  0  0  0
    8.5216  -17.3166   24.9649 N   0  0  0  0  0  0  0  0  0  0  0  0
    8.0543  -16.9956   23.6330 C   0  0  0  0  0  0  0  0  0  0  0  0
    9.8892  -16.8196   25.1707 O   0  0  0  0  0  0  0  0  0  0  0  0
   10.3083  -16.3604   26.2897 O   0  0  0  0  0  0  0  0  0  0  0  0
  2  1  1  0
  3  4  1  6
  3  2  1  0
  5  3  1  0
  6  5  2  0
  7  8  1  0
  8  9  2  0
 10  8  1  0
 11 10  1  0
 12 11  1  0
 12 13  1  0
 14 15  1  0
 14 13  1  1
 15  5  1  0
 16 14  1  0
 17 16  2  0
 18 19  1  0
 19 20  2  0
 19 21  1  0
 21 22  1  0
 23 22  1  0
 24 23  1  0
 25 24  1  1
 25 26  1  0
 26 16  1  0
 27 29  1  0
 27 25  1  0
 28 27  2  0
M  END
$$$$
