SRR.pdb
     RDKit          3D

 29 28  0  0  1  0  0  0  0  0999 V2000
    7.0102  -19.5377   24.1002 O   0  0  0  0  0  0  0  0  0  0  0  0
    5.7278  -19.0861   23.8330 C   0  0  0  0  0  0  0  0  0  0  0  0
    5.5101  -19.0759   22.3347 C   0  0  2  0  0  0  0  0  0  0  0  0
    5.4976  -20.4165   21.8082 N   0  0  0  0  0  0  0  0  0  0  0  0
    6.5571  -18.2190   21.7202 C   0  0  0  0  0  0  0  0  0  0  0  0
    7.6219  -18.7766   21.3663 O   0  0  0  0  0  0  0  0  0  0  0  0
    9.6922  -12.8527   17.4444 N   0  0  0  0  0  0  0  0  0  0  0  0
    8.3499  -13.1315   17.0899 C   0  0  0  0  0  0  0  0  0  0  0  0
    8.0846  -13.4469   15.8727 N   0  0  0  0  0  0  0  0  0  0  0  0
    7.2948  -13.0726   18.0276 N   0  0  0  0  0  0  0  0  0  0  0  0
    7.5717  -12.6526   19.3796 C   0  0  0  0  0  0  0  0  0  0  0  0
    8.1542  -13.8259   20.1260 C   0  0  0  0  0  0  0  0  0  0  0  0
    7.0412  -14.7158   20.5888 C   0  0  0  0  0  0  0  0  0  0  0  0
    7.5294  -15.9957   21.1241 C   0  0  2  0  0  0  0  0  0  0  0  0
    6.4181  -16.8288   21.5169 N   0  0  0  0  0  0  0  0  0  0  0  0
    8.4312  -15.8663   22.2903 C   0  0  0  0  0  0  0  0  0  0  0  0
    7.9821  -15.3914   23.3504 O   0  0  0  0  0  0  0  0  0  0  0  0
    7.1157  -13.6112   15.5282 N   0  0  0  0  0  0  0  0  0  0  0  0
   10.8787  -21.3293   28.1352 C   0  0  0  0  0  0  0  0  0  0  0  0
   11.9235  -20.6063   27.5100 N   0  0  0  0  0  0  0  0  0  0  0  0
   13.0446  -20.5357   28.1731 N   0  0  0  0  0  0  0  0  0  0  0  0
   11.7934  -19.9927   26.2540 C   0  0  0  0  0  0  0  0  0  0  0  0
   10.7081  -19.0110   26.0424 C   0  0  0  0  0  0  0  0  0  0  0  0
   11.2162  -17.8553   25.2562 C   0  0  0  0  0  0  0  0  0  0  0  0
   10.3014  -17.4898   24.1402 C   0  0  1  0  0  0  0  0  0  0  0  0
   10.7091  -16.3753   23.2451 N   0  0  0  0  0  0  0  0  0  0  0  0
    9.7673  -16.2888   22.1491 C   0  0  0  0  0  0  0  0  0  0  0  0
   12.0911  -16.3731   22.7453 O   0  0  0  0  0  0  0  0  0  0  0  0
   13.1002  -16.0718   23.4730 O   0  0  0  0  0  0  0  0  0  0  0  0
  2  1  1  0
  3  4  1  6
  3  2  1  0
  5  3  1  0
  6  5  2  0
  7  8  1  0
  8  9  2  0
 10  8  1  0
 11 10  1  0
 12 11  1  0
 12 13  1  0
 14 15  1  0
 14 13  1  1
 15  5  1  0
 16 14  1  0
 17 16  2  0
 18 19  1  0
 19 20  2  0
 19 21  1  0
 21 22  1  0
 23 22  1  0
 24 23  1  0
 25 24  1  1
 25 26  1  0
 26 16  1  0
 27 29  1  0
 27 25  1  0
 28 27  2  0
M  END
$$$$
