SRR.pdb
     RDKit          3D

 29 28  0  0  1  0  0  0  0  0999 V2000
    7.5128  -15.8188   18.0807 O   0  0  0  0  0  0  0  0  0  0  0  0
    8.0856  -14.5954   17.7728 C   0  0  0  0  0  0  0  0  0  0  0  0
    7.8242  -13.6281   18.9079 C   0  0  2  0  0  0  0  0  0  0  0  0
    8.1937  -12.2867   18.5353 N   0  0  0  0  0  0  0  0  0  0  0  0
    8.5473  -14.1184   20.1100 C   0  0  0  0  0  0  0  0  0  0  0  0
    9.7832  -13.9177   20.1594 O   0  0  0  0  0  0  0  0  0  0  0  0
    9.3155  -18.8935   27.9078 N   0  0  0  0  0  0  0  0  0  0  0  0
    8.2290  -18.3844   27.1558 C   0  0  0  0  0  0  0  0  0  0  0  0
    7.3202  -19.1989   26.7531 N   0  0  0  0  0  0  0  0  0  0  0  0
    8.1123  -17.0141   26.8324 N   0  0  0  0  0  0  0  0  0  0  0  0
    7.4143  -16.6271   25.6306 C   0  0  0  0  0  0  0  0  0  0  0  0
    8.4336  -16.1433   24.6306 C   0  0  0  0  0  0  0  0  0  0  0  0
    7.7323  -15.7415   23.3690 C   0  0  0  0  0  0  0  0  0  0  0  0
    8.6550  -15.1993   22.3603 C   0  0  2  0  0  0  0  0  0  0  0  0
    7.9246  -14.7893   21.1848 N   0  0  0  0  0  0  0  0  0  0  0  0
    9.7119  -16.1415   21.9295 C   0  0  0  0  0  0  0  0  0  0  0  0
    9.6161  -16.6865   20.8139 O   0  0  0  0  0  0  0  0  0  0  0  0
    6.5624  -18.9220   26.0948 N   0  0  0  0  0  0  0  0  0  0  0  0
   14.6700  -14.3370   16.6355 C   0  0  0  0  0  0  0  0  0  0  0  0
   15.1459  -13.9812   17.9209 N   0  0  0  0  0  0  0  0  0  0  0  0
   16.4001  -13.6293   17.9876 N   0  0  0  0  0  0  0  0  0  0  0  0
   14.3427  -13.9948   19.0723 C   0  0  0  0  0  0  0  0  0  0  0  0
   14.5376  -15.0664   20.0724 C   0  0  0  0  0  0  0  0  0  0  0  0
   13.2919  -15.8678   20.2062 C   0  0  0  0  0  0  0  0  0  0  0  0
   12.5104  -15.4929   21.4163 C   0  0  2  0  0  0  0  0  0  0  0  0
   12.1563  -16.5716   22.3757 N   0  0  0  0  0  0  0  0  0  0  0  0
   10.7874  -16.3820   22.8065 C   0  0  0  0  0  0  0  0  0  0  0  0
   13.0423  -16.7743   23.5307 O   0  0  0  0  0  0  0  0  0  0  0  0
   12.8507  -16.2193   24.6681 O   0  0  0  0  0  0  0  0  0  0  0  0
  2  1  1  0
  3  4  1  6
  3  2  1  0
  5  3  1  0
  6  5  2  0
  7  8  1  0
  8  9  2  0
 10  8  1  0
 11 10  1  0
 12 11  1  0
 12 13  1  0
 14 15  1  0
 14 13  1  1
 15  5  1  0
 16 14  1  0
 17 16  2  0
 18 19  1  0
 19 20  2  0
 19 21  1  0
 21 22  1  0
 23 22  1  0
 24 23  1  0
 25 24  1  6
 25 26  1  0
 26 16  1  0
 27 29  1  0
 27 25  1  0
 28 27  2  0
M  END
$$$$
