SRR.pdb
     RDKit          3D

 29 28  0  0  1  0  0  0  0  0999 V2000
    7.3654  -19.7710   26.7506 O   0  0  0  0  0  0  0  0  0  0  0  0
    6.4152  -18.9656   26.1437 C   0  0  0  0  0  0  0  0  0  0  0  0
    6.4173  -19.2360   24.6540 C   0  0  2  0  0  0  0  0  0  0  0  0
    6.3924  -20.6515   24.3888 N   0  0  0  0  0  0  0  0  0  0  0  0
    7.5965  -18.5534   24.0609 C   0  0  0  0  0  0  0  0  0  0  0  0
    8.5912  -19.2623   23.7818 O   0  0  0  0  0  0  0  0  0  0  0  0
    6.9134  -12.4218   19.1620 N   0  0  0  0  0  0  0  0  0  0  0  0
    7.5027  -13.5048   18.4656 C   0  0  0  0  0  0  0  0  0  0  0  0
    7.2491  -13.6463   17.2138 N   0  0  0  0  0  0  0  0  0  0  0  0
    8.3567  -14.4341   19.1005 N   0  0  0  0  0  0  0  0  0  0  0  0
    8.7150  -14.2362   20.4838 C   0  0  0  0  0  0  0  0  0  0  0  0
    8.0529  -15.3174   21.2998 C   0  0  0  0  0  0  0  0  0  0  0  0
    8.5217  -15.2185   22.7194 C   0  0  0  0  0  0  0  0  0  0  0  0
    8.8493  -16.5310   23.2966 C   0  0  2  0  0  0  0  0  0  0  0  0
    7.6550  -17.1674   23.7990 N   0  0  0  0  0  0  0  0  0  0  0  0
    9.8346  -16.4848   24.3999 C   0  0  0  0  0  0  0  0  0  0  0  0
    9.4783  -16.0444   25.5089 O   0  0  0  0  0  0  0  0  0  0  0  0
    7.6967  -14.3786   16.6241 N   0  0  0  0  0  0  0  0  0  0  0  0
   12.6231  -21.5575   29.9386 C   0  0  0  0  0  0  0  0  0  0  0  0
   13.4622  -20.4363   30.1485 N   0  0  0  0  0  0  0  0  0  0  0  0
   14.1639  -20.4468   31.2480 N   0  0  0  0  0  0  0  0  0  0  0  0
   13.5569  -19.3637   29.2476 C   0  0  0  0  0  0  0  0  0  0  0  0
   12.5264  -19.2132   28.1979 C   0  0  0  0  0  0  0  0  0  0  0  0
   12.9476  -18.1756   27.2191 C   0  0  0  0  0  0  0  0  0  0  0  0
   11.9399  -17.9785   26.1414 C   0  0  1  0  0  0  0  0  0  0  0  0
   12.2092  -16.9302   25.1226 N   0  0  0  0  0  0  0  0  0  0  0  0
   11.1414  -16.9442   24.1452 C   0  0  0  0  0  0  0  0  0  0  0  0
   13.5212  -16.9442   24.4605 O   0  0  0  0  0  0  0  0  0  0  0  0
   14.6280  -16.8302   25.0933 O   0  0  0  0  0  0  0  0  0  0  0  0
  2  1  1  0
  3  4  1  1
  3  2  1  0
  5  3  1  0
  6  5  2  0
  7  8  1  0
  8  9  2  0
 10  8  1  0
 11 10  1  0
 12 11  1  0
 12 13  1  0
 14 15  1  0
 14 13  1  1
 15  5  1  0
 16 14  1  0
 17 16  2  0
 18 19  1  0
 19 20  2  0
 19 21  1  0
 21 22  1  0
 23 22  1  0
 24 23  1  0
 25 24  1  1
 25 26  1  0
 26 16  1  0
 27 29  1  0
 27 25  1  0
 28 27  2  0
M  END
$$$$
