SRR.pdb
     RDKit          3D

 29 28  0  0  1  0  0  0  0  0999 V2000
   15.7631  -17.8301   19.3598 O   0  0  0  0  0  0  0  0  0  0  0  0
   14.9574  -17.0439   18.5521 C   0  0  0  0  0  0  0  0  0  0  0  0
   13.7848  -17.8713   18.0694 C   0  0  2  0  0  0  0  0  0  0  0  0
   12.9816  -17.1273   17.1335 N   0  0  0  0  0  0  0  0  0  0  0  0
   13.0197  -18.3283   19.2585 C   0  0  0  0  0  0  0  0  0  0  0  0
   12.1875  -17.5299   19.7485 O   0  0  0  0  0  0  0  0  0  0  0  0
    8.4607  -24.5404   23.7824 N   0  0  0  0  0  0  0  0  0  0  0  0
    9.8443  -24.2598   23.6717 C   0  0  0  0  0  0  0  0  0  0  0  0
   10.5628  -24.2619   24.7372 N   0  0  0  0  0  0  0  0  0  0  0  0
   10.4592  -23.9763   22.4318 N   0  0  0  0  0  0  0  0  0  0  0  0
   11.8104  -23.4713   22.4106 C   0  0  0  0  0  0  0  0  0  0  0  0
   11.7484  -21.9656   22.3648 C   0  0  0  0  0  0  0  0  0  0  0  0
   12.4287  -21.4832   21.1200 C   0  0  0  0  0  0  0  0  0  0  0  0
   12.3788  -20.0198   20.9824 C   0  0  2  0  0  0  0  0  0  0  0  0
   13.1784  -19.5967   19.8576 N   0  0  0  0  0  0  0  0  0  0  0  0
   12.8469  -19.2775   22.1740 C   0  0  0  0  0  0  0  0  0  0  0  0
   14.0458  -18.9487   22.2474 O   0  0  0  0  0  0  0  0  0  0  0  0
   11.5869  -24.0735   24.7304 N   0  0  0  0  0  0  0  0  0  0  0  0
    8.0749  -13.6367   26.9179 C   0  0  0  0  0  0  0  0  0  0  0  0
    9.2506  -13.8426   27.6798 N   0  0  0  0  0  0  0  0  0  0  0  0
    9.4030  -13.0639   28.7152 N   0  0  0  0  0  0  0  0  0  0  0  0
   10.2119  -14.8169   27.3676 C   0  0  0  0  0  0  0  0  0  0  0  0
   10.0142  -15.6652   26.1727 C   0  0  0  0  0  0  0  0  0  0  0  0
   11.1836  -16.5661   25.9914 C   0  0  0  0  0  0  0  0  0  0  0  0
   11.0931  -17.3574   24.7339 C   0  0  1  0  0  0  0  0  0  0  0  0
   12.2296  -18.2533   24.3942 N   0  0  0  0  0  0  0  0  0  0  0  0
   11.9092  -18.9733   23.1799 C   0  0  0  0  0  0  0  0  0  0  0  0
   12.7060  -19.1746   25.4354 O   0  0  0  0  0  0  0  0  0  0  0  0
   13.4548  -18.8090   26.4071 O   0  0  0  0  0  0  0  0  0  0  0  0
  2  1  1  0
  3  4  1  6
  3  2  1  0
  5  3  1  0
  6  5  2  0
  7  8  1  0
  8  9  2  0
 10  8  1  0
 11 10  1  0
 12 11  1  0
 12 13  1  0
 14 15  1  0
 14 13  1  1
 15  5  1  0
 16 14  1  0
 17 16  2  0
 18 19  1  0
 19 20  2  0
 19 21  1  0
 21 22  1  0
 23 22  1  0
 24 23  1  0
 25 24  1  6
 25 26  1  0
 26 16  1  0
 27 29  1  0
 27 25  1  0
 28 27  2  0
M  END
$$$$
