SRR.pdb
     RDKit          3D

 29 28  0  0  1  0  0  0  0  0999 V2000
   15.3780  -26.8187   27.7037 O   0  0  0  0  0  0  0  0  0  0  0  0
   14.7163  -27.5812   28.6526 C   0  0  0  0  0  0  0  0  0  0  0  0
   13.2233  -27.4515   28.4368 C   0  0  2  0  0  0  0  0  0  0  0  0
   12.8638  -27.8267   27.0935 N   0  0  0  0  0  0  0  0  0  0  0  0
   12.8249  -26.0614   28.7792 C   0  0  0  0  0  0  0  0  0  0  0  0
   12.8753  -25.2068   27.8642 O   0  0  0  0  0  0  0  0  0  0  0  0
    8.5094  -28.2318   31.1314 N   0  0  0  0  0  0  0  0  0  0  0  0
    8.2253  -27.7559   32.4345 C   0  0  0  0  0  0  0  0  0  0  0  0
    7.9753  -28.6082   33.3632 N   0  0  0  0  0  0  0  0  0  0  0  0
    8.2058  -26.3781   32.7463 N   0  0  0  0  0  0  0  0  0  0  0  0
    8.5476  -25.4165   31.7267 C   0  0  0  0  0  0  0  0  0  0  0  0
   10.0499  -25.3735   31.6064 C   0  0  0  0  0  0  0  0  0  0  0  0
   10.4299  -24.3892   30.5426 C   0  0  0  0  0  0  0  0  0  0  0  0
   11.8826  -24.3343   30.3197 C   0  0  2  0  0  0  0  0  0  0  0  0
   12.3985  -25.6577   30.0631 N   0  0  0  0  0  0  0  0  0  0  0  0
   12.6525  -23.7598   31.4455 C   0  0  0  0  0  0  0  0  0  0  0  0
   12.8100  -24.4391   32.4773 O   0  0  0  0  0  0  0  0  0  0  0  0
    7.8024  -28.3338   34.3527 N   0  0  0  0  0  0  0  0  0  0  0  0
   17.9863  -20.2024   27.4759 C   0  0  0  0  0  0  0  0  0  0  0  0
   18.5583  -20.5046   28.7356 N   0  0  0  0  0  0  0  0  0  0  0  0
   19.8094  -20.8731   28.7203 N   0  0  0  0  0  0  0  0  0  0  0  0
   17.8499  -20.4216   29.9448 C   0  0  0  0  0  0  0  0  0  0  0  0
   16.4015  -20.1255   29.9108 C   0  0  0  0  0  0  0  0  0  0  0  0
   15.6415  -21.2392   30.5385 C   0  0  0  0  0  0  0  0  0  0  0  0
   14.8227  -20.7792   31.6934 C   0  0  2  0  0  0  0  0  0  0  0  0
   13.9112  -21.7633   32.3337 N   0  0  0  0  0  0  0  0  0  0  0  0
   13.1768  -22.4608   31.2994 C   0  0  0  0  0  0  0  0  0  0  0  0
   13.0004  -21.2706   33.3766 O   0  0  0  0  0  0  0  0  0  0  0  0
   13.4048  -20.7943   34.4938 O   0  0  0  0  0  0  0  0  0  0  0  0
  2  1  1  0
  3  4  1  6
  3  2  1  0
  5  3  1  0
  6  5  2  0
  7  8  1  0
  8  9  2  0
 10  8  1  0
 11 10  1  0
 12 11  1  0
 12 13  1  0
 14 15  1  0
 14 13  1  1
 15  5  1  0
 16 14  1  0
 17 16  2  0
 18 19  1  0
 19 20  2  0
 19 21  1  0
 21 22  1  0
 23 22  1  0
 24 23  1  0
 25 24  1  6
 25 26  1  0
 26 16  1  0
 27 29  1  0
 27 25  1  0
 28 27  2  0
M  END
$$$$
