SRR.pdb
     RDKit          3D

 29 28  0  0  1  0  0  0  0  0999 V2000
    9.5842  -17.4558   18.1610 O   0  0  0  0  0  0  0  0  0  0  0  0
    9.1430  -18.0604   19.3270 C   0  0  0  0  0  0  0  0  0  0  0  0
    7.6852  -17.7127   19.5424 C   0  0  2  0  0  0  0  0  0  0  0  0
    7.3141  -16.5539   18.7716 N   0  0  0  0  0  0  0  0  0  0  0  0
    7.4614  -17.5376   21.0010 C   0  0  0  0  0  0  0  0  0  0  0  0
    7.5297  -16.3727   21.4576 O   0  0  0  0  0  0  0  0  0  0  0  0
    8.0105  -23.1688   21.9832 N   0  0  0  0  0  0  0  0  0  0  0  0
    6.9135  -23.7390   22.6737 C   0  0  0  0  0  0  0  0  0  0  0  0
    7.0274  -24.9321   23.1373 N   0  0  0  0  0  0  0  0  0  0  0  0
    5.7000  -23.0420   22.8677 N   0  0  0  0  0  0  0  0  0  0  0  0
    5.6752  -21.8927   23.7392 C   0  0  0  0  0  0  0  0  0  0  0  0
    6.4249  -20.7735   23.0621 C   0  0  0  0  0  0  0  0  0  0  0  0
    6.3658  -19.5498   23.9246 C   0  0  0  0  0  0  0  0  0  0  0  0
    7.0367  -18.3946   23.3095 C   0  0  2  0  0  0  0  0  0  0  0  0
    7.1798  -18.5994   21.8878 N   0  0  0  0  0  0  0  0  0  0  0  0
    8.3786  -18.1021   23.8610 C   0  0  0  0  0  0  0  0  0  0  0  0
    9.3047  -17.8211   23.0772 O   0  0  0  0  0  0  0  0  0  0  0  0
    6.2981  -25.3822   23.7290 N   0  0  0  0  0  0  0  0  0  0  0  0
    6.4536  -10.8878   25.6219 C   0  0  0  0  0  0  0  0  0  0  0  0
    6.6544  -11.4007   26.9265 N   0  0  0  0  0  0  0  0  0  0  0  0
    6.1924  -10.6707   27.9038 N   0  0  0  0  0  0  0  0  0  0  0  0
    7.3056  -12.6171   27.1858 C   0  0  0  0  0  0  0  0  0  0  0  0
    7.7790  -13.4359   26.0491 C   0  0  0  0  0  0  0  0  0  0  0  0
    8.5360  -14.6128   26.5527 C   0  0  0  0  0  0  0  0  0  0  0  0
    8.2417  -15.8456   25.7721 C   0  0  1  0  0  0  0  0  0  0  0  0
    9.0570  -17.0564   26.0531 N   0  0  0  0  0  0  0  0  0  0  0  0
    8.5504  -18.1548   25.2578 C   0  0  0  0  0  0  0  0  0  0  0  0
    9.2159  -17.4602   27.4572 O   0  0  0  0  0  0  0  0  0  0  0  0
    9.8713  -16.7728   28.3154 O   0  0  0  0  0  0  0  0  0  0  0  0
  2  1  1  0
  3  4  1  6
  3  2  1  0
  5  3  1  0
  6  5  2  0
  7  8  1  0
  8  9  2  0
 10  8  1  0
 11 10  1  0
 12 11  1  0
 12 13  1  0
 14 15  1  0
 14 13  1  1
 15  5  1  0
 16 14  1  0
 17 16  2  0
 18 19  1  0
 19 20  2  0
 19 21  1  0
 21 22  1  0
 23 22  1  0
 24 23  1  0
 25 24  1  6
 25 26  1  0
 26 16  1  0
 27 29  1  0
 27 25  1  0
 28 27  2  0
M  END
$$$$
