SRR.pdb
     RDKit          3D

 29 28  0  0  1  0  0  0  0  0999 V2000
   10.5801  -21.0634   19.7542 O   0  0  0  0  0  0  0  0  0  0  0  0
    9.3203  -20.8079   19.2369 C   0  0  0  0  0  0  0  0  0  0  0  0
    9.3668  -19.5245   18.4351 C   0  0  2  0  0  0  0  0  0  0  0  0
   10.4056  -19.5784   17.4388 N   0  0  0  0  0  0  0  0  0  0  0  0
    9.5277  -18.3915   19.3830 C   0  0  0  0  0  0  0  0  0  0  0  0
   10.6026  -17.7494   19.3346 O   0  0  0  0  0  0  0  0  0  0  0  0
    8.1101  -13.3615   17.8563 N   0  0  0  0  0  0  0  0  0  0  0  0
    7.8677  -12.9800   19.1982 C   0  0  0  0  0  0  0  0  0  0  0  0
    8.0435  -11.7519   19.5334 N   0  0  0  0  0  0  0  0  0  0  0  0
    7.4417  -13.9031   20.1792 N   0  0  0  0  0  0  0  0  0  0  0  0
    8.0684  -13.8952   21.4785 C   0  0  0  0  0  0  0  0  0  0  0  0
    7.4747  -15.0163   22.2932 C   0  0  0  0  0  0  0  0  0  0  0  0
    7.3791  -16.2455   21.4419 C   0  0  0  0  0  0  0  0  0  0  0  0
    8.6961  -16.8306   21.1482 C   0  0  2  0  0  0  0  0  0  0  0  0
    8.5475  -18.0054   20.3228 N   0  0  0  0  0  0  0  0  0  0  0  0
    9.4747  -17.2158   22.3463 C   0  0  0  0  0  0  0  0  0  0  0  0
    9.0823  -18.1741   23.0383 O   0  0  0  0  0  0  0  0  0  0  0  0
    8.0951  -11.4368   20.5245 N   0  0  0  0  0  0  0  0  0  0  0  0
   10.4279  -15.5483   30.3500 C   0  0  0  0  0  0  0  0  0  0  0  0
   10.2372  -14.6682   29.2571 N   0  0  0  0  0  0  0  0  0  0  0  0
    9.2268  -13.8491   29.3539 N   0  0  0  0  0  0  0  0  0  0  0  0
   11.0674  -14.6523   28.1250 C   0  0  0  0  0  0  0  0  0  0  0  0
   11.0347  -15.7999   27.1932 C   0  0  0  0  0  0  0  0  0  0  0  0
   11.9680  -15.5599   26.0603 C   0  0  0  0  0  0  0  0  0  0  0  0
   11.2633  -15.5270   24.7496 C   0  0  1  0  0  0  0  0  0  0  0  0
   11.4381  -16.6881   23.8381 N   0  0  0  0  0  0  0  0  0  0  0  0
   10.6335  -16.4766   22.6535 C   0  0  0  0  0  0  0  0  0  0  0  0
   11.2072  -18.0299   24.3916 O   0  0  0  0  0  0  0  0  0  0  0  0
   10.0444  -18.5542   24.4992 O   0  0  0  0  0  0  0  0  0  0  0  0
  2  1  1  0
  3  4  1  6
  3  2  1  0
  5  3  1  0
  6  5  2  0
  7  8  1  0
  8  9  2  0
 10  8  1  0
 11 10  1  0
 12 11  1  0
 12 13  1  0
 14 15  1  0
 14 13  1  1
 15  5  1  0
 16 14  1  0
 17 16  2  0
 18 19  1  0
 19 20  2  0
 19 21  1  0
 21 22  1  0
 23 22  1  0
 24 23  1  0
 25 24  1  6
 25 26  1  0
 26 16  1  0
 27 29  1  0
 27 25  1  0
 28 27  2  0
M  END
$$$$
