SRR.pdb
     RDKit          3D

 29 28  0  0  1  0  0  0  0  0999 V2000
   13.4791  -21.9185   20.1240 O   0  0  0  0  0  0  0  0  0  0  0  0
   12.1069  -21.9036   19.9328 C   0  0  0  0  0  0  0  0  0  0  0  0
   11.7735  -20.9293   18.8229 C   0  0  2  0  0  0  0  0  0  0  0  0
   12.7067  -21.0534   17.7328 N   0  0  0  0  0  0  0  0  0  0  0  0
   11.7348  -19.5618   19.4031 C   0  0  0  0  0  0  0  0  0  0  0  0
   12.6884  -18.7952   19.1327 O   0  0  0  0  0  0  0  0  0  0  0  0
    6.1438  -13.4972   21.5113 N   0  0  0  0  0  0  0  0  0  0  0  0
    7.0992  -12.9407   20.6266 C   0  0  0  0  0  0  0  0  0  0  0  0
    7.1609  -11.6627   20.5074 N   0  0  0  0  0  0  0  0  0  0  0  0
    7.9834  -13.7424   19.8706 N   0  0  0  0  0  0  0  0  0  0  0  0
    7.9272  -15.1777   20.0038 C   0  0  0  0  0  0  0  0  0  0  0  0
    9.3383  -15.6933   20.1312 C   0  0  0  0  0  0  0  0  0  0  0  0
    9.3001  -17.1574   20.4469 C   0  0  0  0  0  0  0  0  0  0  0  0
   10.6394  -17.7171   20.6841 C   0  0  2  0  0  0  0  0  0  0  0  0
   10.6952  -19.0867   20.2317 N   0  0  0  0  0  0  0  0  0  0  0  0
   11.0708  -17.6911   22.0995 C   0  0  0  0  0  0  0  0  0  0  0  0
   10.8073  -18.6659   22.8285 O   0  0  0  0  0  0  0  0  0  0  0  0
    7.8396  -11.1843   19.8791 N   0  0  0  0  0  0  0  0  0  0  0  0
    6.3807  -16.0362   25.0516 C   0  0  0  0  0  0  0  0  0  0  0  0
    6.6778  -17.3550   24.6301 N   0  0  0  0  0  0  0  0  0  0  0  0
    5.7404  -17.9636   23.9574 N   0  0  0  0  0  0  0  0  0  0  0  0
    7.8967  -17.9961   24.9021 C   0  0  0  0  0  0  0  0  0  0  0  0
    8.9135  -17.2932   25.7137 C   0  0  0  0  0  0  0  0  0  0  0  0
    9.8110  -16.5036   24.8289 C   0  0  0  0  0  0  0  0  0  0  0  0
   11.2054  -17.0245   24.8348 C   0  0  2  0  0  0  0  0  0  0  0  0
   12.1931  -16.3743   23.9341 N   0  0  0  0  0  0  0  0  0  0  0  0
   11.7654  -16.5571   22.5632 C   0  0  0  0  0  0  0  0  0  0  0  0
   13.6066  -16.7445   24.0921 O   0  0  0  0  0  0  0  0  0  0  0  0
   14.3322  -17.1720   23.1281 O   0  0  0  0  0  0  0  0  0  0  0  0
  2  1  1  0
  3  4  1  6
  3  2  1  0
  5  3  1  0
  6  5  2  0
  7  8  1  0
  8  9  2  0
 10  8  1  0
 11 10  1  0
 12 11  1  0
 12 13  1  0
 14 15  1  0
 14 13  1  1
 15  5  1  0
 16 14  1  0
 17 16  2  0
 18 19  1  0
 19 20  2  0
 19 21  1  0
 21 22  1  0
 23 22  1  0
 24 23  1  0
 25 24  1  1
 25 26  1  0
 26 16  1  0
 27 29  1  0
 27 25  1  0
 28 27  2  0
M  END
$$$$
