DMA.pdb
     RDKit          3D

 22 21  0  0  1  0  0  0  0  0999 V2000
   21.2053  -13.8217  -16.8287 N   0  0  0  0  0  0  0  0  0  0  0  0
   21.0162  -12.5659  -17.5180 C   0  0  1  0  0  0  0  0  0  0  0  0
   19.6355  -12.5754  -18.1408 C   0  0  0  0  0  0  0  0  0  0  0  0
   19.5880  -13.5949  -19.2049 C   0  0  0  0  0  0  0  0  0  0  0  0
   18.7470  -14.5208  -19.1149 O   0  0  0  0  0  0  0  0  0  0  0  0
   21.1237  -11.4086  -16.5958 C   0  0  0  0  0  0  0  0  0  0  0  0
   20.4993  -11.3605  -15.5124 O   0  0  0  0  0  0  0  0  0  0  0  0
   20.4538  -13.5171  -20.2657 O   0  0  0  0  0  0  0  0  0  0  0  0
   26.5752  -10.3068  -16.1360 C   0  0  0  0  0  0  0  0  0  0  0  0
   25.8500   -9.9777  -14.5088 S   0  0  0  0  0  0  0  0  0  0  0  0
   24.0206  -10.0807  -14.5913 C   0  0  0  0  0  0  0  0  0  0  0  0
   23.6073   -9.1343  -15.7006 C   0  0  0  0  0  0  0  0  0  0  0  0
   22.1235   -9.1818  -15.9923 C   0  0  2  0  0  0  0  0  0  0  0  0
   21.9514  -10.3074  -16.9234 N   0  0  0  0  0  0  0  0  0  0  0  0
   21.6045   -7.9592  -16.6221 C   0  0  0  0  0  0  0  0  0  0  0  0
   21.9868   -7.6094  -17.7502 O   0  0  0  0  0  0  0  0  0  0  0  0
   18.6812   -5.8062  -16.1843 C   0  0  0  0  0  0  0  0  0  0  0  0
   20.1300   -5.9780  -16.5868 C   0  0  2  0  0  0  0  0  0  0  0  0
   20.6543   -7.1582  -15.9448 N   0  0  0  0  0  0  0  0  0  0  0  0
   20.8444   -4.7437  -16.1240 C   0  0  0  0  0  0  0  0  0  0  0  0
   20.4998   -3.5444  -16.7297 O   0  0  0  0  0  0  0  0  0  0  0  0
   21.7174   -4.7759  -15.2301 O   0  0  0  0  0  0  0  0  0  0  0  0
  2  1  1  1
  3  4  1  0
  3  2  1  0
  4  5  2  0
  6  7  2  0
  6  2  1  0
  8  4  1  0
  9 10  1  0
 11 10  1  0
 11 12  1  0
 13 12  1  6
 13 14  1  0
 13 15  1  0
 14  6  1  0
 15 19  1  0
 16 15  2  0
 18 17  1  1
 18 20  1  0
 19 18  1  0
 20 22  2  0
 20 21  1  0
M  END
$$$$
