DMA.pdb
     RDKit          3D

 22 21  0  0  1  0  0  0  0  0999 V2000
   22.3340  -10.6988  -19.7319 N   0  0  0  0  0  0  0  0  0  0  0  0
   22.8821   -9.4801  -19.1822 C   0  0  1  0  0  0  0  0  0  0  0  0
   23.1681   -8.5342  -20.3301 C   0  0  0  0  0  0  0  0  0  0  0  0
   24.2269   -9.1071  -21.1814 C   0  0  0  0  0  0  0  0  0  0  0  0
   25.1528   -9.7545  -20.6373 O   0  0  0  0  0  0  0  0  0  0  0  0
   21.9403   -8.8273  -18.2396 C   0  0  0  0  0  0  0  0  0  0  0  0
   20.7040   -8.8190  -18.4330 O   0  0  0  0  0  0  0  0  0  0  0  0
   24.1846   -8.9262  -22.5403 O   0  0  0  0  0  0  0  0  0  0  0  0
   19.8565   -9.0689  -11.0219 C   0  0  0  0  0  0  0  0  0  0  0  0
   20.7913   -9.4986  -12.5129 S   0  0  0  0  0  0  0  0  0  0  0  0
   20.6607   -8.1582  -13.7582 C   0  0  0  0  0  0  0  0  0  0  0  0
   21.5712   -8.5688  -14.8980 C   0  0  0  0  0  0  0  0  0  0  0  0
   21.5019   -7.6226  -16.0766 C   0  0  2  0  0  0  0  0  0  0  0  0
   22.4247   -8.1847  -17.0746 N   0  0  0  0  0  0  0  0  0  0  0  0
   21.9218   -6.2502  -15.7595 C   0  0  0  0  0  0  0  0  0  0  0  0
   23.1038   -5.9912  -15.4818 O   0  0  0  0  0  0  0  0  0  0  0  0
   20.2777   -2.8980  -15.8329 C   0  0  0  0  0  0  0  0  0  0  0  0
   21.4111   -3.8468  -15.5075 C   0  0  2  0  0  0  0  0  0  0  0  0
   20.9760   -5.1972  -15.7666 N   0  0  0  0  0  0  0  0  0  0  0  0
   21.7248   -3.6451  -14.0553 C   0  0  0  0  0  0  0  0  0  0  0  0
   21.3997   -4.6753  -13.1852 O   0  0  0  0  0  0  0  0  0  0  0  0
   22.2573   -2.5979  -13.6287 O   0  0  0  0  0  0  0  0  0  0  0  0
  2  1  1  6
  3  4  1  0
  3  2  1  0
  4  5  2  0
  6  7  2  0
  6  2  1  0
  8  4  1  0
  9 10  1  0
 11 10  1  0
 11 12  1  0
 13 12  1  1
 13 14  1  0
 13 15  1  0
 14  6  1  0
 15 19  1  0
 16 15  2  0
 18 17  1  1
 18 20  1  0
 19 18  1  0
 20 22  2  0
 20 21  1  0
M  END
$$$$
