DMA.pdb
     RDKit          3D

 22 21  0  0  1  0  0  0  0  0999 V2000
   18.4450  -12.7846  -16.4816 N   0  0  0  0  0  0  0  0  0  0  0  0
   18.7204  -11.4325  -16.9102 C   0  0  1  0  0  0  0  0  0  0  0  0
   17.3963  -10.7282  -17.1221 C   0  0  0  0  0  0  0  0  0  0  0  0
   16.6607  -11.3918  -18.2142 C   0  0  0  0  0  0  0  0  0  0  0  0
   15.4461  -11.6561  -18.0486 O   0  0  0  0  0  0  0  0  0  0  0  0
   19.5112  -10.6843  -15.9021 C   0  0  0  0  0  0  0  0  0  0  0  0
   19.1216  -10.5436  -14.7213 O   0  0  0  0  0  0  0  0  0  0  0  0
   17.3075  -11.7067  -19.3819 O   0  0  0  0  0  0  0  0  0  0  0  0
   26.1416   -9.6746  -16.5006 C   0  0  0  0  0  0  0  0  0  0  0  0
   25.5674  -10.0959  -14.8348 S   0  0  0  0  0  0  0  0  0  0  0  0
   23.9616   -9.2807  -14.4867 C   0  0  0  0  0  0  0  0  0  0  0  0
   22.9581   -9.9433  -15.4091 C   0  0  0  0  0  0  0  0  0  0  0  0
   21.5624   -9.3776  -15.2639 C   0  0  2  0  0  0  0  0  0  0  0  0
   20.7509  -10.0989  -16.2562 N   0  0  0  0  0  0  0  0  0  0  0  0
   21.4768   -7.9356  -15.5362 C   0  0  0  0  0  0  0  0  0  0  0  0
   21.8036   -7.4731  -16.6409 O   0  0  0  0  0  0  0  0  0  0  0  0
   19.7315   -5.0190  -14.4437 C   0  0  0  0  0  0  0  0  0  0  0  0
   21.0824   -5.6251  -14.7574 C   0  0  2  0  0  0  0  0  0  0  0  0
   21.0167   -7.0484  -14.5340 N   0  0  0  0  0  0  0  0  0  0  0  0
   22.0621   -4.9729  -13.8286 C   0  0  0  0  0  0  0  0  0  0  0  0
   22.3718   -3.6414  -14.0634 O   0  0  0  0  0  0  0  0  0  0  0  0
   22.5878   -5.5888  -12.8765 O   0  0  0  0  0  0  0  0  0  0  0  0
  2  1  1  1
  3  4  1  0
  3  2  1  0
  4  5  2  0
  6  7  2  0
  6  2  1  0
  8  4  1  0
  9 10  1  0
 11 10  1  0
 11 12  1  0
 13 12  1  6
 13 14  1  0
 13 15  1  0
 14  6  1  0
 15 19  1  0
 16 15  2  0
 18 17  1  1
 18 20  1  0
 19 18  1  0
 20 22  2  0
 20 21  1  0
M  END
$$$$
