DMA.pdb
     RDKit          3D

 22 21  0  0  1  0  0  0  0  0999 V2000
   19.9549  -12.7211  -17.3018 N   0  0  0  0  0  0  0  0  0  0  0  0
   20.0516  -11.3236  -17.6562 C   0  0  1  0  0  0  0  0  0  0  0  0
   18.6671  -10.7174  -17.5580 C   0  0  0  0  0  0  0  0  0  0  0  0
   17.8691  -11.1331  -18.7260 C   0  0  0  0  0  0  0  0  0  0  0  0
   16.6575  -10.8128  -18.7726 O   0  0  0  0  0  0  0  0  0  0  0  0
   20.9684  -10.5871  -16.7515 C   0  0  0  0  0  0  0  0  0  0  0  0
   20.8887  -10.6771  -15.5059 O   0  0  0  0  0  0  0  0  0  0  0  0
   18.4560  -11.8556  -19.7333 O   0  0  0  0  0  0  0  0  0  0  0  0
   26.9912  -11.0304  -15.9660 C   0  0  0  0  0  0  0  0  0  0  0  0
   25.9948   -9.7426  -15.1718 S   0  0  0  0  0  0  0  0  0  0  0  0
   25.4193   -8.5221  -16.4142 C   0  0  0  0  0  0  0  0  0  0  0  0
   24.2764   -9.1940  -17.1486 C   0  0  0  0  0  0  0  0  0  0  0  0
   22.9606   -9.0919  -16.4087 C   0  0  2  0  0  0  0  0  0  0  0  0
   21.9766   -9.7473  -17.2836 N   0  0  0  0  0  0  0  0  0  0  0  0
   22.5284   -7.7096  -16.1574 C   0  0  0  0  0  0  0  0  0  0  0  0
   22.2113   -6.9587  -17.0937 O   0  0  0  0  0  0  0  0  0  0  0  0
   21.7444   -5.6814  -13.1275 C   0  0  0  0  0  0  0  0  0  0  0  0
   22.0436   -5.8539  -14.6011 C   0  0  2  0  0  0  0  0  0  0  0  0
   22.4678   -7.2126  -14.8335 N   0  0  0  0  0  0  0  0  0  0  0  0
   23.1360   -4.8796  -14.9254 C   0  0  0  0  0  0  0  0  0  0  0  0
   22.8001   -3.5342  -14.9560 O   0  0  0  0  0  0  0  0  0  0  0  0
   24.3071   -5.2472  -15.1614 O   0  0  0  0  0  0  0  0  0  0  0  0
  2  1  1  1
  3  4  1  0
  3  2  1  0
  4  5  2  0
  6  7  2  0
  6  2  1  0
  8  4  1  0
  9 10  1  0
 11 10  1  0
 11 12  1  0
 13 12  1  6
 13 14  1  0
 13 15  1  0
 14  6  1  0
 15 19  1  0
 16 15  2  0
 18 17  1  1
 18 20  1  0
 19 18  1  0
 20 22  2  0
 20 21  1  0
M  END
$$$$
