DMA.pdb
     RDKit          3D

 22 21  0  0  1  0  0  0  0  0999 V2000
   27.8426  -21.1026  -16.2354 N   0  0  0  0  0  0  0  0  0  0  0  0
   27.0063  -22.2668  -16.4174 C   0  0  1  0  0  0  0  0  0  0  0  0
   27.9028  -23.4870  -16.4594 C   0  0  0  0  0  0  0  0  0  0  0  0
   28.6999  -23.4636  -17.6996 C   0  0  0  0  0  0  0  0  0  0  0  0
   28.9067  -24.5433  -18.3030 O   0  0  0  0  0  0  0  0  0  0  0  0
   26.0283  -22.4220  -15.3125 C   0  0  0  0  0  0  0  0  0  0  0  0
   25.2180  -23.3746  -15.2697 O   0  0  0  0  0  0  0  0  0  0  0  0
   29.1980  -22.2756  -18.1702 O   0  0  0  0  0  0  0  0  0  0  0  0
   25.2982  -20.5651   -7.7212 C   0  0  0  0  0  0  0  0  0  0  0  0
   26.1648  -20.6273   -9.3108 S   0  0  0  0  0  0  0  0  0  0  0  0
   25.0248  -21.1739  -10.6397 C   0  0  0  0  0  0  0  0  0  0  0  0
   25.8430  -21.1516  -11.9152 C   0  0  0  0  0  0  0  0  0  0  0  0
   25.0732  -21.6540  -13.1170 C   0  0  2  0  0  0  0  0  0  0  0  0
   25.9853  -21.4785  -14.2576 N   0  0  0  0  0  0  0  0  0  0  0  0
   23.8335  -20.9092  -13.3796 C   0  0  0  0  0  0  0  0  0  0  0  0
   23.8579  -19.6914  -13.6194 O   0  0  0  0  0  0  0  0  0  0  0  0
   20.3199  -21.8443  -14.1200 C   0  0  0  0  0  0  0  0  0  0  0  0
   21.3857  -20.8531  -13.7050 C   0  0  2  0  0  0  0  0  0  0  0  0
   22.5854  -21.5765  -13.3622 N   0  0  0  0  0  0  0  0  0  0  0  0
   20.8369  -20.1166  -12.5201 C   0  0  0  0  0  0  0  0  0  0  0  0
   20.0438  -19.0068  -12.7723 O   0  0  0  0  0  0  0  0  0  0  0  0
   21.0741  -20.4739  -11.3461 O   0  0  0  0  0  0  0  0  0  0  0  0
  2  1  1  1
  3  4  1  0
  3  2  1  0
  4  5  2  0
  6  7  2  0
  6  2  1  0
  8  4  1  0
  9 10  1  0
 11 10  1  0
 11 12  1  0
 13 12  1  1
 13 14  1  0
 13 15  1  0
 14  6  1  0
 15 19  1  0
 16 15  2  0
 18 17  1  1
 18 20  1  0
 19 18  1  0
 20 22  2  0
 20 21  1  0
M  END
$$$$
