DMA.pdb
     RDKit          3D

 22 21  0  0  1  0  0  0  0  0999 V2000
   19.4903  -11.9517  -17.0518 N   0  0  0  0  0  0  0  0  0  0  0  0
   19.8659  -10.6485  -17.5503 C   0  0  1  0  0  0  0  0  0  0  0  0
   18.7089  -10.1052  -18.3629 C   0  0  0  0  0  0  0  0  0  0  0  0
   18.6638  -10.7925  -19.6666 C   0  0  0  0  0  0  0  0  0  0  0  0
   19.6659  -11.4498  -20.0358 O   0  0  0  0  0  0  0  0  0  0  0  0
   20.1703   -9.7028  -16.4482 C   0  0  0  0  0  0  0  0  0  0  0  0
   19.4003   -9.5455  -15.4745 O   0  0  0  0  0  0  0  0  0  0  0  0
   17.5400  -10.7043  -20.4478 O   0  0  0  0  0  0  0  0  0  0  0  0
   26.6450  -10.3691  -15.3667 C   0  0  0  0  0  0  0  0  0  0  0  0
   25.2435   -9.7370  -14.4085 S   0  0  0  0  0  0  0  0  0  0  0  0
   23.9096   -9.1632  -15.5291 C   0  0  0  0  0  0  0  0  0  0  0  0
   22.8163   -8.6309  -14.6245 C   0  0  0  0  0  0  0  0  0  0  0  0
   21.6784   -7.9918  -15.3899 C   0  0  2  0  0  0  0  0  0  0  0  0
   21.3625   -8.9392  -16.4697 N   0  0  0  0  0  0  0  0  0  0  0  0
   22.0205   -6.6909  -15.9826 C   0  0  0  0  0  0  0  0  0  0  0  0
   22.7655   -6.6156  -16.9727 O   0  0  0  0  0  0  0  0  0  0  0  0
   20.9139   -3.1682  -15.5261 C   0  0  0  0  0  0  0  0  0  0  0  0
   21.9027   -4.2238  -15.9720 C   0  0  2  0  0  0  0  0  0  0  0  0
   21.5006   -5.4973  -15.4274 N   0  0  0  0  0  0  0  0  0  0  0  0
   23.2386   -3.8010  -15.4387 C   0  0  0  0  0  0  0  0  0  0  0  0
   23.7884   -4.5664  -14.4208 O   0  0  0  0  0  0  0  0  0  0  0  0
   23.8461   -2.8025  -15.8814 O   0  0  0  0  0  0  0  0  0  0  0  0
  2  1  1  1
  3  4  1  0
  3  2  1  0
  4  5  2  0
  6  7  2  0
  6  2  1  0
  8  4  1  0
  9 10  1  0
 11 10  1  0
 11 12  1  0
 13 12  1  6
 13 14  1  0
 13 15  1  0
 14  6  1  0
 15 19  1  0
 16 15  2  0
 18 17  1  1
 18 20  1  0
 19 18  1  0
 20 22  2  0
 20 21  1  0
M  END
$$$$
