DMA.pdb
     RDKit          3D

 22 21  0  0  1  0  0  0  0  0999 V2000
   28.0788  -21.3494  -16.3444 N   0  0  0  0  0  0  0  0  0  0  0  0
   27.5001  -20.3672  -15.4566 C   0  0  1  0  0  0  0  0  0  0  0  0
   26.8076  -19.3193  -16.3032 C   0  0  0  0  0  0  0  0  0  0  0  0
   27.8220  -18.5117  -17.0052 C   0  0  0  0  0  0  0  0  0  0  0  0
   27.8122  -18.4899  -18.2590 O   0  0  0  0  0  0  0  0  0  0  0  0
   26.5112  -20.9739  -14.5318 C   0  0  0  0  0  0  0  0  0  0  0  0
   25.8526  -21.9933  -14.8370 O   0  0  0  0  0  0  0  0  0  0  0  0
   28.7508  -17.8042  -16.2857 O   0  0  0  0  0  0  0  0  0  0  0  0
   25.3858  -20.3828   -7.6676 C   0  0  0  0  0  0  0  0  0  0  0  0
   26.9150  -20.7412   -8.5702 S   0  0  0  0  0  0  0  0  0  0  0  0
   26.5361  -21.5249  -10.1846 C   0  0  0  0  0  0  0  0  0  0  0  0
   25.7245  -20.5028  -10.9549 C   0  0  0  0  0  0  0  0  0  0  0  0
   25.3077  -20.9932  -12.3242 C   0  0  2  0  0  0  0  0  0  0  0  0
   26.2823  -20.4050  -13.2556 N   0  0  0  0  0  0  0  0  0  0  0  0
   23.9565  -20.5698  -12.7187 C   0  0  0  0  0  0  0  0  0  0  0  0
   23.6741  -19.3674  -12.8430 O   0  0  0  0  0  0  0  0  0  0  0  0
   21.0579  -22.1847  -14.2950 C   0  0  0  0  0  0  0  0  0  0  0  0
   21.6466  -21.1098  -13.4069 C   0  0  2  0  0  0  0  0  0  0  0  0
   22.9514  -21.5357  -12.9639 N   0  0  0  0  0  0  0  0  0  0  0  0
   20.7033  -20.9551  -12.2519 C   0  0  0  0  0  0  0  0  0  0  0  0
   21.1282  -21.4217  -11.0166 O   0  0  0  0  0  0  0  0  0  0  0  0
   19.5763  -20.4297  -12.3788 O   0  0  0  0  0  0  0  0  0  0  0  0
  2  1  1  6
  3  4  1  0
  3  2  1  0
  4  5  2  0
  6  7  2  0
  6  2  1  0
  8  4  1  0
  9 10  1  0
 11 10  1  0
 11 12  1  0
 13 12  1  1
 13 14  1  0
 13 15  1  0
 14  6  1  0
 15 19  1  0
 16 15  2  0
 18 17  1  6
 18 20  1  0
 19 18  1  0
 20 22  2  0
 20 21  1  0
M  END
$$$$
