DMA.pdb
     RDKit          3D

 22 21  0  0  1  0  0  0  0  0999 V2000
   16.8658  -10.9172  -18.0566 N   0  0  0  0  0  0  0  0  0  0  0  0
   17.4441   -9.6074  -18.2509 C   0  0  1  0  0  0  0  0  0  0  0  0
   16.3236   -8.5890  -18.2126 C   0  0  0  0  0  0  0  0  0  0  0  0
   15.4885   -8.7376  -19.4186 C   0  0  0  0  0  0  0  0  0  0  0  0
   16.0509   -8.9631  -20.5165 O   0  0  0  0  0  0  0  0  0  0  0  0
   18.4337   -9.2789  -17.1953 C   0  0  0  0  0  0  0  0  0  0  0  0
   18.2589   -9.5957  -15.9974 O   0  0  0  0  0  0  0  0  0  0  0  0
   14.1246   -8.6285  -19.3238 O   0  0  0  0  0  0  0  0  0  0  0  0
   24.2550  -10.4278  -13.8202 C   0  0  0  0  0  0  0  0  0  0  0  0
   22.9032  -10.4266  -15.0263 S   0  0  0  0  0  0  0  0  0  0  0  0
   23.1190   -9.0573  -16.2274 C   0  0  0  0  0  0  0  0  0  0  0  0
   21.9016   -9.1081  -17.1286 C   0  0  0  0  0  0  0  0  0  0  0  0
   20.6985   -8.4110  -16.5322 C   0  0  2  0  0  0  0  0  0  0  0  0
   19.6243   -8.5856  -17.5217 N   0  0  0  0  0  0  0  0  0  0  0  0
   20.9022   -6.9741  -16.2989 C   0  0  0  0  0  0  0  0  0  0  0  0
   21.2031   -6.2114  -17.2310 O   0  0  0  0  0  0  0  0  0  0  0  0
   20.2678   -4.6380  -13.4798 C   0  0  0  0  0  0  0  0  0  0  0  0
   20.9254   -5.0199  -14.7885 C   0  0  2  0  0  0  0  0  0  0  0  0
   20.7568   -6.4369  -14.9975 N   0  0  0  0  0  0  0  0  0  0  0  0
   22.3740   -4.6583  -14.6527 C   0  0  0  0  0  0  0  0  0  0  0  0
   22.7510   -3.3830  -15.0469 O   0  0  0  0  0  0  0  0  0  0  0  0
   23.2210   -5.4608  -14.2046 O   0  0  0  0  0  0  0  0  0  0  0  0
  2  1  1  1
  3  4  1  0
  3  2  1  0
  4  5  2  0
  6  7  2  0
  6  2  1  0
  8  4  1  0
  9 10  1  0
 11 10  1  0
 11 12  1  0
 13 12  1  6
 13 14  1  0
 13 15  1  0
 14  6  1  0
 15 19  1  0
 16 15  2  0
 18 17  1  1
 18 20  1  0
 19 18  1  0
 20 22  2  0
 20 21  1  0
M  END
$$$$
