DMA.pdb
     RDKit          3D

 22 21  0  0  1  0  0  0  0  0999 V2000
   19.7796  -12.8252  -17.4201 N   0  0  0  0  0  0  0  0  0  0  0  0
   20.0073  -11.4379  -17.7538 C   0  0  1  0  0  0  0  0  0  0  0  0
   18.6599  -10.7761  -17.9550 C   0  0  0  0  0  0  0  0  0  0  0  0
   18.0203  -11.3301  -19.1625 C   0  0  0  0  0  0  0  0  0  0  0  0
   18.6071  -11.2093  -20.2641 O   0  0  0  0  0  0  0  0  0  0  0  0
   20.7415  -10.7253  -16.6793 C   0  0  0  0  0  0  0  0  0  0  0  0
   20.4072  -10.8089  -15.4763 O   0  0  0  0  0  0  0  0  0  0  0  0
   16.8071  -11.9622  -19.0650 O   0  0  0  0  0  0  0  0  0  0  0  0
   26.7430  -11.2183  -14.6735 C   0  0  0  0  0  0  0  0  0  0  0  0
   26.6323   -9.5892  -15.4581 S   0  0  0  0  0  0  0  0  0  0  0  0
   24.9735   -8.8572  -15.1807 C   0  0  0  0  0  0  0  0  0  0  0  0
   24.0353   -9.6090  -16.1034 C   0  0  0  0  0  0  0  0  0  0  0  0
   22.5907   -9.1886  -15.9436 C   0  0  2  0  0  0  0  0  0  0  0  0
   21.8608   -9.9167  -16.9927 N   0  0  0  0  0  0  0  0  0  0  0  0
   22.3704   -7.7465  -16.1235 C   0  0  0  0  0  0  0  0  0  0  0  0
   22.6880   -7.1782  -17.1806 O   0  0  0  0  0  0  0  0  0  0  0  0
   20.3805   -5.1415  -14.4420 C   0  0  0  0  0  0  0  0  0  0  0  0
   21.5665   -5.5688  -15.2795 C   0  0  2  0  0  0  0  0  0  0  0  0
   21.7886   -6.9805  -15.0852 N   0  0  0  0  0  0  0  0  0  0  0  0
   22.7347   -4.7625  -14.7967 C   0  0  0  0  0  0  0  0  0  0  0  0
   22.7272   -3.4033  -15.0731 O   0  0  0  0  0  0  0  0  0  0  0  0
   23.6851   -5.2778  -14.1694 O   0  0  0  0  0  0  0  0  0  0  0  0
  2  1  1  1
  3  4  1  0
  3  2  1  0
  4  5  2  0
  6  7  2  0
  6  2  1  0
  8  4  1  0
  9 10  1  0
 11 10  1  0
 11 12  1  0
 13 12  1  6
 13 14  1  0
 13 15  1  0
 14  6  1  0
 15 19  1  0
 16 15  2  0
 18 17  1  1
 18 20  1  0
 19 18  1  0
 20 22  2  0
 20 21  1  0
M  END
$$$$
