DMA.pdb
     RDKit          3D

 22 21  0  0  1  0  0  0  0  0999 V2000
   22.6463  -12.2015  -18.7806 N   0  0  0  0  0  0  0  0  0  0  0  0
   21.5250  -11.8513  -17.9393 C   0  0  1  0  0  0  0  0  0  0  0  0
   20.9839  -13.1252  -17.3238 C   0  0  0  0  0  0  0  0  0  0  0  0
   20.4448  -13.9903  -18.3892 C   0  0  0  0  0  0  0  0  0  0  0  0
   19.8999  -15.0730  -18.0677 O   0  0  0  0  0  0  0  0  0  0  0  0
   21.9189  -10.9186  -16.8547 C   0  0  0  0  0  0  0  0  0  0  0  0
   21.1958  -10.7191  -15.8531 O   0  0  0  0  0  0  0  0  0  0  0  0
   20.5457  -13.6034  -19.7011 O   0  0  0  0  0  0  0  0  0  0  0  0
   28.1651  -12.1353  -14.7283 C   0  0  0  0  0  0  0  0  0  0  0  0
   27.4163  -10.6518  -15.4498 S   0  0  0  0  0  0  0  0  0  0  0  0
   25.5868  -10.7547  -15.3685 C   0  0  0  0  0  0  0  0  0  0  0  0
   25.0804   -9.4015  -15.8261 C   0  0  0  0  0  0  0  0  0  0  0  0
   23.5700   -9.3139  -15.8444 C   0  0  2  0  0  0  0  0  0  0  0  0
   23.1464  -10.2164  -16.9258 N   0  0  0  0  0  0  0  0  0  0  0  0
   23.0587   -7.9642  -16.1228 C   0  0  0  0  0  0  0  0  0  0  0  0
   23.2922   -7.4027  -17.2051 O   0  0  0  0  0  0  0  0  0  0  0  0
   20.6373   -5.6337  -14.5679 C   0  0  0  0  0  0  0  0  0  0  0  0
   21.8663   -5.9248  -15.4020 C   0  0  2  0  0  0  0  0  0  0  0  0
   22.2871   -7.2815  -15.1523 N   0  0  0  0  0  0  0  0  0  0  0  0
   22.9119   -4.9419  -14.9678 C   0  0  0  0  0  0  0  0  0  0  0  0
   24.0488   -5.4507  -14.3574 O   0  0  0  0  0  0  0  0  0  0  0  0
   22.7809   -3.7110  -15.1409 O   0  0  0  0  0  0  0  0  0  0  0  0
  2  1  1  1
  3  4  1  0
  3  2  1  0
  4  5  2  0
  6  7  2  0
  6  2  1  0
  8  4  1  0
  9 10  1  0
 11 10  1  0
 11 12  1  0
 13 12  1  6
 13 14  1  0
 13 15  1  0
 14  6  1  0
 15 19  1  0
 16 15  2  0
 18 17  1  1
 18 20  1  0
 19 18  1  0
 20 22  2  0
 20 21  1  0
M  END
$$$$
