DMA.pdb
     RDKit          3D

 22 21  0  0  1  0  0  0  0  0999 V2000
   20.4277  -12.0346  -17.7899 N   0  0  0  0  0  0  0  0  0  0  0  0
   19.9649  -11.8400  -16.4349 C   0  0  1  0  0  0  0  0  0  0  0  0
   19.8220  -13.2019  -15.7875 C   0  0  0  0  0  0  0  0  0  0  0  0
   18.7699  -13.9646  -16.4842 C   0  0  0  0  0  0  0  0  0  0  0  0
   19.1055  -14.9382  -17.1998 O   0  0  0  0  0  0  0  0  0  0  0  0
   20.9141  -11.0227  -15.6396 C   0  0  0  0  0  0  0  0  0  0  0  0
   20.7035  -10.7377  -14.4395 O   0  0  0  0  0  0  0  0  0  0  0  0
   17.4547  -13.6029  -16.3414 O   0  0  0  0  0  0  0  0  0  0  0  0
   26.9645  -11.8350  -16.3675 C   0  0  0  0  0  0  0  0  0  0  0  0
   27.1016  -10.0445  -16.1288 S   0  0  0  0  0  0  0  0  0  0  0  0
   25.5724   -9.3825  -15.3623 C   0  0  0  0  0  0  0  0  0  0  0  0
   24.4333  -10.1740  -15.9728 C   0  0  0  0  0  0  0  0  0  0  0  0
   23.0779   -9.7568  -15.4456 C   0  0  2  0  0  0  0  0  0  0  0  0
   22.1056  -10.5346  -16.2286 N   0  0  0  0  0  0  0  0  0  0  0  0
   22.7911   -8.3253  -15.6168 C   0  0  0  0  0  0  0  0  0  0  0  0
   23.3789   -7.4697  -14.9360 O   0  0  0  0  0  0  0  0  0  0  0  0
   20.8626   -6.2666  -18.0403 C   0  0  0  0  0  0  0  0  0  0  0  0
   21.5416   -6.4948  -16.7069 C   0  0  2  0  0  0  0  0  0  0  0  0
   21.8330   -7.9004  -16.5680 N   0  0  0  0  0  0  0  0  0  0  0  0
   20.5748   -6.0330  -15.6581 C   0  0  0  0  0  0  0  0  0  0  0  0
   20.5860   -4.6849  -15.3320 O   0  0  0  0  0  0  0  0  0  0  0  0
   19.7841   -6.8171  -15.0906 O   0  0  0  0  0  0  0  0  0  0  0  0
  2  1  1  6
  3  4  1  0
  3  2  1  0
  4  5  2  0
  6  7  2  0
  6  2  1  0
  8  4  1  0
  9 10  1  0
 11 10  1  0
 11 12  1  0
 13 12  1  6
 13 14  1  0
 13 15  1  0
 14  6  1  0
 15 19  1  0
 16 15  2  0
 18 17  1  6
 18 20  1  0
 19 18  1  0
 20 22  2  0
 20 21  1  0
M  END
$$$$
