DMA.pdb
     RDKit          3D

 22 21  0  0  1  0  0  0  0  0999 V2000
   27.5736  -22.0428   12.3662 N   0  0  0  0  0  0  0  0  0  0  0  0
   28.8925  -21.4541   12.3252 C   0  0  1  0  0  0  0  0  0  0  0  0
   29.4860  -21.5343   13.7164 C   0  0  0  0  0  0  0  0  0  0  0  0
   29.6443  -20.1721   14.2580 C   0  0  0  0  0  0  0  0  0  0  0  0
   29.5828  -19.1994   13.4690 O   0  0  0  0  0  0  0  0  0  0  0  0
   29.7846  -22.1645   11.3761 C   0  0  0  0  0  0  0  0  0  0  0  0
   29.8440  -23.4135   11.3263 O   0  0  0  0  0  0  0  0  0  0  0  0
   29.8539  -19.9902   15.6012 O   0  0  0  0  0  0  0  0  0  0  0  0
   32.9571  -21.2974    4.2836 C   0  0  0  0  0  0  0  0  0  0  0  0
   31.9534  -20.7691    5.6960 S   0  0  0  0  0  0  0  0  0  0  0  0
   32.1913  -21.9103    7.1122 C   0  0  0  0  0  0  0  0  0  0  0  0
   31.3161  -21.3692    8.2249 C   0  0  0  0  0  0  0  0  0  0  0  0
   31.4877  -22.1208    9.5268 C   0  0  2  0  0  0  0  0  0  0  0  0
   30.6077  -21.4344   10.4849 N   0  0  0  0  0  0  0  0  0  0  0  0
   32.8631  -22.1011   10.0448 C   0  0  0  0  0  0  0  0  0  0  0  0
   33.3419  -21.0725   10.5485 O   0  0  0  0  0  0  0  0  0  0  0  0
   35.5528  -24.6543   10.5119 C   0  0  0  0  0  0  0  0  0  0  0  0
   34.9955  -23.2472   10.5345 C   0  0  2  0  0  0  0  0  0  0  0  0
   33.6662  -23.2646    9.9755 N   0  0  0  0  0  0  0  0  0  0  0  0
   35.9245  -22.4134    9.7041 C   0  0  0  0  0  0  0  0  0  0  0  0
   37.2142  -22.2313   10.1811 O   0  0  0  0  0  0  0  0  0  0  0  0
   35.5681  -21.8959    8.6236 O   0  0  0  0  0  0  0  0  0  0  0  0
  2  1  1  1
  3  4  1  0
  3  2  1  0
  4  5  2  0
  6  7  2  0
  6  2  1  0
  8  4  1  0
  9 10  1  0
 11 10  1  0
 11 12  1  0
 13 12  1  6
 13 14  1  0
 13 15  1  0
 14  6  1  0
 15 19  1  0
 16 15  2  0
 18 17  1  6
 18 20  1  0
 19 18  1  0
 20 22  2  0
 20 21  1  0
M  END
$$$$
