DMA.pdb
     RDKit          3D

 22 21  0  0  1  0  0  0  0  0999 V2000
   16.3058  -11.4701  -15.9254 N   0  0  0  0  0  0  0  0  0  0  0  0
   16.7884  -10.1228  -16.1245 C   0  0  1  0  0  0  0  0  0  0  0  0
   15.6720   -9.1657  -15.7616 C   0  0  0  0  0  0  0  0  0  0  0  0
   14.6614   -9.1663  -16.8353 C   0  0  0  0  0  0  0  0  0  0  0  0
   15.0455   -9.2778  -18.0239 O   0  0  0  0  0  0  0  0  0  0  0  0
   17.9718   -9.8298  -15.2787 C   0  0  0  0  0  0  0  0  0  0  0  0
   18.1041  -10.3090  -14.1303 O   0  0  0  0  0  0  0  0  0  0  0  0
   13.3314   -9.0463  -16.5228 O   0  0  0  0  0  0  0  0  0  0  0  0
   25.5402  -10.1094  -15.6841 C   0  0  0  0  0  0  0  0  0  0  0  0
   23.8317  -10.2638  -16.2665 S   0  0  0  0  0  0  0  0  0  0  0  0
   22.6948   -9.3349  -15.1670 C   0  0  0  0  0  0  0  0  0  0  0  0
   21.3203   -9.4716  -15.7906 C   0  0  0  0  0  0  0  0  0  0  0  0
   20.2388   -8.7819  -14.9882 C   0  0  2  0  0  0  0  0  0  0  0  0
   19.0018   -8.9846  -15.7577 N   0  0  0  0  0  0  0  0  0  0  0  0
   20.4601   -7.3393  -14.8137 C   0  0  0  0  0  0  0  0  0  0  0  0
   20.3860   -6.5600  -15.7772 O   0  0  0  0  0  0  0  0  0  0  0  0
   21.0956   -5.0773  -11.9074 C   0  0  0  0  0  0  0  0  0  0  0  0
   21.0130   -5.4032  -13.3831 C   0  0  2  0  0  0  0  0  0  0  0  0
   20.7631   -6.8155  -13.5341 N   0  0  0  0  0  0  0  0  0  0  0  0
   22.3362   -5.0183  -13.9736 C   0  0  0  0  0  0  0  0  0  0  0  0
   23.1452   -6.0425  -14.4435 O   0  0  0  0  0  0  0  0  0  0  0  0
   22.7111   -3.8283  -14.0475 O   0  0  0  0  0  0  0  0  0  0  0  0
  2  1  1  1
  3  4  1  0
  3  2  1  0
  4  5  2  0
  6  7  2  0
  6  2  1  0
  8  4  1  0
  9 10  1  0
 11 10  1  0
 11 12  1  0
 13 12  1  6
 13 14  1  0
 13 15  1  0
 14  6  1  0
 15 19  1  0
 16 15  2  0
 18 17  1  1
 18 20  1  0
 19 18  1  0
 20 22  2  0
 20 21  1  0
M  END
$$$$
