DMA.pdb
     RDKit          3D

 22 21  0  0  1  0  0  0  0  0999 V2000
   17.4390  -11.7629  -15.5224 N   0  0  0  0  0  0  0  0  0  0  0  0
   17.9451  -10.6027  -16.2193 C   0  0  1  0  0  0  0  0  0  0  0  0
   16.8032   -9.6223  -16.3899 C   0  0  0  0  0  0  0  0  0  0  0  0
   15.7665  -10.2260  -17.2471 C   0  0  0  0  0  0  0  0  0  0  0  0
   16.1096  -10.7296  -18.3432 O   0  0  0  0  0  0  0  0  0  0  0  0
   19.0420   -9.9430  -15.4688 C   0  0  0  0  0  0  0  0  0  0  0  0
   18.9477   -9.6759  -14.2500 O   0  0  0  0  0  0  0  0  0  0  0  0
   14.4573  -10.2284  -16.8386 O   0  0  0  0  0  0  0  0  0  0  0  0
   26.8036  -10.2947  -15.3981 C   0  0  0  0  0  0  0  0  0  0  0  0
   25.1717  -10.5599  -16.1387 S   0  0  0  0  0  0  0  0  0  0  0  0
   23.9029   -9.5660  -15.2632 C   0  0  0  0  0  0  0  0  0  0  0  0
   22.5789   -9.9438  -15.8965 C   0  0  0  0  0  0  0  0  0  0  0  0
   21.4191   -9.1302  -15.3653 C   0  0  2  0  0  0  0  0  0  0  0  0
   20.2469   -9.5920  -16.1243 N   0  0  0  0  0  0  0  0  0  0  0  0
   21.5731   -7.6816  -15.5615 C   0  0  0  0  0  0  0  0  0  0  0  0
   21.5924   -7.1893  -16.7009 O   0  0  0  0  0  0  0  0  0  0  0  0
   21.2150   -4.7497  -13.3282 C   0  0  0  0  0  0  0  0  0  0  0  0
   21.6331   -5.3938  -14.6324 C   0  0  2  0  0  0  0  0  0  0  0  0
   21.7024   -6.8221  -14.4444 N   0  0  0  0  0  0  0  0  0  0  0  0
   22.9775   -4.8235  -14.9714 C   0  0  0  0  0  0  0  0  0  0  0  0
   24.0587   -5.6924  -14.9586 O   0  0  0  0  0  0  0  0  0  0  0  0
   23.1359   -3.6168  -15.2562 O   0  0  0  0  0  0  0  0  0  0  0  0
  2  1  1  1
  3  4  1  0
  3  2  1  0
  4  5  2  0
  6  7  2  0
  6  2  1  0
  8  4  1  0
  9 10  1  0
 11 10  1  0
 11 12  1  0
 13 12  1  6
 13 14  1  0
 13 15  1  0
 14  6  1  0
 15 19  1  0
 16 15  2  0
 18 17  1  1
 18 20  1  0
 19 18  1  0
 20 22  2  0
 20 21  1  0
M  END
$$$$
