DAR.pdb
     RDKit          3D

 25 24  0  0  1  0  0  0  0  0999 V2000
    7.4399  -15.8575   16.0177 N   0  0  0  0  0  0  0  0  0  0  0  0
    8.8577  -15.4991   16.1090 C   0  0  1  0  0  0  0  0  0  0  0  0
    9.2240  -14.5609   15.0018 C   0  0  0  0  0  0  0  0  0  0  0  0
    9.2297  -15.1570   13.6687 C   0  0  0  0  0  0  0  0  0  0  0  0
    8.8235  -16.3502   13.5541 O   0  0  0  0  0  0  0  0  0  0  0  0
    9.0312  -14.7862   17.4154 C   0  0  0  0  0  0  0  0  0  0  0  0
   10.1095  -14.2979   17.7993 O   0  0  0  0  0  0  0  0  0  0  0  0
    9.6554  -14.4855   12.5381 O   0  0  0  0  0  0  0  0  0  0  0  0
    6.7363  -13.9706   20.2802 C   0  0  0  0  0  0  0  0  0  0  0  0
    8.1034  -14.1653   19.6269 C   0  0  2  0  0  0  0  0  0  0  0  0
    7.9095  -14.6439   18.2901 N   0  0  0  0  0  0  0  0  0  0  0  0
    8.8711  -15.1426   20.4784 C   0  0  0  0  0  0  0  0  0  0  0  0
    8.7350  -16.3709   20.2786 O   0  0  0  0  0  0  0  0  0  0  0  0
   16.7166  -14.2972   20.4762 N   0  0  0  0  0  0  0  0  0  0  0  0
   15.9141  -14.3204   19.2905 C   0  0  0  0  0  0  0  0  0  0  0  0
   16.4317  -14.1327   18.1103 N   0  0  0  0  0  0  0  0  0  0  0  0
   14.5293  -14.5595   19.4731 N   0  0  0  0  0  0  0  0  0  0  0  0
   14.0283  -14.7555   20.8122 C   0  0  0  0  0  0  0  0  0  0  0  0
   12.5141  -14.9925   20.8107 C   0  0  0  0  0  0  0  0  0  0  0  0
   12.0076  -15.1576   22.2007 C   0  0  0  0  0  0  0  0  0  0  0  0
   10.5810  -15.5292   22.3141 C   0  0  2  0  0  0  0  0  0  0  0  0
    9.7404  -14.6910   21.4950 N   0  0  0  0  0  0  0  0  0  0  0  0
   10.0306  -15.6409   23.6755 C   0  0  0  0  0  0  0  0  0  0  0  0
    9.1553  -14.8252   24.0357 O   0  0  0  0  0  0  0  0  0  0  0  0
   10.4062  -16.5923   24.6118 O   0  0  0  0  0  0  0  0  0  0  0  0
  2  1  1  6
  2  3  1  0
  3  4  1  0
  4  5  2  0
  4  8  1  0
  6  7  2  0
  6  2  1  0
 10  9  1  1
 10 12  1  0
 10 11  1  0
 11  6  1  0
 12 22  1  0
 13 12  2  0
 15 16  2  0
 15 14  1  0
 17 15  1  0
 18 17  1  0
 19 18  1  0
 21 20  1  1
 20 19  1  0
 22 21  1  0
 23 25  1  0
 23 21  1  0
 24 23  2  0
M  END
$$$$
