DAR.pdb
     RDKit          3D

 25 24  0  0  1  0  0  0  0  0999 V2000
    4.5257  -20.3250   23.0369 N   0  0  0  0  0  0  0  0  0  0  0  0
    4.5535  -19.2944   21.9957 C   0  0  1  0  0  0  0  0  0  0  0  0
    3.1813  -18.7331   21.7901 C   0  0  0  0  0  0  0  0  0  0  0  0
    2.1373  -19.7297   21.5680 C   0  0  0  0  0  0  0  0  0  0  0  0
    1.9455  -20.5948   22.4716 O   0  0  0  0  0  0  0  0  0  0  0  0
    5.4443  -18.2023   22.5044 C   0  0  0  0  0  0  0  0  0  0  0  0
    5.7921  -17.2199   21.8243 O   0  0  0  0  0  0  0  0  0  0  0  0
    1.3579  -19.7722   20.4273 O   0  0  0  0  0  0  0  0  0  0  0  0
    6.8811  -17.2906   25.8310 C   0  0  0  0  0  0  0  0  0  0  0  0
    6.8877  -17.2981   24.3034 C   0  0  2  0  0  0  0  0  0  0  0  0
    5.9367  -18.2672   23.8448 N   0  0  0  0  0  0  0  0  0  0  0  0
    8.2917  -17.6224   23.8636 C   0  0  0  0  0  0  0  0  0  0  0  0
    8.6822  -18.8116   23.8818 O   0  0  0  0  0  0  0  0  0  0  0  0
    7.9229  -13.6843   19.3794 N   0  0  0  0  0  0  0  0  0  0  0  0
    8.9477  -12.6842   19.3884 C   0  0  0  0  0  0  0  0  0  0  0  0
    8.6704  -11.4193   19.2508 N   0  0  0  0  0  0  0  0  0  0  0  0
   10.2765  -13.1472   19.5560 N   0  0  0  0  0  0  0  0  0  0  0  0
   10.4987  -14.5544   19.7862 C   0  0  0  0  0  0  0  0  0  0  0  0
   10.3647  -14.9031   21.2725 C   0  0  0  0  0  0  0  0  0  0  0  0
   10.5965  -16.3570   21.4932 C   0  0  0  0  0  0  0  0  0  0  0  0
   10.4932  -16.8079   22.8975 C   0  0  2  0  0  0  0  0  0  0  0  0
    9.1690  -16.6042   23.4316 N   0  0  0  0  0  0  0  0  0  0  0  0
   11.5118  -16.3027   23.8333 C   0  0  0  0  0  0  0  0  0  0  0  0
   12.6147  -16.8873   23.8898 O   0  0  0  0  0  0  0  0  0  0  0  0
   11.3509  -15.2121   24.6746 O   0  0  0  0  0  0  0  0  0  0  0  0
  2  1  1  1
  2  3  1  0
  3  4  1  0
  4  5  2  0
  4  8  1  0
  6  7  2  0
  6  2  1  0
 10  9  1  1
 10 12  1  0
 10 11  1  0
 11  6  1  0
 12 22  1  0
 13 12  2  0
 15 16  2  0
 15 14  1  0
 17 15  1  0
 18 17  1  0
 19 18  1  0
 21 20  1  6
 20 19  1  0
 22 21  1  0
 23 25  1  0
 23 21  1  0
 24 23  2  0
M  END
$$$$
