DAR.pdb
     RDKit          3D

 25 24  0  0  1  0  0  0  0  0999 V2000
    7.3269  -17.0953   17.8827 N   0  0  0  0  0  0  0  0  0  0  0  0
    8.5782  -17.3709   18.5936 C   0  0  1  0  0  0  0  0  0  0  0  0
    9.6864  -17.6025   17.6146 C   0  0  0  0  0  0  0  0  0  0  0  0
    9.2515  -17.8553   16.2437 C   0  0  0  0  0  0  0  0  0  0  0  0
    8.1903  -18.5241   16.0751 O   0  0  0  0  0  0  0  0  0  0  0  0
    8.8934  -16.1407   19.3887 C   0  0  0  0  0  0  0  0  0  0  0  0
    9.9805  -15.9475   19.9628 O   0  0  0  0  0  0  0  0  0  0  0  0
    9.9393  -17.4037   15.1330 O   0  0  0  0  0  0  0  0  0  0  0  0
    7.1411  -12.8995   20.0607 C   0  0  0  0  0  0  0  0  0  0  0  0
    8.1273  -14.0146   20.4037 C   0  0  2  0  0  0  0  0  0  0  0  0
    7.9067  -15.1135   19.5106 N   0  0  0  0  0  0  0  0  0  0  0  0
    7.8930  -14.3920   21.8432 C   0  0  0  0  0  0  0  0  0  0  0  0
    6.7245  -14.4080   22.2921 O   0  0  0  0  0  0  0  0  0  0  0  0
    6.1611  -21.3494   24.5086 N   0  0  0  0  0  0  0  0  0  0  0  0
    6.4238  -20.8732   25.8333 C   0  0  0  0  0  0  0  0  0  0  0  0
    6.1181  -21.5761   26.8861 N   0  0  0  0  0  0  0  0  0  0  0  0
    7.0345  -19.5984   25.9335 N   0  0  0  0  0  0  0  0  0  0  0  0
    7.1940  -18.8078   24.7368 C   0  0  0  0  0  0  0  0  0  0  0  0
    8.0074  -17.5385   25.0127 C   0  0  0  0  0  0  0  0  0  0  0  0
    8.0766  -16.6848   23.7952 C   0  0  0  0  0  0  0  0  0  0  0  0
    8.8697  -15.4449   23.9362 C   0  0  2  0  0  0  0  0  0  0  0  0
    8.9723  -14.7276   22.6892 N   0  0  0  0  0  0  0  0  0  0  0  0
   10.1928  -15.5721   24.5702 C   0  0  0  0  0  0  0  0  0  0  0  0
   11.2088  -15.5551   23.8430 O   0  0  0  0  0  0  0  0  0  0  0  0
   10.4144  -15.7116   25.9320 O   0  0  0  0  0  0  0  0  0  0  0  0
  2  1  1  6
  2  3  1  0
  3  4  1  0
  4  5  2  0
  4  8  1  0
  6  7  2  0
  6  2  1  0
 10  9  1  6
 10 12  1  0
 10 11  1  0
 11  6  1  0
 12 22  1  0
 13 12  2  0
 15 16  2  0
 15 14  1  0
 17 15  1  0
 18 17  1  0
 19 18  1  0
 21 20  1  6
 20 19  1  0
 22 21  1  0
 23 25  1  0
 23 21  1  0
 24 23  2  0
M  END
$$$$
