DAR.pdb
     RDKit          3D

 25 24  0  0  1  0  0  0  0  0999 V2000
    9.8944  -20.6178   18.0114 N   0  0  0  0  0  0  0  0  0  0  0  0
   10.0590  -19.1743   18.2017 C   0  0  1  0  0  0  0  0  0  0  0  0
    9.2176  -18.4257   17.2159 C   0  0  0  0  0  0  0  0  0  0  0  0
    9.7530  -18.3850   15.8578 C   0  0  0  0  0  0  0  0  0  0  0  0
   11.0023  -18.2371   15.7203 O   0  0  0  0  0  0  0  0  0  0  0  0
    9.5617  -18.8696   19.5818 C   0  0  0  0  0  0  0  0  0  0  0  0
    8.9798  -17.8137   19.8902 O   0  0  0  0  0  0  0  0  0  0  0  0
    8.9658  -18.4979   14.7273 O   0  0  0  0  0  0  0  0  0  0  0  0
    9.4822  -20.8000   22.8087 C   0  0  0  0  0  0  0  0  0  0  0  0
    9.2475  -19.5668   21.9382 C   0  0  2  0  0  0  0  0  0  0  0  0
    9.7529  -19.8300   20.6232 N   0  0  0  0  0  0  0  0  0  0  0  0
    9.9513  -18.4110   22.6004 C   0  0  0  0  0  0  0  0  0  0  0  0
   11.1385  -18.1578   22.2947 O   0  0  0  0  0  0  0  0  0  0  0  0
    5.2207  -12.4208   25.5195 N   0  0  0  0  0  0  0  0  0  0  0  0
    6.2108  -12.5459   26.5464 C   0  0  0  0  0  0  0  0  0  0  0  0
    6.0574  -11.9935   27.7157 N   0  0  0  0  0  0  0  0  0  0  0  0
    7.3630  -13.3035   26.2199 N   0  0  0  0  0  0  0  0  0  0  0  0
    7.9940  -13.0926   24.9392 C   0  0  0  0  0  0  0  0  0  0  0  0
    9.1895  -14.0319   24.7464 C   0  0  0  0  0  0  0  0  0  0  0  0
    8.7421  -15.3476   24.2128 C   0  0  0  0  0  0  0  0  0  0  0  0
    9.7939  -16.3825   24.1181 C   0  0  2  0  0  0  0  0  0  0  0  0
    9.2894  -17.6120   23.5578 N   0  0  0  0  0  0  0  0  0  0  0  0
   10.5719  -16.6514   25.3392 C   0  0  0  0  0  0  0  0  0  0  0  0
   10.1970  -17.5714   26.0971 O   0  0  0  0  0  0  0  0  0  0  0  0
   11.7082  -15.9588   25.7294 O   0  0  0  0  0  0  0  0  0  0  0  0
  2  1  1  6
  2  3  1  0
  3  4  1  0
  4  5  2  0
  4  8  1  0
  6  7  2  0
  6  2  1  0
 10  9  1  1
 10 12  1  0
 10 11  1  0
 11  6  1  0
 12 22  1  0
 13 12  2  0
 15 16  2  0
 15 14  1  0
 17 15  1  0
 18 17  1  0
 19 18  1  0
 21 20  1  1
 20 19  1  0
 22 21  1  0
 23 25  1  0
 23 21  1  0
 24 23  2  0
M  END
$$$$
