DAR.pdb
     RDKit          3D

 25 24  0  0  1  0  0  0  0  0999 V2000
    6.6680  -22.3148   26.0035 N   0  0  0  0  0  0  0  0  0  0  0  0
    6.1094  -21.6593   24.8181 C   0  0  1  0  0  0  0  0  0  0  0  0
    4.6232  -21.8332   24.7858 C   0  0  0  0  0  0  0  0  0  0  0  0
    4.1691  -23.2178   24.6901 C   0  0  0  0  0  0  0  0  0  0  0  0
    2.9646  -23.4222   24.3597 O   0  0  0  0  0  0  0  0  0  0  0  0
    6.4160  -20.1993   24.9574 C   0  0  0  0  0  0  0  0  0  0  0  0
    5.9494  -19.3199   24.2107 O   0  0  0  0  0  0  0  0  0  0  0  0
    4.9855  -24.3042   24.9425 O   0  0  0  0  0  0  0  0  0  0  0  0
    8.1944  -18.1263   27.5148 C   0  0  0  0  0  0  0  0  0  0  0  0
    7.6226  -18.3745   26.1201 C   0  0  2  0  0  0  0  0  0  0  0  0
    7.2914  -19.7637   26.0002 N   0  0  0  0  0  0  0  0  0  0  0  0
    8.6700  -17.9485   25.1246 C   0  0  0  0  0  0  0  0  0  0  0  0
    9.5664  -18.7565   24.7919 O   0  0  0  0  0  0  0  0  0  0  0  0
    7.2024  -12.0071   18.8840 N   0  0  0  0  0  0  0  0  0  0  0  0
    8.3222  -12.7386   18.3725 C   0  0  0  0  0  0  0  0  0  0  0  0
    8.6344  -12.7160   17.1084 N   0  0  0  0  0  0  0  0  0  0  0  0
    9.0698  -13.4853   19.3168 N   0  0  0  0  0  0  0  0  0  0  0  0
    8.4422  -13.8591   20.5614 C   0  0  0  0  0  0  0  0  0  0  0  0
    9.4035  -14.6530   21.4528 C   0  0  0  0  0  0  0  0  0  0  0  0
    8.7029  -15.1476   22.6697 C   0  0  0  0  0  0  0  0  0  0  0  0
    9.3932  -16.2320   23.4002 C   0  0  2  0  0  0  0  0  0  0  0  0
    8.6521  -16.6531   24.5635 N   0  0  0  0  0  0  0  0  0  0  0  0
   10.8078  -16.0062   23.7418 C   0  0  0  0  0  0  0  0  0  0  0  0
   11.6216  -15.8020   22.8159 O   0  0  0  0  0  0  0  0  0  0  0  0
   11.3262  -15.9997   25.0279 O   0  0  0  0  0  0  0  0  0  0  0  0
  2  1  1  1
  2  3  1  0
  3  4  1  0
  4  5  2  0
  4  8  1  0
  6  7  2  0
  6  2  1  0
 10  9  1  1
 10 12  1  0
 10 11  1  0
 11  6  1  0
 12 22  1  0
 13 12  2  0
 15 16  2  0
 15 14  1  0
 17 15  1  0
 18 17  1  0
 19 18  1  0
 21 20  1  1
 20 19  1  0
 22 21  1  0
 23 25  1  0
 23 21  1  0
 24 23  2  0
M  END
$$$$
