DAR.pdb
     RDKit          3D

 25 24  0  0  1  0  0  0  0  0999 V2000
   16.4041  -22.1217   22.7753 N   0  0  0  0  0  0  0  0  0  0  0  0
   16.2415  -20.9562   23.6484 C   0  0  1  0  0  0  0  0  0  0  0  0
   14.8464  -20.4244   23.5427 C   0  0  0  0  0  0  0  0  0  0  0  0
   14.5636  -19.6822   22.3173 C   0  0  0  0  0  0  0  0  0  0  0  0
   15.5221  -19.4782   21.5164 O   0  0  0  0  0  0  0  0  0  0  0  0
   16.4622  -21.4418   25.0485 C   0  0  0  0  0  0  0  0  0  0  0  0
   15.9644  -22.4870   25.5049 O   0  0  0  0  0  0  0  0  0  0  0  0
   13.3103  -19.1961   21.9957 O   0  0  0  0  0  0  0  0  0  0  0  0
   18.9039  -20.7350   27.7147 C   0  0  0  0  0  0  0  0  0  0  0  0
   17.4925  -21.1248   27.2791 C   0  0  2  0  0  0  0  0  0  0  0  0
   17.2884  -20.6801   25.9321 N   0  0  0  0  0  0  0  0  0  0  0  0
   16.5322  -20.4816   28.2453 C   0  0  0  0  0  0  0  0  0  0  0  0
   15.9130  -19.4495   27.9009 O   0  0  0  0  0  0  0  0  0  0  0  0
   12.4000  -24.3326   30.2748 N   0  0  0  0  0  0  0  0  0  0  0  0
   12.3330  -24.5630   31.6865 C   0  0  0  0  0  0  0  0  0  0  0  0
   11.1942  -24.6507   32.3121 N   0  0  0  0  0  0  0  0  0  0  0  0
   13.5721  -24.6910   32.3621 N   0  0  0  0  0  0  0  0  0  0  0  0
   14.3395  -23.5005   32.6387 C   0  0  0  0  0  0  0  0  0  0  0  0
   14.3884  -22.5741   31.4188 C   0  0  0  0  0  0  0  0  0  0  0  0
   15.2785  -21.4098   31.6797 C   0  0  0  0  0  0  0  0  0  0  0  0
   15.4538  -20.4804   30.5431 C   0  0  2  0  0  0  0  0  0  0  0  0
   16.3223  -21.0277   29.5301 N   0  0  0  0  0  0  0  0  0  0  0  0
   15.8464  -19.0992   30.8699 C   0  0  0  0  0  0  0  0  0  0  0  0
   15.1026  -18.4262   31.6150 O   0  0  0  0  0  0  0  0  0  0  0  0
   16.9934  -18.4671   30.4139 O   0  0  0  0  0  0  0  0  0  0  0  0
  2  1  1  6
  2  3  1  0
  3  4  1  0
  4  5  2  0
  4  8  1  0
  6  7  2  0
  6  2  1  0
 10  9  1  1
 10 12  1  0
 10 11  1  0
 11  6  1  0
 12 22  1  0
 13 12  2  0
 15 16  2  0
 15 14  1  0
 17 15  1  0
 18 17  1  0
 19 18  1  0
 21 20  1  1
 20 19  1  0
 22 21  1  0
 23 25  1  0
 23 21  1  0
 24 23  2  0
M  END
$$$$
