DAR.pdb
     RDKit          3D

 25 24  0  0  1  0  0  0  0  0999 V2000
   11.5058  -19.0612   16.8820 N   0  0  0  0  0  0  0  0  0  0  0  0
   12.9172  -18.8685   17.2252 C   0  0  1  0  0  0  0  0  0  0  0  0
   13.4942  -17.7461   16.4205 C   0  0  0  0  0  0  0  0  0  0  0  0
   13.5905  -18.0050   14.9865 C   0  0  0  0  0  0  0  0  0  0  0  0
   13.0879  -19.0797   14.5459 O   0  0  0  0  0  0  0  0  0  0  0  0
   12.9525  -18.4848   18.6731 C   0  0  0  0  0  0  0  0  0  0  0  0
   13.9940  -18.1836   19.2840 O   0  0  0  0  0  0  0  0  0  0  0  0
   14.2003  -17.1398   14.0977 O   0  0  0  0  0  0  0  0  0  0  0  0
   10.3304  -17.8443   21.2768 C   0  0  0  0  0  0  0  0  0  0  0  0
   11.7591  -18.1241   20.8139 C   0  0  2  0  0  0  0  0  0  0  0  0
   11.7337  -18.4540   19.4195 N   0  0  0  0  0  0  0  0  0  0  0  0
   12.2903  -19.2526   21.6588 C   0  0  0  0  0  0  0  0  0  0  0  0
   12.4560  -20.3812   21.1430 O   0  0  0  0  0  0  0  0  0  0  0  0
   19.6998  -20.7229   25.2978 N   0  0  0  0  0  0  0  0  0  0  0  0
   19.5038  -19.4736   24.6262 C   0  0  0  0  0  0  0  0  0  0  0  0
   20.0594  -18.3745   25.0497 N   0  0  0  0  0  0  0  0  0  0  0  0
   18.6746  -19.5007   23.4773 N   0  0  0  0  0  0  0  0  0  0  0  0
   17.3805  -18.8649   23.5386 C   0  0  0  0  0  0  0  0  0  0  0  0
   16.2497  -19.8978   23.4809 C   0  0  0  0  0  0  0  0  0  0  0  0
   15.0101  -19.2880   22.9264 C   0  0  0  0  0  0  0  0  0  0  0  0
   13.7755  -19.5549   23.6950 C   0  0  2  0  0  0  0  0  0  0  0  0
   12.6035  -19.0529   23.0208 N   0  0  0  0  0  0  0  0  0  0  0  0
   13.7732  -19.1463   25.1098 C   0  0  0  0  0  0  0  0  0  0  0  0
   13.4806  -17.9645   25.3908 O   0  0  0  0  0  0  0  0  0  0  0  0
   14.0733  -19.9758   26.1798 O   0  0  0  0  0  0  0  0  0  0  0  0
  2  1  1  6
  2  3  1  0
  3  4  1  0
  4  5  2  0
  4  8  1  0
  6  7  2  0
  6  2  1  0
 10  9  1  1
 10 12  1  0
 10 11  1  0
 11  6  1  0
 12 22  1  0
 13 12  2  0
 15 16  2  0
 15 14  1  0
 17 15  1  0
 18 17  1  0
 19 18  1  0
 21 20  1  6
 20 19  1  0
 22 21  1  0
 23 25  1  0
 23 21  1  0
 24 23  2  0
M  END
$$$$
