DAR.pdb
     RDKit          3D

 25 24  0  0  1  0  0  0  0  0999 V2000
   12.9527  -19.4127   17.2621 N   0  0  0  0  0  0  0  0  0  0  0  0
   11.7819  -18.5425   17.3996 C   0  0  1  0  0  0  0  0  0  0  0  0
   10.7055  -18.9740   16.4533 C   0  0  0  0  0  0  0  0  0  0  0  0
   11.0105  -18.7654   15.0405 C   0  0  0  0  0  0  0  0  0  0  0  0
   12.1582  -18.3223   14.7437 O   0  0  0  0  0  0  0  0  0  0  0  0
   11.2841  -18.7206   18.8016 C   0  0  0  0  0  0  0  0  0  0  0  0
   10.2231  -18.2288   19.2269 O   0  0  0  0  0  0  0  0  0  0  0  0
   10.1119  -19.0257   14.0230 O   0  0  0  0  0  0  0  0  0  0  0  0
   12.4793  -20.7075   21.7594 C   0  0  0  0  0  0  0  0  0  0  0  0
   11.5755  -19.6928   21.0616 C   0  0  2  0  0  0  0  0  0  0  0  0
   12.0524  -19.4963   19.7244 N   0  0  0  0  0  0  0  0  0  0  0  0
   11.6148  -18.4250   21.8745 C   0  0  0  0  0  0  0  0  0  0  0  0
   12.5543  -17.6152   21.7052 O   0  0  0  0  0  0  0  0  0  0  0  0
    6.7336  -12.8168   20.1599 N   0  0  0  0  0  0  0  0  0  0  0  0
    8.0048  -12.8788   19.5036 C   0  0  0  0  0  0  0  0  0  0  0  0
    8.2494  -12.1987   18.4203 N   0  0  0  0  0  0  0  0  0  0  0  0
    8.9791  -13.7187   20.0983 N   0  0  0  0  0  0  0  0  0  0  0  0
    8.6270  -14.4595   21.2857 C   0  0  0  0  0  0  0  0  0  0  0  0
    9.8109  -15.2884   21.7959 C   0  0  0  0  0  0  0  0  0  0  0  0
    9.4374  -16.0319   23.0303 C   0  0  0  0  0  0  0  0  0  0  0  0
   10.4875  -16.9175   23.5774 C   0  0  2  0  0  0  0  0  0  0  0  0
   10.6072  -18.1399   22.8214 N   0  0  0  0  0  0  0  0  0  0  0  0
   10.4272  -17.2054   25.0204 C   0  0  0  0  0  0  0  0  0  0  0  0
    9.9871  -18.3145   25.3913 O   0  0  0  0  0  0  0  0  0  0  0  0
   10.8249  -16.3354   26.0243 O   0  0  0  0  0  0  0  0  0  0  0  0
  2  1  1  1
  2  3  1  0
  3  4  1  0
  4  5  2  0
  4  8  1  0
  6  7  2  0
  6  2  1  0
 10  9  1  1
 10 12  1  0
 10 11  1  0
 11  6  1  0
 12 22  1  0
 13 12  2  0
 15 16  2  0
 15 14  1  0
 17 15  1  0
 18 17  1  0
 19 18  1  0
 21 20  1  6
 20 19  1  0
 22 21  1  0
 23 25  1  0
 23 21  1  0
 24 23  2  0
M  END
$$$$
