DAR.pdb
     RDKit          3D

 25 24  0  0  1  0  0  0  0  0999 V2000
    8.0303  -15.8752   15.6741 N   0  0  0  0  0  0  0  0  0  0  0  0
    9.4594  -15.9016   15.9969 C   0  0  1  0  0  0  0  0  0  0  0  0
   10.2489  -15.2753   14.8903 C   0  0  0  0  0  0  0  0  0  0  0  0
   10.3180  -16.0639   13.6631 C   0  0  0  0  0  0  0  0  0  0  0  0
    9.7237  -17.1811   13.6454 O   0  0  0  0  0  0  0  0  0  0  0  0
    9.6298  -15.0723   17.2331 C   0  0  0  0  0  0  0  0  0  0  0  0
   10.7330  -14.8207   17.7509 O   0  0  0  0  0  0  0  0  0  0  0  0
   10.9970  -15.6511   12.5321 O   0  0  0  0  0  0  0  0  0  0  0  0
    7.2735  -13.2199   19.4998 C   0  0  0  0  0  0  0  0  0  0  0  0
    8.6037  -13.8845   19.1498 C   0  0  2  0  0  0  0  0  0  0  0  0
    8.4751  -14.5255   17.8745 N   0  0  0  0  0  0  0  0  0  0  0  0
    8.9192  -14.8620   20.2517 C   0  0  0  0  0  0  0  0  0  0  0  0
    8.3357  -15.9693   20.2767 O   0  0  0  0  0  0  0  0  0  0  0  0
   16.5323  -13.9398   20.5444 N   0  0  0  0  0  0  0  0  0  0  0  0
   15.4581  -14.4570   19.7512 C   0  0  0  0  0  0  0  0  0  0  0  0
   15.0931  -13.8869   18.6387 N   0  0  0  0  0  0  0  0  0  0  0  0
   14.8175  -15.6214   20.2431 N   0  0  0  0  0  0  0  0  0  0  0  0
   14.0565  -15.5322   21.4661 C   0  0  0  0  0  0  0  0  0  0  0  0
   12.5503  -15.5970   21.1902 C   0  0  0  0  0  0  0  0  0  0  0  0
   11.7780  -15.4149   22.4498 C   0  0  0  0  0  0  0  0  0  0  0  0
   10.3074  -15.4340   22.2984 C   0  0  2  0  0  0  0  0  0  0  0  0
    9.8629  -14.5455   21.2529 N   0  0  0  0  0  0  0  0  0  0  0  0
    9.5118  -15.2328   23.5212 C   0  0  0  0  0  0  0  0  0  0  0  0
    8.8082  -14.2044   23.6147 O   0  0  0  0  0  0  0  0  0  0  0  0
    9.4741  -16.1030   24.6002 O   0  0  0  0  0  0  0  0  0  0  0  0
  2  1  1  6
  2  3  1  0
  3  4  1  0
  4  5  2  0
  4  8  1  0
  6  7  2  0
  6  2  1  0
 10  9  1  1
 10 12  1  0
 10 11  1  0
 11  6  1  0
 12 22  1  0
 13 12  2  0
 15 16  2  0
 15 14  1  0
 17 15  1  0
 18 17  1  0
 19 18  1  0
 21 20  1  1
 20 19  1  0
 22 21  1  0
 23 25  1  0
 23 21  1  0
 24 23  2  0
M  END
$$$$
