DAR.pdb
     RDKit          3D

 25 24  0  0  1  0  0  0  0  0999 V2000
   12.5302  -18.5457   19.0971 N   0  0  0  0  0  0  0  0  0  0  0  0
   11.3050  -17.7496   19.2074 C   0  0  1  0  0  0  0  0  0  0  0  0
   10.2998  -18.2092   18.1982 C   0  0  0  0  0  0  0  0  0  0  0  0
   10.8238  -18.3870   16.8468 C   0  0  0  0  0  0  0  0  0  0  0  0
   12.0379  -18.0944   16.6415 O   0  0  0  0  0  0  0  0  0  0  0  0
   10.7560  -18.0049   20.5780 C   0  0  0  0  0  0  0  0  0  0  0  0
    9.6097  -17.6789   20.9360 O   0  0  0  0  0  0  0  0  0  0  0  0
   10.0623  -18.8539   15.7920 O   0  0  0  0  0  0  0  0  0  0  0  0
   11.9871  -19.9279   23.5528 C   0  0  0  0  0  0  0  0  0  0  0  0
   11.0440  -18.9547   22.8479 C   0  0  2  0  0  0  0  0  0  0  0  0
   11.5748  -18.6597   21.5498 N   0  0  0  0  0  0  0  0  0  0  0  0
   10.9380  -17.7270   23.7146 C   0  0  0  0  0  0  0  0  0  0  0  0
   11.8530  -16.8731   23.6853 O   0  0  0  0  0  0  0  0  0  0  0  0
    6.5229  -14.1712   20.4159 N   0  0  0  0  0  0  0  0  0  0  0  0
    7.6376  -13.2862   20.5735 C   0  0  0  0  0  0  0  0  0  0  0  0
    7.9047  -12.3597   19.6982 N   0  0  0  0  0  0  0  0  0  0  0  0
    8.4306  -13.4742   21.7328 N   0  0  0  0  0  0  0  0  0  0  0  0
    8.0274  -14.4693   22.6972 C   0  0  0  0  0  0  0  0  0  0  0  0
    8.9660  -14.4826   23.9086 C   0  0  0  0  0  0  0  0  0  0  0  0
    8.5331  -15.5088   24.8964 C   0  0  0  0  0  0  0  0  0  0  0  0
    9.6073  -16.3856   25.4096 C   0  0  2  0  0  0  0  0  0  0  0  0
    9.8221  -17.5283   24.5563 N   0  0  0  0  0  0  0  0  0  0  0  0
    9.5066  -16.8034   26.8181 C   0  0  0  0  0  0  0  0  0  0  0  0
    9.2716  -18.0044   27.0706 O   0  0  0  0  0  0  0  0  0  0  0  0
    9.6533  -15.9632   27.9115 O   0  0  0  0  0  0  0  0  0  0  0  0
  2  1  1  6
  2  3  1  0
  3  4  1  0
  4  5  2  0
  4  8  1  0
  6  7  2  0
  6  2  1  0
 10  9  1  1
 10 12  1  0
 10 11  1  0
 11  6  1  0
 12 22  1  0
 13 12  2  0
 15 16  2  0
 15 14  1  0
 17 15  1  0
 18 17  1  0
 19 18  1  0
 21 20  1  6
 20 19  1  0
 22 21  1  0
 23 25  1  0
 23 21  1  0
 24 23  2  0
M  END
$$$$
