DAR.pdb
     RDKit          3D

 25 24  0  0  1  0  0  0  0  0999 V2000
    9.6155  -19.5897   16.8514 N   0  0  0  0  0  0  0  0  0  0  0  0
    8.4560  -19.0170   17.5404 C   0  0  1  0  0  0  0  0  0  0  0  0
    7.2498  -19.8749   17.3186 C   0  0  0  0  0  0  0  0  0  0  0  0
    7.4983  -21.1000   16.5637 C   0  0  0  0  0  0  0  0  0  0  0  0
    8.6869  -21.3381   16.1998 O   0  0  0  0  0  0  0  0  0  0  0  0
    8.7852  -19.0253   19.0021 C   0  0  0  0  0  0  0  0  0  0  0  0
    8.0662  -18.5079   19.8762 O   0  0  0  0  0  0  0  0  0  0  0  0
    6.5050  -22.0016   16.2303 O   0  0  0  0  0  0  0  0  0  0  0  0
   11.6287  -20.4174   21.0336 C   0  0  0  0  0  0  0  0  0  0  0  0
   10.3673  -19.5813   20.8256 C   0  0  2  0  0  0  0  0  0  0  0  0
    9.9880  -19.6577   19.4457 N   0  0  0  0  0  0  0  0  0  0  0  0
   10.6884  -18.1728   21.2530 C   0  0  0  0  0  0  0  0  0  0  0  0
   10.8375  -17.2854   20.3828 O   0  0  0  0  0  0  0  0  0  0  0  0
    8.7695  -11.7844   19.1775 N   0  0  0  0  0  0  0  0  0  0  0  0
    8.2618  -12.4345   20.3480 C   0  0  0  0  0  0  0  0  0  0  0  0
    8.2546  -11.8450   21.5092 N   0  0  0  0  0  0  0  0  0  0  0  0
    7.7681  -13.7510   20.1718 N   0  0  0  0  0  0  0  0  0  0  0  0
    7.7697  -14.6511   21.2999 C   0  0  0  0  0  0  0  0  0  0  0  0
    9.1918  -15.1033   21.6488 C   0  0  0  0  0  0  0  0  0  0  0  0
    9.1709  -16.0801   22.7720 C   0  0  0  0  0  0  0  0  0  0  0  0
   10.4959  -16.5684   23.2105 C   0  0  2  0  0  0  0  0  0  0  0  0
   10.8219  -17.8428   22.6192 N   0  0  0  0  0  0  0  0  0  0  0  0
   10.7476  -16.5917   24.6613 C   0  0  0  0  0  0  0  0  0  0  0  0
   11.3628  -15.6342   25.1772 O   0  0  0  0  0  0  0  0  0  0  0  0
   10.3531  -17.6041   25.5229 O   0  0  0  0  0  0  0  0  0  0  0  0
  2  1  1  6
  2  3  1  0
  3  4  1  0
  4  5  2  0
  4  8  1  0
  6  7  2  0
  6  2  1  0
 10  9  1  6
 10 12  1  0
 10 11  1  0
 11  6  1  0
 12 22  1  0
 13 12  2  0
 15 16  2  0
 15 14  1  0
 17 15  1  0
 18 17  1  0
 19 18  1  0
 21 20  1  1
 20 19  1  0
 22 21  1  0
 23 25  1  0
 23 21  1  0
 24 23  2  0
M  END
$$$$
