DAR.pdb
     RDKit          3D

 25 24  0  0  1  0  0  0  0  0999 V2000
    9.0220  -14.2685   15.7005 N   0  0  0  0  0  0  0  0  0  0  0  0
    8.9496  -15.3897   16.6411 C   0  0  1  0  0  0  0  0  0  0  0  0
   10.2560  -16.1194   16.6740 C   0  0  0  0  0  0  0  0  0  0  0  0
   10.5600  -16.8885   15.4704 C   0  0  0  0  0  0  0  0  0  0  0  0
   11.3286  -16.3633   14.6130 O   0  0  0  0  0  0  0  0  0  0  0  0
    8.7022  -14.7931   17.9931 C   0  0  0  0  0  0  0  0  0  0  0  0
    9.4371  -13.9358   18.5161 O   0  0  0  0  0  0  0  0  0  0  0  0
   10.0511  -18.1503   15.2265 O   0  0  0  0  0  0  0  0  0  0  0  0
    5.8306  -14.8190   20.3693 C   0  0  0  0  0  0  0  0  0  0  0  0
    7.3118  -14.6459   20.0382 C   0  0  2  0  0  0  0  0  0  0  0  0
    7.5632  -15.2147   18.7470 N   0  0  0  0  0  0  0  0  0  0  0  0
    8.0967  -15.3300   21.1269 C   0  0  0  0  0  0  0  0  0  0  0  0
    8.6725  -16.4141   20.8810 O   0  0  0  0  0  0  0  0  0  0  0  0
   11.8254  -14.8406   27.2107 N   0  0  0  0  0  0  0  0  0  0  0  0
   11.1195  -14.8913   28.4555 C   0  0  0  0  0  0  0  0  0  0  0  0
   11.7356  -15.1024   29.5833 N   0  0  0  0  0  0  0  0  0  0  0  0
    9.7171  -14.6982   28.3914 N   0  0  0  0  0  0  0  0  0  0  0  0
    9.1451  -14.1503   27.1849 C   0  0  0  0  0  0  0  0  0  0  0  0
    9.3219  -15.1072   26.0009 C   0  0  0  0  0  0  0  0  0  0  0  0
    8.6913  -14.5465   24.7746 C   0  0  0  0  0  0  0  0  0  0  0  0
    8.8046  -15.3876   23.5639 C   0  0  2  0  0  0  0  0  0  0  0  0
    8.1911  -14.7644   22.4170 N   0  0  0  0  0  0  0  0  0  0  0  0
    8.3686  -16.7889   23.6862 C   0  0  0  0  0  0  0  0  0  0  0  0
    9.1468  -17.6139   24.2106 O   0  0  0  0  0  0  0  0  0  0  0  0
    7.1443  -17.2830   23.2620 O   0  0  0  0  0  0  0  0  0  0  0  0
  2  1  1  6
  2  3  1  0
  3  4  1  0
  4  5  2  0
  4  8  1  0
  6  7  2  0
  6  2  1  0
 10  9  1  1
 10 12  1  0
 10 11  1  0
 11  6  1  0
 12 22  1  0
 13 12  2  0
 15 16  2  0
 15 14  1  0
 17 15  1  0
 18 17  1  0
 19 18  1  0
 21 20  1  1
 20 19  1  0
 22 21  1  0
 23 25  1  0
 23 21  1  0
 24 23  2  0
M  END
$$$$
