DAR.pdb
     RDKit          3D

 25 24  0  0  1  0  0  0  0  0999 V2000
    7.8344  -17.0456   17.2997 N   0  0  0  0  0  0  0  0  0  0  0  0
    9.2872  -16.8552   17.2967 C   0  0  1  0  0  0  0  0  0  0  0  0
    9.8259  -17.0246   15.9106 C   0  0  0  0  0  0  0  0  0  0  0  0
    9.7596  -18.3868   15.3885 C   0  0  0  0  0  0  0  0  0  0  0  0
    9.1102  -19.2436   16.0562 O   0  0  0  0  0  0  0  0  0  0  0  0
    9.5301  -15.4427   17.7336 C   0  0  0  0  0  0  0  0  0  0  0  0
   10.6625  -14.9589   17.9131 O   0  0  0  0  0  0  0  0  0  0  0  0
   10.3685  -18.7796   14.2114 O   0  0  0  0  0  0  0  0  0  0  0  0
    7.3613  -12.4511   18.3554 C   0  0  0  0  0  0  0  0  0  0  0  0
    8.6194  -13.2927   18.5617 C   0  0  2  0  0  0  0  0  0  0  0  0
    8.4145  -14.5790   17.9640 N   0  0  0  0  0  0  0  0  0  0  0  0
    8.8586  -13.3837   20.0463 C   0  0  0  0  0  0  0  0  0  0  0  0
    9.0331  -12.3343   20.7061 O   0  0  0  0  0  0  0  0  0  0  0  0
    5.2796  -12.4675   26.7577 N   0  0  0  0  0  0  0  0  0  0  0  0
    6.4914  -12.9747   27.3276 C   0  0  0  0  0  0  0  0  0  0  0  0
    6.8581  -12.6689   28.5391 N   0  0  0  0  0  0  0  0  0  0  0  0
    7.2661  -13.8267   26.5016 N   0  0  0  0  0  0  0  0  0  0  0  0
    7.0078  -13.8417   25.0819 C   0  0  0  0  0  0  0  0  0  0  0  0
    7.9567  -14.8000   24.3538 C   0  0  0  0  0  0  0  0  0  0  0  0
    7.8335  -14.6403   22.8789 C   0  0  0  0  0  0  0  0  0  0  0  0
    9.0837  -14.8379   22.1146 C   0  0  2  0  0  0  0  0  0  0  0  0
    8.8870  -14.6345   20.7003 N   0  0  0  0  0  0  0  0  0  0  0  0
    9.8206  -16.0891   22.3598 C   0  0  0  0  0  0  0  0  0  0  0  0
   10.0854  -16.4062   23.5390 O   0  0  0  0  0  0  0  0  0  0  0  0
   10.2549  -16.9645   21.3760 O   0  0  0  0  0  0  0  0  0  0  0  0
  2  1  1  6
  2  3  1  0
  3  4  1  0
  4  5  2  0
  4  8  1  0
  6  7  2  0
  6  2  1  0
 10  9  1  1
 10 12  1  0
 10 11  1  0
 11  6  1  0
 12 22  1  0
 13 12  2  0
 15 16  2  0
 15 14  1  0
 17 15  1  0
 18 17  1  0
 19 18  1  0
 21 20  1  1
 20 19  1  0
 22 21  1  0
 23 25  1  0
 23 21  1  0
 24 23  2  0
M  END
$$$$
