DAR.pdb
     RDKit          3D

 25 24  0  0  1  0  0  0  0  0999 V2000
    9.0073  -16.4692   16.7840 N   0  0  0  0  0  0  0  0  0  0  0  0
   10.1292  -16.6978   17.6984 C   0  0  1  0  0  0  0  0  0  0  0  0
   11.4238  -16.3954   17.0107 C   0  0  0  0  0  0  0  0  0  0  0  0
   11.7715  -17.3104   15.9269 C   0  0  0  0  0  0  0  0  0  0  0  0
   10.9165  -18.1818   15.5932 O   0  0  0  0  0  0  0  0  0  0  0  0
    9.9548  -15.7338   18.8321 C   0  0  0  0  0  0  0  0  0  0  0  0
   10.7717  -15.6040   19.7619 O   0  0  0  0  0  0  0  0  0  0  0  0
   12.9797  -17.2699   15.2567 O   0  0  0  0  0  0  0  0  0  0  0  0
    7.2780  -13.2696   19.7833 C   0  0  0  0  0  0  0  0  0  0  0  0
    8.4821  -14.1671   20.0625 C   0  0  2  0  0  0  0  0  0  0  0  0
    8.7924  -14.9027   18.8724 N   0  0  0  0  0  0  0  0  0  0  0  0
    8.1115  -15.0685   21.2114 C   0  0  0  0  0  0  0  0  0  0  0  0
    7.7102  -16.2307   20.9760 O   0  0  0  0  0  0  0  0  0  0  0  0
    9.8457  -13.4921   29.7588 N   0  0  0  0  0  0  0  0  0  0  0  0
   10.0661  -14.9038   29.6636 C   0  0  0  0  0  0  0  0  0  0  0  0
   10.6638  -15.5683   30.6107 N   0  0  0  0  0  0  0  0  0  0  0  0
    9.5974  -15.5352   28.4847 N   0  0  0  0  0  0  0  0  0  0  0  0
    9.5088  -14.7615   27.2697 C   0  0  0  0  0  0  0  0  0  0  0  0
    8.9230  -15.5920   26.1226 C   0  0  0  0  0  0  0  0  0  0  0  0
    8.8626  -14.7885   24.8709 C   0  0  0  0  0  0  0  0  0  0  0  0
    8.2324  -15.4631   23.7159 C   0  0  2  0  0  0  0  0  0  0  0  0
    8.2121  -14.6197   22.5462 N   0  0  0  0  0  0  0  0  0  0  0  0
    6.9082  -16.0667   23.9416 C   0  0  0  0  0  0  0  0  0  0  0  0
    5.8936  -15.4402   23.5679 O   0  0  0  0  0  0  0  0  0  0  0  0
    6.6841  -17.2951   24.5446 O   0  0  0  0  0  0  0  0  0  0  0  0
  2  1  1  6
  2  3  1  0
  3  4  1  0
  4  5  2  0
  4  8  1  0
  6  7  2  0
  6  2  1  0
 10  9  1  6
 10 12  1  0
 10 11  1  0
 11  6  1  0
 12 22  1  0
 13 12  2  0
 15 16  2  0
 15 14  1  0
 17 15  1  0
 18 17  1  0
 19 18  1  0
 21 20  1  1
 20 19  1  0
 22 21  1  0
 23 25  1  0
 23 21  1  0
 24 23  2  0
M  END
$$$$
