HSR.pdb
     RDKit          3D

 28 28  0  0  1  0  0  0  0  0999 V2000
    8.1853  -13.5456   16.2079 N   0  0  0  0  0  0  0  0  0  0  0  0
    8.5919  -14.6665   16.9961 C   0  0  1  0  0  0  0  0  0  0  0  0
    9.8939  -15.2481   16.4901 C   0  0  0  0  0  0  0  0  0  0  0  0
    9.6101  -15.8985   15.1778 C   0  0  0  0  0  0  0  0  0  0  0  0
    8.9934  -17.1407   15.0027 C   0  0  0  0  0  0  0  0  0  0  0  0
    8.9000  -17.4112   13.6946 N   0  0  0  0  0  0  0  0  0  0  0  0
    9.4354  -16.3851   13.0296 C   0  0  0  0  0  0  0  0  0  0  0  0
    9.8688  -15.4619   13.9354 N   0  0  0  0  0  0  0  0  0  0  0  0
    8.6839  -14.2650   18.4198 C   0  0  0  0  0  0  0  0  0  0  0  0
    9.4723  -13.3630   18.8234 O   0  0  0  0  0  0  0  0  0  0  0  0
    6.1926  -16.2392   20.9780 O   0  0  0  0  0  0  0  0  0  0  0  0
    6.5273  -14.9243   21.3343 C   0  0  0  0  0  0  0  0  0  0  0  0
    7.9088  -14.6183   20.7906 C   0  0  2  0  0  0  0  0  0  0  0  0
    7.8722  -14.8983   19.3757 N   0  0  0  0  0  0  0  0  0  0  0  0
    8.9338  -15.4628   21.4509 C   0  0  0  0  0  0  0  0  0  0  0  0
    9.3780  -16.4991   20.8906 O   0  0  0  0  0  0  0  0  0  0  0  0
    8.6474  -14.5102   28.3073 N   0  0  0  0  0  0  0  0  0  0  0  0
    9.9227  -15.0418   28.7226 C   0  0  0  0  0  0  0  0  0  0  0  0
   10.4870  -14.5885   29.7691 N   0  0  0  0  0  0  0  0  0  0  0  0
   10.5611  -16.0689   27.9766 N   0  0  0  0  0  0  0  0  0  0  0  0
   11.6483  -15.7573   27.0748 C   0  0  0  0  0  0  0  0  0  0  0  0
   11.4185  -16.3608   25.7090 C   0  0  0  0  0  0  0  0  0  0  0  0
   10.5868  -15.4991   24.8233 C   0  0  0  0  0  0  0  0  0  0  0  0
   10.3294  -16.0858   23.4567 C   0  0  2  0  0  0  0  0  0  0  0  0
    9.4719  -15.1531   22.7484 N   0  0  0  0  0  0  0  0  0  0  0  0
    9.7643  -17.4405   23.4976 C   0  0  0  0  0  0  0  0  0  0  0  0
    8.4057  -17.7006   23.3632 O   0  0  0  0  0  0  0  0  0  0  0  0
   10.5118  -18.4349   23.6599 O   0  0  0  0  0  0  0  0  0  0  0  0
  2  1  1  6
  2  9  1  0
  3  2  1  0
  4  3  1  0
  4  5  2  0
  6  5  1  0
  7  8  2  0
  7  6  1  0
  8  4  1  0
  9 10  2  0
 11 12  1  0
 13 12  1  1
 13 15  1  0
 14  9  1  0
 14 13  1  0
 15 16  2  0
 18 17  1  0
 19 18  2  0
 20 18  1  0
 21 20  1  0
 22 21  1  0
 23 22  1  0
 24 23  1  1
 24 26  1  0
 25 24  1  0
 25 15  1  0
 26 28  2  0
 26 27  1  0
M  END
$$$$
