HSR.pdb
     RDKit          3D

 28 28  0  0  1  0  0  0  0  0999 V2000
   11.1262  -13.4198   18.8629 N   0  0  0  0  0  0  0  0  0  0  0  0
   10.7535  -14.7961   18.9636 C   0  0  1  0  0  0  0  0  0  0  0  0
    9.6306  -15.1307   18.0062 C   0  0  0  0  0  0  0  0  0  0  0  0
    8.5151  -14.1784   18.2791 C   0  0  0  0  0  0  0  0  0  0  0  0
    7.9011  -13.3528   17.3329 C   0  0  0  0  0  0  0  0  0  0  0  0
    6.9414  -12.6320   17.9264 N   0  0  0  0  0  0  0  0  0  0  0  0
    6.9218  -12.9690   19.2179 C   0  0  0  0  0  0  0  0  0  0  0  0
    7.8826  -13.9131   19.4328 N   0  0  0  0  0  0  0  0  0  0  0  0
   11.9434  -15.6504   18.7379 C   0  0  0  0  0  0  0  0  0  0  0  0
   11.8960  -16.9124   18.7934 O   0  0  0  0  0  0  0  0  0  0  0  0
   15.8640  -13.9173   18.3772 O   0  0  0  0  0  0  0  0  0  0  0  0
   15.3495  -14.8748   17.4905 C   0  0  0  0  0  0  0  0  0  0  0  0
   14.4132  -15.7852   18.2600 C   0  0  2  0  0  0  0  0  0  0  0  0
   13.1829  -15.0555   18.4491 N   0  0  0  0  0  0  0  0  0  0  0  0
   14.9959  -16.1511   19.5740 C   0  0  0  0  0  0  0  0  0  0  0  0
   14.7388  -15.4779   20.6064 O   0  0  0  0  0  0  0  0  0  0  0  0
   18.3211  -23.7603   24.8717 N   0  0  0  0  0  0  0  0  0  0  0  0
   17.9540  -23.2017   23.5931 C   0  0  0  0  0  0  0  0  0  0  0  0
   17.8458  -23.9614   22.5780 N   0  0  0  0  0  0  0  0  0  0  0  0
   17.7105  -21.8092   23.4500 N   0  0  0  0  0  0  0  0  0  0  0  0
   17.2882  -21.2619   22.1793 C   0  0  0  0  0  0  0  0  0  0  0  0
   17.0021  -19.7824   22.2869 C   0  0  0  0  0  0  0  0  0  0  0  0
   16.5172  -19.1881   21.0100 C   0  0  0  0  0  0  0  0  0  0  0  0
   16.3331  -17.6908   21.0572 C   0  0  2  0  0  0  0  0  0  0  0  0
   15.8742  -17.2774   19.7437 N   0  0  0  0  0  0  0  0  0  0  0  0
   17.5380  -16.9653   21.4796 C   0  0  0  0  0  0  0  0  0  0  0  0
   17.9062  -16.8157   22.8113 O   0  0  0  0  0  0  0  0  0  0  0  0
   18.2951  -16.4425   20.6267 O   0  0  0  0  0  0  0  0  0  0  0  0
  2  1  1  6
  2  9  1  0
  3  2  1  0
  4  3  1  0
  4  5  2  0
  6  5  1  0
  7  8  2  0
  7  6  1  0
  8  4  1  0
  9 10  2  0
 11 12  1  0
 13 12  1  1
 13 15  1  0
 14  9  1  0
 14 13  1  0
 15 16  2  0
 18 17  1  0
 19 18  2  0
 20 18  1  0
 21 20  1  0
 22 21  1  0
 23 22  1  0
 24 23  1  6
 24 26  1  0
 25 24  1  0
 25 15  1  0
 26 28  2  0
 26 27  1  0
M  END
$$$$
