HSR.pdb
     RDKit          3D

 28 28  0  0  1  0  0  0  0  0999 V2000
   10.3996  -16.7464   16.6287 N   0  0  0  0  0  0  0  0  0  0  0  0
    9.1432  -16.2520   17.0977 C   0  0  1  0  0  0  0  0  0  0  0  0
    8.1156  -17.3595   17.1810 C   0  0  0  0  0  0  0  0  0  0  0  0
    7.5677  -17.5617   15.8081 C   0  0  0  0  0  0  0  0  0  0  0  0
    7.4696  -16.5789   14.8190 C   0  0  0  0  0  0  0  0  0  0  0  0
    6.9315  -17.1108   13.7143 N   0  0  0  0  0  0  0  0  0  0  0  0
    6.6829  -18.3982   13.9643 C   0  0  0  0  0  0  0  0  0  0  0  0
    7.0715  -18.6732   15.2426 N   0  0  0  0  0  0  0  0  0  0  0  0
    9.3319  -15.5758   18.4030 C   0  0  0  0  0  0  0  0  0  0  0  0
   10.2470  -15.9006   19.2123 O   0  0  0  0  0  0  0  0  0  0  0  0
    6.2086  -13.4628   19.8176 O   0  0  0  0  0  0  0  0  0  0  0  0
    7.4267  -12.7981   20.0234 C   0  0  0  0  0  0  0  0  0  0  0  0
    8.5380  -13.8289   20.0355 C   0  0  2  0  0  0  0  0  0  0  0  0
    8.4713  -14.5298   18.7760 N   0  0  0  0  0  0  0  0  0  0  0  0
    8.3611  -14.7813   21.1587 C   0  0  0  0  0  0  0  0  0  0  0  0
    7.5498  -15.7403   21.0729 O   0  0  0  0  0  0  0  0  0  0  0  0
   11.1047  -19.9310   22.3851 N   0  0  0  0  0  0  0  0  0  0  0  0
   12.3273  -19.3509   21.8846 C   0  0  0  0  0  0  0  0  0  0  0  0
   12.9767  -19.9404   20.9627 N   0  0  0  0  0  0  0  0  0  0  0  0
   12.8193  -18.1252   22.4086 N   0  0  0  0  0  0  0  0  0  0  0  0
   12.1115  -17.4399   23.4678 C   0  0  0  0  0  0  0  0  0  0  0  0
   10.8055  -16.8644   22.9722 C   0  0  0  0  0  0  0  0  0  0  0  0
   10.0685  -16.1045   24.0201 C   0  0  0  0  0  0  0  0  0  0  0  0
    8.7742  -15.4921   23.5426 C   0  0  2  0  0  0  0  0  0  0  0  0
    9.0935  -14.6677   22.3914 N   0  0  0  0  0  0  0  0  0  0  0  0
    8.0617  -14.7414   24.5844 C   0  0  0  0  0  0  0  0  0  0  0  0
    7.8797  -13.3644   24.5376 O   0  0  0  0  0  0  0  0  0  0  0  0
    7.5809  -15.3369   25.5784 O   0  0  0  0  0  0  0  0  0  0  0  0
  2  1  1  1
  2  9  1  0
  3  2  1  0
  4  3  1  0
  4  5  2  0
  6  5  1  0
  7  8  2  0
  7  6  1  0
  8  4  1  0
  9 10  2  0
 11 12  1  0
 13 12  1  6
 13 15  1  0
 14  9  1  0
 14 13  1  0
 15 16  2  0
 18 17  1  0
 19 18  2  0
 20 18  1  0
 21 20  1  0
 22 21  1  0
 23 22  1  0
 24 23  1  1
 24 26  1  0
 25 24  1  0
 25 15  1  0
 26 28  2  0
 26 27  1  0
M  END
$$$$
