HSR.pdb
     RDKit          3D

 28 28  0  0  1  0  0  0  0  0999 V2000
    8.5578  -17.1813   17.0019 N   0  0  0  0  0  0  0  0  0  0  0  0
    9.3382  -15.9849   16.9497 C   0  0  1  0  0  0  0  0  0  0  0  0
    9.0231  -15.1794   15.7082 C   0  0  0  0  0  0  0  0  0  0  0  0
    9.4482  -15.9918   14.5313 C   0  0  0  0  0  0  0  0  0  0  0  0
   10.1960  -17.1716   14.5853 C   0  0  0  0  0  0  0  0  0  0  0  0
   10.3938  -17.6308   13.3432 N   0  0  0  0  0  0  0  0  0  0  0  0
    9.7984  -16.7853   12.4991 C   0  0  0  0  0  0  0  0  0  0  0  0
    9.2212  -15.7849   13.2248 N   0  0  0  0  0  0  0  0  0  0  0  0
    9.1233  -15.1977   18.1869 C   0  0  0  0  0  0  0  0  0  0  0  0
    9.6981  -14.0920   18.3990 O   0  0  0  0  0  0  0  0  0  0  0  0
    6.1410  -16.4184   20.7619 O   0  0  0  0  0  0  0  0  0  0  0  0
    6.5725  -15.0837   20.7495 C   0  0  0  0  0  0  0  0  0  0  0  0
    8.0617  -15.0649   20.4677 C   0  0  2  0  0  0  0  0  0  0  0  0
    8.2502  -15.6801   19.1762 N   0  0  0  0  0  0  0  0  0  0  0  0
    8.8038  -15.8212   21.5056 C   0  0  0  0  0  0  0  0  0  0  0  0
    9.1682  -17.0095   21.3048 O   0  0  0  0  0  0  0  0  0  0  0  0
   10.5981  -16.5762   29.7247 N   0  0  0  0  0  0  0  0  0  0  0  0
   10.1480  -15.2212   29.5178 C   0  0  0  0  0  0  0  0  0  0  0  0
    9.8880  -14.4807   30.5194 N   0  0  0  0  0  0  0  0  0  0  0  0
    9.9899  -14.6989   28.2058 N   0  0  0  0  0  0  0  0  0  0  0  0
   11.0644  -14.7911   27.2418 C   0  0  0  0  0  0  0  0  0  0  0  0
   10.7270  -15.7627   26.1353 C   0  0  0  0  0  0  0  0  0  0  0  0
   10.0189  -15.1216   24.9924 C   0  0  0  0  0  0  0  0  0  0  0  0
    9.7787  -16.0424   23.8207 C   0  0  2  0  0  0  0  0  0  0  0  0
    9.1455  -15.2514   22.7814 N   0  0  0  0  0  0  0  0  0  0  0  0
    8.9970  -17.2370   24.1650 C   0  0  0  0  0  0  0  0  0  0  0  0
    9.5711  -18.4057   24.6507 O   0  0  0  0  0  0  0  0  0  0  0  0
    7.7500  -17.2402   24.0275 O   0  0  0  0  0  0  0  0  0  0  0  0
  2  1  1  1
  2  9  1  0
  3  2  1  0
  4  3  1  0
  4  5  2  0
  6  5  1  0
  7  8  2  0
  7  6  1  0
  8  4  1  0
  9 10  2  0
 11 12  1  0
 13 12  1  1
 13 15  1  0
 14  9  1  0
 14 13  1  0
 15 16  2  0
 18 17  1  0
 19 18  2  0
 20 18  1  0
 21 20  1  0
 22 21  1  0
 23 22  1  0
 24 23  1  1
 24 26  1  0
 25 24  1  0
 25 15  1  0
 26 28  2  0
 26 27  1  0
M  END
$$$$
