HSR.pdb
     RDKit          3D

 28 28  0  0  1  0  0  0  0  0999 V2000
    8.8027  -17.0346   19.5713 N   0  0  0  0  0  0  0  0  0  0  0  0
    9.2538  -16.2728   20.6935 C   0  0  1  0  0  0  0  0  0  0  0  0
    8.1732  -15.3374   21.1902 C   0  0  0  0  0  0  0  0  0  0  0  0
    8.0358  -14.2432   20.1854 C   0  0  0  0  0  0  0  0  0  0  0  0
    8.8062  -14.1013   19.0277 C   0  0  0  0  0  0  0  0  0  0  0  0
    8.4114  -13.0092   18.3610 N   0  0  0  0  0  0  0  0  0  0  0  0
    7.4165  -12.4498   19.0530 C   0  0  0  0  0  0  0  0  0  0  0  0
    7.1874  -13.2034   20.1667 N   0  0  0  0  0  0  0  0  0  0  0  0
    9.7223  -17.1895   21.7597 C   0  0  0  0  0  0  0  0  0  0  0  0
    9.1224  -18.2649   22.0454 O   0  0  0  0  0  0  0  0  0  0  0  0
   13.5347  -16.6008   23.7607 O   0  0  0  0  0  0  0  0  0  0  0  0
   12.9573  -17.7593   23.2200 C   0  0  0  0  0  0  0  0  0  0  0  0
   11.4672  -17.7247   23.4961 C   0  0  2  0  0  0  0  0  0  0  0  0
   10.8765  -16.8706   22.4944 N   0  0  0  0  0  0  0  0  0  0  0  0
   11.1949  -17.1854   24.8507 C   0  0  0  0  0  0  0  0  0  0  0  0
   11.1396  -15.9442   25.0545 O   0  0  0  0  0  0  0  0  0  0  0  0
   11.7400  -21.0809   32.6737 N   0  0  0  0  0  0  0  0  0  0  0  0
   11.2099  -19.7759   32.9860 C   0  0  0  0  0  0  0  0  0  0  0  0
   11.1772  -19.3785   34.1943 N   0  0  0  0  0  0  0  0  0  0  0  0
   10.7212  -18.9239   31.9592 N   0  0  0  0  0  0  0  0  0  0  0  0
   10.7994  -19.3233   30.5711 C   0  0  0  0  0  0  0  0  0  0  0  0
   10.2644  -18.2445   29.6587 C   0  0  0  0  0  0  0  0  0  0  0  0
   10.3517  -18.6051   28.2161 C   0  0  0  0  0  0  0  0  0  0  0  0
   10.8433  -17.4868   27.3295 C   0  0  2  0  0  0  0  0  0  0  0  0
   10.9812  -18.0341   25.9922 N   0  0  0  0  0  0  0  0  0  0  0  0
   12.0845  -16.8636   27.8065 C   0  0  0  0  0  0  0  0  0  0  0  0
   13.3415  -17.2102   27.3255 O   0  0  0  0  0  0  0  0  0  0  0  0
   12.0483  -15.9725   28.6889 O   0  0  0  0  0  0  0  0  0  0  0  0
  2  1  1  6
  2  9  1  0
  3  2  1  0
  4  3  1  0
  4  5  2  0
  6  5  1  0
  7  8  2  0
  7  6  1  0
  8  4  1  0
  9 10  2  0
 11 12  1  0
 13 12  1  6
 13 15  1  0
 14  9  1  0
 14 13  1  0
 15 16  2  0
 18 17  1  0
 19 18  2  0
 20 18  1  0
 21 20  1  0
 22 21  1  0
 23 22  1  0
 24 23  1  1
 24 26  1  0
 25 24  1  0
 25 15  1  0
 26 28  2  0
 26 27  1  0
M  END
$$$$
