HSR.pdb
     RDKit          3D

 28 28  0  0  1  0  0  0  0  0999 V2000
    7.9713  -16.9160   19.5860 N   0  0  0  0  0  0  0  0  0  0  0  0
    8.6883  -16.1902   20.5872 C   0  0  1  0  0  0  0  0  0  0  0  0
    7.9310  -14.9515   21.0132 C   0  0  0  0  0  0  0  0  0  0  0  0
    7.9169  -14.0171   19.8502 C   0  0  0  0  0  0  0  0  0  0  0  0
    8.4829  -14.2698   18.5973 C   0  0  0  0  0  0  0  0  0  0  0  0
    8.2832  -13.2149   17.7972 N   0  0  0  0  0  0  0  0  0  0  0  0
    7.6097  -12.2983   18.4960 C   0  0  0  0  0  0  0  0  0  0  0  0
    7.3863  -12.7884   19.7492 N   0  0  0  0  0  0  0  0  0  0  0  0
    8.9772  -17.0818   21.7353 C   0  0  0  0  0  0  0  0  0  0  0  0
    8.0660  -17.5912   22.4481 O   0  0  0  0  0  0  0  0  0  0  0  0
   12.9529  -17.7460   22.6036 O   0  0  0  0  0  0  0  0  0  0  0  0
   12.0660  -18.8195   22.7731 C   0  0  0  0  0  0  0  0  0  0  0  0
   10.7046  -18.2621   23.1386 C   0  0  2  0  0  0  0  0  0  0  0  0
   10.3091  -17.3864   22.0623 N   0  0  0  0  0  0  0  0  0  0  0  0
   10.7697  -17.5061   24.4130 C   0  0  0  0  0  0  0  0  0  0  0  0
   11.4455  -16.4477   24.5043 O   0  0  0  0  0  0  0  0  0  0  0  0
    5.8047  -13.2283   25.1415 N   0  0  0  0  0  0  0  0  0  0  0  0
    6.9543  -12.5591   25.7002 C   0  0  0  0  0  0  0  0  0  0  0  0
    7.0918  -11.3034   25.5477 N   0  0  0  0  0  0  0  0  0  0  0  0
    7.9400  -13.2852   26.4215 N   0  0  0  0  0  0  0  0  0  0  0  0
    7.8953  -14.7298   26.4797 C   0  0  0  0  0  0  0  0  0  0  0  0
    8.9659  -15.2755   27.3953 C   0  0  0  0  0  0  0  0  0  0  0  0
    9.0318  -16.7636   27.3932 C   0  0  0  0  0  0  0  0  0  0  0  0
   10.3409  -17.3224   26.8912 C   0  0  2  0  0  0  0  0  0  0  0  0
   10.0763  -17.9300   25.5998 N   0  0  0  0  0  0  0  0  0  0  0  0
   10.9757  -18.2590   27.8274 C   0  0  0  0  0  0  0  0  0  0  0  0
   11.4661  -19.5011   27.4428 O   0  0  0  0  0  0  0  0  0  0  0  0
   11.0988  -17.9585   29.0392 O   0  0  0  0  0  0  0  0  0  0  0  0
  2  1  1  6
  2  9  1  0
  3  2  1  0
  4  3  1  0
  4  5  2  0
  6  5  1  0
  7  8  2  0
  7  6  1  0
  8  4  1  0
  9 10  2  0
 11 12  1  0
 13 12  1  6
 13 15  1  0
 14  9  1  0
 14 13  1  0
 15 16  2  0
 18 17  1  0
 19 18  2  0
 20 18  1  0
 21 20  1  0
 22 21  1  0
 23 22  1  0
 24 23  1  1
 24 26  1  0
 25 24  1  0
 25 15  1  0
 26 28  2  0
 26 27  1  0
M  END
$$$$
