HSR.pdb
     RDKit          3D

 28 28  0  0  1  0  0  0  0  0999 V2000
   10.8333  -13.4436   18.2724 N   0  0  0  0  0  0  0  0  0  0  0  0
    9.6279  -13.9434   18.8558 C   0  0  1  0  0  0  0  0  0  0  0  0
    9.2264  -15.2641   18.2360 C   0  0  0  0  0  0  0  0  0  0  0  0
    8.6930  -14.9720   16.8736 C   0  0  0  0  0  0  0  0  0  0  0  0
    8.6016  -13.7047   16.2909 C   0  0  0  0  0  0  0  0  0  0  0  0
    8.0763  -13.8153   15.0642 N   0  0  0  0  0  0  0  0  0  0  0  0
    7.8296  -15.1086   14.8443 C   0  0  0  0  0  0  0  0  0  0  0  0
    8.2062  -15.8144   15.9491 N   0  0  0  0  0  0  0  0  0  0  0  0
    9.7950  -14.0519   20.3244 C   0  0  0  0  0  0  0  0  0  0  0  0
   10.9285  -14.0378   20.8837 O   0  0  0  0  0  0  0  0  0  0  0  0
    6.5308  -15.2230   22.6203 O   0  0  0  0  0  0  0  0  0  0  0  0
    7.2844  -14.1335   23.0817 C   0  0  0  0  0  0  0  0  0  0  0  0
    8.7075  -14.2911   22.5842 C   0  0  2  0  0  0  0  0  0  0  0  0
    8.6626  -14.1759   21.1466 N   0  0  0  0  0  0  0  0  0  0  0  0
    9.2580  -15.6125   22.9726 C   0  0  0  0  0  0  0  0  0  0  0  0
    8.9871  -16.6474   22.3087 O   0  0  0  0  0  0  0  0  0  0  0  0
   15.3513  -14.3343   21.8380 N   0  0  0  0  0  0  0  0  0  0  0  0
   15.0282  -15.3555   20.8713 C   0  0  0  0  0  0  0  0  0  0  0  0
   15.2542  -15.1518   19.6358 N   0  0  0  0  0  0  0  0  0  0  0  0
   14.4586  -16.5912   21.2806 N   0  0  0  0  0  0  0  0  0  0  0  0
   14.0931  -16.8121   22.6626 C   0  0  0  0  0  0  0  0  0  0  0  0
   12.5928  -16.8638   22.8320 C   0  0  0  0  0  0  0  0  0  0  0  0
   12.1707  -16.9866   24.2552 C   0  0  0  0  0  0  0  0  0  0  0  0
   10.6770  -17.0835   24.4495 C   0  0  2  0  0  0  0  0  0  0  0  0
   10.1194  -15.7868   24.1113 N   0  0  0  0  0  0  0  0  0  0  0  0
   10.2886  -17.5223   25.7960 C   0  0  0  0  0  0  0  0  0  0  0  0
   10.5758  -18.7875   26.2944 O   0  0  0  0  0  0  0  0  0  0  0  0
    9.6672  -16.7463   26.5613 O   0  0  0  0  0  0  0  0  0  0  0  0
  2  1  1  6
  2  9  1  0
  3  2  1  0
  4  3  1  0
  4  5  2  0
  6  5  1  0
  7  8  2  0
  7  6  1  0
  8  4  1  0
  9 10  2  0
 11 12  1  0
 13 12  1  6
 13 15  1  0
 14  9  1  0
 14 13  1  0
 15 16  2  0
 18 17  1  0
 19 18  2  0
 20 18  1  0
 21 20  1  0
 22 21  1  0
 23 22  1  0
 24 23  1  1
 24 26  1  0
 25 24  1  0
 25 15  1  0
 26 28  2  0
 26 27  1  0
M  END
$$$$
