HSR.pdb
     RDKit          3D

 28 28  0  0  1  0  0  0  0  0999 V2000
    9.4879  -15.2976   14.1978 N   0  0  0  0  0  0  0  0  0  0  0  0
    8.9365  -15.7690   15.4293 C   0  0  1  0  0  0  0  0  0  0  0  0
    9.1797  -17.2520   15.6059 C   0  0  0  0  0  0  0  0  0  0  0  0
    8.3534  -17.9625   14.5869 C   0  0  0  0  0  0  0  0  0  0  0  0
    6.9853  -17.7717   14.3730 C   0  0  0  0  0  0  0  0  0  0  0  0
    6.5731  -18.5734   13.3829 N   0  0  0  0  0  0  0  0  0  0  0  0
    7.6304  -19.2688   12.9581 C   0  0  0  0  0  0  0  0  0  0  0  0
    8.7170  -18.8955   13.6933 N   0  0  0  0  0  0  0  0  0  0  0  0
    9.4915  -14.9815   16.5555 C   0  0  0  0  0  0  0  0  0  0  0  0
   10.7310  -14.7799   16.6999 O   0  0  0  0  0  0  0  0  0  0  0  0
    6.8402  -14.0870   19.5226 O   0  0  0  0  0  0  0  0  0  0  0  0
    7.8389  -13.1201   19.3338 C   0  0  0  0  0  0  0  0  0  0  0  0
    9.0556  -13.7992   18.7369 C   0  0  2  0  0  0  0  0  0  0  0  0
    8.6241  -14.4277   17.5119 N   0  0  0  0  0  0  0  0  0  0  0  0
    9.6003  -14.8174   19.6678 C   0  0  0  0  0  0  0  0  0  0  0  0
    9.2584  -16.0258   19.5778 O   0  0  0  0  0  0  0  0  0  0  0  0
   17.2303  -13.3767   19.4226 N   0  0  0  0  0  0  0  0  0  0  0  0
   16.0967  -13.9204   18.7148 C   0  0  0  0  0  0  0  0  0  0  0  0
   15.6853  -13.3570   17.6506 N   0  0  0  0  0  0  0  0  0  0  0  0
   15.4296  -15.0811   19.1908 N   0  0  0  0  0  0  0  0  0  0  0  0
   14.7871  -15.0822   20.4867 C   0  0  0  0  0  0  0  0  0  0  0  0
   13.3056  -15.3518   20.3645 C   0  0  0  0  0  0  0  0  0  0  0  0
   12.5840  -15.2414   21.6629 C   0  0  0  0  0  0  0  0  0  0  0  0
   11.1022  -15.5132   21.5701 C   0  0  2  0  0  0  0  0  0  0  0  0
   10.5355  -14.4901   20.7105 N   0  0  0  0  0  0  0  0  0  0  0  0
   10.4348  -15.5746   22.8768 C   0  0  0  0  0  0  0  0  0  0  0  0
   10.6655  -16.5875   23.8000 O   0  0  0  0  0  0  0  0  0  0  0  0
    9.6114  -14.6889   23.2105 O   0  0  0  0  0  0  0  0  0  0  0  0
  2  1  1  6
  2  9  1  0
  3  2  1  0
  4  3  1  0
  4  5  2  0
  6  5  1  0
  7  8  2  0
  7  6  1  0
  8  4  1  0
  9 10  2  0
 11 12  1  0
 13 12  1  1
 13 15  1  0
 14  9  1  0
 14 13  1  0
 15 16  2  0
 18 17  1  0
 19 18  2  0
 20 18  1  0
 21 20  1  0
 22 21  1  0
 23 22  1  0
 24 23  1  1
 24 26  1  0
 25 24  1  0
 25 15  1  0
 26 28  2  0
 26 27  1  0
M  END
$$$$
