HSR.pdb
     RDKit          3D

 28 28  0  0  1  0  0  0  0  0999 V2000
   11.1560  -15.0702   15.8037 N   0  0  0  0  0  0  0  0  0  0  0  0
   10.2377  -15.7705   16.6460 C   0  0  1  0  0  0  0  0  0  0  0  0
   10.6143  -17.2306   16.7716 C   0  0  0  0  0  0  0  0  0  0  0  0
   10.1869  -17.9098   15.5140 C   0  0  0  0  0  0  0  0  0  0  0  0
    8.9175  -18.4407   15.2677 C   0  0  0  0  0  0  0  0  0  0  0  0
    8.8881  -18.9739   14.0398 N   0  0  0  0  0  0  0  0  0  0  0  0
   10.0942  -18.8016   13.4945 C   0  0  0  0  0  0  0  0  0  0  0  0
   10.8868  -18.1520   14.3947 N   0  0  0  0  0  0  0  0  0  0  0  0
   10.1685  -15.1034   17.9676 C   0  0  0  0  0  0  0  0  0  0  0  0
   11.2005  -14.7871   18.6257 O   0  0  0  0  0  0  0  0  0  0  0  0
    6.4682  -14.8300   19.7415 O   0  0  0  0  0  0  0  0  0  0  0  0
    7.2838  -13.6942   19.8540 C   0  0  0  0  0  0  0  0  0  0  0  0
    8.7321  -14.1378   19.7982 C   0  0  2  0  0  0  0  0  0  0  0  0
    8.9172  -14.8010   18.5302 N   0  0  0  0  0  0  0  0  0  0  0  0
    9.0410  -15.0692   20.9104 C   0  0  0  0  0  0  0  0  0  0  0  0
    9.2475  -16.2920   20.6927 O   0  0  0  0  0  0  0  0  0  0  0  0
   10.0562  -15.7139   29.6860 N   0  0  0  0  0  0  0  0  0  0  0  0
   10.6866  -14.7089   28.8649 C   0  0  0  0  0  0  0  0  0  0  0  0
   11.7966  -14.2019   29.2254 N   0  0  0  0  0  0  0  0  0  0  0  0
   10.0833  -14.2749   27.6538 N   0  0  0  0  0  0  0  0  0  0  0  0
    8.8958  -14.9272   27.1472 C   0  0  0  0  0  0  0  0  0  0  0  0
    9.1873  -15.6858   25.8736 C   0  0  0  0  0  0  0  0  0  0  0  0
    9.0458  -14.8475   24.6505 C   0  0  0  0  0  0  0  0  0  0  0  0
    9.3257  -15.5832   23.3626 C   0  0  2  0  0  0  0  0  0  0  0  0
    9.1218  -14.6380   22.2802 N   0  0  0  0  0  0  0  0  0  0  0  0
    8.5219  -16.8010   23.1969 C   0  0  0  0  0  0  0  0  0  0  0  0
    7.2723  -16.8087   22.5887 O   0  0  0  0  0  0  0  0  0  0  0  0
    8.9503  -17.9049   23.6113 O   0  0  0  0  0  0  0  0  0  0  0  0
  2  1  1  6
  2  9  1  0
  3  2  1  0
  4  3  1  0
  4  5  2  0
  6  5  1  0
  7  8  2  0
  7  6  1  0
  8  4  1  0
  9 10  2  0
 11 12  1  0
 13 12  1  1
 13 15  1  0
 14  9  1  0
 14 13  1  0
 15 16  2  0
 18 17  1  0
 19 18  2  0
 20 18  1  0
 21 20  1  0
 22 21  1  0
 23 22  1  0
 24 23  1  1
 24 26  1  0
 25 24  1  0
 25 15  1  0
 26 28  2  0
 26 27  1  0
M  END
$$$$
