HSR.pdb
     RDKit          3D

 28 28  0  0  1  0  0  0  0  0999 V2000
    7.8836  -12.7996   16.8572 N   0  0  0  0  0  0  0  0  0  0  0  0
    8.0605  -14.1212   17.3722 C   0  0  1  0  0  0  0  0  0  0  0  0
    9.1064  -14.8801   16.5851 C   0  0  0  0  0  0  0  0  0  0  0  0
    8.5716  -15.0729   15.2057 C   0  0  0  0  0  0  0  0  0  0  0  0
    7.5574  -15.9642   14.8442 C   0  0  0  0  0  0  0  0  0  0  0  0
    7.3329  -15.8733   13.5273 N   0  0  0  0  0  0  0  0  0  0  0  0
    8.1684  -14.9553   13.0364 C   0  0  0  0  0  0  0  0  0  0  0  0
    8.9244  -14.4669   14.0613 N   0  0  0  0  0  0  0  0  0  0  0  0
    8.3986  -14.0511   18.8135 C   0  0  0  0  0  0  0  0  0  0  0  0
    9.4324  -13.4637   19.2427 O   0  0  0  0  0  0  0  0  0  0  0  0
    6.8239  -15.3503   23.2202 O   0  0  0  0  0  0  0  0  0  0  0  0
    6.5750  -15.2365   21.8443 C   0  0  0  0  0  0  0  0  0  0  0  0
    7.8448  -14.7618   21.1661 C   0  0  2  0  0  0  0  0  0  0  0  0
    7.5508  -14.6541   19.7576 N   0  0  0  0  0  0  0  0  0  0  0  0
    8.9504  -15.7262   21.3836 C   0  0  0  0  0  0  0  0  0  0  0  0
    9.0040  -16.8062   20.7386 O   0  0  0  0  0  0  0  0  0  0  0  0
   17.4000  -15.1581   23.0521 N   0  0  0  0  0  0  0  0  0  0  0  0
   17.1868  -16.5564   22.7676 C   0  0  0  0  0  0  0  0  0  0  0  0
   18.1150  -17.3970   22.9933 N   0  0  0  0  0  0  0  0  0  0  0  0
   15.9497  -17.0109   22.2365 N   0  0  0  0  0  0  0  0  0  0  0  0
   14.8418  -16.0970   22.0642 C   0  0  0  0  0  0  0  0  0  0  0  0
   13.5369  -16.7307   22.4862 C   0  0  0  0  0  0  0  0  0  0  0  0
   12.3649  -15.8303   22.3012 C   0  0  0  0  0  0  0  0  0  0  0  0
   11.0341  -16.4837   22.5850 C   0  0  2  0  0  0  0  0  0  0  0  0
   10.0089  -15.4888   22.3282 N   0  0  0  0  0  0  0  0  0  0  0  0
   10.9352  -17.0487   23.9368 C   0  0  0  0  0  0  0  0  0  0  0  0
   11.6040  -18.2024   24.3280 O   0  0  0  0  0  0  0  0  0  0  0  0
   10.2231  -16.4915   24.8065 O   0  0  0  0  0  0  0  0  0  0  0  0
  2  1  1  6
  2  9  1  0
  3  2  1  0
  4  3  1  0
  4  5  2  0
  6  5  1  0
  7  8  2  0
  7  6  1  0
  8  4  1  0
  9 10  2  0
 11 12  1  0
 13 12  1  1
 13 15  1  0
 14  9  1  0
 14 13  1  0
 15 16  2  0
 18 17  1  0
 19 18  2  0
 20 18  1  0
 21 20  1  0
 22 21  1  0
 23 22  1  0
 24 23  1  1
 24 26  1  0
 25 24  1  0
 25 15  1  0
 26 28  2  0
 26 27  1  0
M  END
$$$$
