HSR.pdb
     RDKit          3D

 28 28  0  0  1  0  0  0  0  0999 V2000
   11.5909  -19.8669   15.5631 N   0  0  0  0  0  0  0  0  0  0  0  0
   11.5626  -20.7206   16.7092 C   0  0  1  0  0  0  0  0  0  0  0  0
   12.1176  -22.0905   16.3853 C   0  0  0  0  0  0  0  0  0  0  0  0
   11.1873  -22.7275   15.4083 C   0  0  0  0  0  0  0  0  0  0  0  0
    9.8109  -22.8941   15.5862 C   0  0  0  0  0  0  0  0  0  0  0  0
    9.2933  -23.5026   14.5115 N   0  0  0  0  0  0  0  0  0  0  0  0
   10.2913  -23.7298   13.6548 C   0  0  0  0  0  0  0  0  0  0  0  0
   11.4474  -23.2565   14.2026 N   0  0  0  0  0  0  0  0  0  0  0  0
   12.2966  -20.0781   17.8250 C   0  0  0  0  0  0  0  0  0  0  0  0
   13.4091  -19.4997   17.6646 O   0  0  0  0  0  0  0  0  0  0  0  0
   10.3912  -19.9088   21.5068 O   0  0  0  0  0  0  0  0  0  0  0  0
   11.2521  -18.8801   21.0964 C   0  0  0  0  0  0  0  0  0  0  0  0
   12.3692  -19.4909   20.2737 C   0  0  2  0  0  0  0  0  0  0  0  0
   11.7531  -20.1007   19.1203 N   0  0  0  0  0  0  0  0  0  0  0  0
   13.1038  -20.5125   21.0590 C   0  0  0  0  0  0  0  0  0  0  0  0
   12.6532  -21.6815   21.1828 O   0  0  0  0  0  0  0  0  0  0  0  0
   19.3883  -18.0192   20.4892 N   0  0  0  0  0  0  0  0  0  0  0  0
   19.7904  -19.2907   19.9385 C   0  0  0  0  0  0  0  0  0  0  0  0
   21.0129  -19.4987   19.6532 N   0  0  0  0  0  0  0  0  0  0  0  0
   18.8369  -20.3188   19.7088 N   0  0  0  0  0  0  0  0  0  0  0  0
   17.4431  -20.1181   20.0394 C   0  0  0  0  0  0  0  0  0  0  0  0
   17.1877  -20.3572   21.5091 C   0  0  0  0  0  0  0  0  0  0  0  0
   16.3350  -21.5513   21.7659 C   0  0  0  0  0  0  0  0  0  0  0  0
   15.0466  -21.2450   22.4900 C   0  0  2  0  0  0  0  0  0  0  0  0
   14.3534  -20.2328   21.7143 N   0  0  0  0  0  0  0  0  0  0  0  0
   15.2423  -20.8380   23.8874 C   0  0  0  0  0  0  0  0  0  0  0  0
   15.8457  -21.6529   24.8378 O   0  0  0  0  0  0  0  0  0  0  0  0
   14.8598  -19.7091   24.2787 O   0  0  0  0  0  0  0  0  0  0  0  0
  2  1  1  6
  2  9  1  0
  3  2  1  0
  4  3  1  0
  4  5  2  0
  6  5  1  0
  7  8  2  0
  7  6  1  0
  8  4  1  0
  9 10  2  0
 11 12  1  0
 13 12  1  1
 13 15  1  0
 14  9  1  0
 14 13  1  0
 15 16  2  0
 18 17  1  0
 19 18  2  0
 20 18  1  0
 21 20  1  0
 22 21  1  0
 23 22  1  0
 24 23  1  6
 24 26  1  0
 25 24  1  0
 25 15  1  0
 26 28  2  0
 26 27  1  0
M  END
$$$$
