HSR.pdb
     RDKit          3D

 28 28  0  0  1  0  0  0  0  0999 V2000
    6.8514  -16.3998   20.1267 N   0  0  0  0  0  0  0  0  0  0  0  0
    8.2430  -16.2310   19.8475 C   0  0  1  0  0  0  0  0  0  0  0  0
    8.6484  -14.7765   19.9448 C   0  0  0  0  0  0  0  0  0  0  0  0
    7.8798  -14.0303   18.9065 C   0  0  0  0  0  0  0  0  0  0  0  0
    6.9688  -14.5933   18.0082 C   0  0  0  0  0  0  0  0  0  0  0  0
    6.4672  -13.6328   17.2215 N   0  0  0  0  0  0  0  0  0  0  0  0
    7.0265  -12.4771   17.5867 C   0  0  0  0  0  0  0  0  0  0  0  0
    7.8888  -12.7201   18.6153 N   0  0  0  0  0  0  0  0  0  0  0  0
    9.0394  -17.0873   20.7581 C   0  0  0  0  0  0  0  0  0  0  0  0
    8.7332  -17.2596   21.9724 O   0  0  0  0  0  0  0  0  0  0  0  0
   12.9774  -18.1687   19.7381 O   0  0  0  0  0  0  0  0  0  0  0  0
   12.0803  -19.1683   20.1431 C   0  0  0  0  0  0  0  0  0  0  0  0
   11.0658  -18.5482   21.0833 C   0  0  2  0  0  0  0  0  0  0  0  0
   10.1835  -17.7432   20.2738 N   0  0  0  0  0  0  0  0  0  0  0  0
   11.7377  -17.7028   22.1001 C   0  0  0  0  0  0  0  0  0  0  0  0
   11.6290  -16.4487   22.0738 O   0  0  0  0  0  0  0  0  0  0  0  0
   10.2460  -15.9110   30.1142 N   0  0  0  0  0  0  0  0  0  0  0  0
   10.0505  -14.8697   29.1350 C   0  0  0  0  0  0  0  0  0  0  0  0
    9.3061  -13.8748   29.4091 N   0  0  0  0  0  0  0  0  0  0  0  0
   10.6798  -14.9391   27.8629 N   0  0  0  0  0  0  0  0  0  0  0  0
   10.4478  -16.0665   26.9868 C   0  0  0  0  0  0  0  0  0  0  0  0
   11.7413  -16.5794   26.3983 C   0  0  0  0  0  0  0  0  0  0  0  0
   11.5747  -17.1488   25.0320 C   0  0  0  0  0  0  0  0  0  0  0  0
   12.8740  -17.4833   24.3405 C   0  0  2  0  0  0  0  0  0  0  0  0
   12.5395  -18.2561   23.1583 N   0  0  0  0  0  0  0  0  0  0  0  0
   13.8363  -18.1777   25.2056 C   0  0  0  0  0  0  0  0  0  0  0  0
   14.1181  -19.5338   25.0919 O   0  0  0  0  0  0  0  0  0  0  0  0
   14.4523  -17.5503   26.1005 O   0  0  0  0  0  0  0  0  0  0  0  0
  2  1  1  1
  2  9  1  0
  3  2  1  0
  4  3  1  0
  4  5  2  0
  6  5  1  0
  7  8  2  0
  7  6  1  0
  8  4  1  0
  9 10  2  0
 11 12  1  0
 13 12  1  6
 13 15  1  0
 14  9  1  0
 14 13  1  0
 15 16  2  0
 18 17  1  0
 19 18  2  0
 20 18  1  0
 21 20  1  0
 22 21  1  0
 23 22  1  0
 24 23  1  1
 24 26  1  0
 25 24  1  0
 25 15  1  0
 26 28  2  0
 26 27  1  0
M  END
$$$$
