ACL.pdb
     RDKit          3D

 20 19  0  0  1  0  0  0  0  0999 V2000
    8.4094  -12.2793   19.2193 C   0  0  0  0  0  0  0  0  0  0  0  0
    8.5519  -13.7783   19.0386 C   0  0  2  0  0  0  0  0  0  0  0  0
    8.0615  -14.1890   17.7589 N   0  0  0  0  0  0  0  0  0  0  0  0
    7.8458  -14.4428   20.1494 C   0  0  0  0  0  0  0  0  0  0  0  0
    6.5881  -14.5756   20.0672 O   0  0  0  0  0  0  0  0  0  0  0  0
    8.5165  -14.9363   21.2996 N   0  0  0  0  0  0  0  0  0  0  0  0
    7.8709  -15.6706   22.3598 C   0  0  1  0  0  0  0  0  0  0  0  0
    8.0932  -17.1666   22.2210 C   0  0  0  0  0  0  0  0  0  0  0  0
    7.3897  -18.0968   23.5827 S   0  0  0  0  0  0  0  0  0  0  0  0
    8.5180  -15.2699   23.6600 C   0  0  0  0  0  0  0  0  0  0  0  0
    9.7704  -15.2732   23.7849 O   0  0  0  0  0  0  0  0  0  0  0  0
    5.7041  -12.0344   27.0462 C   0  0  0  0  0  0  0  0  0  0  0  0
    6.6872  -12.6407   25.9921 C   0  0  1  0  0  0  0  0  0  0  0  0
    7.5163  -11.4350   25.5524 C   0  0  0  0  0  0  0  0  0  0  0  0
    7.4949  -13.6133   26.7603 C   0  0  0  0  0  0  0  0  0  0  0  0
    8.4216  -14.5347   26.0675 C   0  0  2  0  0  0  0  0  0  0  0  0
    7.7418  -14.8793   24.7757 N   0  0  0  0  0  0  0  0  0  0  0  0
    8.6879  -15.7841   26.7801 C   0  0  0  0  0  0  0  0  0  0  0  0
    9.5920  -15.7487   27.8640 O   0  0  0  0  0  0  0  0  0  0  0  0
    8.2018  -16.9088   26.5423 O   0  0  0  0  0  0  0  0  0  0  0  0
  2  3  1  0
  2  1  1  1
  4  2  1  0
  5  4  2  0
  6  4  1  0
  7 10  1  0
  7  6  1  0
  7  8  1  6
  9  8  1  0
 10 11  2  0
 13 12  1  1
 13 14  1  0
 15 13  1  0
 16 15  1  1
 17 16  1  0
 17 10  1  0
 18 16  1  0
 19 18  1  0
 20 18  2  0
M  END
$$$$
