ACL.pdb
     RDKit          3D

 20 19  0  0  1  0  0  0  0  0999 V2000
    8.2358  -12.2010   19.6670 C   0  0  0  0  0  0  0  0  0  0  0  0
    8.5681  -13.5996   19.1839 C   0  0  2  0  0  0  0  0  0  0  0  0
    7.9319  -13.8738   17.9321 N   0  0  0  0  0  0  0  0  0  0  0  0
    8.1711  -14.5539   20.2354 C   0  0  0  0  0  0  0  0  0  0  0  0
    6.9750  -14.9726   20.2456 O   0  0  0  0  0  0  0  0  0  0  0  0
    9.0716  -15.0185   21.2303 N   0  0  0  0  0  0  0  0  0  0  0  0
    8.7270  -15.9806   22.2478 C   0  0  1  0  0  0  0  0  0  0  0  0
    9.5353  -17.2587   22.1071 C   0  0  0  0  0  0  0  0  0  0  0  0
    9.1823  -18.4435   23.4054 S   0  0  0  0  0  0  0  0  0  0  0  0
    9.1005  -15.3939   23.5842 C   0  0  0  0  0  0  0  0  0  0  0  0
   10.2790  -15.0179   23.8166 O   0  0  0  0  0  0  0  0  0  0  0  0
    5.5915  -12.3864   26.5110 C   0  0  0  0  0  0  0  0  0  0  0  0
    6.8176  -12.8643   25.6665 C   0  0  1  0  0  0  0  0  0  0  0  0
    7.7252  -11.6355   25.6407 C   0  0  0  0  0  0  0  0  0  0  0  0
    7.4042  -13.9652   26.4615 C   0  0  0  0  0  0  0  0  0  0  0  0
    8.5689  -14.7222   25.9531 C   0  0  2  0  0  0  0  0  0  0  0  0
    8.1430  -15.2478   24.6145 N   0  0  0  0  0  0  0  0  0  0  0  0
    8.9628  -15.8644   26.7776 C   0  0  0  0  0  0  0  0  0  0  0  0
    9.7648  -15.6167   27.9129 O   0  0  0  0  0  0  0  0  0  0  0  0
    8.6700  -17.0642   26.5971 O   0  0  0  0  0  0  0  0  0  0  0  0
  2  3  1  0
  2  1  1  1
  4  2  1  0
  5  4  2  0
  6  4  1  0
  7 10  1  0
  7  6  1  0
  7  8  1  6
  9  8  1  0
 10 11  2  0
 13 12  1  1
 13 14  1  0
 15 13  1  0
 16 15  1  1
 17 16  1  0
 17 10  1  0
 18 16  1  0
 19 18  1  0
 20 18  2  0
M  END
$$$$
