ACL.pdb
     RDKit          3D

 20 19  0  0  1  0  0  0  0  0999 V2000
    9.0038  -20.0492   20.2101 C   0  0  0  0  0  0  0  0  0  0  0  0
    8.8134  -19.4470   21.5889 C   0  0  2  0  0  0  0  0  0  0  0  0
    7.4434  -19.5190   21.9946 N   0  0  0  0  0  0  0  0  0  0  0  0
    9.3166  -18.0613   21.5571 C   0  0  0  0  0  0  0  0  0  0  0  0
   10.5199  -17.8676   21.2097 O   0  0  0  0  0  0  0  0  0  0  0  0
    8.5100  -16.9436   21.8985 N   0  0  0  0  0  0  0  0  0  0  0  0
    8.9738  -15.5781   21.8886 C   0  0  1  0  0  0  0  0  0  0  0  0
    7.8982  -14.6248   21.3976 C   0  0  0  0  0  0  0  0  0  0  0  0
    6.3072  -14.9259   22.1672 S   0  0  0  0  0  0  0  0  0  0  0  0
    9.2687  -15.1798   23.3113 C   0  0  0  0  0  0  0  0  0  0  0  0
   10.1746  -14.3463   23.5730 O   0  0  0  0  0  0  0  0  0  0  0  0
    5.5794  -13.1955   26.3383 C   0  0  0  0  0  0  0  0  0  0  0  0
    7.0150  -13.3481   25.7376 C   0  0  1  0  0  0  0  0  0  0  0  0
    7.7893  -12.2013   26.3854 C   0  0  0  0  0  0  0  0  0  0  0  0
    7.4773  -14.6671   26.2222 C   0  0  0  0  0  0  0  0  0  0  0  0
    8.7783  -15.2162   25.7819 C   0  0  2  0  0  0  0  0  0  0  0  0
    8.5399  -15.7277   24.3923 N   0  0  0  0  0  0  0  0  0  0  0  0
    9.2766  -16.3296   26.5892 C   0  0  0  0  0  0  0  0  0  0  0  0
    9.9237  -16.0272   27.8071 O   0  0  0  0  0  0  0  0  0  0  0  0
    9.1990  -17.5476   26.3277 O   0  0  0  0  0  0  0  0  0  0  0  0
  2  3  1  0
  2  1  1  6
  4  2  1  0
  5  4  2  0
  6  4  1  0
  7 10  1  0
  7  6  1  0
  7  8  1  1
  9  8  1  0
 10 11  2  0
 13 12  1  1
 13 14  1  0
 15 13  1  0
 16 15  1  1
 17 16  1  0
 17 10  1  0
 18 16  1  0
 19 18  1  0
 20 18  2  0
M  END
$$$$
