ACL.pdb
     RDKit          3D

 20 19  0  0  1  0  0  0  0  0999 V2000
    7.5712  -12.8886   18.3709 C   0  0  0  0  0  0  0  0  0  0  0  0
    8.7568  -13.3907   19.1722 C   0  0  2  0  0  0  0  0  0  0  0  0
    9.6659  -14.1182   18.3410 N   0  0  0  0  0  0  0  0  0  0  0  0
    8.2431  -14.2057   20.2886 C   0  0  0  0  0  0  0  0  0  0  0  0
    7.2877  -13.7420   20.9802 O   0  0  0  0  0  0  0  0  0  0  0  0
    8.7743  -15.4812   20.6159 N   0  0  0  0  0  0  0  0  0  0  0  0
    8.2894  -16.3072   21.6941 C   0  0  1  0  0  0  0  0  0  0  0  0
    8.9104  -17.6928   21.6612 C   0  0  0  0  0  0  0  0  0  0  0  0
    7.7267  -18.9871   22.0327 S   0  0  0  0  0  0  0  0  0  0  0  0
    8.7317  -15.6808   22.9910 C   0  0  0  0  0  0  0  0  0  0  0  0
    9.8847  -15.1902   23.1099 O   0  0  0  0  0  0  0  0  0  0  0  0
    8.0784  -11.8561   26.3812 C   0  0  0  0  0  0  0  0  0  0  0  0
    7.1674  -13.0579   26.7946 C   0  0  1  0  0  0  0  0  0  0  0  0
    5.8094  -12.4010   27.0359 C   0  0  0  0  0  0  0  0  0  0  0  0
    7.1512  -13.9333   25.6021 C   0  0  0  0  0  0  0  0  0  0  0  0
    8.2806  -14.8475   25.3250 C   0  0  2  0  0  0  0  0  0  0  0  0
    7.8690  -15.6247   24.1101 N   0  0  0  0  0  0  0  0  0  0  0  0
    8.5681  -15.8051   26.3927 C   0  0  0  0  0  0  0  0  0  0  0  0
    9.6707  -15.5461   27.2356 O   0  0  0  0  0  0  0  0  0  0  0  0
    7.9425  -16.8520   26.6583 O   0  0  0  0  0  0  0  0  0  0  0  0
  2  3  1  0
  2  1  1  6
  4  2  1  0
  5  4  2  0
  6  4  1  0
  7 10  1  0
  7  6  1  0
  7  8  1  6
  9  8  1  0
 10 11  2  0
 13 12  1  6
 13 14  1  0
 15 13  1  0
 16 15  1  1
 17 16  1  0
 17 10  1  0
 18 16  1  0
 19 18  1  0
 20 18  2  0
M  END
$$$$
