ACL.pdb
     RDKit          3D

 20 19  0  0  1  0  0  0  0  0999 V2000
    8.4320  -12.3556   19.1209 C   0  0  0  0  0  0  0  0  0  0  0  0
    8.4710  -13.8210   18.7321 C   0  0  2  0  0  0  0  0  0  0  0  0
    7.5941  -14.0827   17.6324 N   0  0  0  0  0  0  0  0  0  0  0  0
    8.1303  -14.6203   19.9234 C   0  0  0  0  0  0  0  0  0  0  0  0
    6.9089  -14.7307   20.2430 O   0  0  0  0  0  0  0  0  0  0  0  0
    9.1118  -15.2665   20.7206 N   0  0  0  0  0  0  0  0  0  0  0  0
    8.8087  -16.1179   21.8446 C   0  0  1  0  0  0  0  0  0  0  0  0
    9.5417  -17.4451   21.7557 C   0  0  0  0  0  0  0  0  0  0  0  0
    9.4716  -18.3747   23.2871 S   0  0  0  0  0  0  0  0  0  0  0  0
    9.3199  -15.4397   23.0890 C   0  0  0  0  0  0  0  0  0  0  0  0
   10.4724  -14.9348   23.1211 O   0  0  0  0  0  0  0  0  0  0  0  0
    7.3546  -12.3348   27.5562 C   0  0  0  0  0  0  0  0  0  0  0  0
    7.0730  -13.4303   26.4766 C   0  0  1  0  0  0  0  0  0  0  0  0
    5.8722  -12.8712   25.7153 C   0  0  0  0  0  0  0  0  0  0  0  0
    8.2947  -13.4462   25.6425 C   0  0  0  0  0  0  0  0  0  0  0  0
    9.0793  -14.6898   25.4818 C   0  0  2  0  0  0  0  0  0  0  0  0
    8.5243  -15.3498   24.2547 N   0  0  0  0  0  0  0  0  0  0  0  0
    8.9602  -15.6355   26.5913 C   0  0  0  0  0  0  0  0  0  0  0  0
    9.7456  -15.4086   27.7424 O   0  0  0  0  0  0  0  0  0  0  0  0
    8.2303  -16.6464   26.6483 O   0  0  0  0  0  0  0  0  0  0  0  0
  2  3  1  0
  2  1  1  1
  4  2  1  0
  5  4  2  0
  6  4  1  0
  7 10  1  0
  7  6  1  0
  7  8  1  6
  9  8  1  0
 10 11  2  0
 13 12  1  1
 13 14  1  0
 15 13  1  0
 16 15  1  1
 17 16  1  0
 17 10  1  0
 18 16  1  0
 19 18  1  0
 20 18  2  0
M  END
$$$$
