ACL.pdb
     RDKit          3D

 20 19  0  0  1  0  0  0  0  0999 V2000
    8.5784  -12.2934   19.0332 C   0  0  0  0  0  0  0  0  0  0  0  0
    8.5912  -13.7715   18.6943 C   0  0  2  0  0  0  0  0  0  0  0  0
    7.8075  -14.0363   17.5270 N   0  0  0  0  0  0  0  0  0  0  0  0
    8.1107  -14.5159   19.8729 C   0  0  0  0  0  0  0  0  0  0  0  0
    6.8686  -14.7474   19.9713 O   0  0  0  0  0  0  0  0  0  0  0  0
    8.9806  -14.9801   20.8948 N   0  0  0  0  0  0  0  0  0  0  0  0
    8.5893  -15.8999   21.9344 C   0  0  1  0  0  0  0  0  0  0  0  0
    9.4310  -17.1638   21.9101 C   0  0  0  0  0  0  0  0  0  0  0  0
    9.1345  -18.2164   23.3307 S   0  0  0  0  0  0  0  0  0  0  0  0
    8.8619  -15.2406   23.2613 C   0  0  0  0  0  0  0  0  0  0  0  0
    9.9648  -14.6780   23.4873 O   0  0  0  0  0  0  0  0  0  0  0  0
    7.6641  -11.7039   25.8969 C   0  0  0  0  0  0  0  0  0  0  0  0
    7.0933  -12.7579   26.9011 C   0  0  1  0  0  0  0  0  0  0  0  0
    5.7080  -12.2076   27.2365 C   0  0  0  0  0  0  0  0  0  0  0  0
    7.0131  -14.0083   26.1146 C   0  0  0  0  0  0  0  0  0  0  0  0
    8.2433  -14.6766   25.6372 C   0  0  2  0  0  0  0  0  0  0  0  0
    7.8914  -15.2335   24.2899 N   0  0  0  0  0  0  0  0  0  0  0  0
    8.7008  -15.7855   26.4743 C   0  0  0  0  0  0  0  0  0  0  0  0
    9.7149  -15.5259   27.4216 O   0  0  0  0  0  0  0  0  0  0  0  0
    8.2948  -16.9656   26.4543 O   0  0  0  0  0  0  0  0  0  0  0  0
  2  3  1  0
  2  1  1  1
  4  2  1  0
  5  4  2  0
  6  4  1  0
  7 10  1  0
  7  6  1  0
  7  8  1  1
  9  8  1  0
 10 11  2  0
 13 12  1  6
 13 14  1  0
 15 13  1  0
 16 15  1  1
 17 16  1  0
 17 10  1  0
 18 16  1  0
 19 18  1  0
 20 18  2  0
M  END
$$$$
