ACL.pdb
     RDKit          3D

 20 19  0  0  1  0  0  0  0  0999 V2000
   10.5329  -18.8817   19.8530 C   0  0  0  0  0  0  0  0  0  0  0  0
   10.1935  -18.5506   21.2935 C   0  0  2  0  0  0  0  0  0  0  0  0
    9.0226  -19.2541   21.7187 N   0  0  0  0  0  0  0  0  0  0  0  0
   10.0399  -17.0883   21.4035 C   0  0  0  0  0  0  0  0  0  0  0  0
   11.0471  -16.3589   21.1593 O   0  0  0  0  0  0  0  0  0  0  0  0
    8.8150  -16.4704   21.7700 N   0  0  0  0  0  0  0  0  0  0  0  0
    8.6309  -15.0447   21.8859 C   0  0  1  0  0  0  0  0  0  0  0  0
    7.2241  -14.6279   21.4939 C   0  0  0  0  0  0  0  0  0  0  0  0
    5.9720  -15.7372   22.1390 S   0  0  0  0  0  0  0  0  0  0  0  0
    8.7880  -14.6749   23.3379 C   0  0  0  0  0  0  0  0  0  0  0  0
    8.8165  -13.4689   23.6967 O   0  0  0  0  0  0  0  0  0  0  0  0
    6.2371  -12.8122   26.3963 C   0  0  0  0  0  0  0  0  0  0  0  0
    7.6407  -13.1511   25.7962 C   0  0  1  0  0  0  0  0  0  0  0  0
    8.5815  -12.2194   26.5584 C   0  0  0  0  0  0  0  0  0  0  0  0
    7.8605  -14.5693   26.1552 C   0  0  0  0  0  0  0  0  0  0  0  0
    9.1107  -15.2581   25.7672 C   0  0  2  0  0  0  0  0  0  0  0  0
    8.9078  -15.6671   24.3385 N   0  0  0  0  0  0  0  0  0  0  0  0
    9.4094  -16.4638   26.5396 C   0  0  0  0  0  0  0  0  0  0  0  0
    9.9105  -16.3039   27.8498 O   0  0  0  0  0  0  0  0  0  0  0  0
    9.2728  -17.6494   26.1741 O   0  0  0  0  0  0  0  0  0  0  0  0
  2  3  1  0
  2  1  1  6
  4  2  1  0
  5  4  2  0
  6  4  1  0
  7 10  1  0
  7  6  1  0
  7  8  1  1
  9  8  1  0
 10 11  2  0
 13 12  1  1
 13 14  1  0
 15 13  1  0
 16 15  1  1
 17 16  1  0
 17 10  1  0
 18 16  1  0
 19 18  1  0
 20 18  2  0
M  END
$$$$
