ACL.pdb
     RDKit          3D

 20 19  0  0  1  0  0  0  0  0999 V2000
    8.4762  -12.3520   19.1898 C   0  0  0  0  0  0  0  0  0  0  0  0
    8.6798  -13.8136   18.8402 C   0  0  2  0  0  0  0  0  0  0  0  0
    8.1012  -14.1215   17.5685 N   0  0  0  0  0  0  0  0  0  0  0  0
    8.1087  -14.6288   19.9281 C   0  0  0  0  0  0  0  0  0  0  0  0
    6.9636  -15.1434   19.7549 O   0  0  0  0  0  0  0  0  0  0  0  0
    8.7881  -14.8575   21.1538 N   0  0  0  0  0  0  0  0  0  0  0  0
    8.3234  -15.7570   22.1809 C   0  0  1  0  0  0  0  0  0  0  0  0
    8.9618  -17.1293   22.0546 C   0  0  0  0  0  0  0  0  0  0  0  0
   10.7354  -17.0437   21.8072 S   0  0  0  0  0  0  0  0  0  0  0  0
    8.7688  -15.2088   23.5116 C   0  0  0  0  0  0  0  0  0  0  0  0
    9.9413  -14.7807   23.6727 O   0  0  0  0  0  0  0  0  0  0  0  0
    7.3142  -12.1500   25.0595 C   0  0  0  0  0  0  0  0  0  0  0  0
    7.1405  -12.5333   26.5654 C   0  0  1  0  0  0  0  0  0  0  0  0
    5.7240  -12.0592   26.8863 C   0  0  0  0  0  0  0  0  0  0  0  0
    7.2441  -14.0089   26.5828 C   0  0  0  0  0  0  0  0  0  0  0  0
    8.3936  -14.6896   25.9478 C   0  0  2  0  0  0  0  0  0  0  0  0
    7.8872  -15.1583   24.6162 N   0  0  0  0  0  0  0  0  0  0  0  0
    8.8897  -15.8581   26.6745 C   0  0  0  0  0  0  0  0  0  0  0  0
    9.7797  -15.6415   27.7488 O   0  0  0  0  0  0  0  0  0  0  0  0
    8.6164  -17.0564   26.4564 O   0  0  0  0  0  0  0  0  0  0  0  0
  2  3  1  0
  2  1  1  1
  4  2  1  0
  5  4  2  0
  6  4  1  0
  7 10  1  0
  7  6  1  0
  7  8  1  6
  9  8  1  0
 10 11  2  0
 13 12  1  6
 13 14  1  0
 15 13  1  0
 16 15  1  1
 17 16  1  0
 17 10  1  0
 18 16  1  0
 19 18  1  0
 20 18  2  0
M  END
$$$$
