ACL.pdb
     RDKit          3D

 20 19  0  0  1  0  0  0  0  0999 V2000
    7.9153  -12.6138   18.5038 C   0  0  0  0  0  0  0  0  0  0  0  0
    8.8124  -13.7966   18.8137 C   0  0  2  0  0  0  0  0  0  0  0  0
    8.8172  -14.7332   17.7322 N   0  0  0  0  0  0  0  0  0  0  0  0
    8.3526  -14.4016   20.0773 C   0  0  0  0  0  0  0  0  0  0  0  0
    7.2229  -14.0530   20.5336 O   0  0  0  0  0  0  0  0  0  0  0  0
    9.1221  -15.3534   20.7974 N   0  0  0  0  0  0  0  0  0  0  0  0
    8.6228  -16.1215   21.9112 C   0  0  1  0  0  0  0  0  0  0  0  0
    9.3702  -17.4345   22.0661 C   0  0  0  0  0  0  0  0  0  0  0  0
   11.1500  -17.2239   22.0178 S   0  0  0  0  0  0  0  0  0  0  0  0
    8.8887  -15.3372   23.1697 C   0  0  0  0  0  0  0  0  0  0  0  0
    9.9237  -14.6298   23.2820 O   0  0  0  0  0  0  0  0  0  0  0  0
    8.0069  -11.6538   26.5854 C   0  0  0  0  0  0  0  0  0  0  0  0
    7.0492  -12.8462   26.9111 C   0  0  1  0  0  0  0  0  0  0  0  0
    5.6827  -12.1741   27.0346 C   0  0  0  0  0  0  0  0  0  0  0  0
    7.1284  -13.7170   25.7179 C   0  0  0  0  0  0  0  0  0  0  0  0
    8.3000  -14.5942   25.5036 C   0  0  2  0  0  0  0  0  0  0  0  0
    7.9878  -15.3711   24.2592 N   0  0  0  0  0  0  0  0  0  0  0  0
    8.5502  -15.5536   26.5791 C   0  0  0  0  0  0  0  0  0  0  0  0
    9.5385  -15.2339   27.5353 O   0  0  0  0  0  0  0  0  0  0  0  0
    7.9829  -16.6503   26.7613 O   0  0  0  0  0  0  0  0  0  0  0  0
  2  3  1  0
  2  1  1  6
  4  2  1  0
  5  4  2  0
  6  4  1  0
  7 10  1  0
  7  6  1  0
  7  8  1  1
  9  8  1  0
 10 11  2  0
 13 12  1  6
 13 14  1  0
 15 13  1  0
 16 15  1  1
 17 16  1  0
 17 10  1  0
 18 16  1  0
 19 18  1  0
 20 18  2  0
M  END
$$$$
