ACL.pdb
     RDKit          3D

 20 19  0  0  1  0  0  0  0  0999 V2000
    9.2325  -17.1889   19.8256 C   0  0  0  0  0  0  0  0  0  0  0  0
   10.1793  -17.0492   21.0021 C   0  0  2  0  0  0  0  0  0  0  0  0
   11.1593  -18.0915   20.9977 N   0  0  0  0  0  0  0  0  0  0  0  0
    9.3756  -17.0405   22.2383 C   0  0  0  0  0  0  0  0  0  0  0  0
    8.4590  -16.1728   22.3523 O   0  0  0  0  0  0  0  0  0  0  0  0
    9.5881  -17.9609   23.2986 N   0  0  0  0  0  0  0  0  0  0  0  0
    8.8806  -17.9254   24.5548 C   0  0  1  0  0  0  0  0  0  0  0  0
    8.1774  -19.2412   24.8391 C   0  0  0  0  0  0  0  0  0  0  0  0
    7.3643  -19.2566   26.4368 S   0  0  0  0  0  0  0  0  0  0  0  0
    9.8969  -17.7480   25.6527 C   0  0  0  0  0  0  0  0  0  0  0  0
   11.0326  -18.2846   25.5729 O   0  0  0  0  0  0  0  0  0  0  0  0
    9.2462  -13.4944   29.1222 C   0  0  0  0  0  0  0  0  0  0  0  0
    9.7203  -14.4300   27.9625 C   0  0  1  0  0  0  0  0  0  0  0  0
   10.8434  -13.6302   27.3043 C   0  0  0  0  0  0  0  0  0  0  0  0
   10.2328  -15.6355   28.6497 C   0  0  0  0  0  0  0  0  0  0  0  0
   10.6463  -16.8249   27.8736 C   0  0  2  0  0  0  0  0  0  0  0  0
    9.6078  -16.9765   26.8021 N   0  0  0  0  0  0  0  0  0  0  0  0
   10.6850  -18.0710   28.6387 C   0  0  0  0  0  0  0  0  0  0  0  0
    9.6643  -19.0197   28.4118 O   0  0  0  0  0  0  0  0  0  0  0  0
   11.5317  -18.4090   29.4912 O   0  0  0  0  0  0  0  0  0  0  0  0
  2  3  1  0
  2  1  1  6
  4  2  1  0
  5  4  2  0
  6  4  1  0
  7 10  1  0
  7  6  1  0
  7  8  1  1
  9  8  1  0
 10 11  2  0
 13 12  1  1
 13 14  1  0
 15 13  1  0
 16 15  1  1
 17 16  1  0
 17 10  1  0
 18 16  1  0
 19 18  1  0
 20 18  2  0
M  END
$$$$
