ACL.pdb
     RDKit          3D

 20 19  0  0  1  0  0  0  0  0999 V2000
    8.9793  -17.4426   18.1915 C   0  0  0  0  0  0  0  0  0  0  0  0
    9.4108  -17.8049   19.5994 C   0  0  2  0  0  0  0  0  0  0  0  0
    9.4706  -19.2243   19.7677 N   0  0  0  0  0  0  0  0  0  0  0  0
    8.4750  -17.1673   20.5438 C   0  0  0  0  0  0  0  0  0  0  0  0
    7.3136  -16.8723   20.1310 O   0  0  0  0  0  0  0  0  0  0  0  0
    8.8229  -16.8731   21.8887 N   0  0  0  0  0  0  0  0  0  0  0  0
    7.8649  -16.5895   22.9288 C   0  0  1  0  0  0  0  0  0  0  0  0
    7.3263  -17.8631   23.5568 C   0  0  0  0  0  0  0  0  0  0  0  0
    6.1115  -17.5404   24.8352 S   0  0  0  0  0  0  0  0  0  0  0  0
    8.5821  -15.8510   24.0288 C   0  0  0  0  0  0  0  0  0  0  0  0
    9.7896  -15.5193   23.9020 O   0  0  0  0  0  0  0  0  0  0  0  0
    5.8176  -12.1093   26.6878 C   0  0  0  0  0  0  0  0  0  0  0  0
    6.8950  -12.8194   25.8046 C   0  0  1  0  0  0  0  0  0  0  0  0
    7.7803  -11.6654   25.3369 C   0  0  0  0  0  0  0  0  0  0  0  0
    7.6073  -13.7141   26.7429 C   0  0  0  0  0  0  0  0  0  0  0  0
    8.6302  -14.6614   26.2487 C   0  0  2  0  0  0  0  0  0  0  0  0
    7.9239  -15.5089   25.2328 N   0  0  0  0  0  0  0  0  0  0  0  0
    9.1819  -15.5525   27.2691 C   0  0  0  0  0  0  0  0  0  0  0  0
    8.8101  -16.9139   27.2309 O   0  0  0  0  0  0  0  0  0  0  0  0
    9.9621  -15.2502   28.1953 O   0  0  0  0  0  0  0  0  0  0  0  0
  2  3  1  0
  2  1  1  6
  4  2  1  0
  5  4  2  0
  6  4  1  0
  7 10  1  0
  7  6  1  0
  7  8  1  1
  9  8  1  0
 10 11  2  0
 13 12  1  1
 13 14  1  0
 15 13  1  0
 16 15  1  1
 17 16  1  0
 17 10  1  0
 18 16  1  0
 19 18  1  0
 20 18  2  0
M  END
$$$$
