ACL.pdb
     RDKit          3D

 20 19  0  0  1  0  0  0  0  0999 V2000
    6.3672  -19.6026   24.1270 C   0  0  0  0  0  0  0  0  0  0  0  0
    6.4117  -19.0351   22.7213 C   0  0  2  0  0  0  0  0  0  0  0  0
    6.7416  -20.0506   21.7691 N   0  0  0  0  0  0  0  0  0  0  0  0
    7.3758  -17.9195   22.7080 C   0  0  0  0  0  0  0  0  0  0  0  0
    8.5977  -18.1795   22.9211 O   0  0  0  0  0  0  0  0  0  0  0  0
    6.9899  -16.5743   22.4671 N   0  0  0  0  0  0  0  0  0  0  0  0
    7.9191  -15.4877   22.2773 C   0  0  1  0  0  0  0  0  0  0  0  0
    7.2479  -14.2807   21.6454 C   0  0  0  0  0  0  0  0  0  0  0  0
    6.3099  -14.7040   20.1774 S   0  0  0  0  0  0  0  0  0  0  0  0
    8.3913  -15.0407   23.6362 C   0  0  0  0  0  0  0  0  0  0  0  0
    8.8567  -13.8841   23.8088 O   0  0  0  0  0  0  0  0  0  0  0  0
    6.3924  -12.4924   26.5223 C   0  0  0  0  0  0  0  0  0  0  0  0
    7.7069  -13.1043   25.9370 C   0  0  1  0  0  0  0  0  0  0  0  0
    8.7944  -12.1734   26.4710 C   0  0  0  0  0  0  0  0  0  0  0  0
    7.7876  -14.4505   26.5448 C   0  0  0  0  0  0  0  0  0  0  0  0
    8.8082  -15.4204   26.0913 C   0  0  2  0  0  0  0  0  0  0  0  0
    8.3268  -15.9029   24.7553 N   0  0  0  0  0  0  0  0  0  0  0  0
    8.9691  -16.5882   26.9574 C   0  0  0  0  0  0  0  0  0  0  0  0
    9.7160  -16.4339   28.1455 O   0  0  0  0  0  0  0  0  0  0  0  0
    8.5158  -17.7361   26.7711 O   0  0  0  0  0  0  0  0  0  0  0  0
  2  3  1  0
  2  1  1  1
  4  2  1  0
  5  4  2  0
  6  4  1  0
  7 10  1  0
  7  6  1  0
  7  8  1  1
  9  8  1  0
 10 11  2  0
 13 12  1  1
 13 14  1  0
 15 13  1  0
 16 15  1  1
 17 16  1  0
 17 10  1  0
 18 16  1  0
 19 18  1  0
 20 18  2  0
M  END
$$$$
