ACL.pdb
     RDKit          3D

 20 19  0  0  1  0  0  0  0  0999 V2000
    8.4594  -12.2413   19.2345 C   0  0  0  0  0  0  0  0  0  0  0  0
    8.6318  -13.7213   18.9521 C   0  0  2  0  0  0  0  0  0  0  0  0
    8.0672  -14.0702   17.6848 N   0  0  0  0  0  0  0  0  0  0  0  0
    8.0221  -14.4739   20.0639 C   0  0  0  0  0  0  0  0  0  0  0  0
    6.8077  -14.8211   19.9590 O   0  0  0  0  0  0  0  0  0  0  0  0
    8.7386  -14.8221   21.2394 N   0  0  0  0  0  0  0  0  0  0  0  0
    8.2446  -15.7237   22.2508 C   0  0  1  0  0  0  0  0  0  0  0  0
    8.7764  -17.1326   22.0534 C   0  0  0  0  0  0  0  0  0  0  0  0
    7.4717  -18.3268   21.7611 S   0  0  0  0  0  0  0  0  0  0  0  0
    8.7739  -15.2590   23.5826 C   0  0  0  0  0  0  0  0  0  0  0  0
   10.0090  -15.1017   23.7662 O   0  0  0  0  0  0  0  0  0  0  0  0
    5.5311  -12.2738   26.9002 C   0  0  0  0  0  0  0  0  0  0  0  0
    6.6584  -12.7191   25.9123 C   0  0  1  0  0  0  0  0  0  0  0  0
    7.5105  -11.4598   25.7629 C   0  0  0  0  0  0  0  0  0  0  0  0
    7.3794  -13.7888   26.6364 C   0  0  0  0  0  0  0  0  0  0  0  0
    8.4706  -14.5392   25.9775 C   0  0  2  0  0  0  0  0  0  0  0  0
    7.9032  -14.9863   24.6631 N   0  0  0  0  0  0  0  0  0  0  0  0
    8.9170  -15.7299   26.7004 C   0  0  0  0  0  0  0  0  0  0  0  0
    9.8226  -15.5552   27.7694 O   0  0  0  0  0  0  0  0  0  0  0  0
    8.5877  -16.9141   26.4835 O   0  0  0  0  0  0  0  0  0  0  0  0
  2  3  1  0
  2  1  1  1
  4  2  1  0
  5  4  2  0
  6  4  1  0
  7 10  1  0
  7  6  1  0
  7  8  1  6
  9  8  1  0
 10 11  2  0
 13 12  1  1
 13 14  1  0
 15 13  1  0
 16 15  1  1
 17 16  1  0
 17 10  1  0
 18 16  1  0
 19 18  1  0
 20 18  2  0
M  END
$$$$
