ACL.pdb
     RDKit          3D

 20 19  0  0  1  0  0  0  0  0999 V2000
    9.6001  -19.7139   23.4251 C   0  0  0  0  0  0  0  0  0  0  0  0
    9.3434  -19.1321   22.0483 C   0  0  2  0  0  0  0  0  0  0  0  0
   10.1931  -19.7378   21.0696 N   0  0  0  0  0  0  0  0  0  0  0  0
    9.5303  -17.6715   22.1261 C   0  0  0  0  0  0  0  0  0  0  0  0
   10.6951  -17.2266   22.3526 O   0  0  0  0  0  0  0  0  0  0  0  0
    8.4622  -16.7509   21.9580 N   0  0  0  0  0  0  0  0  0  0  0  0
    8.6290  -15.3194   21.9034 C   0  0  1  0  0  0  0  0  0  0  0  0
    7.3275  -14.6166   21.5588 C   0  0  0  0  0  0  0  0  0  0  0  0
    7.5404  -12.8532   21.3152 S   0  0  0  0  0  0  0  0  0  0  0  0
    9.0085  -14.8455   23.2822 C   0  0  0  0  0  0  0  0  0  0  0  0
    9.7968  -13.8766   23.4367 O   0  0  0  0  0  0  0  0  0  0  0  0
    5.7872  -12.7915   26.3707 C   0  0  0  0  0  0  0  0  0  0  0  0
    7.1390  -13.0780   25.6387 C   0  0  1  0  0  0  0  0  0  0  0  0
    7.9728  -11.8347   25.9441 C   0  0  0  0  0  0  0  0  0  0  0  0
    7.6749  -14.2797   26.3147 C   0  0  0  0  0  0  0  0  0  0  0  0
    8.8819  -14.9591   25.7955 C   0  0  2  0  0  0  0  0  0  0  0  0
    8.4932  -15.4718   24.4407 N   0  0  0  0  0  0  0  0  0  0  0  0
    9.3323  -16.0995   26.5932 C   0  0  0  0  0  0  0  0  0  0  0  0
    9.2711  -17.3828   26.0079 O   0  0  0  0  0  0  0  0  0  0  0  0
    9.7759  -16.0784   27.7597 O   0  0  0  0  0  0  0  0  0  0  0  0
  2  3  1  0
  2  1  1  1
  4  2  1  0
  5  4  2  0
  6  4  1  0
  7 10  1  0
  7  6  1  0
  7  8  1  1
  9  8  1  0
 10 11  2  0
 13 12  1  1
 13 14  1  0
 15 13  1  0
 16 15  1  1
 17 16  1  0
 17 10  1  0
 18 16  1  0
 19 18  1  0
 20 18  2  0
M  END
$$$$
