ACL.pdb
     RDKit          3D

 20 19  0  0  1  0  0  0  0  0999 V2000
    8.1371  -12.3019   19.1939 C   0  0  0  0  0  0  0  0  0  0  0  0
    8.5911  -13.7415   19.0480 C   0  0  2  0  0  0  0  0  0  0  0  0
    8.1888  -14.2801   17.7851 N   0  0  0  0  0  0  0  0  0  0  0  0
    8.0489  -14.5101   20.1836 C   0  0  0  0  0  0  0  0  0  0  0  0
    6.7993  -14.7172   20.2262 O   0  0  0  0  0  0  0  0  0  0  0  0
    8.8678  -15.0235   21.2239 N   0  0  0  0  0  0  0  0  0  0  0  0
    8.3861  -15.8629   22.2932 C   0  0  1  0  0  0  0  0  0  0  0  0
    8.9167  -17.2810   22.1744 C   0  0  0  0  0  0  0  0  0  0  0  0
   10.6781  -17.3321   21.8443 S   0  0  0  0  0  0  0  0  0  0  0  0
    8.9304  -15.3192   23.5885 C   0  0  0  0  0  0  0  0  0  0  0  0
   10.0818  -14.8138   23.6425 O   0  0  0  0  0  0  0  0  0  0  0  0
    5.8496  -12.4808   26.7757 C   0  0  0  0  0  0  0  0  0  0  0  0
    7.0858  -12.8988   25.9142 C   0  0  1  0  0  0  0  0  0  0  0  0
    7.9644  -11.6490   25.9332 C   0  0  0  0  0  0  0  0  0  0  0  0
    7.6987  -14.0139   26.6687 C   0  0  0  0  0  0  0  0  0  0  0  0
    8.7599  -14.8426   26.0562 C   0  0  2  0  0  0  0  0  0  0  0  0
    8.1678  -15.3595   24.7788 N   0  0  0  0  0  0  0  0  0  0  0  0
    9.1737  -15.9952   26.8562 C   0  0  0  0  0  0  0  0  0  0  0  0
   10.0379  -15.7670   27.9491 O   0  0  0  0  0  0  0  0  0  0  0  0
    8.8489  -17.1885   26.6877 O   0  0  0  0  0  0  0  0  0  0  0  0
  2  3  1  0
  2  1  1  1
  4  2  1  0
  5  4  2  0
  6  4  1  0
  7 10  1  0
  7  6  1  0
  7  8  1  6
  9  8  1  0
 10 11  2  0
 13 12  1  1
 13 14  1  0
 15 13  1  0
 16 15  1  1
 17 16  1  0
 17 10  1  0
 18 16  1  0
 19 18  1  0
 20 18  2  0
M  END
$$$$
