ACL.pdb
     RDKit          3D

 20 19  0  0  1  0  0  0  0  0999 V2000
   12.1621  -17.3947   19.8914 C   0  0  0  0  0  0  0  0  0  0  0  0
   10.7699  -17.9566   19.6770 C   0  0  2  0  0  0  0  0  0  0  0  0
   10.4426  -17.9971   18.2849 N   0  0  0  0  0  0  0  0  0  0  0  0
    9.8206  -17.1370   20.4525 C   0  0  0  0  0  0  0  0  0  0  0  0
    9.3465  -16.0939   19.9111 O   0  0  0  0  0  0  0  0  0  0  0  0
    9.4202  -17.4698   21.7736 N   0  0  0  0  0  0  0  0  0  0  0  0
    8.3538  -16.8102   22.4861 C   0  0  1  0  0  0  0  0  0  0  0  0
    7.3306  -17.8037   23.0083 C   0  0  0  0  0  0  0  0  0  0  0  0
    8.0792  -19.1316   23.9520 S   0  0  0  0  0  0  0  0  0  0  0  0
    8.9503  -16.1464   23.6999 C   0  0  0  0  0  0  0  0  0  0  0  0
   10.0796  -16.4925   24.1346 O   0  0  0  0  0  0  0  0  0  0  0  0
    6.9365  -11.9267   27.3124 C   0  0  0  0  0  0  0  0  0  0  0  0
    6.8617  -13.0936   26.2742 C   0  0  1  0  0  0  0  0  0  0  0  0
    5.7940  -12.6187   25.2900 C   0  0  0  0  0  0  0  0  0  0  0  0
    8.2057  -13.1223   25.6568 C   0  0  0  0  0  0  0  0  0  0  0  0
    8.9403  -14.3982   25.5136 C   0  0  2  0  0  0  0  0  0  0  0  0
    8.2630  -15.1181   24.3856 N   0  0  0  0  0  0  0  0  0  0  0  0
    8.8938  -15.2658   26.6903 C   0  0  0  0  0  0  0  0  0  0  0  0
    8.0924  -16.4264   26.6263 O   0  0  0  0  0  0  0  0  0  0  0  0
    9.4909  -15.1029   27.7741 O   0  0  0  0  0  0  0  0  0  0  0  0
  2  3  1  0
  2  1  1  6
  4  2  1  0
  5  4  2  0
  6  4  1  0
  7 10  1  0
  7  6  1  0
  7  8  1  1
  9  8  1  0
 10 11  2  0
 13 12  1  1
 13 14  1  0
 15 13  1  0
 16 15  1  1
 17 16  1  0
 17 10  1  0
 18 16  1  0
 19 18  1  0
 20 18  2  0
M  END
$$$$
