ACL.pdb
     RDKit          3D

 20 19  0  0  1  0  0  0  0  0999 V2000
    8.5603  -12.5398   19.4963 C   0  0  0  0  0  0  0  0  0  0  0  0
    8.4677  -14.0414   19.3049 C   0  0  2  0  0  0  0  0  0  0  0  0
    7.7571  -14.3621   18.1053 N   0  0  0  0  0  0  0  0  0  0  0  0
    7.8320  -14.6177   20.5041 C   0  0  0  0  0  0  0  0  0  0  0  0
    6.5786  -14.4891   20.6396 O   0  0  0  0  0  0  0  0  0  0  0  0
    8.5657  -15.3066   21.5059 N   0  0  0  0  0  0  0  0  0  0  0  0
    7.9668  -15.9481   22.6503 C   0  0  1  0  0  0  0  0  0  0  0  0
    8.1219  -17.4577   22.5912 C   0  0  0  0  0  0  0  0  0  0  0  0
    7.3886  -18.2814   24.0047 S   0  0  0  0  0  0  0  0  0  0  0  0
    8.7161  -15.4978   23.8772 C   0  0  0  0  0  0  0  0  0  0  0  0
    9.9740  -15.5213   23.9094 O   0  0  0  0  0  0  0  0  0  0  0  0
    5.7375  -13.0976   26.0614 C   0  0  0  0  0  0  0  0  0  0  0  0
    7.1982  -12.5669   26.2339 C   0  0  1  0  0  0  0  0  0  0  0  0
    7.0204  -11.3335   27.1179 C   0  0  0  0  0  0  0  0  0  0  0  0
    7.9029  -13.6563   26.9445 C   0  0  0  0  0  0  0  0  0  0  0  0
    8.8153  -14.5633   26.2145 C   0  0  2  0  0  0  0  0  0  0  0  0
    8.0323  -15.0366   25.0261 N   0  0  0  0  0  0  0  0  0  0  0  0
    9.2388  -15.7422   26.9698 C   0  0  0  0  0  0  0  0  0  0  0  0
    8.5399  -16.9505   26.7585 O   0  0  0  0  0  0  0  0  0  0  0  0
   10.1670  -15.8145   27.8011 O   0  0  0  0  0  0  0  0  0  0  0  0
  2  3  1  0
  2  1  1  1
  4  2  1  0
  5  4  2  0
  6  4  1  0
  7 10  1  0
  7  6  1  0
  7  8  1  6
  9  8  1  0
 10 11  2  0
 13 12  1  1
 13 14  1  0
 15 13  1  0
 16 15  1  1
 17 16  1  0
 17 10  1  0
 18 16  1  0
 19 18  1  0
 20 18  2  0
M  END
$$$$
