ACL.pdb
     RDKit          3D

 20 19  0  0  1  0  0  0  0  0999 V2000
    7.6346  -13.1095   17.8023 C   0  0  0  0  0  0  0  0  0  0  0  0
    8.7585  -13.5858   18.7022 C   0  0  2  0  0  0  0  0  0  0  0  0
    9.6225  -14.4902   18.0078 N   0  0  0  0  0  0  0  0  0  0  0  0
    8.1571  -14.1952   19.9027 C   0  0  0  0  0  0  0  0  0  0  0  0
    7.1775  -13.6051   20.4488 O   0  0  0  0  0  0  0  0  0  0  0  0
    8.6305  -15.4095   20.4663 N   0  0  0  0  0  0  0  0  0  0  0  0
    8.0261  -16.0652   21.5998 C   0  0  1  0  0  0  0  0  0  0  0  0
    8.4845  -17.5079   21.7224 C   0  0  0  0  0  0  0  0  0  0  0  0
   10.2694  -17.6699   21.6762 S   0  0  0  0  0  0  0  0  0  0  0  0
    8.5033  -15.3668   22.8464 C   0  0  0  0  0  0  0  0  0  0  0  0
    9.6292  -14.8053   22.8800 O   0  0  0  0  0  0  0  0  0  0  0  0
    8.0203  -11.5709   26.1833 C   0  0  0  0  0  0  0  0  0  0  0  0
    7.1891  -12.7669   26.7524 C   0  0  1  0  0  0  0  0  0  0  0  0
    5.8524  -12.1226   27.1162 C   0  0  0  0  0  0  0  0  0  0  0  0
    7.0583  -13.6989   25.6110 C   0  0  0  0  0  0  0  0  0  0  0  0
    8.1898  -14.5648   25.2137 C   0  0  2  0  0  0  0  0  0  0  0  0
    7.7045  -15.3204   24.0125 N   0  0  0  0  0  0  0  0  0  0  0  0
    8.5955  -15.5422   26.2234 C   0  0  0  0  0  0  0  0  0  0  0  0
    9.6807  -15.2140   27.0648 O   0  0  0  0  0  0  0  0  0  0  0  0
    8.0875  -16.6617   26.4394 O   0  0  0  0  0  0  0  0  0  0  0  0
  2  3  1  0
  2  1  1  6
  4  2  1  0
  5  4  2  0
  6  4  1  0
  7 10  1  0
  7  6  1  0
  7  8  1  1
  9  8  1  0
 10 11  2  0
 13 12  1  6
 13 14  1  0
 15 13  1  0
 16 15  1  1
 17 16  1  0
 17 10  1  0
 18 16  1  0
 19 18  1  0
 20 18  2  0
M  END
$$$$
