LPG.pdb
     RDKit          3D

 20 20  0  0  1  0  0  0  0  0999 V2000
   27.8980  -21.1775   -3.8434 C   0  0  0  0  0  0  0  0  0  0  0  0
   28.2768  -20.1261   -4.8911 C   0  0  1  0  0  0  0  0  0  0  0  0
   29.7677  -20.1370   -5.1575 C   0  0  0  0  0  0  0  0  0  0  0  0
   27.5240  -20.4198   -6.1671 C   0  0  0  0  0  0  0  0  0  0  0  0
   27.7811  -19.3050   -7.1797 C   0  0  2  0  0  0  0  0  0  0  0  0
   27.4254  -18.0154   -6.6915 N   0  0  0  0  0  0  0  0  0  0  0  0
   27.0687  -19.6388   -8.4198 C   0  0  0  0  0  0  0  0  0  0  0  0
   25.8436  -19.2838   -8.5662 O   0  0  0  0  0  0  0  0  0  0  0  0
   27.6963  -20.3629   -9.5012 N   0  0  0  0  0  0  0  0  0  0  0  0
   28.9670  -21.0076   -9.4580 C   0  0  0  0  0  0  0  0  0  0  0  0
   29.2449  -21.5401  -10.8331 C   0  0  0  0  0  0  0  0  0  0  0  0
   28.2767  -20.7541  -11.7172 C   0  0  0  0  0  0  0  0  0  0  0  0
   27.0956  -20.5461  -10.8066 C   0  0  1  0  0  0  0  0  0  0  0  0
   26.2074  -21.7443  -10.7766 C   0  0  0  0  0  0  0  0  0  0  0  0
   26.6693  -22.8561  -10.4265 O   0  0  0  0  0  0  0  0  0  0  0  0
   24.8423  -21.6858  -11.1312 N   0  0  0  0  0  0  0  0  0  0  0  0
   24.3098  -22.4146  -12.2562 C   0  0  0  0  0  0  0  0  0  0  0  0
   23.9143  -21.4923  -13.3497 C   0  0  0  0  0  0  0  0  0  0  0  0
   22.8845  -20.8020  -13.2588 O   0  0  0  0  0  0  0  0  0  0  0  0
   24.7093  -21.4075  -14.4804 O   0  0  0  0  0  0  0  0  0  0  0  0
  2  1  1  1
  3  2  1  0
  4  2  1  0
  5  7  1  0
  5  4  1  0
  5  6  1  1
  7  8  2  0
  9 10  1  0
  9  7  1  0
 11 10  1  0
 12 13  1  0
 12 11  1  0
 13  9  1  0
 14 16  1  0
 13 14  1  1
 15 14  2  0
 17 16  1  0
 18 20  1  0
 18 17  1  0
 19 18  2  0
M  END
$$$$
