LPG.pdb
     RDKit          3D

 20 20  0  0  1  0  0  0  0  0999 V2000
   17.8759  -18.7945  -13.9225 C   0  0  0  0  0  0  0  0  0  0  0  0
   19.3557  -19.1561  -13.7611 C   0  0  1  0  0  0  0  0  0  0  0  0
   20.1061  -18.0614  -13.0313 C   0  0  0  0  0  0  0  0  0  0  0  0
   19.4572  -20.4511  -12.9904 C   0  0  0  0  0  0  0  0  0  0  0  0
   20.9278  -20.8243  -12.8106 C   0  0  2  0  0  0  0  0  0  0  0  0
   21.5307  -21.3073  -14.0069 N   0  0  0  0  0  0  0  0  0  0  0  0
   21.0230  -21.7981  -11.7153 C   0  0  0  0  0  0  0  0  0  0  0  0
   20.9196  -23.0527  -11.9674 O   0  0  0  0  0  0  0  0  0  0  0  0
   21.2306  -21.3995  -10.3422 N   0  0  0  0  0  0  0  0  0  0  0  0
   21.3571  -20.0631   -9.8625 C   0  0  0  0  0  0  0  0  0  0  0  0
   21.6567  -20.1418   -8.3943 C   0  0  0  0  0  0  0  0  0  0  0  0
   22.1354  -21.5817   -8.2094 C   0  0  0  0  0  0  0  0  0  0  0  0
   21.3282  -22.3305   -9.2367 C   0  0  1  0  0  0  0  0  0  0  0  0
   19.9590  -22.6462   -8.7358 C   0  0  0  0  0  0  0  0  0  0  0  0
   19.0192  -21.8408   -8.9356 O   0  0  0  0  0  0  0  0  0  0  0  0
   19.6637  -23.8339   -8.0322 N   0  0  0  0  0  0  0  0  0  0  0  0
   18.3167  -24.1897   -7.6587 C   0  0  0  0  0  0  0  0  0  0  0  0
   18.1038  -24.0131   -6.2004 C   0  0  0  0  0  0  0  0  0  0  0  0
   19.0588  -23.7696   -5.4429 O   0  0  0  0  0  0  0  0  0  0  0  0
   16.8220  -24.1230   -5.6884 O   0  0  0  0  0  0  0  0  0  0  0  0
  2  1  1  1
  3  2  1  0
  4  2  1  0
  5  7  1  0
  5  4  1  0
  5  6  1  6
  7  8  2  0
  9 10  1  0
  9  7  1  0
 11 10  1  0
 12 13  1  0
 12 11  1  0
 13  9  1  0
 14 16  1  0
 13 14  1  1
 15 14  2  0
 17 16  1  0
 18 20  1  0
 18 17  1  0
 19 18  2  0
M  END
$$$$
