LPG.pdb
     RDKit          3D

 20 20  0  0  1  0  0  0  0  0999 V2000
   25.6538  -21.4605   -9.3954 C   0  0  0  0  0  0  0  0  0  0  0  0
   24.9272  -20.5619  -10.4009 C   0  0  1  0  0  0  0  0  0  0  0  0
   25.4053  -19.1287  -10.2934 C   0  0  0  0  0  0  0  0  0  0  0  0
   25.1836  -21.0866  -11.7939 C   0  0  0  0  0  0  0  0  0  0  0  0
   24.4919  -20.1844  -12.8146 C   0  0  2  0  0  0  0  0  0  0  0  0
   23.0711  -20.2498  -12.7440 N   0  0  0  0  0  0  0  0  0  0  0  0
   24.9926  -20.5350  -14.1500 C   0  0  0  0  0  0  0  0  0  0  0  0
   24.2147  -21.1168  -14.9896 O   0  0  0  0  0  0  0  0  0  0  0  0
   26.3460  -20.2503  -14.5678 N   0  0  0  0  0  0  0  0  0  0  0  0
   27.3668  -19.6555  -13.7700 C   0  0  0  0  0  0  0  0  0  0  0  0
   28.5680  -19.4668  -14.6492 C   0  0  0  0  0  0  0  0  0  0  0  0
   27.9900  -19.5657  -16.0609 C   0  0  0  0  0  0  0  0  0  0  0  0
   26.8646  -20.5509  -15.8865 C   0  0  1  0  0  0  0  0  0  0  0  0
   27.3578  -21.9585  -15.9131 C   0  0  0  0  0  0  0  0  0  0  0  0
   28.1296  -22.3675  -15.0135 O   0  0  0  0  0  0  0  0  0  0  0  0
   26.9898  -22.8725  -16.9240 N   0  0  0  0  0  0  0  0  0  0  0  0
   27.0600  -24.3001  -16.7304 C   0  0  0  0  0  0  0  0  0  0  0  0
   25.9165  -24.7845  -15.9175 C   0  0  0  0  0  0  0  0  0  0  0  0
   26.0656  -25.7030  -15.0934 O   0  0  0  0  0  0  0  0  0  0  0  0
   24.6732  -24.1991  -16.0874 O   0  0  0  0  0  0  0  0  0  0  0  0
  2  1  1  1
  3  2  1  0
  4  2  1  0
  5  7  1  0
  5  4  1  0
  5  6  1  6
  7  8  2  0
  9 10  1  0
  9  7  1  0
 11 10  1  0
 12 13  1  0
 12 11  1  0
 13  9  1  0
 14 16  1  0
 13 14  1  1
 15 14  2  0
 17 16  1  0
 18 20  1  0
 18 17  1  0
 19 18  2  0
M  END
$$$$
