LPG.pdb
     RDKit          3D

 20 20  0  0  1  0  0  0  0  0999 V2000
   27.4309  -21.0080   -4.4972 C   0  0  0  0  0  0  0  0  0  0  0  0
   27.8587  -20.0056   -5.5738 C   0  0  1  0  0  0  0  0  0  0  0  0
   29.3466  -20.0975   -5.8412 C   0  0  0  0  0  0  0  0  0  0  0  0
   27.0893  -20.2967   -6.8406 C   0  0  0  0  0  0  0  0  0  0  0  0
   27.3957  -19.2220   -7.8823 C   0  0  2  0  0  0  0  0  0  0  0  0
   27.1278  -17.9028   -7.4178 N   0  0  0  0  0  0  0  0  0  0  0  0
   26.6425  -19.5385   -9.1027 C   0  0  0  0  0  0  0  0  0  0  0  0
   25.4330  -19.1269   -9.2296 O   0  0  0  0  0  0  0  0  0  0  0  0
   27.2120  -20.3070  -10.1855 N   0  0  0  0  0  0  0  0  0  0  0  0
   28.4788  -20.9609  -10.1796 C   0  0  0  0  0  0  0  0  0  0  0  0
   28.6862  -21.5456  -11.5459 C   0  0  0  0  0  0  0  0  0  0  0  0
   27.6821  -20.7837  -12.4109 C   0  0  0  0  0  0  0  0  0  0  0  0
   26.5478  -20.5322  -11.4530 C   0  0  1  0  0  0  0  0  0  0  0  0
   25.6536  -21.7207  -11.3364 C   0  0  0  0  0  0  0  0  0  0  0  0
   25.8481  -22.5625  -10.4278 O   0  0  0  0  0  0  0  0  0  0  0  0
   24.5756  -21.9484  -12.2188 N   0  0  0  0  0  0  0  0  0  0  0  0
   23.7670  -20.8719  -12.7363 C   0  0  0  0  0  0  0  0  0  0  0  0
   22.3997  -20.9077  -12.1600 C   0  0  0  0  0  0  0  0  0  0  0  0
   21.4059  -21.0689  -12.8891 O   0  0  0  0  0  0  0  0  0  0  0  0
   22.2407  -20.7587  -10.7926 O   0  0  0  0  0  0  0  0  0  0  0  0
  2  1  1  1
  3  2  1  0
  4  2  1  0
  5  7  1  0
  5  4  1  0
  5  6  1  1
  7  8  2  0
  9 10  1  0
  9  7  1  0
 11 10  1  0
 12 13  1  0
 12 11  1  0
 13  9  1  0
 14 16  1  0
 13 14  1  1
 15 14  2  0
 17 16  1  0
 18 20  1  0
 18 17  1  0
 19 18  2  0
M  END
$$$$
