LPG.pdb
     RDKit          3D

 20 20  0  0  1  0  0  0  0  0999 V2000
   25.5087  -21.3001   -9.4600 C   0  0  0  0  0  0  0  0  0  0  0  0
   24.9835  -20.3429  -10.5346 C   0  0  1  0  0  0  0  0  0  0  0  0
   26.0244  -19.3018  -10.8906 C   0  0  0  0  0  0  0  0  0  0  0  0
   24.6173  -21.1447  -11.7611 C   0  0  0  0  0  0  0  0  0  0  0  0
   23.9852  -20.2234  -12.8032 C   0  0  2  0  0  0  0  0  0  0  0  0
   22.5724  -20.3747  -12.8974 N   0  0  0  0  0  0  0  0  0  0  0  0
   24.6505  -20.4628  -14.0904 C   0  0  0  0  0  0  0  0  0  0  0  0
   24.0808  -21.1984  -14.9751 O   0  0  0  0  0  0  0  0  0  0  0  0
   25.9412  -19.8979  -14.4106 N   0  0  0  0  0  0  0  0  0  0  0  0
   26.7680  -19.1350  -13.5350 C   0  0  0  0  0  0  0  0  0  0  0  0
   27.9583  -18.6803  -14.3274 C   0  0  0  0  0  0  0  0  0  0  0  0
   27.5017  -18.8491  -15.7765 C   0  0  0  0  0  0  0  0  0  0  0  0
   26.5914  -20.0460  -15.6966 C   0  0  1  0  0  0  0  0  0  0  0  0
   27.3611  -21.3238  -15.7155 C   0  0  0  0  0  0  0  0  0  0  0  0
   28.0056  -21.6803  -14.7008 O   0  0  0  0  0  0  0  0  0  0  0  0
   27.4000  -22.1694  -16.8451 N   0  0  0  0  0  0  0  0  0  0  0  0
   28.0403  -23.4616  -16.8146 C   0  0  0  0  0  0  0  0  0  0  0  0
   29.3024  -23.4494  -17.5955 C   0  0  0  0  0  0  0  0  0  0  0  0
   29.7568  -24.4969  -18.0868 O   0  0  0  0  0  0  0  0  0  0  0  0
   29.9736  -22.2513  -17.7728 O   0  0  0  0  0  0  0  0  0  0  0  0
  2  1  1  1
  3  2  1  0
  4  2  1  0
  5  7  1  0
  5  4  1  0
  5  6  1  6
  7  8  2  0
  9 10  1  0
  9  7  1  0
 11 10  1  0
 12 13  1  0
 12 11  1  0
 13  9  1  0
 14 16  1  0
 13 14  1  1
 15 14  2  0
 17 16  1  0
 18 20  1  0
 18 17  1  0
 19 18  2  0
M  END
$$$$
