LPG.pdb
     RDKit          3D

 20 20  0  0  1  0  0  0  0  0999 V2000
   20.1098  -11.0991    8.9200 C   0  0  0  0  0  0  0  0  0  0  0  0
   20.1125  -11.6440    7.4882 C   0  0  1  0  0  0  0  0  0  0  0  0
   21.5229  -11.9384    7.0215 C   0  0  0  0  0  0  0  0  0  0  0  0
   19.2833  -12.9058    7.4480 C   0  0  0  0  0  0  0  0  0  0  0  0
   19.2666  -13.4605    6.0245 C   0  0  2  0  0  0  0  0  0  0  0  0
   18.5200  -12.6527    5.1201 N   0  0  0  0  0  0  0  0  0  0  0  0
   18.7619  -14.8387    6.0755 C   0  0  0  0  0  0  0  0  0  0  0  0
   17.5709  -15.0965    5.6711 O   0  0  0  0  0  0  0  0  0  0  0  0
   19.5599  -15.9367    6.5704 N   0  0  0  0  0  0  0  0  0  0  0  0
   20.8823  -15.8479    7.0954 C   0  0  0  0  0  0  0  0  0  0  0  0
   21.3411  -17.2458    7.3900 C   0  0  0  0  0  0  0  0  0  0  0  0
   20.3811  -18.1107    6.5732 C   0  0  0  0  0  0  0  0  0  0  0  0
   19.1054  -17.3115    6.6117 C   0  0  1  0  0  0  0  0  0  0  0  0
   18.3502  -17.5432    7.8772 C   0  0  0  0  0  0  0  0  0  0  0  0
   18.2838  -16.6363    8.7404 O   0  0  0  0  0  0  0  0  0  0  0  0
   17.6923  -18.7606    8.1560 N   0  0  0  0  0  0  0  0  0  0  0  0
   16.5121  -19.1768    7.4388 C   0  0  0  0  0  0  0  0  0  0  0  0
   15.2821  -18.6700    8.0969 C   0  0  0  0  0  0  0  0  0  0  0  0
   15.1364  -17.4569    8.3255 O   0  0  0  0  0  0  0  0  0  0  0  0
   14.2912  -19.5681    8.4562 O   0  0  0  0  0  0  0  0  0  0  0  0
  2  1  1  1
  3  2  1  0
  4  2  1  0
  5  7  1  0
  5  4  1  0
  5  6  1  6
  7  8  2  0
  9 10  1  0
  9  7  1  0
 11 10  1  0
 12 13  1  0
 12 11  1  0
 13  9  1  0
 14 16  1  0
 13 14  1  1
 15 14  2  0
 17 16  1  0
 18 20  1  0
 18 17  1  0
 19 18  2  0
M  END
$$$$
