LPG.pdb
     RDKit          3D

 20 20  0  0  1  0  0  0  0  0999 V2000
   18.5527   -9.3303  -19.6904 C   0  0  0  0  0  0  0  0  0  0  0  0
   19.4904   -9.6262  -18.5158 C   0  0  1  0  0  0  0  0  0  0  0  0
   20.9409   -9.5060  -18.9348 C   0  0  0  0  0  0  0  0  0  0  0  0
   19.1943   -8.6507  -17.4013 C   0  0  0  0  0  0  0  0  0  0  0  0
   20.0081   -9.0267  -16.1641 C   0  0  2  0  0  0  0  0  0  0  0  0
   19.6804  -10.3141  -15.6513 N   0  0  0  0  0  0  0  0  0  0  0  0
   19.8270   -7.9720  -15.1583 C   0  0  0  0  0  0  0  0  0  0  0  0
   18.8279   -8.0238  -14.3536 O   0  0  0  0  0  0  0  0  0  0  0  0
   20.7388   -6.8583  -15.0328 N   0  0  0  0  0  0  0  0  0  0  0  0
   21.8894   -6.6161  -15.8388 C   0  0  0  0  0  0  0  0  0  0  0  0
   22.5783   -5.4050  -15.2819 C   0  0  0  0  0  0  0  0  0  0  0  0
   21.9979   -5.2868  -13.8727 C   0  0  0  0  0  0  0  0  0  0  0  0
   20.5944   -5.8027  -14.0513 C   0  0  1  0  0  0  0  0  0  0  0  0
   19.6865   -4.7490  -14.5906 C   0  0  0  0  0  0  0  0  0  0  0  0
   19.5717   -4.5973  -15.8298 O   0  0  0  0  0  0  0  0  0  0  0  0
   18.9338   -3.8958  -13.7550 N   0  0  0  0  0  0  0  0  0  0  0  0
   17.9380   -2.9927  -14.2778 C   0  0  0  0  0  0  0  0  0  0  0  0
   18.5687   -1.7758  -14.8473 C   0  0  0  0  0  0  0  0  0  0  0  0
   18.2990   -1.3999  -16.0010 O   0  0  0  0  0  0  0  0  0  0  0  0
   19.4669   -1.0582  -14.0754 O   0  0  0  0  0  0  0  0  0  0  0  0
  2  1  1  6
  3  2  1  0
  4  2  1  0
  5  7  1  0
  5  4  1  0
  5  6  1  1
  7  8  2  0
  9 10  1  0
  9  7  1  0
 11 10  1  0
 12 13  1  0
 12 11  1  0
 13  9  1  0
 14 16  1  0
 13 14  1  6
 15 14  2  0
 17 16  1  0
 18 20  1  0
 18 17  1  0
 19 18  2  0
M  END
$$$$
