LPG.pdb
     RDKit          3D

 20 20  0  0  1  0  0  0  0  0999 V2000
   19.8347  -15.0549    1.1272 C   0  0  0  0  0  0  0  0  0  0  0  0
   19.7353  -16.5691    1.3370 C   0  0  1  0  0  0  0  0  0  0  0  0
   21.1061  -17.2127    1.3093 C   0  0  0  0  0  0  0  0  0  0  0  0
   19.0704  -16.8316    2.6675 C   0  0  0  0  0  0  0  0  0  0  0  0
   18.7036  -18.3111    2.7717 C   0  0  2  0  0  0  0  0  0  0  0  0
   17.7393  -18.7159    1.8052 N   0  0  0  0  0  0  0  0  0  0  0  0
   18.2511  -18.5757    4.1436 C   0  0  0  0  0  0  0  0  0  0  0  0
   16.9948  -18.6577    4.3955 O   0  0  0  0  0  0  0  0  0  0  0  0
   19.1734  -18.7497    5.2421 N   0  0  0  0  0  0  0  0  0  0  0  0
   20.5959  -18.6969    5.1646 C   0  0  0  0  0  0  0  0  0  0  0  0
   21.1303  -19.0303    6.5265 C   0  0  0  0  0  0  0  0  0  0  0  0
   19.9449  -19.7085    7.2134 C   0  0  0  0  0  0  0  0  0  0  0  0
   18.7638  -18.9958    6.6096 C   0  0  1  0  0  0  0  0  0  0  0  0
   18.5030  -17.6930    7.2880 C   0  0  0  0  0  0  0  0  0  0  0  0
   19.0919  -16.6568    6.8989 O   0  0  0  0  0  0  0  0  0  0  0  0
   17.6056  -17.5676    8.3704 N   0  0  0  0  0  0  0  0  0  0  0  0
   17.2919  -16.2905    8.9631 C   0  0  0  0  0  0  0  0  0  0  0  0
   17.9425  -16.1442   10.2891 C   0  0  0  0  0  0  0  0  0  0  0  0
   17.6882  -16.9356   11.2134 O   0  0  0  0  0  0  0  0  0  0  0  0
   18.8418  -15.1103   10.4881 O   0  0  0  0  0  0  0  0  0  0  0  0
  2  1  1  1
  3  2  1  0
  4  2  1  0
  5  7  1  0
  5  4  1  0
  5  6  1  6
  7  8  2  0
  9 10  1  0
  9  7  1  0
 11 10  1  0
 12 13  1  0
 12 11  1  0
 13  9  1  0
 14 16  1  0
 13 14  1  1
 15 14  2  0
 17 16  1  0
 18 20  1  0
 18 17  1  0
 19 18  2  0
M  END
$$$$
