LPG.pdb
     RDKit          3D

 20 20  0  0  1  0  0  0  0  0999 V2000
   21.3251  -20.9086  -12.1354 C   0  0  0  0  0  0  0  0  0  0  0  0
   22.7235  -21.4070  -11.7574 C   0  0  1  0  0  0  0  0  0  0  0  0
   23.4549  -21.9445  -12.9699 C   0  0  0  0  0  0  0  0  0  0  0  0
   23.5002  -20.2605  -11.1544 C   0  0  0  0  0  0  0  0  0  0  0  0
   24.8839  -20.7492  -10.7290 C   0  0  2  0  0  0  0  0  0  0  0  0
   25.0544  -20.7793   -9.3155 N   0  0  0  0  0  0  0  0  0  0  0  0
   25.8902  -19.9051  -11.3861 C   0  0  0  0  0  0  0  0  0  0  0  0
   26.1407  -18.7343  -10.9224 O   0  0  0  0  0  0  0  0  0  0  0  0
   26.6230  -20.3411  -12.5524 N   0  0  0  0  0  0  0  0  0  0  0  0
   26.5422  -21.6247  -13.1673 C   0  0  0  0  0  0  0  0  0  0  0  0
   27.5484  -21.6512  -14.2802 C   0  0  0  0  0  0  0  0  0  0  0  0
   28.4833  -20.4915  -13.9371 C   0  0  0  0  0  0  0  0  0  0  0  0
   27.5548  -19.5044  -13.2805 C   0  0  1  0  0  0  0  0  0  0  0  0
   26.8084  -18.6977  -14.2892 C   0  0  0  0  0  0  0  0  0  0  0  0
   25.7704  -19.1623  -14.8170 O   0  0  0  0  0  0  0  0  0  0  0  0
   27.2232  -17.4083  -14.6870 N   0  0  0  0  0  0  0  0  0  0  0  0
   26.3634  -16.5213  -15.4315 C   0  0  0  0  0  0  0  0  0  0  0  0
   26.6065  -16.6437  -16.8906 C   0  0  0  0  0  0  0  0  0  0  0  0
   26.6905  -17.7603  -17.4302 O   0  0  0  0  0  0  0  0  0  0  0  0
   26.7398  -15.4937  -17.6503 O   0  0  0  0  0  0  0  0  0  0  0  0
  2  1  1  6
  3  2  1  0
  4  2  1  0
  5  7  1  0
  5  4  1  0
  5  6  1  1
  7  8  2  0
  9 10  1  0
  9  7  1  0
 11 10  1  0
 12 13  1  0
 12 11  1  0
 13  9  1  0
 14 16  1  0
 13 14  1  6
 15 14  2  0
 17 16  1  0
 18 20  1  0
 18 17  1  0
 19 18  2  0
M  END
$$$$
