LPG.pdb
     RDKit          3D

 20 20  0  0  1  0  0  0  0  0999 V2000
   21.3119  -16.0136  -16.7137 C   0  0  0  0  0  0  0  0  0  0  0  0
   22.2601  -17.0495  -17.3257 C   0  0  1  0  0  0  0  0  0  0  0  0
   23.4457  -16.3775  -17.9865 C   0  0  0  0  0  0  0  0  0  0  0  0
   22.7373  -17.9757  -16.2321 C   0  0  0  0  0  0  0  0  0  0  0  0
   23.5377  -19.1224  -16.8476 C   0  0  2  0  0  0  0  0  0  0  0  0
   22.7763  -19.9068  -17.7603 N   0  0  0  0  0  0  0  0  0  0  0  0
   24.0913  -19.9331  -15.7552 C   0  0  0  0  0  0  0  0  0  0  0  0
   23.4088  -20.9101  -15.2778 O   0  0  0  0  0  0  0  0  0  0  0  0
   25.3925  -19.6745  -15.1831 N   0  0  0  0  0  0  0  0  0  0  0  0
   26.2768  -18.6162  -15.5444 C   0  0  0  0  0  0  0  0  0  0  0  0
   27.5418  -18.8033  -14.7593 C   0  0  0  0  0  0  0  0  0  0  0  0
   27.4640  -20.2620  -14.3089 C   0  0  0  0  0  0  0  0  0  0  0  0
   25.9838  -20.4712  -14.1277 C   0  0  1  0  0  0  0  0  0  0  0  0
   25.5152  -19.9636  -12.8055 C   0  0  0  0  0  0  0  0  0  0  0  0
   25.3904  -18.7302  -12.6180 O   0  0  0  0  0  0  0  0  0  0  0  0
   25.1985  -20.8235  -11.7317 N   0  0  0  0  0  0  0  0  0  0  0  0
   24.8439  -20.3225  -10.4264 C   0  0  0  0  0  0  0  0  0  0  0  0
   25.7388  -20.8785   -9.3810 C   0  0  0  0  0  0  0  0  0  0  0  0
   26.5113  -21.8178   -9.6384 O   0  0  0  0  0  0  0  0  0  0  0  0
   25.7046  -20.3370   -8.1070 O   0  0  0  0  0  0  0  0  0  0  0  0
  2  1  1  1
  3  2  1  0
  4  2  1  0
  5  7  1  0
  5  4  1  0
  5  6  1  6
  7  8  2  0
  9 10  1  0
  9  7  1  0
 11 10  1  0
 12 13  1  0
 12 11  1  0
 13  9  1  0
 14 16  1  0
 13 14  1  1
 15 14  2  0
 17 16  1  0
 18 20  1  0
 18 17  1  0
 19 18  2  0
M  END
$$$$
