LPG.pdb
     RDKit          3D

 20 20  0  0  1  0  0  0  0  0999 V2000
   15.6372   -9.2527  -17.9621 C   0  0  0  0  0  0  0  0  0  0  0  0
   16.6821  -10.3502  -17.7370 C   0  0  1  0  0  0  0  0  0  0  0  0
   17.1447  -10.9383  -19.0538 C   0  0  0  0  0  0  0  0  0  0  0  0
   17.8576   -9.7562  -16.9976 C   0  0  0  0  0  0  0  0  0  0  0  0
   18.8062  -10.8733  -16.5657 C   0  0  2  0  0  0  0  0  0  0  0  0
   18.1691  -11.8709  -15.7741 N   0  0  0  0  0  0  0  0  0  0  0  0
   19.9456  -10.2630  -15.8682 C   0  0  0  0  0  0  0  0  0  0  0  0
   19.8721  -10.0339  -14.6071 O   0  0  0  0  0  0  0  0  0  0  0  0
   21.1666   -9.9017  -16.5507 N   0  0  0  0  0  0  0  0  0  0  0  0
   21.4301  -10.0530  -17.9436 C   0  0  0  0  0  0  0  0  0  0  0  0
   22.8528   -9.6371  -18.1771 C   0  0  0  0  0  0  0  0  0  0  0  0
   23.4699   -9.6939  -16.7797 C   0  0  0  0  0  0  0  0  0  0  0  0
   22.3141   -9.3093  -15.8944 C   0  0  1  0  0  0  0  0  0  0  0  0
   22.1375   -7.8292  -15.8338 C   0  0  0  0  0  0  0  0  0  0  0  0
   21.3963   -7.2536  -16.6652 O   0  0  0  0  0  0  0  0  0  0  0  0
   22.7785   -7.0277  -14.8646 N   0  0  0  0  0  0  0  0  0  0  0  0
   22.5205   -5.6136  -14.7457 C   0  0  0  0  0  0  0  0  0  0  0  0
   21.5481   -5.3389  -13.6585 C   0  0  0  0  0  0  0  0  0  0  0  0
   21.4323   -6.1176  -12.6966 O   0  0  0  0  0  0  0  0  0  0  0  0
   20.7656   -4.1985  -13.7266 O   0  0  0  0  0  0  0  0  0  0  0  0
  2  1  1  6
  3  2  1  0
  4  2  1  0
  5  7  1  0
  5  4  1  0
  5  6  1  1
  7  8  2  0
  9 10  1  0
  9  7  1  0
 11 10  1  0
 12 13  1  0
 12 11  1  0
 13  9  1  0
 14 16  1  0
 13 14  1  6
 15 14  2  0
 17 16  1  0
 18 20  1  0
 18 17  1  0
 19 18  2  0
M  END
$$$$
