DGT.pdb
     RDKit          3D

 20 19  0  0  1  0  0  0  0  0999 V2000
   19.2490  -10.4936  -17.7427 N   0  0  0  0  0  0  0  0  0  0  0  0
   19.0163  -11.2567  -16.5375 C   0  0  1  0  0  0  0  0  0  0  0  0
   19.6719  -12.6189  -16.5739 C   0  0  0  0  0  0  0  0  0  0  0  0
   18.9192  -13.4711  -17.5327 C   0  0  0  0  0  0  0  0  0  0  0  0
   17.6654  -13.3684  -17.7050 O   0  0  0  0  0  0  0  0  0  0  0  0
   19.5804  -10.4891  -15.3968 C   0  0  0  0  0  0  0  0  0  0  0  0
   19.5830  -10.9643  -14.2083 O   0  0  0  0  0  0  0  0  0  0  0  0
   19.6774  -14.4092  -18.2462 O   0  0  0  0  0  0  0  0  0  0  0  0
   20.1350   -9.1920  -15.6029 N   0  0  0  0  0  0  0  0  0  0  0  0
   20.6554   -8.4556  -14.4772 C   0  0  0  0  0  0  0  0  0  0  0  0
   21.1337   -7.1073  -14.8590 C   0  0  0  0  0  0  0  0  0  0  0  0
   21.7947   -7.0039  -15.9564 O   0  0  0  0  0  0  0  0  0  0  0  0
   18.9479   -4.2986  -15.4079 C   0  0  0  0  0  0  0  0  0  0  0  0
   19.9918   -3.7422  -14.4317 C   0  0  1  0  0  0  0  0  0  0  0  0
   19.4559   -3.6546  -13.1540 O   0  0  0  0  0  0  0  0  0  0  0  0
   21.1952   -4.6505  -14.5080 C   0  0  2  0  0  0  0  0  0  0  0  0
   20.8692   -5.9864  -14.0557 N   0  0  0  0  0  0  0  0  0  0  0  0
   22.3373   -4.1165  -13.7268 C   0  0  0  0  0  0  0  0  0  0  0  0
   22.7585   -4.6808  -12.6838 O   0  0  0  0  0  0  0  0  0  0  0  0
   22.9822   -2.9595  -14.1340 O   0  0  0  0  0  0  0  0  0  0  0  0
  2  1  1  6
  2  3  1  0
  4  5  2  0
  4  3  1  0
  6  7  2  0
  6  2  1  0
  8  4  1  0
  9  6  1  0
 10  9  1  0
 11 10  1  0
 12 11  2  0
 14 13  1  6
 14 16  1  0
 15 14  1  0
 16 18  1  0
 16 17  1  1
 17 11  1  0
 18 20  1  0
 19 18  2  0
M  END
$$$$
