DGT.pdb
     RDKit          3D

 20 19  0  0  1  0  0  0  0  0999 V2000
   17.9995  -14.6934  -15.6133 N   0  0  0  0  0  0  0  0  0  0  0  0
   16.9368  -13.8363  -16.0876 C   0  0  1  0  0  0  0  0  0  0  0  0
   15.5652  -14.4382  -15.8798 C   0  0  0  0  0  0  0  0  0  0  0  0
   15.5156  -15.7399  -16.5974 C   0  0  0  0  0  0  0  0  0  0  0  0
   15.2767  -16.8396  -16.0093 O   0  0  0  0  0  0  0  0  0  0  0  0
   17.0129  -12.5576  -15.3341 C   0  0  0  0  0  0  0  0  0  0  0  0
   16.7278  -12.4990  -14.0876 O   0  0  0  0  0  0  0  0  0  0  0  0
   15.7515  -15.6892  -17.9779 O   0  0  0  0  0  0  0  0  0  0  0  0
   17.4071  -11.3549  -15.9903 N   0  0  0  0  0  0  0  0  0  0  0  0
   17.4294  -10.1172  -15.2503 C   0  0  0  0  0  0  0  0  0  0  0  0
   17.8523   -8.9696  -16.0851 C   0  0  0  0  0  0  0  0  0  0  0  0
   18.3219   -9.2300  -17.2528 O   0  0  0  0  0  0  0  0  0  0  0  0
   15.5655   -6.2599  -16.9721 C   0  0  0  0  0  0  0  0  0  0  0  0
   16.8072   -5.5445  -16.4255 C   0  0  1  0  0  0  0  0  0  0  0  0
   16.5700   -5.0887  -15.1358 O   0  0  0  0  0  0  0  0  0  0  0  0
   17.9522   -6.5250  -16.5058 C   0  0  2  0  0  0  0  0  0  0  0  0
   17.7381   -7.6497  -15.6199 N   0  0  0  0  0  0  0  0  0  0  0  0
   19.2515   -5.8791  -16.1987 C   0  0  0  0  0  0  0  0  0  0  0  0
   19.9243   -6.1781  -15.1781 O   0  0  0  0  0  0  0  0  0  0  0  0
   19.7677   -4.9108  -17.0450 O   0  0  0  0  0  0  0  0  0  0  0  0
  2  1  1  1
  2  3  1  0
  4  5  2  0
  4  3  1  0
  6  7  2  0
  6  2  1  0
  8  4  1  0
  9  6  1  0
 10  9  1  0
 11 10  1  0
 12 11  2  0
 14 13  1  1
 14 16  1  0
 15 14  1  0
 16 18  1  0
 16 17  1  1
 17 11  1  0
 18 20  1  0
 19 18  2  0
M  END
$$$$
