DGT.pdb
     RDKit          3D

 20 19  0  0  1  0  0  0  0  0999 V2000
   13.9163   -6.9255  -10.5299 N   0  0  0  0  0  0  0  0  0  0  0  0
   15.3454   -6.7241  -10.4512 C   0  0  1  0  0  0  0  0  0  0  0  0
   15.9163   -7.1140   -9.1064 C   0  0  0  0  0  0  0  0  0  0  0  0
   15.3534   -6.1974   -8.0793 C   0  0  0  0  0  0  0  0  0  0  0  0
   14.4157   -6.5388   -7.2941 O   0  0  0  0  0  0  0  0  0  0  0  0
   15.9817   -7.5647  -11.4986 C   0  0  0  0  0  0  0  0  0  0  0  0
   15.3632   -8.5512  -12.0302 O   0  0  0  0  0  0  0  0  0  0  0  0
   15.9195   -4.9166   -8.0232 O   0  0  0  0  0  0  0  0  0  0  0  0
   17.3100   -7.2894  -11.9374 N   0  0  0  0  0  0  0  0  0  0  0  0
   17.8923   -8.0925  -12.9843 C   0  0  0  0  0  0  0  0  0  0  0  0
   19.2869   -7.6977  -13.2870 C   0  0  0  0  0  0  0  0  0  0  0  0
   19.7559   -6.6696  -12.6746 O   0  0  0  0  0  0  0  0  0  0  0  0
   22.2892  -10.3656  -13.7814 C   0  0  0  0  0  0  0  0  0  0  0  0
   22.2114   -9.3375  -14.9169 C   0  0  1  0  0  0  0  0  0  0  0  0
   21.5971   -9.8962  -16.0295 O   0  0  0  0  0  0  0  0  0  0  0  0
   21.4751   -8.1363  -14.3747 C   0  0  2  0  0  0  0  0  0  0  0  0
   20.0665   -8.4228  -14.2026 N   0  0  0  0  0  0  0  0  0  0  0  0
   21.6470   -6.9474  -15.2445 C   0  0  0  0  0  0  0  0  0  0  0  0
   22.7721   -6.4209  -15.4458 O   0  0  0  0  0  0  0  0  0  0  0  0
   20.5509   -6.3750  -15.8701 O   0  0  0  0  0  0  0  0  0  0  0  0
  2  1  1  1
  2  3  1  0
  4  5  2  0
  4  3  1  0
  6  7  2  0
  6  2  1  0
  8  4  1  0
  9  6  1  0
 10  9  1  0
 11 10  1  0
 12 11  2  0
 14 13  1  1
 14 16  1  0
 15 14  1  0
 16 18  1  0
 16 17  1  6
 17 11  1  0
 18 20  1  0
 19 18  2  0
M  END
$$$$
