DGT.pdb
     RDKit          3D

 20 19  0  0  1  0  0  0  0  0999 V2000
   15.1566  -12.0981  -14.9372 N   0  0  0  0  0  0  0  0  0  0  0  0
   16.1333  -12.8856  -15.6548 C   0  0  1  0  0  0  0  0  0  0  0  0
   15.5104  -13.7533  -16.7252 C   0  0  0  0  0  0  0  0  0  0  0  0
   14.7452  -14.8390  -16.0561 C   0  0  0  0  0  0  0  0  0  0  0  0
   15.2116  -15.5092  -15.0837 O   0  0  0  0  0  0  0  0  0  0  0  0
   17.0883  -11.9479  -16.3005 C   0  0  0  0  0  0  0  0  0  0  0  0
   18.1379  -12.3706  -16.8991 O   0  0  0  0  0  0  0  0  0  0  0  0
   13.4630  -15.0888  -16.5635 O   0  0  0  0  0  0  0  0  0  0  0  0
   16.8554  -10.5417  -16.2653 N   0  0  0  0  0  0  0  0  0  0  0  0
   17.8309   -9.6463  -16.8371 C   0  0  0  0  0  0  0  0  0  0  0  0
   18.6011   -8.9183  -15.8029 C   0  0  0  0  0  0  0  0  0  0  0  0
   18.0103   -8.6766  -14.6874 O   0  0  0  0  0  0  0  0  0  0  0  0
   21.8055  -10.0707  -14.3587 C   0  0  0  0  0  0  0  0  0  0  0  0
   22.0698   -8.6514  -14.8766 C   0  0  1  0  0  0  0  0  0  0  0  0
   22.7391   -8.7005  -16.0918 O   0  0  0  0  0  0  0  0  0  0  0  0
   20.7317   -7.9581  -14.9652 C   0  0  2  0  0  0  0  0  0  0  0  0
   19.9263   -8.5144  -16.0318 N   0  0  0  0  0  0  0  0  0  0  0  0
   20.8823   -6.4949  -15.1553 C   0  0  0  0  0  0  0  0  0  0  0  0
   20.5134   -5.9142  -16.2090 O   0  0  0  0  0  0  0  0  0  0  0  0
   21.4442   -5.7149  -14.1572 O   0  0  0  0  0  0  0  0  0  0  0  0
  2  1  1  6
  2  3  1  0
  4  5  2  0
  4  3  1  0
  6  7  2  0
  6  2  1  0
  8  4  1  0
  9  6  1  0
 10  9  1  0
 11 10  1  0
 12 11  2  0
 14 13  1  6
 14 16  1  0
 15 14  1  0
 16 18  1  0
 16 17  1  6
 17 11  1  0
 18 20  1  0
 19 18  2  0
M  END
$$$$
