DGT.pdb
     RDKit          3D

 20 19  0  0  1  0  0  0  0  0999 V2000
   26.0569  -20.2263  -18.8466 N   0  0  0  0  0  0  0  0  0  0  0  0
   26.9586  -19.4081  -18.0680 C   0  0  1  0  0  0  0  0  0  0  0  0
   27.4261  -18.1803  -18.8168 C   0  0  0  0  0  0  0  0  0  0  0  0
   28.4402  -18.6051  -19.8183 C   0  0  0  0  0  0  0  0  0  0  0  0
   29.2550  -19.5564  -19.6096 O   0  0  0  0  0  0  0  0  0  0  0  0
   26.2359  -18.9714  -16.8451 C   0  0  0  0  0  0  0  0  0  0  0  0
   26.8108  -18.2642  -15.9462 O   0  0  0  0  0  0  0  0  0  0  0  0
   28.4509  -17.8888  -21.0228 O   0  0  0  0  0  0  0  0  0  0  0  0
   24.8725  -19.3360  -16.6429 N   0  0  0  0  0  0  0  0  0  0  0  0
   24.1910  -18.9003  -15.4488 C   0  0  0  0  0  0  0  0  0  0  0  0
   23.7351  -20.0357  -14.6148 C   0  0  0  0  0  0  0  0  0  0  0  0
   23.0700  -20.9678  -15.1986 O   0  0  0  0  0  0  0  0  0  0  0  0
   26.0332  -21.6167  -11.8772 C   0  0  0  0  0  0  0  0  0  0  0  0
   24.6292  -21.4246  -11.2905 C   0  0  1  0  0  0  0  0  0  0  0  0
   24.6160  -20.3428  -10.4206 O   0  0  0  0  0  0  0  0  0  0  0  0
   23.6833  -21.2594  -12.4554 C   0  0  2  0  0  0  0  0  0  0  0  0
   24.0243  -20.0929  -13.2419 N   0  0  0  0  0  0  0  0  0  0  0  0
   22.2714  -21.1735  -12.0091 C   0  0  0  0  0  0  0  0  0  0  0  0
   21.6823  -22.1397  -11.4587 O   0  0  0  0  0  0  0  0  0  0  0  0
   21.5512  -20.0036  -12.1907 O   0  0  0  0  0  0  0  0  0  0  0  0
  2  1  1  6
  2  3  1  0
  4  5  2  0
  4  3  1  0
  6  7  2  0
  6  2  1  0
  8  4  1  0
  9  6  1  0
 10  9  1  0
 11 10  1  0
 12 11  2  0
 14 13  1  6
 14 16  1  0
 15 14  1  0
 16 18  1  0
 16 17  1  1
 17 11  1  0
 18 20  1  0
 19 18  2  0
M  END
$$$$
