DGT.pdb
     RDKit          3D

 20 19  0  0  1  0  0  0  0  0999 V2000
   19.4438  -12.9921  -16.4829 N   0  0  0  0  0  0  0  0  0  0  0  0
   19.1038  -11.6049  -16.7046 C   0  0  1  0  0  0  0  0  0  0  0  0
   17.6694  -11.2909  -16.3429 C   0  0  0  0  0  0  0  0  0  0  0  0
   16.7815  -12.0416  -17.2703 C   0  0  0  0  0  0  0  0  0  0  0  0
   15.9199  -12.8822  -16.8661 O   0  0  0  0  0  0  0  0  0  0  0  0
   19.9993  -10.7758  -15.8566 C   0  0  0  0  0  0  0  0  0  0  0  0
   19.9959  -10.8799  -14.5808 O   0  0  0  0  0  0  0  0  0  0  0  0
   16.9488  -11.7698  -18.6349 O   0  0  0  0  0  0  0  0  0  0  0  0
   20.8898   -9.8346  -16.4515 N   0  0  0  0  0  0  0  0  0  0  0  0
   21.7615   -9.0524  -15.6098 C   0  0  0  0  0  0  0  0  0  0  0  0
   21.5305   -7.5973  -15.7581 C   0  0  0  0  0  0  0  0  0  0  0  0
   21.1881   -7.1691  -16.9205 O   0  0  0  0  0  0  0  0  0  0  0  0
   19.1821   -5.4059  -13.8935 C   0  0  0  0  0  0  0  0  0  0  0  0
   20.5671   -4.7735  -13.7087 C   0  0  1  0  0  0  0  0  0  0  0  0
   21.0601   -5.0582  -12.4425 O   0  0  0  0  0  0  0  0  0  0  0  0
   21.4444   -5.3012  -14.8182 C   0  0  2  0  0  0  0  0  0  0  0  0
   21.6744   -6.7226  -14.6691 N   0  0  0  0  0  0  0  0  0  0  0  0
   22.7404   -4.5830  -14.8829 C   0  0  0  0  0  0  0  0  0  0  0  0
   23.8384   -5.1607  -14.6726 O   0  0  0  0  0  0  0  0  0  0  0  0
   22.7755   -3.2304  -15.1826 O   0  0  0  0  0  0  0  0  0  0  0  0
  2  1  1  1
  2  3  1  0
  4  5  2  0
  4  3  1  0
  6  7  2  0
  6  2  1  0
  8  4  1  0
  9  6  1  0
 10  9  1  0
 11 10  1  0
 12 11  2  0
 14 13  1  1
 14 16  1  0
 15 14  1  0
 16 18  1  0
 16 17  1  1
 17 11  1  0
 18 20  1  0
 19 18  2  0
M  END
$$$$
