DGT.pdb
     RDKit          3D

 20 19  0  0  1  0  0  0  0  0999 V2000
   28.4454  -20.0937  -17.8692 N   0  0  0  0  0  0  0  0  0  0  0  0
   27.1150  -19.5386  -17.7662 C   0  0  1  0  0  0  0  0  0  0  0  0
   26.0583  -20.4418  -18.3615 C   0  0  0  0  0  0  0  0  0  0  0  0
   26.1162  -20.3116  -19.8419 C   0  0  0  0  0  0  0  0  0  0  0  0
   25.4092  -19.4765  -20.4861 O   0  0  0  0  0  0  0  0  0  0  0  0
   26.8140  -19.3426  -16.3242 C   0  0  0  0  0  0  0  0  0  0  0  0
   25.6980  -18.8505  -15.9357 O   0  0  0  0  0  0  0  0  0  0  0  0
   27.0046  -21.1732  -20.4995 O   0  0  0  0  0  0  0  0  0  0  0  0
   27.7726  -19.7002  -15.3312 N   0  0  0  0  0  0  0  0  0  0  0  0
   27.5005  -19.4095  -13.9449 C   0  0  0  0  0  0  0  0  0  0  0  0
   26.5250  -20.3532  -13.3529 C   0  0  0  0  0  0  0  0  0  0  0  0
   26.3026  -21.4484  -13.9876 O   0  0  0  0  0  0  0  0  0  0  0  0
   26.6816  -21.5064   -9.7403 C   0  0  0  0  0  0  0  0  0  0  0  0
   25.2444  -21.0359   -9.9966 C   0  0  1  0  0  0  0  0  0  0  0  0
   25.0399  -19.7857   -9.4288 O   0  0  0  0  0  0  0  0  0  0  0  0
   25.0364  -21.0485  -11.4917 C   0  0  2  0  0  0  0  0  0  0  0  0
   25.8743  -20.0637  -12.1426 N   0  0  0  0  0  0  0  0  0  0  0  0
   23.6155  -20.8206  -11.8509 C   0  0  0  0  0  0  0  0  0  0  0  0
   23.2422  -19.8105  -12.5020 O   0  0  0  0  0  0  0  0  0  0  0  0
   22.6439  -21.7327  -11.4710 O   0  0  0  0  0  0  0  0  0  0  0  0
  2  1  1  1
  2  3  1  0
  4  5  2  0
  4  3  1  0
  6  7  2  0
  6  2  1  0
  8  4  1  0
  9  6  1  0
 10  9  1  0
 11 10  1  0
 12 11  2  0
 14 13  1  6
 14 16  1  0
 15 14  1  0
 16 18  1  0
 16 17  1  6
 17 11  1  0
 18 20  1  0
 19 18  2  0
M  END
$$$$
