DGT.pdb
     RDKit          3D

 20 19  0  0  1  0  0  0  0  0999 V2000
   17.8322  -11.5639  -15.0670 N   0  0  0  0  0  0  0  0  0  0  0  0
   16.8232  -10.5305  -15.1204 C   0  0  1  0  0  0  0  0  0  0  0  0
   15.5451  -10.9261  -14.4156 C   0  0  0  0  0  0  0  0  0  0  0  0
   14.7853  -11.8399  -15.3098 C   0  0  0  0  0  0  0  0  0  0  0  0
   13.5168  -11.8980  -15.3147 O   0  0  0  0  0  0  0  0  0  0  0  0
   17.3755   -9.3205  -14.4575 C   0  0  0  0  0  0  0  0  0  0  0  0
   16.8595   -8.1637  -14.6420 O   0  0  0  0  0  0  0  0  0  0  0  0
   15.5540  -12.6472  -16.1590 O   0  0  0  0  0  0  0  0  0  0  0  0
   18.5054   -9.4222  -13.5940 N   0  0  0  0  0  0  0  0  0  0  0  0
   18.9763   -8.2487  -12.9002 C   0  0  0  0  0  0  0  0  0  0  0  0
   20.2706   -7.7627  -13.4303 C   0  0  0  0  0  0  0  0  0  0  0  0
   21.1850   -8.6386  -13.6507 O   0  0  0  0  0  0  0  0  0  0  0  0
   21.1955   -6.8990  -16.4743 C   0  0  0  0  0  0  0  0  0  0  0  0
   21.5222   -5.5914  -15.7421 C   0  0  1  0  0  0  0  0  0  0  0  0
   20.5123   -4.6611  -15.9468 O   0  0  0  0  0  0  0  0  0  0  0  0
   21.7211   -5.9389  -14.2865 C   0  0  2  0  0  0  0  0  0  0  0  0
   20.4863   -6.3992  -13.6874 N   0  0  0  0  0  0  0  0  0  0  0  0
   22.2604   -4.7918  -13.5164 C   0  0  0  0  0  0  0  0  0  0  0  0
   21.5733   -4.1767  -12.6601 O   0  0  0  0  0  0  0  0  0  0  0  0
   23.5606   -4.3600  -13.7245 O   0  0  0  0  0  0  0  0  0  0  0  0
  2  1  1  1
  2  3  1  0
  4  5  2  0
  4  3  1  0
  6  7  2  0
  6  2  1  0
  8  4  1  0
  9  6  1  0
 10  9  1  0
 11 10  1  0
 12 11  2  0
 14 13  1  6
 14 16  1  0
 15 14  1  0
 16 18  1  0
 16 17  1  1
 17 11  1  0
 18 20  1  0
 19 18  2  0
M  END
$$$$
