DGT.pdb
     RDKit          3D

 20 19  0  0  1  0  0  0  0  0999 V2000
   18.6231  -12.1815  -16.1196 N   0  0  0  0  0  0  0  0  0  0  0  0
   17.2772  -11.7760  -15.7831 C   0  0  1  0  0  0  0  0  0  0  0  0
   16.6602  -12.6389  -14.7053 C   0  0  0  0  0  0  0  0  0  0  0  0
   16.5990  -14.0372  -15.2082 C   0  0  0  0  0  0  0  0  0  0  0  0
   17.3871  -14.9473  -14.8045 O   0  0  0  0  0  0  0  0  0  0  0  0
   17.3333  -10.3738  -15.2940 C   0  0  0  0  0  0  0  0  0  0  0  0
   16.2746   -9.7467  -14.9413 O   0  0  0  0  0  0  0  0  0  0  0  0
   15.6116  -14.3021  -16.1668 O   0  0  0  0  0  0  0  0  0  0  0  0
   18.5804   -9.6882  -15.2079 N   0  0  0  0  0  0  0  0  0  0  0  0
   18.6104   -8.3267  -14.7329 C   0  0  0  0  0  0  0  0  0  0  0  0
   19.9857   -7.7814  -14.6736 C   0  0  0  0  0  0  0  0  0  0  0  0
   20.9555   -8.6025  -14.8661 O   0  0  0  0  0  0  0  0  0  0  0  0
   20.8448   -4.8520  -16.7723 C   0  0  0  0  0  0  0  0  0  0  0  0
   21.4188   -4.5281  -15.3873 C   0  0  1  0  0  0  0  0  0  0  0  0
   20.6195   -3.5938  -14.7427 O   0  0  0  0  0  0  0  0  0  0  0  0
   21.5253   -5.8341  -14.6376 C   0  0  2  0  0  0  0  0  0  0  0  0
   20.2188   -6.4195  -14.4229 N   0  0  0  0  0  0  0  0  0  0  0  0
   22.2246   -5.6678  -13.3403 C   0  0  0  0  0  0  0  0  0  0  0  0
   23.4047   -5.2374  -13.2651 O   0  0  0  0  0  0  0  0  0  0  0  0
   21.5830   -5.9885  -12.1546 O   0  0  0  0  0  0  0  0  0  0  0  0
  2  1  1  1
  2  3  1  0
  4  5  2  0
  4  3  1  0
  6  7  2  0
  6  2  1  0
  8  4  1  0
  9  6  1  0
 10  9  1  0
 11 10  1  0
 12 11  2  0
 14 13  1  6
 14 16  1  0
 15 14  1  0
 16 18  1  0
 16 17  1  1
 17 11  1  0
 18 20  1  0
 19 18  2  0
M  END
$$$$
