DGT.pdb
     RDKit          3D

 20 19  0  0  1  0  0  0  0  0999 V2000
   18.6635  -12.6801  -15.7106 N   0  0  0  0  0  0  0  0  0  0  0  0
   17.4410  -12.0840  -16.1995 C   0  0  1  0  0  0  0  0  0  0  0  0
   16.2793  -12.2735  -15.2502 C   0  0  0  0  0  0  0  0  0  0  0  0
   15.8987  -13.7112  -15.2630 C   0  0  0  0  0  0  0  0  0  0  0  0
   16.5870  -14.6090  -14.6863 O   0  0  0  0  0  0  0  0  0  0  0  0
   17.6814  -10.6275  -16.3701 C   0  0  0  0  0  0  0  0  0  0  0  0
   16.7896   -9.8574  -16.8702 O   0  0  0  0  0  0  0  0  0  0  0  0
   14.7233  -14.0289  -15.9569 O   0  0  0  0  0  0  0  0  0  0  0  0
   18.9247  -10.0498  -15.9785 N   0  0  0  0  0  0  0  0  0  0  0  0
   19.1280   -8.6305  -16.1340 C   0  0  0  0  0  0  0  0  0  0  0  0
   19.9446   -8.0556  -15.0406 C   0  0  0  0  0  0  0  0  0  0  0  0
   19.8240   -8.5816  -13.8741 O   0  0  0  0  0  0  0  0  0  0  0  0
   23.0637   -8.7051  -14.5294 C   0  0  0  0  0  0  0  0  0  0  0  0
   23.1714   -7.1804  -14.6569 C   0  0  1  0  0  0  0  0  0  0  0  0
   23.5834   -6.8333  -15.9364 O   0  0  0  0  0  0  0  0  0  0  0  0
   21.8209   -6.6112  -14.2949 C   0  0  2  0  0  0  0  0  0  0  0  0
   20.8199   -6.9825  -15.2725 N   0  0  0  0  0  0  0  0  0  0  0  0
   21.8665   -5.1355  -14.1529 C   0  0  0  0  0  0  0  0  0  0  0  0
   21.2695   -4.3664  -14.9501 O   0  0  0  0  0  0  0  0  0  0  0  0
   22.5821   -4.5551  -13.1178 O   0  0  0  0  0  0  0  0  0  0  0  0
  2  1  1  1
  2  3  1  0
  4  5  2  0
  4  3  1  0
  6  7  2  0
  6  2  1  0
  8  4  1  0
  9  6  1  0
 10  9  1  0
 11 10  1  0
 12 11  2  0
 14 13  1  6
 14 16  1  0
 15 14  1  0
 16 18  1  0
 16 17  1  6
 17 11  1  0
 18 20  1  0
 19 18  2  0
M  END
$$$$
