DGT.pdb
     RDKit          3D

 20 19  0  0  1  0  0  0  0  0999 V2000
   21.0191  -12.7515  -17.8308 N   0  0  0  0  0  0  0  0  0  0  0  0
   20.1803  -11.6459  -17.4270 C   0  0  1  0  0  0  0  0  0  0  0  0
   18.8451  -12.0967  -16.8786 C   0  0  0  0  0  0  0  0  0  0  0  0
   17.8304  -11.9621  -17.9576 C   0  0  0  0  0  0  0  0  0  0  0  0
   18.1402  -11.7249  -19.1659 O   0  0  0  0  0  0  0  0  0  0  0  0
   20.8991  -10.8930  -16.3664 C   0  0  0  0  0  0  0  0  0  0  0  0
   21.5617  -11.4956  -15.4520 O   0  0  0  0  0  0  0  0  0  0  0  0
   16.4934  -12.1117  -17.5650 O   0  0  0  0  0  0  0  0  0  0  0  0
   20.8644   -9.4679  -16.3425 N   0  0  0  0  0  0  0  0  0  0  0  0
   21.7063   -8.7530  -15.4150 C   0  0  0  0  0  0  0  0  0  0  0  0
   21.5737   -7.2845  -15.5512 C   0  0  0  0  0  0  0  0  0  0  0  0
   21.4063   -6.8139  -16.7354 O   0  0  0  0  0  0  0  0  0  0  0  0
   19.0958   -5.3949  -15.3706 C   0  0  0  0  0  0  0  0  0  0  0  0
   19.9199   -4.7029  -14.2777 C   0  0  1  0  0  0  0  0  0  0  0  0
   19.4979   -5.1187  -13.0222 O   0  0  0  0  0  0  0  0  0  0  0  0
   21.3701   -5.0217  -14.5505 C   0  0  2  0  0  0  0  0  0  0  0  0
   21.6231   -6.4418  -14.4291 N   0  0  0  0  0  0  0  0  0  0  0  0
   22.2772   -4.2675  -13.6517 C   0  0  0  0  0  0  0  0  0  0  0  0
   23.0182   -4.8411  -12.8117 O   0  0  0  0  0  0  0  0  0  0  0  0
   22.3328   -2.8843  -13.7156 O   0  0  0  0  0  0  0  0  0  0  0  0
  2  1  1  1
  2  3  1  0
  4  5  2  0
  4  3  1  0
  6  7  2  0
  6  2  1  0
  8  4  1  0
  9  6  1  0
 10  9  1  0
 11 10  1  0
 12 11  2  0
 14 13  1  6
 14 16  1  0
 15 14  1  0
 16 18  1  0
 16 17  1  1
 17 11  1  0
 18 20  1  0
 19 18  2  0
M  END
$$$$
