DGT.pdb
     RDKit          3D

 20 19  0  0  1  0  0  0  0  0999 V2000
   19.1712  -10.4788  -17.3363 N   0  0  0  0  0  0  0  0  0  0  0  0
   18.9958  -11.1594  -16.0733 C   0  0  1  0  0  0  0  0  0  0  0  0
   19.7032  -12.4951  -16.0273 C   0  0  0  0  0  0  0  0  0  0  0  0
   19.0108  -13.4199  -16.9640 C   0  0  0  0  0  0  0  0  0  0  0  0
   19.6259  -14.0795  -17.8578 O   0  0  0  0  0  0  0  0  0  0  0  0
   19.5550  -10.2894  -15.0061 C   0  0  0  0  0  0  0  0  0  0  0  0
   19.5634  -10.6578  -13.7802 O   0  0  0  0  0  0  0  0  0  0  0  0
   17.6222  -13.5261  -16.8074 O   0  0  0  0  0  0  0  0  0  0  0  0
   20.0983   -9.0110  -15.3271 N   0  0  0  0  0  0  0  0  0  0  0  0
   20.7886   -8.2574  -14.3094 C   0  0  0  0  0  0  0  0  0  0  0  0
   21.2601   -6.9437  -14.8041 C   0  0  0  0  0  0  0  0  0  0  0  0
   21.6724   -6.8838  -16.0200 O   0  0  0  0  0  0  0  0  0  0  0  0
   19.3806   -4.3011  -15.6427 C   0  0  0  0  0  0  0  0  0  0  0  0
   20.2907   -3.6523  -14.5924 C   0  0  1  0  0  0  0  0  0  0  0  0
   19.6250   -3.5480  -13.3787 O   0  0  0  0  0  0  0  0  0  0  0  0
   21.5410   -4.4945  -14.5116 C   0  0  2  0  0  0  0  0  0  0  0  0
   21.2504   -5.8084  -13.9779 N   0  0  0  0  0  0  0  0  0  0  0  0
   22.5935   -3.8392  -13.6977 C   0  0  0  0  0  0  0  0  0  0  0  0
   22.9907   -4.3181  -12.6038 O   0  0  0  0  0  0  0  0  0  0  0  0
   23.1778   -2.6593  -14.1301 O   0  0  0  0  0  0  0  0  0  0  0  0
  2  1  1  6
  2  3  1  0
  4  5  2  0
  4  3  1  0
  6  7  2  0
  6  2  1  0
  8  4  1  0
  9  6  1  0
 10  9  1  0
 11 10  1  0
 12 11  2  0
 14 13  1  6
 14 16  1  0
 15 14  1  0
 16 18  1  0
 16 17  1  1
 17 11  1  0
 18 20  1  0
 19 18  2  0
M  END
$$$$
