DGT.pdb
     RDKit          3D

 20 19  0  0  1  0  0  0  0  0999 V2000
   29.7491  -33.3086   -3.8407 N   0  0  0  0  0  0  0  0  0  0  0  0
   29.1378  -34.5629   -4.2172 C   0  0  1  0  0  0  0  0  0  0  0  0
   30.1537  -35.6147   -4.6023 C   0  0  0  0  0  0  0  0  0  0  0  0
   31.0947  -35.7903   -3.4641 C   0  0  0  0  0  0  0  0  0  0  0  0
   31.0138  -35.1101   -2.3949 O   0  0  0  0  0  0  0  0  0  0  0  0
   28.3606  -35.0584   -3.0514 C   0  0  0  0  0  0  0  0  0  0  0  0
   27.7525  -36.1843   -3.0840 O   0  0  0  0  0  0  0  0  0  0  0  0
   32.0920  -36.7598   -3.6361 O   0  0  0  0  0  0  0  0  0  0  0  0
   28.2726  -34.2816   -1.8591 N   0  0  0  0  0  0  0  0  0  0  0  0
   27.6583  -34.8509   -0.6850 C   0  0  0  0  0  0  0  0  0  0  0  0
   27.6999  -33.9307    0.4744 C   0  0  0  0  0  0  0  0  0  0  0  0
   28.3124  -32.8116    0.3185 O   0  0  0  0  0  0  0  0  0  0  0  0
   24.5768  -33.1492    2.5862 C   0  0  0  0  0  0  0  0  0  0  0  0
   25.7243  -33.4717    3.5515 C   0  0  1  0  0  0  0  0  0  0  0  0
   25.5630  -34.7448    4.0810 O   0  0  0  0  0  0  0  0  0  0  0  0
   27.0102  -33.3109    2.7773 C   0  0  2  0  0  0  0  0  0  0  0  0
   27.0885  -34.2668    1.6930 N   0  0  0  0  0  0  0  0  0  0  0  0
   28.1995  -33.4416    3.6538 C   0  0  0  0  0  0  0  0  0  0  0  0
   28.9659  -34.4383    3.6000 O   0  0  0  0  0  0  0  0  0  0  0  0
   28.5029  -32.4493    4.5724 O   0  0  0  0  0  0  0  0  0  0  0  0
  2  1  1  1
  2  3  1  0
  4  5  2  0
  4  3  1  0
  6  7  2  0
  6  2  1  0
  8  4  1  0
  9  6  1  0
 10  9  1  0
 11 10  1  0
 12 11  2  0
 14 13  1  6
 14 16  1  0
 15 14  1  0
 16 18  1  0
 16 17  1  6
 17 11  1  0
 18 20  1  0
 19 18  2  0
M  END
$$$$
