DGT.pdb
     RDKit          3D

 20 19  0  0  1  0  0  0  0  0999 V2000
   31.5791  -12.2125  -20.4085 N   0  0  0  0  0  0  0  0  0  0  0  0
   31.9696  -12.6289  -19.0806 C   0  0  1  0  0  0  0  0  0  0  0  0
   33.4664  -12.5810  -18.8708 C   0  0  0  0  0  0  0  0  0  0  0  0
   34.0748  -13.7237  -19.6030 C   0  0  0  0  0  0  0  0  0  0  0  0
   33.3815  -14.6050  -20.1987 O   0  0  0  0  0  0  0  0  0  0  0  0
   31.3245  -11.7097  -18.1073 C   0  0  0  0  0  0  0  0  0  0  0  0
   31.4394  -11.8862  -16.8447 O   0  0  0  0  0  0  0  0  0  0  0  0
   35.4752  -13.7790  -19.5998 O   0  0  0  0  0  0  0  0  0  0  0  0
   30.5536  -10.6004  -18.5630 N   0  0  0  0  0  0  0  0  0  0  0  0
   29.8855   -9.7577  -17.6019 C   0  0  0  0  0  0  0  0  0  0  0  0
   28.5704   -9.2820  -18.0883 C   0  0  0  0  0  0  0  0  0  0  0  0
   28.4853   -8.9432  -19.3252 O   0  0  0  0  0  0  0  0  0  0  0  0
   25.2292  -10.7801  -16.5182 C   0  0  0  0  0  0  0  0  0  0  0  0
   25.2871  -10.1004  -17.8919 C   0  0  1  0  0  0  0  0  0  0  0  0
   24.0049   -9.8161  -18.3416 O   0  0  0  0  0  0  0  0  0  0  0  0
   26.1474   -8.8693  -17.7388 C   0  0  2  0  0  0  0  0  0  0  0  0
   27.4598   -9.2106  -17.2320 N   0  0  0  0  0  0  0  0  0  0  0  0
   25.5113   -7.8604  -16.8572 C   0  0  0  0  0  0  0  0  0  0  0  0
   25.9770   -7.5707  -15.7246 O   0  0  0  0  0  0  0  0  0  0  0  0
   24.3651   -7.1979  -17.2670 O   0  0  0  0  0  0  0  0  0  0  0  0
  2  1  1  6
  2  3  1  0
  4  5  2  0
  4  3  1  0
  6  7  2  0
  6  2  1  0
  8  4  1  0
  9  6  1  0
 10  9  1  0
 11 10  1  0
 12 11  2  0
 14 13  1  1
 14 16  1  0
 15 14  1  0
 16 18  1  0
 16 17  1  1
 17 11  1  0
 18 20  1  0
 19 18  2  0
M  END
$$$$
