DGT.pdb
     RDKit          3D

 20 19  0  0  1  0  0  0  0  0999 V2000
   26.7203  -22.2158  -15.6548 N   0  0  0  0  0  0  0  0  0  0  0  0
   26.9687  -20.9193  -16.2435 C   0  0  1  0  0  0  0  0  0  0  0  0
   27.3739  -21.0069  -17.6977 C   0  0  0  0  0  0  0  0  0  0  0  0
   28.6963  -21.6836  -17.7715 C   0  0  0  0  0  0  0  0  0  0  0  0
   29.7957  -21.0531  -17.6932 O   0  0  0  0  0  0  0  0  0  0  0  0
   25.7144  -20.1281  -16.1474 C   0  0  0  0  0  0  0  0  0  0  0  0
   25.6644  -18.9068  -16.5272 O   0  0  0  0  0  0  0  0  0  0  0  0
   28.6654  -23.0750  -17.9358 O   0  0  0  0  0  0  0  0  0  0  0  0
   24.5270  -20.7175  -15.6225 N   0  0  0  0  0  0  0  0  0  0  0  0
   23.3289  -19.9222  -15.5122 C   0  0  0  0  0  0  0  0  0  0  0  0
   22.1515  -20.7295  -15.1191 C   0  0  0  0  0  0  0  0  0  0  0  0
   22.3176  -21.9988  -15.0035 O   0  0  0  0  0  0  0  0  0  0  0  0
   21.5336  -21.6483  -12.6165 C   0  0  0  0  0  0  0  0  0  0  0  0
   20.1477  -21.0006  -12.7284 C   0  0  1  0  0  0  0  0  0  0  0  0
   20.1250  -19.7935  -12.0431 O   0  0  0  0  0  0  0  0  0  0  0  0
   19.8484  -20.8515  -14.2006 C   0  0  2  0  0  0  0  0  0  0  0  0
   20.9053  -20.1295  -14.8766 N   0  0  0  0  0  0  0  0  0  0  0  0
   18.5475  -20.1775  -14.4314 C   0  0  0  0  0  0  0  0  0  0  0  0
   17.4556  -20.6836  -14.0638 O   0  0  0  0  0  0  0  0  0  0  0  0
   18.5009  -18.9487  -15.0704 O   0  0  0  0  0  0  0  0  0  0  0  0
  2  1  1  6
  2  3  1  0
  4  5  2  0
  4  3  1  0
  6  7  2  0
  6  2  1  0
  8  4  1  0
  9  6  1  0
 10  9  1  0
 11 10  1  0
 12 11  2  0
 14 13  1  6
 14 16  1  0
 15 14  1  0
 16 18  1  0
 16 17  1  6
 17 11  1  0
 18 20  1  0
 19 18  2  0
M  END
$$$$
