RRS.pdb
     RDKit          3D

 29 28  0  0  1  0  0  0  0  0999 V2000
    9.3316  -22.2443   13.4322 N   0  0  0  0  0  0  0  0  0  0  0  0
    9.7213  -21.1855   14.3108 C   0  0  0  0  0  0  0  0  0  0  0  0
   10.3799  -20.1808   13.8999 N   0  0  0  0  0  0  0  0  0  0  0  0
    9.3585  -21.2547   15.6913 N   0  0  0  0  0  0  0  0  0  0  0  0
    8.3423  -20.4468   16.2967 C   0  0  0  0  0  0  0  0  0  0  0  0
    8.5373  -20.3029   17.7918 C   0  0  0  0  0  0  0  0  0  0  0  0
    9.6566  -19.3612   18.1261 C   0  0  0  0  0  0  0  0  0  0  0  0
    9.2942  -17.8982   17.9185 C   0  0  2  0  0  0  0  0  0  0  0  0
    9.9792  -17.3895   16.7604 N   0  0  0  0  0  0  0  0  0  0  0  0
    9.6451  -17.1085   19.1376 C   0  0  0  0  0  0  0  0  0  0  0  0
   10.8183  -16.9603   19.4953 O   0  0  0  0  0  0  0  0  0  0  0  0
   10.5786  -19.3891   14.5477 N   0  0  0  0  0  0  0  0  0  0  0  0
    6.4308  -13.1546   25.2039 C   0  0  0  0  0  0  0  0  0  0  0  0
    7.4539  -12.1852   25.0481 N   0  0  0  0  0  0  0  0  0  0  0  0
    7.9484  -11.5365   26.0626 N   0  0  0  0  0  0  0  0  0  0  0  0
    7.9899  -11.8734   23.7790 C   0  0  0  0  0  0  0  0  0  0  0  0
    7.7233  -12.6198   22.5955 C   0  0  0  0  0  0  0  0  0  0  0  0
    7.9225  -14.1183   22.7945 C   0  0  0  0  0  0  0  0  0  0  0  0
    7.6807  -14.8543   21.4947 C   0  0  1  0  0  0  0  0  0  0  0  0
    8.8651  -15.7123   21.1011 N   0  0  0  0  0  0  0  0  0  0  0  0
    8.6249  -16.4906   19.9345 C   0  0  0  0  0  0  0  0  0  0  0  0
    9.1982  -16.5809   22.2591 O   0  0  0  0  0  0  0  0  0  0  0  0
    8.3141  -17.4369   22.5723 O   0  0  0  0  0  0  0  0  0  0  0  0
    8.7068  -10.8304   25.8381 C   0  0  0  0  0  0  0  0  0  0  0  0
   12.8416  -16.1905   24.3778 C   0  0  1  0  0  0  0  0  0  0  0  0
   12.2787  -17.4648   24.2299 N   0  0  0  0  0  0  0  0  0  0  0  0
   10.7935  -17.3267   24.1173 C   0  0  0  0  0  0  0  0  0  0  0  0
   10.3803  -16.5211   23.0011 O   0  0  0  0  0  0  0  0  0  0  0  0
   10.1371  -17.0779   25.4014 O   0  0  0  0  0  0  0  0  0  0  0  0
  2  1  1  0
  3  2  2  0
  4  2  1  0
  5  4  1  0
  6  5  1  0
  7  6  1  0
  8 10  1  0
  8  7  1  0
  8  9  1  6
 10 11  2  0
 13 12  1  0
 14 13  2  0
 15 13  1  0
 16 15  1  0
 17 16  1  0
 18 17  1  0
 19 18  1  6
 19 21  1  0
 20 10  1  0
 20 19  1  0
 21 26  1  0
 21 22  2  0
 23 24  1  0
 25 24  1  6
 25 27  1  0
 26 25  1  0
 27 28  2  0
 27 29  1  0
M  END
$$$$
