RRS.pdb
     RDKit          3D

 29 28  0  0  1  0  0  0  0  0999 V2000
    7.1264  -13.9910   23.2860 N   0  0  0  0  0  0  0  0  0  0  0  0
    6.9682  -13.4454   21.9737 C   0  0  0  0  0  0  0  0  0  0  0  0
    6.9583  -12.1931   21.7645 N   0  0  0  0  0  0  0  0  0  0  0  0
    6.8198  -14.3316   20.8624 N   0  0  0  0  0  0  0  0  0  0  0  0
    7.8409  -14.5770   19.8882 C   0  0  0  0  0  0  0  0  0  0  0  0
    7.5926  -13.8292   18.5946 C   0  0  0  0  0  0  0  0  0  0  0  0
    8.6853  -14.0586   17.5923 C   0  0  0  0  0  0  0  0  0  0  0  0
    8.7300  -15.4858   17.0670 C   0  0  2  0  0  0  0  0  0  0  0  0
    7.3930  -16.0069   16.9672 N   0  0  0  0  0  0  0  0  0  0  0  0
    9.5690  -16.3338   17.9668 C   0  0  0  0  0  0  0  0  0  0  0  0
    9.0657  -17.0149   18.8664 O   0  0  0  0  0  0  0  0  0  0  0  0
    6.8159  -11.8285   20.7987 N   0  0  0  0  0  0  0  0  0  0  0  0
   15.2108  -21.9874   16.7873 C   0  0  0  0  0  0  0  0  0  0  0  0
   15.5980  -21.6191   18.1008 N   0  0  0  0  0  0  0  0  0  0  0  0
   16.2943  -22.4131   18.8618 N   0  0  0  0  0  0  0  0  0  0  0  0
   15.2460  -20.3670   18.6516 C   0  0  0  0  0  0  0  0  0  0  0  0
   14.4548  -19.3932   17.9773 C   0  0  0  0  0  0  0  0  0  0  0  0
   14.1508  -18.1822   18.8524 C   0  0  0  0  0  0  0  0  0  0  0  0
   13.2901  -17.1941   18.0956 C   0  0  2  0  0  0  0  0  0  0  0  0
   11.8716  -17.1571   18.6252 N   0  0  0  0  0  0  0  0  0  0  0  0
   10.9941  -16.3873   17.8118 C   0  0  0  0  0  0  0  0  0  0  0  0
   11.9201  -16.6200   20.0092 O   0  0  0  0  0  0  0  0  0  0  0  0
   12.1787  -15.3805   20.1056 O   0  0  0  0  0  0  0  0  0  0  0  0
   16.4655  -22.0760   19.8523 C   0  0  0  0  0  0  0  0  0  0  0  0
   10.1763  -18.3993   23.2830 C   0  0  1  0  0  0  0  0  0  0  0  0
   10.6688  -17.0910   23.3760 N   0  0  0  0  0  0  0  0  0  0  0  0
   11.9069  -16.9806   22.5438 C   0  0  0  0  0  0  0  0  0  0  0  0
   11.7065  -17.3628   21.1728 O   0  0  0  0  0  0  0  0  0  0  0  0
   13.1017  -17.4952   23.2141 O   0  0  0  0  0  0  0  0  0  0  0  0
  2  1  1  0
  3  2  2  0
  4  2  1  0
  5  4  1  0
  6  5  1  0
  7  6  1  0
  8 10  1  0
  8  7  1  0
  8  9  1  1
 10 11  2  0
 13 12  1  0
 14 13  2  0
 15 13  1  0
 16 15  1  0
 17 16  1  0
 18 17  1  0
 19 18  1  6
 19 21  1  0
 20 10  1  0
 20 19  1  0
 21 26  1  0
 21 22  2  0
 23 24  1  0
 25 24  1  6
 25 27  1  0
 26 25  1  0
 27 28  2  0
 27 29  1  0
M  END
$$$$
