RRS.pdb
     RDKit          3D

 29 28  0  0  1  0  0  0  0  0999 V2000
    9.5391  -13.5525   18.8123 N   0  0  0  0  0  0  0  0  0  0  0  0
    8.6880  -12.7272   19.6120 C   0  0  0  0  0  0  0  0  0  0  0  0
    8.7995  -11.4625   19.6254 N   0  0  0  0  0  0  0  0  0  0  0  0
    7.6796  -13.3393   20.4187 N   0  0  0  0  0  0  0  0  0  0  0  0
    7.8624  -14.5610   21.1440 C   0  0  0  0  0  0  0  0  0  0  0  0
    7.4590  -15.7759   20.3345 C   0  0  0  0  0  0  0  0  0  0  0  0
    8.3083  -16.9716   20.6512 C   0  0  0  0  0  0  0  0  0  0  0  0
    7.5528  -18.0684   21.3866 C   0  0  2  0  0  0  0  0  0  0  0  0
    6.4022  -18.4624   20.6184 N   0  0  0  0  0  0  0  0  0  0  0  0
    7.1514  -17.5886   22.7437 C   0  0  0  0  0  0  0  0  0  0  0  0
    6.1124  -16.9436   22.9193 O   0  0  0  0  0  0  0  0  0  0  0  0
    8.1685  -10.8913   20.2266 N   0  0  0  0  0  0  0  0  0  0  0  0
   11.7970  -19.2388   28.6087 C   0  0  0  0  0  0  0  0  0  0  0  0
   11.3246  -18.0579   29.2359 N   0  0  0  0  0  0  0  0  0  0  0  0
   12.1173  -17.2648   29.8969 N   0  0  0  0  0  0  0  0  0  0  0  0
    9.9646  -17.6815   29.1745 C   0  0  0  0  0  0  0  0  0  0  0  0
    8.9240  -18.5272   28.6937 C   0  0  0  0  0  0  0  0  0  0  0  0
    8.0326  -17.8304   27.6717 C   0  0  0  0  0  0  0  0  0  0  0  0
    8.4907  -18.1610   26.2679 C   0  0  2  0  0  0  0  0  0  0  0  0
    7.6642  -17.4457   25.2195 N   0  0  0  0  0  0  0  0  0  0  0  0
    7.9629  -17.8662   23.8936 C   0  0  0  0  0  0  0  0  0  0  0  0
    7.8967  -15.9873   25.3787 O   0  0  0  0  0  0  0  0  0  0  0  0
    8.8614  -15.5110   24.7043 O   0  0  0  0  0  0  0  0  0  0  0  0
   11.6594  -16.4246   30.3537 C   0  0  0  0  0  0  0  0  0  0  0  0
    5.0089  -13.7930   26.5348 C   0  0  1  0  0  0  0  0  0  0  0  0
    6.1205  -13.0301   26.9159 N   0  0  0  0  0  0  0  0  0  0  0  0
    7.3647  -13.7443   26.4922 C   0  0  0  0  0  0  0  0  0  0  0  0
    7.1491  -15.1335   26.1933 O   0  0  0  0  0  0  0  0  0  0  0  0
    8.5307  -13.4091   27.3105 O   0  0  0  0  0  0  0  0  0  0  0  0
  2  1  1  0
  3  2  2  0
  4  2  1  0
  5  4  1  0
  6  5  1  0
  7  6  1  0
  8 10  1  0
  8  7  1  0
  8  9  1  6
 10 11  2  0
 13 12  1  0
 14 13  2  0
 15 13  1  0
 16 15  1  0
 17 16  1  0
 18 17  1  0
 19 18  1  1
 19 21  1  0
 20 10  1  0
 20 19  1  0
 21 26  1  0
 21 22  2  0
 23 24  1  0
 25 24  1  6
 25 27  1  0
 26 25  1  0
 27 28  2  0
 27 29  1  0
M  END
$$$$
