RRS.pdb
     RDKit          3D

 29 28  0  0  1  0  0  0  0  0999 V2000
   12.5962  -21.0455   16.4908 N   0  0  0  0  0  0  0  0  0  0  0  0
   12.2134  -22.3768   16.8463 C   0  0  0  0  0  0  0  0  0  0  0  0
   12.0625  -23.2869   15.9740 N   0  0  0  0  0  0  0  0  0  0  0  0
   11.9964  -22.6969   18.2220 N   0  0  0  0  0  0  0  0  0  0  0  0
   12.1265  -21.7578   19.2959 C   0  0  0  0  0  0  0  0  0  0  0  0
   11.4651  -20.4316   18.9829 C   0  0  0  0  0  0  0  0  0  0  0  0
   11.5400  -19.4778   20.1387 C   0  0  0  0  0  0  0  0  0  0  0  0
   10.8652  -18.1426   19.8616 C   0  0  2  0  0  0  0  0  0  0  0  0
   11.6757  -17.3685   18.9599 N   0  0  0  0  0  0  0  0  0  0  0  0
   10.6415  -17.4090   21.1440 C   0  0  0  0  0  0  0  0  0  0  0  0
   11.5815  -17.1019   21.8846 O   0  0  0  0  0  0  0  0  0  0  0  0
   11.8362  -24.2597   16.2716 N   0  0  0  0  0  0  0  0  0  0  0  0
   10.0804  -13.7828   19.2000 C   0  0  0  0  0  0  0  0  0  0  0  0
    8.9578  -12.9434   19.4144 N   0  0  0  0  0  0  0  0  0  0  0  0
    8.3237  -12.3762   18.4292 N   0  0  0  0  0  0  0  0  0  0  0  0
    8.4693  -12.6794   20.7132 C   0  0  0  0  0  0  0  0  0  0  0  0
    8.5161  -13.6131   21.7879 C   0  0  0  0  0  0  0  0  0  0  0  0
    7.4733  -14.7164   21.6467 C   0  0  0  0  0  0  0  0  0  0  0  0
    7.6304  -15.7289   22.7603 C   0  0  2  0  0  0  0  0  0  0  0  0
    9.0106  -16.3525   22.7679 N   0  0  0  0  0  0  0  0  0  0  0  0
    9.3204  -17.0325   21.5572 C   0  0  0  0  0  0  0  0  0  0  0  0
    9.0822  -17.2765   23.9287 O   0  0  0  0  0  0  0  0  0  0  0  0
    8.8338  -18.4953   23.6732 O   0  0  0  0  0  0  0  0  0  0  0  0
    7.4961  -11.7698   18.6965 C   0  0  0  0  0  0  0  0  0  0  0  0
   12.4291  -18.5350   26.4359 C   0  0  2  0  0  0  0  0  0  0  0  0
   11.6684  -17.7689   25.5430 N   0  0  0  0  0  0  0  0  0  0  0  0
   10.3285  -17.5048   26.1533 C   0  0  0  0  0  0  0  0  0  0  0  0
    9.3951  -16.9062   25.2388 O   0  0  0  0  0  0  0  0  0  0  0  0
   10.4083  -16.9326   27.4979 O   0  0  0  0  0  0  0  0  0  0  0  0
  2  1  1  0
  3  2  2  0
  4  2  1  0
  5  4  1  0
  6  5  1  0
  7  6  1  0
  8 10  1  0
  8  7  1  0
  8  9  1  6
 10 11  2  0
 13 12  1  0
 14 13  2  0
 15 13  1  0
 16 15  1  0
 17 16  1  0
 18 17  1  0
 19 18  1  6
 19 21  1  0
 20 10  1  0
 20 19  1  0
 21 26  1  0
 21 22  2  0
 23 24  1  0
 25 24  1  1
 25 27  1  0
 26 25  1  0
 27 28  2  0
 27 29  1  0
M  END
$$$$
