RRS.pdb
     RDKit          3D

 29 28  0  0  1  0  0  0  0  0999 V2000
   16.3748  -11.6493   12.2965 N   0  0  0  0  0  0  0  0  0  0  0  0
   17.1172  -12.8635   12.4363 C   0  0  0  0  0  0  0  0  0  0  0  0
   18.1441  -13.1071   11.7305 N   0  0  0  0  0  0  0  0  0  0  0  0
   16.6962  -13.8321   13.3991 N   0  0  0  0  0  0  0  0  0  0  0  0
   15.6756  -14.8091   13.1629 C   0  0  0  0  0  0  0  0  0  0  0  0
   16.2490  -16.1807   12.8732 C   0  0  0  0  0  0  0  0  0  0  0  0
   16.4434  -16.9860   14.1242 C   0  0  0  0  0  0  0  0  0  0  0  0
   15.4438  -18.1240   14.2684 C   0  0  2  0  0  0  0  0  0  0  0  0
   14.2438  -17.8094   13.5404 N   0  0  0  0  0  0  0  0  0  0  0  0
   15.1464  -18.3606   15.7135 C   0  0  0  0  0  0  0  0  0  0  0  0
   14.5074  -17.5426   16.3836 O   0  0  0  0  0  0  0  0  0  0  0  0
   18.7540  -13.9194   11.9631 N   0  0  0  0  0  0  0  0  0  0  0  0
   13.6420  -25.6838   20.2975 C   0  0  0  0  0  0  0  0  0  0  0  0
   13.8443  -25.3059   18.9458 N   0  0  0  0  0  0  0  0  0  0  0  0
   13.9834  -26.1869   17.9977 N   0  0  0  0  0  0  0  0  0  0  0  0
   13.9054  -23.9489   18.5587 C   0  0  0  0  0  0  0  0  0  0  0  0
   14.0782  -23.5100   17.2146 C   0  0  0  0  0  0  0  0  0  0  0  0
   14.0665  -21.9903   17.0921 C   0  0  0  0  0  0  0  0  0  0  0  0
   15.1678  -21.3897   17.9384 C   0  0  2  0  0  0  0  0  0  0  0  0
   15.2981  -19.8964   17.7213 N   0  0  0  0  0  0  0  0  0  0  0  0
   15.5931  -19.5541   16.3723 C   0  0  0  0  0  0  0  0  0  0  0  0
   16.3544  -19.3973   18.6386 O   0  0  0  0  0  0  0  0  0  0  0  0
   17.5470  -19.5344   18.2246 O   0  0  0  0  0  0  0  0  0  0  0  0
   14.0207  -25.8047   17.0095 C   0  0  0  0  0  0  0  0  0  0  0  0
   15.9282  -20.2948   23.2085 C   0  0  2  0  0  0  0  0  0  0  0  0
   15.4999  -20.0545   21.8964 N   0  0  0  0  0  0  0  0  0  0  0  0
   16.5430  -19.2501   21.1875 C   0  0  0  0  0  0  0  0  0  0  0  0
   16.1304  -18.8061   19.8843 O   0  0  0  0  0  0  0  0  0  0  0  0
   17.8882  -19.8136   21.3075 O   0  0  0  0  0  0  0  0  0  0  0  0
  2  1  1  0
  3  2  2  0
  4  2  1  0
  5  4  1  0
  6  5  1  0
  7  6  1  0
  8 10  1  0
  8  7  1  0
  8  9  1  6
 10 11  2  0
 13 12  1  0
 14 13  2  0
 15 13  1  0
 16 15  1  0
 17 16  1  0
 18 17  1  0
 19 18  1  6
 19 21  1  0
 20 10  1  0
 20 19  1  0
 21 26  1  0
 21 22  2  0
 23 24  1  0
 25 24  1  6
 25 27  1  0
 26 25  1  0
 27 28  2  0
 27 29  1  0
M  END
$$$$
