RRS.pdb
     RDKit          3D

 29 28  0  0  1  0  0  0  0  0999 V2000
   16.4798  -19.4675   18.2201 N   0  0  0  0  0  0  0  0  0  0  0  0
   16.1049  -19.3297   16.8469 C   0  0  0  0  0  0  0  0  0  0  0  0
   16.7432  -18.5756   16.0496 N   0  0  0  0  0  0  0  0  0  0  0  0
   14.9817  -20.0626   16.3531 N   0  0  0  0  0  0  0  0  0  0  0  0
   13.7098  -20.1227   17.0094 C   0  0  0  0  0  0  0  0  0  0  0  0
   12.7635  -21.0977   16.3402 C   0  0  0  0  0  0  0  0  0  0  0  0
   11.5117  -21.3075   17.1406 C   0  0  0  0  0  0  0  0  0  0  0  0
   10.3858  -20.3592   16.7559 C   0  0  2  0  0  0  0  0  0  0  0  0
   10.5651  -19.9207   15.3977 N   0  0  0  0  0  0  0  0  0  0  0  0
   10.3561  -19.1966   17.6941 C   0  0  0  0  0  0  0  0  0  0  0  0
   10.9170  -18.1306   17.4192 O   0  0  0  0  0  0  0  0  0  0  0  0
   16.4663  -18.5270   15.0461 N   0  0  0  0  0  0  0  0  0  0  0  0
    7.2481  -12.8896   18.4690 C   0  0  0  0  0  0  0  0  0  0  0  0
    7.7149  -12.9645   19.8059 N   0  0  0  0  0  0  0  0  0  0  0  0
    8.0090  -11.8990   20.4934 N   0  0  0  0  0  0  0  0  0  0  0  0
    7.8851  -14.2041   20.4612 C   0  0  0  0  0  0  0  0  0  0  0  0
    7.4749  -15.4558   19.9189 C   0  0  0  0  0  0  0  0  0  0  0  0
    7.7736  -16.6219   20.8545 C   0  0  0  0  0  0  0  0  0  0  0  0
    7.9805  -17.8913   20.0571 C   0  0  2  0  0  0  0  0  0  0  0  0
    9.4491  -18.1848   19.8310 N   0  0  0  0  0  0  0  0  0  0  0  0
    9.6681  -19.2802   18.9501 C   0  0  0  0  0  0  0  0  0  0  0  0
   10.0683  -18.4382   21.1571 O   0  0  0  0  0  0  0  0  0  0  0  0
    9.9478  -19.6225   21.5992 O   0  0  0  0  0  0  0  0  0  0  0  0
    8.4182  -12.0658   21.4573 C   0  0  0  0  0  0  0  0  0  0  0  0
   13.2348  -16.3227   22.7140 C   0  0  1  0  0  0  0  0  0  0  0  0
   12.8400  -17.5741   23.2048 N   0  0  0  0  0  0  0  0  0  0  0  0
   11.3455  -17.6352   23.2256 C   0  0  0  0  0  0  0  0  0  0  0  0
   10.7524  -17.4921   21.9242 O   0  0  0  0  0  0  0  0  0  0  0  0
   10.7507  -16.8672   24.3201 O   0  0  0  0  0  0  0  0  0  0  0  0
  2  1  1  0
  3  2  2  0
  4  2  1  0
  5  4  1  0
  6  5  1  0
  7  6  1  0
  8 10  1  0
  8  7  1  0
  8  9  1  6
 10 11  2  0
 13 12  1  0
 14 13  2  0
 15 13  1  0
 16 15  1  0
 17 16  1  0
 18 17  1  0
 19 18  1  6
 19 21  1  0
 20 10  1  0
 20 19  1  0
 21 26  1  0
 21 22  2  0
 23 24  1  0
 25 24  1  6
 25 27  1  0
 26 25  1  0
 27 28  2  0
 27 29  1  0
M  END
$$$$
