RRS.pdb
     RDKit          3D

 29 28  0  0  1  0  0  0  0  0999 V2000
   13.0283  -25.0338   17.6437 N   0  0  0  0  0  0  0  0  0  0  0  0
   14.2003  -24.2592   17.9117 C   0  0  0  0  0  0  0  0  0  0  0  0
   14.9334  -23.8070   16.9790 N   0  0  0  0  0  0  0  0  0  0  0  0
   14.5584  -23.9814   19.2670 N   0  0  0  0  0  0  0  0  0  0  0  0
   13.7046  -23.3129   20.2031 C   0  0  0  0  0  0  0  0  0  0  0  0
   14.2030  -21.9242   20.5453 C   0  0  0  0  0  0  0  0  0  0  0  0
   13.3820  -21.2808   21.6239 C   0  0  0  0  0  0  0  0  0  0  0  0
   12.0720  -20.6972   21.1157 C   0  0  2  0  0  0  0  0  0  0  0  0
   12.1054  -20.6104   19.6803 N   0  0  0  0  0  0  0  0  0  0  0  0
   11.8414  -19.3538   21.7278 C   0  0  0  0  0  0  0  0  0  0  0  0
   12.7793  -18.6594   22.1336 O   0  0  0  0  0  0  0  0  0  0  0  0
   15.7633  -23.2200   17.2083 N   0  0  0  0  0  0  0  0  0  0  0  0
    6.7888  -12.5556   20.8890 C   0  0  0  0  0  0  0  0  0  0  0  0
    7.8851  -12.5444   19.9896 N   0  0  0  0  0  0  0  0  0  0  0  0
    8.3121  -11.4454   19.4380 N   0  0  0  0  0  0  0  0  0  0  0  0
    8.5714  -13.7300   19.6456 C   0  0  0  0  0  0  0  0  0  0  0  0
    8.2801  -15.0094   20.1999 C   0  0  0  0  0  0  0  0  0  0  0  0
    9.3968  -15.5209   21.1032 C   0  0  0  0  0  0  0  0  0  0  0  0
    9.0356  -16.8802   21.6614 C   0  0  2  0  0  0  0  0  0  0  0  0
   10.2056  -17.5303   22.3701 N   0  0  0  0  0  0  0  0  0  0  0  0
   10.5156  -18.8224   21.8616 C   0  0  0  0  0  0  0  0  0  0  0  0
    9.8780  -17.5943   23.8175 O   0  0  0  0  0  0  0  0  0  0  0  0
    8.8235  -18.2378   24.1111 O   0  0  0  0  0  0  0  0  0  0  0  0
    9.1745  -11.5360   18.8278 C   0  0  0  0  0  0  0  0  0  0  0  0
    9.8456  -19.5610   26.6424 C   0  0  2  0  0  0  0  0  0  0  0  0
    9.6267  -18.1814   26.7500 N   0  0  0  0  0  0  0  0  0  0  0  0
   10.8141  -17.4593   26.1965 C   0  0  0  0  0  0  0  0  0  0  0  0
   10.6284  -17.0136   24.8427 O   0  0  0  0  0  0  0  0  0  0  0  0
   12.0863  -18.1064   26.5193 O   0  0  0  0  0  0  0  0  0  0  0  0
  2  1  1  0
  3  2  2  0
  4  2  1  0
  5  4  1  0
  6  5  1  0
  7  6  1  0
  8 10  1  0
  8  7  1  0
  8  9  1  6
 10 11  2  0
 13 12  1  0
 14 13  2  0
 15 13  1  0
 16 15  1  0
 17 16  1  0
 18 17  1  0
 19 18  1  6
 19 21  1  0
 20 10  1  0
 20 19  1  0
 21 26  1  0
 21 22  2  0
 23 24  1  0
 25 24  1  6
 25 27  1  0
 26 25  1  0
 27 28  2  0
 27 29  1  0
M  END
$$$$
