RRS.pdb
     RDKit          3D

 29 28  0  0  1  0  0  0  0  0999 V2000
    9.5968  -14.5161   17.3036 N   0  0  0  0  0  0  0  0  0  0  0  0
    9.5080  -15.6911   16.4934 C   0  0  0  0  0  0  0  0  0  0  0  0
    8.4983  -15.9259   15.7604 N   0  0  0  0  0  0  0  0  0  0  0  0
   10.5860  -16.6292   16.5038 N   0  0  0  0  0  0  0  0  0  0  0  0
   11.8113  -16.4376   17.2208 C   0  0  0  0  0  0  0  0  0  0  0  0
   11.7025  -16.8664   18.6694 C   0  0  0  0  0  0  0  0  0  0  0  0
   10.9630  -18.1634   18.8191 C   0  0  0  0  0  0  0  0  0  0  0  0
   11.3816  -18.9561   20.0484 C   0  0  2  0  0  0  0  0  0  0  0  0
   10.4838  -20.0637   20.2390 N   0  0  0  0  0  0  0  0  0  0  0  0
   11.3954  -18.0658   21.2484 C   0  0  0  0  0  0  0  0  0  0  0  0
   12.4043  -17.4282   21.5678 O   0  0  0  0  0  0  0  0  0  0  0  0
    8.5400  -16.6823   15.0448 N   0  0  0  0  0  0  0  0  0  0  0  0
    8.2424  -11.6222   20.0099 C   0  0  0  0  0  0  0  0  0  0  0  0
    8.0093  -12.9898   20.3033 N   0  0  0  0  0  0  0  0  0  0  0  0
    8.1418  -13.9199   19.4023 N   0  0  0  0  0  0  0  0  0  0  0  0
    7.6198  -13.4132   21.5933 C   0  0  0  0  0  0  0  0  0  0  0  0
    7.3553  -14.7689   21.9417 C   0  0  0  0  0  0  0  0  0  0  0  0
    8.6040  -15.6412   21.8769 C   0  0  0  0  0  0  0  0  0  0  0  0
    8.9078  -16.2203   23.2415 C   0  0  2  0  0  0  0  0  0  0  0  0
   10.1475  -17.0902   23.2243 N   0  0  0  0  0  0  0  0  0  0  0  0
   10.2293  -17.9192   22.0710 C   0  0  0  0  0  0  0  0  0  0  0  0
   10.1438  -17.9063   24.4653 O   0  0  0  0  0  0  0  0  0  0  0  0
    9.1998  -18.7501   24.5616 O   0  0  0  0  0  0  0  0  0  0  0  0
    8.1788  -14.9159   19.7640 C   0  0  0  0  0  0  0  0  0  0  0  0
   13.5841  -18.7070   26.6615 C   0  0  2  0  0  0  0  0  0  0  0  0
   12.4386  -19.5127   26.6214 N   0  0  0  0  0  0  0  0  0  0  0  0
   11.2285  -18.6346   26.6670 C   0  0  0  0  0  0  0  0  0  0  0  0
   11.0791  -17.8110   25.4985 O   0  0  0  0  0  0  0  0  0  0  0  0
   11.0279  -17.9938   27.9673 O   0  0  0  0  0  0  0  0  0  0  0  0
  2  1  1  0
  3  2  2  0
  4  2  1  0
  5  4  1  0
  6  5  1  0
  7  6  1  0
  8 10  1  0
  8  7  1  0
  8  9  1  1
 10 11  2  0
 13 12  1  0
 14 13  2  0
 15 13  1  0
 16 15  1  0
 17 16  1  0
 18 17  1  0
 19 18  1  6
 19 21  1  0
 20 10  1  0
 20 19  1  0
 21 26  1  0
 21 22  2  0
 23 24  1  0
 25 24  1  6
 25 27  1  0
 26 25  1  0
 27 28  2  0
 27 29  1  0
M  END
$$$$
