RRS.pdb
     RDKit          3D

 29 28  0  0  1  0  0  0  0  0999 V2000
    8.1861  -16.5729   14.1082 N   0  0  0  0  0  0  0  0  0  0  0  0
    9.2897  -16.7037   15.0082 C   0  0  0  0  0  0  0  0  0  0  0  0
    9.6192  -17.8235   15.5075 N   0  0  0  0  0  0  0  0  0  0  0  0
   10.0481  -15.5433   15.3559 N   0  0  0  0  0  0  0  0  0  0  0  0
    9.4874  -14.3628   15.9424 C   0  0  0  0  0  0  0  0  0  0  0  0
    8.9443  -14.6147   17.3336 C   0  0  0  0  0  0  0  0  0  0  0  0
    8.2051  -13.4259   17.8738 C   0  0  0  0  0  0  0  0  0  0  0  0
    7.5868  -13.6727   19.2420 C   0  0  2  0  0  0  0  0  0  0  0  0
    6.7249  -12.5746   19.5888 N   0  0  0  0  0  0  0  0  0  0  0  0
    8.6634  -13.8509   20.2627 C   0  0  0  0  0  0  0  0  0  0  0  0
    9.1916  -12.8829   20.8199 O   0  0  0  0  0  0  0  0  0  0  0  0
   10.4544  -17.8908   16.1270 N   0  0  0  0  0  0  0  0  0  0  0  0
   12.8345  -17.9625   25.0920 C   0  0  0  0  0  0  0  0  0  0  0  0
   12.3585  -19.2402   24.7022 N   0  0  0  0  0  0  0  0  0  0  0  0
   13.1482  -20.2711   24.6112 N   0  0  0  0  0  0  0  0  0  0  0  0
   10.9982  -19.4593   24.3917 C   0  0  0  0  0  0  0  0  0  0  0  0
   10.0739  -18.4209   24.0808 C   0  0  0  0  0  0  0  0  0  0  0  0
   10.6251  -17.4391   23.0527 C   0  0  0  0  0  0  0  0  0  0  0  0
    9.5690  -16.4193   22.6861 C   0  0  1  0  0  0  0  0  0  0  0  0
   10.0710  -15.4299   21.6550 N   0  0  0  0  0  0  0  0  0  0  0  0
    9.1185  -15.1599   20.6333 C   0  0  0  0  0  0  0  0  0  0  0  0
   11.3266  -15.9759   21.0791 O   0  0  0  0  0  0  0  0  0  0  0  0
   11.3793  -17.2411   20.9841 O   0  0  0  0  0  0  0  0  0  0  0  0
   12.6912  -21.1828   24.3211 C   0  0  0  0  0  0  0  0  0  0  0  0
   14.4677  -13.3874   19.8700 C   0  0  2  0  0  0  0  0  0  0  0  0
   14.5408  -14.0758   21.0881 N   0  0  0  0  0  0  0  0  0  0  0  0
   13.8120  -15.3751   20.9531 C   0  0  0  0  0  0  0  0  0  0  0  0
   12.4164  -15.2154   20.6487 O   0  0  0  0  0  0  0  0  0  0  0  0
   14.1638  -16.3457   21.9904 O   0  0  0  0  0  0  0  0  0  0  0  0
  2  1  1  0
  3  2  2  0
  4  2  1  0
  5  4  1  0
  6  5  1  0
  7  6  1  0
  8 10  1  0
  8  7  1  0
  8  9  1  1
 10 11  2  0
 13 12  1  0
 14 13  2  0
 15 13  1  0
 16 15  1  0
 17 16  1  0
 18 17  1  0
 19 18  1  1
 19 21  1  0
 20 10  1  0
 20 19  1  0
 21 26  1  0
 21 22  2  0
 23 24  1  0
 25 24  1  6
 25 27  1  0
 26 25  1  0
 27 28  2  0
 27 29  1  0
M  END
$$$$
