RRS.pdb
     RDKit          3D

 29 28  0  0  1  0  0  0  0  0999 V2000
   14.0973  -22.0252   16.8777 N   0  0  0  0  0  0  0  0  0  0  0  0
   14.6592  -20.7460   17.1826 C   0  0  0  0  0  0  0  0  0  0  0  0
   15.6817  -20.6221   17.9250 N   0  0  0  0  0  0  0  0  0  0  0  0
   14.0574  -19.5709   16.6356 N   0  0  0  0  0  0  0  0  0  0  0  0
   12.8261  -19.5650   15.9035 C   0  0  0  0  0  0  0  0  0  0  0  0
   11.6205  -19.7295   16.8054 C   0  0  0  0  0  0  0  0  0  0  0  0
   11.2657  -21.1724   17.0145 C   0  0  0  0  0  0  0  0  0  0  0  0
   10.0096  -21.3681   17.8503 C   0  0  2  0  0  0  0  0  0  0  0  0
    8.8930  -20.7343   17.2017 N   0  0  0  0  0  0  0  0  0  0  0  0
   10.2182  -20.8118   19.2213 C   0  0  0  0  0  0  0  0  0  0  0  0
    9.7543  -19.7151   19.5507 O   0  0  0  0  0  0  0  0  0  0  0  0
   16.0968  -19.6797   18.0851 N   0  0  0  0  0  0  0  0  0  0  0  0
   11.9097  -27.2196   24.5641 C   0  0  0  0  0  0  0  0  0  0  0  0
   10.6684  -27.0406   23.9022 N   0  0  0  0  0  0  0  0  0  0  0  0
    9.7669  -27.9787   23.8636 N   0  0  0  0  0  0  0  0  0  0  0  0
   10.3468  -25.8304   23.2488 C   0  0  0  0  0  0  0  0  0  0  0  0
   11.1772  -24.6730   23.2597 C   0  0  0  0  0  0  0  0  0  0  0  0
   10.6215  -23.5492   22.3920 C   0  0  0  0  0  0  0  0  0  0  0  0
   11.5359  -22.3449   22.4487 C   0  0  2  0  0  0  0  0  0  0  0  0
   11.0275  -21.2070   21.5882 N   0  0  0  0  0  0  0  0  0  0  0  0
   10.9655  -21.5394   20.2063 C   0  0  0  0  0  0  0  0  0  0  0  0
   11.9164  -20.0384   21.8135 O   0  0  0  0  0  0  0  0  0  0  0  0
   13.0019  -20.0426   21.1547 O   0  0  0  0  0  0  0  0  0  0  0  0
    8.8884  -27.7571   23.3129 C   0  0  0  0  0  0  0  0  0  0  0  0
   10.6141  -16.4128   22.4878 C   0  0  1  0  0  0  0  0  0  0  0  0
   11.6447  -16.6339   23.4107 N   0  0  0  0  0  0  0  0  0  0  0  0
   12.4481  -17.8141   22.9640 C   0  0  0  0  0  0  0  0  0  0  0  0
   11.6460  -18.9706   22.6725 O   0  0  0  0  0  0  0  0  0  0  0  0
   13.6594  -18.0229   23.7583 O   0  0  0  0  0  0  0  0  0  0  0  0
  2  1  1  0
  3  2  2  0
  4  2  1  0
  5  4  1  0
  6  5  1  0
  7  6  1  0
  8 10  1  0
  8  7  1  0
  8  9  1  6
 10 11  2  0
 13 12  1  0
 14 13  2  0
 15 13  1  0
 16 15  1  0
 17 16  1  0
 18 17  1  0
 19 18  1  1
 19 21  1  0
 20 10  1  0
 20 19  1  0
 21 26  1  0
 21 22  2  0
 23 24  1  0
 25 24  1  6
 25 27  1  0
 26 25  1  0
 27 28  2  0
 27 29  1  0
M  END
$$$$
