RRS.pdb
     RDKit          3D

 29 28  0  0  1  0  0  0  0  0999 V2000
   15.4540  -16.7863   17.2226 N   0  0  0  0  0  0  0  0  0  0  0  0
   14.6489  -16.8063   16.0409 C   0  0  0  0  0  0  0  0  0  0  0  0
   15.0422  -17.3641   14.9704 N   0  0  0  0  0  0  0  0  0  0  0  0
   13.3625  -16.1842   16.0622 N   0  0  0  0  0  0  0  0  0  0  0  0
   12.7997  -15.5411   17.2119 C   0  0  0  0  0  0  0  0  0  0  0  0
   12.4199  -16.5295   18.2949 C   0  0  0  0  0  0  0  0  0  0  0  0
   12.8938  -16.0911   19.6493 C   0  0  0  0  0  0  0  0  0  0  0  0
   12.5795  -17.0933   20.7501 C   0  0  2  0  0  0  0  0  0  0  0  0
   11.7098  -18.1181   20.2378 N   0  0  0  0  0  0  0  0  0  0  0  0
   11.9546  -16.3933   21.9130 C   0  0  0  0  0  0  0  0  0  0  0  0
   12.6107  -15.6443   22.6444 O   0  0  0  0  0  0  0  0  0  0  0  0
   14.4301  -17.3605   14.1271 N   0  0  0  0  0  0  0  0  0  0  0  0
    8.1606  -14.7567   18.4221 C   0  0  0  0  0  0  0  0  0  0  0  0
    8.1338  -13.3820   18.7693 N   0  0  0  0  0  0  0  0  0  0  0  0
    8.5528  -12.4575   17.9544 N   0  0  0  0  0  0  0  0  0  0  0  0
    7.6490  -12.9452   20.0220 C   0  0  0  0  0  0  0  0  0  0  0  0
    7.4970  -13.7917   21.1575 C   0  0  0  0  0  0  0  0  0  0  0  0
    8.8223  -14.3835   21.6245 C   0  0  0  0  0  0  0  0  0  0  0  0
    8.6082  -15.2360   22.8562 C   0  0  2  0  0  0  0  0  0  0  0  0
    9.8813  -15.9313   23.2918 N   0  0  0  0  0  0  0  0  0  0  0  0
   10.5635  -16.5670   22.2173 C   0  0  0  0  0  0  0  0  0  0  0  0
    9.5215  -16.9131   24.3468 O   0  0  0  0  0  0  0  0  0  0  0  0
    8.7949  -17.8824   23.9661 O   0  0  0  0  0  0  0  0  0  0  0  0
    8.5318  -11.4650   18.3267 C   0  0  0  0  0  0  0  0  0  0  0  0
   12.1620  -19.5720   26.5984 C   0  0  1  0  0  0  0  0  0  0  0  0
   11.6770  -18.5458   25.7771 N   0  0  0  0  0  0  0  0  0  0  0  0
   10.5698  -17.8378   26.4916 C   0  0  0  0  0  0  0  0  0  0  0  0
    9.9168  -16.8435   25.6848 O   0  0  0  0  0  0  0  0  0  0  0  0
   10.9128  -17.4656   27.8647 O   0  0  0  0  0  0  0  0  0  0  0  0
  2  1  1  0
  3  2  2  0
  4  2  1  0
  5  4  1  0
  6  5  1  0
  7  6  1  0
  8 10  1  0
  8  7  1  0
  8  9  1  6
 10 11  2  0
 13 12  1  0
 14 13  2  0
 15 13  1  0
 16 15  1  0
 17 16  1  0
 18 17  1  0
 19 18  1  6
 19 21  1  0
 20 10  1  0
 20 19  1  0
 21 26  1  0
 21 22  2  0
 23 24  1  0
 25 24  1  1
 25 27  1  0
 26 25  1  0
 27 28  2  0
 27 29  1  0
M  END
$$$$
