CRF.pdb
     RDKit          3D

 29 29  0  0  1  0  0  0  0  0999 V2000
   28.8655  -18.7353  -16.7682 N   0  0  0  0  0  0  0  0  0  0  0  0
   27.9942  -19.0429  -15.6491 C   0  0  1  0  0  0  0  0  0  0  0  0
   28.0055  -17.9473  -14.6101 C   0  0  0  0  0  0  0  0  0  0  0  0
   27.2919  -16.4123  -15.1959 S   0  0  0  0  0  0  0  0  0  0  0  0
   26.6515  -19.3233  -16.1771 C   0  0  0  0  0  0  0  0  0  0  0  0
   26.3537  -18.8117  -17.3015 O   0  0  0  0  0  0  0  0  0  0  0  0
   25.4388  -25.8288  -18.5437 N   0  0  0  0  0  0  0  0  0  0  0  0
   25.5618  -25.6256  -17.1443 C   0  0  0  0  0  0  0  0  0  0  0  0
   26.4517  -26.2484  -16.4553 N   0  0  0  0  0  0  0  0  0  0  0  0
   24.6844  -24.7085  -16.4583 N   0  0  0  0  0  0  0  0  0  0  0  0
   23.6186  -24.0289  -17.1343 C   0  0  0  0  0  0  0  0  0  0  0  0
   23.9623  -22.5680  -17.3137 C   0  0  0  0  0  0  0  0  0  0  0  0
   24.1596  -21.9528  -15.9709 C   0  0  0  0  0  0  0  0  0  0  0  0
   24.4239  -20.4655  -16.0343 C   0  0  2  0  0  0  0  0  0  0  0  0
   25.7121  -20.1232  -15.4867 N   0  0  0  0  0  0  0  0  0  0  0  0
   23.3269  -19.6771  -15.4200 C   0  0  0  0  0  0  0  0  0  0  0  0
   23.2342  -19.5071  -14.1829 O   0  0  0  0  0  0  0  0  0  0  0  0
   26.5520  -26.0367  -15.4524 N   0  0  0  0  0  0  0  0  0  0  0  0
   22.3372  -19.0858  -16.2428 C   0  0  1  0  0  0  0  0  0  0  0  0
   21.2568  -18.2630  -15.7362 C   0  0  0  0  0  0  0  0  0  0  0  0
   21.1741  -17.0574  -16.6446 C   0  0  0  0  0  0  0  0  0  0  0  0
   20.0589  -16.1544  -16.3516 C   0  0  0  0  0  0  0  0  0  0  0  0
   18.8291  -16.3011  -16.9752 C   0  0  0  0  0  0  0  0  0  0  0  0
   17.8052  -15.4323  -16.6704 C   0  0  0  0  0  0  0  0  0  0  0  0
   17.9586  -14.4091  -15.7570 C   0  0  0  0  0  0  0  0  0  0  0  0
   19.1949  -14.2891  -15.1529 C   0  0  0  0  0  0  0  0  0  0  0  0
   20.2443  -15.1337  -15.4272 C   0  0  0  0  0  0  0  0  0  0  0  0
   20.0026  -19.0000  -15.5929 O   0  0  0  0  0  0  0  0  0  0  0  0
   19.1231  -18.6795  -14.5699 O   0  0  0  0  0  0  0  0  0  0  0  0
  2  3  1  0
  2  1  1  6
  4  3  1  0
  5  2  1  0
  6  5  2  0
  8  7  1  0
  8 10  1  0
  9  8  2  0
 11 10  1  0
 11 12  1  0
 14 13  1  1
 13 12  1  0
 14 15  1  0
 15  5  1  0
 16 18  1  0
 16 14  1  0
 17 16  2  0
 19 18  1  0
 19 20  1  1
 20 21  1  0
 21 22  2  0
 21 26  1  0
 22 23  1  0
 23 24  2  0
 25 24  1  0
 26 25  2  0
 27 28  1  0
 27 19  1  0
 29 27  2  0
M  END
$$$$
