CRF.pdb
     RDKit          3D

 29 29  0  0  1  0  0  0  0  0999 V2000
   27.0214  -19.9921  -15.0515 N   0  0  0  0  0  0  0  0  0  0  0  0
   26.8233  -21.0116  -14.0378 C   0  0  1  0  0  0  0  0  0  0  0  0
   28.1046  -21.7444  -13.7195 C   0  0  0  0  0  0  0  0  0  0  0  0
   28.7952  -22.6036  -15.1314 S   0  0  0  0  0  0  0  0  0  0  0  0
   26.2149  -20.3755  -12.8606 C   0  0  0  0  0  0  0  0  0  0  0  0
   26.6295  -19.2149  -12.5514 O   0  0  0  0  0  0  0  0  0  0  0  0
   19.8971  -22.5366   -9.5003 N   0  0  0  0  0  0  0  0  0  0  0  0
   19.8576  -22.4571  -10.9169 C   0  0  0  0  0  0  0  0  0  0  0  0
   19.3634  -23.4103  -11.6252 N   0  0  0  0  0  0  0  0  0  0  0  0
   20.3748  -21.2959  -11.5992 N   0  0  0  0  0  0  0  0  0  0  0  0
   21.0100  -20.2217  -10.8939 C   0  0  0  0  0  0  0  0  0  0  0  0
   22.4250  -20.0355  -11.3914 C   0  0  0  0  0  0  0  0  0  0  0  0
   23.3484  -20.8065  -10.5118 C   0  0  0  0  0  0  0  0  0  0  0  0
   24.8069  -20.5221  -10.7911 C   0  0  2  0  0  0  0  0  0  0  0  0
   25.2111  -21.0032  -12.0878 N   0  0  0  0  0  0  0  0  0  0  0  0
   25.6901  -21.0217   -9.7082 C   0  0  0  0  0  0  0  0  0  0  0  0
   26.2170  -22.1570   -9.7423 O   0  0  0  0  0  0  0  0  0  0  0  0
   19.2965  -23.2970  -12.6466 N   0  0  0  0  0  0  0  0  0  0  0  0
   25.9615  -20.2023   -8.5853 C   0  0  2  0  0  0  0  0  0  0  0  0
   26.7613  -20.6278   -7.4538 C   0  0  0  0  0  0  0  0  0  0  0  0
   27.7860  -19.5410   -7.2203 C   0  0  0  0  0  0  0  0  0  0  0  0
   28.5021  -19.6480   -5.9474 C   0  0  0  0  0  0  0  0  0  0  0  0
   29.4896  -20.6019   -5.7534 C   0  0  0  0  0  0  0  0  0  0  0  0
   30.1411  -20.6683   -4.5420 C   0  0  0  0  0  0  0  0  0  0  0  0
   29.8448  -19.8112   -3.5017 C   0  0  0  0  0  0  0  0  0  0  0  0
   28.8568  -18.8724   -3.7258 C   0  0  0  0  0  0  0  0  0  0  0  0
   28.1813  -18.7707   -4.9188 C   0  0  0  0  0  0  0  0  0  0  0  0
   25.9534  -20.9597   -6.2817 O   0  0  0  0  0  0  0  0  0  0  0  0
   26.4778  -21.7680   -5.2845 O   0  0  0  0  0  0  0  0  0  0  0  0
  2  3  1  0
  2  1  1  6
  4  3  1  0
  5  2  1  0
  6  5  2  0
  8  7  1  0
  8 10  1  0
  9  8  2  0
 11 10  1  0
 11 12  1  0
 14 13  1  1
 13 12  1  0
 14 15  1  0
 15  5  1  0
 16 18  1  0
 16 14  1  0
 17 16  2  0
 19 18  1  0
 19 20  1  6
 20 21  1  0
 21 22  2  0
 21 26  1  0
 22 23  1  0
 23 24  2  0
 25 24  1  0
 26 25  2  0
 27 28  1  0
 27 19  1  0
 29 27  2  0
M  END
$$$$
