CRF.pdb
     RDKit          3D

 29 29  0  0  1  0  0  0  0  0999 V2000
   18.4010  -24.7816  -11.0994 N   0  0  0  0  0  0  0  0  0  0  0  0
   18.6033  -24.3537  -12.4713 C   0  0  1  0  0  0  0  0  0  0  0  0
   17.9531  -23.0188  -12.7455 C   0  0  0  0  0  0  0  0  0  0  0  0
   18.8437  -21.6398  -12.0287 S   0  0  0  0  0  0  0  0  0  0  0  0
   20.0474  -24.3590  -12.7450 C   0  0  0  0  0  0  0  0  0  0  0  0
   20.8218  -24.1079  -11.7694 O   0  0  0  0  0  0  0  0  0  0  0  0
   26.6857  -25.3450  -16.7222 N   0  0  0  0  0  0  0  0  0  0  0  0
   26.5788  -26.7370  -16.4662 C   0  0  0  0  0  0  0  0  0  0  0  0
   27.6178  -27.4493  -16.2057 N   0  0  0  0  0  0  0  0  0  0  0  0
   25.2922  -27.3891  -16.4926 N   0  0  0  0  0  0  0  0  0  0  0  0
   24.0817  -26.6686  -16.7579 C   0  0  0  0  0  0  0  0  0  0  0  0
   23.8250  -25.6589  -15.6629 C   0  0  0  0  0  0  0  0  0  0  0  0
   22.3672  -25.6457  -15.3541 C   0  0  0  0  0  0  0  0  0  0  0  0
   21.9942  -24.6252  -14.3026 C   0  0  2  0  0  0  0  0  0  0  0  0
   20.5798  -24.6280  -14.0268 N   0  0  0  0  0  0  0  0  0  0  0  0
   22.4966  -23.2696  -14.6375 C   0  0  0  0  0  0  0  0  0  0  0  0
   21.8485  -22.4715  -15.3523 O   0  0  0  0  0  0  0  0  0  0  0  0
   27.5150  -28.4676  -16.0907 N   0  0  0  0  0  0  0  0  0  0  0  0
   23.7523  -22.8408  -14.1421 C   0  0  2  0  0  0  0  0  0  0  0  0
   24.3515  -21.5620  -14.4687 C   0  0  0  0  0  0  0  0  0  0  0  0
   25.6721  -21.5075  -13.7349 C   0  0  0  0  0  0  0  0  0  0  0  0
   26.5288  -20.3818  -14.1136 C   0  0  0  0  0  0  0  0  0  0  0  0
   26.2838  -19.0997  -13.6456 C   0  0  0  0  0  0  0  0  0  0  0  0
   27.1145  -18.0685  -14.0237 C   0  0  0  0  0  0  0  0  0  0  0  0
   28.1941  -18.2653  -14.8605 C   0  0  0  0  0  0  0  0  0  0  0  0
   28.4118  -19.5531  -15.3097 C   0  0  0  0  0  0  0  0  0  0  0  0
   27.6083  -20.6116  -14.9577 C   0  0  0  0  0  0  0  0  0  0  0  0
   24.4498  -21.3339  -15.9092 O   0  0  0  0  0  0  0  0  0  0  0  0
   24.8306  -22.3681  -16.7506 O   0  0  0  0  0  0  0  0  0  0  0  0
  2  3  1  0
  2  1  1  1
  4  3  1  0
  5  2  1  0
  6  5  2  0
  8  7  1  0
  8 10  1  0
  9  8  2  0
 11 10  1  0
 11 12  1  0
 14 13  1  6
 13 12  1  0
 14 15  1  0
 15  5  1  0
 16 18  1  0
 16 14  1  0
 17 16  2  0
 19 18  1  0
 19 20  1  1
 20 21  1  0
 21 22  2  0
 21 26  1  0
 22 23  1  0
 23 24  2  0
 25 24  1  0
 26 25  2  0
 27 28  1  0
 27 19  1  0
 29 27  2  0
M  END
$$$$
