CRF.pdb
     RDKit          3D

 29 29  0  0  1  0  0  0  0  0999 V2000
   26.6611  -20.3048  -16.7039 N   0  0  0  0  0  0  0  0  0  0  0  0
   27.3987  -20.4446  -15.4619 C   0  0  1  0  0  0  0  0  0  0  0  0
   28.7554  -19.7860  -15.5364 C   0  0  0  0  0  0  0  0  0  0  0  0
   29.9259  -20.6938  -16.5437 S   0  0  0  0  0  0  0  0  0  0  0  0
   26.5631  -19.9225  -14.3712 C   0  0  0  0  0  0  0  0  0  0  0  0
   25.8330  -18.9161  -14.6329 O   0  0  0  0  0  0  0  0  0  0  0  0
   23.8813  -24.5067  -14.1413 N   0  0  0  0  0  0  0  0  0  0  0  0
   22.6728  -24.4820  -13.3973 C   0  0  0  0  0  0  0  0  0  0  0  0
   22.1365  -25.5661  -12.9594 N   0  0  0  0  0  0  0  0  0  0  0  0
   22.0139  -23.2304  -13.1135 N   0  0  0  0  0  0  0  0  0  0  0  0
   22.5862  -21.9700  -13.4860 C   0  0  0  0  0  0  0  0  0  0  0  0
   23.9697  -21.8299  -12.8940 C   0  0  0  0  0  0  0  0  0  0  0  0
   24.1774  -20.4109  -12.4892 C   0  0  0  0  0  0  0  0  0  0  0  0
   25.5988  -20.1183  -12.0649 C   0  0  2  0  0  0  0  0  0  0  0  0
   26.5518  -20.4944  -13.0782 N   0  0  0  0  0  0  0  0  0  0  0  0
   25.9209  -20.7141  -10.7445 C   0  0  0  0  0  0  0  0  0  0  0  0
   25.9347  -21.9513  -10.5521 O   0  0  0  0  0  0  0  0  0  0  0  0
   21.2640  -25.5127  -12.4148 N   0  0  0  0  0  0  0  0  0  0  0  0
   26.2272  -19.8727   -9.6472 C   0  0  1  0  0  0  0  0  0  0  0  0
   26.6438  -20.3642   -8.3487 C   0  0  0  0  0  0  0  0  0  0  0  0
   27.5777  -19.3226   -7.7756 C   0  0  0  0  0  0  0  0  0  0  0  0
   28.0336  -19.6031   -6.4125 C   0  0  0  0  0  0  0  0  0  0  0  0
   27.3687  -19.0893   -5.3095 C   0  0  0  0  0  0  0  0  0  0  0  0
   27.8283  -19.3784   -4.0440 C   0  0  0  0  0  0  0  0  0  0  0  0
   28.9387  -20.1694   -3.8297 C   0  0  0  0  0  0  0  0  0  0  0  0
   29.5791  -20.6661   -4.9481 C   0  0  0  0  0  0  0  0  0  0  0  0
   29.1549  -20.4029   -6.2290 C   0  0  0  0  0  0  0  0  0  0  0  0
   25.5160  -20.7071   -7.4842 O   0  0  0  0  0  0  0  0  0  0  0  0
   24.2474  -20.2305   -7.7778 O   0  0  0  0  0  0  0  0  0  0  0  0
  2  3  1  0
  2  1  1  6
  4  3  1  0
  5  2  1  0
  6  5  2  0
  8  7  1  0
  8 10  1  0
  9  8  2  0
 11 10  1  0
 11 12  1  0
 14 13  1  6
 13 12  1  0
 14 15  1  0
 15  5  1  0
 16 18  1  0
 16 14  1  0
 17 16  2  0
 19 18  1  0
 19 20  1  1
 20 21  1  0
 21 22  2  0
 21 26  1  0
 22 23  1  0
 23 24  2  0
 25 24  1  0
 26 25  2  0
 27 28  1  0
 27 19  1  0
 29 27  2  0
M  END
$$$$
