CRF.pdb
     RDKit          3D

 29 29  0  0  1  0  0  0  0  0999 V2000
   22.0621  -21.0093  -14.0983 N   0  0  0  0  0  0  0  0  0  0  0  0
   22.9406  -19.9621  -13.6107 C   0  0  1  0  0  0  0  0  0  0  0  0
   22.2245  -19.0178  -12.6750 C   0  0  0  0  0  0  0  0  0  0  0  0
   21.6986  -19.7987  -11.1511 S   0  0  0  0  0  0  0  0  0  0  0  0
   24.1166  -20.5979  -12.9998 C   0  0  0  0  0  0  0  0  0  0  0  0
   23.9912  -21.8048  -12.6229 O   0  0  0  0  0  0  0  0  0  0  0  0
   28.7919  -21.3502  -17.6924 N   0  0  0  0  0  0  0  0  0  0  0  0
   28.5120  -22.4314  -16.8165 C   0  0  0  0  0  0  0  0  0  0  0  0
   28.2598  -23.6087  -17.2691 N   0  0  0  0  0  0  0  0  0  0  0  0
   28.5042  -22.2323  -15.3876 N   0  0  0  0  0  0  0  0  0  0  0  0
   27.4021  -21.6102  -14.7142 C   0  0  0  0  0  0  0  0  0  0  0  0
   27.7601  -20.1940  -14.3262 C   0  0  0  0  0  0  0  0  0  0  0  0
   27.7874  -20.0959  -12.8395 C   0  0  0  0  0  0  0  0  0  0  0  0
   26.4900  -20.5270  -12.1939 C   0  0  2  0  0  0  0  0  0  0  0  0
   25.3458  -19.9211  -12.8266 N   0  0  0  0  0  0  0  0  0  0  0  0
   26.4981  -20.3103  -10.7259 C   0  0  0  0  0  0  0  0  0  0  0  0
   26.1735  -19.2179  -10.2071 O   0  0  0  0  0  0  0  0  0  0  0  0
   28.0863  -24.3773  -16.6060 N   0  0  0  0  0  0  0  0  0  0  0  0
   26.8834  -21.3628   -9.8599 C   0  0  1  0  0  0  0  0  0  0  0  0
   26.8744  -21.2587   -8.4142 C   0  0  0  0  0  0  0  0  0  0  0  0
   27.8393  -20.1506   -8.0582 C   0  0  0  0  0  0  0  0  0  0  0  0
   28.0660  -19.9842   -6.6210 C   0  0  0  0  0  0  0  0  0  0  0  0
   27.5304  -18.9105   -5.9259 C   0  0  0  0  0  0  0  0  0  0  0  0
   27.7653  -18.7913   -4.5743 C   0  0  0  0  0  0  0  0  0  0  0  0
   28.5225  -19.7108   -3.8774 C   0  0  0  0  0  0  0  0  0  0  0  0
   29.0421  -20.7687   -4.5975 C   0  0  0  0  0  0  0  0  0  0  0  0
   28.8328  -20.9267   -5.9470 C   0  0  0  0  0  0  0  0  0  0  0  0
   25.5297  -21.0894   -7.8667 O   0  0  0  0  0  0  0  0  0  0  0  0
   24.5459  -20.4710   -8.6233 O   0  0  0  0  0  0  0  0  0  0  0  0
  2  3  1  0
  2  1  1  1
  4  3  1  0
  5  2  1  0
  6  5  2  0
  8  7  1  0
  8 10  1  0
  9  8  2  0
 11 10  1  0
 11 12  1  0
 14 13  1  6
 13 12  1  0
 14 15  1  0
 15  5  1  0
 16 18  1  0
 16 14  1  0
 17 16  2  0
 19 18  1  0
 19 20  1  1
 20 21  1  0
 21 22  2  0
 21 26  1  0
 22 23  1  0
 23 24  2  0
 25 24  1  0
 26 25  2  0
 27 28  1  0
 27 19  1  0
 29 27  2  0
M  END
$$$$
