CRF.pdb
     RDKit          3D

 29 29  0  0  1  0  0  0  0  0999 V2000
   22.2166  -20.0671  -14.1859 N   0  0  0  0  0  0  0  0  0  0  0  0
   22.2565  -21.3655  -13.5388 C   0  0  1  0  0  0  0  0  0  0  0  0
   22.0380  -22.4906  -14.5218 C   0  0  0  0  0  0  0  0  0  0  0  0
   20.4305  -22.4362  -15.3103 S   0  0  0  0  0  0  0  0  0  0  0  0
   23.5279  -21.4754  -12.8096 C   0  0  0  0  0  0  0  0  0  0  0  0
   23.7583  -22.5721  -12.2107 O   0  0  0  0  0  0  0  0  0  0  0  0
   27.2569  -19.5827  -16.5507 N   0  0  0  0  0  0  0  0  0  0  0  0
   27.1545  -18.1946  -16.2730 C   0  0  0  0  0  0  0  0  0  0  0  0
   26.5560  -17.3944  -17.0830 N   0  0  0  0  0  0  0  0  0  0  0  0
   27.7239  -17.6459  -15.0663 N   0  0  0  0  0  0  0  0  0  0  0  0
   28.2114  -18.4821  -14.0090 C   0  0  0  0  0  0  0  0  0  0  0  0
   27.2309  -19.5985  -13.7325 C   0  0  0  0  0  0  0  0  0  0  0  0
   26.6669  -19.4147  -12.3655 C   0  0  0  0  0  0  0  0  0  0  0  0
   25.6823  -20.4959  -11.9811 C   0  0  2  0  0  0  0  0  0  0  0  0
   24.4718  -20.4239  -12.7594 N   0  0  0  0  0  0  0  0  0  0  0  0
   25.4101  -20.5098  -10.5223 C   0  0  0  0  0  0  0  0  0  0  0  0
   24.3844  -19.9904  -10.0263 O   0  0  0  0  0  0  0  0  0  0  0  0
   26.5485  -16.3846  -16.8806 N   0  0  0  0  0  0  0  0  0  0  0  0
   26.3295  -21.1271   -9.6394 C   0  0  2  0  0  0  0  0  0  0  0  0
   26.4006  -20.8373   -8.2210 C   0  0  0  0  0  0  0  0  0  0  0  0
   27.6706  -21.4827   -7.7148 C   0  0  0  0  0  0  0  0  0  0  0  0
   28.0811  -21.0446   -6.3790 C   0  0  0  0  0  0  0  0  0  0  0  0
   29.1738  -20.2104   -6.1978 C   0  0  0  0  0  0  0  0  0  0  0  0
   29.5261  -19.8194   -4.9252 C   0  0  0  0  0  0  0  0  0  0  0  0
   28.8244  -20.2315   -3.8105 C   0  0  0  0  0  0  0  0  0  0  0  0
   27.7414  -21.0617   -4.0238 C   0  0  0  0  0  0  0  0  0  0  0  0
   27.3546  -21.4764   -5.2761 C   0  0  0  0  0  0  0  0  0  0  0  0
   26.2890  -19.4095   -7.9281 O   0  0  0  0  0  0  0  0  0  0  0  0
   25.5761  -18.9832   -6.8178 O   0  0  0  0  0  0  0  0  0  0  0  0
  2  3  1  0
  2  1  1  6
  4  3  1  0
  5  2  1  0
  6  5  2  0
  8  7  1  0
  8 10  1  0
  9  8  2  0
 11 10  1  0
 11 12  1  0
 14 13  1  1
 13 12  1  0
 14 15  1  0
 15  5  1  0
 16 18  1  0
 16 14  1  0
 17 16  2  0
 19 18  1  0
 19 20  1  6
 20 21  1  0
 21 22  2  0
 21 26  1  0
 22 23  1  0
 23 24  2  0
 25 24  1  0
 26 25  2  0
 27 28  1  0
 27 19  1  0
 29 27  2  0
M  END
$$$$
