CRF.pdb
     RDKit          3D

 29 29  0  0  1  0  0  0  0  0999 V2000
   27.5899  -21.6765  -15.5225 N   0  0  0  0  0  0  0  0  0  0  0  0
   27.8899  -20.3053  -15.1535 C   0  0  1  0  0  0  0  0  0  0  0  0
   27.6189  -19.3459  -16.2875 C   0  0  0  0  0  0  0  0  0  0  0  0
   28.5170  -19.7503  -17.7836 S   0  0  0  0  0  0  0  0  0  0  0  0
   27.1366  -19.9836  -13.9332 C   0  0  0  0  0  0  0  0  0  0  0  0
   27.2455  -18.8012  -13.4810 O   0  0  0  0  0  0  0  0  0  0  0  0
   20.6565  -22.2942  -11.3975 N   0  0  0  0  0  0  0  0  0  0  0  0
   20.5325  -20.8834  -11.4920 C   0  0  0  0  0  0  0  0  0  0  0  0
   19.8988  -20.2080  -10.5993 N   0  0  0  0  0  0  0  0  0  0  0  0
   21.1191  -20.1699  -12.6002 N   0  0  0  0  0  0  0  0  0  0  0  0
   21.9632  -20.8197  -13.5595 C   0  0  0  0  0  0  0  0  0  0  0  0
   23.3792  -20.3046  -13.4420 C   0  0  0  0  0  0  0  0  0  0  0  0
   24.0612  -21.0243  -12.3295 C   0  0  0  0  0  0  0  0  0  0  0  0
   25.4967  -20.5906  -12.1361 C   0  0  2  0  0  0  0  0  0  0  0  0
   26.3190  -20.9277  -13.2704 N   0  0  0  0  0  0  0  0  0  0  0  0
   26.0655  -21.0962  -10.8621 C   0  0  0  0  0  0  0  0  0  0  0  0
   26.4734  -22.2726  -10.7296 O   0  0  0  0  0  0  0  0  0  0  0  0
   19.8678  -19.1811  -10.6717 N   0  0  0  0  0  0  0  0  0  0  0  0
   26.1607  -20.2351   -9.7416 C   0  0  2  0  0  0  0  0  0  0  0  0
   26.6498  -20.6557   -8.4435 C   0  0  0  0  0  0  0  0  0  0  0  0
   27.6438  -19.6067   -7.9996 C   0  0  0  0  0  0  0  0  0  0  0  0
   28.1580  -19.7966   -6.6416 C   0  0  0  0  0  0  0  0  0  0  0  0
   29.1743  -20.7015   -6.3752 C   0  0  0  0  0  0  0  0  0  0  0  0
   29.6313  -20.8490   -5.0845 C   0  0  0  0  0  0  0  0  0  0  0  0
   29.1098  -20.1216   -4.0340 C   0  0  0  0  0  0  0  0  0  0  0  0
   28.0988  -19.2287   -4.3314 C   0  0  0  0  0  0  0  0  0  0  0  0
   27.6125  -19.0495   -5.6047 C   0  0  0  0  0  0  0  0  0  0  0  0
   25.5733  -20.9121   -7.4884 O   0  0  0  0  0  0  0  0  0  0  0  0
   25.8101  -21.6996   -6.3719 O   0  0  0  0  0  0  0  0  0  0  0  0
  2  3  1  0
  2  1  1  6
  4  3  1  0
  5  2  1  0
  6  5  2  0
  8  7  1  0
  8 10  1  0
  9  8  2  0
 11 10  1  0
 11 12  1  0
 14 13  1  6
 13 12  1  0
 14 15  1  0
 15  5  1  0
 16 18  1  0
 16 14  1  0
 17 16  2  0
 19 18  1  0
 19 20  1  6
 20 21  1  0
 21 22  2  0
 21 26  1  0
 22 23  1  0
 23 24  2  0
 25 24  1  0
 26 25  2  0
 27 28  1  0
 27 19  1  0
 29 27  2  0
M  END
$$$$
