CRF.pdb
     RDKit          3D

 29 29  0  0  1  0  0  0  0  0999 V2000
   26.4556  -18.8981  -16.3152 N   0  0  0  0  0  0  0  0  0  0  0  0
   27.2758  -19.2857  -15.1823 C   0  0  1  0  0  0  0  0  0  0  0  0
   28.4518  -18.3571  -14.9958 C   0  0  0  0  0  0  0  0  0  0  0  0
   27.9877  -16.7521  -14.3498 S   0  0  0  0  0  0  0  0  0  0  0  0
   26.4110  -19.3666  -13.9966 C   0  0  0  0  0  0  0  0  0  0  0  0
   25.6739  -18.3618  -13.7487 O   0  0  0  0  0  0  0  0  0  0  0  0
   24.0322  -24.1796  -15.8338 N   0  0  0  0  0  0  0  0  0  0  0  0
   23.7961  -24.7346  -14.5489 C   0  0  0  0  0  0  0  0  0  0  0  0
   24.1556  -25.9366  -14.2651 N   0  0  0  0  0  0  0  0  0  0  0  0
   23.1427  -23.9567  -13.5247 N   0  0  0  0  0  0  0  0  0  0  0  0
   22.8087  -22.5761  -13.7176 C   0  0  0  0  0  0  0  0  0  0  0  0
   24.0507  -21.7204  -13.6209 C   0  0  0  0  0  0  0  0  0  0  0  0
   24.3557  -21.4777  -12.1825 C   0  0  0  0  0  0  0  0  0  0  0  0
   25.5508  -20.5751  -11.9750 C   0  0  2  0  0  0  0  0  0  0  0  0
   26.3797  -20.4995  -13.1513 N   0  0  0  0  0  0  0  0  0  0  0  0
   26.3270  -20.9460  -10.7658 C   0  0  0  0  0  0  0  0  0  0  0  0
   26.9266  -22.0405  -10.6631 O   0  0  0  0  0  0  0  0  0  0  0  0
   23.9576  -26.3139  -13.3274 N   0  0  0  0  0  0  0  0  0  0  0  0
   26.4069  -20.0456   -9.6755 C   0  0  2  0  0  0  0  0  0  0  0  0
   26.8166  -20.4337   -8.3405 C   0  0  0  0  0  0  0  0  0  0  0  0
   27.7588  -19.3573   -7.8513 C   0  0  0  0  0  0  0  0  0  0  0  0
   28.2457  -19.5548   -6.4844 C   0  0  0  0  0  0  0  0  0  0  0  0
   29.3204  -20.3886   -6.2150 C   0  0  0  0  0  0  0  0  0  0  0  0
   29.7490  -20.5458   -4.9158 C   0  0  0  0  0  0  0  0  0  0  0  0
   29.1423  -19.8972   -3.8596 C   0  0  0  0  0  0  0  0  0  0  0  0
   28.0748  -19.0738   -4.1601 C   0  0  0  0  0  0  0  0  0  0  0  0
   27.6140  -18.8879   -5.4419 C   0  0  0  0  0  0  0  0  0  0  0  0
   25.6842  -20.6953   -7.4539 O   0  0  0  0  0  0  0  0  0  0  0  0
   25.8405  -21.5295   -6.3574 O   0  0  0  0  0  0  0  0  0  0  0  0
  2  3  1  0
  2  1  1  6
  4  3  1  0
  5  2  1  0
  6  5  2  0
  8  7  1  0
  8 10  1  0
  9  8  2  0
 11 10  1  0
 11 12  1  0
 14 13  1  6
 13 12  1  0
 14 15  1  0
 15  5  1  0
 16 18  1  0
 16 14  1  0
 17 16  2  0
 19 18  1  0
 19 20  1  1
 20 21  1  0
 21 22  2  0
 21 26  1  0
 22 23  1  0
 23 24  2  0
 25 24  1  0
 26 25  2  0
 27 28  1  0
 27 19  1  0
 29 27  2  0
M  END
$$$$
