CRF.pdb
     RDKit          3D

 29 29  0  0  1  0  0  0  0  0999 V2000
   26.9739  -19.3635  -16.4780 N   0  0  0  0  0  0  0  0  0  0  0  0
   27.4785  -20.0714  -15.3159 C   0  0  1  0  0  0  0  0  0  0  0  0
   28.9362  -19.7697  -15.0629 C   0  0  0  0  0  0  0  0  0  0  0  0
   29.2502  -18.0384  -14.7273 S   0  0  0  0  0  0  0  0  0  0  0  0
   26.6152  -19.7474  -14.1713 C   0  0  0  0  0  0  0  0  0  0  0  0
   26.1676  -18.5603  -14.1022 O   0  0  0  0  0  0  0  0  0  0  0  0
   19.3386  -20.9111  -10.3462 N   0  0  0  0  0  0  0  0  0  0  0  0
   19.6997  -21.2254  -11.6824 C   0  0  0  0  0  0  0  0  0  0  0  0
   18.8364  -21.1808  -12.6350 N   0  0  0  0  0  0  0  0  0  0  0  0
   21.0539  -21.6046  -12.0044 N   0  0  0  0  0  0  0  0  0  0  0  0
   22.0941  -21.6145  -11.0181 C   0  0  0  0  0  0  0  0  0  0  0  0
   23.0416  -20.4596  -11.2477 C   0  0  0  0  0  0  0  0  0  0  0  0
   23.9814  -20.8207  -12.3464 C   0  0  0  0  0  0  0  0  0  0  0  0
   25.4053  -20.3927  -12.0720 C   0  0  2  0  0  0  0  0  0  0  0  0
   26.2809  -20.6943  -13.1760 N   0  0  0  0  0  0  0  0  0  0  0  0
   25.9142  -20.9372  -10.7887 C   0  0  0  0  0  0  0  0  0  0  0  0
   26.1255  -22.1591  -10.6151 O   0  0  0  0  0  0  0  0  0  0  0  0
   19.1056  -21.5046  -13.5749 N   0  0  0  0  0  0  0  0  0  0  0  0
   26.1778  -20.0622   -9.7067 C   0  0  1  0  0  0  0  0  0  0  0  0
   26.5935  -20.5108   -8.3926 C   0  0  0  0  0  0  0  0  0  0  0  0
   27.5968  -19.4971   -7.8911 C   0  0  0  0  0  0  0  0  0  0  0  0
   28.0255  -19.7041   -6.5062 C   0  0  0  0  0  0  0  0  0  0  0  0
   27.5714  -18.8881   -5.4811 C   0  0  0  0  0  0  0  0  0  0  0  0
   27.9969  -19.1173   -4.1916 C   0  0  0  0  0  0  0  0  0  0  0  0
   28.8683  -20.1404   -3.8775 C   0  0  0  0  0  0  0  0  0  0  0  0
   29.3025  -20.9355   -4.9201 C   0  0  0  0  0  0  0  0  0  0  0  0
   28.9036  -20.7426   -6.2214 C   0  0  0  0  0  0  0  0  0  0  0  0
   25.4669  -20.7444   -7.4910 O   0  0  0  0  0  0  0  0  0  0  0  0
   24.2276  -20.1896   -7.7719 O   0  0  0  0  0  0  0  0  0  0  0  0
  2  3  1  0
  2  1  1  6
  4  3  1  0
  5  2  1  0
  6  5  2  0
  8  7  1  0
  8 10  1  0
  9  8  2  0
 11 10  1  0
 11 12  1  0
 14 13  1  6
 13 12  1  0
 14 15  1  0
 15  5  1  0
 16 18  1  0
 16 14  1  0
 17 16  2  0
 19 18  1  0
 19 20  1  1
 20 21  1  0
 21 22  2  0
 21 26  1  0
 22 23  1  0
 23 24  2  0
 25 24  1  0
 26 25  2  0
 27 28  1  0
 27 19  1  0
 29 27  2  0
M  END
$$$$
