CRF.pdb
     RDKit          3D

 29 29  0  0  1  0  0  0  0  0999 V2000
   27.0983  -15.2344  -17.4165 N   0  0  0  0  0  0  0  0  0  0  0  0
   26.3234  -15.2228  -16.1895 C   0  0  1  0  0  0  0  0  0  0  0  0
   25.3370  -14.0799  -16.1583 C   0  0  0  0  0  0  0  0  0  0  0  0
   26.0782  -12.5215  -15.6781 S   0  0  0  0  0  0  0  0  0  0  0  0
   25.6866  -16.5387  -16.0371 C   0  0  0  0  0  0  0  0  0  0  0  0
   25.3409  -17.1407  -17.1013 O   0  0  0  0  0  0  0  0  0  0  0  0
   28.9002  -21.9972  -11.2147 N   0  0  0  0  0  0  0  0  0  0  0  0
   27.5068  -21.7308  -11.2615 C   0  0  0  0  0  0  0  0  0  0  0  0
   26.7201  -22.1259  -10.3236 N   0  0  0  0  0  0  0  0  0  0  0  0
   26.9375  -21.0052  -12.3708 N   0  0  0  0  0  0  0  0  0  0  0  0
   27.7552  -20.3879  -13.3735 C   0  0  0  0  0  0  0  0  0  0  0  0
   26.8879  -19.7147  -14.4122 C   0  0  0  0  0  0  0  0  0  0  0  0
   25.5762  -19.3722  -13.7935 C   0  0  0  0  0  0  0  0  0  0  0  0
   24.7719  -18.3912  -14.6162 C   0  0  2  0  0  0  0  0  0  0  0  0
   25.4562  -17.1330  -14.7751 N   0  0  0  0  0  0  0  0  0  0  0  0
   23.3956  -18.2174  -14.0891 C   0  0  0  0  0  0  0  0  0  0  0  0
   23.1561  -17.5898  -13.0324 O   0  0  0  0  0  0  0  0  0  0  0  0
   25.7238  -21.8672  -10.3589 N   0  0  0  0  0  0  0  0  0  0  0  0
   22.2970  -18.7727  -14.7895 C   0  0  1  0  0  0  0  0  0  0  0  0
   20.9137  -18.5676  -14.4085 C   0  0  0  0  0  0  0  0  0  0  0  0
   20.6243  -17.0988  -14.6192 C   0  0  0  0  0  0  0  0  0  0  0  0
   19.2673  -16.6903  -14.2497 C   0  0  0  0  0  0  0  0  0  0  0  0
   18.3027  -16.4375  -15.2132 C   0  0  0  0  0  0  0  0  0  0  0  0
   17.0375  -16.0575  -14.8242 C   0  0  0  0  0  0  0  0  0  0  0  0
   16.6895  -15.9171  -13.4961 C   0  0  0  0  0  0  0  0  0  0  0  0
   17.6720  -16.1759  -12.5605 C   0  0  0  0  0  0  0  0  0  0  0  0
   18.9472  -16.5576  -12.9041 C   0  0  0  0  0  0  0  0  0  0  0  0
   19.9956  -19.4706  -15.1002 O   0  0  0  0  0  0  0  0  0  0  0  0
   18.8307  -19.8879  -14.4744 O   0  0  0  0  0  0  0  0  0  0  0  0
  2  3  1  0
  2  1  1  6
  4  3  1  0
  5  2  1  0
  6  5  2  0
  8  7  1  0
  8 10  1  0
  9  8  2  0
 11 10  1  0
 11 12  1  0
 14 13  1  1
 13 12  1  0
 14 15  1  0
 15  5  1  0
 16 18  1  0
 16 14  1  0
 17 16  2  0
 19 18  1  0
 19 20  1  6
 20 21  1  0
 21 22  2  0
 21 26  1  0
 22 23  1  0
 23 24  2  0
 25 24  1  0
 26 25  2  0
 27 28  1  0
 27 19  1  0
 29 27  2  0
M  END
$$$$
