CRF.pdb
     RDKit          3D

 29 29  0  0  1  0  0  0  0  0999 V2000
   27.7125  -21.5908  -16.5444 N   0  0  0  0  0  0  0  0  0  0  0  0
   27.6650  -22.0129  -15.1567 C   0  0  1  0  0  0  0  0  0  0  0  0
   28.6841  -23.0870  -14.8606 C   0  0  0  0  0  0  0  0  0  0  0  0
   29.5975  -23.6114  -16.3095 S   0  0  0  0  0  0  0  0  0  0  0  0
   27.8196  -20.8217  -14.3097 C   0  0  0  0  0  0  0  0  0  0  0  0
   28.3884  -19.8118  -14.8302 O   0  0  0  0  0  0  0  0  0  0  0  0
   23.6453  -18.5957  -17.6299 N   0  0  0  0  0  0  0  0  0  0  0  0
   23.3859  -19.5145  -16.5797 C   0  0  0  0  0  0  0  0  0  0  0  0
   22.8542  -20.6623  -16.8134 N   0  0  0  0  0  0  0  0  0  0  0  0
   23.7154  -19.1789  -15.2159 N   0  0  0  0  0  0  0  0  0  0  0  0
   24.2968  -17.9166  -14.8643 C   0  0  0  0  0  0  0  0  0  0  0  0
   25.5833  -18.1295  -14.1003 C   0  0  0  0  0  0  0  0  0  0  0  0
   25.4188  -19.3068  -13.2017 C   0  0  0  0  0  0  0  0  0  0  0  0
   26.6717  -19.6359  -12.4219 C   0  0  2  0  0  0  0  0  0  0  0  0
   27.3654  -20.7731  -12.9716 N   0  0  0  0  0  0  0  0  0  0  0  0
   26.4012  -19.7927  -10.9713 C   0  0  0  0  0  0  0  0  0  0  0  0
   25.6521  -19.0125  -10.3404 O   0  0  0  0  0  0  0  0  0  0  0  0
   22.6917  -21.3114  -16.0305 N   0  0  0  0  0  0  0  0  0  0  0  0
   27.0009  -20.8559  -10.2530 C   0  0  2  0  0  0  0  0  0  0  0  0
   27.1037  -20.8927   -8.8077 C   0  0  0  0  0  0  0  0  0  0  0  0
   28.1875  -19.9087   -8.4298 C   0  0  0  0  0  0  0  0  0  0  0  0
   28.4033  -19.7704   -6.9880 C   0  0  0  0  0  0  0  0  0  0  0  0
   27.6543  -18.8845   -6.2283 C   0  0  0  0  0  0  0  0  0  0  0  0
   27.8868  -18.7858   -4.8746 C   0  0  0  0  0  0  0  0  0  0  0  0
   28.8483  -19.5441   -4.2381 C   0  0  0  0  0  0  0  0  0  0  0  0
   29.5775  -20.4169   -5.0217 C   0  0  0  0  0  0  0  0  0  0  0  0
   29.3788  -20.5476   -6.3757 C   0  0  0  0  0  0  0  0  0  0  0  0
   25.8219  -20.6663   -8.1426 O   0  0  0  0  0  0  0  0  0  0  0  0
   25.3528  -21.5806   -7.2117 O   0  0  0  0  0  0  0  0  0  0  0  0
  2  3  1  0
  2  1  1  6
  4  3  1  0
  5  2  1  0
  6  5  2  0
  8  7  1  0
  8 10  1  0
  9  8  2  0
 11 10  1  0
 11 12  1  0
 14 13  1  6
 13 12  1  0
 14 15  1  0
 15  5  1  0
 16 18  1  0
 16 14  1  0
 17 16  2  0
 19 18  1  0
 19 20  1  6
 20 21  1  0
 21 22  2  0
 21 26  1  0
 22 23  1  0
 23 24  2  0
 25 24  1  0
 26 25  2  0
 27 28  1  0
 27 19  1  0
 29 27  2  0
M  END
$$$$
