RFQ.pdb
     RDKit          3D

 32 32  0  0  1  0  0  0  0  0999 V2000
   30.3102  -22.7140  -18.6562 N   0  0  0  0  0  0  0  0  0  0  0  0
   30.1743  -22.4819  -20.0474 C   0  0  0  0  0  0  0  0  0  0  0  0
   30.9394  -23.1615  -20.8458 N   0  0  0  0  0  0  0  0  0  0  0  0
   29.2362  -21.5415  -20.5337 N   0  0  0  0  0  0  0  0  0  0  0  0
   28.1727  -21.0733  -19.6809 C   0  0  0  0  0  0  0  0  0  0  0  0
   27.1978  -22.1859  -19.3693 C   0  0  0  0  0  0  0  0  0  0  0  0
   26.5793  -21.9764  -18.0382 C   0  0  0  0  0  0  0  0  0  0  0  0
   27.4075  -22.3689  -16.8681 C   0  0  2  0  0  0  0  0  0  0  0  0
   28.0573  -23.6236  -16.9524 N   0  0  0  0  0  0  0  0  0  0  0  0
   26.5205  -22.3902  -15.6582 C   0  0  0  0  0  0  0  0  0  0  0  0
   25.6650  -23.3065  -15.5020 O   0  0  0  0  0  0  0  0  0  0  0  0
   31.0786  -22.9453  -21.8448 N   0  0  0  0  0  0  0  0  0  0  0  0
   26.6034  -21.3966  -14.6524 C   0  0  2  0  0  0  0  0  0  0  0  0
   25.7968  -21.3807  -13.4580 C   0  0  0  0  0  0  0  0  0  0  0  0
   26.4397  -20.4435  -12.4534 C   0  0  0  0  0  0  0  0  0  0  0  0
   25.6349  -20.4424  -11.2091 C   0  0  0  0  0  0  0  0  0  0  0  0
   26.0761  -21.1359  -10.1043 C   0  0  0  0  0  0  0  0  0  0  0  0
   25.3940  -21.1901   -8.9081 C   0  0  0  0  0  0  0  0  0  0  0  0
   24.2059  -20.5185   -8.8000 C   0  0  0  0  0  0  0  0  0  0  0  0
   23.7288  -19.8130   -9.8800 C   0  0  0  0  0  0  0  0  0  0  0  0
   24.4320  -19.7734  -11.0712 C   0  0  0  0  0  0  0  0  0  0  0  0
   24.4211  -20.9407  -13.8054 O   0  0  0  0  0  0  0  0  0  0  0  0
   24.2373  -19.8354  -14.4210 N   0  0  0  0  0  0  0  0  0  0  0  0
   22.3752  -24.6705  -15.9544 C   0  0  0  0  0  0  0  0  0  0  0  0
   21.9369  -23.5788  -16.7694 O   0  0  0  0  0  0  0  0  0  0  0  0
   22.0664  -23.7437  -17.9946 C   0  0  0  0  0  0  0  0  0  0  0  0
   21.4033  -22.4192  -16.0920 C   0  0  0  0  0  0  0  0  0  0  0  0
   21.2677  -22.3666  -14.6326 C   0  0  2  0  0  0  0  0  0  0  0  0
   21.9039  -21.2595  -13.8750 N   0  0  0  0  0  0  0  0  0  0  0  0
   23.2682  -21.6798  -13.4940 C   0  0  0  0  0  0  0  0  0  0  0  0
   21.1397  -20.8893  -12.6784 O   0  0  0  0  0  0  0  0  0  0  0  0
   21.1635  -21.5300  -11.6047 O   0  0  0  0  0  0  0  0  0  0  0  0
  2  1  1  0
  2  3  2  0
  4  2  1  0
  5  4  1  0
  6  5  1  0
  7  6  1  0
  8  7  1  0
  8  9  1  6
 10 11  2  0
 10  8  1  0
 12 10  1  0
 13 21  1  0
 13 12  1  0
 13 14  1  1
 15 14  1  0
 16 15  2  0
 17 16  1  0
 18 19  1  0
 18 17  2  0
 19 20  2  0
 20 15  1  0
 21 29  1  0
 22 21  2  0
 23 24  1  0
 24 25  2  0
 24 26  1  0
 26 27  1  0
 28 27  1  6
 28 30  1  0
 29 28  1  0
 30 31  2  0
 30 32  1  0
M  END
$$$$
