RFQ.pdb
     RDKit          3D

 32 32  0  0  1  0  0  0  0  0999 V2000
   27.3698  -22.8893  -21.7330 N   0  0  0  0  0  0  0  0  0  0  0  0
   27.1241  -21.5146  -21.9727 C   0  0  0  0  0  0  0  0  0  0  0  0
   26.6070  -21.1889  -23.1179 N   0  0  0  0  0  0  0  0  0  0  0  0
   27.4361  -20.5442  -20.9919 N   0  0  0  0  0  0  0  0  0  0  0  0
   27.8859  -20.9546  -19.6855 C   0  0  0  0  0  0  0  0  0  0  0  0
   26.7143  -21.2391  -18.7734 C   0  0  0  0  0  0  0  0  0  0  0  0
   26.9713  -20.7016  -17.4156 C   0  0  0  0  0  0  0  0  0  0  0  0
   27.6173  -21.6372  -16.4583 C   0  0  2  0  0  0  0  0  0  0  0  0
   27.9186  -22.9296  -16.9509 N   0  0  0  0  0  0  0  0  0  0  0  0
   26.7053  -21.7957  -15.2775 C   0  0  0  0  0  0  0  0  0  0  0  0
   25.7484  -22.6199  -15.3081 O   0  0  0  0  0  0  0  0  0  0  0  0
   26.4348  -20.2197  -23.4258 N   0  0  0  0  0  0  0  0  0  0  0  0
   26.8759  -21.0377  -14.0935 C   0  0  2  0  0  0  0  0  0  0  0  0
   26.0117  -21.1225  -12.9431 C   0  0  0  0  0  0  0  0  0  0  0  0
   26.6665  -20.3837  -11.7914 C   0  0  0  0  0  0  0  0  0  0  0  0
   25.7491  -20.3917  -10.6277 C   0  0  0  0  0  0  0  0  0  0  0  0
   24.7597  -19.4395  -10.5256 C   0  0  0  0  0  0  0  0  0  0  0  0
   23.8640  -19.3709   -9.4805 C   0  0  0  0  0  0  0  0  0  0  0  0
   23.9536  -20.2994   -8.4784 C   0  0  0  0  0  0  0  0  0  0  0  0
   24.9278  -21.2682   -8.5413 C   0  0  0  0  0  0  0  0  0  0  0  0
   25.8162  -21.3167   -9.6013 C   0  0  0  0  0  0  0  0  0  0  0  0
   24.6905  -20.5340  -13.2824 O   0  0  0  0  0  0  0  0  0  0  0  0
   24.6244  -19.3918  -13.8528 N   0  0  0  0  0  0  0  0  0  0  0  0
   20.3444  -22.5710  -16.7235 C   0  0  0  0  0  0  0  0  0  0  0  0
   19.5664  -21.6024  -16.0133 O   0  0  0  0  0  0  0  0  0  0  0  0
   18.4085  -21.4373  -16.4342 C   0  0  0  0  0  0  0  0  0  0  0  0
   20.2007  -20.9278  -14.9038 C   0  0  0  0  0  0  0  0  0  0  0  0
   21.5687  -21.2460  -14.4813 C   0  0  1  0  0  0  0  0  0  0  0  0
   22.1525  -20.5574  -13.3025 N   0  0  0  0  0  0  0  0  0  0  0  0
   23.4665  -21.1668  -13.0108 C   0  0  0  0  0  0  0  0  0  0  0  0
   21.2867  -20.6407  -12.1209 O   0  0  0  0  0  0  0  0  0  0  0  0
   20.4150  -19.7930  -11.8287 O   0  0  0  0  0  0  0  0  0  0  0  0
  2  1  1  0
  2  3  2  0
  4  2  1  0
  5  4  1  0
  6  5  1  0
  7  6  1  0
  8  7  1  0
  8  9  1  6
 10 11  2  0
 10  8  1  0
 12 10  1  0
 13 21  1  0
 13 12  1  0
 13 14  1  1
 15 14  1  0
 16 15  2  0
 17 16  1  0
 18 19  1  0
 18 17  2  0
 19 20  2  0
 20 15  1  0
 21 29  1  0
 22 21  2  0
 23 24  1  0
 24 25  2  0
 24 26  1  0
 26 27  1  0
 28 27  1  6
 28 30  1  0
 29 28  1  0
 30 31  2  0
 30 32  1  0
M  END
$$$$
