RFQ.pdb
     RDKit          3D

 32 32  0  0  1  0  0  0  0  0999 V2000
   26.9890  -16.6529  -19.6339 N   0  0  0  0  0  0  0  0  0  0  0  0
   25.8609  -17.3020  -19.0737 C   0  0  0  0  0  0  0  0  0  0  0  0
   24.6949  -16.7781  -19.2988 N   0  0  0  0  0  0  0  0  0  0  0  0
   26.0146  -18.4761  -18.2998 N   0  0  0  0  0  0  0  0  0  0  0  0
   27.2834  -19.1590  -18.2655 C   0  0  0  0  0  0  0  0  0  0  0  0
   27.1052  -20.6451  -18.4780 C   0  0  0  0  0  0  0  0  0  0  0  0
   26.5616  -21.2828  -17.2548 C   0  0  0  0  0  0  0  0  0  0  0  0
   27.5422  -21.5472  -16.1696 C   0  0  2  0  0  0  0  0  0  0  0  0
   28.3738  -22.6803  -16.3382 N   0  0  0  0  0  0  0  0  0  0  0  0
   26.7807  -21.7216  -14.8887 C   0  0  0  0  0  0  0  0  0  0  0  0
   26.3001  -22.8462  -14.5723 O   0  0  0  0  0  0  0  0  0  0  0  0
   23.8128  -17.1188  -18.8867 N   0  0  0  0  0  0  0  0  0  0  0  0
   26.5708  -20.6465  -13.9910 C   0  0  2  0  0  0  0  0  0  0  0  0
   25.8536  -20.7563  -12.7457 C   0  0  0  0  0  0  0  0  0  0  0  0
   26.4722  -19.7979  -11.7457 C   0  0  0  0  0  0  0  0  0  0  0  0
   27.7447  -20.3721  -11.2488 C   0  0  0  0  0  0  0  0  0  0  0  0
   28.8913  -20.2579  -12.0027 C   0  0  0  0  0  0  0  0  0  0  0  0
   30.1160  -20.7606  -11.6198 C   0  0  0  0  0  0  0  0  0  0  0  0
   30.2104  -21.4145  -10.4207 C   0  0  0  0  0  0  0  0  0  0  0  0
   29.0888  -21.5509   -9.6364 C   0  0  0  0  0  0  0  0  0  0  0  0
   27.8695  -21.0373  -10.0424 C   0  0  0  0  0  0  0  0  0  0  0  0
   24.4204  -20.4436  -12.9800 O   0  0  0  0  0  0  0  0  0  0  0  0
   24.0923  -19.4354  -13.6943 N   0  0  0  0  0  0  0  0  0  0  0  0
   22.8105  -25.5251  -15.0219 C   0  0  0  0  0  0  0  0  0  0  0  0
   21.5085  -24.9380  -15.1125 O   0  0  0  0  0  0  0  0  0  0  0  0
   20.6517  -25.6296  -15.6893 C   0  0  0  0  0  0  0  0  0  0  0  0
   21.3330  -23.6241  -14.5371 C   0  0  0  0  0  0  0  0  0  0  0  0
   22.3963  -22.9624  -13.7739 C   0  0  1  0  0  0  0  0  0  0  0  0
   22.1737  -21.5965  -13.2359 N   0  0  0  0  0  0  0  0  0  0  0  0
   23.3640  -21.2046  -12.4533 C   0  0  0  0  0  0  0  0  0  0  0  0
   20.9721  -21.5147  -12.3979 O   0  0  0  0  0  0  0  0  0  0  0  0
   19.8100  -21.4042  -12.8464 O   0  0  0  0  0  0  0  0  0  0  0  0
  2  1  1  0
  2  3  2  0
  4  2  1  0
  5  4  1  0
  6  5  1  0
  7  6  1  0
  8  7  1  0
  8  9  1  6
 10 11  2  0
 10  8  1  0
 12 10  1  0
 13 21  1  0
 13 12  1  0
 13 14  1  6
 15 14  1  0
 16 15  2  0
 17 16  1  0
 18 19  1  0
 18 17  2  0
 19 20  2  0
 20 15  1  0
 21 29  1  0
 22 21  2  0
 23 24  1  0
 24 25  2  0
 24 26  1  0
 26 27  1  0
 28 27  1  6
 28 30  1  0
 29 28  1  0
 30 31  2  0
 30 32  1  0
M  END
$$$$
