RFQ.pdb
     RDKit          3D

 32 32  0  0  1  0  0  0  0  0999 V2000
   20.7887  -20.1941  -12.8709 N   0  0  0  0  0  0  0  0  0  0  0  0
   21.0979  -20.4510  -14.2296 C   0  0  0  0  0  0  0  0  0  0  0  0
   20.4555  -21.4126  -14.8190 N   0  0  0  0  0  0  0  0  0  0  0  0
   22.0729  -19.6807  -14.9057 N   0  0  0  0  0  0  0  0  0  0  0  0
   23.4492  -19.7201  -14.4796 C   0  0  0  0  0  0  0  0  0  0  0  0
   23.8460  -21.1161  -14.0564 C   0  0  0  0  0  0  0  0  0  0  0  0
   24.2139  -21.1381  -12.6202 C   0  0  0  0  0  0  0  0  0  0  0  0
   25.4525  -20.4018  -12.2557 C   0  0  2  0  0  0  0  0  0  0  0  0
   26.5706  -20.5980  -13.1014 N   0  0  0  0  0  0  0  0  0  0  0  0
   25.8466  -20.8151  -10.8683 C   0  0  0  0  0  0  0  0  0  0  0  0
   25.5433  -21.9587  -10.4256 O   0  0  0  0  0  0  0  0  0  0  0  0
   20.5576  -21.6572  -15.8158 N   0  0  0  0  0  0  0  0  0  0  0  0
   26.5662  -19.9518  -10.0067 C   0  0  2  0  0  0  0  0  0  0  0  0
   26.9150  -20.2693   -8.6447 C   0  0  0  0  0  0  0  0  0  0  0  0
   27.7997  -19.1631   -8.1021 C   0  0  0  0  0  0  0  0  0  0  0  0
   28.2655  -19.5375   -6.7461 C   0  0  0  0  0  0  0  0  0  0  0  0
   28.9230  -20.7314   -6.5502 C   0  0  0  0  0  0  0  0  0  0  0  0
   29.3900  -21.1599   -5.3265 C   0  0  0  0  0  0  0  0  0  0  0  0
   29.1943  -20.3592   -4.2333 C   0  0  0  0  0  0  0  0  0  0  0  0
   28.5420  -19.1579   -4.3848 C   0  0  0  0  0  0  0  0  0  0  0  0
   28.0819  -18.7490   -5.6244 C   0  0  0  0  0  0  0  0  0  0  0  0
   25.6718  -20.4102   -7.8439 O   0  0  0  0  0  0  0  0  0  0  0  0
   24.7955  -19.4792   -7.8506 N   0  0  0  0  0  0  0  0  0  0  0  0
   20.9807  -23.1479   -7.4610 C   0  0  0  0  0  0  0  0  0  0  0  0
   21.1272  -23.3894   -6.0581 O   0  0  0  0  0  0  0  0  0  0  0  0
   20.0658  -23.5563   -5.4330 C   0  0  0  0  0  0  0  0  0  0  0  0
   22.4707  -23.4089   -5.5261 C   0  0  0  0  0  0  0  0  0  0  0  0
   23.6303  -23.0109   -6.3311 C   0  0  1  0  0  0  0  0  0  0  0  0
   24.1817  -21.6389   -6.1970 N   0  0  0  0  0  0  0  0  0  0  0  0
   25.3816  -21.5336   -7.0526 C   0  0  0  0  0  0  0  0  0  0  0  0
   24.5235  -21.3069   -4.8093 O   0  0  0  0  0  0  0  0  0  0  0  0
   25.6430  -21.5164   -4.2930 O   0  0  0  0  0  0  0  0  0  0  0  0
  2  1  1  0
  2  3  2  0
  4  2  1  0
  5  4  1  0
  6  5  1  0
  7  6  1  0
  8  7  1  0
  8  9  1  6
 10 11  2  0
 10  8  1  0
 12 10  1  0
 13 21  1  0
 13 12  1  0
 13 14  1  6
 15 14  1  0
 16 15  2  0
 17 16  1  0
 18 19  1  0
 18 17  2  0
 19 20  2  0
 20 15  1  0
 21 29  1  0
 22 21  2  0
 23 24  1  0
 24 25  2  0
 24 26  1  0
 26 27  1  0
 28 27  1  6
 28 30  1  0
 29 28  1  0
 30 31  2  0
 30 32  1  0
M  END
$$$$
