RFQ.pdb
     RDKit          3D

 32 32  0  0  1  0  0  0  0  0999 V2000
   29.3081  -27.7217  -15.5008 N   0  0  0  0  0  0  0  0  0  0  0  0
   28.8693  -28.2188  -16.7530 C   0  0  0  0  0  0  0  0  0  0  0  0
   28.6416  -29.4933  -16.8455 N   0  0  0  0  0  0  0  0  0  0  0  0
   28.6908  -27.3472  -17.8528 N   0  0  0  0  0  0  0  0  0  0  0  0
   28.1860  -26.0133  -17.6442 C   0  0  0  0  0  0  0  0  0  0  0  0
   26.7962  -25.8633  -18.2199 C   0  0  0  0  0  0  0  0  0  0  0  0
   26.2916  -24.4857  -18.0056 C   0  0  0  0  0  0  0  0  0  0  0  0
   26.0220  -24.1050  -16.5944 C   0  0  2  0  0  0  0  0  0  0  0  0
   24.9008  -24.7158  -15.9833 N   0  0  0  0  0  0  0  0  0  0  0  0
   25.8204  -22.6190  -16.5453 C   0  0  0  0  0  0  0  0  0  0  0  0
   24.6923  -22.1126  -16.8032 O   0  0  0  0  0  0  0  0  0  0  0  0
   28.3364  -29.9704  -17.7076 N   0  0  0  0  0  0  0  0  0  0  0  0
   26.8729  -21.7320  -16.2119 C   0  0  2  0  0  0  0  0  0  0  0  0
   26.7500  -20.2961  -16.1938 C   0  0  0  0  0  0  0  0  0  0  0  0
   27.9533  -19.7172  -15.4742 C   0  0  0  0  0  0  0  0  0  0  0  0
   27.8428  -18.2395  -15.4584 C   0  0  0  0  0  0  0  0  0  0  0  0
   28.4965  -17.4909  -16.4114 C   0  0  0  0  0  0  0  0  0  0  0  0
   28.4500  -16.1149  -16.4727 C   0  0  0  0  0  0  0  0  0  0  0  0
   27.7132  -15.4415  -15.5358 C   0  0  0  0  0  0  0  0  0  0  0  0
   27.0443  -16.1510  -14.5658 C   0  0  0  0  0  0  0  0  0  0  0  0
   27.1062  -17.5330  -14.5247 C   0  0  0  0  0  0  0  0  0  0  0  0
   26.6628  -19.7972  -17.5904 O   0  0  0  0  0  0  0  0  0  0  0  0
   27.4596  -20.2472  -18.4832 N   0  0  0  0  0  0  0  0  0  0  0  0
   21.3386  -18.3303  -20.2887 C   0  0  0  0  0  0  0  0  0  0  0  0
   22.0980  -19.4820  -20.6694 O   0  0  0  0  0  0  0  0  0  0  0  0
   21.4526  -20.3832  -21.2318 C   0  0  0  0  0  0  0  0  0  0  0  0
   23.5098  -19.4760  -20.3606 C   0  0  0  0  0  0  0  0  0  0  0  0
   24.1679  -18.3118  -19.7585 C   0  0  2  0  0  0  0  0  0  0  0  0
   25.6106  -18.3798  -19.4142 N   0  0  0  0  0  0  0  0  0  0  0  0
   25.7340  -18.8323  -18.0131 C   0  0  0  0  0  0  0  0  0  0  0  0
   26.2880  -17.0899  -19.5871 O   0  0  0  0  0  0  0  0  0  0  0  0
   26.0390  -16.0700  -18.9077 O   0  0  0  0  0  0  0  0  0  0  0  0
  2  1  1  0
  2  3  2  0
  4  2  1  0
  5  4  1  0
  6  5  1  0
  7  6  1  0
  8  7  1  0
  8  9  1  6
 10 11  2  0
 10  8  1  0
 12 10  1  0
 13 21  1  0
 13 12  1  0
 13 14  1  1
 15 14  1  0
 16 15  2  0
 17 16  1  0
 18 19  1  0
 18 17  2  0
 19 20  2  0
 20 15  1  0
 21 29  1  0
 22 21  2  0
 23 24  1  0
 24 25  2  0
 24 26  1  0
 26 27  1  0
 28 27  1  6
 28 30  1  0
 29 28  1  0
 30 31  2  0
 30 32  1  0
M  END
$$$$
