RFQ.pdb
     RDKit          3D

 32 32  0  0  1  0  0  0  0  0999 V2000
   27.2023  -27.9167  -19.2644 N   0  0  0  0  0  0  0  0  0  0  0  0
   26.2862  -26.8358  -19.2444 C   0  0  0  0  0  0  0  0  0  0  0  0
   26.1785  -26.1215  -20.3227 N   0  0  0  0  0  0  0  0  0  0  0  0
   25.5245  -26.5571  -18.0855 N   0  0  0  0  0  0  0  0  0  0  0  0
   25.2260  -25.1934  -17.7267 C   0  0  0  0  0  0  0  0  0  0  0  0
   26.3619  -24.5782  -16.9414 C   0  0  0  0  0  0  0  0  0  0  0  0
   25.9435  -24.3144  -15.5437 C   0  0  0  0  0  0  0  0  0  0  0  0
   25.2361  -23.0284  -15.3093 C   0  0  2  0  0  0  0  0  0  0  0  0
   25.8514  -21.8686  -15.8384 N   0  0  0  0  0  0  0  0  0  0  0  0
   25.0956  -22.8396  -13.8275 C   0  0  0  0  0  0  0  0  0  0  0  0
   24.5884  -23.7452  -13.1074 O   0  0  0  0  0  0  0  0  0  0  0  0
   25.5600  -25.3017  -20.4201 N   0  0  0  0  0  0  0  0  0  0  0  0
   25.5201  -21.6532  -13.1810 C   0  0  2  0  0  0  0  0  0  0  0  0
   25.3537  -21.3910  -11.7736 C   0  0  0  0  0  0  0  0  0  0  0  0
   26.3789  -20.3562  -11.3504 C   0  0  0  0  0  0  0  0  0  0  0  0
   26.2413  -20.1053   -9.8965 C   0  0  0  0  0  0  0  0  0  0  0  0
   26.8338  -20.9584   -8.9924 C   0  0  0  0  0  0  0  0  0  0  0  0
   26.7579  -20.8027   -7.6252 C   0  0  0  0  0  0  0  0  0  0  0  0
   26.0543  -19.7403   -7.1245 C   0  0  0  0  0  0  0  0  0  0  0  0
   25.4468  -18.8637   -7.9930 C   0  0  0  0  0  0  0  0  0  0  0  0
   25.5371  -19.0410   -9.3625 C   0  0  0  0  0  0  0  0  0  0  0  0
   23.9688  -20.9129  -11.5278 O   0  0  0  0  0  0  0  0  0  0  0  0
   23.4701  -19.9891  -12.2574 N   0  0  0  0  0  0  0  0  0  0  0  0
   19.9326  -23.6209   -7.2995 C   0  0  0  0  0  0  0  0  0  0  0  0
   19.0687  -22.7698   -8.0593 O   0  0  0  0  0  0  0  0  0  0  0  0
   17.8644  -22.8272   -7.7570 C   0  0  0  0  0  0  0  0  0  0  0  0
   19.6781  -21.9514   -9.0828 C   0  0  0  0  0  0  0  0  0  0  0  0
   21.1252  -21.9562   -9.3212 C   0  0  2  0  0  0  0  0  0  0  0  0
   21.6874  -21.1641  -10.4441 N   0  0  0  0  0  0  0  0  0  0  0  0
   23.1403  -21.4226  -10.5147 C   0  0  0  0  0  0  0  0  0  0  0  0
   21.4398  -19.7258  -10.2927 O   0  0  0  0  0  0  0  0  0  0  0  0
   22.2014  -18.9431   -9.6835 O   0  0  0  0  0  0  0  0  0  0  0  0
  2  1  1  0
  2  3  2  0
  4  2  1  0
  5  4  1  0
  6  5  1  0
  7  6  1  0
  8  7  1  0
  8  9  1  1
 10 11  2  0
 10  8  1  0
 12 10  1  0
 13 21  1  0
 13 12  1  0
 13 14  1  1
 15 14  1  0
 16 15  2  0
 17 16  1  0
 18 19  1  0
 18 17  2  0
 19 20  2  0
 20 15  1  0
 21 29  1  0
 22 21  2  0
 23 24  1  0
 24 25  2  0
 24 26  1  0
 26 27  1  0
 28 27  1  6
 28 30  1  0
 29 28  1  0
 30 31  2  0
 30 32  1  0
M  END
$$$$
