RFQ.pdb
     RDKit          3D

 32 32  0  0  1  0  0  0  0  0999 V2000
   27.5393  -27.9173  -20.8311 N   0  0  0  0  0  0  0  0  0  0  0  0
   27.0939  -26.6696  -21.3337 C   0  0  0  0  0  0  0  0  0  0  0  0
   27.4986  -26.3210  -22.5167 N   0  0  0  0  0  0  0  0  0  0  0  0
   26.2408  -25.8447  -20.5638 N   0  0  0  0  0  0  0  0  0  0  0  0
   25.7098  -26.3220  -19.3116 C   0  0  0  0  0  0  0  0  0  0  0  0
   26.4481  -25.7118  -18.1420 C   0  0  0  0  0  0  0  0  0  0  0  0
   25.5703  -24.7673  -17.4099 C   0  0  0  0  0  0  0  0  0  0  0  0
   25.9982  -23.3440  -17.4178 C   0  0  2  0  0  0  0  0  0  0  0  0
   27.3940  -23.1086  -17.3992 N   0  0  0  0  0  0  0  0  0  0  0  0
   25.4023  -22.6737  -16.2150 C   0  0  0  0  0  0  0  0  0  0  0  0
   25.3076  -23.2882  -15.1153 O   0  0  0  0  0  0  0  0  0  0  0  0
   27.2589  -25.4291  -22.9760 N   0  0  0  0  0  0  0  0  0  0  0  0
   24.9264  -21.3406  -16.2606 C   0  0  2  0  0  0  0  0  0  0  0  0
   24.4669  -20.6025  -15.1110 C   0  0  0  0  0  0  0  0  0  0  0  0
   25.1695  -19.2582  -15.0877 C   0  0  0  0  0  0  0  0  0  0  0  0
   26.5816  -19.4575  -14.6850 C   0  0  0  0  0  0  0  0  0  0  0  0
   27.5779  -19.4306  -15.6352 C   0  0  0  0  0  0  0  0  0  0  0  0
   28.9151  -19.6062  -15.3518 C   0  0  0  0  0  0  0  0  0  0  0  0
   29.2870  -19.8209  -14.0518 C   0  0  0  0  0  0  0  0  0  0  0  0
   28.3233  -19.8552  -13.0712 C   0  0  0  0  0  0  0  0  0  0  0  0
   26.9863  -19.6761  -13.3804 C   0  0  0  0  0  0  0  0  0  0  0  0
   22.9925  -20.4413  -15.1934 O   0  0  0  0  0  0  0  0  0  0  0  0
   22.4360  -20.1940  -16.3176 N   0  0  0  0  0  0  0  0  0  0  0  0
   18.7838  -21.8090  -10.5263 C   0  0  0  0  0  0  0  0  0  0  0  0
   17.9606  -21.1844  -11.5163 O   0  0  0  0  0  0  0  0  0  0  0  0
   16.7470  -21.1429  -11.2506 C   0  0  0  0  0  0  0  0  0  0  0  0
   18.6167  -20.6806  -12.7013 C   0  0  0  0  0  0  0  0  0  0  0  0
   20.0678  -20.7829  -12.8882 C   0  0  2  0  0  0  0  0  0  0  0  0
   20.6810  -20.3061  -14.1535 N   0  0  0  0  0  0  0  0  0  0  0  0
   22.1374  -20.5451  -14.0841 C   0  0  0  0  0  0  0  0  0  0  0  0
   20.4166  -18.8844  -14.4019 O   0  0  0  0  0  0  0  0  0  0  0  0
   21.0896  -17.9499  -13.9146 O   0  0  0  0  0  0  0  0  0  0  0  0
  2  1  1  0
  2  3  2  0
  4  2  1  0
  5  4  1  0
  6  5  1  0
  7  6  1  0
  8  7  1  0
  8  9  1  1
 10 11  2  0
 10  8  1  0
 12 10  1  0
 13 21  1  0
 13 12  1  0
 13 14  1  1
 15 14  1  0
 16 15  2  0
 17 16  1  0
 18 19  1  0
 18 17  2  0
 19 20  2  0
 20 15  1  0
 21 29  1  0
 22 21  2  0
 23 24  1  0
 24 25  2  0
 24 26  1  0
 26 27  1  0
 28 27  1  6
 28 30  1  0
 29 28  1  0
 30 31  2  0
 30 32  1  0
M  END
$$$$
