RFQ.pdb
     RDKit          3D

 32 32  0  0  1  0  0  0  0  0999 V2000
   25.1521  -18.6540  -21.2691 N   0  0  0  0  0  0  0  0  0  0  0  0
   26.1521  -19.6501  -21.3935 C   0  0  0  0  0  0  0  0  0  0  0  0
   26.0037  -20.5342  -22.3321 N   0  0  0  0  0  0  0  0  0  0  0  0
   27.2647  -19.6684  -20.5202 N   0  0  0  0  0  0  0  0  0  0  0  0
   27.2580  -18.8659  -19.3229 C   0  0  0  0  0  0  0  0  0  0  0  0
   26.3925  -19.4937  -18.2542 C   0  0  0  0  0  0  0  0  0  0  0  0
   27.0958  -19.4908  -16.9489 C   0  0  0  0  0  0  0  0  0  0  0  0
   27.4873  -20.8232  -16.4191 C   0  0  2  0  0  0  0  0  0  0  0  0
   27.3716  -21.9130  -17.3150 N   0  0  0  0  0  0  0  0  0  0  0  0
   26.6298  -21.1171  -15.2235 C   0  0  0  0  0  0  0  0  0  0  0  0
   25.5436  -21.7497  -15.3490 O   0  0  0  0  0  0  0  0  0  0  0  0
   26.6633  -21.3055  -22.5166 N   0  0  0  0  0  0  0  0  0  0  0  0
   26.9970  -20.7033  -13.9198 C   0  0  2  0  0  0  0  0  0  0  0  0
   26.1729  -20.8772  -12.7502 C   0  0  0  0  0  0  0  0  0  0  0  0
   26.9723  -20.4614  -11.5298 C   0  0  0  0  0  0  0  0  0  0  0  0
   26.1044  -20.5449  -10.3316 C   0  0  0  0  0  0  0  0  0  0  0  0
   25.8287  -21.7699   -9.7664 C   0  0  0  0  0  0  0  0  0  0  0  0
   25.0334  -21.9415   -8.6541 C   0  0  0  0  0  0  0  0  0  0  0  0
   24.4789  -20.8355   -8.0677 C   0  0  0  0  0  0  0  0  0  0  0  0
   24.7288  -19.5925   -8.6006 C   0  0  0  0  0  0  0  0  0  0  0  0
   25.5311  -19.4453   -9.7186 C   0  0  0  0  0  0  0  0  0  0  0  0
   24.9419  -20.0586  -12.8957 O   0  0  0  0  0  0  0  0  0  0  0  0
   24.9618  -18.9891  -13.5959 N   0  0  0  0  0  0  0  0  0  0  0  0
   21.3950  -21.0799  -16.9166 C   0  0  0  0  0  0  0  0  0  0  0  0
   21.4054  -19.6908  -16.5725 O   0  0  0  0  0  0  0  0  0  0  0  0
   20.9022  -18.9296  -17.4165 C   0  0  0  0  0  0  0  0  0  0  0  0
   21.9938  -19.3272  -15.3036 C   0  0  0  0  0  0  0  0  0  0  0  0
   22.4760  -20.3356  -14.3541 C   0  0  2  0  0  0  0  0  0  0  0  0
   22.4037  -20.0657  -12.8959 N   0  0  0  0  0  0  0  0  0  0  0  0
   23.7152  -20.3888  -12.2969 C   0  0  0  0  0  0  0  0  0  0  0  0
   21.3458  -20.8390  -12.2359 O   0  0  0  0  0  0  0  0  0  0  0  0
   20.2969  -20.3400  -11.7728 O   0  0  0  0  0  0  0  0  0  0  0  0
  2  1  1  0
  2  3  2  0
  4  2  1  0
  5  4  1  0
  6  5  1  0
  7  6  1  0
  8  7  1  0
  8  9  1  6
 10 11  2  0
 10  8  1  0
 12 10  1  0
 13 21  1  0
 13 12  1  0
 13 14  1  6
 15 14  1  0
 16 15  2  0
 17 16  1  0
 18 19  1  0
 18 17  2  0
 19 20  2  0
 20 15  1  0
 21 29  1  0
 22 21  2  0
 23 24  1  0
 24 25  2  0
 24 26  1  0
 26 27  1  0
 28 27  1  6
 28 30  1  0
 29 28  1  0
 30 31  2  0
 30 32  1  0
M  END
$$$$
