RFQ.pdb
     RDKit          3D

 32 32  0  0  1  0  0  0  0  0999 V2000
   28.8482  -21.2329  -19.1641 N   0  0  0  0  0  0  0  0  0  0  0  0
   28.1980  -19.9742  -19.1879 C   0  0  0  0  0  0  0  0  0  0  0  0
   28.0048  -19.4214  -20.3463 N   0  0  0  0  0  0  0  0  0  0  0  0
   27.7808  -19.3548  -17.9866 N   0  0  0  0  0  0  0  0  0  0  0  0
   27.9133  -20.0494  -16.7306 C   0  0  0  0  0  0  0  0  0  0  0  0
   27.0513  -21.2910  -16.7040 C   0  0  0  0  0  0  0  0  0  0  0  0
   26.1009  -21.2387  -15.5673 C   0  0  0  0  0  0  0  0  0  0  0  0
   26.6532  -21.6192  -14.2409 C   0  0  2  0  0  0  0  0  0  0  0  0
   27.3785  -22.8337  -14.1885 N   0  0  0  0  0  0  0  0  0  0  0  0
   25.5098  -21.7238  -13.2750 C   0  0  0  0  0  0  0  0  0  0  0  0
   24.8403  -22.7910  -13.1817 O   0  0  0  0  0  0  0  0  0  0  0  0
   27.5856  -18.4892  -20.4852 N   0  0  0  0  0  0  0  0  0  0  0  0
   25.1371  -20.6444  -12.4374 C   0  0  2  0  0  0  0  0  0  0  0  0
   24.0914  -20.7079  -11.4475 C   0  0  0  0  0  0  0  0  0  0  0  0
   24.2425  -19.5260  -10.5087 C   0  0  0  0  0  0  0  0  0  0  0  0
   25.2669  -19.8475   -9.4874 C   0  0  0  0  0  0  0  0  0  0  0  0
   25.2256  -21.0560   -8.8287 C   0  0  0  0  0  0  0  0  0  0  0  0
   26.1350  -21.4382   -7.8664 C   0  0  0  0  0  0  0  0  0  0  0  0
   27.1438  -20.5730   -7.5373 C   0  0  0  0  0  0  0  0  0  0  0  0
   27.2217  -19.3550   -8.1713 C   0  0  0  0  0  0  0  0  0  0  0  0
   26.2965  -18.9935   -9.1348 C   0  0  0  0  0  0  0  0  0  0  0  0
   22.7725  -20.6913  -12.1309 O   0  0  0  0  0  0  0  0  0  0  0  0
   22.5846  -19.9349  -13.1443 N   0  0  0  0  0  0  0  0  0  0  0  0
   17.9576  -24.8172  -10.9948 C   0  0  0  0  0  0  0  0  0  0  0  0
   17.3664  -23.8874  -11.9081 O   0  0  0  0  0  0  0  0  0  0  0  0
   16.1764  -24.1052  -12.1938 C   0  0  0  0  0  0  0  0  0  0  0  0
   18.2032  -22.8148  -12.3957 C   0  0  0  0  0  0  0  0  0  0  0  0
   19.5629  -22.5996  -11.8896 C   0  0  1  0  0  0  0  0  0  0  0  0
   20.3795  -21.4832  -12.4293 N   0  0  0  0  0  0  0  0  0  0  0  0
   21.6796  -21.4756  -11.7273 C   0  0  0  0  0  0  0  0  0  0  0  0
   19.7185  -20.1822  -12.2764 O   0  0  0  0  0  0  0  0  0  0  0  0
   19.8767  -19.4261  -11.2930 O   0  0  0  0  0  0  0  0  0  0  0  0
  2  1  1  0
  2  3  2  0
  4  2  1  0
  5  4  1  0
  6  5  1  0
  7  6  1  0
  8  7  1  0
  8  9  1  6
 10 11  2  0
 10  8  1  0
 12 10  1  0
 13 21  1  0
 13 12  1  0
 13 14  1  1
 15 14  1  0
 16 15  2  0
 17 16  1  0
 18 19  1  0
 18 17  2  0
 19 20  2  0
 20 15  1  0
 21 29  1  0
 22 21  2  0
 23 24  1  0
 24 25  2  0
 24 26  1  0
 26 27  1  0
 28 27  1  6
 28 30  1  0
 29 28  1  0
 30 31  2  0
 30 32  1  0
M  END
$$$$
