RFQ.pdb
     RDKit          3D

 32 32  0  0  1  0  0  0  0  0999 V2000
   17.5849  -15.0889  -16.7919 N   0  0  0  0  0  0  0  0  0  0  0  0
   17.2521  -14.8597  -18.1500 C   0  0  0  0  0  0  0  0  0  0  0  0
   16.4729  -13.8560  -18.4149 N   0  0  0  0  0  0  0  0  0  0  0  0
   17.7571  -15.7015  -19.1685 N   0  0  0  0  0  0  0  0  0  0  0  0
   19.0976  -16.2233  -19.0775 C   0  0  0  0  0  0  0  0  0  0  0  0
   19.9843  -15.6299  -20.1485 C   0  0  0  0  0  0  0  0  0  0  0  0
   20.8596  -14.5798  -19.5745 C   0  0  0  0  0  0  0  0  0  0  0  0
   22.1664  -15.0442  -19.0400 C   0  0  2  0  0  0  0  0  0  0  0  0
   22.2635  -16.4221  -18.7306 N   0  0  0  0  0  0  0  0  0  0  0  0
   22.4573  -14.2698  -17.7883 C   0  0  0  0  0  0  0  0  0  0  0  0
   22.0717  -14.6949  -16.6629 O   0  0  0  0  0  0  0  0  0  0  0  0
   16.1151  -13.6275  -19.3549 N   0  0  0  0  0  0  0  0  0  0  0  0
   23.1673  -13.0447  -17.8146 C   0  0  1  0  0  0  0  0  0  0  0  0
   23.4543  -12.2470  -16.6490 C   0  0  0  0  0  0  0  0  0  0  0  0
   24.9591  -12.1082  -16.5171 C   0  0  0  0  0  0  0  0  0  0  0  0
   25.5363  -13.4242  -16.1552 C   0  0  0  0  0  0  0  0  0  0  0  0
   26.2050  -14.1659  -17.1033 C   0  0  0  0  0  0  0  0  0  0  0  0
   26.7721  -15.3973  -16.8562 C   0  0  0  0  0  0  0  0  0  0  0  0
   26.6710  -15.9248  -15.5969 C   0  0  0  0  0  0  0  0  0  0  0  0
   26.0111  -15.2167  -14.6197 C   0  0  0  0  0  0  0  0  0  0  0  0
   25.4495  -13.9815  -14.8921 C   0  0  0  0  0  0  0  0  0  0  0  0
   22.7990  -10.9216  -16.7928 O   0  0  0  0  0  0  0  0  0  0  0  0
   22.8369  -10.3052  -17.9122 N   0  0  0  0  0  0  0  0  0  0  0  0
   17.1602   -9.7075  -15.0245 C   0  0  0  0  0  0  0  0  0  0  0  0
   17.5468   -8.4150  -15.5020 O   0  0  0  0  0  0  0  0  0  0  0  0
   16.6292   -7.5802  -15.5807 C   0  0  0  0  0  0  0  0  0  0  0  0
   18.9387   -8.2228  -15.8398 C   0  0  0  0  0  0  0  0  0  0  0  0
   19.9167   -9.3122  -15.7508 C   0  0  1  0  0  0  0  0  0  0  0  0
   21.3617   -9.0183  -15.9244 N   0  0  0  0  0  0  0  0  0  0  0  0
   22.1171  -10.2758  -15.7485 C   0  0  0  0  0  0  0  0  0  0  0  0
   21.8440   -8.0060  -14.9781 O   0  0  0  0  0  0  0  0  0  0  0  0
   22.5903   -8.2536  -14.0057 O   0  0  0  0  0  0  0  0  0  0  0  0
  2  1  1  0
  2  3  2  0
  4  2  1  0
  5  4  1  0
  6  5  1  0
  7  6  1  0
  8  7  1  0
  8  9  1  1
 10 11  2  0
 10  8  1  0
 12 10  1  0
 13 21  1  0
 13 12  1  0
 13 14  1  1
 15 14  1  0
 16 15  2  0
 17 16  1  0
 18 19  1  0
 18 17  2  0
 19 20  2  0
 20 15  1  0
 21 29  1  0
 22 21  2  0
 23 24  1  0
 24 25  2  0
 24 26  1  0
 26 27  1  0
 28 27  1  6
 28 30  1  0
 29 28  1  0
 30 31  2  0
 30 32  1  0
M  END
$$$$
