RFQ.pdb
     RDKit          3D

 32 32  0  0  1  0  0  0  0  0999 V2000
   27.1624  -20.1014  -16.5706 N   0  0  0  0  0  0  0  0  0  0  0  0
   26.9072  -18.7234  -16.7796 C   0  0  0  0  0  0  0  0  0  0  0  0
   26.8142  -18.3105  -18.0067 N   0  0  0  0  0  0  0  0  0  0  0  0
   26.7620  -17.8420  -15.6827 N   0  0  0  0  0  0  0  0  0  0  0  0
   26.7217  -18.3606  -14.3385 C   0  0  0  0  0  0  0  0  0  0  0  0
   25.4756  -19.1862  -14.1129 C   0  0  0  0  0  0  0  0  0  0  0  0
   25.4527  -19.7245  -12.7316 C   0  0  0  0  0  0  0  0  0  0  0  0
   26.4838  -20.7474  -12.4160 C   0  0  2  0  0  0  0  0  0  0  0  0
   26.3936  -21.9687  -13.1261 N   0  0  0  0  0  0  0  0  0  0  0  0
   26.3949  -21.0591  -10.9511 C   0  0  0  0  0  0  0  0  0  0  0  0
   25.9074  -22.1546  -10.5534 O   0  0  0  0  0  0  0  0  0  0  0  0
   26.6909  -17.3243  -18.2826 N   0  0  0  0  0  0  0  0  0  0  0  0
   26.8478  -20.1500   -9.9641 C   0  0  2  0  0  0  0  0  0  0  0  0
   26.8414  -20.4188   -8.5481 C   0  0  0  0  0  0  0  0  0  0  0  0
   27.7598  -19.4244   -7.8635 C   0  0  0  0  0  0  0  0  0  0  0  0
   27.7992  -19.7220   -6.4123 C   0  0  0  0  0  0  0  0  0  0  0  0
   28.6474  -20.6950   -5.9327 C   0  0  0  0  0  0  0  0  0  0  0  0
   28.7496  -21.0375   -4.6018 C   0  0  0  0  0  0  0  0  0  0  0  0
   27.9661  -20.3779   -3.6932 C   0  0  0  0  0  0  0  0  0  0  0  0
   27.1047  -19.3987   -4.1299 C   0  0  0  0  0  0  0  0  0  0  0  0
   27.0198  -19.0722   -5.4721 C   0  0  0  0  0  0  0  0  0  0  0  0
   25.4503  -20.3108   -8.0383 O   0  0  0  0  0  0  0  0  0  0  0  0
   24.7633  -19.2571   -8.2670 N   0  0  0  0  0  0  0  0  0  0  0  0
   20.9341  -24.3658   -8.3802 C   0  0  0  0  0  0  0  0  0  0  0  0
   20.3522  -23.4436   -7.4534 O   0  0  0  0  0  0  0  0  0  0  0  0
   19.1448  -23.6187   -7.2152 C   0  0  0  0  0  0  0  0  0  0  0  0
   21.2150  -22.4218   -6.9057 C   0  0  0  0  0  0  0  0  0  0  0  0
   22.6258  -22.3089   -7.2904 C   0  0  1  0  0  0  0  0  0  0  0  0
   23.4465  -21.1936   -6.7546 N   0  0  0  0  0  0  0  0  0  0  0  0
   24.8151  -21.3203   -7.2968 C   0  0  0  0  0  0  0  0  0  0  0  0
   23.4862  -21.1831   -5.2880 O   0  0  0  0  0  0  0  0  0  0  0  0
   22.5424  -20.7984   -4.5633 O   0  0  0  0  0  0  0  0  0  0  0  0
  2  1  1  0
  2  3  2  0
  4  2  1  0
  5  4  1  0
  6  5  1  0
  7  6  1  0
  8  7  1  0
  8  9  1  6
 10 11  2  0
 10  8  1  0
 12 10  1  0
 13 21  1  0
 13 12  1  0
 13 14  1  6
 15 14  1  0
 16 15  2  0
 17 16  1  0
 18 19  1  0
 18 17  2  0
 19 20  2  0
 20 15  1  0
 21 29  1  0
 22 21  2  0
 23 24  1  0
 24 25  2  0
 24 26  1  0
 26 27  1  0
 28 27  1  6
 28 30  1  0
 29 28  1  0
 30 31  2  0
 30 32  1  0
M  END
$$$$
