RFQ.pdb
     RDKit          3D

 32 32  0  0  1  0  0  0  0  0999 V2000
   28.8554  -27.3052  -16.0945 N   0  0  0  0  0  0  0  0  0  0  0  0
   29.1662  -26.9684  -17.4352 C   0  0  0  0  0  0  0  0  0  0  0  0
   30.2547  -27.4631  -17.9405 N   0  0  0  0  0  0  0  0  0  0  0  0
   28.3134  -26.1231  -18.1830 N   0  0  0  0  0  0  0  0  0  0  0  0
   27.0469  -25.7062  -17.6358 C   0  0  0  0  0  0  0  0  0  0  0  0
   27.2228  -24.5424  -16.6871 C   0  0  0  0  0  0  0  0  0  0  0  0
   26.1367  -24.5267  -15.6779 C   0  0  0  0  0  0  0  0  0  0  0  0
   25.1650  -23.4073  -15.7869 C   0  0  2  0  0  0  0  0  0  0  0  0
   25.6561  -22.2025  -16.3448 N   0  0  0  0  0  0  0  0  0  0  0  0
   24.6530  -23.1018  -14.4100 C   0  0  0  0  0  0  0  0  0  0  0  0
   24.2766  -24.0309  -13.6413 O   0  0  0  0  0  0  0  0  0  0  0  0
   30.5492  -27.3435  -18.9218 N   0  0  0  0  0  0  0  0  0  0  0  0
   24.5706  -21.7758  -13.9198 C   0  0  1  0  0  0  0  0  0  0  0  0
   24.0703  -21.4217  -12.6153 C   0  0  0  0  0  0  0  0  0  0  0  0
   24.6922  -20.1015  -12.2013 C   0  0  0  0  0  0  0  0  0  0  0  0
   25.3122  -20.2569  -10.8645 C   0  0  0  0  0  0  0  0  0  0  0  0
   24.6040  -19.9152   -9.7341 C   0  0  0  0  0  0  0  0  0  0  0  0
   25.1004  -20.0264   -8.4533 C   0  0  0  0  0  0  0  0  0  0  0  0
   26.3721  -20.5039   -8.2823 C   0  0  0  0  0  0  0  0  0  0  0  0
   27.1143  -20.8570   -9.3850 C   0  0  0  0  0  0  0  0  0  0  0  0
   26.5939  -20.7363  -10.6617 C   0  0  0  0  0  0  0  0  0  0  0  0
   22.5888  -21.3283  -12.6709 O   0  0  0  0  0  0  0  0  0  0  0  0
   22.0161  -20.8167  -13.6930 N   0  0  0  0  0  0  0  0  0  0  0  0
   18.4979  -24.3026   -8.7095 C   0  0  0  0  0  0  0  0  0  0  0  0
   17.6388  -23.4035   -9.4178 O   0  0  0  0  0  0  0  0  0  0  0  0
   16.4368  -23.4589   -9.1057 C   0  0  0  0  0  0  0  0  0  0  0  0
   18.2496  -22.5446  -10.4065 C   0  0  0  0  0  0  0  0  0  0  0  0
   19.7036  -22.4817  -10.5884 C   0  0  1  0  0  0  0  0  0  0  0  0
   20.2713  -21.6679  -11.6928 N   0  0  0  0  0  0  0  0  0  0  0  0
   21.7438  -21.7785  -11.6433 C   0  0  0  0  0  0  0  0  0  0  0  0
   19.8704  -20.2588  -11.6122 O   0  0  0  0  0  0  0  0  0  0  0  0
   20.4456  -19.4051  -10.9021 O   0  0  0  0  0  0  0  0  0  0  0  0
  2  1  1  0
  2  3  2  0
  4  2  1  0
  5  4  1  0
  6  5  1  0
  7  6  1  0
  8  7  1  0
  8  9  1  1
 10 11  2  0
 10  8  1  0
 12 10  1  0
 13 21  1  0
 13 12  1  0
 13 14  1  1
 15 14  1  0
 16 15  2  0
 17 16  1  0
 18 19  1  0
 18 17  2  0
 19 20  2  0
 20 15  1  0
 21 29  1  0
 22 21  2  0
 23 24  1  0
 24 25  2  0
 24 26  1  0
 26 27  1  0
 28 27  1  6
 28 30  1  0
 29 28  1  0
 30 31  2  0
 30 32  1  0
M  END
$$$$
