RFQ.pdb
     RDKit          3D

 32 32  0  0  1  0  0  0  0  0999 V2000
   27.9584  -18.9360  -21.5728 N   0  0  0  0  0  0  0  0  0  0  0  0
   26.7637  -18.3494  -22.0590 C   0  0  0  0  0  0  0  0  0  0  0  0
   26.6357  -18.2282  -23.3449 N   0  0  0  0  0  0  0  0  0  0  0  0
   25.7569  -17.9162  -21.1647 N   0  0  0  0  0  0  0  0  0  0  0  0
   25.8073  -18.3017  -19.7768 C   0  0  0  0  0  0  0  0  0  0  0  0
   25.5523  -19.7831  -19.6159 C   0  0  0  0  0  0  0  0  0  0  0  0
   25.1281  -20.0890  -18.2285 C   0  0  0  0  0  0  0  0  0  0  0  0
   26.0121  -19.5735  -17.1506 C   0  0  2  0  0  0  0  0  0  0  0  0
   27.4032  -19.6073  -17.4104 N   0  0  0  0  0  0  0  0  0  0  0  0
   25.7552  -20.3825  -15.9134 C   0  0  0  0  0  0  0  0  0  0  0  0
   25.0049  -21.3981  -15.9514 O   0  0  0  0  0  0  0  0  0  0  0  0
   25.8244  -17.7952  -23.8122 N   0  0  0  0  0  0  0  0  0  0  0  0
   26.3353  -20.0463  -14.6660 C   0  0  2  0  0  0  0  0  0  0  0  0
   25.9313  -20.6121  -13.4034 C   0  0  0  0  0  0  0  0  0  0  0  0
   26.7813  -20.0006  -12.3059 C   0  0  0  0  0  0  0  0  0  0  0  0
   26.2054  -20.3629  -10.9895 C   0  0  0  0  0  0  0  0  0  0  0  0
   26.1473  -21.6837  -10.6044 C   0  0  0  0  0  0  0  0  0  0  0  0
   25.6294  -22.1113   -9.4011 C   0  0  0  0  0  0  0  0  0  0  0  0
   25.1406  -21.1764   -8.5285 C   0  0  0  0  0  0  0  0  0  0  0  0
   25.1793  -19.8457   -8.8739 C   0  0  0  0  0  0  0  0  0  0  0  0
   25.7045  -19.4405  -10.0885 C   0  0  0  0  0  0  0  0  0  0  0  0
   24.4876  -20.3375  -13.1865 O   0  0  0  0  0  0  0  0  0  0  0  0
   24.0214  -19.1634  -13.3830 N   0  0  0  0  0  0  0  0  0  0  0  0
   19.9448  -24.4997  -14.2558 C   0  0  0  0  0  0  0  0  0  0  0  0
   19.1916  -23.3850  -13.7680 O   0  0  0  0  0  0  0  0  0  0  0  0
   17.9566  -23.5000  -13.8503 C   0  0  0  0  0  0  0  0  0  0  0  0
   19.9348  -22.2616  -13.2444 C   0  0  0  0  0  0  0  0  0  0  0  0
   21.4012  -22.2309  -13.2491 C   0  0  1  0  0  0  0  0  0  0  0  0
   22.1135  -21.0672  -12.6634 N   0  0  0  0  0  0  0  0  0  0  0  0
   23.5671  -21.3113  -12.7661 C   0  0  0  0  0  0  0  0  0  0  0  0
   21.7415  -20.8305  -11.2640 O   0  0  0  0  0  0  0  0  0  0  0  0
   22.3969  -21.2466  -10.2837 O   0  0  0  0  0  0  0  0  0  0  0  0
  2  1  1  0
  2  3  2  0
  4  2  1  0
  5  4  1  0
  6  5  1  0
  7  6  1  0
  8  7  1  0
  8  9  1  6
 10 11  2  0
 10  8  1  0
 12 10  1  0
 13 21  1  0
 13 12  1  0
 13 14  1  1
 15 14  1  0
 16 15  2  0
 17 16  1  0
 18 19  1  0
 18 17  2  0
 19 20  2  0
 20 15  1  0
 21 29  1  0
 22 21  2  0
 23 24  1  0
 24 25  2  0
 24 26  1  0
 26 27  1  0
 28 27  1  6
 28 30  1  0
 29 28  1  0
 30 31  2  0
 30 32  1  0
M  END
$$$$
