RPM.pdb
     RDKit          3D

 27 27  0  0  1  0  0  0  0  0999 V2000
   10.8874  -22.5243   17.6952 N   0  0  0  0  0  0  0  0  0  0  0  0
   10.2869  -22.4583   18.9760 C   0  0  0  0  0  0  0  0  0  0  0  0
   11.0427  -22.4976   20.0410 N   0  0  0  0  0  0  0  0  0  0  0  0
    8.8801  -22.3497   19.1721 N   0  0  0  0  0  0  0  0  0  0  0  0
    8.2556  -21.0660   19.5112 C   0  0  0  0  0  0  0  0  0  0  0  0
    9.1442  -19.9211   19.1282 C   0  0  0  0  0  0  0  0  0  0  0  0
    8.6137  -18.5939   19.5176 C   0  0  0  0  0  0  0  0  0  0  0  0
    9.4743  -17.4117   19.1690 C   0  0  2  0  0  0  0  0  0  0  0  0
   10.7088  -17.8426   18.6011 N   0  0  0  0  0  0  0  0  0  0  0  0
    9.5270  -16.3563   20.1653 C   0  0  0  0  0  0  0  0  0  0  0  0
   10.5399  -16.3497   20.9329 O   0  0  0  0  0  0  0  0  0  0  0  0
   10.6098  -22.3393   20.9952 N   0  0  0  0  0  0  0  0  0  0  0  0
    8.5615  -15.3120   20.3907 C   0  0  0  0  0  0  0  0  0  0  0  0
    7.4266  -15.1129   19.5384 C   0  0  0  0  0  0  0  0  0  0  0  0
    6.9982  -13.6732   19.7922 C   0  0  0  0  0  0  0  0  0  0  0  0
    7.4652  -13.3818   21.1863 C   0  0  2  0  0  0  0  0  0  0  0  0
    8.5728  -14.3420   21.4262 C   0  0  0  0  0  0  0  0  0  0  0  0
    8.4586  -14.9458   22.7887 O   0  0  0  0  0  0  0  0  0  0  0  0
    7.6202  -15.8559   22.9500 C   0  0  0  0  0  0  0  0  0  0  0  0
    6.5923  -10.6470   27.2692 S   0  0  0  0  0  0  0  0  0  0  0  0
    6.5652  -12.0038   26.0692 C   0  0  0  0  0  0  0  0  0  0  0  0
    7.5547  -13.4139   26.6308 C   0  0  0  0  0  0  0  0  0  0  0  0
    7.5952  -14.5040   25.5650 C   0  0  2  0  0  0  0  0  0  0  0  0
    9.0240  -14.8527   25.2416 N   0  0  0  0  0  0  0  0  0  0  0  0
    9.2595  -14.5132   23.8500 C   0  0  0  0  0  0  0  0  0  0  0  0
    9.1817  -16.3223   25.4658 O   0  0  0  0  0  0  0  0  0  0  0  0
    9.4119  -17.0938   24.5022 O   0  0  0  0  0  0  0  0  0  0  0  0
  2  1  1  0
  3  2  2  0
  4  2  1  0
  5  6  1  0
  5  4  1  0
  6  7  1  0
  7  8  1  0
  8  9  1  1
 10  8  1  0
 11 10  2  0
 12 10  1  0
 12 16  1  0
 13 14  1  0
 13 12  1  0
 14 15  1  0
 15 16  1  0
 16 17  1  1
 17 18  2  0
 19 20  1  0
 20 21  1  0
 21 22  1  0
 23 22  1  1
 23 24  1  0
 23 25  1  0
 24 17  1  0
 25 27  1  0
 26 25  2  0
M  END
$$$$
