RPM.pdb
     RDKit          3D

 27 27  0  0  1  0  0  0  0  0999 V2000
    6.8965  -21.7455   18.9608 N   0  0  0  0  0  0  0  0  0  0  0  0
    6.3260  -21.6924   17.6658 C   0  0  0  0  0  0  0  0  0  0  0  0
    5.5430  -22.6606   17.2702 N   0  0  0  0  0  0  0  0  0  0  0  0
    6.5622  -20.6239   16.7538 N   0  0  0  0  0  0  0  0  0  0  0  0
    7.6469  -19.6607   16.9741 C   0  0  0  0  0  0  0  0  0  0  0  0
    7.2902  -18.6929   18.0617 C   0  0  0  0  0  0  0  0  0  0  0  0
    8.4351  -18.3035   18.9173 C   0  0  0  0  0  0  0  0  0  0  0  0
    9.1337  -17.0262   18.5429 C   0  0  2  0  0  0  0  0  0  0  0  0
   10.2356  -17.2942   17.6789 N   0  0  0  0  0  0  0  0  0  0  0  0
    9.3461  -16.0840   19.6275 C   0  0  0  0  0  0  0  0  0  0  0  0
   10.3022  -16.3411   20.4244 O   0  0  0  0  0  0  0  0  0  0  0  0
    5.0669  -22.5950   16.3258 N   0  0  0  0  0  0  0  0  0  0  0  0
    8.5965  -14.8878   19.9114 C   0  0  0  0  0  0  0  0  0  0  0  0
    7.5409  -14.4186   19.0630 C   0  0  0  0  0  0  0  0  0  0  0  0
    7.3940  -12.9417   19.4064 C   0  0  0  0  0  0  0  0  0  0  0  0
    7.8775  -12.8344   20.8210 C   0  0  2  0  0  0  0  0  0  0  0  0
    8.7724  -14.0050   21.0082 C   0  0  0  0  0  0  0  0  0  0  0  0
    8.5129  -14.6588   22.3271 O   0  0  0  0  0  0  0  0  0  0  0  0
    7.6370  -15.5464   22.3707 C   0  0  0  0  0  0  0  0  0  0  0  0
    6.9957  -11.4195   27.8266 S   0  0  0  0  0  0  0  0  0  0  0  0
    5.9698  -12.2525   26.5875 C   0  0  0  0  0  0  0  0  0  0  0  0
    6.6358  -13.8802   26.1520 C   0  0  0  0  0  0  0  0  0  0  0  0
    7.2550  -13.8553   24.7585 C   0  0  2  0  0  0  0  0  0  0  0  0
    8.6785  -14.3428   24.8207 N   0  0  0  0  0  0  0  0  0  0  0  0
    9.2227  -14.2956   23.4758 C   0  0  0  0  0  0  0  0  0  0  0  0
    8.6426  -15.7470   25.3323 O   0  0  0  0  0  0  0  0  0  0  0  0
    8.1675  -16.0010   26.4665 O   0  0  0  0  0  0  0  0  0  0  0  0
  2  1  1  0
  3  2  2  0
  4  2  1  0
  5  6  1  0
  5  4  1  0
  6  7  1  0
  7  8  1  0
  8  9  1  1
 10  8  1  0
 11 10  2  0
 12 10  1  0
 12 16  1  0
 13 14  1  0
 13 12  1  0
 14 15  1  0
 15 16  1  0
 16 17  1  1
 17 18  2  0
 19 20  1  0
 20 21  1  0
 21 22  1  0
 23 22  1  1
 23 24  1  0
 23 25  1  0
 24 17  1  0
 25 27  1  0
 26 25  2  0
M  END
$$$$
