RPM.pdb
     RDKit          3D

 27 27  0  0  1  0  0  0  0  0999 V2000
   10.3137  -21.5103   19.0393 N   0  0  0  0  0  0  0  0  0  0  0  0
    9.3155  -22.1840   19.7843 C   0  0  0  0  0  0  0  0  0  0  0  0
    9.6662  -22.9290   20.7987 N   0  0  0  0  0  0  0  0  0  0  0  0
    7.9258  -22.0937   19.4846 N   0  0  0  0  0  0  0  0  0  0  0  0
    7.3402  -20.8574   18.9540 C   0  0  0  0  0  0  0  0  0  0  0  0
    7.9631  -19.6531   19.5931 C   0  0  0  0  0  0  0  0  0  0  0  0
    7.4869  -18.3652   19.0372 C   0  0  0  0  0  0  0  0  0  0  0  0
    8.5521  -17.3641   18.6867 C   0  0  2  0  0  0  0  0  0  0  0  0
    9.6070  -17.9906   17.9608 N   0  0  0  0  0  0  0  0  0  0  0  0
    8.9227  -16.4427   19.7463 C   0  0  0  0  0  0  0  0  0  0  0  0
    9.9435  -16.7525   20.4373 O   0  0  0  0  0  0  0  0  0  0  0  0
    8.9192  -23.4023   21.3825 N   0  0  0  0  0  0  0  0  0  0  0  0
    8.2663  -15.2143   20.1118 C   0  0  0  0  0  0  0  0  0  0  0  0
    7.1434  -14.6944   19.3888 C   0  0  0  0  0  0  0  0  0  0  0  0
    7.1047  -13.2134   19.7440 C   0  0  0  0  0  0  0  0  0  0  0  0
    7.7510  -13.1333   21.0939 C   0  0  2  0  0  0  0  0  0  0  0  0
    8.6067  -14.3443   21.1798 C   0  0  0  0  0  0  0  0  0  0  0  0
    8.4699  -14.9901   22.5208 O   0  0  0  0  0  0  0  0  0  0  0  0
    7.4533  -15.6833   22.7284 C   0  0  0  0  0  0  0  0  0  0  0  0
    6.1222  -10.8839   27.7607 S   0  0  0  0  0  0  0  0  0  0  0  0
    6.3328  -11.7149   26.1648 C   0  0  0  0  0  0  0  0  0  0  0  0
    7.6781  -12.9275   26.2141 C   0  0  0  0  0  0  0  0  0  0  0  0
    8.0450  -13.3848   24.8062 C   0  0  1  0  0  0  0  0  0  0  0  0
    9.1607  -14.3943   24.8689 N   0  0  0  0  0  0  0  0  0  0  0  0
    9.4422  -14.8292   23.5128 C   0  0  0  0  0  0  0  0  0  0  0  0
    8.6776  -15.5353   25.7052 O   0  0  0  0  0  0  0  0  0  0  0  0
    9.0125  -15.6288   26.9118 O   0  0  0  0  0  0  0  0  0  0  0  0
  2  1  1  0
  3  2  2  0
  4  2  1  0
  5  6  1  0
  5  4  1  0
  6  7  1  0
  7  8  1  0
  8  9  1  1
 10  8  1  0
 11 10  2  0
 12 10  1  0
 12 16  1  0
 13 14  1  0
 13 12  1  0
 14 15  1  0
 15 16  1  0
 16 17  1  1
 17 18  2  0
 19 20  1  0
 20 21  1  0
 21 22  1  0
 23 22  1  6
 23 24  1  0
 23 25  1  0
 24 17  1  0
 25 27  1  0
 26 25  2  0
M  END
$$$$
