RPM.pdb
     RDKit          3D

 27 27  0  0  1  0  0  0  0  0999 V2000
    9.9520  -21.6383   18.4912 N   0  0  0  0  0  0  0  0  0  0  0  0
    8.7806  -21.4413   17.7204 C   0  0  0  0  0  0  0  0  0  0  0  0
    8.6352  -22.0928   16.5972 N   0  0  0  0  0  0  0  0  0  0  0  0
    7.7331  -20.5568   18.1073 N   0  0  0  0  0  0  0  0  0  0  0  0
    7.7906  -19.8162   19.3727 C   0  0  0  0  0  0  0  0  0  0  0  0
    8.7971  -18.7080   19.2986 C   0  0  0  0  0  0  0  0  0  0  0  0
    8.4601  -17.6566   18.3109 C   0  0  0  0  0  0  0  0  0  0  0  0
    9.4212  -16.5043   18.2205 C   0  0  2  0  0  0  0  0  0  0  0  0
   10.6614  -16.9309   17.6616 N   0  0  0  0  0  0  0  0  0  0  0  0
    9.4735  -15.6358   19.3832 C   0  0  0  0  0  0  0  0  0  0  0  0
   10.5369  -15.6796   20.0778 O   0  0  0  0  0  0  0  0  0  0  0  0
    7.7670  -21.9357   16.0105 N   0  0  0  0  0  0  0  0  0  0  0  0
    8.4570  -14.7278   19.8479 C   0  0  0  0  0  0  0  0  0  0  0  0
    7.2796  -14.4318   19.0862 C   0  0  0  0  0  0  0  0  0  0  0  0
    6.7764  -13.1081   19.6477 C   0  0  0  0  0  0  0  0  0  0  0  0
    7.2798  -13.0823   21.0592 C   0  0  2  0  0  0  0  0  0  0  0  0
    8.4512  -13.9956   21.0633 C   0  0  0  0  0  0  0  0  0  0  0  0
    8.4269  -14.8756   22.2711 O   0  0  0  0  0  0  0  0  0  0  0  0
    7.8674  -15.9862   22.1670 C   0  0  0  0  0  0  0  0  0  0  0  0
    9.9977  -15.0170   30.0747 S   0  0  0  0  0  0  0  0  0  0  0  0
    9.7666  -14.0750   28.5447 C   0  0  0  0  0  0  0  0  0  0  0  0
    9.4089  -15.1598   27.1383 C   0  0  0  0  0  0  0  0  0  0  0  0
    9.3357  -14.3584   25.8428 C   0  0  2  0  0  0  0  0  0  0  0  0
    8.9899  -15.2694   24.6947 N   0  0  0  0  0  0  0  0  0  0  0  0
    9.0089  -14.4771   23.4785 C   0  0  0  0  0  0  0  0  0  0  0  0
    7.6213  -15.8105   24.9570 O   0  0  0  0  0  0  0  0  0  0  0  0
    6.6021  -15.1365   24.6674 O   0  0  0  0  0  0  0  0  0  0  0  0
  2  1  1  0
  3  2  2  0
  4  2  1  0
  5  6  1  0
  5  4  1  0
  6  7  1  0
  7  8  1  0
  8  9  1  1
 10  8  1  0
 11 10  2  0
 12 10  1  0
 12 16  1  0
 13 14  1  0
 13 12  1  0
 14 15  1  0
 15 16  1  0
 16 17  1  1
 17 18  2  0
 19 20  1  0
 20 21  1  0
 21 22  1  0
 23 22  1  6
 23 24  1  0
 23 25  1  0
 24 17  1  0
 25 27  1  0
 26 25  2  0
M  END
$$$$
