RPM.pdb
     RDKit          3D

 27 27  0  0  1  0  0  0  0  0999 V2000
    7.3767  -21.0641   15.9280 N   0  0  0  0  0  0  0  0  0  0  0  0
    7.1044  -19.8840   15.1944 C   0  0  0  0  0  0  0  0  0  0  0  0
    7.3265  -19.8638   13.9070 N   0  0  0  0  0  0  0  0  0  0  0  0
    6.5929  -18.6961   15.7916 N   0  0  0  0  0  0  0  0  0  0  0  0
    6.3432  -18.6166   17.2353 C   0  0  0  0  0  0  0  0  0  0  0  0
    7.4852  -19.2033   18.0089 C   0  0  0  0  0  0  0  0  0  0  0  0
    7.9801  -18.3329   19.1006 C   0  0  0  0  0  0  0  0  0  0  0  0
    8.9676  -17.2719   18.7020 C   0  0  2  0  0  0  0  0  0  0  0  0
   10.0932  -17.8564   18.0510 N   0  0  0  0  0  0  0  0  0  0  0  0
    9.2268  -16.2474   19.6980 C   0  0  0  0  0  0  0  0  0  0  0  0
   10.2486  -16.4167   20.4346 O   0  0  0  0  0  0  0  0  0  0  0  0
    7.2059  -18.9584   13.3699 N   0  0  0  0  0  0  0  0  0  0  0  0
    8.4581  -15.0571   19.9545 C   0  0  0  0  0  0  0  0  0  0  0  0
    7.3909  -14.6281   19.0995 C   0  0  0  0  0  0  0  0  0  0  0  0
    7.2204  -13.1455   19.4052 C   0  0  0  0  0  0  0  0  0  0  0  0
    7.7082  -12.9933   20.8141 C   0  0  2  0  0  0  0  0  0  0  0  0
    8.6238  -14.1432   21.0273 C   0  0  0  0  0  0  0  0  0  0  0  0
    8.3815  -14.7669   22.3639 O   0  0  0  0  0  0  0  0  0  0  0  0
    7.4483  -15.5899   22.4580 C   0  0  0  0  0  0  0  0  0  0  0  0
    5.1085  -11.8377   28.1015 S   0  0  0  0  0  0  0  0  0  0  0  0
    5.6100  -12.1589   26.3907 C   0  0  0  0  0  0  0  0  0  0  0  0
    6.9799  -13.3415   26.3056 C   0  0  0  0  0  0  0  0  0  0  0  0
    7.5559  -13.4004   24.8947 C   0  0  1  0  0  0  0  0  0  0  0  0
    8.6762  -14.4052   24.8393 N   0  0  0  0  0  0  0  0  0  0  0  0
    9.1684  -14.4460   23.4743 C   0  0  0  0  0  0  0  0  0  0  0  0
    8.1043  -15.7271   25.2395 O   0  0  0  0  0  0  0  0  0  0  0  0
    7.1774  -16.2497   24.5727 O   0  0  0  0  0  0  0  0  0  0  0  0
  2  1  1  0
  3  2  2  0
  4  2  1  0
  5  6  1  0
  5  4  1  0
  6  7  1  0
  7  8  1  0
  8  9  1  1
 10  8  1  0
 11 10  2  0
 12 10  1  0
 12 16  1  0
 13 14  1  0
 13 12  1  0
 14 15  1  0
 15 16  1  0
 16 17  1  1
 17 18  2  0
 19 20  1  0
 20 21  1  0
 21 22  1  0
 23 22  1  1
 23 24  1  0
 23 25  1  0
 24 17  1  0
 25 27  1  0
 26 25  2  0
M  END
$$$$
