RPM.pdb
     RDKit          3D

 27 27  0  0  1  0  0  0  0  0999 V2000
   13.9465  -22.2307   21.1557 N   0  0  0  0  0  0  0  0  0  0  0  0
   13.4879  -21.9168   19.8533 C   0  0  0  0  0  0  0  0  0  0  0  0
   13.0695  -22.8769   19.0723 N   0  0  0  0  0  0  0  0  0  0  0  0
   13.4567  -20.5893   19.3374 N   0  0  0  0  0  0  0  0  0  0  0  0
   12.5667  -19.5717   19.9078 C   0  0  0  0  0  0  0  0  0  0  0  0
   11.1660  -19.7418   19.4020 C   0  0  0  0  0  0  0  0  0  0  0  0
   10.1891  -18.8135   20.0172 C   0  0  0  0  0  0  0  0  0  0  0  0
   10.2860  -17.3757   19.5894 C   0  0  2  0  0  0  0  0  0  0  0  0
   11.5359  -17.1278   18.9502 N   0  0  0  0  0  0  0  0  0  0  0  0
    9.8235  -16.3983   20.5589 C   0  0  0  0  0  0  0  0  0  0  0  0
   10.7199  -15.7795   21.2137 O   0  0  0  0  0  0  0  0  0  0  0  0
   12.7277  -22.6453   18.0964 N   0  0  0  0  0  0  0  0  0  0  0  0
    8.4624  -16.0466   20.8710 C   0  0  0  0  0  0  0  0  0  0  0  0
    7.3417  -16.6029   20.1721 C   0  0  0  0  0  0  0  0  0  0  0  0
    6.2019  -15.6242   20.4246 C   0  0  0  0  0  0  0  0  0  0  0  0
    6.5461  -14.9745   21.7306 C   0  0  2  0  0  0  0  0  0  0  0  0
    8.0181  -15.1278   21.8568 C   0  0  0  0  0  0  0  0  0  0  0  0
    8.3859  -15.5427   23.2449 O   0  0  0  0  0  0  0  0  0  0  0  0
    8.6246  -16.7512   23.4438 C   0  0  0  0  0  0  0  0  0  0  0  0
    6.6029  -10.0581   26.2432 S   0  0  0  0  0  0  0  0  0  0  0  0
    6.4200  -11.8410   26.5065 C   0  0  0  0  0  0  0  0  0  0  0  0
    8.0056  -12.7053   26.3602 C   0  0  0  0  0  0  0  0  0  0  0  0
    7.8224  -14.2068   26.5547 C   0  0  2  0  0  0  0  0  0  0  0  0
    8.7755  -14.9597   25.6644 N   0  0  0  0  0  0  0  0  0  0  0  0
    8.4633  -14.6158   24.2890 C   0  0  0  0  0  0  0  0  0  0  0  0
    8.5543  -16.4171   25.9128 O   0  0  0  0  0  0  0  0  0  0  0  0
    7.6320  -17.0323   25.3232 O   0  0  0  0  0  0  0  0  0  0  0  0
  2  1  1  0
  3  2  2  0
  4  2  1  0
  5  6  1  0
  5  4  1  0
  6  7  1  0
  7  8  1  0
  8  9  1  1
 10  8  1  0
 11 10  2  0
 12 10  1  0
 12 16  1  0
 13 14  1  0
 13 12  1  0
 14 15  1  0
 15 16  1  0
 16 17  1  1
 17 18  2  0
 19 20  1  0
 20 21  1  0
 21 22  1  0
 23 22  1  1
 23 24  1  0
 23 25  1  0
 24 17  1  0
 25 27  1  0
 26 25  2  0
M  END
$$$$
