RPM.pdb
     RDKit          3D

 27 27  0  0  1  0  0  0  0  0999 V2000
    6.7403  -20.8459   25.5713 N   0  0  0  0  0  0  0  0  0  0  0  0
    7.0743  -20.9330   24.1979 C   0  0  0  0  0  0  0  0  0  0  0  0
    7.9594  -21.8113   23.8079 N   0  0  0  0  0  0  0  0  0  0  0  0
    6.4892  -20.1019   23.1997 N   0  0  0  0  0  0  0  0  0  0  0  0
    6.5785  -20.4446   21.7758 C   0  0  0  0  0  0  0  0  0  0  0  0
    7.7401  -19.7509   21.1304 C   0  0  0  0  0  0  0  0  0  0  0  0
    7.3597  -18.8622   20.0079 C   0  0  0  0  0  0  0  0  0  0  0  0
    8.4539  -17.9915   19.4563 C   0  0  2  0  0  0  0  0  0  0  0  0
    9.5236  -18.7902   18.9561 N   0  0  0  0  0  0  0  0  0  0  0  0
    8.8015  -16.8329   20.2599 C   0  0  0  0  0  0  0  0  0  0  0  0
    9.8202  -16.9474   21.0111 O   0  0  0  0  0  0  0  0  0  0  0  0
    8.2488  -21.8449   22.7892 N   0  0  0  0  0  0  0  0  0  0  0  0
    8.1240  -15.5632   20.3101 C   0  0  0  0  0  0  0  0  0  0  0  0
    7.0191  -15.2435   19.4550 C   0  0  0  0  0  0  0  0  0  0  0  0
    6.9574  -13.7213   19.4531 C   0  0  0  0  0  0  0  0  0  0  0  0
    7.5619  -13.3185   20.7640 C   0  0  2  0  0  0  0  0  0  0  0  0
    8.4247  -14.4629   21.1541 C   0  0  0  0  0  0  0  0  0  0  0  0
    8.2527  -14.7799   22.6046 O   0  0  0  0  0  0  0  0  0  0  0  0
    7.4691  -15.7028   22.9065 C   0  0  0  0  0  0  0  0  0  0  0  0
    7.4196  -10.9743   28.0170 S   0  0  0  0  0  0  0  0  0  0  0  0
    6.3241  -11.4454   26.6533 C   0  0  0  0  0  0  0  0  0  0  0  0
    6.4611  -13.2095   26.2636 C   0  0  0  0  0  0  0  0  0  0  0  0
    7.0279  -13.4106   24.8621 C   0  0  1  0  0  0  0  0  0  0  0  0
    8.4562  -13.8800   24.9486 N   0  0  0  0  0  0  0  0  0  0  0  0
    8.9425  -14.0731   23.5946 C   0  0  0  0  0  0  0  0  0  0  0  0
    8.4520  -15.1708   25.7027 O   0  0  0  0  0  0  0  0  0  0  0  0
    8.4185  -15.1765   26.9579 O   0  0  0  0  0  0  0  0  0  0  0  0
  2  1  1  0
  3  2  2  0
  4  2  1  0
  5  6  1  0
  5  4  1  0
  6  7  1  0
  7  8  1  0
  8  9  1  1
 10  8  1  0
 11 10  2  0
 12 10  1  0
 12 16  1  0
 13 14  1  0
 13 12  1  0
 14 15  1  0
 15 16  1  0
 16 17  1  1
 17 18  2  0
 19 20  1  0
 20 21  1  0
 21 22  1  0
 23 22  1  6
 23 24  1  0
 23 25  1  0
 24 17  1  0
 25 27  1  0
 26 25  2  0
M  END
$$$$
