RPM.pdb
     RDKit          3D

 27 27  0  0  1  0  0  0  0  0999 V2000
    8.0973  -13.3396   17.5561 N   0  0  0  0  0  0  0  0  0  0  0  0
    8.6067  -12.8373   18.7781 C   0  0  0  0  0  0  0  0  0  0  0  0
    9.5368  -11.9200   18.7561 N   0  0  0  0  0  0  0  0  0  0  0  0
    8.1542  -13.2838   20.0529 N   0  0  0  0  0  0  0  0  0  0  0  0
    7.1687  -14.3640   20.1754 C   0  0  0  0  0  0  0  0  0  0  0  0
    7.7873  -15.5859   20.7845 C   0  0  0  0  0  0  0  0  0  0  0  0
    6.8417  -16.7125   20.9610 C   0  0  0  0  0  0  0  0  0  0  0  0
    7.3895  -17.9317   21.6488 C   0  0  2  0  0  0  0  0  0  0  0  0
    6.3859  -18.9387   21.7547 N   0  0  0  0  0  0  0  0  0  0  0  0
    8.2107  -17.6781   22.8194 C   0  0  0  0  0  0  0  0  0  0  0  0
    7.5963  -17.5157   23.9201 O   0  0  0  0  0  0  0  0  0  0  0  0
    9.9327  -11.5551   19.6687 N   0  0  0  0  0  0  0  0  0  0  0  0
    9.6463  -17.5849   22.8820 C   0  0  0  0  0  0  0  0  0  0  0  0
   10.4756  -17.6493   21.7149 C   0  0  0  0  0  0  0  0  0  0  0  0
   11.8532  -18.0357   22.2382 C   0  0  0  0  0  0  0  0  0  0  0  0
   11.8756  -17.5292   23.6487 C   0  0  2  0  0  0  0  0  0  0  0  0
   10.4468  -17.4388   24.0444 C   0  0  0  0  0  0  0  0  0  0  0  0
   10.1835  -16.1610   24.7737 O   0  0  0  0  0  0  0  0  0  0  0  0
    9.9295  -15.1472   24.0920 C   0  0  0  0  0  0  0  0  0  0  0  0
    5.6245  -11.8574   28.5667 S   0  0  0  0  0  0  0  0  0  0  0  0
    6.1579  -13.2874   27.5910 C   0  0  0  0  0  0  0  0  0  0  0  0
    7.9462  -13.5514   27.7130 C   0  0  0  0  0  0  0  0  0  0  0  0
    8.3839  -14.7072   26.8195 C   0  0  1  0  0  0  0  0  0  0  0  0
    9.8705  -14.9150   26.9405 N   0  0  0  0  0  0  0  0  0  0  0  0
   10.2176  -16.0953   26.1701 C   0  0  0  0  0  0  0  0  0  0  0  0
   10.1716  -15.1175   28.3907 O   0  0  0  0  0  0  0  0  0  0  0  0
   10.2757  -16.2753   28.8654 O   0  0  0  0  0  0  0  0  0  0  0  0
  2  1  1  0
  3  2  2  0
  4  2  1  0
  5  6  1  0
  5  4  1  0
  6  7  1  0
  7  8  1  0
  8  9  1  1
 10  8  1  0
 11 10  2  0
 12 10  1  0
 12 16  1  0
 13 14  1  0
 13 12  1  0
 14 15  1  0
 15 16  1  0
 16 17  1  6
 17 18  2  0
 19 20  1  0
 20 21  1  0
 21 22  1  0
 23 22  1  6
 23 24  1  0
 23 25  1  0
 24 17  1  0
 25 27  1  0
 26 25  2  0
M  END
$$$$
