RPM.pdb
     RDKit          3D

 27 27  0  0  1  0  0  0  0  0999 V2000
    1.4815  -18.7750   20.0769 N   0  0  0  0  0  0  0  0  0  0  0  0
    2.6229  -18.9613   20.8940 C   0  0  0  0  0  0  0  0  0  0  0  0
    2.4668  -19.3082   22.1439 N   0  0  0  0  0  0  0  0  0  0  0  0
    3.9557  -18.7886   20.4215 N   0  0  0  0  0  0  0  0  0  0  0  0
    5.1066  -18.9331   21.3201 C   0  0  0  0  0  0  0  0  0  0  0  0
    6.2167  -18.0086   20.9206 C   0  0  0  0  0  0  0  0  0  0  0  0
    7.1404  -18.5805   19.9135 C   0  0  0  0  0  0  0  0  0  0  0  0
    8.0777  -17.6093   19.2516 C   0  0  2  0  0  0  0  0  0  0  0  0
    9.0245  -18.3019   18.4416 N   0  0  0  0  0  0  0  0  0  0  0  0
    8.5752  -16.5390   20.0977 C   0  0  0  0  0  0  0  0  0  0  0  0
    9.3566  -16.8773   21.0413 O   0  0  0  0  0  0  0  0  0  0  0  0
    3.3195  -19.4753   22.7504 N   0  0  0  0  0  0  0  0  0  0  0  0
    8.2849  -15.1322   19.9968 C   0  0  0  0  0  0  0  0  0  0  0  0
    7.5370  -14.5745   18.9088 C   0  0  0  0  0  0  0  0  0  0  0  0
    7.9034  -13.0958   18.9034 C   0  0  0  0  0  0  0  0  0  0  0  0
    8.2818  -12.7967   20.3225 C   0  0  2  0  0  0  0  0  0  0  0  0
    8.6800  -14.1079   20.8957 C   0  0  0  0  0  0  0  0  0  0  0  0
    8.1018  -14.2806   22.2631 O   0  0  0  0  0  0  0  0  0  0  0  0
    7.0154  -13.7177   22.5076 C   0  0  0  0  0  0  0  0  0  0  0  0
    6.9238  -11.1251   27.3063 S   0  0  0  0  0  0  0  0  0  0  0  0
    6.3137  -12.8095   27.0370 C   0  0  0  0  0  0  0  0  0  0  0  0
    7.6628  -13.9566   26.6537 C   0  0  0  0  0  0  0  0  0  0  0  0
    7.5449  -14.4702   25.2225 C   0  0  2  0  0  0  0  0  0  0  0  0
    8.9159  -14.6323   24.6209 N   0  0  0  0  0  0  0  0  0  0  0  0
    8.7481  -15.0451   23.2394 C   0  0  0  0  0  0  0  0  0  0  0  0
    9.6228  -15.6868   25.4103 O   0  0  0  0  0  0  0  0  0  0  0  0
    9.8002  -15.5478   26.6456 O   0  0  0  0  0  0  0  0  0  0  0  0
  2  1  1  0
  3  2  2  0
  4  2  1  0
  5  6  1  0
  5  4  1  0
  6  7  1  0
  7  8  1  0
  8  9  1  1
 10  8  1  0
 11 10  2  0
 12 10  1  0
 12 16  1  0
 13 14  1  0
 13 12  1  0
 14 15  1  0
 15 16  1  0
 16 17  1  1
 17 18  2  0
 19 20  1  0
 20 21  1  0
 21 22  1  0
 23 22  1  6
 23 24  1  0
 23 25  1  0
 24 17  1  0
 25 27  1  0
 26 25  2  0
M  END
$$$$
