RPM.pdb
     RDKit          3D

 27 27  0  0  1  0  0  0  0  0999 V2000
   14.5308  -21.0332   19.4965 N   0  0  0  0  0  0  0  0  0  0  0  0
   13.6403  -22.1341   19.4968 C   0  0  0  0  0  0  0  0  0  0  0  0
   13.9773  -23.2314   18.8727 N   0  0  0  0  0  0  0  0  0  0  0  0
   12.3750  -22.1124   20.1509 N   0  0  0  0  0  0  0  0  0  0  0  0
   11.8890  -20.9051   20.8286 C   0  0  0  0  0  0  0  0  0  0  0  0
   10.9526  -20.1364   19.9460 C   0  0  0  0  0  0  0  0  0  0  0  0
   10.3185  -18.9749   20.6118 C   0  0  0  0  0  0  0  0  0  0  0  0
   10.5666  -17.6348   19.9775 C   0  0  2  0  0  0  0  0  0  0  0  0
   11.8952  -17.5628   19.4655 N   0  0  0  0  0  0  0  0  0  0  0  0
   10.0699  -16.4874   20.7163 C   0  0  0  0  0  0  0  0  0  0  0  0
   10.9223  -15.8413   21.4028 O   0  0  0  0  0  0  0  0  0  0  0  0
   13.3384  -24.0755   18.9175 N   0  0  0  0  0  0  0  0  0  0  0  0
    8.7184  -15.9930   20.7669 C   0  0  0  0  0  0  0  0  0  0  0  0
    7.6805  -16.4951   19.9156 C   0  0  0  0  0  0  0  0  0  0  0  0
    6.6192  -15.4021   19.9111 C   0  0  0  0  0  0  0  0  0  0  0  0
    6.8033  -14.6936   21.2190 C   0  0  2  0  0  0  0  0  0  0  0  0
    8.2101  -14.9693   21.6077 C   0  0  0  0  0  0  0  0  0  0  0  0
    8.2959  -15.3144   23.0595 O   0  0  0  0  0  0  0  0  0  0  0  0
    8.4720  -16.5126   23.3602 C   0  0  0  0  0  0  0  0  0  0  0  0
    5.8210  -11.1934   27.7246 S   0  0  0  0  0  0  0  0  0  0  0  0
    7.0614  -12.2273   28.5458 C   0  0  0  0  0  0  0  0  0  0  0  0
    7.3314  -13.7824   27.6563 C   0  0  0  0  0  0  0  0  0  0  0  0
    7.3571  -13.5457   26.1499 C   0  0  2  0  0  0  0  0  0  0  0  0
    8.1768  -14.6145   25.4764 N   0  0  0  0  0  0  0  0  0  0  0  0
    8.1850  -14.3355   24.0518 C   0  0  0  0  0  0  0  0  0  0  0  0
    7.5135  -15.9239   25.7593 O   0  0  0  0  0  0  0  0  0  0  0  0
    6.4898  -16.2720   25.1208 O   0  0  0  0  0  0  0  0  0  0  0  0
  2  1  1  0
  3  2  2  0
  4  2  1  0
  5  6  1  0
  5  4  1  0
  6  7  1  0
  7  8  1  0
  8  9  1  1
 10  8  1  0
 11 10  2  0
 12 10  1  0
 12 16  1  0
 13 14  1  0
 13 12  1  0
 14 15  1  0
 15 16  1  0
 16 17  1  1
 17 18  2  0
 19 20  1  0
 20 21  1  0
 21 22  1  0
 23 22  1  1
 23 24  1  0
 23 25  1  0
 24 17  1  0
 25 27  1  0
 26 25  2  0
M  END
$$$$
