RPM.pdb
     RDKit          3D

 27 27  0  0  1  0  0  0  0  0999 V2000
    7.9173  -12.2667   18.1604 N   0  0  0  0  0  0  0  0  0  0  0  0
    8.6944  -12.7631   19.2350 C   0  0  0  0  0  0  0  0  0  0  0  0
    9.9155  -12.3278   19.3977 N   0  0  0  0  0  0  0  0  0  0  0  0
    8.2113  -13.7279   20.1652 N   0  0  0  0  0  0  0  0  0  0  0  0
    6.9430  -14.4315   19.9426 C   0  0  0  0  0  0  0  0  0  0  0  0
    6.8970  -15.7108   20.7222 C   0  0  0  0  0  0  0  0  0  0  0  0
    7.7686  -16.7773   20.1768 C   0  0  0  0  0  0  0  0  0  0  0  0
    7.8707  -18.0309   21.0000 C   0  0  2  0  0  0  0  0  0  0  0  0
    6.6363  -18.7438   20.9796 N   0  0  0  0  0  0  0  0  0  0  0  0
    8.5423  -17.8902   22.2799 C   0  0  0  0  0  0  0  0  0  0  0  0
    7.8042  -17.9125   23.3143 O   0  0  0  0  0  0  0  0  0  0  0  0
   10.5312  -12.7644   20.1414 N   0  0  0  0  0  0  0  0  0  0  0  0
    9.9527  -17.7243   22.5184 C   0  0  0  0  0  0  0  0  0  0  0  0
   10.9167  -17.6953   21.4582 C   0  0  0  0  0  0  0  0  0  0  0  0
   12.2425  -18.0306   22.1296 C   0  0  0  0  0  0  0  0  0  0  0  0
   12.0687  -17.5839   23.5497 C   0  0  2  0  0  0  0  0  0  0  0  0
   10.6003  -17.5858   23.7733 C   0  0  0  0  0  0  0  0  0  0  0  0
   10.1797  -16.3557   24.5109 O   0  0  0  0  0  0  0  0  0  0  0  0
    9.8372  -15.3642   23.8351 C   0  0  0  0  0  0  0  0  0  0  0  0
    7.1568  -11.2548   26.3675 S   0  0  0  0  0  0  0  0  0  0  0  0
    6.5707  -12.9673   26.2919 C   0  0  0  0  0  0  0  0  0  0  0  0
    7.5490  -14.0572   27.3585 C   0  0  0  0  0  0  0  0  0  0  0  0
    8.1472  -15.2060   26.5534 C   0  0  1  0  0  0  0  0  0  0  0  0
    9.6474  -15.1972   26.6835 N   0  0  0  0  0  0  0  0  0  0  0  0
   10.1665  -16.3094   25.9084 C   0  0  0  0  0  0  0  0  0  0  0  0
    9.9660  -15.3639   28.1345 O   0  0  0  0  0  0  0  0  0  0  0  0
    9.8028  -14.4122   28.9372 O   0  0  0  0  0  0  0  0  0  0  0  0
  2  1  1  0
  3  2  2  0
  4  2  1  0
  5  6  1  0
  5  4  1  0
  6  7  1  0
  7  8  1  0
  8  9  1  1
 10  8  1  0
 11 10  2  0
 12 10  1  0
 12 16  1  0
 13 14  1  0
 13 12  1  0
 14 15  1  0
 15 16  1  0
 16 17  1  1
 17 18  2  0
 19 20  1  0
 20 21  1  0
 21 22  1  0
 23 22  1  6
 23 24  1  0
 23 25  1  0
 24 17  1  0
 25 27  1  0
 26 25  2  0
M  END
$$$$
