RPM.pdb
     RDKit          3D

 27 27  0  0  1  0  0  0  0  0999 V2000
    7.4488  -12.4059   18.5599 N   0  0  0  0  0  0  0  0  0  0  0  0
    8.3167  -13.4778   18.2391 C   0  0  0  0  0  0  0  0  0  0  0  0
    9.0247  -13.4231   17.1423 N   0  0  0  0  0  0  0  0  0  0  0  0
    8.4640  -14.6331   19.0593 N   0  0  0  0  0  0  0  0  0  0  0  0
    7.3110  -15.4705   19.4090 C   0  0  0  0  0  0  0  0  0  0  0  0
    6.5311  -14.8636   20.5360 C   0  0  0  0  0  0  0  0  0  0  0  0
    7.0039  -15.2701   21.8798 C   0  0  0  0  0  0  0  0  0  0  0  0
    7.1916  -16.7461   22.0942 C   0  0  2  0  0  0  0  0  0  0  0  0
    5.9526  -17.4345   21.9422 N   0  0  0  0  0  0  0  0  0  0  0  0
    8.0305  -17.1166   23.2203 C   0  0  0  0  0  0  0  0  0  0  0  0
    7.4552  -17.2146   24.3493 O   0  0  0  0  0  0  0  0  0  0  0  0
    9.6618  -14.2315   16.8906 N   0  0  0  0  0  0  0  0  0  0  0  0
    9.4453  -17.3848   23.2111 C   0  0  0  0  0  0  0  0  0  0  0  0
   10.1971  -17.5218   21.9986 C   0  0  0  0  0  0  0  0  0  0  0  0
   11.4500  -18.2882   22.4031 C   0  0  0  0  0  0  0  0  0  0  0  0
   11.6401  -17.9602   23.8532 C   0  0  2  0  0  0  0  0  0  0  0  0
   10.2913  -17.5671   24.3355 C   0  0  0  0  0  0  0  0  0  0  0  0
   10.3767  -16.3515   25.2010 O   0  0  0  0  0  0  0  0  0  0  0  0
   10.1623  -15.2444   24.6668 C   0  0  0  0  0  0  0  0  0  0  0  0
    7.1786  -11.3355   25.8449 S   0  0  0  0  0  0  0  0  0  0  0  0
    7.2770  -12.9670   26.6262 C   0  0  0  0  0  0  0  0  0  0  0  0
    8.9791  -13.5862   26.6706 C   0  0  0  0  0  0  0  0  0  0  0  0
    9.0502  -14.9185   27.4093 C   0  0  2  0  0  0  0  0  0  0  0  0
   10.4830  -15.3692   27.5181 N   0  0  0  0  0  0  0  0  0  0  0  0
   10.6841  -16.4428   26.5620 C   0  0  0  0  0  0  0  0  0  0  0  0
   10.6880  -15.8556   28.9168 O   0  0  0  0  0  0  0  0  0  0  0  0
   10.4954  -17.0618   29.2077 O   0  0  0  0  0  0  0  0  0  0  0  0
  2  1  1  0
  3  2  2  0
  4  2  1  0
  5  6  1  0
  5  4  1  0
  6  7  1  0
  7  8  1  0
  8  9  1  1
 10  8  1  0
 11 10  2  0
 12 10  1  0
 12 16  1  0
 13 14  1  0
 13 12  1  0
 14 15  1  0
 15 16  1  0
 16 17  1  6
 17 18  2  0
 19 20  1  0
 20 21  1  0
 21 22  1  0
 23 22  1  6
 23 24  1  0
 23 25  1  0
 24 17  1  0
 25 27  1  0
 26 25  2  0
M  END
$$$$
