QPG.pdb
     RDKit          3D

 21 21  0  0  1  0  0  0  0  0999 V2000
   14.9676  -10.1782  -10.6859 N   0  0  0  0  0  0  0  0  0  0  0  0
   13.9217   -9.5386   -9.9501 C   0  0  0  0  0  0  0  0  0  0  0  0
   13.0356  -10.2902   -9.4721 O   0  0  0  0  0  0  0  0  0  0  0  0
   13.8722   -8.0696   -9.7536 C   0  0  0  0  0  0  0  0  0  0  0  0
   15.0792   -7.4666  -10.4109 C   0  0  0  0  0  0  0  0  0  0  0  0
   16.3068   -7.5420   -9.5041 C   0  0  2  0  0  0  0  0  0  0  0  0
   16.0622   -6.8850   -8.2512 N   0  0  0  0  0  0  0  0  0  0  0  0
   17.4227   -7.0124  -10.2851 C   0  0  0  0  0  0  0  0  0  0  0  0
   17.7531   -5.7993   -9.9689 O   0  0  0  0  0  0  0  0  0  0  0  0
   18.1706   -7.6086  -11.3007 N   0  0  0  0  0  0  0  0  0  0  0  0
   17.9427   -8.9392  -11.8221 C   0  0  0  0  0  0  0  0  0  0  0  0
   19.3530   -9.4671  -11.9567 C   0  0  0  0  0  0  0  0  0  0  0  0
   20.2360   -8.2525  -12.0961 C   0  0  0  0  0  0  0  0  0  0  0  0
   19.2638   -7.0642  -12.0300 C   0  0  1  0  0  0  0  0  0  0  0  0
   18.9268   -6.7531  -13.4576 C   0  0  0  0  0  0  0  0  0  0  0  0
   18.1681   -7.4519  -14.1648 O   0  0  0  0  0  0  0  0  0  0  0  0
   19.5349   -5.5775  -13.9932 N   0  0  0  0  0  0  0  0  0  0  0  0
   20.7170   -5.0293  -13.3893 C   0  0  0  0  0  0  0  0  0  0  0  0
   21.0343   -3.7227  -14.0223 C   0  0  0  0  0  0  0  0  0  0  0  0
   20.3235   -2.7189  -13.7098 O   0  0  0  0  0  0  0  0  0  0  0  0
   22.0583   -3.5551  -14.9265 O   0  0  0  0  0  0  0  0  0  0  0  0
  2  1  1  0
  3  2  2  0
  4  2  1  0
  5  4  1  0
  6  5  1  0
  6  7  1  1
  6  8  1  0
  8  9  2  0
 10  8  1  0
 10 14  1  0
 11 10  1  0
 12 11  1  0
 12 13  1  0
 13 14  1  0
 14 15  1  6
 15 16  2  0
 15 17  1  0
 17 18  1  0
 18 19  1  0
 19 21  1  0
 20 19  2  0
M  END
$$$$
