QPG.pdb
     RDKit          3D

 21 21  0  0  1  0  0  0  0  0999 V2000
   16.9813  -10.6522  -18.7483 N   0  0  0  0  0  0  0  0  0  0  0  0
   18.2460  -11.1199  -19.2238 C   0  0  0  0  0  0  0  0  0  0  0  0
   18.2152  -12.0440  -20.0745 O   0  0  0  0  0  0  0  0  0  0  0  0
   19.5319  -10.5549  -18.7482 C   0  0  0  0  0  0  0  0  0  0  0  0
   19.2302   -9.3961  -17.8436 C   0  0  0  0  0  0  0  0  0  0  0  0
   19.6396   -9.6904  -16.4011 C   0  0  2  0  0  0  0  0  0  0  0  0
   18.9105  -10.8110  -15.8777 N   0  0  0  0  0  0  0  0  0  0  0  0
   19.4778   -8.4365  -15.6682 C   0  0  0  0  0  0  0  0  0  0  0  0
   18.3292   -8.3203  -15.0781 O   0  0  0  0  0  0  0  0  0  0  0  0
   20.3601   -7.3672  -15.5126 N   0  0  0  0  0  0  0  0  0  0  0  0
   21.6431   -7.2522  -16.1723 C   0  0  0  0  0  0  0  0  0  0  0  0
   22.5211   -6.7304  -15.0577 C   0  0  0  0  0  0  0  0  0  0  0  0
   21.5936   -6.0323  -14.0950 C   0  0  0  0  0  0  0  0  0  0  0  0
   20.1997   -6.1964  -14.7210 C   0  0  1  0  0  0  0  0  0  0  0  0
   19.9870   -4.9556  -15.5356 C   0  0  0  0  0  0  0  0  0  0  0  0
   20.4903   -4.7660  -16.6646 O   0  0  0  0  0  0  0  0  0  0  0  0
   19.1515   -3.9623  -14.9406 N   0  0  0  0  0  0  0  0  0  0  0  0
   18.6416   -2.8736  -15.7264 C   0  0  0  0  0  0  0  0  0  0  0  0
   19.6758   -1.8111  -15.8278 C   0  0  0  0  0  0  0  0  0  0  0  0
   20.2643   -1.4465  -14.7642 O   0  0  0  0  0  0  0  0  0  0  0  0
   20.0207   -1.2096  -17.0167 O   0  0  0  0  0  0  0  0  0  0  0  0
  2  1  1  0
  3  2  2  0
  4  2  1  0
  5  4  1  0
  6  5  1  0
  6  7  1  1
  6  8  1  0
  8  9  2  0
 10  8  1  0
 10 14  1  0
 11 10  1  0
 12 11  1  0
 12 13  1  0
 13 14  1  0
 14 15  1  6
 15 16  2  0
 15 17  1  0
 17 18  1  0
 18 19  1  0
 19 21  1  0
 20 19  2  0
M  END
$$$$
