QPG.pdb
     RDKit          3D

 21 21  0  0  1  0  0  0  0  0999 V2000
   23.1763  -14.0122  -20.5864 N   0  0  0  0  0  0  0  0  0  0  0  0
   23.4444  -15.3323  -20.1067 C   0  0  0  0  0  0  0  0  0  0  0  0
   24.1242  -16.0726  -20.8608 O   0  0  0  0  0  0  0  0  0  0  0  0
   22.9538  -15.8153  -18.7934 C   0  0  0  0  0  0  0  0  0  0  0  0
   22.2573  -14.6781  -18.1047 C   0  0  0  0  0  0  0  0  0  0  0  0
   21.6859  -15.1072  -16.7540 C   0  0  2  0  0  0  0  0  0  0  0  0
   20.6284  -16.0634  -16.9230 N   0  0  0  0  0  0  0  0  0  0  0  0
   21.3160  -13.8759  -16.0591 C   0  0  0  0  0  0  0  0  0  0  0  0
   20.0378  -13.7296  -15.8991 O   0  0  0  0  0  0  0  0  0  0  0  0
   22.1201  -12.8550  -15.5518 N   0  0  0  0  0  0  0  0  0  0  0  0
   23.5549  -12.7718  -15.7221 C   0  0  0  0  0  0  0  0  0  0  0  0
   24.0073  -12.3360  -14.3470 C   0  0  0  0  0  0  0  0  0  0  0  0
   22.8242  -11.6362  -13.7265 C   0  0  0  0  0  0  0  0  0  0  0  0
   21.7292  -11.7112  -14.8021 C   0  0  1  0  0  0  0  0  0  0  0  0
   21.8472  -10.4300  -15.5721 C   0  0  0  0  0  0  0  0  0  0  0  0
   22.7364  -10.2049  -16.4222 O   0  0  0  0  0  0  0  0  0  0  0  0
   20.8601   -9.4407  -15.2792 N   0  0  0  0  0  0  0  0  0  0  0  0
   20.7316   -8.2731  -16.1056 C   0  0  0  0  0  0  0  0  0  0  0  0
   21.5149   -7.1588  -15.5111 C   0  0  0  0  0  0  0  0  0  0  0  0
   21.4968   -6.0348  -16.0999 O   0  0  0  0  0  0  0  0  0  0  0  0
   22.2540   -7.2920  -14.3577 O   0  0  0  0  0  0  0  0  0  0  0  0
  2  1  1  0
  3  2  2  0
  4  2  1  0
  5  4  1  0
  6  5  1  0
  6  7  1  6
  6  8  1  0
  8  9  2  0
 10  8  1  0
 10 14  1  0
 11 10  1  0
 12 11  1  0
 12 13  1  0
 13 14  1  0
 14 15  1  6
 15 16  2  0
 15 17  1  0
 17 18  1  0
 18 19  1  0
 19 21  1  0
 20 19  2  0
M  END
$$$$
