QPG.pdb
     RDKit          3D

 21 21  0  0  1  0  0  0  0  0999 V2000
   19.7299  -23.6559  -13.2879 N   0  0  0  0  0  0  0  0  0  0  0  0
   18.5297  -23.1252  -12.7200 C   0  0  0  0  0  0  0  0  0  0  0  0
   17.4631  -23.3760  -13.3349 O   0  0  0  0  0  0  0  0  0  0  0  0
   18.5283  -22.3209  -11.4742 C   0  0  0  0  0  0  0  0  0  0  0  0
   19.9287  -22.2863  -10.9356 C   0  0  0  0  0  0  0  0  0  0  0  0
   20.2877  -20.9018  -10.3977 C   0  0  2  0  0  0  0  0  0  0  0  0
   19.1375  -20.0427  -10.3798 N   0  0  0  0  0  0  0  0  0  0  0  0
   21.4122  -20.4312  -11.2037 C   0  0  0  0  0  0  0  0  0  0  0  0
   21.0689  -19.6286  -12.1622 O   0  0  0  0  0  0  0  0  0  0  0  0
   22.7743  -20.7125  -11.0953 N   0  0  0  0  0  0  0  0  0  0  0  0
   23.3451  -21.7030  -10.2079 C   0  0  0  0  0  0  0  0  0  0  0  0
   24.5579  -20.9779   -9.6702 C   0  0  0  0  0  0  0  0  0  0  0  0
   24.9116  -19.9415  -10.7071 C   0  0  0  0  0  0  0  0  0  0  0  0
   23.8573  -20.1291  -11.8094 C   0  0  1  0  0  0  0  0  0  0  0  0
   24.4862  -21.0641  -12.7987 C   0  0  0  0  0  0  0  0  0  0  0  0
   24.6616  -22.2850  -12.5926 O   0  0  0  0  0  0  0  0  0  0  0  0
   24.8912  -20.4741  -14.0343 N   0  0  0  0  0  0  0  0  0  0  0  0
   23.9376  -19.7890  -14.8613 C   0  0  0  0  0  0  0  0  0  0  0  0
   24.5972  -19.3565  -16.1209 C   0  0  0  0  0  0  0  0  0  0  0  0
   24.4671  -20.0920  -17.1468 O   0  0  0  0  0  0  0  0  0  0  0  0
   25.3380  -18.2009  -16.2224 O   0  0  0  0  0  0  0  0  0  0  0  0
  2  1  1  0
  3  2  2  0
  4  2  1  0
  5  4  1  0
  6  5  1  0
  6  7  1  6
  6  8  1  0
  8  9  2  0
 10  8  1  0
 10 14  1  0
 11 10  1  0
 12 11  1  0
 12 13  1  0
 13 14  1  0
 14 15  1  6
 15 16  2  0
 15 17  1  0
 17 18  1  0
 18 19  1  0
 19 21  1  0
 20 19  2  0
M  END
$$$$
