QPG.pdb
     RDKit          3D

 21 21  0  0  1  0  0  0  0  0999 V2000
   22.7725  -20.3101  -12.0703 N   0  0  0  0  0  0  0  0  0  0  0  0
   22.5036  -21.1159  -10.9202 C   0  0  0  0  0  0  0  0  0  0  0  0
   21.3185  -21.1147  -10.5028 O   0  0  0  0  0  0  0  0  0  0  0  0
   23.5556  -21.9147  -10.2461 C   0  0  0  0  0  0  0  0  0  0  0  0
   24.8278  -21.7726  -11.0294 C   0  0  0  0  0  0  0  0  0  0  0  0
   25.8676  -20.9545  -10.2649 C   0  0  2  0  0  0  0  0  0  0  0  0
   25.2449  -20.1455   -9.2554 N   0  0  0  0  0  0  0  0  0  0  0  0
   26.6324  -20.2241  -11.2735 C   0  0  0  0  0  0  0  0  0  0  0  0
   26.1808  -19.0321  -11.5103 O   0  0  0  0  0  0  0  0  0  0  0  0
   27.7554  -20.6127  -12.0042 N   0  0  0  0  0  0  0  0  0  0  0  0
   28.4151  -21.8953  -11.8851 C   0  0  0  0  0  0  0  0  0  0  0  0
   29.8739  -21.4995  -11.9150 C   0  0  0  0  0  0  0  0  0  0  0  0
   29.9277  -20.1789  -12.6413 C   0  0  0  0  0  0  0  0  0  0  0  0
   28.4629  -19.8783  -12.9958 C   0  0  1  0  0  0  0  0  0  0  0  0
   28.2752  -20.4210  -14.3810 C   0  0  0  0  0  0  0  0  0  0  0  0
   28.1677  -21.6384  -14.6459 O   0  0  0  0  0  0  0  0  0  0  0  0
   28.2227  -19.4469  -15.4236 N   0  0  0  0  0  0  0  0  0  0  0  0
   27.6293  -19.7684  -16.6914 C   0  0  0  0  0  0  0  0  0  0  0  0
   26.1605  -19.5540  -16.6175 C   0  0  0  0  0  0  0  0  0  0  0  0
   25.4699  -20.3752  -15.9399 O   0  0  0  0  0  0  0  0  0  0  0  0
   25.5211  -18.5108  -17.2477 O   0  0  0  0  0  0  0  0  0  0  0  0
  2  1  1  0
  3  2  2  0
  4  2  1  0
  5  4  1  0
  6  5  1  0
  6  7  1  1
  6  8  1  0
  8  9  2  0
 10  8  1  0
 10 14  1  0
 11 10  1  0
 12 11  1  0
 12 13  1  0
 13 14  1  0
 14 15  1  6
 15 16  2  0
 15 17  1  0
 17 18  1  0
 18 19  1  0
 19 21  1  0
 20 19  2  0
M  END
$$$$
