QPG.pdb
     RDKit          3D

 21 21  0  0  1  0  0  0  0  0999 V2000
   22.2032  -19.8547  -13.7419 N   0  0  0  0  0  0  0  0  0  0  0  0
   21.5284  -20.7002  -12.8068 C   0  0  0  0  0  0  0  0  0  0  0  0
   20.2909  -20.5203  -12.6841 O   0  0  0  0  0  0  0  0  0  0  0  0
   22.2368  -21.7369  -12.0180 C   0  0  0  0  0  0  0  0  0  0  0  0
   23.6671  -21.7763  -12.4708 C   0  0  0  0  0  0  0  0  0  0  0  0
   24.5938  -21.1057  -11.4576 C   0  0  2  0  0  0  0  0  0  0  0  0
   23.8548  -20.6226  -10.3255 N   0  0  0  0  0  0  0  0  0  0  0  0
   25.3426  -20.0931  -12.1990 C   0  0  0  0  0  0  0  0  0  0  0  0
   24.9812  -18.8767  -11.9334 O   0  0  0  0  0  0  0  0  0  0  0  0
   26.3695  -20.2397  -13.1318 N   0  0  0  0  0  0  0  0  0  0  0  0
   26.8482  -21.5071  -13.6410 C   0  0  0  0  0  0  0  0  0  0  0  0
   28.3454  -21.2978  -13.6403 C   0  0  0  0  0  0  0  0  0  0  0  0
   28.5532  -19.8067  -13.7295 C   0  0  0  0  0  0  0  0  0  0  0  0
   27.1313  -19.2253  -13.7751 C   0  0  1  0  0  0  0  0  0  0  0  0
   26.8131  -19.0810  -15.2333 C   0  0  0  0  0  0  0  0  0  0  0  0
   26.3012  -19.9848  -15.9297 O   0  0  0  0  0  0  0  0  0  0  0  0
   27.1335  -17.8159  -15.8126 N   0  0  0  0  0  0  0  0  0  0  0  0
   26.2644  -16.6880  -15.6251 C   0  0  0  0  0  0  0  0  0  0  0  0
   25.0166  -16.8909  -16.4065 C   0  0  0  0  0  0  0  0  0  0  0  0
   23.9085  -16.8195  -15.7922 O   0  0  0  0  0  0  0  0  0  0  0  0
   25.0107  -17.1509  -17.7580 O   0  0  0  0  0  0  0  0  0  0  0  0
  2  1  1  0
  3  2  2  0
  4  2  1  0
  5  4  1  0
  6  5  1  0
  6  7  1  1
  6  8  1  0
  8  9  2  0
 10  8  1  0
 10 14  1  0
 11 10  1  0
 12 11  1  0
 12 13  1  0
 13 14  1  0
 14 15  1  6
 15 16  2  0
 15 17  1  0
 17 18  1  0
 18 19  1  0
 19 21  1  0
 20 19  2  0
M  END
$$$$
