QPG.pdb
     RDKit          3D

 21 21  0  0  1  0  0  0  0  0999 V2000
   19.5975  -12.7600  -20.1092 N   0  0  0  0  0  0  0  0  0  0  0  0
   19.2203  -14.0293  -19.5696 C   0  0  0  0  0  0  0  0  0  0  0  0
   18.8050  -14.8838  -20.3918 O   0  0  0  0  0  0  0  0  0  0  0  0
   19.3090  -14.3350  -18.1213 C   0  0  0  0  0  0  0  0  0  0  0  0
   19.8102  -13.1108  -17.4124 C   0  0  0  0  0  0  0  0  0  0  0  0
   19.8297  -13.3097  -15.8974 C   0  0  2  0  0  0  0  0  0  0  0  0
   18.5560  -13.7719  -15.4227 N   0  0  0  0  0  0  0  0  0  0  0  0
   20.2934  -12.0466  -15.3272 C   0  0  0  0  0  0  0  0  0  0  0  0
   19.3400  -11.3027  -14.8598 O   0  0  0  0  0  0  0  0  0  0  0  0
   21.5857  -11.5337  -15.2132 N   0  0  0  0  0  0  0  0  0  0  0  0
   22.7717  -12.1526  -15.7653 C   0  0  0  0  0  0  0  0  0  0  0  0
   23.7677  -11.9752  -14.6419 C   0  0  0  0  0  0  0  0  0  0  0  0
   23.2862  -10.7865  -13.8482 C   0  0  0  0  0  0  0  0  0  0  0  0
   22.0084  -10.3358  -14.5733 C   0  0  1  0  0  0  0  0  0  0  0  0
   22.4563   -9.2768  -15.5358 C   0  0  0  0  0  0  0  0  0  0  0  0
   22.7233   -9.4931  -16.7383 O   0  0  0  0  0  0  0  0  0  0  0  0
   22.5684   -7.9597  -14.9961 N   0  0  0  0  0  0  0  0  0  0  0  0
   21.4570   -7.3536  -14.3178 C   0  0  0  0  0  0  0  0  0  0  0  0
   20.5609   -6.7116  -15.3145 C   0  0  0  0  0  0  0  0  0  0  0  0
   19.8182   -5.7592  -14.9247 O   0  0  0  0  0  0  0  0  0  0  0  0
   20.5018   -7.1023  -16.6329 O   0  0  0  0  0  0  0  0  0  0  0  0
  2  1  1  0
  3  2  2  0
  4  2  1  0
  5  4  1  0
  6  5  1  0
  6  7  1  1
  6  8  1  0
  8  9  2  0
 10  8  1  0
 10 14  1  0
 11 10  1  0
 12 11  1  0
 12 13  1  0
 13 14  1  0
 14 15  1  6
 15 16  2  0
 15 17  1  0
 17 18  1  0
 18 19  1  0
 19 21  1  0
 20 19  2  0
M  END
$$$$
