QPG.pdb
     RDKit          3D

 21 21  0  0  1  0  0  0  0  0999 V2000
   20.1339  -14.1885  -20.5692 N   0  0  0  0  0  0  0  0  0  0  0  0
   19.9319  -15.5568  -20.2069 C   0  0  0  0  0  0  0  0  0  0  0  0
   19.4351  -16.3002  -21.0897 O   0  0  0  0  0  0  0  0  0  0  0  0
   20.2845  -16.0842  -18.8666 C   0  0  0  0  0  0  0  0  0  0  0  0
   20.8505  -14.9578  -18.0522 C   0  0  0  0  0  0  0  0  0  0  0  0
   21.1457  -15.3966  -16.6186 C   0  0  2  0  0  0  0  0  0  0  0  0
   20.1603  -16.3314  -16.1534 N   0  0  0  0  0  0  0  0  0  0  0  0
   21.2686  -14.1694  -15.8346 C   0  0  0  0  0  0  0  0  0  0  0  0
   20.1716  -13.8165  -15.2405 O   0  0  0  0  0  0  0  0  0  0  0  0
   22.3711  -13.3383  -15.6347 N   0  0  0  0  0  0  0  0  0  0  0  0
   23.6587  -13.5062  -16.2738 C   0  0  0  0  0  0  0  0  0  0  0  0
   24.6113  -13.2322  -15.1323 C   0  0  0  0  0  0  0  0  0  0  0  0
   23.8516  -12.3642  -14.1608 C   0  0  0  0  0  0  0  0  0  0  0  0
   22.4702  -12.1839  -14.8097 C   0  0  1  0  0  0  0  0  0  0  0  0
   22.5665  -10.9062  -15.5886 C   0  0  0  0  0  0  0  0  0  0  0  0
   23.0280  -10.8277  -16.7482 O   0  0  0  0  0  0  0  0  0  0  0  0
   22.0888   -9.7384  -14.9201 N   0  0  0  0  0  0  0  0  0  0  0  0
   21.3666   -8.7294  -15.6433 C   0  0  0  0  0  0  0  0  0  0  0  0
   20.9143   -7.6741  -14.6997 C   0  0  0  0  0  0  0  0  0  0  0  0
   21.6487   -6.6497  -14.5519 O   0  0  0  0  0  0  0  0  0  0  0  0
   19.7417   -7.7588  -13.9841 O   0  0  0  0  0  0  0  0  0  0  0  0
  2  1  1  0
  3  2  2  0
  4  2  1  0
  5  4  1  0
  6  5  1  0
  6  7  1  1
  6  8  1  0
  8  9  2  0
 10  8  1  0
 10 14  1  0
 11 10  1  0
 12 11  1  0
 12 13  1  0
 13 14  1  0
 14 15  1  6
 15 16  2  0
 15 17  1  0
 17 18  1  0
 18 19  1  0
 19 21  1  0
 20 19  2  0
M  END
$$$$
