QPG.pdb
     RDKit          3D

 21 21  0  0  1  0  0  0  0  0999 V2000
   20.9687  -12.2485  -20.9655 N   0  0  0  0  0  0  0  0  0  0  0  0
   19.7683  -12.9254  -20.5840 C   0  0  0  0  0  0  0  0  0  0  0  0
   19.0676  -13.3879  -21.5188 O   0  0  0  0  0  0  0  0  0  0  0  0
   19.3599  -13.0809  -19.1670 C   0  0  0  0  0  0  0  0  0  0  0  0
   20.3585  -12.3613  -18.3084 C   0  0  0  0  0  0  0  0  0  0  0  0
   20.4833  -13.0107  -16.9308 C   0  0  2  0  0  0  0  0  0  0  0  0
   19.3180  -13.7905  -16.6221 N   0  0  0  0  0  0  0  0  0  0  0  0
   20.7816  -11.9277  -15.9960 C   0  0  0  0  0  0  0  0  0  0  0  0
   19.7792  -11.5949  -15.2442 O   0  0  0  0  0  0  0  0  0  0  0  0
   21.9634  -11.2136  -15.7969 N   0  0  0  0  0  0  0  0  0  0  0  0
   23.2049  -11.4587  -16.4990 C   0  0  0  0  0  0  0  0  0  0  0  0
   24.2210  -11.3415  -15.3858 C   0  0  0  0  0  0  0  0  0  0  0  0
   23.5823  -10.4684  -14.3350 C   0  0  0  0  0  0  0  0  0  0  0  0
   22.2004  -10.1247  -14.9129 C   0  0  1  0  0  0  0  0  0  0  0  0
   22.3858   -8.8164  -15.6216 C   0  0  0  0  0  0  0  0  0  0  0  0
   22.8688   -8.7059  -16.7699 O   0  0  0  0  0  0  0  0  0  0  0  0
   21.9698   -7.6580  -14.8978 N   0  0  0  0  0  0  0  0  0  0  0  0
   21.6041   -6.4565  -15.5944 C   0  0  0  0  0  0  0  0  0  0  0  0
   21.1239   -5.4456  -14.6165 C   0  0  0  0  0  0  0  0  0  0  0  0
   21.4688   -4.2366  -14.7886 O   0  0  0  0  0  0  0  0  0  0  0  0
   20.3268   -5.7616  -13.5399 O   0  0  0  0  0  0  0  0  0  0  0  0
  2  1  1  0
  3  2  2  0
  4  2  1  0
  5  4  1  0
  6  5  1  0
  6  7  1  1
  6  8  1  0
  8  9  2  0
 10  8  1  0
 10 14  1  0
 11 10  1  0
 12 11  1  0
 12 13  1  0
 13 14  1  0
 14 15  1  6
 15 16  2  0
 15 17  1  0
 17 18  1  0
 18 19  1  0
 19 21  1  0
 20 19  2  0
M  END
$$$$
