QPG.pdb
     RDKit          3D

 21 21  0  0  1  0  0  0  0  0999 V2000
   26.1980  -21.2344   -9.7669 N   0  0  0  0  0  0  0  0  0  0  0  0
   24.8602  -20.9408  -10.1775 C   0  0  0  0  0  0  0  0  0  0  0  0
   24.0589  -20.6055   -9.2697 O   0  0  0  0  0  0  0  0  0  0  0  0
   24.4276  -21.0231  -11.5935 C   0  0  0  0  0  0  0  0  0  0  0  0
   25.6279  -21.3486  -12.4335 C   0  0  0  0  0  0  0  0  0  0  0  0
   26.5593  -20.1448  -12.5694 C   0  0  2  0  0  0  0  0  0  0  0  0
   26.5463  -19.3469  -11.3759 N   0  0  0  0  0  0  0  0  0  0  0  0
   26.1558  -19.4542  -13.7925 C   0  0  0  0  0  0  0  0  0  0  0  0
   25.0725  -18.7536  -13.6643 O   0  0  0  0  0  0  0  0  0  0  0  0
   26.7533  -19.4377  -15.0530 N   0  0  0  0  0  0  0  0  0  0  0  0
   27.9256  -20.2022  -15.4215 C   0  0  0  0  0  0  0  0  0  0  0  0
   28.7123  -19.1960  -16.2303 C   0  0  0  0  0  0  0  0  0  0  0  0
   27.7005  -18.2105  -16.7589 C   0  0  0  0  0  0  0  0  0  0  0  0
   26.3557  -18.7133  -16.2107 C   0  0  1  0  0  0  0  0  0  0  0  0
   25.7934  -19.5871  -17.2918 C   0  0  0  0  0  0  0  0  0  0  0  0
   26.4398  -20.4895  -17.8679 O   0  0  0  0  0  0  0  0  0  0  0  0
   24.4342  -19.3322  -17.6470 N   0  0  0  0  0  0  0  0  0  0  0  0
   23.7025  -18.2712  -17.0131 C   0  0  0  0  0  0  0  0  0  0  0  0
   22.4301  -18.8083  -16.4642 C   0  0  0  0  0  0  0  0  0  0  0  0
   21.3403  -18.3827  -16.9557 O   0  0  0  0  0  0  0  0  0  0  0  0
   22.3827  -19.7408  -15.4530 O   0  0  0  0  0  0  0  0  0  0  0  0
  2  1  1  0
  3  2  2  0
  4  2  1  0
  5  4  1  0
  6  5  1  0
  6  7  1  1
  6  8  1  0
  8  9  2  0
 10  8  1  0
 10 14  1  0
 11 10  1  0
 12 11  1  0
 12 13  1  0
 13 14  1  0
 14 15  1  6
 15 16  2  0
 15 17  1  0
 17 18  1  0
 18 19  1  0
 19 21  1  0
 20 19  2  0
M  END
$$$$
