QPG.pdb
     RDKit          3D

 21 21  0  0  1  0  0  0  0  0999 V2000
   15.8692  -21.2667    0.9088 N   0  0  0  0  0  0  0  0  0  0  0  0
   15.1252  -21.7558    2.0275 C   0  0  0  0  0  0  0  0  0  0  0  0
   14.3720  -20.9295    2.6009 O   0  0  0  0  0  0  0  0  0  0  0  0
   15.2264  -23.1587    2.4970 C   0  0  0  0  0  0  0  0  0  0  0  0
   16.2850  -23.8498    1.6881 C   0  0  0  0  0  0  0  0  0  0  0  0
   16.4959  -25.2894    2.1552 C   0  0  2  0  0  0  0  0  0  0  0  0
   15.2406  -25.9678    2.3142 N   0  0  0  0  0  0  0  0  0  0  0  0
   17.3250  -25.2102    3.3560 C   0  0  0  0  0  0  0  0  0  0  0  0
   16.8381  -25.8533    4.3710 O   0  0  0  0  0  0  0  0  0  0  0  0
   18.5399  -24.5577    3.5668 N   0  0  0  0  0  0  0  0  0  0  0  0
   19.2526  -23.7948    2.5644 C   0  0  0  0  0  0  0  0  0  0  0  0
   20.6820  -24.2252    2.8031 C   0  0  0  0  0  0  0  0  0  0  0  0
   20.7411  -24.6797    4.2399 C   0  0  0  0  0  0  0  0  0  0  0  0
   19.3087  -24.4842    4.7613 C   0  0  1  0  0  0  0  0  0  0  0  0
   19.3016  -23.1215    5.3870 C   0  0  0  0  0  0  0  0  0  0  0  0
   19.2055  -22.0558    4.7397 O   0  0  0  0  0  0  0  0  0  0  0  0
   19.4138  -23.0953    6.8102 N   0  0  0  0  0  0  0  0  0  0  0  0
   19.0171  -21.9304    7.5506 C   0  0  0  0  0  0  0  0  0  0  0  0
   19.2209  -22.1751    9.0023 C   0  0  0  0  0  0  0  0  0  0  0  0
   18.5728  -23.1212    9.5457 O   0  0  0  0  0  0  0  0  0  0  0  0
   20.0760  -21.4254    9.7776 O   0  0  0  0  0  0  0  0  0  0  0  0
  2  1  1  0
  3  2  2  0
  4  2  1  0
  5  4  1  0
  6  5  1  0
  6  7  1  1
  6  8  1  0
  8  9  2  0
 10  8  1  0
 10 14  1  0
 11 10  1  0
 12 11  1  0
 12 13  1  0
 13 14  1  0
 14 15  1  6
 15 16  2  0
 15 17  1  0
 17 18  1  0
 18 19  1  0
 19 21  1  0
 20 19  2  0
M  END
$$$$
