QPG.pdb
     RDKit          3D

 21 21  0  0  1  0  0  0  0  0999 V2000
   20.2884  -10.9592  -20.8384 N   0  0  0  0  0  0  0  0  0  0  0  0
   19.4273  -12.0763  -20.6036 C   0  0  0  0  0  0  0  0  0  0  0  0
   18.8169  -12.5300  -21.6037 O   0  0  0  0  0  0  0  0  0  0  0  0
   19.2542  -12.6772  -19.2591 C   0  0  0  0  0  0  0  0  0  0  0  0
   20.1435  -11.9434  -18.2983 C   0  0  0  0  0  0  0  0  0  0  0  0
   19.9762  -12.4638  -16.8714 C   0  0  2  0  0  0  0  0  0  0  0  0
   18.6670  -13.0203  -16.6769 N   0  0  0  0  0  0  0  0  0  0  0  0
   20.3249  -11.3521  -15.9893 C   0  0  0  0  0  0  0  0  0  0  0  0
   19.3005  -10.7861  -15.4314 O   0  0  0  0  0  0  0  0  0  0  0  0
   21.5733  -10.8209  -15.6649 N   0  0  0  0  0  0  0  0  0  0  0  0
   22.8317  -11.2692  -16.2217 C   0  0  0  0  0  0  0  0  0  0  0  0
   23.7259  -11.2797  -15.0027 C   0  0  0  0  0  0  0  0  0  0  0  0
   23.1179  -10.2935  -14.0372 C   0  0  0  0  0  0  0  0  0  0  0  0
   21.8767   -9.7587  -14.7688 C   0  0  1  0  0  0  0  0  0  0  0  0
   22.3374   -8.5119  -15.4630 C   0  0  0  0  0  0  0  0  0  0  0  0
   22.7510   -8.4811  -16.6428 O   0  0  0  0  0  0  0  0  0  0  0  0
   22.2801   -7.3157  -14.6856 N   0  0  0  0  0  0  0  0  0  0  0  0
   21.0503   -6.9082  -14.0656 C   0  0  0  0  0  0  0  0  0  0  0  0
   20.2122   -6.1869  -15.0586 C   0  0  0  0  0  0  0  0  0  0  0  0
   19.1878   -5.5669  -14.6381 O   0  0  0  0  0  0  0  0  0  0  0  0
   20.4967   -6.1622  -16.4049 O   0  0  0  0  0  0  0  0  0  0  0  0
  2  1  1  0
  3  2  2  0
  4  2  1  0
  5  4  1  0
  6  5  1  0
  6  7  1  6
  6  8  1  0
  8  9  2  0
 10  8  1  0
 10 14  1  0
 11 10  1  0
 12 11  1  0
 12 13  1  0
 13 14  1  0
 14 15  1  6
 15 16  2  0
 15 17  1  0
 17 18  1  0
 18 19  1  0
 19 21  1  0
 20 19  2  0
M  END
$$$$
