QPG.pdb
     RDKit          3D

 21 21  0  0  1  0  0  0  0  0999 V2000
   26.8066  -14.5588  -14.8291 N   0  0  0  0  0  0  0  0  0  0  0  0
   26.6633  -15.4898  -15.9049 C   0  0  0  0  0  0  0  0  0  0  0  0
   27.2895  -15.2227  -16.9610 O   0  0  0  0  0  0  0  0  0  0  0  0
   25.8251  -16.7080  -15.7950 C   0  0  0  0  0  0  0  0  0  0  0  0
   26.5106  -17.6681  -14.8672 C   0  0  0  0  0  0  0  0  0  0  0  0
   26.7514  -19.0197  -15.5380 C   0  0  2  0  0  0  0  0  0  0  0  0
   26.8157  -18.8814  -16.9656 N   0  0  0  0  0  0  0  0  0  0  0  0
   25.7085  -19.9134  -15.0387 C   0  0  0  0  0  0  0  0  0  0  0  0
   24.8540  -20.2767  -15.9434 O   0  0  0  0  0  0  0  0  0  0  0  0
   25.5015  -20.4237  -13.7569 N   0  0  0  0  0  0  0  0  0  0  0  0
   26.2919  -20.0814  -12.5940 C   0  0  0  0  0  0  0  0  0  0  0  0
   26.4640  -21.4271  -11.9268 C   0  0  0  0  0  0  0  0  0  0  0  0
   25.3003  -22.2678  -12.3887 C   0  0  0  0  0  0  0  0  0  0  0  0
   24.5048  -21.3397  -13.3201 C   0  0  1  0  0  0  0  0  0  0  0  0
   23.4620  -20.7080  -12.4472 C   0  0  0  0  0  0  0  0  0  0  0  0
   23.6904  -19.7690  -11.6534 O   0  0  0  0  0  0  0  0  0  0  0  0
   22.1459  -21.2481  -12.5684 N   0  0  0  0  0  0  0  0  0  0  0  0
   21.1432  -20.5589  -13.3315 C   0  0  0  0  0  0  0  0  0  0  0  0
   19.8783  -21.3385  -13.3029 C   0  0  0  0  0  0  0  0  0  0  0  0
   18.9121  -20.8852  -12.6162 O   0  0  0  0  0  0  0  0  0  0  0  0
   19.7103  -22.5226  -13.9840 O   0  0  0  0  0  0  0  0  0  0  0  0
  2  1  1  0
  3  2  2  0
  4  2  1  0
  5  4  1  0
  6  5  1  0
  6  7  1  6
  6  8  1  0
  8  9  2  0
 10  8  1  0
 10 14  1  0
 11 10  1  0
 12 11  1  0
 12 13  1  0
 13 14  1  0
 14 15  1  1
 15 16  2  0
 15 17  1  0
 17 18  1  0
 18 19  1  0
 19 21  1  0
 20 19  2  0
M  END
$$$$
