QPG.pdb
     RDKit          3D

 21 21  0  0  1  0  0  0  0  0999 V2000
   25.7458  -14.9599  -20.1456 N   0  0  0  0  0  0  0  0  0  0  0  0
   25.5436  -13.6653  -19.5733 C   0  0  0  0  0  0  0  0  0  0  0  0
   25.7412  -12.6831  -20.3315 O   0  0  0  0  0  0  0  0  0  0  0  0
   25.1238  -13.4766  -18.1636 C   0  0  0  0  0  0  0  0  0  0  0  0
   24.1466  -12.3386  -18.1126 C   0  0  0  0  0  0  0  0  0  0  0  0
   22.8062  -12.7776  -17.5247 C   0  0  2  0  0  0  0  0  0  0  0  0
   21.9999  -13.4332  -18.5153 N   0  0  0  0  0  0  0  0  0  0  0  0
   22.2160  -11.5844  -16.9218 C   0  0  0  0  0  0  0  0  0  0  0  0
   21.4178  -10.9388  -17.7135 O   0  0  0  0  0  0  0  0  0  0  0  0
   22.3813  -11.0486  -15.6444 N   0  0  0  0  0  0  0  0  0  0  0  0
   23.2985  -11.5577  -14.6474 C   0  0  0  0  0  0  0  0  0  0  0  0
   22.4625  -11.4870  -13.3898 C   0  0  0  0  0  0  0  0  0  0  0  0
   21.4272  -10.4199  -13.6425 C   0  0  0  0  0  0  0  0  0  0  0  0
   21.7290   -9.9248  -15.0657 C   0  0  1  0  0  0  0  0  0  0  0  0
   22.6340   -8.7427  -14.8862 C   0  0  0  0  0  0  0  0  0  0  0  0
   23.8773   -8.8243  -14.7789 O   0  0  0  0  0  0  0  0  0  0  0  0
   21.9865   -7.4709  -14.8417 N   0  0  0  0  0  0  0  0  0  0  0  0
   22.7567   -6.2596  -14.8872 C   0  0  0  0  0  0  0  0  0  0  0  0
   22.0467   -5.1944  -14.1322 C   0  0  0  0  0  0  0  0  0  0  0  0
   20.8684   -5.4337  -13.7261 O   0  0  0  0  0  0  0  0  0  0  0  0
   22.6076   -3.9682  -13.8562 O   0  0  0  0  0  0  0  0  0  0  0  0
  2  1  1  0
  3  2  2  0
  4  2  1  0
  5  4  1  0
  6  5  1  0
  6  7  1  6
  6  8  1  0
  8  9  2  0
 10  8  1  0
 10 14  1  0
 11 10  1  0
 12 11  1  0
 12 13  1  0
 13 14  1  0
 14 15  1  1
 15 16  2  0
 15 17  1  0
 17 18  1  0
 18 19  1  0
 19 21  1  0
 20 19  2  0
M  END
$$$$
