WIA.pdb
     RDKit          3D

 28 29  0  0  1  0  0  0  0  0999 V2000
   26.5973  -20.8761  -12.9209 N   0  0  0  0  0  0  0  0  0  0  0  0
   25.3224  -20.6345  -12.2876 C   0  0  1  0  0  0  0  0  0  0  0  0
   24.1435  -21.0978  -13.1109 C   0  0  0  0  0  0  0  0  0  0  0  0
   24.0800  -20.3171  -14.3717 C   0  0  0  0  0  0  0  0  0  0  0  0
   24.9453  -20.3925  -15.4354 C   0  0  0  0  0  0  0  0  0  0  0  0
   24.5739  -19.5143  -16.3689 N   0  0  0  0  0  0  0  0  0  0  0  0
   23.4893  -18.8550  -15.9655 C   0  0  0  0  0  0  0  0  0  0  0  0
   22.7298  -17.8564  -16.5805 C   0  0  0  0  0  0  0  0  0  0  0  0
   21.6426  -17.3485  -15.9431 C   0  0  0  0  0  0  0  0  0  0  0  0
   21.2921  -17.8168  -14.6973 C   0  0  0  0  0  0  0  0  0  0  0  0
   22.0490  -18.8104  -14.0863 C   0  0  0  0  0  0  0  0  0  0  0  0
   23.1501  -19.3319  -14.7178 C   0  0  0  0  0  0  0  0  0  0  0  0
   25.3494  -21.2432  -10.9461 C   0  0  0  0  0  0  0  0  0  0  0  0
   25.5474  -22.4633  -10.7904 O   0  0  0  0  0  0  0  0  0  0  0  0
   27.6970  -18.8304   -7.0712 C   0  0  0  0  0  0  0  0  0  0  0  0
   27.0851  -19.9962   -7.8595 C   0  0  0  0  0  0  0  0  0  0  0  0
   25.6386  -20.1266   -7.5226 C   0  0  2  0  0  0  0  0  0  0  0  0
   25.4950  -20.5969   -6.1008 C   0  0  0  0  0  0  0  0  0  0  0  0
   24.8485  -20.9638   -8.5012 C   0  0  2  0  0  0  0  0  0  0  0  0
   25.1474  -20.4181   -9.8156 N   0  0  0  0  0  0  0  0  0  0  0  0
   23.4118  -21.0326   -8.2133 C   0  0  0  0  0  0  0  0  0  0  0  0
   22.6908  -19.9920   -8.2422 O   0  0  0  0  0  0  0  0  0  0  0  0
   20.6553  -23.4850   -8.2835 C   0  0  0  0  0  0  0  0  0  0  0  0
   21.3421  -22.3456   -7.5910 C   0  0  2  0  0  0  0  0  0  0  0  0
   22.7548  -22.2520   -7.8909 N   0  0  0  0  0  0  0  0  0  0  0  0
   21.1716  -22.5020   -6.1046 C   0  0  0  0  0  0  0  0  0  0  0  0
   20.0532  -22.4023   -5.5827 O   0  0  0  0  0  0  0  0  0  0  0  0
   22.2600  -22.7613   -5.2832 O   0  0  0  0  0  0  0  0  0  0  0  0
  2  1  1  6
  3  2  1  0
  4  3  1  0
  4  5  2  0
  6  5  1  0
  7  6  1  0
  8  7  2  0
  9  8  1  0
 10  9  2  0
 10 11  1  0
 11 12  2  0
 12  7  1  0
 12  4  1  0
 13 20  1  0
 13  2  1  0
 14 13  2  0
 15 16  1  0
 16 17  1  0
 17 19  1  0
 17 18  1  1
 19 21  1  0
 19 20  1  6
 21 22  2  0
 24 23  1  6
 25 24  1  0
 25 21  1  0
 26 24  1  0
 26 28  1  0
 27 26  2  0
M  END
$$$$
