WIA.pdb
     RDKit          3D

 28 29  0  0  1  0  0  0  0  0999 V2000
   26.8608  -21.5349  -13.4564 N   0  0  0  0  0  0  0  0  0  0  0  0
   26.5053  -20.5183  -12.4948 C   0  0  1  0  0  0  0  0  0  0  0  0
   25.3547  -19.6456  -12.9383 C   0  0  0  0  0  0  0  0  0  0  0  0
   25.6824  -19.0150  -14.2414 C   0  0  0  0  0  0  0  0  0  0  0  0
   24.7958  -18.5792  -15.1952 C   0  0  0  0  0  0  0  0  0  0  0  0
   25.4729  -18.0969  -16.2390 N   0  0  0  0  0  0  0  0  0  0  0  0
   26.7822  -18.1951  -16.0149 C   0  0  0  0  0  0  0  0  0  0  0  0
   27.8850  -17.8277  -16.7900 C   0  0  0  0  0  0  0  0  0  0  0  0
   29.1410  -18.0332  -16.3142 C   0  0  0  0  0  0  0  0  0  0  0  0
   29.3245  -18.6008  -15.0739 C   0  0  0  0  0  0  0  0  0  0  0  0
   28.2260  -18.9663  -14.3037 C   0  0  0  0  0  0  0  0  0  0  0  0
   26.9518  -18.7656  -14.7719 C   0  0  0  0  0  0  0  0  0  0  0  0
   26.2510  -21.1745  -11.2003 C   0  0  0  0  0  0  0  0  0  0  0  0
   26.0800  -22.4058  -11.1188 O   0  0  0  0  0  0  0  0  0  0  0  0
   28.2447  -18.7280   -6.9266 C   0  0  0  0  0  0  0  0  0  0  0  0
   27.7681  -19.9336   -7.7478 C   0  0  0  0  0  0  0  0  0  0  0  0
   26.2807  -20.0215   -7.6953 C   0  0  2  0  0  0  0  0  0  0  0  0
   25.8504  -20.4215   -6.3103 C   0  0  0  0  0  0  0  0  0  0  0  0
   25.6739  -20.8894   -8.7729 C   0  0  2  0  0  0  0  0  0  0  0  0
   26.2035  -20.3833  -10.0291 N   0  0  0  0  0  0  0  0  0  0  0  0
   24.2086  -20.9516   -8.7428 C   0  0  0  0  0  0  0  0  0  0  0  0
   23.5071  -19.9383   -9.0336 O   0  0  0  0  0  0  0  0  0  0  0  0
   22.2616  -21.3885   -6.3946 C   0  0  0  0  0  0  0  0  0  0  0  0
   22.2320  -22.1322   -7.6968 C   0  0  2  0  0  0  0  0  0  0  0  0
   23.5013  -22.1345   -8.3919 N   0  0  0  0  0  0  0  0  0  0  0  0
   21.1915  -21.5139   -8.5900 C   0  0  0  0  0  0  0  0  0  0  0  0
   21.5046  -20.6538   -9.4239 O   0  0  0  0  0  0  0  0  0  0  0  0
   19.8585  -21.8906   -8.5024 O   0  0  0  0  0  0  0  0  0  0  0  0
  2  1  1  6
  3  2  1  0
  4  3  1  0
  4  5  2  0
  6  5  1  0
  7  6  1  0
  8  7  2  0
  9  8  1  0
 10  9  2  0
 10 11  1  0
 11 12  2  0
 12  7  1  0
 12  4  1  0
 13 20  1  0
 13  2  1  0
 14 13  2  0
 15 16  1  0
 16 17  1  0
 17 19  1  0
 17 18  1  1
 19 21  1  0
 19 20  1  6
 21 22  2  0
 24 23  1  1
 25 24  1  0
 25 21  1  0
 26 24  1  0
 26 28  1  0
 27 26  2  0
M  END
$$$$
