WIA.pdb
     RDKit          3D

 28 29  0  0  1  0  0  0  0  0999 V2000
   20.7824  -18.7843  -14.4947 N   0  0  0  0  0  0  0  0  0  0  0  0
   21.8026  -19.4387  -15.2793 C   0  0  1  0  0  0  0  0  0  0  0  0
   21.8425  -18.9802  -16.7182 C   0  0  0  0  0  0  0  0  0  0  0  0
   20.5574  -19.3134  -17.3820 C   0  0  0  0  0  0  0  0  0  0  0  0
   19.5959  -18.4321  -17.8115 C   0  0  0  0  0  0  0  0  0  0  0  0
   18.5736  -19.1140  -18.3318 N   0  0  0  0  0  0  0  0  0  0  0  0
   18.8197  -20.4213  -18.2651 C   0  0  0  0  0  0  0  0  0  0  0  0
   18.0718  -21.5271  -18.6772 C   0  0  0  0  0  0  0  0  0  0  0  0
   18.5665  -22.7797  -18.4970 C   0  0  0  0  0  0  0  0  0  0  0  0
   19.7993  -22.9569  -17.9113 C   0  0  0  0  0  0  0  0  0  0  0  0
   20.5424  -21.8554  -17.5014 C   0  0  0  0  0  0  0  0  0  0  0  0
   20.0549  -20.5846  -17.6761 C   0  0  0  0  0  0  0  0  0  0  0  0
   23.0956  -19.2650  -14.5944 C   0  0  0  0  0  0  0  0  0  0  0  0
   23.5746  -18.1336  -14.3884 O   0  0  0  0  0  0  0  0  0  0  0  0
   24.4558  -21.0071  -10.0118 C   0  0  0  0  0  0  0  0  0  0  0  0
   24.3560  -20.2881  -11.3638 C   0  0  0  0  0  0  0  0  0  0  0  0
   25.2259  -20.9725  -12.3627 C   0  0  2  0  0  0  0  0  0  0  0  0
   26.6202  -21.0973  -11.8117 C   0  0  0  0  0  0  0  0  0  0  0  0
   25.1915  -20.3531  -13.7403 C   0  0  2  0  0  0  0  0  0  0  0  0
   23.8012  -20.4119  -14.1627 N   0  0  0  0  0  0  0  0  0  0  0  0
   26.1170  -20.9653  -14.6998 C   0  0  0  0  0  0  0  0  0  0  0  0
   26.0404  -22.1968  -14.9843 O   0  0  0  0  0  0  0  0  0  0  0  0
   28.9577  -19.7986  -16.9655 C   0  0  0  0  0  0  0  0  0  0  0  0
   28.0767  -20.8073  -16.2902 C   0  0  2  0  0  0  0  0  0  0  0  0
   27.1373  -20.2237  -15.3567 N   0  0  0  0  0  0  0  0  0  0  0  0
   28.9395  -21.7962  -15.5549 C   0  0  0  0  0  0  0  0  0  0  0  0
   29.0388  -21.7539  -14.3214 O   0  0  0  0  0  0  0  0  0  0  0  0
   29.6436  -22.7778  -16.2382 O   0  0  0  0  0  0  0  0  0  0  0  0
  2  1  1  1
  3  2  1  0
  4  3  1  0
  4  5  2  0
  6  5  1  0
  7  6  1  0
  8  7  2  0
  9  8  1  0
 10  9  2  0
 10 11  1  0
 11 12  2  0
 12  7  1  0
 12  4  1  0
 13 20  1  0
 13  2  1  0
 14 13  2  0
 15 16  1  0
 16 17  1  0
 17 19  1  0
 17 18  1  1
 19 21  1  0
 19 20  1  6
 21 22  2  0
 24 23  1  1
 25 24  1  0
 25 21  1  0
 26 24  1  0
 26 28  1  0
 27 26  2  0
M  END
$$$$
