WIA.pdb
     RDKit          3D

 28 29  0  0  1  0  0  0  0  0999 V2000
   27.4210  -20.3940  -13.9721 N   0  0  0  0  0  0  0  0  0  0  0  0
   26.5711  -19.7452  -13.0018 C   0  0  1  0  0  0  0  0  0  0  0  0
   25.2266  -19.3366  -13.5564 C   0  0  0  0  0  0  0  0  0  0  0  0
   25.4200  -18.5496  -14.7999 C   0  0  0  0  0  0  0  0  0  0  0  0
   24.9440  -18.8518  -16.0521 C   0  0  0  0  0  0  0  0  0  0  0  0
   25.3501  -17.9187  -16.9152 N   0  0  0  0  0  0  0  0  0  0  0  0
   26.0811  -17.0027  -16.2822 C   0  0  0  0  0  0  0  0  0  0  0  0
   26.7148  -15.8448  -16.7400 C   0  0  0  0  0  0  0  0  0  0  0  0
   27.4034  -15.0639  -15.8669 C   0  0  0  0  0  0  0  0  0  0  0  0
   27.4752  -15.4131  -14.5376 C   0  0  0  0  0  0  0  0  0  0  0  0
   26.8442  -16.5660  -14.0834 C   0  0  0  0  0  0  0  0  0  0  0  0
   26.1462  -17.3647  -14.9540 C   0  0  0  0  0  0  0  0  0  0  0  0
   26.4540  -20.6263  -11.8267 C   0  0  0  0  0  0  0  0  0  0  0  0
   26.5229  -21.8655  -11.9347 O   0  0  0  0  0  0  0  0  0  0  0  0
   27.9970  -18.7404   -7.1862 C   0  0  0  0  0  0  0  0  0  0  0  0
   27.6609  -19.8980   -8.1360 C   0  0  0  0  0  0  0  0  0  0  0  0
   26.1836  -20.0909   -8.1905 C   0  0  2  0  0  0  0  0  0  0  0  0
   25.7178  -20.7587   -6.9254 C   0  0  0  0  0  0  0  0  0  0  0  0
   25.6967  -20.7906   -9.4380 C   0  0  2  0  0  0  0  0  0  0  0  0
   26.2614  -20.0455  -10.5518 N   0  0  0  0  0  0  0  0  0  0  0  0
   24.2393  -20.9381   -9.5166 C   0  0  0  0  0  0  0  0  0  0  0  0
   23.4747  -19.9379   -9.3807 O   0  0  0  0  0  0  0  0  0  0  0  0
   21.7504  -23.6079  -10.5354 C   0  0  0  0  0  0  0  0  0  0  0  0
   22.1746  -22.3700   -9.8025 C   0  0  2  0  0  0  0  0  0  0  0  0
   23.6098  -22.1924   -9.7472 N   0  0  0  0  0  0  0  0  0  0  0  0
   21.6387  -22.4250   -8.3979 C   0  0  0  0  0  0  0  0  0  0  0  0
   20.4193  -22.3955   -8.1850 O   0  0  0  0  0  0  0  0  0  0  0  0
   22.4947  -22.5101   -7.3087 O   0  0  0  0  0  0  0  0  0  0  0  0
  2  1  1  6
  3  2  1  0
  4  3  1  0
  4  5  2  0
  6  5  1  0
  7  6  1  0
  8  7  2  0
  9  8  1  0
 10  9  2  0
 10 11  1  0
 11 12  2  0
 12  7  1  0
 12  4  1  0
 13 20  1  0
 13  2  1  0
 14 13  2  0
 15 16  1  0
 16 17  1  0
 17 19  1  0
 17 18  1  1
 19 21  1  0
 19 20  1  6
 21 22  2  0
 24 23  1  1
 25 24  1  0
 25 21  1  0
 26 24  1  0
 26 28  1  0
 27 26  2  0
M  END
$$$$
