WIA.pdb
     RDKit          3D

 28 29  0  0  1  0  0  0  0  0999 V2000
   25.9416  -20.7507  -16.6471 N   0  0  0  0  0  0  0  0  0  0  0  0
   26.5440  -20.0848  -15.5165 C   0  0  1  0  0  0  0  0  0  0  0  0
   25.7405  -18.9094  -15.0114 C   0  0  0  0  0  0  0  0  0  0  0  0
   25.5938  -17.9052  -16.0945 C   0  0  0  0  0  0  0  0  0  0  0  0
   24.4215  -17.3933  -16.5941 C   0  0  0  0  0  0  0  0  0  0  0  0
   24.6987  -16.5373  -17.5795 N   0  0  0  0  0  0  0  0  0  0  0  0
   26.0167  -16.4594  -17.7552 C   0  0  0  0  0  0  0  0  0  0  0  0
   26.7902  -15.7090  -18.6444 C   0  0  0  0  0  0  0  0  0  0  0  0
   28.1447  -15.8096  -18.6091 C   0  0  0  0  0  0  0  0  0  0  0  0
   28.7509  -16.6471  -17.7007 C   0  0  0  0  0  0  0  0  0  0  0  0
   27.9799  -17.3935  -16.8164 C   0  0  0  0  0  0  0  0  0  0  0  0
   26.6108  -17.3028  -16.8414 C   0  0  0  0  0  0  0  0  0  0  0  0
   26.7966  -21.0892  -14.4686 C   0  0  0  0  0  0  0  0  0  0  0  0
   26.1141  -22.1282  -14.3867 O   0  0  0  0  0  0  0  0  0  0  0  0
   31.2826  -21.7178  -10.2710 C   0  0  0  0  0  0  0  0  0  0  0  0
   29.9833  -22.2874  -10.8560 C   0  0  0  0  0  0  0  0  0  0  0  0
   29.3994  -21.3156  -11.8243 C   0  0  2  0  0  0  0  0  0  0  0  0
   29.3473  -19.9502  -11.1949 C   0  0  0  0  0  0  0  0  0  0  0  0
   28.0735  -21.7447  -12.4079 C   0  0  2  0  0  0  0  0  0  0  0  0
   27.8394  -20.8631  -13.5405 N   0  0  0  0  0  0  0  0  0  0  0  0
   26.9674  -21.7598  -11.4446 C   0  0  0  0  0  0  0  0  0  0  0  0
   26.4205  -22.8479  -11.0971 O   0  0  0  0  0  0  0  0  0  0  0  0
   25.6582  -19.4610   -8.8004 C   0  0  0  0  0  0  0  0  0  0  0  0
   25.4673  -20.5685   -9.7937 C   0  0  2  0  0  0  0  0  0  0  0  0
   26.4531  -20.5731  -10.8532 N   0  0  0  0  0  0  0  0  0  0  0  0
   24.0986  -20.4463  -10.4059 C   0  0  0  0  0  0  0  0  0  0  0  0
   23.0818  -20.5541   -9.7074 O   0  0  0  0  0  0  0  0  0  0  0  0
   23.9413  -20.2104  -11.7646 O   0  0  0  0  0  0  0  0  0  0  0  0
  2  1  1  6
  3  2  1  0
  4  3  1  0
  4  5  2  0
  6  5  1  0
  7  6  1  0
  8  7  2  0
  9  8  1  0
 10  9  2  0
 10 11  1  0
 11 12  2  0
 12  7  1  0
 12  4  1  0
 13 20  1  0
 13  2  1  0
 14 13  2  0
 15 16  1  0
 16 17  1  0
 17 19  1  0
 17 18  1  1
 19 21  1  0
 19 20  1  6
 21 22  2  0
 24 23  1  1
 25 24  1  0
 25 21  1  0
 26 24  1  0
 26 28  1  0
 27 26  2  0
M  END
$$$$
