WIA.pdb
     RDKit          3D

 28 29  0  0  1  0  0  0  0  0999 V2000
   26.4648  -20.7859  -13.2060 N   0  0  0  0  0  0  0  0  0  0  0  0
   25.2316  -20.5223  -12.5028 C   0  0  1  0  0  0  0  0  0  0  0  0
   23.9993  -20.9382  -13.2714 C   0  0  0  0  0  0  0  0  0  0  0  0
   23.9013  -20.1441  -14.5216 C   0  0  0  0  0  0  0  0  0  0  0  0
   24.7529  -20.1882  -15.5980 C   0  0  0  0  0  0  0  0  0  0  0  0
   24.3498  -19.3072  -16.5155 N   0  0  0  0  0  0  0  0  0  0  0  0
   23.2572  -18.6760  -16.0890 C   0  0  0  0  0  0  0  0  0  0  0  0
   22.4681  -17.6867  -16.6811 C   0  0  0  0  0  0  0  0  0  0  0  0
   21.3795  -17.2098  -16.0225 C   0  0  0  0  0  0  0  0  0  0  0  0
   21.0566  -17.7004  -14.7778 C   0  0  0  0  0  0  0  0  0  0  0  0
   21.8430  -18.6848  -14.1896 C   0  0  0  0  0  0  0  0  0  0  0  0
   22.9460  -19.1749  -14.8426 C   0  0  0  0  0  0  0  0  0  0  0  0
   25.3111  -21.1568  -11.1754 C   0  0  0  0  0  0  0  0  0  0  0  0
   25.3835  -22.3942  -11.0503 O   0  0  0  0  0  0  0  0  0  0  0  0
   27.8187  -18.9448   -7.0309 C   0  0  0  0  0  0  0  0  0  0  0  0
   27.1645  -19.9725   -7.9639 C   0  0  0  0  0  0  0  0  0  0  0  0
   25.6951  -20.0140   -7.7149 C   0  0  2  0  0  0  0  0  0  0  0  0
   25.4391  -20.4268   -6.2910 C   0  0  0  0  0  0  0  0  0  0  0  0
   24.9213  -20.8412   -8.7148 C   0  0  2  0  0  0  0  0  0  0  0  0
   25.3065  -20.3369  -10.0232 N   0  0  0  0  0  0  0  0  0  0  0  0
   23.4705  -20.8471   -8.4981 C   0  0  0  0  0  0  0  0  0  0  0  0
   22.7720  -19.8176   -8.7342 O   0  0  0  0  0  0  0  0  0  0  0  0
   20.5063  -22.7291   -8.6460 C   0  0  0  0  0  0  0  0  0  0  0  0
   21.3697  -21.9858   -7.6704 C   0  0  2  0  0  0  0  0  0  0  0  0
   22.7744  -21.9909   -8.0187 N   0  0  0  0  0  0  0  0  0  0  0  0
   21.2065  -22.5989   -6.3064 C   0  0  0  0  0  0  0  0  0  0  0  0
   22.1217  -23.2587   -5.7964 O   0  0  0  0  0  0  0  0  0  0  0  0
   20.0298  -22.4408   -5.5875 O   0  0  0  0  0  0  0  0  0  0  0  0
  2  1  1  6
  3  2  1  0
  4  3  1  0
  4  5  2  0
  6  5  1  0
  7  6  1  0
  8  7  2  0
  9  8  1  0
 10  9  2  0
 10 11  1  0
 11 12  2  0
 12  7  1  0
 12  4  1  0
 13 20  1  0
 13  2  1  0
 14 13  2  0
 15 16  1  0
 16 17  1  0
 17 19  1  0
 17 18  1  1
 19 21  1  0
 19 20  1  6
 21 22  2  0
 24 23  1  6
 25 24  1  0
 25 21  1  0
 26 24  1  0
 26 28  1  0
 27 26  2  0
M  END
$$$$
