WIA.pdb
     RDKit          3D

 28 29  0  0  1  0  0  0  0  0999 V2000
   25.5196  -20.4353  -10.6068 N   0  0  0  0  0  0  0  0  0  0  0  0
   25.1746  -20.7887  -11.9635 C   0  0  1  0  0  0  0  0  0  0  0  0
   26.1828  -21.6997  -12.6236 C   0  0  0  0  0  0  0  0  0  0  0  0
   27.4692  -20.9786  -12.7922 C   0  0  0  0  0  0  0  0  0  0  0  0
   28.5400  -20.9861  -11.9325 C   0  0  0  0  0  0  0  0  0  0  0  0
   29.4990  -20.1941  -12.4159 N   0  0  0  0  0  0  0  0  0  0  0  0
   29.1056  -19.6580  -13.5700 C   0  0  0  0  0  0  0  0  0  0  0  0
   29.7456  -18.7824  -14.4508 C   0  0  0  0  0  0  0  0  0  0  0  0
   29.1131  -18.3884  -15.5869 C   0  0  0  0  0  0  0  0  0  0  0  0
   27.8476  -18.8508  -15.8677 C   0  0  0  0  0  0  0  0  0  0  0  0
   27.2117  -19.7219  -14.9901 C   0  0  0  0  0  0  0  0  0  0  0  0
   27.8380  -20.1274  -13.8383 C   0  0  0  0  0  0  0  0  0  0  0  0
   23.8150  -21.3566  -11.9623 C   0  0  0  0  0  0  0  0  0  0  0  0
   23.6005  -22.5274  -11.5944 O   0  0  0  0  0  0  0  0  0  0  0  0
   19.9502  -18.5579   -9.9015 C   0  0  0  0  0  0  0  0  0  0  0  0
   20.8940  -19.6401  -10.4428 C   0  0  0  0  0  0  0  0  0  0  0  0
   20.5045  -19.9953  -11.8374 C   0  0  2  0  0  0  0  0  0  0  0  0
   19.0404  -20.3390  -11.8772 C   0  0  0  0  0  0  0  0  0  0  0  0
   21.3745  -21.0552  -12.4718 C   0  0  2  0  0  0  0  0  0  0  0  0
   22.7350  -20.5486  -12.3873 N   0  0  0  0  0  0  0  0  0  0  0  0
   20.9760  -21.4264  -13.8339 C   0  0  0  0  0  0  0  0  0  0  0  0
   21.0643  -20.5978  -14.7874 O   0  0  0  0  0  0  0  0  0  0  0  0
   19.8614  -24.5851  -15.6475 C   0  0  0  0  0  0  0  0  0  0  0  0
   20.0727  -23.1083  -15.4922 C   0  0  2  0  0  0  0  0  0  0  0  0
   20.4761  -22.7176  -14.1584 N   0  0  0  0  0  0  0  0  0  0  0  0
   18.7969  -22.3920  -15.8419 C   0  0  0  0  0  0  0  0  0  0  0  0
   17.9748  -22.0998  -14.9633 O   0  0  0  0  0  0  0  0  0  0  0  0
   18.5101  -22.0415  -17.1539 O   0  0  0  0  0  0  0  0  0  0  0  0
  2  1  1  1
  3  2  1  0
  4  3  1  0
  4  5  2  0
  6  5  1  0
  7  6  1  0
  8  7  2  0
  9  8  1  0
 10  9  2  0
 10 11  1  0
 11 12  2  0
 12  7  1  0
 12  4  1  0
 13 20  1  0
 13  2  1  0
 14 13  2  0
 15 16  1  0
 16 17  1  0
 17 19  1  0
 17 18  1  1
 19 21  1  0
 19 20  1  6
 21 22  2  0
 24 23  1  1
 25 24  1  0
 25 21  1  0
 26 24  1  0
 26 28  1  0
 27 26  2  0
M  END
$$$$
