WIA.pdb
     RDKit          3D

 28 29  0  0  1  0  0  0  0  0999 V2000
   27.5299  -22.5185  -12.2726 N   0  0  0  0  0  0  0  0  0  0  0  0
   26.5978  -21.4871  -11.8828 C   0  0  1  0  0  0  0  0  0  0  0  0
   27.2633  -20.1820  -11.5140 C   0  0  0  0  0  0  0  0  0  0  0  0
   28.1316  -20.3845  -10.3273 C   0  0  0  0  0  0  0  0  0  0  0  0
   29.4078  -20.8913  -10.3134 C   0  0  0  0  0  0  0  0  0  0  0  0
   29.8469  -20.9457   -9.0545 N   0  0  0  0  0  0  0  0  0  0  0  0
   28.9075  -20.4919   -8.2265 C   0  0  0  0  0  0  0  0  0  0  0  0
   28.8895  -20.3446   -6.8373 C   0  0  0  0  0  0  0  0  0  0  0  0
   27.7858  -19.8379   -6.2280 C   0  0  0  0  0  0  0  0  0  0  0  0
   26.6911  -19.4715   -6.9774 C   0  0  0  0  0  0  0  0  0  0  0  0
   26.7103  -19.6189   -8.3600 C   0  0  0  0  0  0  0  0  0  0  0  0
   27.8178  -20.1303   -8.9886 C   0  0  0  0  0  0  0  0  0  0  0  0
   25.6040  -21.3306  -12.9593 C   0  0  0  0  0  0  0  0  0  0  0  0
   25.9478  -21.0670  -14.1274 O   0  0  0  0  0  0  0  0  0  0  0  0
   23.0473  -25.0686  -14.6899 C   0  0  0  0  0  0  0  0  0  0  0  0
   23.6881  -23.6935  -14.4591 C   0  0  0  0  0  0  0  0  0  0  0  0
   22.6751  -22.7544  -13.8982 C   0  0  2  0  0  0  0  0  0  0  0  0
   21.4369  -22.7836  -14.7522 C   0  0  0  0  0  0  0  0  0  0  0  0
   23.1930  -21.3550  -13.6614 C   0  0  2  0  0  0  0  0  0  0  0  0
   24.2323  -21.4864  -12.6528 N   0  0  0  0  0  0  0  0  0  0  0  0
   22.1561  -20.3808  -13.3042 C   0  0  0  0  0  0  0  0  0  0  0  0
   21.4643  -20.5212  -12.2529 O   0  0  0  0  0  0  0  0  0  0  0  0
   20.7049  -17.1830  -14.8043 C   0  0  0  0  0  0  0  0  0  0  0  0
   20.7672  -18.3397  -13.8516 C   0  0  2  0  0  0  0  0  0  0  0  0
   21.8720  -19.2397  -14.1040 N   0  0  0  0  0  0  0  0  0  0  0  0
   19.4810  -19.1150  -13.9384 C   0  0  0  0  0  0  0  0  0  0  0  0
   19.3668  -20.0636  -14.7261 O   0  0  0  0  0  0  0  0  0  0  0  0
   18.3935  -18.7880  -13.1405 O   0  0  0  0  0  0  0  0  0  0  0  0
  2  1  1  6
  3  2  1  0
  4  3  1  0
  4  5  2  0
  6  5  1  0
  7  6  1  0
  8  7  2  0
  9  8  1  0
 10  9  2  0
 10 11  1  0
 11 12  2  0
 12  7  1  0
 12  4  1  0
 13 20  1  0
 13  2  1  0
 14 13  2  0
 15 16  1  0
 16 17  1  0
 17 19  1  0
 17 18  1  6
 19 21  1  0
 19 20  1  1
 21 22  2  0
 24 23  1  6
 25 24  1  0
 25 21  1  0
 26 24  1  0
 26 28  1  0
 27 26  2  0
M  END
$$$$
