WIA.pdb
     RDKit          3D

 28 29  0  0  1  0  0  0  0  0999 V2000
   28.3693  -21.1037  -15.6081 N   0  0  0  0  0  0  0  0  0  0  0  0
   27.6148  -20.2220  -14.7492 C   0  0  1  0  0  0  0  0  0  0  0  0
   26.8245  -19.1780  -15.5026 C   0  0  0  0  0  0  0  0  0  0  0  0
   27.7541  -18.1928  -16.1095 C   0  0  0  0  0  0  0  0  0  0  0  0
   29.0984  -18.3560  -16.3376 C   0  0  0  0  0  0  0  0  0  0  0  0
   29.5939  -17.2380  -16.8715 N   0  0  0  0  0  0  0  0  0  0  0  0
   28.6262  -16.3332  -17.0086 C   0  0  0  0  0  0  0  0  0  0  0  0
   28.6399  -15.0315  -17.5160 C   0  0  0  0  0  0  0  0  0  0  0  0
   27.4887  -14.3105  -17.5518 C   0  0  0  0  0  0  0  0  0  0  0  0
   26.3151  -14.8615  -17.0902 C   0  0  0  0  0  0  0  0  0  0  0  0
   26.3029  -16.1570  -16.5852 C   0  0  0  0  0  0  0  0  0  0  0  0
   27.4582  -16.8964  -16.5420 C   0  0  0  0  0  0  0  0  0  0  0  0
   26.7679  -21.0463  -13.8692 C   0  0  0  0  0  0  0  0  0  0  0  0
   26.3498  -22.1629  -14.2302 O   0  0  0  0  0  0  0  0  0  0  0  0
   27.1031  -20.3792   -8.4619 C   0  0  0  0  0  0  0  0  0  0  0  0
   26.9384  -20.9661   -9.8701 C   0  0  0  0  0  0  0  0  0  0  0  0
   25.5744  -20.6576  -10.3871 C   0  0  2  0  0  0  0  0  0  0  0  0
   24.5431  -21.1799   -9.4243 C   0  0  0  0  0  0  0  0  0  0  0  0
   25.3344  -21.1106  -11.8083 C   0  0  2  0  0  0  0  0  0  0  0  0
   26.4283  -20.5535  -12.5880 N   0  0  0  0  0  0  0  0  0  0  0  0
   24.0098  -20.7652  -12.3356 C   0  0  0  0  0  0  0  0  0  0  0  0
   23.5811  -19.5745  -12.2917 O   0  0  0  0  0  0  0  0  0  0  0  0
   21.3475  -22.4180  -14.4622 C   0  0  0  0  0  0  0  0  0  0  0  0
   21.8415  -21.4138  -13.4637 C   0  0  2  0  0  0  0  0  0  0  0  0
   23.1439  -21.7312  -12.9183 N   0  0  0  0  0  0  0  0  0  0  0  0
   20.8528  -21.3199  -12.3338 C   0  0  0  0  0  0  0  0  0  0  0  0
   19.7966  -20.6880  -12.4690 O   0  0  0  0  0  0  0  0  0  0  0  0
   21.0986  -21.9374  -11.1153 O   0  0  0  0  0  0  0  0  0  0  0  0
  2  1  1  6
  3  2  1  0
  4  3  1  0
  4  5  2  0
  6  5  1  0
  7  6  1  0
  8  7  2  0
  9  8  1  0
 10  9  2  0
 10 11  1  0
 11 12  2  0
 12  7  1  0
 12  4  1  0
 13 20  1  0
 13  2  1  0
 14 13  2  0
 15 16  1  0
 16 17  1  0
 17 19  1  0
 17 18  1  1
 19 21  1  0
 19 20  1  6
 21 22  2  0
 24 23  1  6
 25 24  1  0
 25 21  1  0
 26 24  1  0
 26 28  1  0
 27 26  2  0
M  END
$$$$
