WIA.pdb
     RDKit          3D

 28 29  0  0  1  0  0  0  0  0999 V2000
   25.2451  -21.3870  -13.5500 N   0  0  0  0  0  0  0  0  0  0  0  0
   25.0247  -20.3750  -12.5442 C   0  0  1  0  0  0  0  0  0  0  0  0
   24.0268  -19.3197  -12.9600 C   0  0  0  0  0  0  0  0  0  0  0  0
   24.3866  -18.7962  -14.3015 C   0  0  0  0  0  0  0  0  0  0  0  0
   23.5349  -18.5600  -15.3525 C   0  0  0  0  0  0  0  0  0  0  0  0
   24.2367  -18.1185  -16.3980 N   0  0  0  0  0  0  0  0  0  0  0  0
   25.5286  -18.0510  -16.0812 C   0  0  0  0  0  0  0  0  0  0  0  0
   26.6441  -17.6491  -16.8202 C   0  0  0  0  0  0  0  0  0  0  0  0
   27.8751  -17.6674  -16.2453 C   0  0  0  0  0  0  0  0  0  0  0  0
   28.0209  -18.0800  -14.9404 C   0  0  0  0  0  0  0  0  0  0  0  0
   26.9099  -18.4799  -14.2061 C   0  0  0  0  0  0  0  0  0  0  0  0
   25.6608  -18.4676  -14.7742 C   0  0  0  0  0  0  0  0  0  0  0  0
   24.6479  -21.0458  -11.2876 C   0  0  0  0  0  0  0  0  0  0  0  0
   24.1429  -22.1846  -11.2855 O   0  0  0  0  0  0  0  0  0  0  0  0
   27.5105  -19.4829   -6.9973 C   0  0  0  0  0  0  0  0  0  0  0  0
   26.7470  -20.3601   -7.9985 C   0  0  0  0  0  0  0  0  0  0  0  0
   25.2823  -20.2627   -7.7376 C   0  0  2  0  0  0  0  0  0  0  0  0
   24.9867  -20.7546   -6.3469 C   0  0  0  0  0  0  0  0  0  0  0  0
   24.4213  -20.9220   -8.7896 C   0  0  2  0  0  0  0  0  0  0  0  0
   24.8690  -20.3770  -10.0614 N   0  0  0  0  0  0  0  0  0  0  0  0
   22.9789  -20.7725   -8.5687 C   0  0  0  0  0  0  0  0  0  0  0  0
   22.3042  -19.9224   -9.2211 O   0  0  0  0  0  0  0  0  0  0  0  0
   20.4096  -22.5477   -8.9161 C   0  0  0  0  0  0  0  0  0  0  0  0
   20.8382  -21.7943   -7.6921 C   0  0  2  0  0  0  0  0  0  0  0  0
   22.2649  -21.5612   -7.6249 N   0  0  0  0  0  0  0  0  0  0  0  0
   20.4147  -22.5635   -6.4707 C   0  0  0  0  0  0  0  0  0  0  0  0
   19.2162  -22.6859   -6.1848 O   0  0  0  0  0  0  0  0  0  0  0  0
   21.3536  -23.1537   -5.6361 O   0  0  0  0  0  0  0  0  0  0  0  0
  2  1  1  6
  3  2  1  0
  4  3  1  0
  4  5  2  0
  6  5  1  0
  7  6  1  0
  8  7  2  0
  9  8  1  0
 10  9  2  0
 10 11  1  0
 11 12  2  0
 12  7  1  0
 12  4  1  0
 13 20  1  0
 13  2  1  0
 14 13  2  0
 15 16  1  0
 16 17  1  0
 17 19  1  0
 17 18  1  1
 19 21  1  0
 19 20  1  6
 21 22  2  0
 24 23  1  6
 25 24  1  0
 25 21  1  0
 26 24  1  0
 26 28  1  0
 27 26  2  0
M  END
$$$$
