PCQ.pdb
     RDKit          3D

 23 23  0  0  1  0  0  0  0  0999 V2000
   16.6409  -24.9604   -5.4440 N   0  0  0  0  0  0  0  0  0  0  0  0
   17.0149  -25.1305   -6.8126 C   0  0  0  0  0  0  0  0  0  0  0  0
   15.8906  -25.9523   -7.4036 C   0  0  0  0  0  0  0  0  0  0  0  0
   15.6278  -26.9397   -6.2583 C   0  0  0  0  0  0  0  0  0  0  0  0
   15.7613  -26.0257   -5.0649 C   0  0  1  0  0  0  0  0  0  0  0  0
   16.3144  -26.7098   -3.8773 C   0  0  0  0  0  0  0  0  0  0  0  0
   15.7377  -27.7290   -3.4223 O   0  0  0  0  0  0  0  0  0  0  0  0
   17.4888  -26.2538   -3.2209 N   0  0  0  0  0  0  0  0  0  0  0  0
   18.0721  -26.9219   -2.0879 C   0  0  1  0  0  0  0  0  0  0  0  0
   19.5754  -26.9671   -2.1373 C   0  0  0  0  0  0  0  0  0  0  0  0
   20.3456  -27.0843   -0.5262 S   0  0  0  0  0  0  0  0  0  0  0  0
   17.5687  -26.3300   -0.8075 C   0  0  0  0  0  0  0  0  0  0  0  0
   17.5340  -25.0809   -0.6268 O   0  0  0  0  0  0  0  0  0  0  0  0
   14.0443  -29.7387    3.3539 N   0  0  0  0  0  0  0  0  0  0  0  0
   14.0868  -28.4308    3.8808 C   0  0  0  0  0  0  0  0  0  0  0  0
   13.3745  -28.1950    4.9155 O   0  0  0  0  0  0  0  0  0  0  0  0
   14.9023  -27.3741    3.2996 C   0  0  0  0  0  0  0  0  0  0  0  0
   15.6635  -27.6702    2.0791 C   0  0  0  0  0  0  0  0  0  0  0  0
   16.5465  -26.6071    1.4961 C   0  0  2  0  0  0  0  0  0  0  0  0
   17.1197  -27.1617    0.2305 N   0  0  0  0  0  0  0  0  0  0  0  0
   17.6568  -26.2444    2.3527 C   0  0  0  0  0  0  0  0  0  0  0  0
   17.5598  -25.2038    3.2637 O   0  0  0  0  0  0  0  0  0  0  0  0
   18.7575  -26.8495    2.3029 O   0  0  0  0  0  0  0  0  0  0  0  0
  1  2  1  0
  1  5  1  0
  3  4  1  0
  3  2  1  0
  4  5  1  0
  6  7  2  0
  5  6  1  1
  8  6  1  0
  9 12  1  0
  9  8  1  0
  9 10  1  6
 11 10  1  0
 12 20  1  0
 13 12  2  0
 15 14  1  0
 15 16  2  0
 17 15  1  0
 18 17  1  0
 19 18  1  1
 20 19  1  0
 21 22  1  0
 21 19  1  0
 23 21  2  0
M  END
$$$$
