PCQ.pdb
     RDKit          3D

 23 23  0  0  1  0  0  0  0  0999 V2000
   19.6048   -9.4750  -16.6226 N   0  0  0  0  0  0  0  0  0  0  0  0
   20.5722  -10.1439  -17.4340 C   0  0  0  0  0  0  0  0  0  0  0  0
   20.4818  -11.5904  -17.0001 C   0  0  0  0  0  0  0  0  0  0  0  0
   20.3223  -11.4225  -15.4829 C   0  0  0  0  0  0  0  0  0  0  0  0
   19.3895  -10.2375  -15.4290 C   0  0  1  0  0  0  0  0  0  0  0  0
   19.6269   -9.3733  -14.2539 C   0  0  0  0  0  0  0  0  0  0  0  0
   19.5382   -9.8577  -13.0981 O   0  0  0  0  0  0  0  0  0  0  0  0
   19.9561   -7.9973  -14.3816 N   0  0  0  0  0  0  0  0  0  0  0  0
   20.1334   -7.1183  -13.2564 C   0  0  1  0  0  0  0  0  0  0  0  0
   21.3754   -6.2745  -13.3549 C   0  0  0  0  0  0  0  0  0  0  0  0
   21.5436   -5.0832  -12.0302 S   0  0  0  0  0  0  0  0  0  0  0  0
   18.9061   -6.2894  -13.0335 C   0  0  0  0  0  0  0  0  0  0  0  0
   18.3583   -5.6547  -13.9776 O   0  0  0  0  0  0  0  0  0  0  0  0
   15.5689   -6.7508   -7.5339 N   0  0  0  0  0  0  0  0  0  0  0  0
   14.8096   -5.8873   -8.3511 C   0  0  0  0  0  0  0  0  0  0  0  0
   13.7017   -5.4603   -7.8781 O   0  0  0  0  0  0  0  0  0  0  0  0
   15.2443   -5.4748   -9.6779 C   0  0  0  0  0  0  0  0  0  0  0  0
   16.4976   -6.0286  -10.2061 C   0  0  0  0  0  0  0  0  0  0  0  0
   17.0119   -5.5357  -11.5261 C   0  0  2  0  0  0  0  0  0  0  0  0
   18.3327   -6.2000  -11.7553 N   0  0  0  0  0  0  0  0  0  0  0  0
   17.2342   -4.1049  -11.5616 C   0  0  0  0  0  0  0  0  0  0  0  0
   18.3711   -3.5339  -11.0105 O   0  0  0  0  0  0  0  0  0  0  0  0
   16.4051   -3.3181  -12.0848 O   0  0  0  0  0  0  0  0  0  0  0  0
  1  2  1  0
  1  5  1  0
  3  4  1  0
  3  2  1  0
  4  5  1  0
  6  7  2  0
  5  6  1  1
  8  6  1  0
  9 12  1  0
  9  8  1  0
  9 10  1  6
 11 10  1  0
 12 20  1  0
 13 12  2  0
 15 14  1  0
 15 16  2  0
 17 15  1  0
 18 17  1  0
 19 18  1  1
 20 19  1  0
 21 22  1  0
 21 19  1  0
 23 21  2  0
M  END
$$$$
