PCQ.pdb
     RDKit          3D

 23 23  0  0  1  0  0  0  0  0999 V2000
   24.9113  -13.3352  -19.0866 N   0  0  0  0  0  0  0  0  0  0  0  0
   25.0876  -14.7106  -19.4312 C   0  0  0  0  0  0  0  0  0  0  0  0
   24.0179  -14.9718  -20.4685 C   0  0  0  0  0  0  0  0  0  0  0  0
   22.8444  -14.1831  -19.8714 C   0  0  0  0  0  0  0  0  0  0  0  0
   23.5603  -12.9525  -19.3711 C   0  0  1  0  0  0  0  0  0  0  0  0
   22.9494  -12.3906  -18.1482 C   0  0  0  0  0  0  0  0  0  0  0  0
   21.7317  -12.0813  -18.1475 O   0  0  0  0  0  0  0  0  0  0  0  0
   23.6952  -12.1837  -16.9571 N   0  0  0  0  0  0  0  0  0  0  0  0
   23.1394  -11.5950  -15.7676 C   0  0  1  0  0  0  0  0  0  0  0  0
   23.8030  -12.0741  -14.5049 C   0  0  0  0  0  0  0  0  0  0  0  0
   23.3110  -13.7231  -14.0139 S   0  0  0  0  0  0  0  0  0  0  0  0
   23.1348  -10.1008  -15.8689 C   0  0  0  0  0  0  0  0  0  0  0  0
   23.8841   -9.4924  -16.6829 O   0  0  0  0  0  0  0  0  0  0  0  0
   20.2751   -7.5779  -19.3792 N   0  0  0  0  0  0  0  0  0  0  0  0
   20.3298   -6.4608  -18.5195 C   0  0  0  0  0  0  0  0  0  0  0  0
   19.8865   -5.3518  -18.9745 O   0  0  0  0  0  0  0  0  0  0  0  0
   20.8555   -6.5358  -17.1639 C   0  0  0  0  0  0  0  0  0  0  0  0
   21.3833   -7.8214  -16.6893 C   0  0  0  0  0  0  0  0  0  0  0  0
   22.0114   -7.8928  -15.3291 C   0  0  2  0  0  0  0  0  0  0  0  0
   22.2873   -9.3367  -15.0512 N   0  0  0  0  0  0  0  0  0  0  0  0
   21.1529   -7.4037  -14.2700 C   0  0  0  0  0  0  0  0  0  0  0  0
   21.0935   -6.0562  -13.9489 O   0  0  0  0  0  0  0  0  0  0  0  0
   20.4315   -8.1774  -13.5909 O   0  0  0  0  0  0  0  0  0  0  0  0
  1  2  1  0
  1  5  1  0
  3  4  1  0
  3  2  1  0
  4  5  1  0
  6  7  2  0
  5  6  1  1
  8  6  1  0
  9 12  1  0
  9  8  1  0
  9 10  1  1
 11 10  1  0
 12 20  1  0
 13 12  2  0
 15 14  1  0
 15 16  2  0
 17 15  1  0
 18 17  1  0
 19 18  1  6
 20 19  1  0
 21 22  1  0
 21 19  1  0
 23 21  2  0
M  END
$$$$
