PCQ.pdb
     RDKit          3D

 23 23  0  0  1  0  0  0  0  0999 V2000
   24.6878  -14.5200  -20.2137 N   0  0  0  0  0  0  0  0  0  0  0  0
   25.0184  -15.9049  -20.3337 C   0  0  0  0  0  0  0  0  0  0  0  0
   23.7264  -16.5564  -20.7752 C   0  0  0  0  0  0  0  0  0  0  0  0
   22.7132  -15.7916  -19.9125 C   0  0  0  0  0  0  0  0  0  0  0  0
   23.2783  -14.3945  -19.9897 C   0  0  1  0  0  0  0  0  0  0  0  0
   23.0528  -13.6152  -18.7543 C   0  0  0  0  0  0  0  0  0  0  0  0
   21.8836  -13.4625  -18.3206 O   0  0  0  0  0  0  0  0  0  0  0  0
   24.1208  -13.0240  -18.0279 N   0  0  0  0  0  0  0  0  0  0  0  0
   23.9301  -12.2495  -16.8304 C   0  0  1  0  0  0  0  0  0  0  0  0
   25.0796  -12.3591  -15.8657 C   0  0  0  0  0  0  0  0  0  0  0  0
   25.2954  -14.0006  -15.1863 S   0  0  0  0  0  0  0  0  0  0  0  0
   23.6113  -10.8252  -17.1663 C   0  0  0  0  0  0  0  0  0  0  0  0
   24.2921  -10.1780  -18.0099 O   0  0  0  0  0  0  0  0  0  0  0  0
   17.8482   -8.7771  -17.9259 N   0  0  0  0  0  0  0  0  0  0  0  0
   18.5565   -7.5694  -17.7534 C   0  0  0  0  0  0  0  0  0  0  0  0
   17.8970   -6.4823  -17.8828 O   0  0  0  0  0  0  0  0  0  0  0  0
   19.9762   -7.5284  -17.4339 C   0  0  0  0  0  0  0  0  0  0  0  0
   20.6866   -8.7994  -17.2432 C   0  0  0  0  0  0  0  0  0  0  0  0
   22.1464   -8.7730  -16.8996 C   0  0  2  0  0  0  0  0  0  0  0  0
   22.5360  -10.1726  -16.5428 N   0  0  0  0  0  0  0  0  0  0  0  0
   22.4568   -7.9328  -15.7613 C   0  0  0  0  0  0  0  0  0  0  0  0
   22.4003   -8.4195  -14.4642 O   0  0  0  0  0  0  0  0  0  0  0  0
   22.7824   -6.7263  -15.8970 O   0  0  0  0  0  0  0  0  0  0  0  0
  1  2  1  0
  1  5  1  0
  3  4  1  0
  3  2  1  0
  4  5  1  0
  6  7  2  0
  5  6  1  1
  8  6  1  0
  9 12  1  0
  9  8  1  0
  9 10  1  1
 11 10  1  0
 12 20  1  0
 13 12  2  0
 15 14  1  0
 15 16  2  0
 17 15  1  0
 18 17  1  0
 19 18  1  1
 20 19  1  0
 21 22  1  0
 21 19  1  0
 23 21  2  0
M  END
$$$$
