PCQ.pdb
     RDKit          3D

 23 23  0  0  1  0  0  0  0  0999 V2000
   27.2742  -19.5858  -15.4411 N   0  0  0  0  0  0  0  0  0  0  0  0
   28.6439  -19.2221  -15.6233 C   0  0  0  0  0  0  0  0  0  0  0  0
   29.2310  -20.3743  -16.4085 C   0  0  0  0  0  0  0  0  0  0  0  0
   28.5446  -21.5640  -15.7235 C   0  0  0  0  0  0  0  0  0  0  0  0
   27.1541  -21.0107  -15.5291 C   0  0  1  0  0  0  0  0  0  0  0  0
   26.5010  -21.5173  -14.3039 C   0  0  0  0  0  0  0  0  0  0  0  0
   26.1779  -22.7290  -14.2275 O   0  0  0  0  0  0  0  0  0  0  0  0
   26.2204  -20.6765  -13.1939 N   0  0  0  0  0  0  0  0  0  0  0  0
   25.2576  -21.0044  -12.1762 C   0  0  1  0  0  0  0  0  0  0  0  0
   25.7193  -20.6493  -10.7888 C   0  0  0  0  0  0  0  0  0  0  0  0
   24.3848  -20.4663   -9.6106 S   0  0  0  0  0  0  0  0  0  0  0  0
   23.9235  -20.4038  -12.4963 C   0  0  0  0  0  0  0  0  0  0  0  0
   23.7966  -19.1722  -12.7433 O   0  0  0  0  0  0  0  0  0  0  0  0
   20.1631  -22.1974  -16.7838 N   0  0  0  0  0  0  0  0  0  0  0  0
   19.2569  -21.5154  -15.9449 C   0  0  0  0  0  0  0  0  0  0  0  0
   18.0593  -21.3771  -16.3693 O   0  0  0  0  0  0  0  0  0  0  0  0
   19.6355  -20.9860  -14.6426 C   0  0  0  0  0  0  0  0  0  0  0  0
   20.9967  -21.2406  -14.1538 C   0  0  0  0  0  0  0  0  0  0  0  0
   21.4237  -20.6440  -12.8455 C   0  0  2  0  0  0  0  0  0  0  0  0
   22.7729  -21.2075  -12.5288 N   0  0  0  0  0  0  0  0  0  0  0  0
   20.5447  -20.9782  -11.7439 C   0  0  0  0  0  0  0  0  0  0  0  0
   19.5184  -20.1319  -11.3529 O   0  0  0  0  0  0  0  0  0  0  0  0
   20.6774  -22.0432  -11.0895 O   0  0  0  0  0  0  0  0  0  0  0  0
  1  2  1  0
  1  5  1  0
  3  4  1  0
  3  2  1  0
  4  5  1  0
  6  7  2  0
  5  6  1  1
  8  6  1  0
  9 12  1  0
  9  8  1  0
  9 10  1  1
 11 10  1  0
 12 20  1  0
 13 12  2  0
 15 14  1  0
 15 16  2  0
 17 15  1  0
 18 17  1  0
 19 18  1  6
 20 19  1  0
 21 22  1  0
 21 19  1  0
 23 21  2  0
M  END
$$$$
