PCQ.pdb
     RDKit          3D

 23 23  0  0  1  0  0  0  0  0999 V2000
   16.7003  -11.7111  -16.1963 N   0  0  0  0  0  0  0  0  0  0  0  0
   15.3043  -11.7623  -15.8961 C   0  0  0  0  0  0  0  0  0  0  0  0
   14.7407  -10.5175  -16.5452 C   0  0  0  0  0  0  0  0  0  0  0  0
   15.8458   -9.5029  -16.2213 C   0  0  0  0  0  0  0  0  0  0  0  0
   17.0757  -10.3498  -16.4388 C   0  0  1  0  0  0  0  0  0  0  0  0
   18.1889   -9.9874  -15.5369 C   0  0  0  0  0  0  0  0  0  0  0  0
   18.1926  -10.4094  -14.3535 O   0  0  0  0  0  0  0  0  0  0  0  0
   19.2700   -9.1694  -15.9612 N   0  0  0  0  0  0  0  0  0  0  0  0
   20.3524   -8.7778  -15.0978 C   0  0  1  0  0  0  0  0  0  0  0  0
   21.7039   -9.1760  -15.6259 C   0  0  0  0  0  0  0  0  0  0  0  0
   23.0615   -8.7015  -14.5608 S   0  0  0  0  0  0  0  0  0  0  0  0
   20.2784   -7.3147  -14.7866 C   0  0  0  0  0  0  0  0  0  0  0  0
   20.0466   -6.4597  -15.6863 O   0  0  0  0  0  0  0  0  0  0  0  0
   18.3265   -5.3054   -9.3252 N   0  0  0  0  0  0  0  0  0  0  0  0
   17.7320   -4.8393  -10.5165 C   0  0  0  0  0  0  0  0  0  0  0  0
   16.5338   -4.4016  -10.4385 O   0  0  0  0  0  0  0  0  0  0  0  0
   18.4285   -4.8362  -11.7949 C   0  0  0  0  0  0  0  0  0  0  0  0
   19.8452   -5.2220  -11.8197 C   0  0  0  0  0  0  0  0  0  0  0  0
   20.5280   -5.4001  -13.1433 C   0  0  2  0  0  0  0  0  0  0  0  0
   20.4676   -6.8582  -13.4726 N   0  0  0  0  0  0  0  0  0  0  0  0
   21.9246   -5.0163  -13.1291 C   0  0  0  0  0  0  0  0  0  0  0  0
   22.3154   -3.6963  -13.2942 O   0  0  0  0  0  0  0  0  0  0  0  0
   22.8427   -5.8610  -12.9754 O   0  0  0  0  0  0  0  0  0  0  0  0
  1  2  1  0
  1  5  1  0
  3  4  1  0
  3  2  1  0
  4  5  1  0
  6  7  2  0
  5  6  1  1
  8  6  1  0
  9 12  1  0
  9  8  1  0
  9 10  1  6
 11 10  1  0
 12 20  1  0
 13 12  2  0
 15 14  1  0
 15 16  2  0
 17 15  1  0
 18 17  1  0
 19 18  1  1
 20 19  1  0
 21 22  1  0
 21 19  1  0
 23 21  2  0
M  END
$$$$
