PCQ.pdb
     RDKit          3D

 23 23  0  0  1  0  0  0  0  0999 V2000
   17.8383  -23.5891  -12.1752 N   0  0  0  0  0  0  0  0  0  0  0  0
   17.8460  -23.8420  -13.5815 C   0  0  0  0  0  0  0  0  0  0  0  0
   16.3975  -23.6929  -13.9917 C   0  0  0  0  0  0  0  0  0  0  0  0
   15.6955  -24.3729  -12.8084 C   0  0  0  0  0  0  0  0  0  0  0  0
   16.5310  -23.8659  -11.6585 C   0  0  1  0  0  0  0  0  0  0  0  0
   16.6440  -24.8438  -10.5562 C   0  0  0  0  0  0  0  0  0  0  0  0
   15.6050  -25.3629  -10.0770 O   0  0  0  0  0  0  0  0  0  0  0  0
   17.8984  -25.2252  -10.0096 N   0  0  0  0  0  0  0  0  0  0  0  0
   18.0469  -26.2448   -9.0053 C   0  0  1  0  0  0  0  0  0  0  0  0
   19.3058  -27.0535   -9.1651 C   0  0  0  0  0  0  0  0  0  0  0  0
   19.5511  -27.6840  -10.8219 S   0  0  0  0  0  0  0  0  0  0  0  0
   17.9256  -25.6577   -7.6329 C   0  0  0  0  0  0  0  0  0  0  0  0
   18.4709  -24.5586   -7.3349 O   0  0  0  0  0  0  0  0  0  0  0  0
   13.5688  -24.6095   -3.2104 N   0  0  0  0  0  0  0  0  0  0  0  0
   14.3055  -23.5785   -3.8302 C   0  0  0  0  0  0  0  0  0  0  0  0
   14.0675  -22.3815   -3.4507 O   0  0  0  0  0  0  0  0  0  0  0  0
   15.3066  -23.8335   -4.8560 C   0  0  0  0  0  0  0  0  0  0  0  0
   15.5597  -25.2240   -5.2549 C   0  0  0  0  0  0  0  0  0  0  0  0
   16.9725  -25.7271   -5.2844 C   0  0  2  0  0  0  0  0  0  0  0  0
   17.1944  -26.3252   -6.6376 N   0  0  0  0  0  0  0  0  0  0  0  0
   17.2384  -26.7602   -4.3047 C   0  0  0  0  0  0  0  0  0  0  0  0
   17.4758  -28.0731   -4.6819 O   0  0  0  0  0  0  0  0  0  0  0  0
   17.2578  -26.5156   -3.0719 O   0  0  0  0  0  0  0  0  0  0  0  0
  1  2  1  0
  1  5  1  0
  3  4  1  0
  3  2  1  0
  4  5  1  0
  6  7  2  0
  5  6  1  1
  8  6  1  0
  9 12  1  0
  9  8  1  0
  9 10  1  1
 11 10  1  0
 12 20  1  0
 13 12  2  0
 15 14  1  0
 15 16  2  0
 17 15  1  0
 18 17  1  0
 19 18  1  6
 20 19  1  0
 21 22  1  0
 21 19  1  0
 23 21  2  0
M  END
$$$$
