PCQ.pdb
     RDKit          3D

 23 23  0  0  1  0  0  0  0  0999 V2000
   27.6656  -22.0372  -16.5415 N   0  0  0  0  0  0  0  0  0  0  0  0
   29.0737  -22.2667  -16.6203 C   0  0  0  0  0  0  0  0  0  0  0  0
   29.1892  -23.7136  -17.0467 C   0  0  0  0  0  0  0  0  0  0  0  0
   28.0693  -24.3467  -16.2097 C   0  0  0  0  0  0  0  0  0  0  0  0
   27.0005  -23.2877  -16.3254 C   0  0  1  0  0  0  0  0  0  0  0  0
   26.1604  -23.1853  -15.1138 C   0  0  0  0  0  0  0  0  0  0  0  0
   25.4603  -24.1661  -14.7584 O   0  0  0  0  0  0  0  0  0  0  0  0
   26.1128  -22.0053  -14.3245 N   0  0  0  0  0  0  0  0  0  0  0  0
   25.3002  -21.8750  -13.1442 C   0  0  1  0  0  0  0  0  0  0  0  0
   26.0111  -21.1886  -12.0094 C   0  0  0  0  0  0  0  0  0  0  0  0
   25.0662  -21.1429  -10.4903 S   0  0  0  0  0  0  0  0  0  0  0  0
   23.9947  -21.2174  -13.4703 C   0  0  0  0  0  0  0  0  0  0  0  0
   23.9397  -20.1788  -14.1861 O   0  0  0  0  0  0  0  0  0  0  0  0
   18.7285  -24.3413  -14.5804 N   0  0  0  0  0  0  0  0  0  0  0  0
   18.2812  -23.0094  -14.4549 C   0  0  0  0  0  0  0  0  0  0  0  0
   17.0499  -22.7806  -14.7099 O   0  0  0  0  0  0  0  0  0  0  0  0
   19.1567  -21.9200  -14.0472 C   0  0  0  0  0  0  0  0  0  0  0  0
   20.5681  -22.2221  -13.7761 C   0  0  0  0  0  0  0  0  0  0  0  0
   21.4673  -21.1239  -13.2911 C   0  0  2  0  0  0  0  0  0  0  0  0
   22.7908  -21.7486  -12.9811 N   0  0  0  0  0  0  0  0  0  0  0  0
   20.9958  -20.4836  -12.0805 C   0  0  0  0  0  0  0  0  0  0  0  0
   19.9931  -19.5265  -12.1098 O   0  0  0  0  0  0  0  0  0  0  0  0
   21.4788  -20.7598  -10.9532 O   0  0  0  0  0  0  0  0  0  0  0  0
  1  2  1  0
  1  5  1  0
  3  4  1  0
  3  2  1  0
  4  5  1  0
  6  7  2  0
  5  6  1  1
  8  6  1  0
  9 12  1  0
  9  8  1  0
  9 10  1  1
 11 10  1  0
 12 20  1  0
 13 12  2  0
 15 14  1  0
 15 16  2  0
 17 15  1  0
 18 17  1  0
 19 18  1  1
 20 19  1  0
 21 22  1  0
 21 19  1  0
 23 21  2  0
M  END
$$$$
