PCQ.pdb
     RDKit          3D

 23 23  0  0  1  0  0  0  0  0999 V2000
   24.6297  -11.6833  -15.4826 N   0  0  0  0  0  0  0  0  0  0  0  0
   24.5442  -13.1009  -15.6395 C   0  0  0  0  0  0  0  0  0  0  0  0
   24.8856  -13.3330  -17.0949 C   0  0  0  0  0  0  0  0  0  0  0  0
   24.1456  -12.1595  -17.7511 C   0  0  0  0  0  0  0  0  0  0  0  0
   24.4273  -11.0599  -16.7567 C   0  0  1  0  0  0  0  0  0  0  0  0
   23.3203  -10.0868  -16.6482 C   0  0  0  0  0  0  0  0  0  0  0  0
   22.9758   -9.4224  -17.6573 O   0  0  0  0  0  0  0  0  0  0  0  0
   22.6208   -9.8701  -15.4310 N   0  0  0  0  0  0  0  0  0  0  0  0
   21.5215   -8.9506  -15.3029 C   0  0  1  0  0  0  0  0  0  0  0  0
   20.3760   -9.5062  -14.5008 C   0  0  0  0  0  0  0  0  0  0  0  0
   20.7120  -11.1098  -13.7810 S   0  0  0  0  0  0  0  0  0  0  0  0
   21.9934   -7.6323  -14.7715 C   0  0  0  0  0  0  0  0  0  0  0  0
   22.7839   -7.5614  -13.7896 O   0  0  0  0  0  0  0  0  0  0  0  0
   22.0170   -2.4822  -18.5283 N   0  0  0  0  0  0  0  0  0  0  0  0
   22.4680   -2.0034  -17.2804 C   0  0  0  0  0  0  0  0  0  0  0  0
   22.7991   -0.7708  -17.2132 O   0  0  0  0  0  0  0  0  0  0  0  0
   22.5571   -2.8487  -16.0985 C   0  0  0  0  0  0  0  0  0  0  0  0
   22.0675   -4.2303  -16.1890 C   0  0  0  0  0  0  0  0  0  0  0  0
   22.1405   -5.1093  -14.9759 C   0  0  2  0  0  0  0  0  0  0  0  0
   21.5614   -6.4338  -15.3613 N   0  0  0  0  0  0  0  0  0  0  0  0
   21.3726   -4.6103  -13.8538 C   0  0  0  0  0  0  0  0  0  0  0  0
   20.0201   -4.8852  -13.7213 O   0  0  0  0  0  0  0  0  0  0  0  0
   21.8942   -3.9008  -12.9567 O   0  0  0  0  0  0  0  0  0  0  0  0
  1  2  1  0
  1  5  1  0
  3  4  1  0
  3  2  1  0
  4  5  1  0
  6  7  2  0
  5  6  1  1
  8  6  1  0
  9 12  1  0
  9  8  1  0
  9 10  1  1
 11 10  1  0
 12 20  1  0
 13 12  2  0
 15 14  1  0
 15 16  2  0
 17 15  1  0
 18 17  1  0
 19 18  1  6
 20 19  1  0
 21 22  1  0
 21 19  1  0
 23 21  2  0
M  END
$$$$
