PCQ.pdb
     RDKit          3D

 23 23  0  0  1  0  0  0  0  0999 V2000
   14.9833  -12.6749  -14.4094 N   0  0  0  0  0  0  0  0  0  0  0  0
   15.3205  -13.7157  -15.3284 C   0  0  0  0  0  0  0  0  0  0  0  0
   15.7137  -14.8776  -14.4429 C   0  0  0  0  0  0  0  0  0  0  0  0
   16.5060  -14.1469  -13.3504 C   0  0  0  0  0  0  0  0  0  0  0  0
   15.6576  -12.9123  -13.1678 C   0  0  1  0  0  0  0  0  0  0  0  0
   16.4518  -11.7175  -12.8129 C   0  0  0  0  0  0  0  0  0  0  0  0
   17.1835  -11.7384  -11.7918 O   0  0  0  0  0  0  0  0  0  0  0  0
   16.4201  -10.5300  -13.5918 N   0  0  0  0  0  0  0  0  0  0  0  0
   17.1302   -9.3305  -13.2351 C   0  0  1  0  0  0  0  0  0  0  0  0
   17.9954   -8.8026  -14.3473 C   0  0  0  0  0  0  0  0  0  0  0  0
   18.7735   -7.2352  -13.9722 S   0  0  0  0  0  0  0  0  0  0  0  0
   16.1858   -8.2910  -12.7151 C   0  0  0  0  0  0  0  0  0  0  0  0
   15.1488   -7.9619  -13.3559 O   0  0  0  0  0  0  0  0  0  0  0  0
   14.9034   -7.7733   -6.7017 N   0  0  0  0  0  0  0  0  0  0  0  0
   13.8393   -7.8048   -7.6272 C   0  0  0  0  0  0  0  0  0  0  0  0
   12.7130   -8.2390   -7.2073 O   0  0  0  0  0  0  0  0  0  0  0  0
   13.9825   -7.3620   -9.0067 C   0  0  0  0  0  0  0  0  0  0  0  0
   15.3142   -6.9588   -9.4764 C   0  0  0  0  0  0  0  0  0  0  0  0
   15.5049   -6.6275  -10.9268 C   0  0  2  0  0  0  0  0  0  0  0  0
   16.4369   -7.6535  -11.4898 N   0  0  0  0  0  0  0  0  0  0  0  0
   16.1053   -5.3281  -11.1485 C   0  0  0  0  0  0  0  0  0  0  0  0
   15.3588   -4.1622  -11.0734 O   0  0  0  0  0  0  0  0  0  0  0  0
   17.3246   -5.2000  -11.4262 O   0  0  0  0  0  0  0  0  0  0  0  0
  1  2  1  0
  1  5  1  0
  3  4  1  0
  3  2  1  0
  4  5  1  0
  6  7  2  0
  5  6  1  6
  8  6  1  0
  9 12  1  0
  9  8  1  0
  9 10  1  6
 11 10  1  0
 12 20  1  0
 13 12  2  0
 15 14  1  0
 15 16  2  0
 17 15  1  0
 18 17  1  0
 19 18  1  1
 20 19  1  0
 21 22  1  0
 21 19  1  0
 23 21  2  0
M  END
$$$$
