SEA.pdb
     RDKit          3D

 21 20  0  0  1  0  0  0  0  0999 V2000
    8.8971  -12.3551   18.5744 O   0  0  0  0  0  0  0  0  0  0  0  0
    8.4494  -12.7297   19.8202 C   0  0  0  0  0  0  0  0  0  0  0  0
    8.1141  -14.2045   19.7955 C   0  0  2  0  0  0  0  0  0  0  0  0
    6.9649  -14.4951   18.9860 N   0  0  0  0  0  0  0  0  0  0  0  0
    7.8391  -14.6648   21.1847 C   0  0  0  0  0  0  0  0  0  0  0  0
    6.6662  -14.7188   21.6512 O   0  0  0  0  0  0  0  0  0  0  0  0
    8.8941  -15.0651   22.0484 N   0  0  0  0  0  0  0  0  0  0  0  0
    8.6102  -15.6339   23.3923 C   0  0  1  0  0  0  0  0  0  0  0  0
    9.5049  -16.7897   23.6023 C   0  0  0  0  0  0  0  0  0  0  0  0
    9.5251  -17.4611   24.9081 C   0  0  0  0  0  0  0  0  0  0  0  0
   10.5269  -18.5914   24.8809 C   0  0  0  0  0  0  0  0  0  0  0  0
   11.3486  -18.7294   25.8147 O   0  0  0  0  0  0  0  0  0  0  0  0
    8.7008  -14.5131   24.3159 C   0  0  0  0  0  0  0  0  0  0  0  0
    9.6932  -13.7275   24.3914 O   0  0  0  0  0  0  0  0  0  0  0  0
   10.5494  -19.4807   23.8334 O   0  0  0  0  0  0  0  0  0  0  0  0
    6.3350  -12.7045   26.5521 C   0  0  0  0  0  0  0  0  0  0  0  0
    7.7445  -13.1996   26.2089 C   0  0  2  0  0  0  0  0  0  0  0  0
    7.6258  -14.2470   25.2039 N   0  0  0  0  0  0  0  0  0  0  0  0
    8.3200  -13.7671   27.4284 C   0  0  0  0  0  0  0  0  0  0  0  0
    8.6565  -12.9411   28.4844 O   0  0  0  0  0  0  0  0  0  0  0  0
    8.5164  -15.0265   27.5284 O   0  0  0  0  0  0  0  0  0  0  0  0
  2  1  1  0
  3  2  1  0
  3  4  1  6
  5  3  1  0
  5  7  1  0
  6  5  2  0
  8  7  1  0
  8  9  1  1
 10  9  1  0
 10 11  1  0
 11 12  2  0
 11 15  1  0
 13  8  1  0
 13 18  1  0
 14 13  2  0
 17 18  1  0
 17 16  1  1
 19 17  1  0
 20 19  1  0
 21 19  2  0
M  END
$$$$
