SEA.pdb
     RDKit          3D

 21 20  0  0  1  0  0  0  0  0999 V2000
    8.2347  -12.7870   16.1858 O   0  0  0  0  0  0  0  0  0  0  0  0
    8.2054  -13.5735   17.3142 C   0  0  0  0  0  0  0  0  0  0  0  0
    8.6355  -14.9756   16.9435 C   0  0  2  0  0  0  0  0  0  0  0  0
    7.6876  -15.6357   16.0914 N   0  0  0  0  0  0  0  0  0  0  0  0
    8.7919  -15.7816   18.1858 C   0  0  0  0  0  0  0  0  0  0  0  0
    7.8343  -16.4414   18.6796 O   0  0  0  0  0  0  0  0  0  0  0  0
   10.0353  -15.8411   18.8711 N   0  0  0  0  0  0  0  0  0  0  0  0
   10.2231  -16.7392   20.0410 C   0  0  1  0  0  0  0  0  0  0  0  0
   11.4083  -17.5831   19.7888 C   0  0  0  0  0  0  0  0  0  0  0  0
   11.2920  -19.0433   19.8923 C   0  0  0  0  0  0  0  0  0  0  0  0
   12.6345  -19.6790   19.6183 C   0  0  0  0  0  0  0  0  0  0  0  0
   13.4499  -19.8591   20.5505 O   0  0  0  0  0  0  0  0  0  0  0  0
   10.2318  -15.8653   21.2045 C   0  0  0  0  0  0  0  0  0  0  0  0
   11.0537  -14.9157   21.3790 O   0  0  0  0  0  0  0  0  0  0  0  0
   12.9777  -20.0670   18.3453 O   0  0  0  0  0  0  0  0  0  0  0  0
    7.8007  -14.9711   23.8219 C   0  0  0  0  0  0  0  0  0  0  0  0
    9.2583  -15.1818   23.3972 C   0  0  2  0  0  0  0  0  0  0  0  0
    9.2701  -16.0544   22.2312 N   0  0  0  0  0  0  0  0  0  0  0  0
    9.9463  -15.8483   24.5030 C   0  0  0  0  0  0  0  0  0  0  0  0
   10.2710  -15.1392   25.6442 O   0  0  0  0  0  0  0  0  0  0  0  0
   10.2525  -17.0871   24.4245 O   0  0  0  0  0  0  0  0  0  0  0  0
  2  1  1  0
  3  2  1  0
  3  4  1  6
  5  3  1  0
  5  7  1  0
  6  5  2  0
  8  7  1  0
  8  9  1  6
 10  9  1  0
 10 11  1  0
 11 12  2  0
 11 15  1  0
 13  8  1  0
 13 18  1  0
 14 13  2  0
 17 18  1  0
 17 16  1  1
 19 17  1  0
 20 19  1  0
 21 19  2  0
M  END
$$$$
