SEA.pdb
     RDKit          3D

 21 20  0  0  1  0  0  0  0  0999 V2000
    8.4657  -12.1382   21.0759 O   0  0  0  0  0  0  0  0  0  0  0  0
    9.0250  -13.2650   20.5186 C   0  0  0  0  0  0  0  0  0  0  0  0
    8.0280  -14.3992   20.6060 C   0  0  2  0  0  0  0  0  0  0  0  0
    6.7000  -13.9953   20.2403 N   0  0  0  0  0  0  0  0  0  0  0  0
    7.9952  -14.9123   22.0035 C   0  0  0  0  0  0  0  0  0  0  0  0
    7.0618  -14.6173   22.8022 O   0  0  0  0  0  0  0  0  0  0  0  0
    9.0213  -15.7615   22.4985 N   0  0  0  0  0  0  0  0  0  0  0  0
    8.9559  -16.3205   23.8747 C   0  0  1  0  0  0  0  0  0  0  0  0
    9.5962  -17.6510   23.8628 C   0  0  0  0  0  0  0  0  0  0  0  0
    9.5334  -18.4732   22.6477 C   0  0  0  0  0  0  0  0  0  0  0  0
   10.8335  -19.2230   22.4759 C   0  0  0  0  0  0  0  0  0  0  0  0
   11.5486  -19.0243   21.4683 O   0  0  0  0  0  0  0  0  0  0  0  0
    9.5153  -15.2920   24.7389 C   0  0  0  0  0  0  0  0  0  0  0  0
   10.5733  -14.6416   24.4835 O   0  0  0  0  0  0  0  0  0  0  0  0
   11.2472  -20.1309   23.4211 O   0  0  0  0  0  0  0  0  0  0  0  0
    8.3508  -13.0171   27.3007 C   0  0  0  0  0  0  0  0  0  0  0  0
    9.4487  -13.9960   26.8694 C   0  0  2  0  0  0  0  0  0  0  0  0
    8.8599  -14.9644   25.9546 N   0  0  0  0  0  0  0  0  0  0  0  0
    9.9145  -14.6906   28.0698 C   0  0  0  0  0  0  0  0  0  0  0  0
   10.5952  -13.9954   29.0515 O   0  0  0  0  0  0  0  0  0  0  0  0
    9.6976  -15.9414   28.2212 O   0  0  0  0  0  0  0  0  0  0  0  0
  2  1  1  0
  3  2  1  0
  3  4  1  1
  5  3  1  0
  5  7  1  0
  6  5  2  0
  8  7  1  0
  8  9  1  6
 10  9  1  0
 10 11  1  0
 11 12  2  0
 11 15  1  0
 13  8  1  0
 13 18  1  0
 14 13  2  0
 17 18  1  0
 17 16  1  1
 19 17  1  0
 20 19  1  0
 21 19  2  0
M  END
$$$$
