SEA.pdb
     RDKit          3D

 21 20  0  0  1  0  0  0  0  0999 V2000
    7.2891  -16.8847   18.1661 O   0  0  0  0  0  0  0  0  0  0  0  0
    8.2841  -16.5755   17.2676 C   0  0  0  0  0  0  0  0  0  0  0  0
    9.0233  -17.8436   16.9020 C   0  0  2  0  0  0  0  0  0  0  0  0
    8.1431  -18.8848   16.4533 N   0  0  0  0  0  0  0  0  0  0  0  0
    9.7646  -18.3365   18.0956 C   0  0  0  0  0  0  0  0  0  0  0  0
    9.2652  -19.1821   18.8906 O   0  0  0  0  0  0  0  0  0  0  0  0
   11.0746  -17.8714   18.3906 N   0  0  0  0  0  0  0  0  0  0  0  0
   11.8138  -18.3676   19.5813 C   0  0  1  0  0  0  0  0  0  0  0  0
   13.1644  -18.7778   19.1476 C   0  0  0  0  0  0  0  0  0  0  0  0
   14.1157  -19.2973   20.1384 C   0  0  0  0  0  0  0  0  0  0  0  0
   15.4388  -19.5838   19.4683 C   0  0  0  0  0  0  0  0  0  0  0  0
   16.4633  -18.9430   19.7938 O   0  0  0  0  0  0  0  0  0  0  0  0
   11.6984  -17.3133   20.5776 C   0  0  0  0  0  0  0  0  0  0  0  0
   12.1963  -16.1540   20.4525 O   0  0  0  0  0  0  0  0  0  0  0  0
   15.5351  -20.5492   18.4949 O   0  0  0  0  0  0  0  0  0  0  0  0
    9.6135  -16.7408   23.5997 C   0  0  0  0  0  0  0  0  0  0  0  0
   10.9145  -16.5371   22.8151 C   0  0  2  0  0  0  0  0  0  0  0  0
   10.9856  -17.5595   21.7803 N   0  0  0  0  0  0  0  0  0  0  0  0
   12.0249  -16.7215   23.7497 C   0  0  0  0  0  0  0  0  0  0  0  0
   12.3227  -15.7375   24.6736 O   0  0  0  0  0  0  0  0  0  0  0  0
   12.7271  -17.7895   23.7207 O   0  0  0  0  0  0  0  0  0  0  0  0
  2  1  1  0
  3  2  1  0
  3  4  1  1
  5  3  1  0
  5  7  1  0
  6  5  2  0
  8  7  1  0
  8  9  1  6
 10  9  1  0
 10 11  1  0
 11 12  2  0
 11 15  1  0
 13  8  1  0
 13 18  1  0
 14 13  2  0
 17 18  1  0
 17 16  1  1
 19 17  1  0
 20 19  1  0
 21 19  2  0
M  END
$$$$
