SEA.pdb
     RDKit          3D

 21 20  0  0  1  0  0  0  0  0999 V2000
   12.3188  -15.4987   21.6049 O   0  0  0  0  0  0  0  0  0  0  0  0
   11.9031  -16.8046   21.7261 C   0  0  0  0  0  0  0  0  0  0  0  0
   10.4399  -16.8881   21.3514 C   0  0  2  0  0  0  0  0  0  0  0  0
   10.0833  -15.9637   20.3128 N   0  0  0  0  0  0  0  0  0  0  0  0
    9.6119  -16.5885   22.5522 C   0  0  0  0  0  0  0  0  0  0  0  0
    8.7522  -15.6626   22.5573 O   0  0  0  0  0  0  0  0  0  0  0  0
    9.7569  -17.3386   23.7503 N   0  0  0  0  0  0  0  0  0  0  0  0
    8.9004  -17.0645   24.9343 C   0  0  1  0  0  0  0  0  0  0  0  0
    8.5102  -18.3578   25.5305 C   0  0  0  0  0  0  0  0  0  0  0  0
    7.7965  -18.3769   26.8137 C   0  0  0  0  0  0  0  0  0  0  0  0
    7.6636  -19.8015   27.2981 C   0  0  0  0  0  0  0  0  0  0  0  0
    8.3013  -20.7210   26.7378 O   0  0  0  0  0  0  0  0  0  0  0  0
    9.6556  -16.1266   25.7515 C   0  0  0  0  0  0  0  0  0  0  0  0
   10.9161  -16.1495   25.8857 O   0  0  0  0  0  0  0  0  0  0  0  0
    6.8430  -20.1061   28.3577 O   0  0  0  0  0  0  0  0  0  0  0  0
    8.7661  -12.9979   27.6372 C   0  0  0  0  0  0  0  0  0  0  0  0
    9.7144  -14.1423   27.2621 C   0  0  2  0  0  0  0  0  0  0  0  0
    8.9717  -15.1020   26.4569 N   0  0  0  0  0  0  0  0  0  0  0  0
   10.1400  -14.7856   28.5052 C   0  0  0  0  0  0  0  0  0  0  0  0
   10.9861  -14.1219   29.3737 O   0  0  0  0  0  0  0  0  0  0  0  0
    9.7355  -15.9624   28.7985 O   0  0  0  0  0  0  0  0  0  0  0  0
  2  1  1  0
  3  2  1  0
  3  4  1  6
  5  3  1  0
  5  7  1  0
  6  5  2  0
  8  7  1  0
  8  9  1  1
 10  9  1  0
 10 11  1  0
 11 12  2  0
 11 15  1  0
 13  8  1  0
 13 18  1  0
 14 13  2  0
 17 18  1  0
 17 16  1  1
 19 17  1  0
 20 19  1  0
 21 19  2  0
M  END
$$$$
