SEA.pdb
     RDKit          3D

 21 20  0  0  1  0  0  0  0  0999 V2000
    8.0825  -12.2728   18.7036 O   0  0  0  0  0  0  0  0  0  0  0  0
    8.6799  -12.9189   19.7612 C   0  0  0  0  0  0  0  0  0  0  0  0
    8.3161  -14.3861   19.7057 C   0  0  2  0  0  0  0  0  0  0  0  0
    7.2219  -14.6493   18.8147 N   0  0  0  0  0  0  0  0  0  0  0  0
    7.9327  -14.8448   21.0694 C   0  0  0  0  0  0  0  0  0  0  0  0
    6.7253  -15.0000   21.4077 O   0  0  0  0  0  0  0  0  0  0  0  0
    8.9181  -15.1286   22.0531 N   0  0  0  0  0  0  0  0  0  0  0  0
    8.5356  -15.6406   23.3955 C   0  0  1  0  0  0  0  0  0  0  0  0
    9.3978  -16.7971   23.7108 C   0  0  0  0  0  0  0  0  0  0  0  0
    9.3093  -17.4257   25.0350 C   0  0  0  0  0  0  0  0  0  0  0  0
   10.2985  -18.5640   25.1224 C   0  0  0  0  0  0  0  0  0  0  0  0
   11.4453  -18.3698   25.5843 O   0  0  0  0  0  0  0  0  0  0  0  0
    8.5788  -14.4851   24.2789 C   0  0  0  0  0  0  0  0  0  0  0  0
    9.5935  -13.7406   24.4329 O   0  0  0  0  0  0  0  0  0  0  0  0
    9.9534  -19.8244   24.6971 O   0  0  0  0  0  0  0  0  0  0  0  0
    6.0455  -12.5913   26.2858 C   0  0  0  0  0  0  0  0  0  0  0  0
    7.4815  -13.0378   25.9890 C   0  0  2  0  0  0  0  0  0  0  0  0
    7.4276  -14.1339   25.0315 N   0  0  0  0  0  0  0  0  0  0  0  0
    8.0589  -13.5230   27.2427 C   0  0  0  0  0  0  0  0  0  0  0  0
    8.3699  -14.8618   27.3891 O   0  0  0  0  0  0  0  0  0  0  0  0
    8.2801  -12.7170   28.2101 O   0  0  0  0  0  0  0  0  0  0  0  0
  2  1  1  0
  3  2  1  0
  3  4  1  6
  5  3  1  0
  5  7  1  0
  6  5  2  0
  8  7  1  0
  8  9  1  1
 10  9  1  0
 10 11  1  0
 11 12  2  0
 11 15  1  0
 13  8  1  0
 13 18  1  0
 14 13  2  0
 17 18  1  0
 17 16  1  1
 19 17  1  0
 20 19  1  0
 21 19  2  0
M  END
$$$$
