SEA.pdb
     RDKit          3D

 21 20  0  0  1  0  0  0  0  0999 V2000
    8.7354  -15.0330   19.2575 O   0  0  0  0  0  0  0  0  0  0  0  0
    8.1973  -14.8483   20.5102 C   0  0  0  0  0  0  0  0  0  0  0  0
    7.6102  -16.1582   20.9874 C   0  0  2  0  0  0  0  0  0  0  0  0
    6.4766  -16.5701   20.2092 N   0  0  0  0  0  0  0  0  0  0  0  0
    7.1788  -16.0108   22.4050 C   0  0  0  0  0  0  0  0  0  0  0  0
    5.9689  -15.8291   22.7201 O   0  0  0  0  0  0  0  0  0  0  0  0
    8.1191  -16.0691   23.4688 N   0  0  0  0  0  0  0  0  0  0  0  0
    7.6710  -16.1235   24.8854 C   0  0  1  0  0  0  0  0  0  0  0  0
    7.1212  -17.4694   25.1437 C   0  0  0  0  0  0  0  0  0  0  0  0
    7.8912  -18.6543   24.7444 C   0  0  0  0  0  0  0  0  0  0  0  0
    7.4163  -19.8549   25.5285 C   0  0  0  0  0  0  0  0  0  0  0  0
    6.3732  -20.4577   25.1901 O   0  0  0  0  0  0  0  0  0  0  0  0
    8.8127  -15.6808   25.6715 C   0  0  0  0  0  0  0  0  0  0  0  0
   10.0114  -16.0296   25.4501 O   0  0  0  0  0  0  0  0  0  0  0  0
    8.1214  -20.2999   26.6210 O   0  0  0  0  0  0  0  0  0  0  0  0
    9.2594  -13.1756   28.4419 C   0  0  0  0  0  0  0  0  0  0  0  0
    9.7483  -14.3093   27.5334 C   0  0  2  0  0  0  0  0  0  0  0  0
    8.6120  -14.7967   26.7638 N   0  0  0  0  0  0  0  0  0  0  0  0
   10.2401  -15.3832   28.3966 C   0  0  0  0  0  0  0  0  0  0  0  0
   11.3917  -15.2018   29.1394 O   0  0  0  0  0  0  0  0  0  0  0  0
    9.6125  -16.4945   28.4717 O   0  0  0  0  0  0  0  0  0  0  0  0
  2  1  1  0
  3  2  1  0
  3  4  1  6
  5  3  1  0
  5  7  1  0
  6  5  2  0
  8  7  1  0
  8  9  1  1
 10  9  1  0
 10 11  1  0
 11 12  2  0
 11 15  1  0
 13  8  1  0
 13 18  1  0
 14 13  2  0
 17 18  1  0
 17 16  1  1
 19 17  1  0
 20 19  1  0
 21 19  2  0
M  END
$$$$
