SEA.pdb
     RDKit          3D

 21 20  0  0  1  0  0  0  0  0999 V2000
    7.8549  -13.6141   21.1546 O   0  0  0  0  0  0  0  0  0  0  0  0
    8.9156  -14.0830   20.4144 C   0  0  0  0  0  0  0  0  0  0  0  0
    8.8793  -15.5953   20.4128 C   0  0  2  0  0  0  0  0  0  0  0  0
    7.6081  -16.1157   19.9963 N   0  0  0  0  0  0  0  0  0  0  0  0
    9.1624  -16.0907   21.7882 C   0  0  0  0  0  0  0  0  0  0  0  0
    8.2372  -16.3597   22.6054 O   0  0  0  0  0  0  0  0  0  0  0  0
   10.4959  -16.2823   22.2400 N   0  0  0  0  0  0  0  0  0  0  0  0
   10.7754  -16.9027   23.5620 C   0  0  1  0  0  0  0  0  0  0  0  0
   11.9988  -17.7202   23.4383 C   0  0  0  0  0  0  0  0  0  0  0  0
   12.5226  -18.4214   24.6174 C   0  0  0  0  0  0  0  0  0  0  0  0
   13.7709  -19.1838   24.2403 C   0  0  0  0  0  0  0  0  0  0  0  0
   14.8981  -18.7538   24.5732 O   0  0  0  0  0  0  0  0  0  0  0  0
   10.7721  -15.8035   24.5156 C   0  0  0  0  0  0  0  0  0  0  0  0
   11.5015  -14.7709   24.4186 O   0  0  0  0  0  0  0  0  0  0  0  0
   13.6859  -20.3563   23.5284 O   0  0  0  0  0  0  0  0  0  0  0  0
    8.5708  -14.2718   26.8971 C   0  0  0  0  0  0  0  0  0  0  0  0
    9.9817  -14.8265   26.6705 C   0  0  2  0  0  0  0  0  0  0  0  0
    9.9063  -15.8522   25.6394 N   0  0  0  0  0  0  0  0  0  0  0  0
   10.4203  -15.4379   27.9252 C   0  0  0  0  0  0  0  0  0  0  0  0
   10.7431  -16.7813   27.9648 O   0  0  0  0  0  0  0  0  0  0  0  0
   10.5086  -14.7387   28.9919 O   0  0  0  0  0  0  0  0  0  0  0  0
  2  1  1  0
  3  2  1  0
  3  4  1  1
  5  3  1  0
  5  7  1  0
  6  5  2  0
  8  7  1  0
  8  9  1  6
 10  9  1  0
 10 11  1  0
 11 12  2  0
 11 15  1  0
 13  8  1  0
 13 18  1  0
 14 13  2  0
 17 18  1  0
 17 16  1  1
 19 17  1  0
 20 19  1  0
 21 19  2  0
M  END
$$$$
