SEA.pdb
     RDKit          3D

 21 20  0  0  1  0  0  0  0  0999 V2000
   -8.8311  -21.9603   29.0904 O   0  0  0  0  0  0  0  0  0  0  0  0
   -7.4983  -21.8684   29.4192 C   0  0  0  0  0  0  0  0  0  0  0  0
   -6.7593  -23.0295   28.7917 C   0  0  2  0  0  0  0  0  0  0  0  0
   -7.0319  -23.1628   27.3887 N   0  0  0  0  0  0  0  0  0  0  0  0
   -7.1663  -24.2903   29.4714 C   0  0  0  0  0  0  0  0  0  0  0  0
   -7.9032  -25.1468   28.9061 O   0  0  0  0  0  0  0  0  0  0  0  0
   -6.7382  -24.5828   30.7945 N   0  0  0  0  0  0  0  0  0  0  0  0
   -6.9467  -25.9303   31.3871 C   0  0  1  0  0  0  0  0  0  0  0  0
   -5.6770  -26.3646   32.0033 C   0  0  0  0  0  0  0  0  0  0  0  0
   -5.6245  -27.6395   32.7301 C   0  0  0  0  0  0  0  0  0  0  0  0
   -4.2139  -27.8926   33.2075 C   0  0  0  0  0  0  0  0  0  0  0  0
   -3.2582  -27.2449   32.7246 O   0  0  0  0  0  0  0  0  0  0  0  0
   -8.1201  -25.8031   32.2383 C   0  0  0  0  0  0  0  0  0  0  0  0
   -8.3941  -24.7758   32.9291 O   0  0  0  0  0  0  0  0  0  0  0  0
   -3.9619  -28.8348   34.1757 O   0  0  0  0  0  0  0  0  0  0  0  0
  -11.0751  -28.0145   32.9914 C   0  0  0  0  0  0  0  0  0  0  0  0
  -10.1605  -26.8136   33.2576 C   0  0  2  0  0  0  0  0  0  0  0  0
   -9.0444  -26.8771   32.3241 N   0  0  0  0  0  0  0  0  0  0  0  0
   -9.6523  -26.9424   34.6235 C   0  0  0  0  0  0  0  0  0  0  0  0
  -10.3880  -26.4499   35.6850 O   0  0  0  0  0  0  0  0  0  0  0  0
   -8.5282  -27.5089   34.8470 O   0  0  0  0  0  0  0  0  0  0  0  0
  2  1  1  0
  3  2  1  0
  3  4  1  6
  5  3  1  0
  5  7  1  0
  6  5  2  0
  8  7  1  0
  8  9  1  1
 10  9  1  0
 10 11  1  0
 11 12  2  0
 11 15  1  0
 13  8  1  0
 13 18  1  0
 14 13  2  0
 17 18  1  0
 17 16  1  6
 19 17  1  0
 20 19  1  0
 21 19  2  0
M  END
$$$$
