SEA.pdb
     RDKit          3D

 21 20  0  0  1  0  0  0  0  0999 V2000
    8.2879  -11.9382   20.1886 O   0  0  0  0  0  0  0  0  0  0  0  0
    9.0706  -13.0494   19.9751 C   0  0  0  0  0  0  0  0  0  0  0  0
    8.1740  -14.2611   19.8479 C   0  0  2  0  0  0  0  0  0  0  0  0
    7.0076  -14.0026   19.0522 N   0  0  0  0  0  0  0  0  0  0  0  0
    7.7326  -14.6851   21.2054 C   0  0  0  0  0  0  0  0  0  0  0  0
    6.5884  -14.3964   21.6568 O   0  0  0  0  0  0  0  0  0  0  0  0
    8.5882  -15.4377   22.0543 N   0  0  0  0  0  0  0  0  0  0  0  0
    8.1367  -15.8794   23.4002 C   0  0  1  0  0  0  0  0  0  0  0  0
    8.7499  -17.1923   23.6844 C   0  0  0  0  0  0  0  0  0  0  0  0
   10.1671  -17.2621   24.0629 C   0  0  0  0  0  0  0  0  0  0  0  0
   10.5665  -18.7046   24.2665 C   0  0  0  0  0  0  0  0  0  0  0  0
    9.7498  -19.6244   24.0360 O   0  0  0  0  0  0  0  0  0  0  0  0
    8.4341  -14.7698   24.2935 C   0  0  0  0  0  0  0  0  0  0  0  0
    9.5193  -14.1142   24.2821 O   0  0  0  0  0  0  0  0  0  0  0  0
   11.8283  -19.0253   24.7065 O   0  0  0  0  0  0  0  0  0  0  0  0
    6.4228  -12.7263   26.6977 C   0  0  0  0  0  0  0  0  0  0  0  0
    7.7551  -13.2606   26.1602 C   0  0  2  0  0  0  0  0  0  0  0  0
    7.4693  -14.3625   25.2517 N   0  0  0  0  0  0  0  0  0  0  0  0
    8.5190  -13.7648   27.3015 C   0  0  0  0  0  0  0  0  0  0  0  0
    8.8029  -15.1138   27.4029 O   0  0  0  0  0  0  0  0  0  0  0  0
    8.9292  -12.9662   28.2118 O   0  0  0  0  0  0  0  0  0  0  0  0
  2  1  1  0
  3  2  1  0
  3  4  1  6
  5  3  1  0
  5  7  1  0
  6  5  2  0
  8  7  1  0
  8  9  1  1
 10  9  1  0
 10 11  1  0
 11 12  2  0
 11 15  1  0
 13  8  1  0
 13 18  1  0
 14 13  2  0
 17 18  1  0
 17 16  1  1
 19 17  1  0
 20 19  1  0
 21 19  2  0
M  END
$$$$
