SEA.pdb
     RDKit          3D

 21 20  0  0  1  0  0  0  0  0999 V2000
    7.8987  -12.0033   19.8946 O   0  0  0  0  0  0  0  0  0  0  0  0
    8.8678  -12.9624   19.7102 C   0  0  0  0  0  0  0  0  0  0  0  0
    8.2113  -14.3252   19.7047 C   0  0  2  0  0  0  0  0  0  0  0  0
    6.9907  -14.3460   18.9497 N   0  0  0  0  0  0  0  0  0  0  0  0
    7.9041  -14.7234   21.1062 C   0  0  0  0  0  0  0  0  0  0  0  0
    6.7231  -14.7322   21.5551 O   0  0  0  0  0  0  0  0  0  0  0  0
    8.9359  -15.1127   22.0023 N   0  0  0  0  0  0  0  0  0  0  0  0
    8.6165  -15.6660   23.3448 C   0  0  1  0  0  0  0  0  0  0  0  0
    9.5568  -16.7697   23.6243 C   0  0  0  0  0  0  0  0  0  0  0  0
    9.5129  -17.4450   24.9276 C   0  0  0  0  0  0  0  0  0  0  0  0
   10.5858  -18.5068   24.9843 C   0  0  0  0  0  0  0  0  0  0  0  0
   11.2161  -18.7115   26.0459 O   0  0  0  0  0  0  0  0  0  0  0  0
    8.6066  -14.5221   24.2443 C   0  0  0  0  0  0  0  0  0  0  0  0
    9.5366  -13.6636   24.3191 O   0  0  0  0  0  0  0  0  0  0  0  0
   10.8833  -19.2601   23.8740 O   0  0  0  0  0  0  0  0  0  0  0  0
    6.0092  -12.8531   26.3320 C   0  0  0  0  0  0  0  0  0  0  0  0
    7.4729  -13.1786   26.0143 C   0  0  2  0  0  0  0  0  0  0  0  0
    7.4983  -14.3179   25.1074 N   0  0  0  0  0  0  0  0  0  0  0  0
    8.1234  -13.5503   27.2709 C   0  0  0  0  0  0  0  0  0  0  0  0
    8.3642  -12.5904   28.2360 O   0  0  0  0  0  0  0  0  0  0  0  0
    8.4737  -14.7606   27.4873 O   0  0  0  0  0  0  0  0  0  0  0  0
  2  1  1  0
  3  2  1  0
  3  4  1  6
  5  3  1  0
  5  7  1  0
  6  5  2  0
  8  7  1  0
  8  9  1  1
 10  9  1  0
 10 11  1  0
 11 12  2  0
 11 15  1  0
 13  8  1  0
 13 18  1  0
 14 13  2  0
 17 18  1  0
 17 16  1  1
 19 17  1  0
 20 19  1  0
 21 19  2  0
M  END
$$$$
