SEA.pdb
     RDKit          3D

 21 20  0  0  1  0  0  0  0  0999 V2000
    8.3287  -11.9964   20.0549 O   0  0  0  0  0  0  0  0  0  0  0  0
    8.8622  -13.2034   19.6657 C   0  0  0  0  0  0  0  0  0  0  0  0
    7.8271  -14.2859   19.8780 C   0  0  2  0  0  0  0  0  0  0  0  0
    6.5120  -13.8784   19.4720 N   0  0  0  0  0  0  0  0  0  0  0  0
    7.7838  -14.6415   21.3234 C   0  0  0  0  0  0  0  0  0  0  0  0
    6.8166  -14.3088   22.0650 O   0  0  0  0  0  0  0  0  0  0  0  0
    8.8378  -15.3756   21.9312 N   0  0  0  0  0  0  0  0  0  0  0  0
    8.6920  -15.9336   23.3015 C   0  0  1  0  0  0  0  0  0  0  0  0
    9.6383  -17.0580   23.4446 C   0  0  0  0  0  0  0  0  0  0  0  0
    9.7680  -17.7338   24.7419 C   0  0  0  0  0  0  0  0  0  0  0  0
   10.8182  -18.8154   24.6468 C   0  0  0  0  0  0  0  0  0  0  0  0
   11.9530  -18.6390   25.1442 O   0  0  0  0  0  0  0  0  0  0  0  0
    8.8278  -14.7973   24.2003 C   0  0  0  0  0  0  0  0  0  0  0  0
    9.7700  -13.9507   24.1449 O   0  0  0  0  0  0  0  0  0  0  0  0
   10.5425  -20.0041   24.0147 O   0  0  0  0  0  0  0  0  0  0  0  0
    6.5727  -12.9197   26.4115 C   0  0  0  0  0  0  0  0  0  0  0  0
    7.9802  -13.4544   26.1243 C   0  0  2  0  0  0  0  0  0  0  0  0
    7.8593  -14.5870   25.2166 N   0  0  0  0  0  0  0  0  0  0  0  0
    8.5433  -13.9143   27.3939 C   0  0  0  0  0  0  0  0  0  0  0  0
    8.8587  -13.0010   28.3823 O   0  0  0  0  0  0  0  0  0  0  0  0
    8.7482  -15.1593   27.6000 O   0  0  0  0  0  0  0  0  0  0  0  0
  2  1  1  0
  3  2  1  0
  3  4  1  1
  5  3  1  0
  5  7  1  0
  6  5  2  0
  8  7  1  0
  8  9  1  1
 10  9  1  0
 10 11  1  0
 11 12  2  0
 11 15  1  0
 13  8  1  0
 13 18  1  0
 14 13  2  0
 17 18  1  0
 17 16  1  1
 19 17  1  0
 20 19  1  0
 21 19  2  0
M  END
$$$$
