SEA.pdb
     RDKit          3D

 21 20  0  0  1  0  0  0  0  0999 V2000
    7.4190  -12.9439   19.5899 O   0  0  0  0  0  0  0  0  0  0  0  0
    8.6052  -13.6380   19.6527 C   0  0  0  0  0  0  0  0  0  0  0  0
    8.3018  -15.1063   19.8537 C   0  0  2  0  0  0  0  0  0  0  0  0
    7.2038  -15.5578   19.0469 N   0  0  0  0  0  0  0  0  0  0  0  0
    7.9621  -15.3420   21.2843 C   0  0  0  0  0  0  0  0  0  0  0  0
    6.7658  -15.4074   21.6852 O   0  0  0  0  0  0  0  0  0  0  0  0
    8.9788  -15.5040   22.2637 N   0  0  0  0  0  0  0  0  0  0  0  0
    8.6389  -15.8238   23.6753 C   0  0  1  0  0  0  0  0  0  0  0  0
    9.6065  -16.8250   24.1671 C   0  0  0  0  0  0  0  0  0  0  0  0
    9.5419  -17.2673   25.5659 C   0  0  0  0  0  0  0  0  0  0  0  0
   10.6903  -18.2054   25.8540 C   0  0  0  0  0  0  0  0  0  0  0  0
   11.7218  -17.7843   26.4240 O   0  0  0  0  0  0  0  0  0  0  0  0
    8.5651  -14.5406   24.3576 C   0  0  0  0  0  0  0  0  0  0  0  0
    9.4750  -13.6583   24.3211 O   0  0  0  0  0  0  0  0  0  0  0  0
   10.6180  -19.5300   25.4950 O   0  0  0  0  0  0  0  0  0  0  0  0
    5.8836  -12.6541   26.1605 C   0  0  0  0  0  0  0  0  0  0  0  0
    7.3554  -12.9715   25.8733 C   0  0  2  0  0  0  0  0  0  0  0  0
    7.4129  -14.2172   25.1210 N   0  0  0  0  0  0  0  0  0  0  0  0
    8.0245  -13.1566   27.1611 C   0  0  0  0  0  0  0  0  0  0  0  0
    8.2413  -12.0724   27.9906 O   0  0  0  0  0  0  0  0  0  0  0  0
    8.4134  -14.3174   27.5295 O   0  0  0  0  0  0  0  0  0  0  0  0
  2  1  1  0
  3  2  1  0
  3  4  1  6
  5  3  1  0
  5  7  1  0
  6  5  2  0
  8  7  1  0
  8  9  1  1
 10  9  1  0
 10 11  1  0
 11 12  2  0
 11 15  1  0
 13  8  1  0
 13 18  1  0
 14 13  2  0
 17 18  1  0
 17 16  1  1
 19 17  1  0
 20 19  1  0
 21 19  2  0
M  END
$$$$
