HYF.pdb
     RDKit          3D

 34 36  0  0  1  0  0  0  0  0999 V2000
   28.3767  -19.0355  -19.7270 N   0  0  0  0  0  0  0  0  0  0  0  0
   27.7707  -18.2161  -18.7115 C   0  0  1  0  0  0  0  0  0  0  0  0
   26.6738  -17.3490  -19.2901 C   0  0  0  0  0  0  0  0  0  0  0  0
   27.3140  -16.3479  -20.1822 C   0  0  0  0  0  0  0  0  0  0  0  0
   27.3610  -16.3703  -21.5651 C   0  0  0  0  0  0  0  0  0  0  0  0
   28.0357  -15.2802  -22.0324 N   0  0  0  0  0  0  0  0  0  0  0  0
   28.4023  -14.5900  -20.9441 C   0  0  0  0  0  0  0  0  0  0  0  0
   27.9806  -15.2119  -19.8344 N   0  0  0  0  0  0  0  0  0  0  0  0
   27.2493  -19.0807  -17.6087 C   0  0  0  0  0  0  0  0  0  0  0  0
   26.6209  -20.1082  -17.9174 O   0  0  0  0  0  0  0  0  0  0  0  0
   25.4159  -21.2598   -9.1056 O   0  0  0  0  0  0  0  0  0  0  0  0
   25.9663  -20.7805  -10.2977 C   0  0  0  0  0  0  0  0  0  0  0  0
   26.4920  -21.6391  -11.2405 C   0  0  0  0  0  0  0  0  0  0  0  0
   27.0416  -21.1914  -12.4264 C   0  0  0  0  0  0  0  0  0  0  0  0
   27.0846  -19.8521  -12.7131 C   0  0  0  0  0  0  0  0  0  0  0  0
   27.6792  -19.2894  -13.9461 C   0  0  0  0  0  0  0  0  0  0  0  0
   26.8435  -19.4284  -15.1764 C   0  0  2  0  0  0  0  0  0  0  0  0
   27.4646  -18.7397  -16.2676 N   0  0  0  0  0  0  0  0  0  0  0  0
   25.4507  -18.9773  -14.9502 C   0  0  0  0  0  0  0  0  0  0  0  0
   25.2458  -17.7221  -14.7952 O   0  0  0  0  0  0  0  0  0  0  0  0
   26.5626  -18.9851  -11.7788 C   0  0  0  0  0  0  0  0  0  0  0  0
   26.0091  -19.4289  -10.5857 C   0  0  0  0  0  0  0  0  0  0  0  0
   24.3199  -19.8417  -14.8887 N   0  0  0  0  0  0  0  0  0  0  0  0
   23.0843  -19.3393  -14.3840 C   0  0  1  0  0  0  0  0  0  0  0  0
   22.2744  -18.5162  -15.3238 C   0  0  0  0  0  0  0  0  0  0  0  0
   22.2266  -18.9983  -16.7152 C   0  0  0  0  0  0  0  0  0  0  0  0
   22.7850  -18.2021  -17.7169 C   0  0  0  0  0  0  0  0  0  0  0  0
   22.7772  -18.5894  -19.0457 C   0  0  0  0  0  0  0  0  0  0  0  0
   22.2167  -19.7799  -19.4381 C   0  0  0  0  0  0  0  0  0  0  0  0
   21.6591  -20.5834  -18.4701 C   0  0  0  0  0  0  0  0  0  0  0  0
   21.6692  -20.1877  -17.1273 C   0  0  0  0  0  0  0  0  0  0  0  0
   22.2295  -20.4926  -13.9292 C   0  0  0  0  0  0  0  0  0  0  0  0
   22.6490  -21.6409  -14.1094 O   0  0  0  0  0  0  0  0  0  0  0  0
   21.0115  -20.2971  -13.3258 O   0  0  0  0  0  0  0  0  0  0  0  0
  2  1  1  6
  2  9  1  0
  2  3  1  0
  3  4  1  0
  4  5  2  0
  5  6  1  0
  7  6  1  0
  8  4  1  0
  8  7  2  0
  9 10  2  0
 11 12  1  0
 12 13  2  0
 12 22  1  0
 13 14  1  0
 14 15  2  0
 15 16  1  0
 17 16  1  1
 18 17  1  0
 18  9  1  0
 19 20  2  0
 19 17  1  0
 21 15  1  0
 22 21  2  0
 23 19  1  0
 24 25  1  6
 24 23  1  0
 25 26  1  0
 26 31  2  0
 27 28  2  0
 27 26  1  0
 28 29  1  0
 29 30  2  0
 31 30  1  0
 32 24  1  0
 32 34  1  0
 33 32  2  0
M  END
$$$$
