HYF.pdb
     RDKit          3D

 34 36  0  0  1  0  0  0  0  0999 V2000
   24.6430  -14.6393  -18.7838 N   0  0  0  0  0  0  0  0  0  0  0  0
   24.5930  -16.0688  -18.6290 C   0  0  1  0  0  0  0  0  0  0  0  0
   25.9582  -16.6894  -18.8312 C   0  0  0  0  0  0  0  0  0  0  0  0
   26.3623  -16.4409  -20.2393 C   0  0  0  0  0  0  0  0  0  0  0  0
   27.6475  -16.2630  -20.7206 C   0  0  0  0  0  0  0  0  0  0  0  0
   27.6225  -16.0587  -22.0695 N   0  0  0  0  0  0  0  0  0  0  0  0
   26.3297  -16.1103  -22.4174 C   0  0  0  0  0  0  0  0  0  0  0  0
   25.5661  -16.3370  -21.3398 N   0  0  0  0  0  0  0  0  0  0  0  0
   24.0383  -16.4126  -17.2839 C   0  0  0  0  0  0  0  0  0  0  0  0
   24.3428  -15.6862  -16.3217 O   0  0  0  0  0  0  0  0  0  0  0  0
   18.2908  -18.5737  -11.0967 O   0  0  0  0  0  0  0  0  0  0  0  0
   18.9916  -18.2715  -12.2677 C   0  0  0  0  0  0  0  0  0  0  0  0
   18.9210  -19.0891  -13.3764 C   0  0  0  0  0  0  0  0  0  0  0  0
   19.6035  -18.8134  -14.5456 C   0  0  0  0  0  0  0  0  0  0  0  0
   20.3899  -17.6958  -14.6468 C   0  0  0  0  0  0  0  0  0  0  0  0
   21.1735  -17.3428  -15.8518 C   0  0  0  0  0  0  0  0  0  0  0  0
   22.5782  -17.8504  -15.8687 C   0  0  2  0  0  0  0  0  0  0  0  0
   23.2000  -17.5218  -17.1162 N   0  0  0  0  0  0  0  0  0  0  0  0
   22.6433  -19.3012  -15.5761 C   0  0  0  0  0  0  0  0  0  0  0  0
   22.2939  -20.1148  -16.5022 O   0  0  0  0  0  0  0  0  0  0  0  0
   20.4681  -16.8718  -13.5459 C   0  0  0  0  0  0  0  0  0  0  0  0
   19.7848  -17.1436  -12.3685 C   0  0  0  0  0  0  0  0  0  0  0  0
   23.0642  -19.8584  -14.3343 N   0  0  0  0  0  0  0  0  0  0  0  0
   23.1965  -21.2732  -14.2136 C   0  0  1  0  0  0  0  0  0  0  0  0
   24.3201  -21.7600  -13.3668 C   0  0  0  0  0  0  0  0  0  0  0  0
   24.3984  -21.1789  -12.0151 C   0  0  0  0  0  0  0  0  0  0  0  0
   25.2571  -20.0989  -11.8017 C   0  0  0  0  0  0  0  0  0  0  0  0
   25.3831  -19.5017  -10.5595 C   0  0  0  0  0  0  0  0  0  0  0  0
   24.6653  -19.9482   -9.4776 C   0  0  0  0  0  0  0  0  0  0  0  0
   23.8118  -21.0119   -9.6610 C   0  0  0  0  0  0  0  0  0  0  0  0
   23.6874  -21.6129  -10.9191 C   0  0  0  0  0  0  0  0  0  0  0  0
   21.9197  -21.8443  -13.6558 C   0  0  0  0  0  0  0  0  0  0  0  0
   21.1628  -21.0915  -13.0333 O   0  0  0  0  0  0  0  0  0  0  0  0
   21.5834  -23.1651  -13.8236 O   0  0  0  0  0  0  0  0  0  0  0  0
  2  1  1  1
  2  9  1  0
  2  3  1  0
  3  4  1  0
  4  5  2  0
  5  6  1  0
  7  6  1  0
  8  4  1  0
  8  7  2  0
  9 10  2  0
 11 12  1  0
 12 13  2  0
 12 22  1  0
 13 14  1  0
 14 15  2  0
 15 16  1  0
 17 16  1  6
 18 17  1  0
 18  9  1  0
 19 20  2  0
 19 17  1  0
 21 15  1  0
 22 21  2  0
 23 19  1  0
 24 25  1  1
 24 23  1  0
 25 26  1  0
 26 31  2  0
 27 28  2  0
 27 26  1  0
 28 29  1  0
 29 30  2  0
 31 30  1  0
 32 24  1  0
 32 34  1  0
 33 32  2  0
M  END
$$$$
