HYF.pdb
     RDKit          3D

 34 36  0  0  1  0  0  0  0  0999 V2000
   29.0059  -32.4114  -21.5290 N   0  0  0  0  0  0  0  0  0  0  0  0
   28.2970  -33.1575  -20.5236 C   0  0  1  0  0  0  0  0  0  0  0  0
   29.2067  -33.5248  -19.3715 C   0  0  0  0  0  0  0  0  0  0  0  0
   30.1855  -34.5248  -19.8712 C   0  0  0  0  0  0  0  0  0  0  0  0
   30.0822  -35.9030  -19.7999 C   0  0  0  0  0  0  0  0  0  0  0  0
   31.1770  -36.4886  -20.3659 N   0  0  0  0  0  0  0  0  0  0  0  0
   31.9504  -35.4774  -20.7835 C   0  0  0  0  0  0  0  0  0  0  0  0
   31.3749  -34.3016  -20.4968 N   0  0  0  0  0  0  0  0  0  0  0  0
   27.1166  -32.3718  -20.0493 C   0  0  0  0  0  0  0  0  0  0  0  0
   27.2141  -31.1328  -20.0130 O   0  0  0  0  0  0  0  0  0  0  0  0
   24.4610  -29.6503  -25.0741 O   0  0  0  0  0  0  0  0  0  0  0  0
   24.2586  -30.3382  -23.8743 C   0  0  0  0  0  0  0  0  0  0  0  0
   23.6929  -29.7184  -22.7795 C   0  0  0  0  0  0  0  0  0  0  0  0
   23.4819  -30.3754  -21.5825 C   0  0  0  0  0  0  0  0  0  0  0  0
   23.8343  -31.6917  -21.4382 C   0  0  0  0  0  0  0  0  0  0  0  0
   23.6672  -32.4593  -20.1838 C   0  0  0  0  0  0  0  0  0  0  0  0
   24.7778  -32.3134  -19.1957 C   0  0  2  0  0  0  0  0  0  0  0  0
   25.9366  -33.0166  -19.6580 N   0  0  0  0  0  0  0  0  0  0  0  0
   24.3676  -32.7422  -17.8384 C   0  0  0  0  0  0  0  0  0  0  0  0
   24.2221  -33.9973  -17.6257 O   0  0  0  0  0  0  0  0  0  0  0  0
   24.4002  -32.3210  -22.5248 C   0  0  0  0  0  0  0  0  0  0  0  0
   24.6146  -31.6663  -23.7300 C   0  0  0  0  0  0  0  0  0  0  0  0
   24.1191  -31.8568  -16.7504 N   0  0  0  0  0  0  0  0  0  0  0  0
   23.8105  -32.3974  -15.4673 C   0  0  1  0  0  0  0  0  0  0  0  0
   24.8477  -33.2718  -14.8539 C   0  0  0  0  0  0  0  0  0  0  0  0
   26.2191  -32.7333  -14.8569 C   0  0  0  0  0  0  0  0  0  0  0  0
   27.2843  -33.6191  -14.6847 C   0  0  0  0  0  0  0  0  0  0  0  0
   28.5989  -33.1862  -14.6763 C   0  0  0  0  0  0  0  0  0  0  0  0
   28.9137  -31.8596  -14.8377 C   0  0  0  0  0  0  0  0  0  0  0  0
   27.8819  -30.9653  -15.0090 C   0  0  0  0  0  0  0  0  0  0  0  0
   26.5538  -31.4075  -15.0168 C   0  0  0  0  0  0  0  0  0  0  0  0
   23.5341  -31.2699  -14.5082 C   0  0  0  0  0  0  0  0  0  0  0  0
   23.0864  -31.5468  -13.3902 O   0  0  0  0  0  0  0  0  0  0  0  0
   23.7672  -29.9592  -14.8453 O   0  0  0  0  0  0  0  0  0  0  0  0
  2  1  1  6
  2  9  1  0
  2  3  1  0
  3  4  1  0
  4  5  2  0
  5  6  1  0
  7  6  1  0
  8  4  1  0
  8  7  2  0
  9 10  2  0
 11 12  1  0
 12 13  2  0
 12 22  1  0
 13 14  1  0
 14 15  2  0
 15 16  1  0
 17 16  1  6
 18 17  1  0
 18  9  1  0
 19 20  2  0
 19 17  1  0
 21 15  1  0
 22 21  2  0
 23 19  1  0
 24 25  1  1
 24 23  1  0
 25 26  1  0
 26 31  2  0
 27 28  2  0
 27 26  1  0
 28 29  1  0
 29 30  2  0
 31 30  1  0
 32 24  1  0
 32 34  1  0
 33 32  2  0
M  END
$$$$
