HYF.pdb
     RDKit          3D

 34 36  0  0  1  0  0  0  0  0999 V2000
   22.5995  -37.0836   -8.2732 N   0  0  0  0  0  0  0  0  0  0  0  0
   22.4651  -37.0826   -6.8407 C   0  0  1  0  0  0  0  0  0  0  0  0
   21.9994  -38.4300   -6.3336 C   0  0  0  0  0  0  0  0  0  0  0  0
   20.6073  -38.6347   -6.8112 C   0  0  0  0  0  0  0  0  0  0  0  0
   20.1703  -39.5651   -7.7379 C   0  0  0  0  0  0  0  0  0  0  0  0
   18.8229  -39.4524   -7.9208 N   0  0  0  0  0  0  0  0  0  0  0  0
   18.4317  -38.4586   -7.1118 C   0  0  0  0  0  0  0  0  0  0  0  0
   19.4817  -37.9610   -6.4441 N   0  0  0  0  0  0  0  0  0  0  0  0
   23.7630  -36.6888   -6.2115 C   0  0  0  0  0  0  0  0  0  0  0  0
   24.7866  -37.3137   -6.5401 O   0  0  0  0  0  0  0  0  0  0  0  0
   26.1309  -31.8617  -10.0547 O   0  0  0  0  0  0  0  0  0  0  0  0
   25.8939  -32.3285   -8.7586 C   0  0  0  0  0  0  0  0  0  0  0  0
   24.7688  -31.9512   -8.0555 C   0  0  0  0  0  0  0  0  0  0  0  0
   24.5110  -32.3980   -6.7738 C   0  0  0  0  0  0  0  0  0  0  0  0
   25.3813  -33.2485   -6.1438 C   0  0  0  0  0  0  0  0  0  0  0  0
   25.1929  -33.7512   -4.7645 C   0  0  0  0  0  0  0  0  0  0  0  0
   25.0347  -35.2315   -4.6427 C   0  0  2  0  0  0  0  0  0  0  0  0
   23.8203  -35.6455   -5.2790 N   0  0  0  0  0  0  0  0  0  0  0  0
   25.1083  -35.6793   -3.2325 C   0  0  0  0  0  0  0  0  0  0  0  0
   24.1053  -35.4347   -2.4738 O   0  0  0  0  0  0  0  0  0  0  0  0
   26.5085  -33.6321   -6.8361 C   0  0  0  0  0  0  0  0  0  0  0  0
   26.7729  -33.1865   -8.1240 C   0  0  0  0  0  0  0  0  0  0  0  0
   26.2188  -36.3612   -2.6568 N   0  0  0  0  0  0  0  0  0  0  0  0
   26.1626  -36.7537   -1.2869 C   0  0  1  0  0  0  0  0  0  0  0  0
   26.3218  -38.2081   -1.0111 C   0  0  0  0  0  0  0  0  0  0  0  0
   26.3311  -38.5901    0.4119 C   0  0  0  0  0  0  0  0  0  0  0  0
   27.5592  -38.8330    1.0296 C   0  0  0  0  0  0  0  0  0  0  0  0
   27.6462  -39.1958    2.3625 C   0  0  0  0  0  0  0  0  0  0  0  0
   26.5221  -39.3334    3.1388 C   0  0  0  0  0  0  0  0  0  0  0  0
   25.2985  -39.1000    2.5538 C   0  0  0  0  0  0  0  0  0  0  0  0
   25.2153  -38.7332    1.2054 C   0  0  0  0  0  0  0  0  0  0  0  0
   27.2293  -36.0205   -0.5175 C   0  0  0  0  0  0  0  0  0  0  0  0
   28.2910  -35.7567   -1.0921 O   0  0  0  0  0  0  0  0  0  0  0  0
   27.0484  -35.6432    0.7905 O   0  0  0  0  0  0  0  0  0  0  0  0
  2  1  1  6
  2  9  1  0
  2  3  1  0
  3  4  1  0
  4  5  2  0
  5  6  1  0
  7  6  1  0
  8  4  1  0
  8  7  2  0
  9 10  2  0
 11 12  1  0
 12 13  2  0
 12 22  1  0
 13 14  1  0
 14 15  2  0
 15 16  1  0
 17 16  1  1
 18 17  1  0
 18  9  1  0
 19 20  2  0
 19 17  1  0
 21 15  1  0
 22 21  2  0
 23 19  1  0
 24 25  1  6
 24 23  1  0
 25 26  1  0
 26 31  2  0
 27 28  2  0
 27 26  1  0
 28 29  1  0
 29 30  2  0
 31 30  1  0
 32 24  1  0
 32 34  1  0
 33 32  2  0
M  END
$$$$
