HYF.pdb
     RDKit          3D

 34 36  0  0  1  0  0  0  0  0999 V2000
   24.1507  -19.1311  -18.3188 N   0  0  0  0  0  0  0  0  0  0  0  0
   24.4093  -20.2196  -17.4141 C   0  0  1  0  0  0  0  0  0  0  0  0
   25.7487  -20.8628  -17.7004 C   0  0  0  0  0  0  0  0  0  0  0  0
   25.6225  -21.6200  -18.9726 C   0  0  0  0  0  0  0  0  0  0  0  0
   24.5037  -21.7131  -19.7819 C   0  0  0  0  0  0  0  0  0  0  0  0
   24.7693  -22.4976  -20.8662 N   0  0  0  0  0  0  0  0  0  0  0  0
   26.0440  -22.8857  -20.7261 C   0  0  0  0  0  0  0  0  0  0  0  0
   26.5666  -22.3721  -19.6041 N   0  0  0  0  0  0  0  0  0  0  0  0
   24.3358  -19.7322  -16.0026 C   0  0  0  0  0  0  0  0  0  0  0  0
   24.9144  -18.6687  -15.7194 O   0  0  0  0  0  0  0  0  0  0  0  0
   19.1185  -16.2215  -16.6859 O   0  0  0  0  0  0  0  0  0  0  0  0
   19.8159  -17.1189  -15.8724 C   0  0  0  0  0  0  0  0  0  0  0  0
   20.4787  -16.6935  -14.7400 C   0  0  0  0  0  0  0  0  0  0  0  0
   21.1751  -17.5596  -13.9191 C   0  0  0  0  0  0  0  0  0  0  0  0
   21.2329  -18.8981  -14.2069 C   0  0  0  0  0  0  0  0  0  0  0  0
   21.9782  -19.8866  -13.3957 C   0  0  0  0  0  0  0  0  0  0  0  0
   23.4389  -19.9817  -13.6927 C   0  0  2  0  0  0  0  0  0  0  0  0
   23.6344  -20.4556  -15.0300 N   0  0  0  0  0  0  0  0  0  0  0  0
   24.1511  -20.8133  -12.6948 C   0  0  0  0  0  0  0  0  0  0  0  0
   23.7961  -22.0384  -12.5739 O   0  0  0  0  0  0  0  0  0  0  0  0
   20.5747  -19.3346  -15.3354 C   0  0  0  0  0  0  0  0  0  0  0  0
   19.8734  -18.4693  -16.1639 C   0  0  0  0  0  0  0  0  0  0  0  0
   25.2028  -20.3465  -11.8548 N   0  0  0  0  0  0  0  0  0  0  0  0
   25.7943  -21.2412  -10.9149 C   0  0  1  0  0  0  0  0  0  0  0  0
   27.1132  -20.8337  -10.3571 C   0  0  0  0  0  0  0  0  0  0  0  0
   27.0619  -19.9781   -9.1587 C   0  0  0  0  0  0  0  0  0  0  0  0
   27.4785  -20.5131   -7.9384 C   0  0  0  0  0  0  0  0  0  0  0  0
   27.4585  -19.7696   -6.7711 C   0  0  0  0  0  0  0  0  0  0  0  0
   27.0256  -18.4667   -6.7630 C   0  0  0  0  0  0  0  0  0  0  0  0
   26.6092  -17.9152   -7.9530 C   0  0  0  0  0  0  0  0  0  0  0  0
   26.6311  -18.6708   -9.1313 C   0  0  0  0  0  0  0  0  0  0  0  0
   24.8491  -21.4424   -9.7601 C   0  0  0  0  0  0  0  0  0  0  0  0
   23.9155  -20.6450   -9.6200 O   0  0  0  0  0  0  0  0  0  0  0  0
   25.0004  -22.4797   -8.8730 O   0  0  0  0  0  0  0  0  0  0  0  0
  2  1  1  6
  2  9  1  0
  2  3  1  0
  3  4  1  0
  4  5  2  0
  5  6  1  0
  7  6  1  0
  8  4  1  0
  8  7  2  0
  9 10  2  0
 11 12  1  0
 12 13  2  0
 12 22  1  0
 13 14  1  0
 14 15  2  0
 15 16  1  0
 17 16  1  1
 18 17  1  0
 18  9  1  0
 19 20  2  0
 19 17  1  0
 21 15  1  0
 22 21  2  0
 23 19  1  0
 24 25  1  1
 24 23  1  0
 25 26  1  0
 26 31  2  0
 27 28  2  0
 27 26  1  0
 28 29  1  0
 29 30  2  0
 31 30  1  0
 32 24  1  0
 32 34  1  0
 33 32  2  0
M  END
$$$$
