HYF.pdb
     RDKit          3D

 34 36  0  0  1  0  0  0  0  0999 V2000
   15.8736   -9.6691  -11.9761 N   0  0  0  0  0  0  0  0  0  0  0  0
   16.5547   -8.4143  -11.7983 C   0  0  1  0  0  0  0  0  0  0  0  0
   16.8775   -7.7731  -13.1304 C   0  0  0  0  0  0  0  0  0  0  0  0
   17.8035   -8.6814  -13.8552 C   0  0  0  0  0  0  0  0  0  0  0  0
   19.0643   -9.0848  -13.4515 C   0  0  0  0  0  0  0  0  0  0  0  0
   19.6120   -9.9218  -14.3795 N   0  0  0  0  0  0  0  0  0  0  0  0
   18.6944  -10.0336  -15.3494 C   0  0  0  0  0  0  0  0  0  0  0  0
   17.6118   -9.3015  -15.0529 N   0  0  0  0  0  0  0  0  0  0  0  0
   15.7256   -7.5050  -10.9490 C   0  0  0  0  0  0  0  0  0  0  0  0
   14.6100   -7.1602  -11.3763 O   0  0  0  0  0  0  0  0  0  0  0  0
   10.3363   -9.9495   -8.3551 O   0  0  0  0  0  0  0  0  0  0  0  0
   11.4775   -9.1624   -8.1768 C   0  0  0  0  0  0  0  0  0  0  0  0
   11.3825   -7.8128   -7.9079 C   0  0  0  0  0  0  0  0  0  0  0  0
   12.4944   -7.0127   -7.7274 C   0  0  0  0  0  0  0  0  0  0  0  0
   13.7554   -7.5424   -7.8110 C   0  0  0  0  0  0  0  0  0  0  0  0
   14.9964   -6.7506   -7.6575 C   0  0  0  0  0  0  0  0  0  0  0  0
   15.4943   -6.0995   -8.9062 C   0  0  2  0  0  0  0  0  0  0  0  0
   16.1955   -7.0565   -9.7083 N   0  0  0  0  0  0  0  0  0  0  0  0
   16.3186   -4.9040   -8.6132 C   0  0  0  0  0  0  0  0  0  0  0  0
   17.5520   -5.0852   -8.3177 O   0  0  0  0  0  0  0  0  0  0  0  0
   13.8627   -8.8891   -8.0792 C   0  0  0  0  0  0  0  0  0  0  0  0
   12.7493   -9.6981   -8.2614 C   0  0  0  0  0  0  0  0  0  0  0  0
   15.8362   -3.5636   -8.6330 N   0  0  0  0  0  0  0  0  0  0  0  0
   16.7565   -2.4883   -8.4583 C   0  0  1  0  0  0  0  0  0  0  0  0
   17.8479   -2.3848   -9.4657 C   0  0  0  0  0  0  0  0  0  0  0  0
   17.4193   -2.0758  -10.8410 C   0  0  0  0  0  0  0  0  0  0  0  0
   17.2799   -0.7371  -11.2118 C   0  0  0  0  0  0  0  0  0  0  0  0
   16.8814   -0.3707  -12.4856 C   0  0  0  0  0  0  0  0  0  0  0  0
   16.6043   -1.3133  -13.4447 C   0  0  0  0  0  0  0  0  0  0  0  0
   16.7337   -2.6405  -13.1049 C   0  0  0  0  0  0  0  0  0  0  0  0
   17.1371   -3.0066  -11.8154 C   0  0  0  0  0  0  0  0  0  0  0  0
   16.0020   -1.1851   -8.4626 C   0  0  0  0  0  0  0  0  0  0  0  0
   14.7972   -1.2053   -8.7370 O   0  0  0  0  0  0  0  0  0  0  0  0
   16.6162    0.0080   -8.1706 O   0  0  0  0  0  0  0  0  0  0  0  0
  2  1  1  6
  2  9  1  0
  2  3  1  0
  3  4  1  0
  4  5  2  0
  5  6  1  0
  7  6  1  0
  8  4  1  0
  8  7  2  0
  9 10  2  0
 11 12  1  0
 12 13  2  0
 12 22  1  0
 13 14  1  0
 14 15  2  0
 15 16  1  0
 17 16  1  1
 18 17  1  0
 18  9  1  0
 19 20  2  0
 19 17  1  0
 21 15  1  0
 22 21  2  0
 23 19  1  0
 24 25  1  6
 24 23  1  0
 25 26  1  0
 26 31  2  0
 27 28  2  0
 27 26  1  0
 28 29  1  0
 29 30  2  0
 31 30  1  0
 32 24  1  0
 32 34  1  0
 33 32  2  0
M  END
$$$$
