HYF.pdb
     RDKit          3D

 34 36  0  0  1  0  0  0  0  0999 V2000
   22.4073   -9.4565  -18.5676 N   0  0  0  0  0  0  0  0  0  0  0  0
   22.8362   -8.1185  -18.8772 C   0  0  1  0  0  0  0  0  0  0  0  0
   22.4835   -7.7463  -20.3009 C   0  0  0  0  0  0  0  0  0  0  0  0
   23.2207   -8.6682  -21.2035 C   0  0  0  0  0  0  0  0  0  0  0  0
   22.6844   -9.6691  -21.9945 C   0  0  0  0  0  0  0  0  0  0  0  0
   23.6736  -10.3055  -22.6861 N   0  0  0  0  0  0  0  0  0  0  0  0
   24.8127   -9.7004  -22.3237 C   0  0  0  0  0  0  0  0  0  0  0  0
   24.5608   -8.7234  -21.4416 N   0  0  0  0  0  0  0  0  0  0  0  0
   22.2343   -7.1567  -17.9036 C   0  0  0  0  0  0  0  0  0  0  0  0
   21.0270   -7.2771  -17.6316 O   0  0  0  0  0  0  0  0  0  0  0  0
   19.8775   -9.3352  -12.2214 O   0  0  0  0  0  0  0  0  0  0  0  0
   20.6303   -8.3756  -12.9041 C   0  0  0  0  0  0  0  0  0  0  0  0
   20.2604   -7.0467  -12.9114 C   0  0  0  0  0  0  0  0  0  0  0  0
   20.9867   -6.0787  -13.5779 C   0  0  0  0  0  0  0  0  0  0  0  0
   22.1224   -6.4114  -14.2688 C   0  0  0  0  0  0  0  0  0  0  0  0
   22.9410   -5.4412  -15.0299 C   0  0  0  0  0  0  0  0  0  0  0  0
   22.4741   -5.1690  -16.4224 C   0  0  2  0  0  0  0  0  0  0  0  0
   23.0113   -6.1501  -17.3168 N   0  0  0  0  0  0  0  0  0  0  0  0
   22.7936   -3.7872  -16.8505 C   0  0  0  0  0  0  0  0  0  0  0  0
   23.9770   -3.5527  -17.2817 O   0  0  0  0  0  0  0  0  0  0  0  0
   22.5015   -7.7355  -14.2686 C   0  0  0  0  0  0  0  0  0  0  0  0
   21.7760   -8.7126  -13.6008 C   0  0  0  0  0  0  0  0  0  0  0  0
   21.8780   -2.6964  -16.8136 N   0  0  0  0  0  0  0  0  0  0  0  0
   22.2880   -1.4243  -17.3108 C   0  0  1  0  0  0  0  0  0  0  0  0
   22.0565   -1.1776  -18.7607 C   0  0  0  0  0  0  0  0  0  0  0  0
   22.5242    0.1239  -19.2690 C   0  0  0  0  0  0  0  0  0  0  0  0
   21.5779    1.1142  -19.5387 C   0  0  0  0  0  0  0  0  0  0  0  0
   21.9426    2.3604  -20.0178 C   0  0  0  0  0  0  0  0  0  0  0  0
   23.2580    2.6781  -20.2500 C   0  0  0  0  0  0  0  0  0  0  0  0
   24.2110    1.7193  -19.9926 C   0  0  0  0  0  0  0  0  0  0  0  0
   23.8377    0.4601  -19.5080 C   0  0  0  0  0  0  0  0  0  0  0  0
   21.5804   -0.3403  -16.5415 C   0  0  0  0  0  0  0  0  0  0  0  0
   20.5247   -0.6234  -15.9648 O   0  0  0  0  0  0  0  0  0  0  0  0
   22.0779    0.9376  -16.4674 O   0  0  0  0  0  0  0  0  0  0  0  0
  2  1  1  1
  2  9  1  0
  2  3  1  0
  3  4  1  0
  4  5  2  0
  5  6  1  0
  7  6  1  0
  8  4  1  0
  8  7  2  0
  9 10  2  0
 11 12  1  0
 12 13  2  0
 12 22  1  0
 13 14  1  0
 14 15  2  0
 15 16  1  0
 17 16  1  1
 18 17  1  0
 18  9  1  0
 19 20  2  0
 19 17  1  0
 21 15  1  0
 22 21  2  0
 23 19  1  0
 24 25  1  6
 24 23  1  0
 25 26  1  0
 26 31  2  0
 27 28  2  0
 27 26  1  0
 28 29  1  0
 29 30  2  0
 31 30  1  0
 32 24  1  0
 32 34  1  0
 33 32  2  0
M  END
$$$$
