HYF.pdb
     RDKit          3D

 34 36  0  0  1  0  0  0  0  0999 V2000
   26.8315  -17.5666  -17.9613 N   0  0  0  0  0  0  0  0  0  0  0  0
   27.3261  -18.3854  -16.8866 C   0  0  1  0  0  0  0  0  0  0  0  0
   28.7408  -18.0007  -16.5117 C   0  0  0  0  0  0  0  0  0  0  0  0
   29.6145  -18.3087  -17.6734 C   0  0  0  0  0  0  0  0  0  0  0  0
   30.5478  -17.4731  -18.2616 C   0  0  0  0  0  0  0  0  0  0  0  0
   31.1570  -18.1062  -19.3055 N   0  0  0  0  0  0  0  0  0  0  0  0
   30.6026  -19.3247  -19.3605 C   0  0  0  0  0  0  0  0  0  0  0  0
   29.6824  -19.4616  -18.3959 N   0  0  0  0  0  0  0  0  0  0  0  0
   26.4096  -18.2828  -15.7098 C   0  0  0  0  0  0  0  0  0  0  0  0
   26.4952  -17.2747  -14.9869 O   0  0  0  0  0  0  0  0  0  0  0  0
   21.9015  -14.7141  -18.1352 O   0  0  0  0  0  0  0  0  0  0  0  0
   22.2198  -15.8081  -17.3255 C   0  0  0  0  0  0  0  0  0  0  0  0
   22.7463  -16.9658  -17.8595 C   0  0  0  0  0  0  0  0  0  0  0  0
   23.0695  -18.0610  -17.0817 C   0  0  0  0  0  0  0  0  0  0  0  0
   22.8744  -18.0349  -15.7256 C   0  0  0  0  0  0  0  0  0  0  0  0
   23.1685  -19.1730  -14.8262 C   0  0  0  0  0  0  0  0  0  0  0  0
   24.5744  -19.2424  -14.3266 C   0  0  2  0  0  0  0  0  0  0  0  0
   25.4825  -19.2952  -15.4327 N   0  0  0  0  0  0  0  0  0  0  0  0
   24.7703  -20.3713  -13.3876 C   0  0  0  0  0  0  0  0  0  0  0  0
   25.1561  -21.4929  -13.8722 O   0  0  0  0  0  0  0  0  0  0  0  0
   22.3491  -16.8841  -15.1810 C   0  0  0  0  0  0  0  0  0  0  0  0
   22.0225  -15.7805  -15.9573 C   0  0  0  0  0  0  0  0  0  0  0  0
   24.5566  -20.3004  -11.9808 N   0  0  0  0  0  0  0  0  0  0  0  0
   24.7606  -21.4657  -11.1845 C   0  0  1  0  0  0  0  0  0  0  0  0
   26.0924  -21.5927  -10.5314 C   0  0  0  0  0  0  0  0  0  0  0  0
   26.3224  -20.7097   -9.3745 C   0  0  0  0  0  0  0  0  0  0  0  0
   26.6941  -19.3848   -9.6098 C   0  0  0  0  0  0  0  0  0  0  0  0
   26.9269  -18.4975   -8.5733 C   0  0  0  0  0  0  0  0  0  0  0  0
   26.8017  -18.8844   -7.2619 C   0  0  0  0  0  0  0  0  0  0  0  0
   26.4365  -20.1855   -7.0026 C   0  0  0  0  0  0  0  0  0  0  0  0
   26.2020  -21.0796   -8.0539 C   0  0  0  0  0  0  0  0  0  0  0  0
   23.7123  -21.5174  -10.1047 C   0  0  0  0  0  0  0  0  0  0  0  0
   23.6938  -22.4966   -9.3510 O   0  0  0  0  0  0  0  0  0  0  0  0
   22.7905  -20.5126   -9.9419 O   0  0  0  0  0  0  0  0  0  0  0  0
  2  1  1  6
  2  9  1  0
  2  3  1  0
  3  4  1  0
  4  5  2  0
  5  6  1  0
  7  6  1  0
  8  4  1  0
  8  7  2  0
  9 10  2  0
 11 12  1  0
 12 13  2  0
 12 22  1  0
 13 14  1  0
 14 15  2  0
 15 16  1  0
 17 16  1  6
 18 17  1  0
 18  9  1  0
 19 20  2  0
 19 17  1  0
 21 15  1  0
 22 21  2  0
 23 19  1  0
 24 25  1  1
 24 23  1  0
 25 26  1  0
 26 31  2  0
 27 28  2  0
 27 26  1  0
 28 29  1  0
 29 30  2  0
 31 30  1  0
 32 24  1  0
 32 34  1  0
 33 32  2  0
M  END
$$$$
