HYF.pdb
     RDKit          3D

 34 36  0  0  1  0  0  0  0  0999 V2000
   27.3325  -20.7064  -16.4027 N   0  0  0  0  0  0  0  0  0  0  0  0
   27.6456  -21.4483  -15.2104 C   0  0  1  0  0  0  0  0  0  0  0  0
   29.0534  -22.0007  -15.2633 C   0  0  0  0  0  0  0  0  0  0  0  0
   29.0868  -23.0493  -16.3155 C   0  0  0  0  0  0  0  0  0  0  0  0
   28.8242  -24.3990  -16.1587 C   0  0  0  0  0  0  0  0  0  0  0  0
   28.9543  -25.0473  -17.3522 N   0  0  0  0  0  0  0  0  0  0  0  0
   29.2951  -24.1029  -18.2394 C   0  0  0  0  0  0  0  0  0  0  0  0
   29.3783  -22.9078  -17.6387 N   0  0  0  0  0  0  0  0  0  0  0  0
   27.4521  -20.5796  -14.0090 C   0  0  0  0  0  0  0  0  0  0  0  0
   28.1872  -19.5849  -13.8810 O   0  0  0  0  0  0  0  0  0  0  0  0
   25.0064  -15.9638  -16.7920 O   0  0  0  0  0  0  0  0  0  0  0  0
   24.9920  -16.7670  -15.6481 C   0  0  0  0  0  0  0  0  0  0  0  0
   25.7414  -16.4438  -14.5361 C   0  0  0  0  0  0  0  0  0  0  0  0
   25.7449  -17.2202  -13.3932 C   0  0  0  0  0  0  0  0  0  0  0  0
   24.9891  -18.3610  -13.3231 C   0  0  0  0  0  0  0  0  0  0  0  0
   24.9577  -19.2608  -12.1483 C   0  0  0  0  0  0  0  0  0  0  0  0
   26.2034  -20.0526  -11.9197 C   0  0  2  0  0  0  0  0  0  0  0  0
   26.4699  -20.8808  -13.0573 N   0  0  0  0  0  0  0  0  0  0  0  0
   26.1371  -20.8333  -10.6625 C   0  0  0  0  0  0  0  0  0  0  0  0
   25.3154  -21.8150  -10.6102 O   0  0  0  0  0  0  0  0  0  0  0  0
   24.2366  -18.6938  -14.4276 C   0  0  0  0  0  0  0  0  0  0  0  0
   24.2290  -17.9178  -15.5786 C   0  0  0  0  0  0  0  0  0  0  0  0
   26.9209  -20.5682   -9.5028 N   0  0  0  0  0  0  0  0  0  0  0  0
   26.7562  -21.3873   -8.3471 C   0  0  1  0  0  0  0  0  0  0  0  0
   27.8812  -21.3850   -7.3719 C   0  0  0  0  0  0  0  0  0  0  0  0
   27.9272  -20.2335   -6.4539 C   0  0  0  0  0  0  0  0  0  0  0  0
   28.5162  -19.0485   -6.8986 C   0  0  0  0  0  0  0  0  0  0  0  0
   28.5957  -17.9262   -6.0926 C   0  0  0  0  0  0  0  0  0  0  0  0
   28.0960  -17.9300   -4.8137 C   0  0  0  0  0  0  0  0  0  0  0  0
   27.5104  -19.0860   -4.3507 C   0  0  0  0  0  0  0  0  0  0  0  0
   27.4322  -20.2188   -5.1693 C   0  0  0  0  0  0  0  0  0  0  0  0
   25.5111  -20.9641   -7.6134 C   0  0  0  0  0  0  0  0  0  0  0  0
   25.0891  -19.8156   -7.7873 O   0  0  0  0  0  0  0  0  0  0  0  0
   24.8437  -21.8164   -6.7684 O   0  0  0  0  0  0  0  0  0  0  0  0
  2  1  1  6
  2  9  1  0
  2  3  1  0
  3  4  1  0
  4  5  2  0
  5  6  1  0
  7  6  1  0
  8  4  1  0
  8  7  2  0
  9 10  2  0
 11 12  1  0
 12 13  2  0
 12 22  1  0
 13 14  1  0
 14 15  2  0
 15 16  1  0
 17 16  1  6
 18 17  1  0
 18  9  1  0
 19 20  2  0
 19 17  1  0
 21 15  1  0
 22 21  2  0
 23 19  1  0
 24 25  1  1
 24 23  1  0
 25 26  1  0
 26 31  2  0
 27 28  2  0
 27 26  1  0
 28 29  1  0
 29 30  2  0
 31 30  1  0
 32 24  1  0
 32 34  1  0
 33 32  2  0
M  END
$$$$
