HYF.pdb
     RDKit          3D

 34 36  0  0  1  0  0  0  0  0999 V2000
   22.0017  -15.9315  -19.2178 N   0  0  0  0  0  0  0  0  0  0  0  0
   23.1301  -16.2137  -18.3709 C   0  0  1  0  0  0  0  0  0  0  0  0
   23.8960  -14.9512  -18.0408 C   0  0  0  0  0  0  0  0  0  0  0  0
   25.1043  -14.9180  -18.9049 C   0  0  0  0  0  0  0  0  0  0  0  0
   25.4792  -13.9126  -19.7788 C   0  0  0  0  0  0  0  0  0  0  0  0
   26.6506  -14.2378  -20.3984 N   0  0  0  0  0  0  0  0  0  0  0  0
   26.9957  -15.4365  -19.9093 C   0  0  0  0  0  0  0  0  0  0  0  0
   26.0860  -15.8557  -19.0190 N   0  0  0  0  0  0  0  0  0  0  0  0
   22.6690  -16.9053  -17.1281 C   0  0  0  0  0  0  0  0  0  0  0  0
   21.6017  -16.5312  -16.6114 O   0  0  0  0  0  0  0  0  0  0  0  0
   19.6008  -22.6923  -11.6178 O   0  0  0  0  0  0  0  0  0  0  0  0
   20.1087  -21.8826  -12.6376 C   0  0  0  0  0  0  0  0  0  0  0  0
   21.1746  -22.2902  -13.4125 C   0  0  0  0  0  0  0  0  0  0  0  0
   21.6955  -21.5094  -14.4264 C   0  0  0  0  0  0  0  0  0  0  0  0
   21.1609  -20.2784  -14.7031 C   0  0  0  0  0  0  0  0  0  0  0  0
   21.6761  -19.3703  -15.7522 C   0  0  0  0  0  0  0  0  0  0  0  0
   22.9772  -18.7075  -15.4373 C   0  0  2  0  0  0  0  0  0  0  0  0
   23.4206  -17.9442  -16.5650 N   0  0  0  0  0  0  0  0  0  0  0  0
   23.9971  -19.6825  -14.9857 C   0  0  0  0  0  0  0  0  0  0  0  0
   24.5300  -20.4431  -15.8683 O   0  0  0  0  0  0  0  0  0  0  0  0
   20.0962  -19.8607  -13.9357 C   0  0  0  0  0  0  0  0  0  0  0  0
   19.5684  -20.6407  -12.9158 C   0  0  0  0  0  0  0  0  0  0  0  0
   24.4266  -19.8380  -13.6363 N   0  0  0  0  0  0  0  0  0  0  0  0
   25.7377  -20.3338  -13.3742 C   0  0  1  0  0  0  0  0  0  0  0  0
   26.3194  -19.9899  -12.0475 C   0  0  0  0  0  0  0  0  0  0  0  0
   25.4708  -20.2917  -10.8815 C   0  0  0  0  0  0  0  0  0  0  0  0
   25.9525  -21.1792   -9.9174 C   0  0  0  0  0  0  0  0  0  0  0  0
   25.2120  -21.5103   -8.7959 C   0  0  0  0  0  0  0  0  0  0  0  0
   23.9648  -20.9773   -8.5822 C   0  0  0  0  0  0  0  0  0  0  0  0
   23.4665  -20.0998   -9.5177 C   0  0  0  0  0  0  0  0  0  0  0  0
   24.2189  -19.7677  -10.6505 C   0  0  0  0  0  0  0  0  0  0  0  0
   25.7340  -21.8345  -13.4993 C   0  0  0  0  0  0  0  0  0  0  0  0
   26.8177  -22.4279  -13.4785 O   0  0  0  0  0  0  0  0  0  0  0  0
   24.5675  -22.5468  -13.6327 O   0  0  0  0  0  0  0  0  0  0  0  0
  2  1  1  6
  2  9  1  0
  2  3  1  0
  3  4  1  0
  4  5  2  0
  5  6  1  0
  7  6  1  0
  8  4  1  0
  8  7  2  0
  9 10  2  0
 11 12  1  0
 12 13  2  0
 12 22  1  0
 13 14  1  0
 14 15  2  0
 15 16  1  0
 17 16  1  6
 18 17  1  0
 18  9  1  0
 19 20  2  0
 19 17  1  0
 21 15  1  0
 22 21  2  0
 23 19  1  0
 24 25  1  1
 24 23  1  0
 25 26  1  0
 26 31  2  0
 27 28  2  0
 27 26  1  0
 28 29  1  0
 29 30  2  0
 31 30  1  0
 32 24  1  0
 32 34  1  0
 33 32  2  0
M  END
$$$$
