HYF.pdb
     RDKit          3D

 34 36  0  0  1  0  0  0  0  0999 V2000
   21.3137  -33.0588   -6.2664 N   0  0  0  0  0  0  0  0  0  0  0  0
   22.5449  -33.7661   -6.0340 C   0  0  1  0  0  0  0  0  0  0  0  0
   23.7330  -32.9783   -6.5414 C   0  0  0  0  0  0  0  0  0  0  0  0
   23.6853  -32.9971   -8.0264 C   0  0  0  0  0  0  0  0  0  0  0  0
   22.6920  -33.5385   -8.8236 C   0  0  0  0  0  0  0  0  0  0  0  0
   22.9971  -33.3641  -10.1420 N   0  0  0  0  0  0  0  0  0  0  0  0
   24.1713  -32.7191  -10.1574 C   0  0  0  0  0  0  0  0  0  0  0  0
   24.5949  -32.4929   -8.9063 N   0  0  0  0  0  0  0  0  0  0  0  0
   22.6841  -34.0736   -4.5775 C   0  0  0  0  0  0  0  0  0  0  0  0
   22.5397  -33.1426   -3.7660 O   0  0  0  0  0  0  0  0  0  0  0  0
   23.5268  -38.9232    2.8284 O   0  0  0  0  0  0  0  0  0  0  0  0
   23.3491  -38.4914    1.5110 C   0  0  0  0  0  0  0  0  0  0  0  0
   24.3814  -38.5348    0.5972 C   0  0  0  0  0  0  0  0  0  0  0  0
   24.2322  -38.1143   -0.7104 C   0  0  0  0  0  0  0  0  0  0  0  0
   23.0296  -37.6298   -1.1540 C   0  0  0  0  0  0  0  0  0  0  0  0
   22.7943  -37.1351   -2.5290 C   0  0  0  0  0  0  0  0  0  0  0  0
   23.1773  -35.7111   -2.7671 C   0  0  2  0  0  0  0  0  0  0  0  0
   22.9690  -35.3742   -4.1434 N   0  0  0  0  0  0  0  0  0  0  0  0
   24.5640  -35.4324   -2.3266 C   0  0  0  0  0  0  0  0  0  0  0  0
   25.5227  -35.8651   -3.0581 O   0  0  0  0  0  0  0  0  0  0  0  0
   21.9914  -37.5817   -0.2503 C   0  0  0  0  0  0  0  0  0  0  0  0
   22.1352  -38.0027    1.0647 C   0  0  0  0  0  0  0  0  0  0  0  0
   24.9092  -34.7190   -1.1428 N   0  0  0  0  0  0  0  0  0  0  0  0
   26.2778  -34.4075   -0.8900 C   0  0  1  0  0  0  0  0  0  0  0  0
   26.6974  -33.0068   -1.1702 C   0  0  0  0  0  0  0  0  0  0  0  0
   25.8090  -31.9570   -0.6417 C   0  0  0  0  0  0  0  0  0  0  0  0
   26.0294  -31.4861    0.6540 C   0  0  0  0  0  0  0  0  0  0  0  0
   25.2359  -30.5017    1.2171 C   0  0  0  0  0  0  0  0  0  0  0  0
   24.1920  -29.9430    0.5220 C   0  0  0  0  0  0  0  0  0  0  0  0
   23.9530  -30.3898   -0.7574 C   0  0  0  0  0  0  0  0  0  0  0  0
   24.7580  -31.3856   -1.3231 C   0  0  0  0  0  0  0  0  0  0  0  0
   26.5946  -34.7025    0.5523 C   0  0  0  0  0  0  0  0  0  0  0  0
   27.7619  -34.5703    0.9357 O   0  0  0  0  0  0  0  0  0  0  0  0
   25.6265  -35.1083    1.4378 O   0  0  0  0  0  0  0  0  0  0  0  0
  2  1  1  1
  2  9  1  0
  2  3  1  0
  3  4  1  0
  4  5  2  0
  5  6  1  0
  7  6  1  0
  8  4  1  0
  8  7  2  0
  9 10  2  0
 11 12  1  0
 12 13  2  0
 12 22  1  0
 13 14  1  0
 14 15  2  0
 15 16  1  0
 17 16  1  6
 18 17  1  0
 18  9  1  0
 19 20  2  0
 19 17  1  0
 21 15  1  0
 22 21  2  0
 23 19  1  0
 24 25  1  1
 24 23  1  0
 25 26  1  0
 26 31  2  0
 27 28  2  0
 27 26  1  0
 28 29  1  0
 29 30  2  0
 31 30  1  0
 32 24  1  0
 32 34  1  0
 33 32  2  0
M  END
$$$$
