HYF.pdb
     RDKit          3D

 34 36  0  0  1  0  0  0  0  0999 V2000
   27.7077  -22.9890  -16.7320 N   0  0  0  0  0  0  0  0  0  0  0  0
   28.7664  -22.1223  -16.2868 C   0  0  1  0  0  0  0  0  0  0  0  0
   29.4586  -21.4581  -17.4569 C   0  0  0  0  0  0  0  0  0  0  0  0
   30.0751  -22.5286  -18.2827 C   0  0  0  0  0  0  0  0  0  0  0  0
   31.0894  -23.3926  -17.9087 C   0  0  0  0  0  0  0  0  0  0  0  0
   31.3910  -24.2394  -18.9353 N   0  0  0  0  0  0  0  0  0  0  0  0
   30.5675  -23.8993  -19.9361 C   0  0  0  0  0  0  0  0  0  0  0  0
   29.7776  -22.8826  -19.5641 N   0  0  0  0  0  0  0  0  0  0  0  0
   28.2213  -21.1061  -15.3351 C   0  0  0  0  0  0  0  0  0  0  0  0
   28.9979  -20.2409  -14.8942 O   0  0  0  0  0  0  0  0  0  0  0  0
   28.0997  -15.7321  -18.4584 O   0  0  0  0  0  0  0  0  0  0  0  0
   27.4460  -16.5971  -17.5762 C   0  0  0  0  0  0  0  0  0  0  0  0
   26.9046  -17.7891  -18.0105 C   0  0  0  0  0  0  0  0  0  0  0  0
   26.2539  -18.6615  -17.1595 C   0  0  0  0  0  0  0  0  0  0  0  0
   26.1208  -18.3673  -15.8277 C   0  0  0  0  0  0  0  0  0  0  0  0
   25.4160  -19.2333  -14.8563 C   0  0  0  0  0  0  0  0  0  0  0  0
   26.2915  -20.1597  -14.0774 C   0  0  2  0  0  0  0  0  0  0  0  0
   26.8741  -21.1312  -14.9535 N   0  0  0  0  0  0  0  0  0  0  0  0
   25.5639  -20.7878  -12.9502 C   0  0  0  0  0  0  0  0  0  0  0  0
   24.8877  -21.8490  -13.1914 O   0  0  0  0  0  0  0  0  0  0  0  0
   26.6575  -17.1795  -15.3825 C   0  0  0  0  0  0  0  0  0  0  0  0
   27.3125  -16.2990  -16.2327 C   0  0  0  0  0  0  0  0  0  0  0  0
   25.5591  -20.2934  -11.6141 N   0  0  0  0  0  0  0  0  0  0  0  0
   24.7491  -20.9393  -10.6340 C   0  0  1  0  0  0  0  0  0  0  0  0
   25.1658  -20.7644   -9.2154 C   0  0  0  0  0  0  0  0  0  0  0  0
   26.6143  -20.8521   -8.9606 C   0  0  0  0  0  0  0  0  0  0  0  0
   27.2692  -19.7343   -8.4403 C   0  0  0  0  0  0  0  0  0  0  0  0
   28.6278  -19.7426   -8.1755 C   0  0  0  0  0  0  0  0  0  0  0  0
   29.3940  -20.8566   -8.4146 C   0  0  0  0  0  0  0  0  0  0  0  0
   28.7727  -21.9720   -8.9278 C   0  0  0  0  0  0  0  0  0  0  0  0
   27.3984  -21.9592   -9.1941 C   0  0  0  0  0  0  0  0  0  0  0  0
   23.3315  -20.4475  -10.7608 C   0  0  0  0  0  0  0  0  0  0  0  0
   23.1038  -19.5040  -11.5258 O   0  0  0  0  0  0  0  0  0  0  0  0
   22.3013  -21.0186  -10.0549 O   0  0  0  0  0  0  0  0  0  0  0  0
  2  1  1  6
  2  9  1  0
  2  3  1  0
  3  4  1  0
  4  5  2  0
  5  6  1  0
  7  6  1  0
  8  4  1  0
  8  7  2  0
  9 10  2  0
 11 12  1  0
 12 13  2  0
 12 22  1  0
 13 14  1  0
 14 15  2  0
 15 16  1  0
 17 16  1  6
 18 17  1  0
 18  9  1  0
 19 20  2  0
 19 17  1  0
 21 15  1  0
 22 21  2  0
 23 19  1  0
 24 25  1  1
 24 23  1  0
 25 26  1  0
 26 31  2  0
 27 28  2  0
 27 26  1  0
 28 29  1  0
 29 30  2  0
 31 30  1  0
 32 24  1  0
 32 34  1  0
 33 32  2  0
M  END
$$$$
