HYF.pdb
     RDKit          3D

 34 36  0  0  1  0  0  0  0  0999 V2000
   28.1428  -17.6668  -18.7096 N   0  0  0  0  0  0  0  0  0  0  0  0
   28.1745  -18.8533  -17.8964 C   0  0  1  0  0  0  0  0  0  0  0  0
   29.5938  -19.3321  -17.6818 C   0  0  0  0  0  0  0  0  0  0  0  0
   30.0703  -19.9175  -18.9617 C   0  0  0  0  0  0  0  0  0  0  0  0
   29.3680  -20.0107  -20.1505 C   0  0  0  0  0  0  0  0  0  0  0  0
   30.1354  -20.6095  -21.1067 N   0  0  0  0  0  0  0  0  0  0  0  0
   31.3037  -20.8839  -20.5108 C   0  0  0  0  0  0  0  0  0  0  0  0
   31.2816  -20.4784  -19.2336 N   0  0  0  0  0  0  0  0  0  0  0  0
   27.4909  -18.5912  -16.5928 C   0  0  0  0  0  0  0  0  0  0  0  0
   28.1147  -17.9617  -15.7206 O   0  0  0  0  0  0  0  0  0  0  0  0
   24.7543  -12.9076  -17.7641 O   0  0  0  0  0  0  0  0  0  0  0  0
   24.6066  -14.1768  -17.1974 C   0  0  0  0  0  0  0  0  0  0  0  0
   24.6184  -14.3569  -15.8299 C   0  0  0  0  0  0  0  0  0  0  0  0
   24.4745  -15.6001  -15.2446 C   0  0  0  0  0  0  0  0  0  0  0  0
   24.3118  -16.7199  -16.0175 C   0  0  0  0  0  0  0  0  0  0  0  0
   24.1781  -18.0889  -15.4712 C   0  0  0  0  0  0  0  0  0  0  0  0
   25.4659  -18.7765  -15.1550 C   0  0  2  0  0  0  0  0  0  0  0  0
   26.1853  -19.0434  -16.3642 N   0  0  0  0  0  0  0  0  0  0  0  0
   25.2533  -20.0009  -14.3486 C   0  0  0  0  0  0  0  0  0  0  0  0
   24.7914  -21.0370  -14.9442 O   0  0  0  0  0  0  0  0  0  0  0  0
   24.2985  -16.5523  -17.3845 C   0  0  0  0  0  0  0  0  0  0  0  0
   24.4426  -15.3059  -17.9784 C   0  0  0  0  0  0  0  0  0  0  0  0
   25.5228  -20.1084  -12.9539 N   0  0  0  0  0  0  0  0  0  0  0  0
   25.3601  -21.3688  -12.3070 C   0  0  1  0  0  0  0  0  0  0  0  0
   26.3295  -21.6824  -11.2213 C   0  0  0  0  0  0  0  0  0  0  0  0
   26.1714  -20.9036   -9.9806 C   0  0  0  0  0  0  0  0  0  0  0  0
   26.4107  -19.5287  -10.0206 C   0  0  0  0  0  0  0  0  0  0  0  0
   26.2824  -18.7330   -8.8954 C   0  0  0  0  0  0  0  0  0  0  0  0
   25.9123  -19.2645   -7.6847 C   0  0  0  0  0  0  0  0  0  0  0  0
   25.6708  -20.6176   -7.6180 C   0  0  0  0  0  0  0  0  0  0  0  0
   25.8018  -21.4186   -8.7585 C   0  0  0  0  0  0  0  0  0  0  0  0
   23.9743  -21.4509  -11.7236 C   0  0  0  0  0  0  0  0  0  0  0  0
   23.3486  -20.4000  -11.5470 O   0  0  0  0  0  0  0  0  0  0  0  0
   23.3992  -22.6526  -11.3901 O   0  0  0  0  0  0  0  0  0  0  0  0
  2  1  1  6
  2  9  1  0
  2  3  1  0
  3  4  1  0
  4  5  2  0
  5  6  1  0
  7  6  1  0
  8  4  1  0
  8  7  2  0
  9 10  2  0
 11 12  1  0
 12 13  2  0
 12 22  1  0
 13 14  1  0
 14 15  2  0
 15 16  1  0
 17 16  1  6
 18 17  1  0
 18  9  1  0
 19 20  2  0
 19 17  1  0
 21 15  1  0
 22 21  2  0
 23 19  1  0
 24 25  1  1
 24 23  1  0
 25 26  1  0
 26 31  2  0
 27 28  2  0
 27 26  1  0
 28 29  1  0
 29 30  2  0
 31 30  1  0
 32 24  1  0
 32 34  1  0
 33 32  2  0
M  END
$$$$
