GVF.pdb
     RDKit          3D

 23 23  0  0  1  0  0  0  0  0999 V2000
    5.5727  -19.8545   22.0121 N   0  0  0  0  0  0  0  0  0  0  0  0
    5.4958  -18.4778   22.4338 C   0  0  0  0  0  0  0  0  0  0  0  0
    6.7637  -17.7433   22.1218 C   0  0  0  0  0  0  0  0  0  0  0  0
    7.8540  -18.3570   22.0906 O   0  0  0  0  0  0  0  0  0  0  0  0
    6.6138  -13.4739   22.0325 C   0  0  0  0  0  0  0  0  0  0  0  0
    7.6459  -14.1559   21.1934 C   0  0  1  0  0  0  0  0  0  0  0  0
    8.8815  -13.3564   20.9539 C   0  0  0  0  0  0  0  0  0  0  0  0
    7.9715  -15.5541   21.7326 C   0  0  2  0  0  0  0  0  0  0  0  0
    6.7717  -16.3480   21.8552 N   0  0  0  0  0  0  0  0  0  0  0  0
    8.7316  -15.4757   23.0044 C   0  0  0  0  0  0  0  0  0  0  0  0
    9.8798  -14.9641   22.9468 O   0  0  0  0  0  0  0  0  0  0  0  0
    8.2630  -15.9268   24.2482 N   0  0  0  0  0  0  0  0  0  0  0  0
    8.9695  -15.7921   25.5044 C   0  0  1  0  0  0  0  0  0  0  0  0
    8.0388  -15.5058   26.6568 C   0  0  0  0  0  0  0  0  0  0  0  0
    7.4363  -14.1564   26.5927 C   0  0  0  0  0  0  0  0  0  0  0  0
    6.1066  -13.9122   26.3360 C   0  0  0  0  0  0  0  0  0  0  0  0
    5.5753  -12.6398   26.2813 C   0  0  0  0  0  0  0  0  0  0  0  0
    6.3923  -11.5536   26.4896 C   0  0  0  0  0  0  0  0  0  0  0  0
    7.7285  -11.7602   26.7492 C   0  0  0  0  0  0  0  0  0  0  0  0
    8.2465  -13.0610   26.8000 C   0  0  0  0  0  0  0  0  0  0  0  0
    9.7203  -17.0201   25.8199 C   0  0  0  0  0  0  0  0  0  0  0  0
    9.6400  -18.1570   24.9953 O   0  0  0  0  0  0  0  0  0  0  0  0
   10.4567  -17.1197   26.8185 O   0  0  0  0  0  0  0  0  0  0  0  0
  1  2  1  0
  3  4  2  0
  3  2  1  0
  6  5  1  1
  6  8  1  0
  7  6  1  0
  8 10  1  0
  8  9  1  1
  9  3  1  0
 10 12  1  0
 11 10  2  0
 12 13  1  0
 13 21  1  0
 13 14  1  1
 14 15  1  0
 15 16  2  0
 16 17  1  0
 18 17  2  0
 19 18  1  0
 20 19  2  0
 20 15  1  0
 21 23  2  0
 21 22  1  0
M  END
$$$$
