GVF.pdb
     RDKit          3D

 23 23  0  0  1  0  0  0  0  0999 V2000
   11.6869  -17.3626   18.5145 N   0  0  0  0  0  0  0  0  0  0  0  0
   10.3242  -17.3449   18.9853 C   0  0  0  0  0  0  0  0  0  0  0  0
   10.1469  -16.3557   20.0963 C   0  0  0  0  0  0  0  0  0  0  0  0
   11.0561  -16.1888   20.9401 O   0  0  0  0  0  0  0  0  0  0  0  0
    7.8394  -12.9746   19.8579 C   0  0  0  0  0  0  0  0  0  0  0  0
    7.5157  -13.7922   21.0667 C   0  0  1  0  0  0  0  0  0  0  0  0
    6.1825  -14.4590   21.0287 C   0  0  0  0  0  0  0  0  0  0  0  0
    8.6378  -14.7872   21.3869 C   0  0  2  0  0  0  0  0  0  0  0  0
    8.9602  -15.5860   20.2280 N   0  0  0  0  0  0  0  0  0  0  0  0
    8.2992  -15.6160   22.5700 C   0  0  0  0  0  0  0  0  0  0  0  0
    7.8301  -16.7613   22.3431 O   0  0  0  0  0  0  0  0  0  0  0  0
    8.4644  -15.2143   23.9048 N   0  0  0  0  0  0  0  0  0  0  0  0
    8.1648  -16.0281   25.0638 C   0  0  1  0  0  0  0  0  0  0  0  0
    8.3916  -15.2866   26.3580 C   0  0  0  0  0  0  0  0  0  0  0  0
    7.7850  -13.9375   26.3659 C   0  0  0  0  0  0  0  0  0  0  0  0
    8.4764  -12.7749   26.1132 C   0  0  0  0  0  0  0  0  0  0  0  0
    7.8808  -11.5302   26.1297 C   0  0  0  0  0  0  0  0  0  0  0  0
    6.5386  -11.4236   26.4085 C   0  0  0  0  0  0  0  0  0  0  0  0
    5.8150  -12.5661   26.6663 C   0  0  0  0  0  0  0  0  0  0  0  0
    6.4403  -13.8197   26.6442 C   0  0  0  0  0  0  0  0  0  0  0  0
    6.7633  -16.4827   25.0393 C   0  0  0  0  0  0  0  0  0  0  0  0
    6.3249  -17.5415   25.8553 O   0  0  0  0  0  0  0  0  0  0  0  0
    5.9013  -15.9638   24.3066 O   0  0  0  0  0  0  0  0  0  0  0  0
  1  2  1  0
  3  4  2  0
  3  2  1  0
  6  5  1  6
  6  8  1  0
  7  6  1  0
  8 10  1  0
  8  9  1  6
  9  3  1  0
 10 12  1  0
 11 10  2  0
 12 13  1  0
 13 21  1  0
 13 14  1  1
 14 15  1  0
 15 16  2  0
 16 17  1  0
 18 17  2  0
 19 18  1  0
 20 19  2  0
 20 15  1  0
 21 23  2  0
 21 22  1  0
M  END
$$$$
