GVF.pdb
     RDKit          3D

 23 23  0  0  1  0  0  0  0  0999 V2000
    8.7070  -16.6764   17.5575 N   0  0  0  0  0  0  0  0  0  0  0  0
    8.4917  -17.6955   18.5545 C   0  0  0  0  0  0  0  0  0  0  0  0
    7.9580  -17.1074   19.8248 C   0  0  0  0  0  0  0  0  0  0  0  0
    8.2851  -15.9487   20.1669 O   0  0  0  0  0  0  0  0  0  0  0  0
    4.9594  -17.7804   23.7873 C   0  0  0  0  0  0  0  0  0  0  0  0
    5.3637  -18.1456   22.3954 C   0  0  1  0  0  0  0  0  0  0  0  0
    4.2637  -18.0830   21.3907 C   0  0  0  0  0  0  0  0  0  0  0  0
    6.5919  -17.3475   21.9412 C   0  0  2  0  0  0  0  0  0  0  0  0
    7.0769  -17.8328   20.6707 N   0  0  0  0  0  0  0  0  0  0  0  0
    7.6456  -17.3427   22.9857 C   0  0  0  0  0  0  0  0  0  0  0  0
    8.3576  -18.3763   23.0760 O   0  0  0  0  0  0  0  0  0  0  0  0
    7.8976  -16.2791   23.8663 N   0  0  0  0  0  0  0  0  0  0  0  0
    8.9438  -16.2543   24.8664 C   0  0  1  0  0  0  0  0  0  0  0  0
    9.3501  -14.8489   25.2351 C   0  0  0  0  0  0  0  0  0  0  0  0
    8.2237  -14.0351   25.7420 C   0  0  0  0  0  0  0  0  0  0  0  0
    8.3697  -12.8862   26.4853 C   0  0  0  0  0  0  0  0  0  0  0  0
    7.2972  -12.1497   26.9450 C   0  0  0  0  0  0  0  0  0  0  0  0
    6.0174  -12.5634   26.6595 C   0  0  0  0  0  0  0  0  0  0  0  0
    5.8332  -13.7086   25.9179 C   0  0  0  0  0  0  0  0  0  0  0  0
    6.9369  -14.4410   25.4613 C   0  0  0  0  0  0  0  0  0  0  0  0
    8.5118  -16.9408   26.0966 C   0  0  0  0  0  0  0  0  0  0  0  0
    9.4277  -17.2553   27.1171 O   0  0  0  0  0  0  0  0  0  0  0  0
    7.3305  -17.2761   26.2996 O   0  0  0  0  0  0  0  0  0  0  0  0
  1  2  1  0
  3  4  2  0
  3  2  1  0
  6  5  1  1
  6  8  1  0
  7  6  1  0
  8 10  1  0
  8  9  1  6
  9  3  1  0
 10 12  1  0
 11 10  2  0
 12 13  1  0
 13 21  1  0
 13 14  1  1
 14 15  1  0
 15 16  2  0
 16 17  1  0
 18 17  2  0
 19 18  1  0
 20 19  2  0
 20 15  1  0
 21 23  2  0
 21 22  1  0
M  END
$$$$
