GVF.pdb
     RDKit          3D

 23 23  0  0  1  0  0  0  0  0999 V2000
    8.1961  -11.6431   19.1076 N   0  0  0  0  0  0  0  0  0  0  0  0
    8.8494  -12.9077   19.3378 C   0  0  0  0  0  0  0  0  0  0  0  0
    8.1733  -13.6763   20.4317 C   0  0  0  0  0  0  0  0  0  0  0  0
    7.4547  -13.0814   21.2661 O   0  0  0  0  0  0  0  0  0  0  0  0
    8.7594  -17.9521   20.6870 C   0  0  0  0  0  0  0  0  0  0  0  0
    7.4770  -17.3152   21.1161 C   0  0  1  0  0  0  0  0  0  0  0  0
    6.6888  -18.1063   22.1042 C   0  0  0  0  0  0  0  0  0  0  0  0
    7.6989  -15.8743   21.5920 C   0  0  2  0  0  0  0  0  0  0  0  0
    8.3222  -15.0835   20.5572 N   0  0  0  0  0  0  0  0  0  0  0  0
    8.4585  -15.8406   22.8661 C   0  0  0  0  0  0  0  0  0  0  0  0
    9.7122  -15.7827   22.7761 O   0  0  0  0  0  0  0  0  0  0  0  0
    7.8812  -15.8685   24.1453 N   0  0  0  0  0  0  0  0  0  0  0  0
    8.6163  -15.8621   25.3923 C   0  0  1  0  0  0  0  0  0  0  0  0
    7.7742  -15.3877   26.5507 C   0  0  0  0  0  0  0  0  0  0  0  0
    7.3932  -13.9624   26.4437 C   0  0  0  0  0  0  0  0  0  0  0  0
    8.2918  -12.9245   26.3481 C   0  0  0  0  0  0  0  0  0  0  0  0
    7.9037  -11.6039   26.2510 C   0  0  0  0  0  0  0  0  0  0  0  0
    6.5655  -11.2881   26.2477 C   0  0  0  0  0  0  0  0  0  0  0  0
    5.6378  -12.3011   26.3418 C   0  0  0  0  0  0  0  0  0  0  0  0
    6.0544  -13.6352   26.4395 C   0  0  0  0  0  0  0  0  0  0  0  0
    9.1163  -17.2101   25.7151 C   0  0  0  0  0  0  0  0  0  0  0  0
    8.6526  -18.3452   25.0254 O   0  0  0  0  0  0  0  0  0  0  0  0
    9.9641  -17.4178   26.6024 O   0  0  0  0  0  0  0  0  0  0  0  0
  1  2  1  0
  3  4  2  0
  3  2  1  0
  6  5  1  1
  6  8  1  0
  7  6  1  0
  8 10  1  0
  8  9  1  6
  9  3  1  0
 10 12  1  0
 11 10  2  0
 12 13  1  0
 13 21  1  0
 13 14  1  1
 14 15  1  0
 15 16  2  0
 16 17  1  0
 18 17  2  0
 19 18  1  0
 20 19  2  0
 20 15  1  0
 21 23  2  0
 21 22  1  0
M  END
$$$$
