GVF.pdb
     RDKit          3D

 23 23  0  0  1  0  0  0  0  0999 V2000
    8.0160  -12.1134   18.5207 N   0  0  0  0  0  0  0  0  0  0  0  0
    8.8762  -13.0992   19.1266 C   0  0  0  0  0  0  0  0  0  0  0  0
    8.2130  -13.7485   20.3026 C   0  0  0  0  0  0  0  0  0  0  0  0
    7.1928  -13.2329   20.8125 O   0  0  0  0  0  0  0  0  0  0  0  0
    6.8755  -17.2313   20.2854 C   0  0  0  0  0  0  0  0  0  0  0  0
    7.8085  -17.1553   21.4508 C   0  0  1  0  0  0  0  0  0  0  0  0
    9.0994  -17.8777   21.2633 C   0  0  0  0  0  0  0  0  0  0  0  0
    8.0306  -15.7050   21.8969 C   0  0  2  0  0  0  0  0  0  0  0  0
    8.7111  -14.9518   20.8700 N   0  0  0  0  0  0  0  0  0  0  0  0
    8.7331  -15.6463   23.2024 C   0  0  0  0  0  0  0  0  0  0  0  0
    9.9735  -15.4371   23.1686 O   0  0  0  0  0  0  0  0  0  0  0  0
    8.1166  -15.8061   24.4532 N   0  0  0  0  0  0  0  0  0  0  0  0
    8.8005  -15.7855   25.7289 C   0  0  1  0  0  0  0  0  0  0  0  0
    7.9081  -15.3113   26.8492 C   0  0  0  0  0  0  0  0  0  0  0  0
    7.4124  -13.9320   26.6498 C   0  0  0  0  0  0  0  0  0  0  0  0
    8.1819  -12.8015   26.8033 C   0  0  0  0  0  0  0  0  0  0  0  0
    7.6885  -11.5273   26.6110 C   0  0  0  0  0  0  0  0  0  0  0  0
    6.3728  -11.3562   26.2498 C   0  0  0  0  0  0  0  0  0  0  0  0
    5.5731  -12.4650   26.0872 C   0  0  0  0  0  0  0  0  0  0  0  0
    6.0952  -13.7495   26.2876 C   0  0  0  0  0  0  0  0  0  0  0  0
    9.2984  -17.1271   26.0804 C   0  0  0  0  0  0  0  0  0  0  0  0
   10.1883  -17.3175   27.1532 O   0  0  0  0  0  0  0  0  0  0  0  0
    8.9651  -18.1520   25.4578 O   0  0  0  0  0  0  0  0  0  0  0  0
  1  2  1  0
  3  4  2  0
  3  2  1  0
  6  5  1  6
  6  8  1  0
  7  6  1  0
  8 10  1  0
  8  9  1  6
  9  3  1  0
 10 12  1  0
 11 10  2  0
 12 13  1  0
 13 21  1  0
 13 14  1  1
 14 15  1  0
 15 16  2  0
 16 17  1  0
 18 17  2  0
 19 18  1  0
 20 19  2  0
 20 15  1  0
 21 23  2  0
 21 22  1  0
M  END
$$$$
