GVF.pdb
     RDKit          3D

 23 23  0  0  1  0  0  0  0  0999 V2000
    7.1488  -18.5859   20.5407 N   0  0  0  0  0  0  0  0  0  0  0  0
    8.5221  -18.3962   20.1446 C   0  0  0  0  0  0  0  0  0  0  0  0
    9.0400  -17.0669   20.6021 C   0  0  0  0  0  0  0  0  0  0  0  0
   10.2726  -16.8551   20.6491 O   0  0  0  0  0  0  0  0  0  0  0  0
    7.9023  -12.3106   21.6117 C   0  0  0  0  0  0  0  0  0  0  0  0
    7.5437  -13.6480   21.0486 C   0  0  1  0  0  0  0  0  0  0  0  0
    7.2193  -13.6443   19.5932 C   0  0  0  0  0  0  0  0  0  0  0  0
    8.6039  -14.7022   21.3900 C   0  0  2  0  0  0  0  0  0  0  0  0
    8.1641  -16.0186   20.9919 N   0  0  0  0  0  0  0  0  0  0  0  0
    8.9807  -14.6401   22.8237 C   0  0  0  0  0  0  0  0  0  0  0  0
    9.0543  -13.4951   23.3404 O   0  0  0  0  0  0  0  0  0  0  0  0
    9.2562  -15.7556   23.6299 N   0  0  0  0  0  0  0  0  0  0  0  0
    9.1999  -15.7737   25.0763 C   0  0  1  0  0  0  0  0  0  0  0  0
    7.7944  -15.6000   25.5966 C   0  0  0  0  0  0  0  0  0  0  0  0
    7.4485  -14.1878   25.8686 C   0  0  0  0  0  0  0  0  0  0  0  0
    6.1985  -13.6449   25.6776 C   0  0  0  0  0  0  0  0  0  0  0  0
    5.9081  -12.3216   25.9399 C   0  0  0  0  0  0  0  0  0  0  0  0
    6.8961  -11.4908   26.4136 C   0  0  0  0  0  0  0  0  0  0  0  0
    8.1591  -11.9998   26.6168 C   0  0  0  0  0  0  0  0  0  0  0  0
    8.4315  -13.3467   26.3437 C   0  0  0  0  0  0  0  0  0  0  0  0
    9.7283  -17.0425   25.6074 C   0  0  0  0  0  0  0  0  0  0  0  0
   10.0612  -17.1826   26.9670 O   0  0  0  0  0  0  0  0  0  0  0  0
    9.9074  -18.0469   24.8943 O   0  0  0  0  0  0  0  0  0  0  0  0
  1  2  1  0
  3  4  2  0
  3  2  1  0
  6  5  1  6
  6  8  1  0
  7  6  1  0
  8 10  1  0
  8  9  1  1
  9  3  1  0
 10 12  1  0
 11 10  2  0
 12 13  1  0
 13 21  1  0
 13 14  1  6
 14 15  1  0
 15 16  2  0
 16 17  1  0
 18 17  2  0
 19 18  1  0
 20 19  2  0
 20 15  1  0
 21 23  2  0
 21 22  1  0
M  END
$$$$
