GVF.pdb
     RDKit          3D

 23 23  0  0  1  0  0  0  0  0999 V2000
   11.9958  -17.0960   18.8356 N   0  0  0  0  0  0  0  0  0  0  0  0
   10.7132  -17.4464   19.3932 C   0  0  0  0  0  0  0  0  0  0  0  0
   10.3325  -16.5164   20.5043 C   0  0  0  0  0  0  0  0  0  0  0  0
   11.2185  -15.9122   21.1496 O   0  0  0  0  0  0  0  0  0  0  0  0
    7.0328  -14.0909   20.4240 C   0  0  0  0  0  0  0  0  0  0  0  0
    7.1193  -14.9121   21.6700 C   0  0  1  0  0  0  0  0  0  0  0  0
    6.1296  -16.0243   21.7527 C   0  0  0  0  0  0  0  0  0  0  0  0
    8.5497  -15.4071   21.9165 C   0  0  2  0  0  0  0  0  0  0  0  0
    8.9750  -16.2921   20.8578 N   0  0  0  0  0  0  0  0  0  0  0  0
    8.6800  -16.0256   23.2588 C   0  0  0  0  0  0  0  0  0  0  0  0
    8.7520  -17.2812   23.2987 O   0  0  0  0  0  0  0  0  0  0  0  0
    8.7276  -15.3150   24.4684 N   0  0  0  0  0  0  0  0  0  0  0  0
    8.9562  -15.9017   25.7718 C   0  0  1  0  0  0  0  0  0  0  0  0
    9.1013  -14.8581   26.8517 C   0  0  0  0  0  0  0  0  0  0  0  0
    8.0944  -13.7791   26.7527 C   0  0  0  0  0  0  0  0  0  0  0  0
    6.7901  -13.8942   27.1761 C   0  0  0  0  0  0  0  0  0  0  0  0
    5.8738  -12.8681   27.0682 C   0  0  0  0  0  0  0  0  0  0  0  0
    6.2594  -11.6690   26.5166 C   0  0  0  0  0  0  0  0  0  0  0  0
    7.5570  -11.5178   26.0821 C   0  0  0  0  0  0  0  0  0  0  0  0
    8.4706  -12.5733   26.2014 C   0  0  0  0  0  0  0  0  0  0  0  0
    7.8467  -16.7952   26.1484 C   0  0  0  0  0  0  0  0  0  0  0  0
    7.9998  -17.7643   27.1567 O   0  0  0  0  0  0  0  0  0  0  0  0
    6.7283  -16.7440   25.6044 O   0  0  0  0  0  0  0  0  0  0  0  0
  1  2  1  0
  3  4  2  0
  3  2  1  0
  6  5  1  6
  6  8  1  0
  7  6  1  0
  8 10  1  0
  8  9  1  6
  9  3  1  0
 10 12  1  0
 11 10  2  0
 12 13  1  0
 13 21  1  0
 13 14  1  1
 14 15  1  0
 15 16  2  0
 16 17  1  0
 18 17  2  0
 19 18  1  0
 20 19  2  0
 20 15  1  0
 21 23  2  0
 21 22  1  0
M  END
$$$$
