GVF.pdb
     RDKit          3D

 23 23  0  0  1  0  0  0  0  0999 V2000
    8.0140  -12.5024   18.2017 N   0  0  0  0  0  0  0  0  0  0  0  0
    8.5789  -13.7782   18.5650 C   0  0  0  0  0  0  0  0  0  0  0  0
    8.1712  -14.1773   19.9503 C   0  0  0  0  0  0  0  0  0  0  0  0
    8.0901  -13.3155   20.8543 O   0  0  0  0  0  0  0  0  0  0  0  0
    5.5472  -17.3134   20.5593 C   0  0  0  0  0  0  0  0  0  0  0  0
    6.7274  -17.3352   21.4764 C   0  0  1  0  0  0  0  0  0  0  0  0
    7.7250  -18.4037   21.1823 C   0  0  0  0  0  0  0  0  0  0  0  0
    7.3878  -15.9544   21.5723 C   0  0  2  0  0  0  0  0  0  0  0  0
    7.8677  -15.5254   20.2798 N   0  0  0  0  0  0  0  0  0  0  0  0
    8.4522  -15.9389   22.6058 C   0  0  0  0  0  0  0  0  0  0  0  0
    9.6149  -16.2328   22.2251 O   0  0  0  0  0  0  0  0  0  0  0  0
    8.2522  -15.6232   23.9588 N   0  0  0  0  0  0  0  0  0  0  0  0
    9.2929  -15.5587   24.9629 C   0  0  1  0  0  0  0  0  0  0  0  0
    9.5750  -14.1439   25.4047 C   0  0  0  0  0  0  0  0  0  0  0  0
    8.3509  -13.3942   25.7616 C   0  0  0  0  0  0  0  0  0  0  0  0
    7.4272  -12.9379   24.8492 C   0  0  0  0  0  0  0  0  0  0  0  0
    6.2948  -12.2393   25.2147 C   0  0  0  0  0  0  0  0  0  0  0  0
    6.0588  -11.9763   26.5436 C   0  0  0  0  0  0  0  0  0  0  0  0
    6.9616  -12.4178   27.4846 C   0  0  0  0  0  0  0  0  0  0  0  0
    8.1049  -13.1254   27.0908 C   0  0  0  0  0  0  0  0  0  0  0  0
    8.9234  -16.3426   26.1546 C   0  0  0  0  0  0  0  0  0  0  0  0
    7.6743  -16.9829   26.2488 O   0  0  0  0  0  0  0  0  0  0  0  0
    9.6836  -16.4806   27.1304 O   0  0  0  0  0  0  0  0  0  0  0  0
  1  2  1  0
  3  4  2  0
  3  2  1  0
  6  5  1  6
  6  8  1  0
  7  6  1  0
  8 10  1  0
  8  9  1  6
  9  3  1  0
 10 12  1  0
 11 10  2  0
 12 13  1  0
 13 21  1  0
 13 14  1  1
 14 15  1  0
 15 16  2  0
 16 17  1  0
 18 17  2  0
 19 18  1  0
 20 19  2  0
 20 15  1  0
 21 23  2  0
 21 22  1  0
M  END
$$$$
