GVF.pdb
     RDKit          3D

 23 23  0  0  1  0  0  0  0  0999 V2000
    6.9024  -19.2025   18.9529 N   0  0  0  0  0  0  0  0  0  0  0  0
    6.3119  -18.1741   19.7731 C   0  0  0  0  0  0  0  0  0  0  0  0
    7.3395  -17.1794   20.2192 C   0  0  0  0  0  0  0  0  0  0  0  0
    8.4964  -17.5584   20.5097 O   0  0  0  0  0  0  0  0  0  0  0  0
    8.3874  -12.4172   21.3155 C   0  0  0  0  0  0  0  0  0  0  0  0
    7.4452  -13.4081   20.7116 C   0  0  1  0  0  0  0  0  0  0  0  0
    7.2163  -13.2379   19.2481 C   0  0  0  0  0  0  0  0  0  0  0  0
    7.8471  -14.8468   21.0586 C   0  0  2  0  0  0  0  0  0  0  0  0
    7.0409  -15.7946   20.3261 N   0  0  0  0  0  0  0  0  0  0  0  0
    7.8032  -15.0782   22.5235 C   0  0  0  0  0  0  0  0  0  0  0  0
    6.6781  -15.3423   23.0212 O   0  0  0  0  0  0  0  0  0  0  0  0
    8.9154  -15.0231   23.3781 N   0  0  0  0  0  0  0  0  0  0  0  0
    8.8850  -15.2733   24.8036 C   0  0  1  0  0  0  0  0  0  0  0  0
    7.4883  -15.1962   25.3687 C   0  0  0  0  0  0  0  0  0  0  0  0
    7.1663  -13.8689   25.9366 C   0  0  0  0  0  0  0  0  0  0  0  0
    8.0957  -12.8841   26.1819 C   0  0  0  0  0  0  0  0  0  0  0  0
    7.7629  -11.6554   26.7146 C   0  0  0  0  0  0  0  0  0  0  0  0
    6.4507  -11.3814   27.0211 C   0  0  0  0  0  0  0  0  0  0  0  0
    5.4935  -12.3434   26.7889 C   0  0  0  0  0  0  0  0  0  0  0  0
    5.8541  -13.5842   26.2473 C   0  0  0  0  0  0  0  0  0  0  0  0
    9.4291  -16.6068   25.1152 C   0  0  0  0  0  0  0  0  0  0  0  0
   10.4392  -16.7760   26.0797 O   0  0  0  0  0  0  0  0  0  0  0  0
    9.0321  -17.6431   24.5515 O   0  0  0  0  0  0  0  0  0  0  0  0
  1  2  1  0
  3  4  2  0
  3  2  1  0
  6  5  1  6
  6  8  1  0
  7  6  1  0
  8 10  1  0
  8  9  1  6
  9  3  1  0
 10 12  1  0
 11 10  2  0
 12 13  1  0
 13 21  1  0
 13 14  1  6
 14 15  1  0
 15 16  2  0
 16 17  1  0
 18 17  2  0
 19 18  1  0
 20 19  2  0
 20 15  1  0
 21 23  2  0
 21 22  1  0
M  END
$$$$
