GVF.pdb
     RDKit          3D

 23 23  0  0  1  0  0  0  0  0999 V2000
    7.9301  -11.8803   18.9251 N   0  0  0  0  0  0  0  0  0  0  0  0
    8.7247  -12.9784   19.4166 C   0  0  0  0  0  0  0  0  0  0  0  0
    7.9687  -13.7854   20.4274 C   0  0  0  0  0  0  0  0  0  0  0  0
    6.9011  -13.3461   20.9110 O   0  0  0  0  0  0  0  0  0  0  0  0
    6.7032  -17.3538   20.0469 C   0  0  0  0  0  0  0  0  0  0  0  0
    7.5777  -17.3199   21.2587 C   0  0  1  0  0  0  0  0  0  0  0  0
    8.9023  -17.9833   21.0896 C   0  0  0  0  0  0  0  0  0  0  0  0
    7.7237  -15.8942   21.8043 C   0  0  2  0  0  0  0  0  0  0  0  0
    8.4300  -15.0559   20.8644 N   0  0  0  0  0  0  0  0  0  0  0  0
    8.3540  -15.8952   23.1475 C   0  0  0  0  0  0  0  0  0  0  0  0
    9.5981  -15.7112   23.1890 O   0  0  0  0  0  0  0  0  0  0  0  0
    7.6661  -16.0847   24.3563 N   0  0  0  0  0  0  0  0  0  0  0  0
    8.2844  -16.1785   25.6619 C   0  0  1  0  0  0  0  0  0  0  0  0
    7.4076  -15.6144   26.7523 C   0  0  0  0  0  0  0  0  0  0  0  0
    7.2381  -14.1479   26.6580 C   0  0  0  0  0  0  0  0  0  0  0  0
    6.0311  -13.5180   26.4576 C   0  0  0  0  0  0  0  0  0  0  0  0
    5.9066  -12.1464   26.3727 C   0  0  0  0  0  0  0  0  0  0  0  0
    7.0247  -11.3547   26.4907 C   0  0  0  0  0  0  0  0  0  0  0  0
    8.2494  -11.9507   26.6920 C   0  0  0  0  0  0  0  0  0  0  0  0
    8.3524  -13.3455   26.7750 C   0  0  0  0  0  0  0  0  0  0  0  0
    8.5873  -17.5802   26.0008 C   0  0  0  0  0  0  0  0  0  0  0  0
    9.4524  -17.9041   27.0619 O   0  0  0  0  0  0  0  0  0  0  0  0
    8.1025  -18.5422   25.3774 O   0  0  0  0  0  0  0  0  0  0  0  0
  1  2  1  0
  3  4  2  0
  3  2  1  0
  6  5  1  6
  6  8  1  0
  7  6  1  0
  8 10  1  0
  8  9  1  6
  9  3  1  0
 10 12  1  0
 11 10  2  0
 12 13  1  0
 13 21  1  0
 13 14  1  1
 14 15  1  0
 15 16  2  0
 16 17  1  0
 18 17  2  0
 19 18  1  0
 20 19  2  0
 20 15  1  0
 21 23  2  0
 21 22  1  0
M  END
$$$$
