GVF.pdb
     RDKit          3D

 23 23  0  0  1  0  0  0  0  0999 V2000
   11.6903  -17.1609   18.5894 N   0  0  0  0  0  0  0  0  0  0  0  0
   10.3096  -17.0859   18.9978 C   0  0  0  0  0  0  0  0  0  0  0  0
   10.1452  -16.1994   20.1943 C   0  0  0  0  0  0  0  0  0  0  0  0
   11.0998  -16.0283   20.9855 O   0  0  0  0  0  0  0  0  0  0  0  0
    7.9342  -12.7441   20.3448 C   0  0  0  0  0  0  0  0  0  0  0  0
    7.5539  -13.7274   21.4045 C   0  0  1  0  0  0  0  0  0  0  0  0
    6.2388  -14.3966   21.1901 C   0  0  0  0  0  0  0  0  0  0  0  0
    8.6739  -14.7455   21.6518 C   0  0  2  0  0  0  0  0  0  0  0  0
    8.9204  -15.5335   20.4672 N   0  0  0  0  0  0  0  0  0  0  0  0
    8.3839  -15.5846   22.8405 C   0  0  0  0  0  0  0  0  0  0  0  0
    8.0022  -16.7635   22.6215 O   0  0  0  0  0  0  0  0  0  0  0  0
    8.5048  -15.1583   24.1723 N   0  0  0  0  0  0  0  0  0  0  0  0
    8.3349  -16.0014   25.3367 C   0  0  1  0  0  0  0  0  0  0  0  0
    8.4761  -15.2315   26.6265 C   0  0  0  0  0  0  0  0  0  0  0  0
    7.6802  -13.9848   26.6463 C   0  0  0  0  0  0  0  0  0  0  0  0
    6.3217  -13.9353   26.8604 C   0  0  0  0  0  0  0  0  0  0  0  0
    5.6073  -12.7548   26.8713 C   0  0  0  0  0  0  0  0  0  0  0  0
    6.2614  -11.5636   26.6613 C   0  0  0  0  0  0  0  0  0  0  0  0
    7.6208  -11.5750   26.4438 C   0  0  0  0  0  0  0  0  0  0  0  0
    8.3261  -12.7855   26.4369 C   0  0  0  0  0  0  0  0  0  0  0  0
    7.0084  -16.6430   25.3324 C   0  0  0  0  0  0  0  0  0  0  0  0
    6.0243  -16.2787   24.3954 O   0  0  0  0  0  0  0  0  0  0  0  0
    6.6882  -17.5298   26.1450 O   0  0  0  0  0  0  0  0  0  0  0  0
  1  2  1  0
  3  4  2  0
  3  2  1  0
  6  5  1  6
  6  8  1  0
  7  6  1  0
  8 10  1  0
  8  9  1  6
  9  3  1  0
 10 12  1  0
 11 10  2  0
 12 13  1  0
 13 21  1  0
 13 14  1  1
 14 15  1  0
 15 16  2  0
 16 17  1  0
 18 17  2  0
 19 18  1  0
 20 19  2  0
 20 15  1  0
 21 23  2  0
 21 22  1  0
M  END
$$$$
