GVF.pdb
     RDKit          3D

 23 23  0  0  1  0  0  0  0  0999 V2000
    8.7151  -12.7824   17.5117 N   0  0  0  0  0  0  0  0  0  0  0  0
    9.2831  -13.8729   18.2648 C   0  0  0  0  0  0  0  0  0  0  0  0
    8.4859  -14.1507   19.5024 C   0  0  0  0  0  0  0  0  0  0  0  0
    7.8544  -13.2272   20.0636 O   0  0  0  0  0  0  0  0  0  0  0  0
    5.7852  -16.6196   20.0617 C   0  0  0  0  0  0  0  0  0  0  0  0
    6.7697  -16.9073   21.1491 C   0  0  1  0  0  0  0  0  0  0  0  0
    7.4642  -18.2213   21.0288 C   0  0  0  0  0  0  0  0  0  0  0  0
    7.7656  -15.7541   21.3226 C   0  0  2  0  0  0  0  0  0  0  0  0
    8.4205  -15.4504   20.0721 N   0  0  0  0  0  0  0  0  0  0  0  0
    8.7305  -16.0374   22.4135 C   0  0  0  0  0  0  0  0  0  0  0  0
    9.9514  -15.9112   22.1360 O   0  0  0  0  0  0  0  0  0  0  0  0
    8.3784  -16.4308   23.7140 N   0  0  0  0  0  0  0  0  0  0  0  0
    8.2059  -15.5354   24.8383 C   0  0  1  0  0  0  0  0  0  0  0  0
    7.1992  -14.4480   24.5548 C   0  0  0  0  0  0  0  0  0  0  0  0
    7.0193  -13.5159   25.6893 C   0  0  0  0  0  0  0  0  0  0  0  0
    5.8003  -13.1846   26.2350 C   0  0  0  0  0  0  0  0  0  0  0  0
    5.6660  -12.3096   27.2935 C   0  0  0  0  0  0  0  0  0  0  0  0
    6.7863  -11.7316   27.8427 C   0  0  0  0  0  0  0  0  0  0  0  0
    8.0229  -12.0400   27.3221 C   0  0  0  0  0  0  0  0  0  0  0  0
    8.1358  -12.9312   26.2470 C   0  0  0  0  0  0  0  0  0  0  0  0
    7.7564  -16.2716   26.0329 C   0  0  0  0  0  0  0  0  0  0  0  0
    8.5156  -16.2745   27.2173 O   0  0  0  0  0  0  0  0  0  0  0  0
    6.6959  -16.9227   26.0616 O   0  0  0  0  0  0  0  0  0  0  0  0
  1  2  1  0
  3  4  2  0
  3  2  1  0
  6  5  1  6
  6  8  1  0
  7  6  1  0
  8 10  1  0
  8  9  1  6
  9  3  1  0
 10 12  1  0
 11 10  2  0
 12 13  1  0
 13 21  1  0
 13 14  1  6
 14 15  1  0
 15 16  2  0
 16 17  1  0
 18 17  2  0
 19 18  1  0
 20 19  2  0
 20 15  1  0
 21 23  2  0
 21 22  1  0
M  END
$$$$
