GVF.pdb
     RDKit          3D

 23 23  0  0  1  0  0  0  0  0999 V2000
   11.8363  -17.2368   18.4704 N   0  0  0  0  0  0  0  0  0  0  0  0
   10.5924  -17.5630   19.1223 C   0  0  0  0  0  0  0  0  0  0  0  0
   10.2531  -16.5563   20.1786 C   0  0  0  0  0  0  0  0  0  0  0  0
   11.1539  -16.0811   20.9062 O   0  0  0  0  0  0  0  0  0  0  0  0
    7.2929  -13.7008   19.8124 C   0  0  0  0  0  0  0  0  0  0  0  0
    7.1904  -14.5134   21.0628 C   0  0  1  0  0  0  0  0  0  0  0  0
    6.0698  -15.4971   21.0762 C   0  0  0  0  0  0  0  0  0  0  0  0
    8.5290  -15.1749   21.4123 C   0  0  2  0  0  0  0  0  0  0  0  0
    8.9194  -16.1139   20.3872 N   0  0  0  0  0  0  0  0  0  0  0  0
    8.4868  -15.7929   22.7606 C   0  0  0  0  0  0  0  0  0  0  0  0
    8.4396  -17.0495   22.8058 O   0  0  0  0  0  0  0  0  0  0  0  0
    8.4958  -15.0808   23.9701 N   0  0  0  0  0  0  0  0  0  0  0  0
    8.6964  -15.6640   25.2798 C   0  0  1  0  0  0  0  0  0  0  0  0
    9.0778  -14.6330   26.3132 C   0  0  0  0  0  0  0  0  0  0  0  0
    8.1473  -13.4839   26.3550 C   0  0  0  0  0  0  0  0  0  0  0  0
    7.2960  -13.2130   27.4017 C   0  0  0  0  0  0  0  0  0  0  0  0
    6.4380  -12.1323   27.4094 C   0  0  0  0  0  0  0  0  0  0  0  0
    6.4161  -11.2753   26.3344 C   0  0  0  0  0  0  0  0  0  0  0  0
    7.2545  -11.5153   25.2690 C   0  0  0  0  0  0  0  0  0  0  0  0
    8.1175  -12.6189   25.2824 C   0  0  0  0  0  0  0  0  0  0  0  0
    7.4752  -16.3447   25.7451 C   0  0  0  0  0  0  0  0  0  0  0  0
    6.2596  -16.2208   25.0479 O   0  0  0  0  0  0  0  0  0  0  0  0
    7.4502  -17.0569   26.7656 O   0  0  0  0  0  0  0  0  0  0  0  0
  1  2  1  0
  3  4  2  0
  3  2  1  0
  6  5  1  6
  6  8  1  0
  7  6  1  0
  8 10  1  0
  8  9  1  6
  9  3  1  0
 10 12  1  0
 11 10  2  0
 12 13  1  0
 13 21  1  0
 13 14  1  1
 14 15  1  0
 15 16  2  0
 16 17  1  0
 18 17  2  0
 19 18  1  0
 20 19  2  0
 20 15  1  0
 21 23  2  0
 21 22  1  0
M  END
$$$$
