LEE.pdb
     RDKit          3D

 27 26  0  0  1  0  0  0  0  0999 V2000
    6.1431  -11.9457   24.8599 C   0  0  0  0  0  0  0  0  0  0  0  0
    7.1288  -12.4584   25.8759 C   0  0  1  0  0  0  0  0  0  0  0  0
    6.5751  -12.2521   27.2902 C   0  0  0  0  0  0  0  0  0  0  0  0
    7.4639  -13.8869   25.6249 C   0  0  0  0  0  0  0  0  0  0  0  0
    8.2867  -14.1054   24.3873 C   0  0  2  0  0  0  0  0  0  0  0  0
    7.5276  -13.8435   23.1788 N   0  0  0  0  0  0  0  0  0  0  0  0
    8.8421  -15.4922   24.3774 C   0  0  0  0  0  0  0  0  0  0  0  0
    8.3351  -16.2832   25.2138 O   0  0  0  0  0  0  0  0  0  0  0  0
    9.8584  -15.9513   23.5236 N   0  0  0  0  0  0  0  0  0  0  0  0
   10.2994  -17.3381   23.5367 C   0  0  1  0  0  0  0  0  0  0  0  0
   11.1201  -17.6761   22.3478 C   0  0  0  0  0  0  0  0  0  0  0  0
   10.4014  -17.4406   21.0521 C   0  0  0  0  0  0  0  0  0  0  0  0
   11.3281  -17.7050   19.8880 C   0  0  0  0  0  0  0  0  0  0  0  0
   11.4740  -16.8791   18.9639 O   0  0  0  0  0  0  0  0  0  0  0  0
   11.1040  -17.5391   24.7774 C   0  0  0  0  0  0  0  0  0  0  0  0
   11.7578  -16.6199   25.3288 O   0  0  0  0  0  0  0  0  0  0  0  0
   12.0210  -18.8864   19.8584 O   0  0  0  0  0  0  0  0  0  0  0  0
   11.1694  -18.8217   25.4140 N   0  0  0  0  0  0  0  0  0  0  0  0
   11.7980  -18.9042   26.7378 C   0  0  1  0  0  0  0  0  0  0  0  0
   10.9200  -19.7069   27.6760 C   0  0  0  0  0  0  0  0  0  0  0  0
   11.5389  -19.9482   29.0113 C   0  0  0  0  0  0  0  0  0  0  0  0
   10.5244  -20.7037   29.8370 C   0  0  0  0  0  0  0  0  0  0  0  0
    9.3076  -20.4562   29.7949 O   0  0  0  0  0  0  0  0  0  0  0  0
   13.1499  -19.4341   26.5658 C   0  0  0  0  0  0  0  0  0  0  0  0
   13.4081  -20.2025   25.6107 O   0  0  0  0  0  0  0  0  0  0  0  0
   10.9707  -21.7129   30.6743 O   0  0  0  0  0  0  0  0  0  0  0  0
   14.1494  -19.0980   27.4427 O   0  0  0  0  0  0  0  0  0  0  0  0
  2  1  1  6
  2  3  1  0
  4  2  1  0
  4  5  1  0
  5  7  1  0
  5  6  1  6
  7  8  2  0
  9 10  1  0
  9  7  1  0
 11 12  1  0
 10 11  1  6
 12 13  1  0
 13 17  1  0
 13 14  2  0
 15 16  2  0
 15 10  1  0
 18 15  1  0
 19 24  1  0
 19 18  1  0
 19 20  1  1
 21 22  1  0
 21 20  1  0
 22 23  2  0
 24 27  1  0
 25 24  2  0
 26 22  1  0
M  END
$$$$
