LEE.pdb
     RDKit          3D

 27 26  0  0  1  0  0  0  0  0999 V2000
    7.1062  -12.2982   27.0986 C   0  0  0  0  0  0  0  0  0  0  0  0
    6.6638  -13.1950   25.9732 C   0  0  1  0  0  0  0  0  0  0  0  0
    6.6842  -12.4210   24.6504 C   0  0  0  0  0  0  0  0  0  0  0  0
    7.5062  -14.4202   25.9007 C   0  0  0  0  0  0  0  0  0  0  0  0
    7.1302  -15.3457   24.7790 C   0  0  2  0  0  0  0  0  0  0  0  0
    5.8856  -16.0423   25.0454 N   0  0  0  0  0  0  0  0  0  0  0  0
    8.2374  -16.3142   24.5184 C   0  0  0  0  0  0  0  0  0  0  0  0
    8.2599  -17.3237   25.2687 O   0  0  0  0  0  0  0  0  0  0  0  0
    9.2194  -16.1731   23.5242 N   0  0  0  0  0  0  0  0  0  0  0  0
   10.2118  -17.2086   23.2776 C   0  0  1  0  0  0  0  0  0  0  0  0
   10.9412  -16.9932   22.0036 C   0  0  0  0  0  0  0  0  0  0  0  0
   10.2633  -17.6266   20.8247 C   0  0  0  0  0  0  0  0  0  0  0  0
   10.9824  -17.2533   19.5490 C   0  0  0  0  0  0  0  0  0  0  0  0
   10.3631  -16.8927   18.5273 O   0  0  0  0  0  0  0  0  0  0  0  0
   11.1737  -17.1860   24.4184 C   0  0  0  0  0  0  0  0  0  0  0  0
   11.6918  -16.1309   24.8596 O   0  0  0  0  0  0  0  0  0  0  0  0
   12.3507  -17.3163   19.5267 O   0  0  0  0  0  0  0  0  0  0  0  0
   11.5603  -18.3970   25.0809 N   0  0  0  0  0  0  0  0  0  0  0  0
   12.4268  -18.2920   26.2609 C   0  0  1  0  0  0  0  0  0  0  0  0
   11.7760  -18.9839   27.4412 C   0  0  0  0  0  0  0  0  0  0  0  0
   12.6879  -19.1547   28.6090 C   0  0  0  0  0  0  0  0  0  0  0  0
   11.8827  -19.8142   29.7037 C   0  0  0  0  0  0  0  0  0  0  0  0
   11.7606  -19.3197   30.8369 O   0  0  0  0  0  0  0  0  0  0  0  0
   13.7463  -18.8104   25.9025 C   0  0  0  0  0  0  0  0  0  0  0  0
   13.8702  -19.6085   24.9449 O   0  0  0  0  0  0  0  0  0  0  0  0
   11.2560  -21.0191   29.4314 O   0  0  0  0  0  0  0  0  0  0  0  0
   14.8610  -18.4310   26.6055 O   0  0  0  0  0  0  0  0  0  0  0  0
  2  1  1  1
  2  3  1  0
  4  2  1  0
  4  5  1  0
  5  7  1  0
  5  6  1  1
  7  8  2  0
  9 10  1  0
  9  7  1  0
 11 12  1  0
 10 11  1  6
 12 13  1  0
 13 17  1  0
 13 14  2  0
 15 16  2  0
 15 10  1  0
 18 15  1  0
 19 24  1  0
 19 18  1  0
 19 20  1  1
 21 22  1  0
 21 20  1  0
 22 23  2  0
 24 27  1  0
 25 24  2  0
 26 22  1  0
M  END
$$$$
