LEE.pdb
     RDKit          3D

 27 26  0  0  1  0  0  0  0  0999 V2000
    7.1198  -12.9560   21.3116 C   0  0  0  0  0  0  0  0  0  0  0  0
    7.5957  -13.4513   19.9719 C   0  0  1  0  0  0  0  0  0  0  0  0
    7.6944  -12.2803   18.9878 C   0  0  0  0  0  0  0  0  0  0  0  0
    8.8935  -14.1698   20.0958 C   0  0  0  0  0  0  0  0  0  0  0  0
    9.4129  -14.7068   18.7926 C   0  0  2  0  0  0  0  0  0  0  0  0
    8.5373  -15.7218   18.2374 N   0  0  0  0  0  0  0  0  0  0  0  0
   10.7979  -15.2376   18.9707 C   0  0  0  0  0  0  0  0  0  0  0  0
   10.8730  -16.4246   19.3806 O   0  0  0  0  0  0  0  0  0  0  0  0
   11.9787  -14.5203   18.7184 N   0  0  0  0  0  0  0  0  0  0  0  0
   13.2909  -15.1332   18.8615 C   0  0  1  0  0  0  0  0  0  0  0  0
   14.3075  -14.4892   17.9937 C   0  0  0  0  0  0  0  0  0  0  0  0
   15.6872  -15.0430   18.1952 C   0  0  0  0  0  0  0  0  0  0  0  0
   16.6441  -14.4301   17.1988 C   0  0  0  0  0  0  0  0  0  0  0  0
   16.6780  -14.8001   16.0076 O   0  0  0  0  0  0  0  0  0  0  0  0
   13.6928  -14.9989   20.2925 C   0  0  0  0  0  0  0  0  0  0  0  0
   13.7660  -13.8944   20.8850 O   0  0  0  0  0  0  0  0  0  0  0  0
   17.4913  -13.4425   17.6274 O   0  0  0  0  0  0  0  0  0  0  0  0
   14.0214  -16.1526   21.0773 N   0  0  0  0  0  0  0  0  0  0  0  0
   14.3466  -15.9536   22.4947 C   0  0  1  0  0  0  0  0  0  0  0  0
   13.8342  -17.1232   23.3100 C   0  0  0  0  0  0  0  0  0  0  0  0
   14.2857  -17.1023   24.7313 C   0  0  0  0  0  0  0  0  0  0  0  0
   13.6576  -18.2964   25.4105 C   0  0  0  0  0  0  0  0  0  0  0  0
   13.2861  -18.2748   26.5959 O   0  0  0  0  0  0  0  0  0  0  0  0
   15.7862  -15.7207   22.6015 C   0  0  0  0  0  0  0  0  0  0  0  0
   16.2545  -15.1185   23.5952 O   0  0  0  0  0  0  0  0  0  0  0  0
   13.4900  -19.4617   24.6808 O   0  0  0  0  0  0  0  0  0  0  0  0
   16.6396  -16.1571   21.6206 O   0  0  0  0  0  0  0  0  0  0  0  0
  2  1  1  1
  2  3  1  0
  4  2  1  0
  4  5  1  0
  5  7  1  0
  5  6  1  1
  7  8  2  0
  9 10  1  0
  9  7  1  0
 11 12  1  0
 10 11  1  6
 12 13  1  0
 13 17  1  0
 13 14  2  0
 15 16  2  0
 15 10  1  0
 18 15  1  0
 19 24  1  0
 19 18  1  0
 19 20  1  1
 21 22  1  0
 21 20  1  0
 22 23  2  0
 24 27  1  0
 25 24  2  0
 26 22  1  0
M  END
$$$$
