LEE.pdb
     RDKit          3D

 27 26  0  0  1  0  0  0  0  0999 V2000
    7.4414  -12.2845   27.4158 C   0  0  0  0  0  0  0  0  0  0  0  0
    6.7495  -13.0917   26.3498 C   0  0  1  0  0  0  0  0  0  0  0  0
    6.8416  -12.3653   25.0033 C   0  0  0  0  0  0  0  0  0  0  0  0
    7.3139  -14.4666   26.2670 C   0  0  0  0  0  0  0  0  0  0  0  0
    6.8559  -15.2354   25.0606 C   0  0  2  0  0  0  0  0  0  0  0  0
    5.6209  -15.9540   25.3127 N   0  0  0  0  0  0  0  0  0  0  0  0
    7.9313  -16.1676   24.6062 C   0  0  0  0  0  0  0  0  0  0  0  0
    8.1407  -17.1566   25.3547 O   0  0  0  0  0  0  0  0  0  0  0  0
    8.6955  -16.0141   23.4378 N   0  0  0  0  0  0  0  0  0  0  0  0
    9.7175  -16.9791   23.0607 C   0  0  1  0  0  0  0  0  0  0  0  0
   10.1964  -16.7736   21.6715 C   0  0  0  0  0  0  0  0  0  0  0  0
   11.3118  -17.7022   21.2916 C   0  0  0  0  0  0  0  0  0  0  0  0
   11.6807  -17.5049   19.8393 C   0  0  0  0  0  0  0  0  0  0  0  0
   11.6489  -18.4457   19.0200 O   0  0  0  0  0  0  0  0  0  0  0  0
   10.8549  -16.8205   24.0138 C   0  0  0  0  0  0  0  0  0  0  0  0
   11.5175  -15.7597   24.1225 O   0  0  0  0  0  0  0  0  0  0  0  0
   12.0579  -16.2552   19.4239 O   0  0  0  0  0  0  0  0  0  0  0  0
   11.2536  -17.8976   24.8715 N   0  0  0  0  0  0  0  0  0  0  0  0
   12.4459  -17.7100   25.7066 C   0  0  1  0  0  0  0  0  0  0  0  0
   12.1338  -18.0829   27.1415 C   0  0  0  0  0  0  0  0  0  0  0  0
   11.3812  -19.3637   27.2742 C   0  0  0  0  0  0  0  0  0  0  0  0
   11.1696  -19.5992   28.7513 C   0  0  0  0  0  0  0  0  0  0  0  0
   12.0988  -19.5654   29.5754 O   0  0  0  0  0  0  0  0  0  0  0  0
   13.5441  -18.4657   25.1058 C   0  0  0  0  0  0  0  0  0  0  0  0
   13.3246  -19.2387   24.1448 O   0  0  0  0  0  0  0  0  0  0  0  0
    9.8872  -19.8634   29.2032 O   0  0  0  0  0  0  0  0  0  0  0  0
   14.8236  -18.3385   25.5830 O   0  0  0  0  0  0  0  0  0  0  0  0
  2  1  1  1
  2  3  1  0
  4  2  1  0
  4  5  1  0
  5  7  1  0
  5  6  1  1
  7  8  2  0
  9 10  1  0
  9  7  1  0
 11 12  1  0
 10 11  1  6
 12 13  1  0
 13 17  1  0
 13 14  2  0
 15 16  2  0
 15 10  1  0
 18 15  1  0
 19 24  1  0
 19 18  1  0
 19 20  1  1
 21 22  1  0
 21 20  1  0
 22 23  2  0
 24 27  1  0
 25 24  2  0
 26 22  1  0
M  END
$$$$
