LEE.pdb
     RDKit          3D

 27 26  0  0  1  0  0  0  0  0999 V2000
    6.7325  -13.4458   18.8472 C   0  0  0  0  0  0  0  0  0  0  0  0
    8.0943  -13.1582   19.4211 C   0  0  1  0  0  0  0  0  0  0  0  0
    8.1220  -11.7462   20.0166 C   0  0  0  0  0  0  0  0  0  0  0  0
    8.4784  -14.1829   20.4303 C   0  0  0  0  0  0  0  0  0  0  0  0
    8.5858  -15.5721   19.8693 C   0  0  2  0  0  0  0  0  0  0  0  0
    7.2908  -16.2197   19.7747 N   0  0  0  0  0  0  0  0  0  0  0  0
    9.5300  -16.3871   20.6914 C   0  0  0  0  0  0  0  0  0  0  0  0
    9.0068  -17.0272   21.6395 O   0  0  0  0  0  0  0  0  0  0  0  0
   10.9154  -16.4799   20.4796 N   0  0  0  0  0  0  0  0  0  0  0  0
   11.7534  -17.3619   21.2782 C   0  0  1  0  0  0  0  0  0  0  0  0
   12.8796  -17.9259   20.4940 C   0  0  0  0  0  0  0  0  0  0  0  0
   12.4273  -18.8114   19.3706 C   0  0  0  0  0  0  0  0  0  0  0  0
   13.6208  -19.3103   18.5890 C   0  0  0  0  0  0  0  0  0  0  0  0
   14.7758  -18.8982   18.8199 O   0  0  0  0  0  0  0  0  0  0  0  0
   12.2859  -16.5602   22.4187 C   0  0  0  0  0  0  0  0  0  0  0  0
   12.8628  -15.4548   22.2715 O   0  0  0  0  0  0  0  0  0  0  0  0
   13.4157  -20.2399   17.6039 O   0  0  0  0  0  0  0  0  0  0  0  0
   12.1601  -17.0250   23.7689 N   0  0  0  0  0  0  0  0  0  0  0  0
   12.6104  -16.1389   24.8488 C   0  0  1  0  0  0  0  0  0  0  0  0
   11.9933  -16.5732   26.1626 C   0  0  0  0  0  0  0  0  0  0  0  0
   12.3979  -15.7246   27.3205 C   0  0  0  0  0  0  0  0  0  0  0  0
   11.7713  -16.3333   28.5529 C   0  0  0  0  0  0  0  0  0  0  0  0
   11.0805  -17.3652   28.5137 O   0  0  0  0  0  0  0  0  0  0  0  0
   14.0725  -16.1191   24.8396 C   0  0  0  0  0  0  0  0  0  0  0  0
   14.7131  -17.1213   24.4466 O   0  0  0  0  0  0  0  0  0  0  0  0
   11.9763  -15.7145   29.7750 O   0  0  0  0  0  0  0  0  0  0  0  0
   14.7593  -15.0081   25.2578 O   0  0  0  0  0  0  0  0  0  0  0  0
  2  1  1  1
  2  3  1  0
  4  2  1  0
  4  5  1  0
  5  7  1  0
  5  6  1  1
  7  8  2  0
  9 10  1  0
  9  7  1  0
 11 12  1  0
 10 11  1  6
 12 13  1  0
 13 17  1  0
 13 14  2  0
 15 16  2  0
 15 10  1  0
 18 15  1  0
 19 24  1  0
 19 18  1  0
 19 20  1  1
 21 22  1  0
 21 20  1  0
 22 23  2  0
 24 27  1  0
 25 24  2  0
 26 22  1  0
M  END
$$$$
