LEE.pdb
     RDKit          3D

 27 26  0  0  1  0  0  0  0  0999 V2000
    7.2114  -12.9785   21.0070 C   0  0  0  0  0  0  0  0  0  0  0  0
    7.7881  -13.4130   19.6859 C   0  0  1  0  0  0  0  0  0  0  0  0
    7.9521  -12.1997   18.7639 C   0  0  0  0  0  0  0  0  0  0  0  0
    9.0775  -14.1327   19.8741 C   0  0  0  0  0  0  0  0  0  0  0  0
    9.6880  -14.6226   18.5922 C   0  0  2  0  0  0  0  0  0  0  0  0
    8.8153  -15.5492   17.8958 N   0  0  0  0  0  0  0  0  0  0  0  0
   11.0192  -15.2448   18.8614 C   0  0  0  0  0  0  0  0  0  0  0  0
   10.9854  -16.3816   19.3991 O   0  0  0  0  0  0  0  0  0  0  0  0
   12.2612  -14.6609   18.5628 N   0  0  0  0  0  0  0  0  0  0  0  0
   13.5147  -15.3462   18.8409 C   0  0  1  0  0  0  0  0  0  0  0  0
   14.5870  -14.9594   17.8912 C   0  0  0  0  0  0  0  0  0  0  0  0
   14.4144  -15.5682   16.5310 C   0  0  0  0  0  0  0  0  0  0  0  0
   15.5478  -15.1462   15.6248 C   0  0  0  0  0  0  0  0  0  0  0  0
   15.3399  -14.6876   14.4830 O   0  0  0  0  0  0  0  0  0  0  0  0
   13.9205  -14.9880   20.2316 C   0  0  0  0  0  0  0  0  0  0  0  0
   14.0342  -13.8030   20.6305 O   0  0  0  0  0  0  0  0  0  0  0  0
   16.8331  -15.2752   16.0810 O   0  0  0  0  0  0  0  0  0  0  0  0
   14.2058  -16.0044   21.2013 N   0  0  0  0  0  0  0  0  0  0  0  0
   14.6794  -15.5823   22.5248 C   0  0  1  0  0  0  0  0  0  0  0  0
   14.1872  -16.5507   23.5810 C   0  0  0  0  0  0  0  0  0  0  0  0
   12.7055  -16.5444   23.7513 C   0  0  0  0  0  0  0  0  0  0  0  0
   12.3643  -17.6842   24.6819 C   0  0  0  0  0  0  0  0  0  0  0  0
   13.2193  -18.4741   25.1163 O   0  0  0  0  0  0  0  0  0  0  0  0
   16.1330  -15.4371   22.4615 C   0  0  0  0  0  0  0  0  0  0  0  0
   16.7662  -15.8690   21.4706 O   0  0  0  0  0  0  0  0  0  0  0  0
   11.0442  -17.8541   25.0655 O   0  0  0  0  0  0  0  0  0  0  0  0
   16.8198  -14.8280   23.4804 O   0  0  0  0  0  0  0  0  0  0  0  0
  2  1  1  1
  2  3  1  0
  4  2  1  0
  4  5  1  0
  5  7  1  0
  5  6  1  1
  7  8  2  0
  9 10  1  0
  9  7  1  0
 11 12  1  0
 10 11  1  6
 12 13  1  0
 13 17  1  0
 13 14  2  0
 15 16  2  0
 15 10  1  0
 18 15  1  0
 19 24  1  0
 19 18  1  0
 19 20  1  1
 21 22  1  0
 21 20  1  0
 22 23  2  0
 24 27  1  0
 25 24  2  0
 26 22  1  0
M  END
$$$$
