LEE.pdb
     RDKit          3D

 27 26  0  0  1  0  0  0  0  0999 V2000
    7.0543  -11.6707   26.2811 C   0  0  0  0  0  0  0  0  0  0  0  0
    6.6217  -12.8704   25.4811 C   0  0  1  0  0  0  0  0  0  0  0  0
    6.3142  -12.4524   24.0388 C   0  0  0  0  0  0  0  0  0  0  0  0
    7.6495  -13.9462   25.5292 C   0  0  0  0  0  0  0  0  0  0  0  0
    7.2582  -15.1887   24.7814 C   0  0  2  0  0  0  0  0  0  0  0  0
    6.0505  -15.7869   25.3191 N   0  0  0  0  0  0  0  0  0  0  0  0
    8.3858  -16.1686   24.7867 C   0  0  0  0  0  0  0  0  0  0  0  0
    8.5527  -16.7943   25.8652 O   0  0  0  0  0  0  0  0  0  0  0  0
    9.2403  -16.4256   23.7021 N   0  0  0  0  0  0  0  0  0  0  0  0
   10.2207  -17.5005   23.7393 C   0  0  1  0  0  0  0  0  0  0  0  0
   10.8725  -17.7098   22.4230 C   0  0  0  0  0  0  0  0  0  0  0  0
   10.6420  -16.5767   21.4671 C   0  0  0  0  0  0  0  0  0  0  0  0
   11.4614  -16.7793   20.2134 C   0  0  0  0  0  0  0  0  0  0  0  0
   10.9265  -17.0021   19.1082 O   0  0  0  0  0  0  0  0  0  0  0  0
   11.2483  -17.1327   24.7570 C   0  0  0  0  0  0  0  0  0  0  0  0
   11.9439  -16.0899   24.6854 O   0  0  0  0  0  0  0  0  0  0  0  0
   12.8266  -16.7138   20.3062 O   0  0  0  0  0  0  0  0  0  0  0  0
   11.4952  -17.9723   25.8923 N   0  0  0  0  0  0  0  0  0  0  0  0
   12.6134  -17.6254   26.7775 C   0  0  1  0  0  0  0  0  0  0  0  0
   12.1133  -16.7833   27.9334 C   0  0  0  0  0  0  0  0  0  0  0  0
   10.8545  -17.2985   28.5453 C   0  0  0  0  0  0  0  0  0  0  0  0
   10.5687  -16.4392   29.7544 C   0  0  0  0  0  0  0  0  0  0  0  0
   11.4439  -15.7588   30.3153 O   0  0  0  0  0  0  0  0  0  0  0  0
   13.2819  -18.8648   27.1711 C   0  0  0  0  0  0  0  0  0  0  0  0
   14.3171  -18.8255   27.8754 O   0  0  0  0  0  0  0  0  0  0  0  0
    9.2781  -16.4099   30.2565 O   0  0  0  0  0  0  0  0  0  0  0  0
   12.7865  -20.0817   26.7777 O   0  0  0  0  0  0  0  0  0  0  0  0
  2  1  1  1
  2  3  1  0
  4  2  1  0
  4  5  1  0
  5  7  1  0
  5  6  1  1
  7  8  2  0
  9 10  1  0
  9  7  1  0
 11 12  1  0
 10 11  1  6
 12 13  1  0
 13 17  1  0
 13 14  2  0
 15 16  2  0
 15 10  1  0
 18 15  1  0
 19 24  1  0
 19 18  1  0
 19 20  1  1
 21 22  1  0
 21 20  1  0
 22 23  2  0
 24 27  1  0
 25 24  2  0
 26 22  1  0
M  END
$$$$
