LEE.pdb
     RDKit          3D

 27 26  0  0  1  0  0  0  0  0999 V2000
    5.8541  -12.6114   26.5161 C   0  0  0  0  0  0  0  0  0  0  0  0
    7.2200  -12.3890   25.9234 C   0  0  1  0  0  0  0  0  0  0  0  0
    8.0153  -11.4128   26.7975 C   0  0  0  0  0  0  0  0  0  0  0  0
    7.9447  -13.6774   25.7475 C   0  0  0  0  0  0  0  0  0  0  0  0
    7.5255  -14.4437   24.5255 C   0  0  2  0  0  0  0  0  0  0  0  0
    6.1736  -14.9568   24.6451 N   0  0  0  0  0  0  0  0  0  0  0  0
    8.4929  -15.5495   24.2551 C   0  0  0  0  0  0  0  0  0  0  0  0
    8.5686  -16.4317   25.1486 O   0  0  0  0  0  0  0  0  0  0  0  0
    9.2942  -15.6617   23.1070 N   0  0  0  0  0  0  0  0  0  0  0  0
   10.1377  -16.8245   22.8741 C   0  0  1  0  0  0  0  0  0  0  0  0
   10.8108  -16.7726   21.5529 C   0  0  0  0  0  0  0  0  0  0  0  0
   11.6669  -17.9745   21.2826 C   0  0  0  0  0  0  0  0  0  0  0  0
   12.3223  -17.8516   19.9263 C   0  0  0  0  0  0  0  0  0  0  0  0
   13.5360  -17.5881   19.8048 O   0  0  0  0  0  0  0  0  0  0  0  0
   11.1614  -16.8583   23.9596 C   0  0  0  0  0  0  0  0  0  0  0  0
   11.4409  -15.8627   24.6716 O   0  0  0  0  0  0  0  0  0  0  0  0
   11.5525  -18.0371   18.8084 O   0  0  0  0  0  0  0  0  0  0  0  0
   11.8907  -18.0581   24.2480 N   0  0  0  0  0  0  0  0  0  0  0  0
   12.6595  -18.1153   25.4970 C   0  0  1  0  0  0  0  0  0  0  0  0
   11.7333  -18.4118   26.6589 C   0  0  0  0  0  0  0  0  0  0  0  0
   12.4463  -18.6111   27.9536 C   0  0  0  0  0  0  0  0  0  0  0  0
   11.4017  -18.9847   28.9787 C   0  0  0  0  0  0  0  0  0  0  0  0
   11.3456  -18.4566   30.1019 O   0  0  0  0  0  0  0  0  0  0  0  0
   13.7425  -19.0815   25.3194 C   0  0  0  0  0  0  0  0  0  0  0  0
   13.6430  -19.9877   24.4601 O   0  0  0  0  0  0  0  0  0  0  0  0
   10.4695  -19.9556   28.6516 O   0  0  0  0  0  0  0  0  0  0  0  0
   14.8771  -19.0088   26.0863 O   0  0  0  0  0  0  0  0  0  0  0  0
  2  1  1  1
  2  3  1  0
  4  2  1  0
  4  5  1  0
  5  7  1  0
  5  6  1  1
  7  8  2  0
  9 10  1  0
  9  7  1  0
 11 12  1  0
 10 11  1  6
 12 13  1  0
 13 17  1  0
 13 14  2  0
 15 16  2  0
 15 10  1  0
 18 15  1  0
 19 24  1  0
 19 18  1  0
 19 20  1  1
 21 22  1  0
 21 20  1  0
 22 23  2  0
 24 27  1  0
 25 24  2  0
 26 22  1  0
M  END
$$$$
