LEE.pdb
     RDKit          3D

 27 26  0  0  1  0  0  0  0  0999 V2000
    6.9379  -12.1158   27.3754 C   0  0  0  0  0  0  0  0  0  0  0  0
    6.5307  -12.8905   26.1505 C   0  0  1  0  0  0  0  0  0  0  0  0
    6.7300  -12.0294   24.8984 C   0  0  0  0  0  0  0  0  0  0  0  0
    7.2789  -14.1738   26.0541 C   0  0  0  0  0  0  0  0  0  0  0  0
    6.7132  -15.1278   25.0411 C   0  0  2  0  0  0  0  0  0  0  0  0
    5.5713  -15.8562   25.5615 N   0  0  0  0  0  0  0  0  0  0  0  0
    7.7749  -16.0673   24.5705 C   0  0  0  0  0  0  0  0  0  0  0  0
    7.9854  -17.0605   25.3132 O   0  0  0  0  0  0  0  0  0  0  0  0
    8.5259  -15.9165   23.3932 N   0  0  0  0  0  0  0  0  0  0  0  0
    9.4759  -16.9292   22.9575 C   0  0  1  0  0  0  0  0  0  0  0  0
    9.8761  -16.7488   21.5402 C   0  0  0  0  0  0  0  0  0  0  0  0
   10.8070  -17.8193   21.0522 C   0  0  0  0  0  0  0  0  0  0  0  0
   11.0890  -17.6313   19.5794 C   0  0  0  0  0  0  0  0  0  0  0  0
   10.5031  -16.7604   18.9045 O   0  0  0  0  0  0  0  0  0  0  0  0
   10.6769  -16.8227   23.8370 C   0  0  0  0  0  0  0  0  0  0  0  0
   11.3378  -15.7639   23.9723 O   0  0  0  0  0  0  0  0  0  0  0  0
   12.0150  -18.4447   18.9814 O   0  0  0  0  0  0  0  0  0  0  0  0
   11.1433  -17.9513   24.5878 N   0  0  0  0  0  0  0  0  0  0  0  0
   12.3757  -17.7984   25.3700 C   0  0  1  0  0  0  0  0  0  0  0  0
   12.3415  -18.7217   26.5708 C   0  0  0  0  0  0  0  0  0  0  0  0
   11.2678  -18.3863   27.5501 C   0  0  0  0  0  0  0  0  0  0  0  0
   11.3223  -19.4321   28.6388 C   0  0  0  0  0  0  0  0  0  0  0  0
   12.1170  -20.3866   28.6123 O   0  0  0  0  0  0  0  0  0  0  0  0
   13.5114  -18.0075   24.4730 C   0  0  0  0  0  0  0  0  0  0  0  0
   14.6519  -17.6025   24.7963 O   0  0  0  0  0  0  0  0  0  0  0  0
   10.4500  -19.3206   29.7091 O   0  0  0  0  0  0  0  0  0  0  0  0
   13.3447  -18.6477   23.2716 O   0  0  0  0  0  0  0  0  0  0  0  0
  2  1  1  1
  2  3  1  0
  4  2  1  0
  4  5  1  0
  5  7  1  0
  5  6  1  1
  7  8  2  0
  9 10  1  0
  9  7  1  0
 11 12  1  0
 10 11  1  6
 12 13  1  0
 13 17  1  0
 13 14  2  0
 15 16  2  0
 15 10  1  0
 18 15  1  0
 19 24  1  0
 19 18  1  0
 19 20  1  1
 21 22  1  0
 21 20  1  0
 22 23  2  0
 24 27  1  0
 25 24  2  0
 26 22  1  0
M  END
$$$$
