LEE.pdb
     RDKit          3D

 27 26  0  0  1  0  0  0  0  0999 V2000
    7.2527  -12.2489   20.8572 C   0  0  0  0  0  0  0  0  0  0  0  0
    7.4127  -13.4363   19.9457 C   0  0  1  0  0  0  0  0  0  0  0  0
    7.6928  -12.9619   18.5153 C   0  0  0  0  0  0  0  0  0  0  0  0
    8.4816  -14.3489   20.4362 C   0  0  0  0  0  0  0  0  0  0  0  0
    8.6319  -15.5983   19.6160 C   0  0  2  0  0  0  0  0  0  0  0  0
    7.4100  -16.3804   19.5913 N   0  0  0  0  0  0  0  0  0  0  0  0
    9.7756  -16.4133   20.1253 C   0  0  0  0  0  0  0  0  0  0  0  0
    9.5197  -17.1426   21.1177 O   0  0  0  0  0  0  0  0  0  0  0  0
   11.0720  -16.4158   19.5849 N   0  0  0  0  0  0  0  0  0  0  0  0
   12.1177  -17.2808   20.1107 C   0  0  1  0  0  0  0  0  0  0  0  0
   13.1106  -17.6533   19.0731 C   0  0  0  0  0  0  0  0  0  0  0  0
   12.4961  -18.3530   17.8968 C   0  0  0  0  0  0  0  0  0  0  0  0
   13.5612  -18.6942   16.8802 C   0  0  0  0  0  0  0  0  0  0  0  0
   14.4476  -19.5402   17.1165 O   0  0  0  0  0  0  0  0  0  0  0  0
   12.7966  -16.5405   21.2144 C   0  0  0  0  0  0  0  0  0  0  0  0
   13.1424  -15.3370   21.1236 O   0  0  0  0  0  0  0  0  0  0  0  0
   13.5416  -18.0508   15.6709 O   0  0  0  0  0  0  0  0  0  0  0  0
   13.0925  -17.1839   22.4608 N   0  0  0  0  0  0  0  0  0  0  0  0
   13.6594  -16.3682   23.5412 C   0  0  1  0  0  0  0  0  0  0  0  0
   13.0739  -16.7962   24.8714 C   0  0  0  0  0  0  0  0  0  0  0  0
   13.6416  -18.0746   25.3888 C   0  0  0  0  0  0  0  0  0  0  0  0
   13.0343  -18.3062   26.7524 C   0  0  0  0  0  0  0  0  0  0  0  0
   12.2376  -17.5093   27.2756 O   0  0  0  0  0  0  0  0  0  0  0  0
   15.1167  -16.4573   23.4601 C   0  0  0  0  0  0  0  0  0  0  0  0
   15.6552  -17.3617   22.7809 O   0  0  0  0  0  0  0  0  0  0  0  0
   13.3809  -19.4540   27.4460 O   0  0  0  0  0  0  0  0  0  0  0  0
   15.9102  -15.5558   24.1223 O   0  0  0  0  0  0  0  0  0  0  0  0
  2  1  1  1
  2  3  1  0
  4  2  1  0
  4  5  1  0
  5  7  1  0
  5  6  1  1
  7  8  2  0
  9 10  1  0
  9  7  1  0
 11 12  1  0
 10 11  1  6
 12 13  1  0
 13 17  1  0
 13 14  2  0
 15 16  2  0
 15 10  1  0
 18 15  1  0
 19 24  1  0
 19 18  1  0
 19 20  1  1
 21 22  1  0
 21 20  1  0
 22 23  2  0
 24 27  1  0
 25 24  2  0
 26 22  1  0
M  END
$$$$
