LEE.pdb
     RDKit          3D

 27 26  0  0  1  0  0  0  0  0999 V2000
    6.5362  -12.8286   19.6567 C   0  0  0  0  0  0  0  0  0  0  0  0
    7.9639  -12.9592   19.1974 C   0  0  1  0  0  0  0  0  0  0  0  0
    8.6541  -11.5914   19.2439 C   0  0  0  0  0  0  0  0  0  0  0  0
    8.6984  -13.9680   20.0090 C   0  0  0  0  0  0  0  0  0  0  0  0
   10.1578  -14.0702   19.6684 C   0  0  2  0  0  0  0  0  0  0  0  0
   10.3896  -13.9623   18.2401 N   0  0  0  0  0  0  0  0  0  0  0  0
   10.7230  -15.3448   20.2049 C   0  0  0  0  0  0  0  0  0  0  0  0
   10.1939  -15.7661   21.2655 O   0  0  0  0  0  0  0  0  0  0  0  0
   11.7703  -16.0755   19.6203 N   0  0  0  0  0  0  0  0  0  0  0  0
   12.2602  -17.3132   20.2086 C   0  0  1  0  0  0  0  0  0  0  0  0
   13.0317  -18.1278   19.2377 C   0  0  0  0  0  0  0  0  0  0  0  0
   13.4341  -19.4661   19.7833 C   0  0  0  0  0  0  0  0  0  0  0  0
   14.1782  -20.2545   18.7302 C   0  0  0  0  0  0  0  0  0  0  0  0
   14.6223  -21.3983   18.9578 O   0  0  0  0  0  0  0  0  0  0  0  0
   13.1328  -16.9447   21.3619 C   0  0  0  0  0  0  0  0  0  0  0  0
   14.0130  -16.0516   21.2998 O   0  0  0  0  0  0  0  0  0  0  0  0
   14.3631  -19.6872   17.4970 O   0  0  0  0  0  0  0  0  0  0  0  0
   13.0034  -17.6085   22.6258 N   0  0  0  0  0  0  0  0  0  0  0  0
   13.7662  -17.0814   23.7637 C   0  0  1  0  0  0  0  0  0  0  0  0
   13.0199  -17.3524   25.0540 C   0  0  0  0  0  0  0  0  0  0  0  0
   12.9421  -18.7999   25.4048 C   0  0  0  0  0  0  0  0  0  0  0  0
   12.3013  -18.8885   26.7699 C   0  0  0  0  0  0  0  0  0  0  0  0
   11.9985  -17.8836   27.4348 O   0  0  0  0  0  0  0  0  0  0  0  0
   15.1131  -17.6479   23.7084 C   0  0  0  0  0  0  0  0  0  0  0  0
   15.3555  -18.6234   22.9607 O   0  0  0  0  0  0  0  0  0  0  0  0
   12.0417  -20.1416   27.3001 O   0  0  0  0  0  0  0  0  0  0  0  0
   16.1249  -17.1211   24.4696 O   0  0  0  0  0  0  0  0  0  0  0  0
  2  1  1  1
  2  3  1  0
  4  2  1  0
  4  5  1  0
  5  7  1  0
  5  6  1  6
  7  8  2  0
  9 10  1  0
  9  7  1  0
 11 12  1  0
 10 11  1  6
 12 13  1  0
 13 17  1  0
 13 14  2  0
 15 16  2  0
 15 10  1  0
 18 15  1  0
 19 24  1  0
 19 18  1  0
 19 20  1  1
 21 22  1  0
 21 20  1  0
 22 23  2  0
 24 27  1  0
 25 24  2  0
 26 22  1  0
M  END
$$$$
