LEE.pdb
     RDKit          3D

 27 26  0  0  1  0  0  0  0  0999 V2000
    8.5329  -13.4854   20.0576 C   0  0  0  0  0  0  0  0  0  0  0  0
    8.3867  -14.2164   21.3655 C   0  0  1  0  0  0  0  0  0  0  0  0
    8.0653  -13.2215   22.4863 C   0  0  0  0  0  0  0  0  0  0  0  0
    7.3530  -15.2834   21.2711 C   0  0  0  0  0  0  0  0  0  0  0  0
    7.6900  -16.3647   20.2844 C   0  0  2  0  0  0  0  0  0  0  0  0
    6.6459  -17.3690   20.2036 N   0  0  0  0  0  0  0  0  0  0  0  0
    9.0025  -16.9876   20.6325 C   0  0  0  0  0  0  0  0  0  0  0  0
    8.9945  -17.7343   21.6448 O   0  0  0  0  0  0  0  0  0  0  0  0
   10.2014  -16.7985   19.9258 N   0  0  0  0  0  0  0  0  0  0  0  0
   11.4129  -17.5294   20.2663 C   0  0  1  0  0  0  0  0  0  0  0  0
   12.3247  -17.6743   19.1048 C   0  0  0  0  0  0  0  0  0  0  0  0
   11.9308  -18.7923   18.1852 C   0  0  0  0  0  0  0  0  0  0  0  0
   12.8847  -18.8637   17.0152 C   0  0  0  0  0  0  0  0  0  0  0  0
   12.4767  -18.9750   15.8411 O   0  0  0  0  0  0  0  0  0  0  0  0
   12.0999  -16.7731   21.3541 C   0  0  0  0  0  0  0  0  0  0  0  0
   12.4516  -15.5732   21.2405 O   0  0  0  0  0  0  0  0  0  0  0  0
   14.2306  -18.8031   17.2635 O   0  0  0  0  0  0  0  0  0  0  0  0
   12.3969  -17.3955   22.6107 N   0  0  0  0  0  0  0  0  0  0  0  0
   13.0259  -16.5777   23.6546 C   0  0  1  0  0  0  0  0  0  0  0  0
   12.8792  -17.2582   25.0004 C   0  0  0  0  0  0  0  0  0  0  0  0
   11.4650  -17.5622   25.3635 C   0  0  0  0  0  0  0  0  0  0  0  0
   11.5047  -18.4408   26.5916 C   0  0  0  0  0  0  0  0  0  0  0  0
   12.5670  -18.8523   27.0875 O   0  0  0  0  0  0  0  0  0  0  0  0
   14.4068  -16.3130   23.2531 C   0  0  0  0  0  0  0  0  0  0  0  0
   15.0468  -15.3743   23.7807 O   0  0  0  0  0  0  0  0  0  0  0  0
   10.3074  -18.8013   27.1876 O   0  0  0  0  0  0  0  0  0  0  0  0
   15.0177  -17.0858   22.2989 O   0  0  0  0  0  0  0  0  0  0  0  0
  2  1  1  6
  2  3  1  0
  4  2  1  0
  4  5  1  0
  5  7  1  0
  5  6  1  1
  7  8  2  0
  9 10  1  0
  9  7  1  0
 11 12  1  0
 10 11  1  6
 12 13  1  0
 13 17  1  0
 13 14  2  0
 15 16  2  0
 15 10  1  0
 18 15  1  0
 19 24  1  0
 19 18  1  0
 19 20  1  1
 21 22  1  0
 21 20  1  0
 22 23  2  0
 24 27  1  0
 25 24  2  0
 26 22  1  0
M  END
$$$$
