LEE.pdb
     RDKit          3D

 27 26  0  0  1  0  0  0  0  0999 V2000
    7.2787  -11.4986   25.0053 C   0  0  0  0  0  0  0  0  0  0  0  0
    6.9377  -12.7282   25.8044 C   0  0  1  0  0  0  0  0  0  0  0  0
    5.9069  -12.3795   26.8839 C   0  0  0  0  0  0  0  0  0  0  0  0
    6.4528  -13.8243   24.9216 C   0  0  0  0  0  0  0  0  0  0  0  0
    6.5149  -15.1837   25.5575 C   0  0  2  0  0  0  0  0  0  0  0  0
    6.9356  -15.1143   26.9444 N   0  0  0  0  0  0  0  0  0  0  0  0
    7.4168  -16.0783   24.7715 C   0  0  0  0  0  0  0  0  0  0  0  0
    6.9641  -17.2276   24.5334 O   0  0  0  0  0  0  0  0  0  0  0  0
    8.6924  -15.7292   24.2988 N   0  0  0  0  0  0  0  0  0  0  0  0
    9.5641  -16.7038   23.6597 C   0  0  1  0  0  0  0  0  0  0  0  0
   10.0181  -16.2556   22.3202 C   0  0  0  0  0  0  0  0  0  0  0  0
   10.9014  -17.2558   21.6347 C   0  0  0  0  0  0  0  0  0  0  0  0
   11.2612  -16.7689   20.2500 C   0  0  0  0  0  0  0  0  0  0  0  0
   11.5704  -17.5596   19.3354 O   0  0  0  0  0  0  0  0  0  0  0  0
   10.7444  -16.8999   24.5517 C   0  0  0  0  0  0  0  0  0  0  0  0
   11.4447  -15.9514   24.9832 O   0  0  0  0  0  0  0  0  0  0  0  0
   11.2432  -15.4211   20.0050 O   0  0  0  0  0  0  0  0  0  0  0  0
   11.1434  -18.2120   24.9686 N   0  0  0  0  0  0  0  0  0  0  0  0
   12.2969  -18.3294   25.8687 C   0  0  1  0  0  0  0  0  0  0  0  0
   11.9477  -19.2255   27.0394 C   0  0  0  0  0  0  0  0  0  0  0  0
   10.8159  -18.7136   27.8649 C   0  0  0  0  0  0  0  0  0  0  0  0
   10.5133  -19.7703   28.9010 C   0  0  0  0  0  0  0  0  0  0  0  0
   11.3429  -20.1315   29.7524 O   0  0  0  0  0  0  0  0  0  0  0  0
   13.4440  -18.7768   25.0800 C   0  0  0  0  0  0  0  0  0  0  0  0
   14.6025  -18.6901   25.5488 O   0  0  0  0  0  0  0  0  0  0  0  0
    9.2596  -20.3594   28.9003 O   0  0  0  0  0  0  0  0  0  0  0  0
   13.2684  -19.2960   23.8229 O   0  0  0  0  0  0  0  0  0  0  0  0
  2  1  1  6
  2  3  1  0
  4  2  1  0
  4  5  1  0
  5  7  1  0
  5  6  1  1
  7  8  2  0
  9 10  1  0
  9  7  1  0
 11 12  1  0
 10 11  1  6
 12 13  1  0
 13 17  1  0
 13 14  2  0
 15 16  2  0
 15 10  1  0
 18 15  1  0
 19 24  1  0
 19 18  1  0
 19 20  1  1
 21 22  1  0
 21 20  1  0
 22 23  2  0
 24 27  1  0
 25 24  2  0
 26 22  1  0
M  END
$$$$
