LEE.pdb
     RDKit          3D

 27 26  0  0  1  0  0  0  0  0999 V2000
    7.2278  -12.2472   27.3823 C   0  0  0  0  0  0  0  0  0  0  0  0
    6.6373  -13.1880   26.3661 C   0  0  1  0  0  0  0  0  0  0  0  0
    6.2427  -12.4124   25.1044 C   0  0  0  0  0  0  0  0  0  0  0  0
    7.5786  -14.2976   26.0517 C   0  0  0  0  0  0  0  0  0  0  0  0
    7.0061  -15.3298   25.1227 C   0  0  2  0  0  0  0  0  0  0  0  0
    6.0099  -16.1560   25.7786 N   0  0  0  0  0  0  0  0  0  0  0  0
    8.1008  -16.1694   24.5496 C   0  0  0  0  0  0  0  0  0  0  0  0
    8.4295  -17.1708   25.2362 O   0  0  0  0  0  0  0  0  0  0  0  0
    8.7621  -15.9195   23.3360 N   0  0  0  0  0  0  0  0  0  0  0  0
    9.7411  -16.8496   22.7932 C   0  0  1  0  0  0  0  0  0  0  0  0
   10.0187  -16.5961   21.3579 C   0  0  0  0  0  0  0  0  0  0  0  0
   11.0727  -17.5030   20.7947 C   0  0  0  0  0  0  0  0  0  0  0  0
   10.6362  -18.0349   19.4491 C   0  0  0  0  0  0  0  0  0  0  0  0
   10.5334  -19.2588   19.2287 O   0  0  0  0  0  0  0  0  0  0  0  0
   10.9961  -16.6893   23.5846 C   0  0  0  0  0  0  0  0  0  0  0  0
   11.6603  -15.6242   23.6113 O   0  0  0  0  0  0  0  0  0  0  0  0
   10.3482  -17.1390   18.4535 O   0  0  0  0  0  0  0  0  0  0  0  0
   11.5146  -17.7695   24.3714 N   0  0  0  0  0  0  0  0  0  0  0  0
   12.7438  -17.5366   25.1389 C   0  0  1  0  0  0  0  0  0  0  0  0
   12.5933  -18.1019   26.5365 C   0  0  0  0  0  0  0  0  0  0  0  0
   11.2329  -18.6453   26.8164 C   0  0  0  0  0  0  0  0  0  0  0  0
   11.2526  -19.1749   28.2310 C   0  0  0  0  0  0  0  0  0  0  0  0
   12.3062  -19.3615   28.8624 O   0  0  0  0  0  0  0  0  0  0  0  0
   13.8650  -18.0852   24.3773 C   0  0  0  0  0  0  0  0  0  0  0  0
   15.0425  -17.8662   24.7445 O   0  0  0  0  0  0  0  0  0  0  0  0
   10.0462  -19.4635   28.8474 O   0  0  0  0  0  0  0  0  0  0  0  0
   13.6441  -18.8443   23.2567 O   0  0  0  0  0  0  0  0  0  0  0  0
  2  1  1  1
  2  3  1  0
  4  2  1  0
  4  5  1  0
  5  7  1  0
  5  6  1  1
  7  8  2  0
  9 10  1  0
  9  7  1  0
 11 12  1  0
 10 11  1  6
 12 13  1  0
 13 17  1  0
 13 14  2  0
 15 16  2  0
 15 10  1  0
 18 15  1  0
 19 24  1  0
 19 18  1  0
 19 20  1  1
 21 22  1  0
 21 20  1  0
 22 23  2  0
 24 27  1  0
 25 24  2  0
 26 22  1  0
M  END
$$$$
