LEE.pdb
     RDKit          3D

 27 26  0  0  1  0  0  0  0  0999 V2000
    7.7825  -11.8710   27.0941 C   0  0  0  0  0  0  0  0  0  0  0  0
    6.9752  -12.9816   26.4767 C   0  0  1  0  0  0  0  0  0  0  0  0
    5.6426  -12.4311   25.9568 C   0  0  0  0  0  0  0  0  0  0  0  0
    7.7403  -13.6653   25.3982 C   0  0  0  0  0  0  0  0  0  0  0  0
    7.0711  -14.9045   24.8758 C   0  0  2  0  0  0  0  0  0  0  0  0
    6.0791  -15.4162   25.8029 N   0  0  0  0  0  0  0  0  0  0  0  0
    8.0935  -15.9471   24.5607 C   0  0  0  0  0  0  0  0  0  0  0  0
    8.1180  -16.9332   25.3414 O   0  0  0  0  0  0  0  0  0  0  0  0
    8.9966  -15.8970   23.4862 N   0  0  0  0  0  0  0  0  0  0  0  0
    9.9130  -16.9923   23.2061 C   0  0  1  0  0  0  0  0  0  0  0  0
   10.6630  -16.7858   21.9426 C   0  0  0  0  0  0  0  0  0  0  0  0
   11.5652  -17.9347   21.6010 C   0  0  0  0  0  0  0  0  0  0  0  0
   12.2673  -17.6720   20.2887 C   0  0  0  0  0  0  0  0  0  0  0  0
   13.3707  -18.1890   20.0192 O   0  0  0  0  0  0  0  0  0  0  0  0
   10.8679  -17.0791   24.3497 C   0  0  0  0  0  0  0  0  0  0  0  0
   11.4355  -16.0766   24.8486 O   0  0  0  0  0  0  0  0  0  0  0  0
   11.6657  -16.8429   19.3791 O   0  0  0  0  0  0  0  0  0  0  0  0
   11.1892  -18.3417   24.9475 N   0  0  0  0  0  0  0  0  0  0  0  0
   11.8986  -18.3365   26.2325 C   0  0  1  0  0  0  0  0  0  0  0  0
   10.9154  -18.1099   27.3628 C   0  0  0  0  0  0  0  0  0  0  0  0
   11.4766  -18.4141   28.7107 C   0  0  0  0  0  0  0  0  0  0  0  0
   11.3636  -17.1502   29.5303 C   0  0  0  0  0  0  0  0  0  0  0  0
   10.3668  -16.8878   30.2239 O   0  0  0  0  0  0  0  0  0  0  0  0
   12.6659  -19.5773   26.3321 C   0  0  0  0  0  0  0  0  0  0  0  0
   13.5958  -19.6771   27.1655 O   0  0  0  0  0  0  0  0  0  0  0  0
   12.4149  -16.2487   29.5063 O   0  0  0  0  0  0  0  0  0  0  0  0
   12.3788  -20.6440   25.5193 O   0  0  0  0  0  0  0  0  0  0  0  0
  2  1  1  6
  2  3  1  0
  4  2  1  0
  4  5  1  0
  5  7  1  0
  5  6  1  1
  7  8  2  0
  9 10  1  0
  9  7  1  0
 11 12  1  0
 10 11  1  6
 12 13  1  0
 13 17  1  0
 13 14  2  0
 15 16  2  0
 15 10  1  0
 18 15  1  0
 19 24  1  0
 19 18  1  0
 19 20  1  1
 21 22  1  0
 21 20  1  0
 22 23  2  0
 24 27  1  0
 25 24  2  0
 26 22  1  0
M  END
$$$$
