LEE.pdb
     RDKit          3D

 27 26  0  0  1  0  0  0  0  0999 V2000
    6.9413  -11.9317   27.0457 C   0  0  0  0  0  0  0  0  0  0  0  0
    6.4513  -12.8711   25.9762 C   0  0  1  0  0  0  0  0  0  0  0  0
    6.6302  -12.2291   24.5960 C   0  0  0  0  0  0  0  0  0  0  0  0
    7.1435  -14.1864   26.0593 C   0  0  0  0  0  0  0  0  0  0  0  0
    6.6858  -15.1757   25.0258 C   0  0  2  0  0  0  0  0  0  0  0  0
    5.5919  -15.9973   25.5093 N   0  0  0  0  0  0  0  0  0  0  0  0
    7.8329  -16.0235   24.5819 C   0  0  0  0  0  0  0  0  0  0  0  0
    8.1542  -16.9519   25.3675 O   0  0  0  0  0  0  0  0  0  0  0  0
    8.5492  -15.8547   23.3857 N   0  0  0  0  0  0  0  0  0  0  0  0
    9.5546  -16.8147   22.9548 C   0  0  1  0  0  0  0  0  0  0  0  0
    9.9168  -16.6432   21.5262 C   0  0  0  0  0  0  0  0  0  0  0  0
   10.9012  -17.6670   21.0431 C   0  0  0  0  0  0  0  0  0  0  0  0
   11.1654  -17.4784   19.5671 C   0  0  0  0  0  0  0  0  0  0  0  0
   11.4488  -18.4389   18.8226 O   0  0  0  0  0  0  0  0  0  0  0  0
   10.7617  -16.6106   23.8081 C   0  0  0  0  0  0  0  0  0  0  0  0
   11.3221  -15.4962   23.9505 O   0  0  0  0  0  0  0  0  0  0  0  0
   11.0881  -16.2143   19.0448 O   0  0  0  0  0  0  0  0  0  0  0  0
   11.3522  -17.7035   24.5235 N   0  0  0  0  0  0  0  0  0  0  0  0
   12.5696  -17.4424   25.3008 C   0  0  1  0  0  0  0  0  0  0  0  0
   12.6129  -18.3524   26.5114 C   0  0  0  0  0  0  0  0  0  0  0  0
   11.4840  -18.1346   27.4614 C   0  0  0  0  0  0  0  0  0  0  0  0
   11.6546  -19.1309   28.5840 C   0  0  0  0  0  0  0  0  0  0  0  0
   12.5273  -20.0150   28.5689 O   0  0  0  0  0  0  0  0  0  0  0  0
   13.7168  -17.5680   24.4030 C   0  0  0  0  0  0  0  0  0  0  0  0
   13.5796  -18.0991   23.2767 O   0  0  0  0  0  0  0  0  0  0  0  0
   10.8025  -19.0541   29.6734 O   0  0  0  0  0  0  0  0  0  0  0  0
   14.9526  -17.1072   24.7790 O   0  0  0  0  0  0  0  0  0  0  0  0
  2  1  1  1
  2  3  1  0
  4  2  1  0
  4  5  1  0
  5  7  1  0
  5  6  1  1
  7  8  2  0
  9 10  1  0
  9  7  1  0
 11 12  1  0
 10 11  1  6
 12 13  1  0
 13 17  1  0
 13 14  2  0
 15 16  2  0
 15 10  1  0
 18 15  1  0
 19 24  1  0
 19 18  1  0
 19 20  1  1
 21 22  1  0
 21 20  1  0
 22 23  2  0
 24 27  1  0
 25 24  2  0
 26 22  1  0
M  END
$$$$
