QRA.pdb
     RDKit          3D

 26 25  0  0  1  0  0  0  0  0999 V2000
   26.2741  -25.1425  -15.7886 N   0  0  0  0  0  0  0  0  0  0  0  0
   27.2210  -24.1933  -16.2250 C   0  0  0  0  0  0  0  0  0  0  0  0
   28.0273  -24.5072  -17.1287 O   0  0  0  0  0  0  0  0  0  0  0  0
   27.2121  -22.8711  -15.5882 C   0  0  0  0  0  0  0  0  0  0  0  0
   26.1042  -22.6548  -14.5984 C   0  0  0  0  0  0  0  0  0  0  0  0
   24.7741  -22.3828  -15.2093 C   0  0  2  0  0  0  0  0  0  0  0  0
   24.8352  -21.2297  -16.1121 N   0  0  0  0  0  0  0  0  0  0  0  0
   23.6848  -22.1514  -14.1949 C   0  0  0  0  0  0  0  0  0  0  0  0
   23.4778  -23.0025  -13.2684 O   0  0  0  0  0  0  0  0  0  0  0  0
   24.5223  -19.9285   -8.6038 N   0  0  0  0  0  0  0  0  0  0  0  0
   23.1598  -20.3816   -8.4140 C   0  0  0  0  0  0  0  0  0  0  0  0
   22.9539  -21.5310   -7.8744 N   0  0  0  0  0  0  0  0  0  0  0  0
   22.1035  -19.5388   -8.8310 N   0  0  0  0  0  0  0  0  0  0  0  0
   21.4389  -19.8651  -10.1286 C   0  0  0  0  0  0  0  0  0  0  0  0
   22.3295  -19.4130  -11.2207 C   0  0  0  0  0  0  0  0  0  0  0  0
   21.9888  -19.5112  -12.6238 C   0  0  0  0  0  0  0  0  0  0  0  0
   21.7402  -20.7875  -13.2954 C   0  0  2  0  0  0  0  0  0  0  0  0
   22.8895  -20.9953  -14.2614 N   0  0  0  0  0  0  0  0  0  0  0  0
   20.5625  -20.8310  -14.1726 C   0  0  0  0  0  0  0  0  0  0  0  0
   20.6632  -20.7195  -15.3982 O   0  0  0  0  0  0  0  0  0  0  0  0
   22.0072  -21.9323   -7.8445 C   0  0  0  0  0  0  0  0  0  0  0  0
   18.0868  -22.6218  -15.0806 C   0  0  1  0  0  0  0  0  0  0  0  0
   18.1574  -21.1742  -14.5993 N   0  0  0  0  0  0  0  0  0  0  0  0
   19.2433  -21.0031  -13.6650 C   0  0  0  0  0  0  0  0  0  0  0  0
   16.8732  -20.7844  -13.9535 O   0  0  0  0  0  0  0  0  0  0  0  0
   15.7344  -20.6892  -14.7072 O   0  0  0  0  0  0  0  0  0  0  0  0
  1  2  1  0
  2  3  2  0
  4  2  1  0
  4  5  1  0
  6  5  1  0
  6  7  1  6
  8  6  1  0
  9  8  2  0
 10 11  1  0
 11 13  1  0
 12 11  2  0
 13 14  1  0
 14 15  1  0
 17 16  1  6
 16 15  1  0
 17 18  1  0
 18  8  1  0
 19 23  1  0
 19 17  1  0
 20 19  2  0
 22 21  1  6
 22 24  1  0
 22 23  1  0
 24 25  1  0
 26 24  2  0
M  END
$$$$
