QRA.pdb
     RDKit          3D

 26 25  0  0  1  0  0  0  0  0999 V2000
   16.9221  -28.0011  -11.7877 N   0  0  0  0  0  0  0  0  0  0  0  0
   16.5610  -28.1275  -10.4307 C   0  0  0  0  0  0  0  0  0  0  0  0
   16.2655  -29.2570   -9.9810 O   0  0  0  0  0  0  0  0  0  0  0  0
   16.5493  -26.9131   -9.6069 C   0  0  0  0  0  0  0  0  0  0  0  0
   16.9067  -25.6513  -10.3376 C   0  0  0  0  0  0  0  0  0  0  0  0
   18.3693  -25.4103  -10.4757 C   0  0  2  0  0  0  0  0  0  0  0  0
   19.0260  -25.3923   -9.1655 N   0  0  0  0  0  0  0  0  0  0  0  0
   18.7002  -24.1345  -11.2051 C   0  0  0  0  0  0  0  0  0  0  0  0
   18.7110  -23.0222  -10.5821 O   0  0  0  0  0  0  0  0  0  0  0  0
   23.5192  -25.2955  -16.3933 N   0  0  0  0  0  0  0  0  0  0  0  0
   24.1078  -24.4682  -15.3604 C   0  0  0  0  0  0  0  0  0  0  0  0
   25.1642  -24.8832  -14.7551 N   0  0  0  0  0  0  0  0  0  0  0  0
   23.4956  -23.2302  -15.0560 N   0  0  0  0  0  0  0  0  0  0  0  0
   22.3677  -22.7907  -15.9316 C   0  0  0  0  0  0  0  0  0  0  0  0
   21.2410  -22.3969  -15.0566 C   0  0  0  0  0  0  0  0  0  0  0  0
   20.6054  -23.2953  -14.1168 C   0  0  0  0  0  0  0  0  0  0  0  0
   19.4578  -22.9072  -13.2957 C   0  0  2  0  0  0  0  0  0  0  0  0
   19.0003  -24.1609  -12.5772 N   0  0  0  0  0  0  0  0  0  0  0  0
   18.2551  -22.4930  -14.0307 C   0  0  0  0  0  0  0  0  0  0  0  0
   17.5378  -23.3121  -14.6133 O   0  0  0  0  0  0  0  0  0  0  0  0
   25.5573  -24.3524  -13.9665 C   0  0  0  0  0  0  0  0  0  0  0  0
   16.1929  -19.3811  -14.5154 C   0  0  1  0  0  0  0  0  0  0  0  0
   16.6262  -20.8146  -14.8144 N   0  0  0  0  0  0  0  0  0  0  0  0
   17.8476  -21.1312  -14.1147 C   0  0  0  0  0  0  0  0  0  0  0  0
   16.8253  -20.9962  -16.2792 O   0  0  0  0  0  0  0  0  0  0  0  0
   15.7440  -21.2104  -17.0909 O   0  0  0  0  0  0  0  0  0  0  0  0
  1  2  1  0
  2  3  2  0
  4  2  1  0
  4  5  1  0
  6  5  1  0
  6  7  1  1
  8  6  1  0
  9  8  2  0
 10 11  1  0
 11 13  1  0
 12 11  2  0
 13 14  1  0
 14 15  1  0
 17 16  1  6
 16 15  1  0
 17 18  1  0
 18  8  1  0
 19 23  1  0
 19 17  1  0
 20 19  2  0
 22 21  1  1
 22 24  1  0
 22 23  1  0
 24 25  1  0
 26 24  2  0
M  END
$$$$
