QRA.pdb
     RDKit          3D

 26 25  0  0  1  0  0  0  0  0999 V2000
   15.6477  -21.0597    5.9040 N   0  0  0  0  0  0  0  0  0  0  0  0
   16.7330  -21.7879    6.4330 C   0  0  0  0  0  0  0  0  0  0  0  0
   16.6363  -22.2802    7.5791 O   0  0  0  0  0  0  0  0  0  0  0  0
   17.9341  -21.9315    5.6021 C   0  0  0  0  0  0  0  0  0  0  0  0
   17.8983  -21.1763    4.3051 C   0  0  0  0  0  0  0  0  0  0  0  0
   16.5630  -21.1394    3.6481 C   0  0  2  0  0  0  0  0  0  0  0  0
   16.4957  -22.0946    2.5383 N   0  0  0  0  0  0  0  0  0  0  0  0
   16.1825  -19.7733    3.1401 C   0  0  0  0  0  0  0  0  0  0  0  0
   16.6794  -19.3306    2.0525 O   0  0  0  0  0  0  0  0  0  0  0  0
   12.9531  -13.3408    6.1446 N   0  0  0  0  0  0  0  0  0  0  0  0
   12.0532  -13.0373    5.0510 C   0  0  0  0  0  0  0  0  0  0  0  0
   11.7754  -11.8079    4.7944 N   0  0  0  0  0  0  0  0  0  0  0  0
   11.5124  -14.1095    4.3040 N   0  0  0  0  0  0  0  0  0  0  0  0
   11.8722  -15.4940    4.7347 C   0  0  0  0  0  0  0  0  0  0  0  0
   13.0684  -15.9108    3.9694 C   0  0  0  0  0  0  0  0  0  0  0  0
   13.6867  -17.2130    4.0971 C   0  0  0  0  0  0  0  0  0  0  0  0
   14.8969  -17.5948    3.3681 C   0  0  2  0  0  0  0  0  0  0  0  0
   15.2765  -18.9772    3.8602 N   0  0  0  0  0  0  0  0  0  0  0  0
   16.0981  -16.8011    3.6608 C   0  0  0  0  0  0  0  0  0  0  0  0
   16.7905  -17.0185    4.6598 O   0  0  0  0  0  0  0  0  0  0  0  0
   11.1079  -11.5673    4.0496 C   0  0  0  0  0  0  0  0  0  0  0  0
   18.2557  -14.2187    1.9938 C   0  0  1  0  0  0  0  0  0  0  0  0
   17.7060  -14.9904    3.1914 N   0  0  0  0  0  0  0  0  0  0  0  0
   16.5325  -15.7409    2.8154 C   0  0  0  0  0  0  0  0  0  0  0  0
   17.3683  -14.0511    4.2967 O   0  0  0  0  0  0  0  0  0  0  0  0
   18.3561  -13.3034    4.8793 O   0  0  0  0  0  0  0  0  0  0  0  0
  1  2  1  0
  2  3  2  0
  4  2  1  0
  4  5  1  0
  6  5  1  0
  6  7  1  6
  8  6  1  0
  9  8  2  0
 10 11  1  0
 11 13  1  0
 12 11  2  0
 13 14  1  0
 14 15  1  0
 17 16  1  1
 16 15  1  0
 17 18  1  0
 18  8  1  0
 19 23  1  0
 19 17  1  0
 20 19  2  0
 22 21  1  6
 22 24  1  0
 22 23  1  0
 24 25  1  0
 26 24  2  0
M  END
$$$$
