QRA.pdb
     RDKit          3D

 26 25  0  0  1  0  0  0  0  0999 V2000
   17.6767  -19.3539  -14.3804 N   0  0  0  0  0  0  0  0  0  0  0  0
   18.4428  -19.5333  -15.5504 C   0  0  0  0  0  0  0  0  0  0  0  0
   18.4690  -20.6590  -16.0956 O   0  0  0  0  0  0  0  0  0  0  0  0
   19.1792  -18.3766  -16.0734 C   0  0  0  0  0  0  0  0  0  0  0  0
   18.9687  -17.0986  -15.3143 C   0  0  0  0  0  0  0  0  0  0  0  0
   18.7869  -15.8942  -16.1702 C   0  0  2  0  0  0  0  0  0  0  0  0
   19.1194  -16.1862  -17.5676 N   0  0  0  0  0  0  0  0  0  0  0  0
   19.5947  -14.7073  -15.7141 C   0  0  0  0  0  0  0  0  0  0  0  0
   19.5606  -14.3371  -14.4945 O   0  0  0  0  0  0  0  0  0  0  0  0
   26.6979  -15.6379  -17.2906 N   0  0  0  0  0  0  0  0  0  0  0  0
   26.5772  -15.3972  -15.8675 C   0  0  0  0  0  0  0  0  0  0  0  0
   27.2161  -16.1572  -15.0497 N   0  0  0  0  0  0  0  0  0  0  0  0
   25.7578  -14.3308  -15.4300 N   0  0  0  0  0  0  0  0  0  0  0  0
   24.9581  -13.6119  -16.4670 C   0  0  0  0  0  0  0  0  0  0  0  0
   23.5693  -13.4957  -15.9690 C   0  0  0  0  0  0  0  0  0  0  0  0
   22.4977  -12.8801  -16.7221 C   0  0  0  0  0  0  0  0  0  0  0  0
   21.1349  -12.7485  -16.2054 C   0  0  2  0  0  0  0  0  0  0  0  0
   20.3924  -14.0002  -16.6289 N   0  0  0  0  0  0  0  0  0  0  0  0
   20.3271  -11.6725  -16.7957 C   0  0  0  0  0  0  0  0  0  0  0  0
   19.7993  -11.7930  -17.9054 O   0  0  0  0  0  0  0  0  0  0  0  0
   27.2333  -15.9448  -14.0434 C   0  0  0  0  0  0  0  0  0  0  0  0
   17.8309   -9.9376  -16.8597 C   0  0  2  0  0  0  0  0  0  0  0  0
   19.2724   -9.4430  -16.7620 N   0  0  0  0  0  0  0  0  0  0  0  0
   20.1065  -10.4346  -16.1275 C   0  0  0  0  0  0  0  0  0  0  0  0
   19.3279   -8.1712  -15.9890 O   0  0  0  0  0  0  0  0  0  0  0  0
   18.7812   -7.0315  -16.5147 O   0  0  0  0  0  0  0  0  0  0  0  0
  1  2  1  0
  2  3  2  0
  4  2  1  0
  4  5  1  0
  6  5  1  0
  6  7  1  6
  8  6  1  0
  9  8  2  0
 10 11  1  0
 11 13  1  0
 12 11  2  0
 13 14  1  0
 14 15  1  0
 17 16  1  6
 16 15  1  0
 17 18  1  0
 18  8  1  0
 19 23  1  0
 19 17  1  0
 20 19  2  0
 22 21  1  6
 22 24  1  0
 22 23  1  0
 24 25  1  0
 26 24  2  0
M  END
$$$$
