QRA.pdb
     RDKit          3D

 26 25  0  0  1  0  0  0  0  0999 V2000
   21.2204  -13.3029  -21.1100 N   0  0  0  0  0  0  0  0  0  0  0  0
   21.6996  -13.7270  -19.8537 C   0  0  0  0  0  0  0  0  0  0  0  0
   21.2316  -14.7684  -19.3423 O   0  0  0  0  0  0  0  0  0  0  0  0
   22.7342  -12.9145  -19.2031 C   0  0  0  0  0  0  0  0  0  0  0  0
   22.4607  -11.4385  -19.1879 C   0  0  0  0  0  0  0  0  0  0  0  0
   23.0081  -10.7207  -18.0041 C   0  0  2  0  0  0  0  0  0  0  0  0
   23.0740  -11.6045  -16.8366 N   0  0  0  0  0  0  0  0  0  0  0  0
   22.2270   -9.4858  -17.6379 C   0  0  0  0  0  0  0  0  0  0  0  0
   21.9933   -8.5897  -18.5143 O   0  0  0  0  0  0  0  0  0  0  0  0
   15.4587  -11.6041  -13.8953 N   0  0  0  0  0  0  0  0  0  0  0  0
   15.7470  -11.7902  -15.3024 C   0  0  0  0  0  0  0  0  0  0  0  0
   15.0313  -12.6150  -15.9821 N   0  0  0  0  0  0  0  0  0  0  0  0
   16.8090  -11.0544  -15.8773 N   0  0  0  0  0  0  0  0  0  0  0  0
   17.5960  -10.1657  -14.9702 C   0  0  0  0  0  0  0  0  0  0  0  0
   18.6870   -9.5583  -15.7646 C   0  0  0  0  0  0  0  0  0  0  0  0
   19.7311   -8.7354  -15.1926 C   0  0  0  0  0  0  0  0  0  0  0  0
   20.8201   -8.1650  -15.9867 C   0  0  2  0  0  0  0  0  0  0  0  0
   21.7491   -9.3128  -16.3284 N   0  0  0  0  0  0  0  0  0  0  0  0
   21.7036   -7.2266  -15.2814 C   0  0  0  0  0  0  0  0  0  0  0  0
   22.5612   -7.6190  -14.4843 O   0  0  0  0  0  0  0  0  0  0  0  0
   15.1934  -12.7402  -16.9902 C   0  0  0  0  0  0  0  0  0  0  0  0
   22.6284   -3.5926  -15.4898 C   0  0  1  0  0  0  0  0  0  0  0  0
   22.6091   -4.9749  -14.8410 N   0  0  0  0  0  0  0  0  0  0  0  0
   21.6241   -5.8180  -15.4737 C   0  0  0  0  0  0  0  0  0  0  0  0
   22.3087   -4.8558  -13.3872 O   0  0  0  0  0  0  0  0  0  0  0  0
   23.2460   -4.3286  -12.5401 O   0  0  0  0  0  0  0  0  0  0  0  0
  1  2  1  0
  2  3  2  0
  4  2  1  0
  4  5  1  0
  6  5  1  0
  6  7  1  1
  8  6  1  0
  9  8  2  0
 10 11  1  0
 11 13  1  0
 12 11  2  0
 13 14  1  0
 14 15  1  0
 17 16  1  1
 16 15  1  0
 17 18  1  0
 18  8  1  0
 19 23  1  0
 19 17  1  0
 20 19  2  0
 22 21  1  6
 22 24  1  0
 22 23  1  0
 24 25  1  0
 26 24  2  0
M  END
$$$$
