QRA.pdb
     RDKit          3D

 26 25  0  0  1  0  0  0  0  0999 V2000
   19.6596  -28.2390  -18.3637 N   0  0  0  0  0  0  0  0  0  0  0  0
   19.1701  -28.2142  -17.0417 C   0  0  0  0  0  0  0  0  0  0  0  0
   18.3078  -29.0517  -16.6950 O   0  0  0  0  0  0  0  0  0  0  0  0
   19.7032  -27.1947  -16.1307 C   0  0  0  0  0  0  0  0  0  0  0  0
   20.7583  -26.3071  -16.7247 C   0  0  0  0  0  0  0  0  0  0  0  0
   21.9359  -26.0726  -15.8446 C   0  0  2  0  0  0  0  0  0  0  0  0
   22.2574  -27.2713  -15.0646 N   0  0  0  0  0  0  0  0  0  0  0  0
   21.7581  -24.9105  -14.9027 C   0  0  0  0  0  0  0  0  0  0  0  0
   21.3428  -25.1051  -13.7131 O   0  0  0  0  0  0  0  0  0  0  0  0
   26.4478  -20.8306  -12.1047 N   0  0  0  0  0  0  0  0  0  0  0  0
   26.6547  -21.0709  -13.5179 C   0  0  0  0  0  0  0  0  0  0  0  0
   27.6399  -21.8108  -13.8873 N   0  0  0  0  0  0  0  0  0  0  0  0
   25.7613  -20.4801  -14.4414 N   0  0  0  0  0  0  0  0  0  0  0  0
   24.6504  -19.6508  -13.8845 C   0  0  0  0  0  0  0  0  0  0  0  0
   23.4871  -20.5390  -13.6652 C   0  0  0  0  0  0  0  0  0  0  0  0
   23.1158  -21.6088  -14.5663 C   0  0  0  0  0  0  0  0  0  0  0  0
   21.9203  -22.4312  -14.3759 C   0  0  2  0  0  0  0  0  0  0  0  0
   22.0498  -23.6038  -15.3276 N   0  0  0  0  0  0  0  0  0  0  0  0
   20.6490  -21.8173  -14.7830 C   0  0  0  0  0  0  0  0  0  0  0  0
   20.3883  -21.5932  -15.9689 O   0  0  0  0  0  0  0  0  0  0  0  0
   27.7907  -22.0218  -14.8827 C   0  0  0  0  0  0  0  0  0  0  0  0
   17.3222  -20.9755  -13.2676 C   0  0  1  0  0  0  0  0  0  0  0  0
   18.4187  -20.8685  -14.3250 N   0  0  0  0  0  0  0  0  0  0  0  0
   19.6485  -21.4465  -13.8401 C   0  0  0  0  0  0  0  0  0  0  0  0
   18.6437  -19.4421  -14.6893 O   0  0  0  0  0  0  0  0  0  0  0  0
   17.7363  -18.7912  -15.4812 O   0  0  0  0  0  0  0  0  0  0  0  0
  1  2  1  0
  2  3  2  0
  4  2  1  0
  4  5  1  0
  6  5  1  0
  6  7  1  1
  8  6  1  0
  9  8  2  0
 10 11  1  0
 11 13  1  0
 12 11  2  0
 13 14  1  0
 14 15  1  0
 17 16  1  6
 16 15  1  0
 17 18  1  0
 18  8  1  0
 19 23  1  0
 19 17  1  0
 20 19  2  0
 22 21  1  6
 22 24  1  0
 22 23  1  0
 24 25  1  0
 26 24  2  0
M  END
$$$$
