QRA.pdb
     RDKit          3D

 26 25  0  0  1  0  0  0  0  0999 V2000
   28.1334  -11.7707  -15.3012 N   0  0  0  0  0  0  0  0  0  0  0  0
   28.0221  -12.0558  -16.6775 C   0  0  0  0  0  0  0  0  0  0  0  0
   29.0047  -12.5407  -17.2813 O   0  0  0  0  0  0  0  0  0  0  0  0
   26.7445  -11.7647  -17.3382 C   0  0  0  0  0  0  0  0  0  0  0  0
   25.7069  -11.1336  -16.4556 C   0  0  0  0  0  0  0  0  0  0  0  0
   24.3347  -11.6865  -16.6220 C   0  0  2  0  0  0  0  0  0  0  0  0
   24.2863  -12.6523  -17.7236 N   0  0  0  0  0  0  0  0  0  0  0  0
   23.2866  -10.6297  -16.8530 C   0  0  0  0  0  0  0  0  0  0  0  0
   23.0011  -10.2556  -18.0380 O   0  0  0  0  0  0  0  0  0  0  0  0
   15.2678  -10.1702  -15.6833 N   0  0  0  0  0  0  0  0  0  0  0  0
   15.5113   -8.7488  -15.5484 C   0  0  0  0  0  0  0  0  0  0  0  0
   14.6063   -7.9212  -15.9365 N   0  0  0  0  0  0  0  0  0  0  0  0
   16.7403   -8.3239  -14.9926 N   0  0  0  0  0  0  0  0  0  0  0  0
   17.8054   -9.3565  -14.8162 C   0  0  0  0  0  0  0  0  0  0  0  0
   19.0572   -8.8207  -15.3961 C   0  0  0  0  0  0  0  0  0  0  0  0
   20.3133   -9.5394  -15.3914 C   0  0  0  0  0  0  0  0  0  0  0  0
   21.5393   -9.0038  -15.9845 C   0  0  2  0  0  0  0  0  0  0  0  0
   22.6148  -10.0489  -15.7646 N   0  0  0  0  0  0  0  0  0  0  0  0
   22.1001   -7.8135  -15.3307 C   0  0  0  0  0  0  0  0  0  0  0  0
   22.7142   -7.8902  -14.2622 O   0  0  0  0  0  0  0  0  0  0  0  0
   14.7913   -6.9094  -15.9425 C   0  0  0  0  0  0  0  0  0  0  0  0
   22.9867   -4.3067  -16.1619 C   0  0  1  0  0  0  0  0  0  0  0  0
   22.5510   -5.3931  -15.1812 N   0  0  0  0  0  0  0  0  0  0  0  0
   21.9696   -6.5092  -15.8867 C   0  0  0  0  0  0  0  0  0  0  0  0
   21.5640   -4.8433  -14.2108 O   0  0  0  0  0  0  0  0  0  0  0  0
   20.2478   -5.2092  -14.2987 O   0  0  0  0  0  0  0  0  0  0  0  0
  1  2  1  0
  2  3  2  0
  4  2  1  0
  4  5  1  0
  6  5  1  0
  6  7  1  6
  8  6  1  0
  9  8  2  0
 10 11  1  0
 11 13  1  0
 12 11  2  0
 13 14  1  0
 14 15  1  0
 17 16  1  1
 16 15  1  0
 17 18  1  0
 18  8  1  0
 19 23  1  0
 19 17  1  0
 20 19  2  0
 22 21  1  6
 22 24  1  0
 22 23  1  0
 24 25  1  0
 26 24  2  0
M  END
$$$$
