QRA.pdb
     RDKit          3D

 26 25  0  0  1  0  0  0  0  0999 V2000
   30.5513  -20.6535  -10.8450 N   0  0  0  0  0  0  0  0  0  0  0  0
   29.7604  -21.8103  -10.6892 C   0  0  0  0  0  0  0  0  0  0  0  0
   30.3213  -22.9091  -10.4813 O   0  0  0  0  0  0  0  0  0  0  0  0
   28.3031  -21.6636  -10.7811 C   0  0  0  0  0  0  0  0  0  0  0  0
   27.8228  -20.2582  -11.0000 C   0  0  0  0  0  0  0  0  0  0  0  0
   26.3564  -20.0717  -10.8236 C   0  0  2  0  0  0  0  0  0  0  0  0
   25.8914  -20.6983   -9.5828 N   0  0  0  0  0  0  0  0  0  0  0  0
   25.5419  -20.6034  -11.9739 C   0  0  0  0  0  0  0  0  0  0  0  0
   26.1206  -21.0962  -12.9976 O   0  0  0  0  0  0  0  0  0  0  0  0
   17.4679  -23.4115  -11.2811 N   0  0  0  0  0  0  0  0  0  0  0  0
   18.7504  -24.0262  -11.0068 C   0  0  0  0  0  0  0  0  0  0  0  0
   18.8156  -24.9726  -10.1382 N   0  0  0  0  0  0  0  0  0  0  0  0
   19.8865  -23.5599  -11.7081 N   0  0  0  0  0  0  0  0  0  0  0  0
   19.6653  -22.5148  -12.7523 C   0  0  0  0  0  0  0  0  0  0  0  0
   20.9862  -22.1345  -13.3007 C   0  0  0  0  0  0  0  0  0  0  0  0
   22.0413  -21.5409  -12.5078 C   0  0  0  0  0  0  0  0  0  0  0  0
   23.3075  -21.0836  -13.0818 C   0  0  2  0  0  0  0  0  0  0  0  0
   24.1386  -20.5613  -11.9269 N   0  0  0  0  0  0  0  0  0  0  0  0
   23.2225  -19.9214  -13.9766 C   0  0  0  0  0  0  0  0  0  0  0  0
   22.9727  -18.7907  -13.5480 O   0  0  0  0  0  0  0  0  0  0  0  0
   19.7121  -25.4338   -9.9340 C   0  0  0  0  0  0  0  0  0  0  0  0
   24.2318  -18.9569  -17.4208 C   0  0  1  0  0  0  0  0  0  0  0  0
   23.3385  -18.8353  -16.1883 N   0  0  0  0  0  0  0  0  0  0  0  0
   23.4216  -20.0292  -15.3824 C   0  0  0  0  0  0  0  0  0  0  0  0
   21.9257  -18.6038  -16.5986 O   0  0  0  0  0  0  0  0  0  0  0  0
   21.5138  -17.3429  -16.9369 O   0  0  0  0  0  0  0  0  0  0  0  0
  1  2  1  0
  2  3  2  0
  4  2  1  0
  4  5  1  0
  6  5  1  0
  6  7  1  1
  8  6  1  0
  9  8  2  0
 10 11  1  0
 11 13  1  0
 12 11  2  0
 13 14  1  0
 14 15  1  0
 17 16  1  1
 16 15  1  0
 17 18  1  0
 18  8  1  0
 19 23  1  0
 19 17  1  0
 20 19  2  0
 22 21  1  1
 22 24  1  0
 22 23  1  0
 24 25  1  0
 26 24  2  0
M  END
$$$$
