QRA.pdb
     RDKit          3D

 26 25  0  0  1  0  0  0  0  0999 V2000
   29.2158  -21.8339  -20.0269 N   0  0  0  0  0  0  0  0  0  0  0  0
   29.5672  -20.5080  -19.7006 C   0  0  0  0  0  0  0  0  0  0  0  0
   30.4807  -19.9436  -20.3426 O   0  0  0  0  0  0  0  0  0  0  0  0
   28.8351  -19.8516  -18.6112 C   0  0  0  0  0  0  0  0  0  0  0  0
   27.7338  -20.6730  -18.0061 C   0  0  0  0  0  0  0  0  0  0  0  0
   28.1505  -21.5056  -16.8445 C   0  0  2  0  0  0  0  0  0  0  0  0
   28.8069  -22.7385  -17.2889 N   0  0  0  0  0  0  0  0  0  0  0  0
   27.0127  -21.8628  -15.9242 C   0  0  0  0  0  0  0  0  0  0  0  0
   26.1821  -22.7729  -16.2523 O   0  0  0  0  0  0  0  0  0  0  0  0
   23.0179  -20.1483   -9.9552 N   0  0  0  0  0  0  0  0  0  0  0  0
   23.4916  -21.0102   -8.8919 C   0  0  0  0  0  0  0  0  0  0  0  0
   22.6596  -21.4115   -7.9967 N   0  0  0  0  0  0  0  0  0  0  0  0
   24.8568  -21.3789   -8.8789 N   0  0  0  0  0  0  0  0  0  0  0  0
   25.7478  -20.7414   -9.8946 C   0  0  0  0  0  0  0  0  0  0  0  0
   25.3588  -21.2566  -11.2264 C   0  0  0  0  0  0  0  0  0  0  0  0
   26.1714  -21.1003  -12.4137 C   0  0  0  0  0  0  0  0  0  0  0  0
   25.7642  -21.5977  -13.7284 C   0  0  2  0  0  0  0  0  0  0  0  0
   26.8588  -21.1967  -14.6971 N   0  0  0  0  0  0  0  0  0  0  0  0
   24.5680  -20.9715  -14.3078 C   0  0  0  0  0  0  0  0  0  0  0  0
   24.5646  -19.7901  -14.6668 O   0  0  0  0  0  0  0  0  0  0  0  0
   22.9789  -21.9895   -7.2080 C   0  0  0  0  0  0  0  0  0  0  0  0
   21.7931  -21.6746  -16.3699 C   0  0  1  0  0  0  0  0  0  0  0  0
   22.2223  -20.9973  -15.0703 N   0  0  0  0  0  0  0  0  0  0  0  0
   23.3491  -21.6852  -14.4884 C   0  0  0  0  0  0  0  0  0  0  0  0
   21.0906  -20.9792  -14.1023 O   0  0  0  0  0  0  0  0  0  0  0  0
   19.9592  -20.2652  -14.3922 O   0  0  0  0  0  0  0  0  0  0  0  0
  1  2  1  0
  2  3  2  0
  4  2  1  0
  4  5  1  0
  6  5  1  0
  6  7  1  6
  8  6  1  0
  9  8  2  0
 10 11  1  0
 11 13  1  0
 12 11  2  0
 13 14  1  0
 14 15  1  0
 17 16  1  1
 16 15  1  0
 17 18  1  0
 18  8  1  0
 19 23  1  0
 19 17  1  0
 20 19  2  0
 22 21  1  6
 22 24  1  0
 22 23  1  0
 24 25  1  0
 26 24  2  0
M  END
$$$$
