QRA.pdb
     RDKit          3D

 26 25  0  0  1  0  0  0  0  0999 V2000
   10.7363  -19.5404   -7.2679 N   0  0  0  0  0  0  0  0  0  0  0  0
   11.8784  -18.7136   -7.2644 C   0  0  0  0  0  0  0  0  0  0  0  0
   12.0289  -17.8776   -8.1829 O   0  0  0  0  0  0  0  0  0  0  0  0
   12.8432  -18.8794   -6.1710 C   0  0  0  0  0  0  0  0  0  0  0  0
   12.4737  -19.9220   -5.1560 C   0  0  0  0  0  0  0  0  0  0  0  0
   13.0291  -21.2757   -5.4302 C   0  0  2  0  0  0  0  0  0  0  0  0
   12.3633  -21.8950   -6.5799 N   0  0  0  0  0  0  0  0  0  0  0  0
   12.9390  -22.2104   -4.2524 C   0  0  0  0  0  0  0  0  0  0  0  0
   11.8534  -22.8324   -4.0069 O   0  0  0  0  0  0  0  0  0  0  0  0
   18.4958  -28.1428   -2.0922 N   0  0  0  0  0  0  0  0  0  0  0  0
   17.1318  -28.3548   -2.5308 C   0  0  0  0  0  0  0  0  0  0  0  0
   16.8309  -29.4565   -3.1228 N   0  0  0  0  0  0  0  0  0  0  0  0
   16.1791  -27.3378   -2.2901 N   0  0  0  0  0  0  0  0  0  0  0  0
   16.6261  -26.1556   -1.4936 C   0  0  0  0  0  0  0  0  0  0  0  0
   15.4757  -25.2334   -1.3657 C   0  0  0  0  0  0  0  0  0  0  0  0
   15.0703  -24.3106   -2.4041 C   0  0  0  0  0  0  0  0  0  0  0  0
   13.9775  -23.3518   -2.2351 C   0  0  2  0  0  0  0  0  0  0  0  0
   14.0509  -22.4047   -3.4161 N   0  0  0  0  0  0  0  0  0  0  0  0
   14.0910  -22.4480   -1.0823 C   0  0  0  0  0  0  0  0  0  0  0  0
   14.8088  -21.4439   -1.1147 O   0  0  0  0  0  0  0  0  0  0  0  0
   15.8731  -29.6252   -3.4578 C   0  0  0  0  0  0  0  0  0  0  0  0
   12.4005  -21.8749    2.2194 C   0  0  1  0  0  0  0  0  0  0  0  0
   13.5388  -21.7294    1.2118 N   0  0  0  0  0  0  0  0  0  0  0  0
   13.3846  -22.6749    0.1330 C   0  0  0  0  0  0  0  0  0  0  0  0
   14.8504  -21.9440    1.8838 O   0  0  0  0  0  0  0  0  0  0  0  0
   15.2790  -21.0593    2.8366 O   0  0  0  0  0  0  0  0  0  0  0  0
  1  2  1  0
  2  3  2  0
  4  2  1  0
  4  5  1  0
  6  5  1  0
  6  7  1  6
  8  6  1  0
  9  8  2  0
 10 11  1  0
 11 13  1  0
 12 11  2  0
 13 14  1  0
 14 15  1  0
 17 16  1  6
 16 15  1  0
 17 18  1  0
 18  8  1  0
 19 23  1  0
 19 17  1  0
 20 19  2  0
 22 21  1  6
 22 24  1  0
 22 23  1  0
 24 25  1  0
 26 24  2  0
M  END
$$$$
