QRA.pdb
     RDKit          3D

 26 25  0  0  1  0  0  0  0  0999 V2000
   19.0276  -11.8202  -21.2252 N   0  0  0  0  0  0  0  0  0  0  0  0
   18.4876  -12.7752  -20.3397 C   0  0  0  0  0  0  0  0  0  0  0  0
   17.2449  -12.8755  -20.2348 O   0  0  0  0  0  0  0  0  0  0  0  0
   19.4223  -13.6112  -19.5774 C   0  0  0  0  0  0  0  0  0  0  0  0
   20.8737  -13.2979  -19.7985 C   0  0  0  0  0  0  0  0  0  0  0  0
   21.8153  -14.1501  -19.0217 C   0  0  2  0  0  0  0  0  0  0  0  0
   21.0960  -15.1951  -18.2874 N   0  0  0  0  0  0  0  0  0  0  0  0
   22.6683  -13.3725  -18.0538 C   0  0  0  0  0  0  0  0  0  0  0  0
   22.4089  -13.3964  -16.8057 O   0  0  0  0  0  0  0  0  0  0  0  0
   31.2196  -11.1607  -18.4787 N   0  0  0  0  0  0  0  0  0  0  0  0
   30.6747  -10.2056  -17.5359 C   0  0  0  0  0  0  0  0  0  0  0  0
   31.4519   -9.3126  -17.0329 N   0  0  0  0  0  0  0  0  0  0  0  0
   29.3029  -10.2921  -17.2035 N   0  0  0  0  0  0  0  0  0  0  0  0
   28.4926  -11.3325  -17.9056 C   0  0  0  0  0  0  0  0  0  0  0  0
   27.0879  -11.1892  -17.4622 C   0  0  0  0  0  0  0  0  0  0  0  0
   25.9950  -11.9702  -18.0007 C   0  0  0  0  0  0  0  0  0  0  0  0
   24.6090  -11.8108  -17.5585 C   0  0  2  0  0  0  0  0  0  0  0  0
   23.7567  -12.6160  -18.5190 N   0  0  0  0  0  0  0  0  0  0  0  0
   24.0498  -10.4576  -17.6792 C   0  0  0  0  0  0  0  0  0  0  0  0
   23.8463   -9.9365  -18.7801 O   0  0  0  0  0  0  0  0  0  0  0  0
   31.0913   -8.6271  -16.3561 C   0  0  0  0  0  0  0  0  0  0  0  0
   22.2045   -7.9813  -15.6279 C   0  0  1  0  0  0  0  0  0  0  0  0
   23.1767   -8.3473  -16.7472 N   0  0  0  0  0  0  0  0  0  0  0  0
   23.7114   -9.6714  -16.5413 C   0  0  0  0  0  0  0  0  0  0  0  0
   24.2899   -7.3595  -16.8042 O   0  0  0  0  0  0  0  0  0  0  0  0
   24.0329   -6.0659  -17.1710 O   0  0  0  0  0  0  0  0  0  0  0  0
  1  2  1  0
  2  3  2  0
  4  2  1  0
  4  5  1  0
  6  5  1  0
  6  7  1  1
  8  6  1  0
  9  8  2  0
 10 11  1  0
 11 13  1  0
 12 11  2  0
 13 14  1  0
 14 15  1  0
 17 16  1  6
 16 15  1  0
 17 18  1  0
 18  8  1  0
 19 23  1  0
 19 17  1  0
 20 19  2  0
 22 21  1  6
 22 24  1  0
 22 23  1  0
 24 25  1  0
 26 24  2  0
M  END
$$$$
