QRA.pdb
     RDKit          3D

 26 25  0  0  1  0  0  0  0  0999 V2000
   19.2983  -21.4424  -16.8224 N   0  0  0  0  0  0  0  0  0  0  0  0
   18.6924  -22.5229  -16.1492 C   0  0  0  0  0  0  0  0  0  0  0  0
   18.4832  -23.5885  -16.7705 O   0  0  0  0  0  0  0  0  0  0  0  0
   18.3334  -22.3389  -14.7382 C   0  0  0  0  0  0  0  0  0  0  0  0
   18.6834  -20.9950  -14.1680 C   0  0  0  0  0  0  0  0  0  0  0  0
   20.1213  -20.8260  -13.8216 C   0  0  2  0  0  0  0  0  0  0  0  0
   20.3363  -20.9732  -12.3792 N   0  0  0  0  0  0  0  0  0  0  0  0
   20.6944  -19.5065  -14.2684 C   0  0  0  0  0  0  0  0  0  0  0  0
   20.4116  -18.4359  -13.6363 O   0  0  0  0  0  0  0  0  0  0  0  0
   28.3503  -19.9488  -14.4643 N   0  0  0  0  0  0  0  0  0  0  0  0
   27.3562  -20.7414  -13.7707 C   0  0  0  0  0  0  0  0  0  0  0  0
   27.7458  -21.6492  -12.9469 N   0  0  0  0  0  0  0  0  0  0  0  0
   25.9892  -20.4853  -14.0270 N   0  0  0  0  0  0  0  0  0  0  0  0
   25.6639  -19.3247  -14.9096 C   0  0  0  0  0  0  0  0  0  0  0  0
   24.1908  -19.1897  -14.9571 C   0  0  0  0  0  0  0  0  0  0  0  0
   23.5075  -18.1106  -15.6374 C   0  0  0  0  0  0  0  0  0  0  0  0
   22.0662  -18.1157  -15.8915 C   0  0  2  0  0  0  0  0  0  0  0  0
   21.5455  -19.4457  -15.3842 N   0  0  0  0  0  0  0  0  0  0  0  0
   21.6650  -18.1240  -17.3048 C   0  0  0  0  0  0  0  0  0  0  0  0
   21.8567  -19.1071  -18.0269 O   0  0  0  0  0  0  0  0  0  0  0  0
   27.0605  -22.2419  -12.4598 C   0  0  0  0  0  0  0  0  0  0  0  0
   19.8741  -15.8760  -19.7487 C   0  0  1  0  0  0  0  0  0  0  0  0
   20.7173  -17.0775  -19.3276 N   0  0  0  0  0  0  0  0  0  0  0  0
   21.0353  -17.0059  -17.9221 C   0  0  0  0  0  0  0  0  0  0  0  0
   21.9744  -17.1278  -20.1247 O   0  0  0  0  0  0  0  0  0  0  0  0
   23.1632  -16.7787  -19.5424 O   0  0  0  0  0  0  0  0  0  0  0  0
  1  2  1  0
  2  3  2  0
  4  2  1  0
  4  5  1  0
  6  5  1  0
  6  7  1  1
  8  6  1  0
  9  8  2  0
 10 11  1  0
 11 13  1  0
 12 11  2  0
 13 14  1  0
 14 15  1  0
 17 16  1  6
 16 15  1  0
 17 18  1  0
 18  8  1  0
 19 23  1  0
 19 17  1  0
 20 19  2  0
 22 21  1  1
 22 24  1  0
 22 23  1  0
 24 25  1  0
 26 24  2  0
M  END
$$$$
