QRA.pdb
     RDKit          3D

 26 25  0  0  1  0  0  0  0  0999 V2000
   28.2276  -22.5269  -17.4044 N   0  0  0  0  0  0  0  0  0  0  0  0
   28.6934  -22.4028  -16.0794 C   0  0  0  0  0  0  0  0  0  0  0  0
   29.4962  -23.2523  -15.6332 O   0  0  0  0  0  0  0  0  0  0  0  0
   28.2059  -21.2708  -15.2829 C   0  0  0  0  0  0  0  0  0  0  0  0
   27.3967  -20.2633  -16.0473 C   0  0  0  0  0  0  0  0  0  0  0  0
   27.2805  -18.9344  -15.3865 C   0  0  2  0  0  0  0  0  0  0  0  0
   26.9408  -19.0795  -13.9680 N   0  0  0  0  0  0  0  0  0  0  0  0
   26.2715  -18.0265  -16.0396 C   0  0  0  0  0  0  0  0  0  0  0  0
   26.4002  -17.6986  -17.2650 O   0  0  0  0  0  0  0  0  0  0  0  0
   18.2989  -19.3618  -14.0048 N   0  0  0  0  0  0  0  0  0  0  0  0
   19.0711  -20.2371  -14.8624 C   0  0  0  0  0  0  0  0  0  0  0  0
   18.5884  -21.3870  -15.1771 N   0  0  0  0  0  0  0  0  0  0  0  0
   20.3318  -19.7913  -15.3228 N   0  0  0  0  0  0  0  0  0  0  0  0
   20.7754  -18.4308  -14.8938 C   0  0  0  0  0  0  0  0  0  0  0  0
   22.0890  -18.1632  -15.5208 C   0  0  0  0  0  0  0  0  0  0  0  0
   22.8631  -16.9650  -15.2770 C   0  0  0  0  0  0  0  0  0  0  0  0
   24.1216  -16.6762  -15.9660 C   0  0  2  0  0  0  0  0  0  0  0  0
   25.1805  -17.5350  -15.3038 N   0  0  0  0  0  0  0  0  0  0  0  0
   24.6483  -15.3155  -15.7941 C   0  0  0  0  0  0  0  0  0  0  0  0
   24.9159  -14.8607  -14.6778 O   0  0  0  0  0  0  0  0  0  0  0  0
   19.1465  -22.0565  -15.7234 C   0  0  0  0  0  0  0  0  0  0  0  0
   26.5723  -12.7519  -17.3747 C   0  0  2  0  0  0  0  0  0  0  0  0
   25.2779  -13.0840  -16.6357 N   0  0  0  0  0  0  0  0  0  0  0  0
   24.8799  -14.4458  -16.8975 C   0  0  0  0  0  0  0  0  0  0  0  0
   24.1932  -12.1542  -17.0562 O   0  0  0  0  0  0  0  0  0  0  0  0
   24.2418  -10.8386  -16.6809 O   0  0  0  0  0  0  0  0  0  0  0  0
  1  2  1  0
  2  3  2  0
  4  2  1  0
  4  5  1  0
  6  5  1  0
  6  7  1  1
  8  6  1  0
  9  8  2  0
 10 11  1  0
 11 13  1  0
 12 11  2  0
 13 14  1  0
 14 15  1  0
 17 16  1  1
 16 15  1  0
 17 18  1  0
 18  8  1  0
 19 23  1  0
 19 17  1  0
 20 19  2  0
 22 21  1  1
 22 24  1  0
 22 23  1  0
 24 25  1  0
 26 24  2  0
M  END
$$$$
