QRA.pdb
     RDKit          3D

 26 25  0  0  1  0  0  0  0  0999 V2000
   25.8547  -25.8960  -15.6859 N   0  0  0  0  0  0  0  0  0  0  0  0
   26.1841  -25.0545  -16.7681 C   0  0  0  0  0  0  0  0  0  0  0  0
   26.6742  -25.5566  -17.8039 O   0  0  0  0  0  0  0  0  0  0  0  0
   25.9328  -23.6161  -16.6211 C   0  0  0  0  0  0  0  0  0  0  0  0
   25.3167  -23.2136  -15.3126 C   0  0  0  0  0  0  0  0  0  0  0  0
   24.0922  -22.3761  -15.4377 C   0  0  2  0  0  0  0  0  0  0  0  0
   24.4298  -21.0057  -15.8336 N   0  0  0  0  0  0  0  0  0  0  0  0
   23.2658  -22.3310  -14.1792 C   0  0  0  0  0  0  0  0  0  0  0  0
   22.8553  -23.4114  -13.6407 O   0  0  0  0  0  0  0  0  0  0  0  0
   26.4830  -21.7854  -12.5099 N   0  0  0  0  0  0  0  0  0  0  0  0
   26.8838  -21.1267  -11.2838 C   0  0  0  0  0  0  0  0  0  0  0  0
   28.0783  -20.6592  -11.1884 N   0  0  0  0  0  0  0  0  0  0  0  0
   25.9420  -21.0225  -10.2340 N   0  0  0  0  0  0  0  0  0  0  0  0
   24.5175  -21.3340  -10.5589 C   0  0  0  0  0  0  0  0  0  0  0  0
   23.8504  -20.0675  -10.9349 C   0  0  0  0  0  0  0  0  0  0  0  0
   22.5243  -20.0015  -11.5105 C   0  0  0  0  0  0  0  0  0  0  0  0
   21.9939  -21.0286  -12.4081 C   0  0  2  0  0  0  0  0  0  0  0  0
   22.9419  -21.0983  -13.5886 N   0  0  0  0  0  0  0  0  0  0  0  0
   20.7039  -20.7220  -13.0411 C   0  0  0  0  0  0  0  0  0  0  0  0
   20.6352  -20.0800  -14.0936 O   0  0  0  0  0  0  0  0  0  0  0  0
   28.3980  -20.2155  -10.3172 C   0  0  0  0  0  0  0  0  0  0  0  0
   18.4660  -19.6870  -14.1678 C   0  0  1  0  0  0  0  0  0  0  0  0
   18.2445  -20.8382  -13.1892 N   0  0  0  0  0  0  0  0  0  0  0  0
   19.4643  -21.1441  -12.4820 C   0  0  0  0  0  0  0  0  0  0  0  0
   17.7698  -22.0475  -13.9175 O   0  0  0  0  0  0  0  0  0  0  0  0
   16.4932  -22.0869  -14.4103 O   0  0  0  0  0  0  0  0  0  0  0  0
  1  2  1  0
  2  3  2  0
  4  2  1  0
  4  5  1  0
  6  5  1  0
  6  7  1  1
  8  6  1  0
  9  8  2  0
 10 11  1  0
 11 13  1  0
 12 11  2  0
 13 14  1  0
 14 15  1  0
 17 16  1  1
 16 15  1  0
 17 18  1  0
 18  8  1  0
 19 23  1  0
 19 17  1  0
 20 19  2  0
 22 21  1  1
 22 24  1  0
 22 23  1  0
 24 25  1  0
 26 24  2  0
M  END
$$$$
