FIK.pdb
     RDKit          3D

 29 29  0  0  1  0  0  0  0  0999 V2000
   19.8287  -20.1316  -13.1953 N   0  0  0  0  0  0  0  0  0  0  0  0
   20.8407  -21.1390  -13.1727 C   0  0  1  0  0  0  0  0  0  0  0  0
   20.8431  -21.8957  -14.5070 C   0  0  0  0  0  0  0  0  0  0  0  0
   19.5697  -22.6396  -14.6778 C   0  0  0  0  0  0  0  0  0  0  0  0
   19.3145  -23.7750  -13.9476 C   0  0  0  0  0  0  0  0  0  0  0  0
   18.1429  -24.4735  -14.0938 C   0  0  0  0  0  0  0  0  0  0  0  0
   17.1824  -24.0511  -14.9849 C   0  0  0  0  0  0  0  0  0  0  0  0
   17.4329  -22.9114  -15.7212 C   0  0  0  0  0  0  0  0  0  0  0  0
   18.6050  -22.2193  -15.5697 C   0  0  0  0  0  0  0  0  0  0  0  0
   22.2054  -20.5893  -12.9652 C   0  0  0  0  0  0  0  0  0  0  0  0
   22.5795  -19.5686  -13.5670 O   0  0  0  0  0  0  0  0  0  0  0  0
   26.7979  -20.1630   -8.8875 C   0  0  0  0  0  0  0  0  0  0  0  0
   26.4183  -20.2936  -10.3233 C   0  0  0  0  0  0  0  0  0  0  0  0
   25.0660  -20.9910  -10.5063 C   0  0  2  0  0  0  0  0  0  0  0  0
   25.0899  -22.4215  -10.1006 C   0  0  0  0  0  0  0  0  0  0  0  0
   24.4635  -20.7071  -11.8321 C   0  0  2  0  0  0  0  0  0  0  0  0
   23.1554  -21.1573  -12.1013 N   0  0  0  0  0  0  0  0  0  0  0  0
   25.4100  -21.2187  -12.8747 C   0  0  0  0  0  0  0  0  0  0  0  0
   25.4001  -22.4458  -13.1380 O   0  0  0  0  0  0  0  0  0  0  0  0
   26.3004  -20.3845  -13.5629 N   0  0  0  0  0  0  0  0  0  0  0  0
   27.1553  -20.9610  -14.6778 C   0  0  1  0  0  0  0  0  0  0  0  0
   26.3946  -20.7760  -15.9167 C   0  0  0  0  0  0  0  0  0  0  0  0
   26.9273  -21.2417  -17.1773 C   0  0  0  0  0  0  0  0  0  0  0  0
   26.8279  -20.5212  -18.4526 C   0  0  0  0  0  0  0  0  0  0  0  0
   27.4099  -21.2173  -19.6577 C   0  0  0  0  0  0  0  0  0  0  0  0
   27.2393  -20.5483  -20.9035 N   0  0  0  0  0  0  0  0  0  0  0  0
   28.4051  -20.2048  -14.5241 C   0  0  0  0  0  0  0  0  0  0  0  0
   28.3808  -19.0023  -14.0820 O   0  0  0  0  0  0  0  0  0  0  0  0
   29.6362  -20.7410  -14.8339 O   0  0  0  0  0  0  0  0  0  0  0  0
  2  1  1  6
  2  3  1  0
  4  9  2  0
  4  3  1  0
  5  4  1  0
  6  7  1  0
  6  5  2  0
  7  8  2  0
  8  9  1  0
 10  2  1  0
 11 10  2  0
 13 12  1  0
 13 14  1  0
 14 15  1  6
 16 14  1  0
 16 17  1  1
 17 10  1  0
 18 16  1  0
 19 18  2  0
 20 18  1  0
 21 22  1  6
 21 20  1  0
 23 22  1  0
 24 25  1  0
 24 23  1  0
 25 26  1  0
 27 21  1  0
 27 29  1  0
 28 27  2  0
M  END
$$$$
