FIK.pdb
     RDKit          3D

 29 29  0  0  1  0  0  0  0  0999 V2000
   25.7330  -13.7249  -19.5942 N   0  0  0  0  0  0  0  0  0  0  0  0
   25.1056  -13.0772  -18.4868 C   0  0  1  0  0  0  0  0  0  0  0  0
   26.0421  -12.0013  -17.9223 C   0  0  0  0  0  0  0  0  0  0  0  0
   27.2832  -12.6247  -17.3977 C   0  0  0  0  0  0  0  0  0  0  0  0
   28.4879  -12.4347  -18.0303 C   0  0  0  0  0  0  0  0  0  0  0  0
   29.6434  -13.0038  -17.5582 C   0  0  0  0  0  0  0  0  0  0  0  0
   29.6263  -13.7881  -16.4270 C   0  0  0  0  0  0  0  0  0  0  0  0
   28.4194  -13.9827  -15.7873 C   0  0  0  0  0  0  0  0  0  0  0  0
   27.2698  -13.4112  -16.2646 C   0  0  0  0  0  0  0  0  0  0  0  0
   23.8258  -12.4144  -18.8481 C   0  0  0  0  0  0  0  0  0  0  0  0
   23.5913  -12.0778  -20.0210 O   0  0  0  0  0  0  0  0  0  0  0  0
   19.0766  -14.3674  -17.3031 C   0  0  0  0  0  0  0  0  0  0  0  0
   20.1648  -13.6657  -18.0420 C   0  0  0  0  0  0  0  0  0  0  0  0
   20.3391  -12.2146  -17.5809 C   0  0  2  0  0  0  0  0  0  0  0  0
   19.0798  -11.4267  -17.6521 C   0  0  0  0  0  0  0  0  0  0  0  0
   21.5347  -11.5747  -18.1828 C   0  0  2  0  0  0  0  0  0  0  0  0
   22.8077  -12.1223  -17.9263 N   0  0  0  0  0  0  0  0  0  0  0  0
   21.5096  -10.1263  -17.8004 C   0  0  0  0  0  0  0  0  0  0  0  0
   21.9033   -9.8060  -16.6524 O   0  0  0  0  0  0  0  0  0  0  0  0
   21.0659   -9.1218  -18.6700 N   0  0  0  0  0  0  0  0  0  0  0  0
   21.0959   -7.6728  -18.2163 C   0  0  1  0  0  0  0  0  0  0  0  0
   21.1984   -6.8629  -19.4333 C   0  0  0  0  0  0  0  0  0  0  0  0
   21.1139   -5.4216  -19.3609 C   0  0  0  0  0  0  0  0  0  0  0  0
   21.1910   -4.5133  -20.5117 C   0  0  0  0  0  0  0  0  0  0  0  0
   20.9627   -3.0506  -20.2219 C   0  0  0  0  0  0  0  0  0  0  0  0
   20.8030   -2.2098  -21.3606 N   0  0  0  0  0  0  0  0  0  0  0  0
   19.8576   -7.5745  -17.4324 C   0  0  0  0  0  0  0  0  0  0  0  0
   18.8148   -8.2278  -17.7897 O   0  0  0  0  0  0  0  0  0  0  0  0
   19.7610   -6.7985  -16.2976 O   0  0  0  0  0  0  0  0  0  0  0  0
  2  1  1  6
  2  3  1  0
  4  9  2  0
  4  3  1  0
  5  4  1  0
  6  7  1  0
  6  5  2  0
  7  8  2  0
  8  9  1  0
 10  2  1  0
 11 10  2  0
 13 12  1  0
 13 14  1  0
 14 15  1  6
 16 14  1  0
 16 17  1  1
 17 10  1  0
 18 16  1  0
 19 18  2  0
 20 18  1  0
 21 22  1  6
 21 20  1  0
 23 22  1  0
 24 25  1  0
 24 23  1  0
 25 26  1  0
 27 21  1  0
 27 29  1  0
 28 27  2  0
M  END
$$$$
