FIK.pdb
     RDKit          3D

 29 29  0  0  1  0  0  0  0  0999 V2000
   28.3063  -21.1030   -8.9222 N   0  0  0  0  0  0  0  0  0  0  0  0
   26.9812  -20.5960   -8.7590 C   0  0  1  0  0  0  0  0  0  0  0  0
   27.0223  -19.3075   -7.9277 C   0  0  0  0  0  0  0  0  0  0  0  0
   27.6913  -19.5572   -6.6260 C   0  0  0  0  0  0  0  0  0  0  0  0
   27.0287  -20.1940   -5.6049 C   0  0  0  0  0  0  0  0  0  0  0  0
   27.6328  -20.4321   -4.3965 C   0  0  0  0  0  0  0  0  0  0  0  0
   28.9319  -20.0354   -4.1729 C   0  0  0  0  0  0  0  0  0  0  0  0
   29.6027  -19.3954   -5.1947 C   0  0  0  0  0  0  0  0  0  0  0  0
   28.9929  -19.1612   -6.3985 C   0  0  0  0  0  0  0  0  0  0  0  0
   26.3161  -20.2776  -10.0489 C   0  0  0  0  0  0  0  0  0  0  0  0
   26.5632  -19.2179  -10.6488 O   0  0  0  0  0  0  0  0  0  0  0  0
   27.0092  -22.9889  -14.3006 C   0  0  0  0  0  0  0  0  0  0  0  0
   26.6510  -22.0129  -13.2322 C   0  0  0  0  0  0  0  0  0  0  0  0
   25.1357  -21.8968  -13.0346 C   0  0  2  0  0  0  0  0  0  0  0  0
   24.3955  -21.7111  -14.3110 C   0  0  0  0  0  0  0  0  0  0  0  0
   24.7829  -20.9568  -11.9423 C   0  0  2  0  0  0  0  0  0  0  0  0
   25.3839  -21.1184  -10.6778 N   0  0  0  0  0  0  0  0  0  0  0  0
   23.2906  -20.9627  -11.8088 C   0  0  0  0  0  0  0  0  0  0  0  0
   22.7652  -21.7943  -11.0292 O   0  0  0  0  0  0  0  0  0  0  0  0
   22.4642  -20.0807  -12.5168 N   0  0  0  0  0  0  0  0  0  0  0  0
   20.9576  -20.1689  -12.3477 C   0  0  1  0  0  0  0  0  0  0  0  0
   20.4058  -18.9442  -12.9337 C   0  0  0  0  0  0  0  0  0  0  0  0
   20.4608  -18.7288  -14.3622 C   0  0  0  0  0  0  0  0  0  0  0  0
   19.9480  -17.5412  -15.0563 C   0  0  0  0  0  0  0  0  0  0  0  0
   20.0253  -17.5652  -16.5627 C   0  0  0  0  0  0  0  0  0  0  0  0
   19.5119  -16.4158  -17.2290 N   0  0  0  0  0  0  0  0  0  0  0  0
   20.6514  -21.4424  -13.0123 C   0  0  0  0  0  0  0  0  0  0  0  0
   21.4019  -21.8732  -13.9574 O   0  0  0  0  0  0  0  0  0  0  0  0
   19.5718  -22.2212  -12.6560 O   0  0  0  0  0  0  0  0  0  0  0  0
  2  1  1  6
  2  3  1  0
  4  9  2  0
  4  3  1  0
  5  4  1  0
  6  7  1  0
  6  5  2  0
  7  8  2  0
  8  9  1  0
 10  2  1  0
 11 10  2  0
 13 12  1  0
 13 14  1  0
 14 15  1  6
 16 14  1  0
 16 17  1  1
 17 10  1  0
 18 16  1  0
 19 18  2  0
 20 18  1  0
 21 22  1  6
 21 20  1  0
 23 22  1  0
 24 25  1  0
 24 23  1  0
 25 26  1  0
 27 21  1  0
 27 29  1  0
 28 27  2  0
M  END
$$$$
