FIK.pdb
     RDKit          3D

 29 29  0  0  1  0  0  0  0  0999 V2000
   28.4257  -20.7981  -14.8235 N   0  0  0  0  0  0  0  0  0  0  0  0
   27.4451  -19.9857  -14.1771 C   0  0  1  0  0  0  0  0  0  0  0  0
   26.6825  -19.1670  -15.2266 C   0  0  0  0  0  0  0  0  0  0  0  0
   27.5586  -18.1080  -15.7878 C   0  0  0  0  0  0  0  0  0  0  0  0
   28.2281  -18.3026  -16.9716 C   0  0  0  0  0  0  0  0  0  0  0  0
   29.0413  -17.3340  -17.5032 C   0  0  0  0  0  0  0  0  0  0  0  0
   29.2097  -16.1296  -16.8582 C   0  0  0  0  0  0  0  0  0  0  0  0
   28.5399  -15.9283  -15.6688 C   0  0  0  0  0  0  0  0  0  0  0  0
   27.7297  -16.9000  -15.1443 C   0  0  0  0  0  0  0  0  0  0  0  0
   26.4468  -20.7757  -13.4111 C   0  0  0  0  0  0  0  0  0  0  0  0
   26.1309  -21.9227  -13.7698 O   0  0  0  0  0  0  0  0  0  0  0  0
   26.2783  -20.2096   -7.9613 C   0  0  0  0  0  0  0  0  0  0  0  0
   26.2374  -20.8225   -9.3198 C   0  0  0  0  0  0  0  0  0  0  0  0
   24.8594  -20.6890   -9.9769 C   0  0  2  0  0  0  0  0  0  0  0  0
   23.7778  -21.3499   -9.1991 C   0  0  0  0  0  0  0  0  0  0  0  0
   24.8962  -21.0045  -11.4262 C   0  0  2  0  0  0  0  0  0  0  0  0
   25.7981  -20.3093  -12.2565 N   0  0  0  0  0  0  0  0  0  0  0  0
   23.4999  -20.8667  -11.9516 C   0  0  0  0  0  0  0  0  0  0  0  0
   23.1069  -19.7293  -12.3082 O   0  0  0  0  0  0  0  0  0  0  0  0
   22.6215  -21.9525  -12.0595 N   0  0  0  0  0  0  0  0  0  0  0  0
   21.2154  -21.7273  -12.5870 C   0  0  1  0  0  0  0  0  0  0  0  0
   20.7108  -23.0436  -12.9873 C   0  0  0  0  0  0  0  0  0  0  0  0
   19.3348  -23.2036  -13.4010 C   0  0  0  0  0  0  0  0  0  0  0  0
   18.6963  -24.4841  -13.7293 C   0  0  0  0  0  0  0  0  0  0  0  0
   17.2357  -24.4237  -14.1016 C   0  0  0  0  0  0  0  0  0  0  0  0
   16.6460  -25.6564  -14.5034 N   0  0  0  0  0  0  0  0  0  0  0  0
   20.5665  -21.0642  -11.4483 C   0  0  0  0  0  0  0  0  0  0  0  0
   20.8818  -21.3871  -10.2490 O   0  0  0  0  0  0  0  0  0  0  0  0
   19.6145  -20.0810  -11.6100 O   0  0  0  0  0  0  0  0  0  0  0  0
  2  1  1  6
  2  3  1  0
  4  9  2  0
  4  3  1  0
  5  4  1  0
  6  7  1  0
  6  5  2  0
  7  8  2  0
  8  9  1  0
 10  2  1  0
 11 10  2  0
 13 12  1  0
 13 14  1  0
 14 15  1  1
 16 14  1  0
 16 17  1  6
 17 10  1  0
 18 16  1  0
 19 18  2  0
 20 18  1  0
 21 22  1  1
 21 20  1  0
 23 22  1  0
 24 25  1  0
 24 23  1  0
 25 26  1  0
 27 21  1  0
 27 29  1  0
 28 27  2  0
M  END
$$$$
