FIK.pdb
     RDKit          3D

 29 29  0  0  1  0  0  0  0  0999 V2000
   16.4897  -18.5821    4.8431 N   0  0  0  0  0  0  0  0  0  0  0  0
   16.4198  -17.6359    5.9105 C   0  0  1  0  0  0  0  0  0  0  0  0
   15.9803  -18.3445    7.1981 C   0  0  0  0  0  0  0  0  0  0  0  0
   14.5962  -18.8616    7.0529 C   0  0  0  0  0  0  0  0  0  0  0  0
   14.3615  -20.2032    6.8731 C   0  0  0  0  0  0  0  0  0  0  0  0
   13.0887  -20.6967    6.7374 C   0  0  0  0  0  0  0  0  0  0  0  0
   12.0023  -19.8523    6.7782 C   0  0  0  0  0  0  0  0  0  0  0  0
   12.2317  -18.5037    6.9585 C   0  0  0  0  0  0  0  0  0  0  0  0
   13.5053  -18.0185    7.0933 C   0  0  0  0  0  0  0  0  0  0  0  0
   17.7192  -16.9699    6.1850 C   0  0  0  0  0  0  0  0  0  0  0  0
   18.7918  -17.5793    6.0354 O   0  0  0  0  0  0  0  0  0  0  0  0
   18.6197  -11.6929    4.9468 C   0  0  0  0  0  0  0  0  0  0  0  0
   18.6832  -13.1603    5.2028 C   0  0  0  0  0  0  0  0  0  0  0  0
   19.0904  -13.4821    6.6447 C   0  0  2  0  0  0  0  0  0  0  0  0
   20.3446  -12.7998    7.0607 C   0  0  0  0  0  0  0  0  0  0  0  0
   19.0198  -14.9351    6.9364 C   0  0  2  0  0  0  0  0  0  0  0  0
   17.8414  -15.6411    6.6217 N   0  0  0  0  0  0  0  0  0  0  0  0
   19.3612  -15.1200    8.3835 C   0  0  0  0  0  0  0  0  0  0  0  0
   18.4737  -14.8864    9.2398 O   0  0  0  0  0  0  0  0  0  0  0  0
   20.6256  -15.5411    8.8147 N   0  0  0  0  0  0  0  0  0  0  0  0
   20.8837  -15.7344   10.2987 C   0  0  1  0  0  0  0  0  0  0  0  0
   21.5749  -17.0197   10.4318 C   0  0  0  0  0  0  0  0  0  0  0  0
   22.0701  -17.4530   11.7191 C   0  0  0  0  0  0  0  0  0  0  0  0
   21.6616  -18.6825   12.4096 C   0  0  0  0  0  0  0  0  0  0  0  0
   22.2153  -18.8813   13.7987 C   0  0  0  0  0  0  0  0  0  0  0  0
   22.9773  -20.0678   13.9993 N   0  0  0  0  0  0  0  0  0  0  0  0
   21.6329  -14.5174   10.6378 C   0  0  0  0  0  0  0  0  0  0  0  0
   22.2836  -13.8874    9.7313 O   0  0  0  0  0  0  0  0  0  0  0  0
   21.6662  -14.0018   11.9154 O   0  0  0  0  0  0  0  0  0  0  0  0
  2  1  1  6
  2  3  1  0
  4  9  2  0
  4  3  1  0
  5  4  1  0
  6  7  1  0
  6  5  2  0
  7  8  2  0
  8  9  1  0
 10  2  1  0
 11 10  2  0
 13 12  1  0
 13 14  1  0
 14 15  1  6
 16 14  1  0
 16 17  1  1
 17 10  1  0
 18 16  1  0
 19 18  2  0
 20 18  1  0
 21 22  1  6
 21 20  1  0
 23 22  1  0
 24 25  1  0
 24 23  1  0
 25 26  1  0
 27 21  1  0
 27 29  1  0
 28 27  2  0
M  END
$$$$
