FIK.pdb
     RDKit          3D

 29 29  0  0  1  0  0  0  0  0999 V2000
   26.9718  -19.7894  -18.9570 N   0  0  0  0  0  0  0  0  0  0  0  0
   26.6709  -19.1482  -17.7169 C   0  0  1  0  0  0  0  0  0  0  0  0
   25.3318  -18.4088  -17.8319 C   0  0  0  0  0  0  0  0  0  0  0  0
   25.4459  -17.2869  -18.7975 C   0  0  0  0  0  0  0  0  0  0  0  0
   26.1210  -16.1377  -18.4646 C   0  0  0  0  0  0  0  0  0  0  0  0
   26.2353  -15.0923  -19.3455 C   0  0  0  0  0  0  0  0  0  0  0  0
   25.6708  -15.1678  -20.5988 C   0  0  0  0  0  0  0  0  0  0  0  0
   24.9914  -16.3195  -20.9390 C   0  0  0  0  0  0  0  0  0  0  0  0
   24.8815  -17.3591  -20.0541 C   0  0  0  0  0  0  0  0  0  0  0  0
   26.5632  -20.0990  -16.5803 C   0  0  0  0  0  0  0  0  0  0  0  0
   26.0068  -21.2011  -16.7219 O   0  0  0  0  0  0  0  0  0  0  0  0
   30.0626  -19.8822  -11.9418 C   0  0  0  0  0  0  0  0  0  0  0  0
   28.7986  -19.6579  -12.6999 C   0  0  0  0  0  0  0  0  0  0  0  0
   28.3287  -20.9188  -13.4334 C   0  0  2  0  0  0  0  0  0  0  0  0
   29.4160  -21.5862  -14.1974 C   0  0  0  0  0  0  0  0  0  0  0  0
   27.0624  -20.6976  -14.1742 C   0  0  2  0  0  0  0  0  0  0  0  0
   27.0637  -19.8417  -15.2940 N   0  0  0  0  0  0  0  0  0  0  0  0
   26.0341  -20.2474  -13.1819 C   0  0  0  0  0  0  0  0  0  0  0  0
   25.7978  -19.0186  -13.0844 O   0  0  0  0  0  0  0  0  0  0  0  0
   25.3305  -21.1404  -12.3637 N   0  0  0  0  0  0  0  0  0  0  0  0
   24.3369  -20.6014  -11.3495 C   0  0  1  0  0  0  0  0  0  0  0  0
   23.0105  -21.0202  -11.8108 C   0  0  0  0  0  0  0  0  0  0  0  0
   21.8379  -20.7419  -11.0123 C   0  0  0  0  0  0  0  0  0  0  0  0
   20.4603  -21.0801  -11.3905 C   0  0  0  0  0  0  0  0  0  0  0  0
   19.3815  -20.6550  -10.4255 C   0  0  0  0  0  0  0  0  0  0  0  0
   18.0443  -20.9404  -10.8244 N   0  0  0  0  0  0  0  0  0  0  0  0
   24.8385  -21.1798  -10.0960 C   0  0  0  0  0  0  0  0  0  0  0  0
   24.4954  -20.6738   -8.9698 O   0  0  0  0  0  0  0  0  0  0  0  0
   25.6772  -22.2730  -10.0701 O   0  0  0  0  0  0  0  0  0  0  0  0
  2  1  1  6
  2  3  1  0
  4  9  2  0
  4  3  1  0
  5  4  1  0
  6  7  1  0
  6  5  2  0
  7  8  2  0
  8  9  1  0
 10  2  1  0
 11 10  2  0
 13 12  1  0
 13 14  1  0
 14 15  1  6
 16 14  1  0
 16 17  1  6
 17 10  1  0
 18 16  1  0
 19 18  2  0
 20 18  1  0
 21 22  1  6
 21 20  1  0
 23 22  1  0
 24 25  1  0
 24 23  1  0
 25 26  1  0
 27 21  1  0
 27 29  1  0
 28 27  2  0
M  END
$$$$
