FIK.pdb
     RDKit          3D

 29 29  0  0  1  0  0  0  0  0999 V2000
   16.2046  -12.2901  -10.4178 N   0  0  0  0  0  0  0  0  0  0  0  0
   15.7340  -11.0169  -10.8616 C   0  0  1  0  0  0  0  0  0  0  0  0
   14.3110  -10.7835  -10.3383 C   0  0  0  0  0  0  0  0  0  0  0  0
   13.3776  -11.7756  -10.9288 C   0  0  0  0  0  0  0  0  0  0  0  0
   12.7731  -12.7272  -10.1438 C   0  0  0  0  0  0  0  0  0  0  0  0
   11.9083  -13.6507  -10.6742 C   0  0  0  0  0  0  0  0  0  0  0  0
   11.6206  -13.6483  -12.0204 C   0  0  0  0  0  0  0  0  0  0  0  0
   12.2247  -12.6949  -12.8140 C   0  0  0  0  0  0  0  0  0  0  0  0
   13.0869  -11.7761  -12.2773 C   0  0  0  0  0  0  0  0  0  0  0  0
   16.5769   -9.8876  -10.3906 C   0  0  0  0  0  0  0  0  0  0  0  0
   17.0850   -9.9013   -9.2567 O   0  0  0  0  0  0  0  0  0  0  0  0
   20.7098   -7.9149  -13.0627 C   0  0  0  0  0  0  0  0  0  0  0  0
   19.6548   -8.3411  -12.0993 C   0  0  0  0  0  0  0  0  0  0  0  0
   18.7290   -7.1863  -11.7021 C   0  0  2  0  0  0  0  0  0  0  0  0
   19.4683   -5.9694  -11.2734 C   0  0  0  0  0  0  0  0  0  0  0  0
   17.6367   -7.6280  -10.8004 C   0  0  2  0  0  0  0  0  0  0  0  0
   16.8611   -8.7483  -11.1605 N   0  0  0  0  0  0  0  0  0  0  0  0
   16.7510   -6.4449  -10.5544 C   0  0  0  0  0  0  0  0  0  0  0  0
   16.0132   -6.0481  -11.4890 O   0  0  0  0  0  0  0  0  0  0  0  0
   16.7152   -5.7686   -9.3282 N   0  0  0  0  0  0  0  0  0  0  0  0
   15.6188   -4.7507   -9.0673 C   0  0  1  0  0  0  0  0  0  0  0  0
   15.4931   -4.6460   -7.6110 C   0  0  0  0  0  0  0  0  0  0  0  0
   14.7432   -3.5613   -7.0186 C   0  0  0  0  0  0  0  0  0  0  0  0
   13.2903   -3.5571   -6.8076 C   0  0  0  0  0  0  0  0  0  0  0  0
   12.7106   -2.3075   -6.1927 C   0  0  0  0  0  0  0  0  0  0  0  0
   11.2910   -2.2719   -6.0807 N   0  0  0  0  0  0  0  0  0  0  0  0
   16.1151   -3.5762   -9.7964 C   0  0  0  0  0  0  0  0  0  0  0  0
   15.3008   -2.8274  -10.4432 O   0  0  0  0  0  0  0  0  0  0  0  0
   17.4479   -3.2264   -9.8146 O   0  0  0  0  0  0  0  0  0  0  0  0
  2  1  1  1
  2  3  1  0
  4  9  2  0
  4  3  1  0
  5  4  1  0
  6  7  1  0
  6  5  2  0
  7  8  2  0
  8  9  1  0
 10  2  1  0
 11 10  2  0
 13 12  1  0
 13 14  1  0
 14 15  1  1
 16 14  1  0
 16 17  1  6
 17 10  1  0
 18 16  1  0
 19 18  2  0
 20 18  1  0
 21 22  1  1
 21 20  1  0
 23 22  1  0
 24 25  1  0
 24 23  1  0
 25 26  1  0
 27 21  1  0
 27 29  1  0
 28 27  2  0
M  END
$$$$
