FIK.pdb
     RDKit          3D

 29 29  0  0  1  0  0  0  0  0999 V2000
   28.3556  -20.3125  -15.8487 N   0  0  0  0  0  0  0  0  0  0  0  0
   27.5322  -19.5206  -14.9918 C   0  0  1  0  0  0  0  0  0  0  0  0
   26.6888  -18.5567  -15.8360 C   0  0  0  0  0  0  0  0  0  0  0  0
   27.5202  -17.4169  -16.2985 C   0  0  0  0  0  0  0  0  0  0  0  0
   28.2218  -17.4903  -17.4774 C   0  0  0  0  0  0  0  0  0  0  0  0
   28.9944  -16.4461  -17.9184 C   0  0  0  0  0  0  0  0  0  0  0  0
   29.0880  -15.2855  -17.1841 C   0  0  0  0  0  0  0  0  0  0  0  0
   28.3857  -15.2057  -15.9992 C   0  0  0  0  0  0  0  0  0  0  0  0
   27.6164  -16.2525  -15.5654 C   0  0  0  0  0  0  0  0  0  0  0  0
   26.5986  -20.3316  -14.1683 C   0  0  0  0  0  0  0  0  0  0  0  0
   26.1073  -21.3834  -14.6114 O   0  0  0  0  0  0  0  0  0  0  0  0
   27.1582  -20.3997   -8.7191 C   0  0  0  0  0  0  0  0  0  0  0  0
   26.8659  -20.9106  -10.0889 C   0  0  0  0  0  0  0  0  0  0  0  0
   25.4507  -20.5510  -10.5541 C   0  0  2  0  0  0  0  0  0  0  0  0
   24.3887  -21.2011   -9.7411 C   0  0  0  0  0  0  0  0  0  0  0  0
   25.2977  -20.6665  -12.0254 C   0  0  2  0  0  0  0  0  0  0  0  0
   26.2057  -19.9899  -12.8643 N   0  0  0  0  0  0  0  0  0  0  0  0
   23.8919  -20.2735  -12.3631 C   0  0  0  0  0  0  0  0  0  0  0  0
   23.5617  -19.0697  -12.2317 O   0  0  0  0  0  0  0  0  0  0  0  0
   22.9377  -21.1928  -12.8174 N   0  0  0  0  0  0  0  0  0  0  0  0
   21.5613  -20.7004  -13.2289 C   0  0  1  0  0  0  0  0  0  0  0  0
   21.3798  -21.1068  -14.6251 C   0  0  0  0  0  0  0  0  0  0  0  0
   20.1516  -20.7973  -15.3222 C   0  0  0  0  0  0  0  0  0  0  0  0
   19.3945  -21.7394  -16.1557 C   0  0  0  0  0  0  0  0  0  0  0  0
   18.1768  -21.1832  -16.8508 C   0  0  0  0  0  0  0  0  0  0  0  0
   17.4069  -22.1198  -17.5985 N   0  0  0  0  0  0  0  0  0  0  0  0
   20.6998  -21.3266  -12.2175 C   0  0  0  0  0  0  0  0  0  0  0  0
   21.0393  -22.4399  -11.6814 O   0  0  0  0  0  0  0  0  0  0  0  0
   19.5159  -20.7578  -11.8004 O   0  0  0  0  0  0  0  0  0  0  0  0
  2  1  1  6
  2  3  1  0
  4  9  2  0
  4  3  1  0
  5  4  1  0
  6  7  1  0
  6  5  2  0
  7  8  2  0
  8  9  1  0
 10  2  1  0
 11 10  2  0
 13 12  1  0
 13 14  1  0
 14 15  1  1
 16 14  1  0
 16 17  1  6
 17 10  1  0
 18 16  1  0
 19 18  2  0
 20 18  1  0
 21 22  1  6
 21 20  1  0
 23 22  1  0
 24 25  1  0
 24 23  1  0
 25 26  1  0
 27 21  1  0
 27 29  1  0
 28 27  2  0
M  END
$$$$
