FIK.pdb
     RDKit          3D

 29 29  0  0  1  0  0  0  0  0999 V2000
   19.7899  -11.2447  -16.2682 N   0  0  0  0  0  0  0  0  0  0  0  0
   19.5464   -9.9742  -16.8734 C   0  0  1  0  0  0  0  0  0  0  0  0
   18.1409   -9.9580  -17.4876 C   0  0  0  0  0  0  0  0  0  0  0  0
   18.0654  -10.9121  -18.6226 C   0  0  0  0  0  0  0  0  0  0  0  0
   17.3033  -12.0518  -18.5344 C   0  0  0  0  0  0  0  0  0  0  0  0
   17.2232  -12.9432  -19.5741 C   0  0  0  0  0  0  0  0  0  0  0  0
   17.9111  -12.7170  -20.7448 C   0  0  0  0  0  0  0  0  0  0  0  0
   18.6782  -11.5741  -20.8394 C   0  0  0  0  0  0  0  0  0  0  0  0
   18.7533  -10.6887  -19.7972 C   0  0  0  0  0  0  0  0  0  0  0  0
   19.6296   -8.8450  -15.9114 C   0  0  0  0  0  0  0  0  0  0  0  0
   19.3140   -8.9988  -14.7194 O   0  0  0  0  0  0  0  0  0  0  0  0
   22.6671   -3.9831  -13.9207 C   0  0  0  0  0  0  0  0  0  0  0  0
   21.3344   -4.5341  -14.2989 C   0  0  0  0  0  0  0  0  0  0  0  0
   21.4499   -5.8075  -15.1437 C   0  0  2  0  0  0  0  0  0  0  0  0
   22.3554   -5.6495  -16.3128 C   0  0  0  0  0  0  0  0  0  0  0  0
   20.1257   -6.4119  -15.4311 C   0  0  2  0  0  0  0  0  0  0  0  0
   20.0572   -7.5527  -16.2558 N   0  0  0  0  0  0  0  0  0  0  0  0
   19.2458   -5.3283  -15.9753 C   0  0  0  0  0  0  0  0  0  0  0  0
   19.3848   -4.9949  -17.1773 O   0  0  0  0  0  0  0  0  0  0  0  0
   18.2794   -4.6768  -15.1982 N   0  0  0  0  0  0  0  0  0  0  0  0
   17.3723   -3.6441  -15.8440 C   0  0  1  0  0  0  0  0  0  0  0  0
   15.9996   -4.0454  -15.5242 C   0  0  0  0  0  0  0  0  0  0  0  0
   14.8942   -3.1580  -15.8080 C   0  0  0  0  0  0  0  0  0  0  0  0
   13.4874   -3.4355  -15.4928 C   0  0  0  0  0  0  0  0  0  0  0  0
   12.4968   -2.3612  -15.8672 C   0  0  0  0  0  0  0  0  0  0  0  0
   11.1224   -2.7122  -15.7385 N   0  0  0  0  0  0  0  0  0  0  0  0
   17.8721   -2.3929  -15.2593 C   0  0  0  0  0  0  0  0  0  0  0  0
   18.3930   -2.3912  -14.0886 O   0  0  0  0  0  0  0  0  0  0  0  0
   17.8130   -1.1893  -15.9280 O   0  0  0  0  0  0  0  0  0  0  0  0
  2  1  1  1
  2  3  1  0
  4  9  2  0
  4  3  1  0
  5  4  1  0
  6  7  1  0
  6  5  2  0
  7  8  2  0
  8  9  1  0
 10  2  1  0
 11 10  2  0
 13 12  1  0
 13 14  1  0
 14 15  1  6
 16 14  1  0
 16 17  1  6
 17 10  1  0
 18 16  1  0
 19 18  2  0
 20 18  1  0
 21 22  1  1
 21 20  1  0
 23 22  1  0
 24 25  1  0
 24 23  1  0
 25 26  1  0
 27 21  1  0
 27 29  1  0
 28 27  2  0
M  END
$$$$
