FIK.pdb
     RDKit          3D

 29 29  0  0  1  0  0  0  0  0999 V2000
   27.0714  -18.1882   -7.9892 N   0  0  0  0  0  0  0  0  0  0  0  0
   27.0564  -19.5938   -8.2418 C   0  0  1  0  0  0  0  0  0  0  0  0
   26.5438  -20.3341   -6.9998 C   0  0  0  0  0  0  0  0  0  0  0  0
   27.4821  -20.1442   -5.8650 C   0  0  0  0  0  0  0  0  0  0  0  0
   28.5769  -19.3233   -5.9868 C   0  0  0  0  0  0  0  0  0  0  0  0
   29.4531  -19.1375   -4.9478 C   0  0  0  0  0  0  0  0  0  0  0  0
   29.2567  -19.7751   -3.7437 C   0  0  0  0  0  0  0  0  0  0  0  0
   28.1589  -20.6009   -3.6152 C   0  0  0  0  0  0  0  0  0  0  0  0
   27.2884  -20.7815   -4.6571 C   0  0  0  0  0  0  0  0  0  0  0  0
   26.1828  -19.9715   -9.3827 C   0  0  0  0  0  0  0  0  0  0  0  0
   25.0388  -19.4992   -9.4930 O   0  0  0  0  0  0  0  0  0  0  0  0
   29.4956  -21.6171  -11.5821 C   0  0  0  0  0  0  0  0  0  0  0  0
   28.6963  -20.7489  -12.4932 C   0  0  0  0  0  0  0  0  0  0  0  0
   27.2906  -21.3060  -12.7426 C   0  0  2  0  0  0  0  0  0  0  0  0
   26.8921  -21.2588  -14.1746 C   0  0  0  0  0  0  0  0  0  0  0  0
   26.2966  -20.7722  -11.7791 C   0  0  2  0  0  0  0  0  0  0  0  0
   26.5629  -20.8636  -10.3981 N   0  0  0  0  0  0  0  0  0  0  0  0
   24.9782  -21.4104  -12.0937 C   0  0  0  0  0  0  0  0  0  0  0  0
   24.8505  -22.6433  -11.8961 O   0  0  0  0  0  0  0  0  0  0  0  0
   23.8888  -20.6879  -12.5971 N   0  0  0  0  0  0  0  0  0  0  0  0
   22.6000  -21.4165  -12.9350 C   0  0  1  0  0  0  0  0  0  0  0  0
   21.5281  -20.4218  -12.8392 C   0  0  0  0  0  0  0  0  0  0  0  0
   20.1866  -20.8255  -12.4822 C   0  0  0  0  0  0  0  0  0  0  0  0
   19.0350  -19.9216  -12.3719 C   0  0  0  0  0  0  0  0  0  0  0  0
   17.7200  -20.5610  -12.0011 C   0  0  0  0  0  0  0  0  0  0  0  0
   17.5687  -21.9284  -12.3701 N   0  0  0  0  0  0  0  0  0  0  0  0
   22.9025  -21.9692  -14.2617 C   0  0  0  0  0  0  0  0  0  0  0  0
   22.4842  -23.1367  -14.5845 O   0  0  0  0  0  0  0  0  0  0  0  0
   23.6279  -21.2733  -15.2045 O   0  0  0  0  0  0  0  0  0  0  0  0
  2  1  1  1
  2  3  1  0
  4  9  2  0
  4  3  1  0
  5  4  1  0
  6  7  1  0
  6  5  2  0
  7  8  2  0
  8  9  1  0
 10  2  1  0
 11 10  2  0
 13 12  1  0
 13 14  1  0
 14 15  1  6
 16 14  1  0
 16 17  1  1
 17 10  1  0
 18 16  1  0
 19 18  2  0
 20 18  1  0
 21 22  1  6
 21 20  1  0
 23 22  1  0
 24 25  1  0
 24 23  1  0
 25 26  1  0
 27 21  1  0
 27 29  1  0
 28 27  2  0
M  END
$$$$
