FIK.pdb
     RDKit          3D

 29 29  0  0  1  0  0  0  0  0999 V2000
   19.6360  -11.5229  -19.5409 N   0  0  0  0  0  0  0  0  0  0  0  0
   20.1853  -10.2269  -19.2998 C   0  0  1  0  0  0  0  0  0  0  0  0
   19.2565   -9.1571  -19.8878 C   0  0  0  0  0  0  0  0  0  0  0  0
   19.2141   -9.2709  -21.3675 C   0  0  0  0  0  0  0  0  0  0  0  0
   20.3088   -8.9433  -22.1302 C   0  0  0  0  0  0  0  0  0  0  0  0
   20.2856   -9.0429  -23.4982 C   0  0  0  0  0  0  0  0  0  0  0  0
   19.1536   -9.4781  -24.1494 C   0  0  0  0  0  0  0  0  0  0  0  0
   18.0508   -9.8086  -23.3889 C   0  0  0  0  0  0  0  0  0  0  0  0
   18.0816   -9.7066  -22.0234 C   0  0  0  0  0  0  0  0  0  0  0  0
   20.3583   -9.9269  -17.8549 C   0  0  0  0  0  0  0  0  0  0  0  0
   19.5972  -10.4209  -17.0059 O   0  0  0  0  0  0  0  0  0  0  0  0
   23.0308  -10.3063  -13.0285 C   0  0  0  0  0  0  0  0  0  0  0  0
   23.1177   -9.1408  -13.9540 C   0  0  0  0  0  0  0  0  0  0  0  0
   22.8776   -9.5384  -15.4144 C   0  0  2  0  0  0  0  0  0  0  0  0
   24.1149   -9.4998  -16.2384 C   0  0  0  0  0  0  0  0  0  0  0  0
   21.6952   -8.8553  -15.9945 C   0  0  2  0  0  0  0  0  0  0  0  0
   21.3621   -9.0887  -17.3439 N   0  0  0  0  0  0  0  0  0  0  0  0
   21.8604   -7.3863  -15.7504 C   0  0  0  0  0  0  0  0  0  0  0  0
   22.7114   -6.7614  -16.4290 O   0  0  0  0  0  0  0  0  0  0  0  0
   21.1056   -6.6878  -14.7993 N   0  0  0  0  0  0  0  0  0  0  0  0
   21.2697   -5.1835  -14.6725 C   0  0  1  0  0  0  0  0  0  0  0  0
   19.9169   -4.6298  -14.5663 C   0  0  0  0  0  0  0  0  0  0  0  0
   19.1983   -4.2247  -15.7535 C   0  0  0  0  0  0  0  0  0  0  0  0
   17.8269   -3.7008  -15.7716 C   0  0  0  0  0  0  0  0  0  0  0  0
   17.2202   -3.4704  -17.1333 C   0  0  0  0  0  0  0  0  0  0  0  0
   15.8936   -2.9517  -17.1421 N   0  0  0  0  0  0  0  0  0  0  0  0
   22.1476   -5.0716  -13.5003 C   0  0  0  0  0  0  0  0  0  0  0  0
   22.8939   -4.0408  -13.3498 O   0  0  0  0  0  0  0  0  0  0  0  0
   22.2053   -6.0432  -12.5247 O   0  0  0  0  0  0  0  0  0  0  0  0
  2  1  1  1
  2  3  1  0
  4  9  2  0
  4  3  1  0
  5  4  1  0
  6  7  1  0
  6  5  2  0
  7  8  2  0
  8  9  1  0
 10  2  1  0
 11 10  2  0
 13 12  1  0
 13 14  1  0
 14 15  1  6
 16 14  1  0
 16 17  1  6
 17 10  1  0
 18 16  1  0
 19 18  2  0
 20 18  1  0
 21 22  1  1
 21 20  1  0
 23 22  1  0
 24 25  1  0
 24 23  1  0
 25 26  1  0
 27 21  1  0
 27 29  1  0
 28 27  2  0
M  END
$$$$
