FIK.pdb
     RDKit          3D

 29 29  0  0  1  0  0  0  0  0999 V2000
   26.8387  -22.3858  -15.9479 N   0  0  0  0  0  0  0  0  0  0  0  0
   25.6958  -21.5516  -15.7544 C   0  0  1  0  0  0  0  0  0  0  0  0
   24.7669  -21.6619  -16.9701 C   0  0  0  0  0  0  0  0  0  0  0  0
   25.3987  -21.0339  -18.1579 C   0  0  0  0  0  0  0  0  0  0  0  0
   25.9663  -21.8048  -19.1432 C   0  0  0  0  0  0  0  0  0  0  0  0
   26.5539  -21.2398  -20.2466 C   0  0  0  0  0  0  0  0  0  0  0  0
   26.5907  -19.8720  -20.3972 C   0  0  0  0  0  0  0  0  0  0  0  0
   26.0223  -19.0924  -19.4108 C   0  0  0  0  0  0  0  0  0  0  0  0
   25.4374  -19.6637  -18.3121 C   0  0  0  0  0  0  0  0  0  0  0  0
   24.9055  -21.9161  -14.5503 C   0  0  0  0  0  0  0  0  0  0  0  0
   24.9402  -23.0700  -14.0904 O   0  0  0  0  0  0  0  0  0  0  0  0
   25.5970  -21.5035  -10.4316 C   0  0  0  0  0  0  0  0  0  0  0  0
   25.1253  -20.2771  -11.1360 C   0  0  0  0  0  0  0  0  0  0  0  0
   23.6366  -20.3474  -11.4926 C   0  0  2  0  0  0  0  0  0  0  0  0
   22.7642  -20.5608  -10.3074 C   0  0  0  0  0  0  0  0  0  0  0  0
   23.3789  -21.2377  -12.6513 C   0  0  2  0  0  0  0  0  0  0  0  0
   24.0806  -21.0184  -13.8537 N   0  0  0  0  0  0  0  0  0  0  0  0
   21.9026  -21.2275  -12.9062 C   0  0  0  0  0  0  0  0  0  0  0  0
   21.4089  -20.2448  -13.5111 O   0  0  0  0  0  0  0  0  0  0  0  0
   21.0571  -22.2668  -12.4974 N   0  0  0  0  0  0  0  0  0  0  0  0
   19.5682  -22.1756  -12.7823 C   0  0  1  0  0  0  0  0  0  0  0  0
   19.0154  -23.5054  -12.5105 C   0  0  0  0  0  0  0  0  0  0  0  0
   17.5876  -23.7266  -12.5584 C   0  0  0  0  0  0  0  0  0  0  0  0
   16.9319  -25.0338  -12.4295 C   0  0  0  0  0  0  0  0  0  0  0  0
   15.4259  -25.0348  -12.5166 C   0  0  0  0  0  0  0  0  0  0  0  0
   14.8081  -26.3170  -12.5700 N   0  0  0  0  0  0  0  0  0  0  0  0
   19.1580  -21.0725  -11.9036 C   0  0  0  0  0  0  0  0  0  0  0  0
   19.6701  -20.9546  -10.7349 O   0  0  0  0  0  0  0  0  0  0  0  0
   18.2294  -20.1289  -12.2863 O   0  0  0  0  0  0  0  0  0  0  0  0
  2  1  1  6
  2  3  1  0
  4  9  2  0
  4  3  1  0
  5  4  1  0
  6  7  1  0
  6  5  2  0
  7  8  2  0
  8  9  1  0
 10  2  1  0
 11 10  2  0
 13 12  1  0
 13 14  1  0
 14 15  1  1
 16 14  1  0
 16 17  1  6
 17 10  1  0
 18 16  1  0
 19 18  2  0
 20 18  1  0
 21 22  1  1
 21 20  1  0
 23 22  1  0
 24 25  1  0
 24 23  1  0
 25 26  1  0
 27 21  1  0
 27 29  1  0
 28 27  2  0
M  END
$$$$
