VHC.pdb
     RDKit          3D

 24 24  0  0  1  0  0  0  0  0999 V2000
   16.9692  -19.1084   15.5780 C   0  0  0  0  0  0  0  0  0  0  0  0
   16.1024  -18.4357   16.6422 C   0  0  2  0  0  0  0  0  0  0  0  0
   16.6415  -18.8878   17.9797 C   0  0  0  0  0  0  0  0  0  0  0  0
   14.6920  -18.8875   16.4023 C   0  0  2  0  0  0  0  0  0  0  0  0
   14.3301  -18.5364   15.0547 N   0  0  0  0  0  0  0  0  0  0  0  0
   13.7309  -18.4090   17.3945 C   0  0  0  0  0  0  0  0  0  0  0  0
   13.4373  -17.1962   17.4499 O   0  0  0  0  0  0  0  0  0  0  0  0
   13.1217  -19.3047   18.3020 N   0  0  0  0  0  0  0  0  0  0  0  0
   12.1584  -18.9079   19.3177 C   0  0  1  0  0  0  0  0  0  0  0  0
   11.2521  -20.0279   19.7096 C   0  0  0  0  0  0  0  0  0  0  0  0
   10.2547  -20.3656   18.6651 C   0  0  0  0  0  0  0  0  0  0  0  0
    9.8436  -19.4809   17.6864 C   0  0  0  0  0  0  0  0  0  0  0  0
    8.9428  -20.1078   16.9156 N   0  0  0  0  0  0  0  0  0  0  0  0
    8.7864  -21.3466   17.3866 C   0  0  0  0  0  0  0  0  0  0  0  0
    9.5847  -21.5130   18.4565 N   0  0  0  0  0  0  0  0  0  0  0  0
   12.8610  -18.4182   20.5278 C   0  0  0  0  0  0  0  0  0  0  0  0
   14.0489  -18.6505   20.7924 O   0  0  0  0  0  0  0  0  0  0  0  0
   12.1002  -17.6163   21.4560 N   0  0  0  0  0  0  0  0  0  0  0  0
   12.7249  -17.0614   22.6449 C   0  0  1  0  0  0  0  0  0  0  0  0
   11.8512  -15.8771   23.0696 C   0  0  0  0  0  0  0  0  0  0  0  0
   10.1895  -16.4882   23.4537 S   0  0  0  0  0  0  0  0  0  0  0  0
   12.7496  -18.0776   23.7275 C   0  0  0  0  0  0  0  0  0  0  0  0
   11.9874  -19.0637   23.6191 O   0  0  0  0  0  0  0  0  0  0  0  0
   13.5801  -17.9704   24.8412 O   0  0  0  0  0  0  0  0  0  0  0  0
  2  1  1  6
  2  3  1  0
  4  2  1  0
  4  6  1  0
  4  5  1  6
  6  7  2  0
  8  6  1  0
  8  9  1  0
  9 10  1  1
 10 11  1  0
 11 12  2  0
 12 13  1  0
 14 13  1  0
 15 11  1  0
 15 14  2  0
 16 17  2  0
 16  9  1  0
 18 16  1  0
 19 18  1  0
 19 20  1  1
 21 20  1  0
 22 19  1  0
 22 24  1  0
 23 22  2  0
M  END
$$$$
