VHC.pdb
     RDKit          3D

 24 24  0  0  1  0  0  0  0  0999 V2000
   13.5115  -14.0918   19.0078 C   0  0  0  0  0  0  0  0  0  0  0  0
   13.0767  -15.4709   18.5124 C   0  0  2  0  0  0  0  0  0  0  0  0
   11.9315  -15.2384   17.5540 C   0  0  0  0  0  0  0  0  0  0  0  0
   12.6697  -16.2584   19.7228 C   0  0  2  0  0  0  0  0  0  0  0  0
   12.2379  -17.5603   19.2882 N   0  0  0  0  0  0  0  0  0  0  0  0
   11.6897  -15.5869   20.5747 C   0  0  0  0  0  0  0  0  0  0  0  0
   12.0068  -14.5551   21.2032 O   0  0  0  0  0  0  0  0  0  0  0  0
   10.3753  -16.0904   20.7009 N   0  0  0  0  0  0  0  0  0  0  0  0
    9.3780  -15.5493   21.6116 C   0  0  1  0  0  0  0  0  0  0  0  0
    8.0729  -15.2880   20.9350 C   0  0  0  0  0  0  0  0  0  0  0  0
    8.2083  -14.4905   19.6918 C   0  0  0  0  0  0  0  0  0  0  0  0
    8.3168  -13.1130   19.6755 C   0  0  0  0  0  0  0  0  0  0  0  0
    8.4225  -12.7226   18.3968 N   0  0  0  0  0  0  0  0  0  0  0  0
    8.3827  -13.8122   17.6273 C   0  0  0  0  0  0  0  0  0  0  0  0
    8.2518  -14.8979   18.4107 N   0  0  0  0  0  0  0  0  0  0  0  0
    9.1510  -16.4851   22.7389 C   0  0  0  0  0  0  0  0  0  0  0  0
    8.5940  -17.5869   22.6355 O   0  0  0  0  0  0  0  0  0  0  0  0
    9.6144  -16.0753   24.0430 N   0  0  0  0  0  0  0  0  0  0  0  0
    9.8423  -17.0543   25.0925 C   0  0  1  0  0  0  0  0  0  0  0  0
   10.9741  -17.9569   24.5921 C   0  0  0  0  0  0  0  0  0  0  0  0
   11.4009  -19.1348   25.9008 S   0  0  0  0  0  0  0  0  0  0  0  0
   10.2634  -16.3712   26.3420 C   0  0  0  0  0  0  0  0  0  0  0  0
   10.2285  -17.0283   27.4061 O   0  0  0  0  0  0  0  0  0  0  0  0
   10.6888  -15.0446   26.3677 O   0  0  0  0  0  0  0  0  0  0  0  0
  2  1  1  1
  2  3  1  0
  4  2  1  0
  4  6  1  0
  4  5  1  6
  6  7  2  0
  8  6  1  0
  8  9  1  0
  9 10  1  6
 10 11  1  0
 11 12  2  0
 12 13  1  0
 14 13  1  0
 15 11  1  0
 15 14  2  0
 16 17  2  0
 16  9  1  0
 18 16  1  0
 19 18  1  0
 19 20  1  6
 21 20  1  0
 22 19  1  0
 22 24  1  0
 23 22  2  0
M  END
$$$$
