VHC.pdb
     RDKit          3D

 24 24  0  0  1  0  0  0  0  0999 V2000
    7.0222  -12.7510   20.1391 C   0  0  0  0  0  0  0  0  0  0  0  0
    8.4107  -13.2920   19.7988 C   0  0  2  0  0  0  0  0  0  0  0  0
    8.7292  -12.8029   18.4047 C   0  0  0  0  0  0  0  0  0  0  0  0
    8.3266  -14.7875   19.8840 C   0  0  2  0  0  0  0  0  0  0  0  0
    7.6174  -15.2649   18.7266 N   0  0  0  0  0  0  0  0  0  0  0  0
    7.7709  -15.2873   21.1404 C   0  0  0  0  0  0  0  0  0  0  0  0
    6.5350  -15.2939   21.3214 O   0  0  0  0  0  0  0  0  0  0  0  0
    8.6171  -15.7685   22.1648 N   0  0  0  0  0  0  0  0  0  0  0  0
    8.1495  -16.2048   23.4717 C   0  0  1  0  0  0  0  0  0  0  0  0
    8.6016  -17.5885   23.8040 C   0  0  0  0  0  0  0  0  0  0  0  0
    8.1833  -18.0311   25.1564 C   0  0  0  0  0  0  0  0  0  0  0  0
    7.0471  -17.5705   25.7939 C   0  0  0  0  0  0  0  0  0  0  0  0
    6.9725  -18.1725   26.9901 N   0  0  0  0  0  0  0  0  0  0  0  0
    8.0231  -18.9867   27.1094 C   0  0  0  0  0  0  0  0  0  0  0  0
    8.7689  -18.9067   25.9927 N   0  0  0  0  0  0  0  0  0  0  0  0
    8.6332  -15.2801   24.5247 C   0  0  0  0  0  0  0  0  0  0  0  0
    9.7977  -14.8671   24.6158 O   0  0  0  0  0  0  0  0  0  0  0  0
    7.6737  -14.8358   25.5073 N   0  0  0  0  0  0  0  0  0  0  0  0
    8.0943  -14.0502   26.6552 C   0  0  1  0  0  0  0  0  0  0  0  0
    6.8443  -13.3135   27.1459 C   0  0  0  0  0  0  0  0  0  0  0  0
    6.4035  -12.0430   25.9320 S   0  0  0  0  0  0  0  0  0  0  0  0
    8.5994  -14.9459   27.7265 C   0  0  0  0  0  0  0  0  0  0  0  0
    8.4089  -16.1755   27.5967 O   0  0  0  0  0  0  0  0  0  0  0  0
    9.2672  -14.4695   28.8529 O   0  0  0  0  0  0  0  0  0  0  0  0
  2  1  1  6
  2  3  1  0
  4  2  1  0
  4  6  1  0
  4  5  1  6
  6  7  2  0
  8  6  1  0
  8  9  1  0
  9 10  1  1
 10 11  1  0
 11 12  2  0
 12 13  1  0
 14 13  1  0
 15 11  1  0
 15 14  2  0
 16 17  2  0
 16  9  1  0
 18 16  1  0
 19 18  1  0
 19 20  1  1
 21 20  1  0
 22 19  1  0
 22 24  1  0
 23 22  2  0
M  END
$$$$
