VHC.pdb
     RDKit          3D

 24 24  0  0  1  0  0  0  0  0999 V2000
    7.2987  -12.5017   18.5131 C   0  0  0  0  0  0  0  0  0  0  0  0
    8.2959  -13.3917   19.2545 C   0  0  2  0  0  0  0  0  0  0  0  0
    9.0269  -12.4952   20.2271 C   0  0  0  0  0  0  0  0  0  0  0  0
    9.2034  -13.9843   18.2171 C   0  0  2  0  0  0  0  0  0  0  0  0
    8.3921  -14.6820   17.2552 N   0  0  0  0  0  0  0  0  0  0  0  0
   10.2801  -14.8098   18.7616 C   0  0  0  0  0  0  0  0  0  0  0  0
   10.0277  -15.9372   19.2364 O   0  0  0  0  0  0  0  0  0  0  0  0
   11.6160  -14.3492   18.7602 N   0  0  0  0  0  0  0  0  0  0  0  0
   12.7328  -15.0831   19.3356 C   0  0  1  0  0  0  0  0  0  0  0  0
   14.0539  -14.5283   18.9157 C   0  0  0  0  0  0  0  0  0  0  0  0
   14.4574  -14.9482   17.5516 C   0  0  0  0  0  0  0  0  0  0  0  0
   13.9145  -16.0362   16.8950 C   0  0  0  0  0  0  0  0  0  0  0  0
   14.5019  -16.1278   15.6927 N   0  0  0  0  0  0  0  0  0  0  0  0
   15.3864  -15.1340   15.5881 C   0  0  0  0  0  0  0  0  0  0  0  0
   15.3659  -14.4076   16.7201 N   0  0  0  0  0  0  0  0  0  0  0  0
   12.6549  -15.0584   20.8158 C   0  0  0  0  0  0  0  0  0  0  0  0
   12.6610  -14.0270   21.5022 O   0  0  0  0  0  0  0  0  0  0  0  0
   12.5660  -16.3288   21.4953 N   0  0  0  0  0  0  0  0  0  0  0  0
   12.5466  -16.3959   22.9468 C   0  0  1  0  0  0  0  0  0  0  0  0
   11.1204  -16.7991   23.3336 C   0  0  0  0  0  0  0  0  0  0  0  0
   11.0524  -17.0488   25.1267 S   0  0  0  0  0  0  0  0  0  0  0  0
   13.5034  -17.4278   23.4208 C   0  0  0  0  0  0  0  0  0  0  0  0
   13.6888  -18.4291   22.6939 O   0  0  0  0  0  0  0  0  0  0  0  0
   14.1900  -17.3192   24.6284 O   0  0  0  0  0  0  0  0  0  0  0  0
  2  1  1  6
  2  3  1  0
  4  2  1  0
  4  6  1  0
  4  5  1  6
  6  7  2  0
  8  6  1  0
  8  9  1  0
  9 10  1  1
 10 11  1  0
 11 12  2  0
 12 13  1  0
 14 13  1  0
 15 11  1  0
 15 14  2  0
 16 17  2  0
 16  9  1  0
 18 16  1  0
 19 18  1  0
 19 20  1  6
 21 20  1  0
 22 19  1  0
 22 24  1  0
 23 22  2  0
M  END
$$$$
