VHC.pdb
     RDKit          3D

 24 24  0  0  1  0  0  0  0  0999 V2000
    9.5762  -12.6141   19.9988 C   0  0  0  0  0  0  0  0  0  0  0  0
    8.6635  -13.3071   18.9874 C   0  0  2  0  0  0  0  0  0  0  0  0
    7.2662  -12.7962   19.2536 C   0  0  0  0  0  0  0  0  0  0  0  0
    8.7964  -14.7829   19.2228 C   0  0  2  0  0  0  0  0  0  0  0  0
    8.0833  -15.4709   18.1796 N   0  0  0  0  0  0  0  0  0  0  0  0
    8.4043  -15.2151   20.5632 C   0  0  0  0  0  0  0  0  0  0  0  0
    7.2057  -15.4553   20.8197 O   0  0  0  0  0  0  0  0  0  0  0  0
    9.3686  -15.3675   21.5850 N   0  0  0  0  0  0  0  0  0  0  0  0
    9.0786  -15.8988   22.9080 C   0  0  1  0  0  0  0  0  0  0  0  0
   10.0958  -16.8962   23.3552 C   0  0  0  0  0  0  0  0  0  0  0  0
    9.8770  -18.2489   22.7878 C   0  0  0  0  0  0  0  0  0  0  0  0
    8.7751  -18.5893   22.0265 C   0  0  0  0  0  0  0  0  0  0  0  0
    8.8956  -19.8793   21.6799 N   0  0  0  0  0  0  0  0  0  0  0  0
   10.0330  -20.3430   22.2017 C   0  0  0  0  0  0  0  0  0  0  0  0
   10.6397  -19.3528   22.8808 N   0  0  0  0  0  0  0  0  0  0  0  0
    9.0208  -14.7996   23.9012 C   0  0  0  0  0  0  0  0  0  0  0  0
    9.8913  -13.9284   24.0357 O   0  0  0  0  0  0  0  0  0  0  0  0
    7.8667  -14.7495   24.7667 N   0  0  0  0  0  0  0  0  0  0  0  0
    7.7136  -13.6819   25.7406 C   0  0  1  0  0  0  0  0  0  0  0  0
    6.2173  -13.3567   25.7816 C   0  0  0  0  0  0  0  0  0  0  0  0
    5.9298  -12.0993   27.0538 S   0  0  0  0  0  0  0  0  0  0  0  0
    8.1609  -14.1461   27.0783 C   0  0  0  0  0  0  0  0  0  0  0  0
    8.5383  -13.2812   27.8996 O   0  0  0  0  0  0  0  0  0  0  0  0
    8.1738  -15.4911   27.4424 O   0  0  0  0  0  0  0  0  0  0  0  0
  2  1  1  1
  2  3  1  0
  4  2  1  0
  4  6  1  0
  4  5  1  6
  6  7  2  0
  8  6  1  0
  8  9  1  0
  9 10  1  1
 10 11  1  0
 11 12  2  0
 12 13  1  0
 14 13  1  0
 15 11  1  0
 15 14  2  0
 16 17  2  0
 16  9  1  0
 18 16  1  0
 19 18  1  0
 19 20  1  1
 21 20  1  0
 22 19  1  0
 22 24  1  0
 23 22  2  0
M  END
$$$$
