VHC.pdb
     RDKit          3D

 24 24  0  0  1  0  0  0  0  0999 V2000
    9.8335  -12.5145   19.2004 C   0  0  0  0  0  0  0  0  0  0  0  0
    8.6782  -13.1149   18.3996 C   0  0  2  0  0  0  0  0  0  0  0  0
    7.4494  -12.9998   19.2718 C   0  0  0  0  0  0  0  0  0  0  0  0
    9.0487  -14.5384   18.1040 C   0  0  2  0  0  0  0  0  0  0  0  0
    8.0938  -15.0664   17.1662 N   0  0  0  0  0  0  0  0  0  0  0  0
    9.2067  -15.3769   19.2911 C   0  0  0  0  0  0  0  0  0  0  0  0
    8.2019  -15.8414   19.8696 O   0  0  0  0  0  0  0  0  0  0  0  0
   10.4908  -15.6743   19.8008 N   0  0  0  0  0  0  0  0  0  0  0  0
   10.7474  -16.6549   20.8446 C   0  0  1  0  0  0  0  0  0  0  0  0
   12.0210  -17.4016   20.6221 C   0  0  0  0  0  0  0  0  0  0  0  0
   11.9288  -18.4027   19.5316 C   0  0  0  0  0  0  0  0  0  0  0  0
   11.0088  -19.4337   19.5164 C   0  0  0  0  0  0  0  0  0  0  0  0
   11.2028  -20.1434   18.3951 N   0  0  0  0  0  0  0  0  0  0  0  0
   12.2099  -19.5843   17.7212 C   0  0  0  0  0  0  0  0  0  0  0  0
   12.6599  -18.5193   18.4087 N   0  0  0  0  0  0  0  0  0  0  0  0
   10.8100  -15.9906   22.1685 C   0  0  0  0  0  0  0  0  0  0  0  0
   11.6944  -15.1945   22.5135 O   0  0  0  0  0  0  0  0  0  0  0  0
    9.7639  -16.2990   23.1141 N   0  0  0  0  0  0  0  0  0  0  0  0
    9.8369  -15.8229   24.4851 C   0  0  1  0  0  0  0  0  0  0  0  0
    8.3947  -15.7902   25.0000 C   0  0  0  0  0  0  0  0  0  0  0  0
    7.4211  -14.6954   23.9344 S   0  0  0  0  0  0  0  0  0  0  0  0
   10.6399  -16.7630   25.3076 C   0  0  0  0  0  0  0  0  0  0  0  0
   10.9988  -17.8391   24.7801 O   0  0  0  0  0  0  0  0  0  0  0  0
   11.0007  -16.4903   26.6256 O   0  0  0  0  0  0  0  0  0  0  0  0
  2  1  1  1
  2  3  1  0
  4  2  1  0
  4  6  1  0
  4  5  1  6
  6  7  2  0
  8  6  1  0
  8  9  1  0
  9 10  1  6
 10 11  1  0
 11 12  2  0
 12 13  1  0
 14 13  1  0
 15 11  1  0
 15 14  2  0
 16 17  2  0
 16  9  1  0
 18 16  1  0
 19 18  1  0
 19 20  1  1
 21 20  1  0
 22 19  1  0
 22 24  1  0
 23 22  2  0
M  END
$$$$
