VHC.pdb
     RDKit          3D

 24 24  0  0  1  0  0  0  0  0999 V2000
    8.3783  -12.5623   17.8930 C   0  0  0  0  0  0  0  0  0  0  0  0
    8.0171  -12.8390   19.3523 C   0  0  2  0  0  0  0  0  0  0  0  0
    9.0539  -12.1274   20.1906 C   0  0  0  0  0  0  0  0  0  0  0  0
    8.0479  -14.3281   19.5321 C   0  0  2  0  0  0  0  0  0  0  0  0
    7.5457  -14.6332   20.8454 N   0  0  0  0  0  0  0  0  0  0  0  0
    9.3483  -14.9391   19.2621 C   0  0  0  0  0  0  0  0  0  0  0  0
    9.6063  -15.3894   18.1260 O   0  0  0  0  0  0  0  0  0  0  0  0
   10.3291  -15.0300   20.2754 N   0  0  0  0  0  0  0  0  0  0  0  0
   11.6814  -15.5220   20.0603 C   0  0  1  0  0  0  0  0  0  0  0  0
   12.4181  -14.7280   19.0327 C   0  0  0  0  0  0  0  0  0  0  0  0
   12.3723  -15.3360   17.6807 C   0  0  0  0  0  0  0  0  0  0  0  0
   12.2236  -16.6915   17.4570 C   0  0  0  0  0  0  0  0  0  0  0  0
   12.2231  -16.8932   16.1311 N   0  0  0  0  0  0  0  0  0  0  0  0
   12.3662  -15.7090   15.5327 C   0  0  0  0  0  0  0  0  0  0  0  0
   12.4582  -14.7510   16.4726 N   0  0  0  0  0  0  0  0  0  0  0  0
   12.4479  -15.4869   21.3288 C   0  0  0  0  0  0  0  0  0  0  0  0
   13.2026  -14.5648   21.6679 O   0  0  0  0  0  0  0  0  0  0  0  0
   12.2982  -16.6093   22.2240 N   0  0  0  0  0  0  0  0  0  0  0  0
   12.9714  -16.6283   23.5117 C   0  0  1  0  0  0  0  0  0  0  0  0
   11.8653  -16.5654   24.5695 C   0  0  0  0  0  0  0  0  0  0  0  0
   10.4739  -17.5860   24.0178 S   0  0  0  0  0  0  0  0  0  0  0  0
   13.7387  -17.8903   23.6656 C   0  0  0  0  0  0  0  0  0  0  0  0
   13.5961  -18.7702   22.7878 O   0  0  0  0  0  0  0  0  0  0  0  0
   14.5980  -18.1225   24.7377 O   0  0  0  0  0  0  0  0  0  0  0  0
  2  1  1  6
  2  3  1  0
  4  2  1  0
  4  6  1  0
  4  5  1  1
  6  7  2  0
  8  6  1  0
  8  9  1  0
  9 10  1  6
 10 11  1  0
 11 12  2  0
 12 13  1  0
 14 13  1  0
 15 11  1  0
 15 14  2  0
 16 17  2  0
 16  9  1  0
 18 16  1  0
 19 18  1  0
 19 20  1  1
 21 20  1  0
 22 19  1  0
 22 24  1  0
 23 22  2  0
M  END
$$$$
