VHC.pdb
     RDKit          3D

 24 24  0  0  1  0  0  0  0  0999 V2000
    9.1159  -12.1504   19.7874 C   0  0  0  0  0  0  0  0  0  0  0  0
    8.1337  -12.9711   18.9519 C   0  0  2  0  0  0  0  0  0  0  0  0
    7.3029  -13.7681   19.9309 C   0  0  0  0  0  0  0  0  0  0  0  0
    8.9552  -13.8402   18.0459 C   0  0  2  0  0  0  0  0  0  0  0  0
    8.0582  -14.6005   17.2167 N   0  0  0  0  0  0  0  0  0  0  0  0
    9.9359  -14.6734   18.7396 C   0  0  0  0  0  0  0  0  0  0  0  0
    9.6257  -15.8214   19.1219 O   0  0  0  0  0  0  0  0  0  0  0  0
   11.2431  -14.1973   18.9879 N   0  0  0  0  0  0  0  0  0  0  0  0
   12.3109  -15.0044   19.5582 C   0  0  1  0  0  0  0  0  0  0  0  0
   13.6531  -14.6334   19.0195 C   0  0  0  0  0  0  0  0  0  0  0  0
   13.9258  -15.2109   17.6809 C   0  0  0  0  0  0  0  0  0  0  0  0
   14.0356  -16.5675   17.4418 C   0  0  0  0  0  0  0  0  0  0  0  0
   14.2827  -16.7374   16.1346 N   0  0  0  0  0  0  0  0  0  0  0  0
   14.3284  -15.5326   15.5626 C   0  0  0  0  0  0  0  0  0  0  0  0
   14.1112  -14.5932   16.5007 N   0  0  0  0  0  0  0  0  0  0  0  0
   12.3328  -14.8580   21.0334 C   0  0  0  0  0  0  0  0  0  0  0  0
   12.1090  -13.7997   21.6374 O   0  0  0  0  0  0  0  0  0  0  0  0
   12.6370  -16.0355   21.8109 N   0  0  0  0  0  0  0  0  0  0  0  0
   12.0298  -16.2428   23.1148 C   0  0  1  0  0  0  0  0  0  0  0  0
   10.5154  -16.2190   22.8860 C   0  0  0  0  0  0  0  0  0  0  0  0
    9.6825  -16.3823   24.4865 S   0  0  0  0  0  0  0  0  0  0  0  0
   12.4323  -17.5646   23.6586 C   0  0  0  0  0  0  0  0  0  0  0  0
   12.3338  -18.5593   22.9062 O   0  0  0  0  0  0  0  0  0  0  0  0
   12.9081  -17.7306   24.9577 O   0  0  0  0  0  0  0  0  0  0  0  0
  2  1  1  1
  2  3  1  0
  4  2  1  0
  4  6  1  0
  4  5  1  1
  6  7  2  0
  8  6  1  0
  8  9  1  0
  9 10  1  6
 10 11  1  0
 11 12  2  0
 12 13  1  0
 14 13  1  0
 15 11  1  0
 15 14  2  0
 16 17  2  0
 16  9  1  0
 18 16  1  0
 19 18  1  0
 19 20  1  6
 21 20  1  0
 22 19  1  0
 22 24  1  0
 23 22  2  0
M  END
$$$$
