VHC.pdb
     RDKit          3D

 24 24  0  0  1  0  0  0  0  0999 V2000
   12.3954  -20.2713   16.6617 C   0  0  0  0  0  0  0  0  0  0  0  0
   11.3136  -19.9553   15.6292 C   0  0  2  0  0  0  0  0  0  0  0  0
   11.5712  -20.8643   14.4495 C   0  0  0  0  0  0  0  0  0  0  0  0
   11.4547  -18.5022   15.2836 C   0  0  2  0  0  0  0  0  0  0  0  0
   12.7203  -18.3173   14.6246 N   0  0  0  0  0  0  0  0  0  0  0  0
   11.2614  -17.5945   16.4133 C   0  0  0  0  0  0  0  0  0  0  0  0
   12.2041  -17.3600   17.1983 O   0  0  0  0  0  0  0  0  0  0  0  0
   10.0126  -16.9712   16.6347 N   0  0  0  0  0  0  0  0  0  0  0  0
    9.7235  -16.1020   17.7651 C   0  0  1  0  0  0  0  0  0  0  0  0
    8.3810  -15.4575   17.6575 C   0  0  0  0  0  0  0  0  0  0  0  0
    8.1195  -14.4686   18.7316 C   0  0  0  0  0  0  0  0  0  0  0  0
    9.0389  -14.1422   19.7102 C   0  0  0  0  0  0  0  0  0  0  0  0
    8.4797  -13.2237   20.5117 N   0  0  0  0  0  0  0  0  0  0  0  0
    7.2491  -12.9746   20.0595 C   0  0  0  0  0  0  0  0  0  0  0  0
    7.0203  -13.7315   18.9711 N   0  0  0  0  0  0  0  0  0  0  0  0
    9.7826  -16.8705   19.0316 C   0  0  0  0  0  0  0  0  0  0  0  0
    9.5168  -18.0762   19.1344 O   0  0  0  0  0  0  0  0  0  0  0  0
   10.1781  -16.1558   20.2217 N   0  0  0  0  0  0  0  0  0  0  0  0
   10.3281  -16.8492   21.4900 C   0  0  1  0  0  0  0  0  0  0  0  0
   11.4847  -17.8353   21.2999 C   0  0  0  0  0  0  0  0  0  0  0  0
   11.8142  -18.6573   22.8804 S   0  0  0  0  0  0  0  0  0  0  0  0
   10.6691  -15.8798   22.5620 C   0  0  0  0  0  0  0  0  0  0  0  0
   11.3639  -14.8870   22.2511 O   0  0  0  0  0  0  0  0  0  0  0  0
   10.2475  -16.0373   23.8807 O   0  0  0  0  0  0  0  0  0  0  0  0
  2  1  1  1
  2  3  1  0
  4  2  1  0
  4  6  1  0
  4  5  1  1
  6  7  2  0
  8  6  1  0
  8  9  1  0
  9 10  1  6
 10 11  1  0
 11 12  2  0
 12 13  1  0
 14 13  1  0
 15 11  1  0
 15 14  2  0
 16 17  2  0
 16  9  1  0
 18 16  1  0
 19 18  1  0
 19 20  1  6
 21 20  1  0
 22 19  1  0
 22 24  1  0
 23 22  2  0
M  END
$$$$
