VHC.pdb
     RDKit          3D

 24 24  0  0  1  0  0  0  0  0999 V2000
    8.2606  -12.9270   18.0938 C   0  0  0  0  0  0  0  0  0  0  0  0
    7.7472  -13.5012   19.4139 C   0  0  2  0  0  0  0  0  0  0  0  0
    8.1589  -12.5256   20.4923 C   0  0  0  0  0  0  0  0  0  0  0  0
    8.3840  -14.8497   19.5776 C   0  0  2  0  0  0  0  0  0  0  0  0
    7.9214  -15.6982   18.5116 N   0  0  0  0  0  0  0  0  0  0  0  0
    8.2009  -15.4440   20.9006 C   0  0  0  0  0  0  0  0  0  0  0  0
    7.0835  -15.8867   21.2406 O   0  0  0  0  0  0  0  0  0  0  0  0
    9.2781  -15.5273   21.8115 N   0  0  0  0  0  0  0  0  0  0  0  0
    9.1656  -16.0562   23.1622 C   0  0  1  0  0  0  0  0  0  0  0  0
   10.2670  -17.0083   23.4932 C   0  0  0  0  0  0  0  0  0  0  0  0
   10.1631  -18.2976   22.7675 C   0  0  0  0  0  0  0  0  0  0  0  0
    9.1723  -19.2309   23.0056 C   0  0  0  0  0  0  0  0  0  0  0  0
    9.3765  -20.2689   22.1812 N   0  0  0  0  0  0  0  0  0  0  0  0
   10.4581  -20.0056   21.4452 C   0  0  0  0  0  0  0  0  0  0  0  0
   10.9456  -18.8022   21.7969 N   0  0  0  0  0  0  0  0  0  0  0  0
    9.1797  -14.9500   24.1493 C   0  0  0  0  0  0  0  0  0  0  0  0
   10.0736  -14.0964   24.2345 O   0  0  0  0  0  0  0  0  0  0  0  0
    8.0711  -14.8705   25.0703 N   0  0  0  0  0  0  0  0  0  0  0  0
    7.9616  -13.7661   26.0083 C   0  0  1  0  0  0  0  0  0  0  0  0
    6.4935  -13.3300   25.9804 C   0  0  0  0  0  0  0  0  0  0  0  0
    6.2391  -12.0616   27.2488 S   0  0  0  0  0  0  0  0  0  0  0  0
    8.3215  -14.2222   27.3749 C   0  0  0  0  0  0  0  0  0  0  0  0
    8.2421  -15.4463   27.6209 O   0  0  0  0  0  0  0  0  0  0  0  0
    8.7377  -13.3461   28.3753 O   0  0  0  0  0  0  0  0  0  0  0  0
  2  1  1  6
  2  3  1  0
  4  2  1  0
  4  6  1  0
  4  5  1  6
  6  7  2  0
  8  6  1  0
  8  9  1  0
  9 10  1  1
 10 11  1  0
 11 12  2  0
 12 13  1  0
 14 13  1  0
 15 11  1  0
 15 14  2  0
 16 17  2  0
 16  9  1  0
 18 16  1  0
 19 18  1  0
 19 20  1  1
 21 20  1  0
 22 19  1  0
 22 24  1  0
 23 22  2  0
M  END
$$$$
