VHC.pdb
     RDKit          3D

 24 24  0  0  1  0  0  0  0  0999 V2000
    7.2762  -13.1594   21.1639 C   0  0  0  0  0  0  0  0  0  0  0  0
    8.5795  -13.3659   20.3924 C   0  0  2  0  0  0  0  0  0  0  0  0
    8.4231  -12.6246   19.0847 C   0  0  0  0  0  0  0  0  0  0  0  0
    8.7429  -14.8454   20.2047 C   0  0  2  0  0  0  0  0  0  0  0  0
    7.7425  -15.2940   19.2729 N   0  0  0  0  0  0  0  0  0  0  0  0
    8.7481  -15.6119   21.4496 C   0  0  0  0  0  0  0  0  0  0  0  0
    7.6796  -16.0628   21.9134 O   0  0  0  0  0  0  0  0  0  0  0  0
    9.9543  -15.8541   22.1448 N   0  0  0  0  0  0  0  0  0  0  0  0
   10.0414  -16.5938   23.3947 C   0  0  1  0  0  0  0  0  0  0  0  0
   10.9409  -17.7809   23.2909 C   0  0  0  0  0  0  0  0  0  0  0  0
   10.3632  -18.8834   22.4844 C   0  0  0  0  0  0  0  0  0  0  0  0
   10.6645  -19.0951   21.1525 C   0  0  0  0  0  0  0  0  0  0  0  0
    9.9731  -20.1671   20.7384 N   0  0  0  0  0  0  0  0  0  0  0  0
    9.2576  -20.6211   21.7693 C   0  0  0  0  0  0  0  0  0  0  0  0
    9.4900  -19.8422   22.8412 N   0  0  0  0  0  0  0  0  0  0  0  0
   10.5387  -15.7130   24.4786 C   0  0  0  0  0  0  0  0  0  0  0  0
   10.9264  -14.5478   24.3144 O   0  0  0  0  0  0  0  0  0  0  0  0
   10.5694  -16.2597   25.8142 N   0  0  0  0  0  0  0  0  0  0  0  0
   10.5566  -15.3864   26.9756 C   0  0  1  0  0  0  0  0  0  0  0  0
    9.1739  -14.7276   26.9956 C   0  0  0  0  0  0  0  0  0  0  0  0
    9.0840  -13.6067   28.4160 S   0  0  0  0  0  0  0  0  0  0  0  0
   10.7481  -16.1839   28.2134 C   0  0  0  0  0  0  0  0  0  0  0  0
   11.3439  -15.6414   29.1704 O   0  0  0  0  0  0  0  0  0  0  0  0
   10.2935  -17.4948   28.3418 O   0  0  0  0  0  0  0  0  0  0  0  0
  2  1  1  1
  2  3  1  0
  4  2  1  0
  4  6  1  0
  4  5  1  6
  6  7  2  0
  8  6  1  0
  8  9  1  0
  9 10  1  6
 10 11  1  0
 11 12  2  0
 12 13  1  0
 14 13  1  0
 15 11  1  0
 15 14  2  0
 16 17  2  0
 16  9  1  0
 18 16  1  0
 19 18  1  0
 19 20  1  1
 21 20  1  0
 22 19  1  0
 22 24  1  0
 23 22  2  0
M  END
$$$$
