VHC.pdb
     RDKit          3D

 24 24  0  0  1  0  0  0  0  0999 V2000
    7.4881  -13.1157   21.7145 C   0  0  0  0  0  0  0  0  0  0  0  0
    8.5058  -13.4637   20.6285 C   0  0  2  0  0  0  0  0  0  0  0  0
    8.0606  -12.7394   19.3789 C   0  0  0  0  0  0  0  0  0  0  0  0
    8.4823  -14.9558   20.4737 C   0  0  2  0  0  0  0  0  0  0  0  0
    7.2234  -15.3272   19.8843 N   0  0  0  0  0  0  0  0  0  0  0  0
    8.7768  -15.6918   21.7020 C   0  0  0  0  0  0  0  0  0  0  0  0
    7.8536  -16.0035   22.4835 O   0  0  0  0  0  0  0  0  0  0  0  0
   10.1024  -16.0608   22.0239 N   0  0  0  0  0  0  0  0  0  0  0  0
   10.4824  -16.7564   23.2440 C   0  0  1  0  0  0  0  0  0  0  0  0
   11.6749  -17.6336   23.0501 C   0  0  0  0  0  0  0  0  0  0  0  0
   11.3793  -18.8571   22.2657 C   0  0  0  0  0  0  0  0  0  0  0  0
   10.2069  -19.5784   22.3876 C   0  0  0  0  0  0  0  0  0  0  0  0
   10.2702  -20.6152   21.5392 N   0  0  0  0  0  0  0  0  0  0  0  0
   11.4405  -20.5559   20.9006 C   0  0  0  0  0  0  0  0  0  0  0  0
   12.1252  -19.4840   21.3385 N   0  0  0  0  0  0  0  0  0  0  0  0
   10.7791  -15.7805   24.3199 C   0  0  0  0  0  0  0  0  0  0  0  0
   11.5684  -14.8320   24.2095 O   0  0  0  0  0  0  0  0  0  0  0  0
   10.0963  -15.9560   25.5795 N   0  0  0  0  0  0  0  0  0  0  0  0
   10.3625  -15.0690   26.6994 C   0  0  1  0  0  0  0  0  0  0  0  0
    9.0985  -14.2230   26.8802 C   0  0  0  0  0  0  0  0  0  0  0  0
    9.3452  -13.1001   28.2803 S   0  0  0  0  0  0  0  0  0  0  0  0
   10.6121  -15.8635   27.9289 C   0  0  0  0  0  0  0  0  0  0  0  0
   10.1434  -17.0223   27.9796 O   0  0  0  0  0  0  0  0  0  0  0  0
   11.3390  -15.3688   29.0098 O   0  0  0  0  0  0  0  0  0  0  0  0
  2  1  1  1
  2  3  1  0
  4  2  1  0
  4  6  1  0
  4  5  1  1
  6  7  2  0
  8  6  1  0
  8  9  1  0
  9 10  1  6
 10 11  1  0
 11 12  2  0
 12 13  1  0
 14 13  1  0
 15 11  1  0
 15 14  2  0
 16 17  2  0
 16  9  1  0
 18 16  1  0
 19 18  1  0
 19 20  1  1
 21 20  1  0
 22 19  1  0
 22 24  1  0
 23 22  2  0
M  END
$$$$
