VHC.pdb
     RDKit          3D

 24 24  0  0  1  0  0  0  0  0999 V2000
    7.8948  -12.6035   17.9558 C   0  0  0  0  0  0  0  0  0  0  0  0
    7.8049  -13.5859   19.1233 C   0  0  2  0  0  0  0  0  0  0  0  0
    8.4817  -12.9165   20.2972 C   0  0  0  0  0  0  0  0  0  0  0  0
    8.5031  -14.8409   18.6893 C   0  0  2  0  0  0  0  0  0  0  0  0
    7.8094  -15.3688   17.5446 N   0  0  0  0  0  0  0  0  0  0  0  0
    8.6822  -15.8274   19.7532 C   0  0  0  0  0  0  0  0  0  0  0  0
    7.7247  -16.5451   20.1113 O   0  0  0  0  0  0  0  0  0  0  0  0
    9.9336  -15.9847   20.3905 N   0  0  0  0  0  0  0  0  0  0  0  0
   10.1914  -16.9389   21.4581 C   0  0  1  0  0  0  0  0  0  0  0  0
   11.3452  -17.8359   21.1522 C   0  0  0  0  0  0  0  0  0  0  0  0
   11.0887  -18.7505   20.0132 C   0  0  0  0  0  0  0  0  0  0  0  0
   10.1614  -19.7744   20.0492 C   0  0  0  0  0  0  0  0  0  0  0  0
   10.1880  -20.3971   18.8616 N   0  0  0  0  0  0  0  0  0  0  0  0
   11.0992  -19.7914   18.0976 C   0  0  0  0  0  0  0  0  0  0  0  0
   11.6550  -18.7833   18.7936 N   0  0  0  0  0  0  0  0  0  0  0  0
   10.4665  -16.2258   22.7284 C   0  0  0  0  0  0  0  0  0  0  0  0
   11.4987  -15.5819   22.9629 O   0  0  0  0  0  0  0  0  0  0  0  0
    9.4560  -16.2921   23.7570 N   0  0  0  0  0  0  0  0  0  0  0  0
    9.6974  -15.7271   25.0739 C   0  0  1  0  0  0  0  0  0  0  0  0
    8.3194  -15.5524   25.7195 C   0  0  0  0  0  0  0  0  0  0  0  0
    7.3387  -14.4202   24.7004 S   0  0  0  0  0  0  0  0  0  0  0  0
   10.5149  -16.6632   25.8866 C   0  0  0  0  0  0  0  0  0  0  0  0
   10.7544  -17.7942   25.4086 O   0  0  0  0  0  0  0  0  0  0  0  0
   11.0155  -16.3286   27.1433 O   0  0  0  0  0  0  0  0  0  0  0  0
  2  1  1  6
  2  3  1  0
  4  2  1  0
  4  6  1  0
  4  5  1  6
  6  7  2  0
  8  6  1  0
  8  9  1  0
  9 10  1  6
 10 11  1  0
 11 12  2  0
 12 13  1  0
 14 13  1  0
 15 11  1  0
 15 14  2  0
 16 17  2  0
 16  9  1  0
 18 16  1  0
 19 18  1  0
 19 20  1  1
 21 20  1  0
 22 19  1  0
 22 24  1  0
 23 22  2  0
M  END
$$$$
