YGW.pdb
     RDKit          3D

 31 33  0  0  1  0  0  0  0  0999 V2000
    8.9427  -11.6012   20.3477 O   0  0  0  0  0  0  0  0  0  0  0  0
    8.3021  -12.8276   20.3279 C   0  0  0  0  0  0  0  0  0  0  0  0
    7.9778  -13.4970   21.4836 C   0  0  0  0  0  0  0  0  0  0  0  0
    7.3444  -14.7096   21.4630 C   0  0  0  0  0  0  0  0  0  0  0  0
    7.0342  -15.2531   20.2379 C   0  0  0  0  0  0  0  0  0  0  0  0
    6.3478  -16.5679   20.1604 C   0  0  0  0  0  0  0  0  0  0  0  0
    6.9058  -17.5423   21.1768 C   0  0  2  0  0  0  0  0  0  0  0  0
    6.5431  -17.2053   22.5190 N   0  0  0  0  0  0  0  0  0  0  0  0
    8.3654  -17.7114   21.0446 C   0  0  0  0  0  0  0  0  0  0  0  0
    8.8933  -17.6371   19.8908 O   0  0  0  0  0  0  0  0  0  0  0  0
    7.3595  -14.5806   19.0602 C   0  0  0  0  0  0  0  0  0  0  0  0
    7.9964  -13.3612   19.0834 C   0  0  0  0  0  0  0  0  0  0  0  0
    9.2392  -17.9546   22.1252 N   0  0  0  0  0  0  0  0  0  0  0  0
   10.0028  -16.8885   22.7635 C   0  0  0  0  0  0  0  0  0  0  0  0
    9.8679  -16.9657   24.2472 C   0  0  0  0  0  0  0  0  0  0  0  0
    9.0282  -17.7574   24.7260 O   0  0  0  0  0  0  0  0  0  0  0  0
   10.6493  -16.1820   25.1236 N   0  0  0  0  0  0  0  0  0  0  0  0
   10.5252  -16.1606   26.5701 C   0  0  1  0  0  0  0  0  0  0  0  0
    9.1373  -16.5385   26.9288 C   0  0  0  0  0  0  0  0  0  0  0  0
    8.0520  -15.7225   26.4055 C   0  0  0  0  0  0  0  0  0  0  0  0
    6.8348  -16.1288   25.8445 C   0  0  0  0  0  0  0  0  0  0  0  0
    6.1414  -15.0683   25.4689 N   0  0  0  0  0  0  0  0  0  0  0  0
    6.8199  -13.9250   25.7426 C   0  0  0  0  0  0  0  0  0  0  0  0
    6.4700  -12.6083   25.5331 C   0  0  0  0  0  0  0  0  0  0  0  0
    7.3546  -11.6293   25.9280 C   0  0  0  0  0  0  0  0  0  0  0  0
    8.5661  -11.9922   26.5220 C   0  0  0  0  0  0  0  0  0  0  0  0
    8.8725  -13.3098   26.7099 C   0  0  0  0  0  0  0  0  0  0  0  0
    8.0064  -14.3276   26.3244 C   0  0  0  0  0  0  0  0  0  0  0  0
   11.6220  -16.7496   27.3118 C   0  0  0  0  0  0  0  0  0  0  0  0
   12.6714  -17.1496   26.7631 O   0  0  0  0  0  0  0  0  0  0  0  0
   11.5637  -16.8969   28.6876 O   0  0  0  0  0  0  0  0  0  0  0  0
  2  1  1  0
  3  2  2  0
  4  3  1  0
  5  4  2  0
  5 11  1  0
  6  5  1  0
  7  9  1  0
  7  8  1  1
  7  6  1  0
  9 13  1  0
 10  9  2  0
 11 12  2  0
 12  2  1  0
 13 14  1  0
 15 14  1  0
 16 15  2  0
 17 15  1  0
 18 19  1  6
 18 17  1  0
 19 20  1  0
 20 21  2  0
 21 22  1  0
 23 22  1  0
 24 23  2  0
 25 24  1  0
 26 27  1  0
 26 25  2  0
 27 28  2  0
 28 20  1  0
 28 23  1  0
 29 18  1  0
 29 31  1  0
 30 29  2  0
M  END
$$$$
