YGW.pdb
     RDKit          3D

 31 33  0  0  1  0  0  0  0  0999 V2000
    7.5952  -11.9693   16.3541 O   0  0  0  0  0  0  0  0  0  0  0  0
    7.6407  -12.9393   17.3399 C   0  0  0  0  0  0  0  0  0  0  0  0
    7.2192  -14.2275   17.1119 C   0  0  0  0  0  0  0  0  0  0  0  0
    7.2645  -15.1860   18.0873 C   0  0  0  0  0  0  0  0  0  0  0  0
    7.7498  -14.8248   19.3227 C   0  0  0  0  0  0  0  0  0  0  0  0
    7.8186  -15.8273   20.4164 C   0  0  0  0  0  0  0  0  0  0  0  0
    9.2411  -16.2914   20.6507 C   0  0  2  0  0  0  0  0  0  0  0  0
    9.9474  -16.5384   19.4312 N   0  0  0  0  0  0  0  0  0  0  0  0
    9.3059  -17.4584   21.5509 C   0  0  0  0  0  0  0  0  0  0  0  0
    9.9974  -18.4671   21.2049 O   0  0  0  0  0  0  0  0  0  0  0  0
    8.1796  -13.5199   19.5627 C   0  0  0  0  0  0  0  0  0  0  0  0
    8.1331  -12.5577   18.5803 C   0  0  0  0  0  0  0  0  0  0  0  0
    8.6442  -17.5418   22.7941 N   0  0  0  0  0  0  0  0  0  0  0  0
    9.1973  -18.2832   23.9218 C   0  0  0  0  0  0  0  0  0  0  0  0
    9.9475  -17.3684   24.8305 C   0  0  0  0  0  0  0  0  0  0  0  0
   10.9907  -16.8305   24.4018 O   0  0  0  0  0  0  0  0  0  0  0  0
    9.5243  -17.0903   26.1484 N   0  0  0  0  0  0  0  0  0  0  0  0
   10.2833  -16.3439   27.1358 C   0  0  1  0  0  0  0  0  0  0  0  0
    9.3397  -15.5244   27.9332 C   0  0  0  0  0  0  0  0  0  0  0  0
    8.1061  -15.0905   27.2946 C   0  0  0  0  0  0  0  0  0  0  0  0
    6.9856  -15.8495   26.9344 C   0  0  0  0  0  0  0  0  0  0  0  0
    6.0898  -15.0721   26.3515 N   0  0  0  0  0  0  0  0  0  0  0  0
    6.5318  -13.7905   26.2849 C   0  0  0  0  0  0  0  0  0  0  0  0
    5.9241  -12.6628   25.7758 C   0  0  0  0  0  0  0  0  0  0  0  0
    6.6026  -11.4668   25.8540 C   0  0  0  0  0  0  0  0  0  0  0  0
    7.8708  -11.4292   26.4391 C   0  0  0  0  0  0  0  0  0  0  0  0
    8.4356  -12.5714   26.9305 C   0  0  0  0  0  0  0  0  0  0  0  0
    7.7832  -13.7984   26.8699 C   0  0  0  0  0  0  0  0  0  0  0  0
   11.3246  -17.0780   27.8262 C   0  0  0  0  0  0  0  0  0  0  0  0
   12.1372  -16.5301   28.6020 O   0  0  0  0  0  0  0  0  0  0  0  0
   11.4709  -18.4453   27.6627 O   0  0  0  0  0  0  0  0  0  0  0  0
  2  1  1  0
  3  2  2  0
  4  3  1  0
  5  4  2  0
  5 11  1  0
  6  5  1  0
  7  9  1  0
  7  8  1  6
  7  6  1  0
  9 13  1  0
 10  9  2  0
 11 12  2  0
 12  2  1  0
 13 14  1  0
 15 14  1  0
 16 15  2  0
 17 15  1  0
 18 19  1  1
 18 17  1  0
 19 20  1  0
 20 21  2  0
 21 22  1  0
 23 22  1  0
 24 23  2  0
 25 24  1  0
 26 27  1  0
 26 25  2  0
 27 28  2  0
 28 20  1  0
 28 23  1  0
 29 18  1  0
 29 31  1  0
 30 29  2  0
M  END
$$$$
