YGW.pdb
     RDKit          3D

 31 33  0  0  1  0  0  0  0  0999 V2000
    7.2254  -12.7705   15.7880 O   0  0  0  0  0  0  0  0  0  0  0  0
    7.6671  -13.2402   17.0123 C   0  0  0  0  0  0  0  0  0  0  0  0
    6.8666  -13.2229   18.1293 C   0  0  0  0  0  0  0  0  0  0  0  0
    7.3043  -13.6875   19.3395 C   0  0  0  0  0  0  0  0  0  0  0  0
    8.5862  -14.1809   19.4142 C   0  0  0  0  0  0  0  0  0  0  0  0
    9.1103  -14.6961   20.7048 C   0  0  0  0  0  0  0  0  0  0  0  0
    8.9428  -16.1978   20.8083 C   0  0  2  0  0  0  0  0  0  0  0  0
    7.5733  -16.6051   20.7364 N   0  0  0  0  0  0  0  0  0  0  0  0
    9.6022  -16.7513   22.0064 C   0  0  0  0  0  0  0  0  0  0  0  0
   10.8517  -16.5767   22.1593 O   0  0  0  0  0  0  0  0  0  0  0  0
    9.4054  -14.2023   18.2857 C   0  0  0  0  0  0  0  0  0  0  0  0
    8.9630  -13.7345   17.0697 C   0  0  0  0  0  0  0  0  0  0  0  0
    8.9366  -17.4756   23.0177 N   0  0  0  0  0  0  0  0  0  0  0  0
    9.6564  -18.1780   24.0739 C   0  0  0  0  0  0  0  0  0  0  0  0
   10.1302  -17.2165   25.1115 C   0  0  0  0  0  0  0  0  0  0  0  0
   10.9974  -16.3764   24.7900 O   0  0  0  0  0  0  0  0  0  0  0  0
    9.6373  -17.2215   26.4345 N   0  0  0  0  0  0  0  0  0  0  0  0
   10.2269  -16.5100   27.5545 C   0  0  1  0  0  0  0  0  0  0  0  0
    9.3625  -15.3513   27.8831 C   0  0  0  0  0  0  0  0  0  0  0  0
    8.1767  -15.1329   27.0684 C   0  0  0  0  0  0  0  0  0  0  0  0
    7.2303  -16.0635   26.6216 C   0  0  0  0  0  0  0  0  0  0  0  0
    6.3209  -15.4536   25.8816 N   0  0  0  0  0  0  0  0  0  0  0  0
    6.5856  -14.1257   25.7869 C   0  0  0  0  0  0  0  0  0  0  0  0
    5.9005  -13.1242   25.1329 C   0  0  0  0  0  0  0  0  0  0  0  0
    6.3899  -11.8395   25.2167 C   0  0  0  0  0  0  0  0  0  0  0  0
    7.5515  -11.5895   25.9519 C   0  0  0  0  0  0  0  0  0  0  0  0
    8.1988  -12.6126   26.5839 C   0  0  0  0  0  0  0  0  0  0  0  0
    7.7370  -13.9232   26.5228 C   0  0  0  0  0  0  0  0  0  0  0  0
   10.7321  -17.3319   28.6358 C   0  0  0  0  0  0  0  0  0  0  0  0
   10.5096  -18.5595   28.7125 O   0  0  0  0  0  0  0  0  0  0  0  0
   11.5027  -16.7913   29.6514 O   0  0  0  0  0  0  0  0  0  0  0  0
  2  1  1  0
  3  2  2  0
  4  3  1  0
  5  4  2  0
  5 11  1  0
  6  5  1  0
  7  9  1  0
  7  8  1  1
  7  6  1  0
  9 13  1  0
 10  9  2  0
 11 12  2  0
 12  2  1  0
 13 14  1  0
 15 14  1  0
 16 15  2  0
 17 15  1  0
 18 19  1  1
 18 17  1  0
 19 20  1  0
 20 21  2  0
 21 22  1  0
 23 22  1  0
 24 23  2  0
 25 24  1  0
 26 27  1  0
 26 25  2  0
 27 28  2  0
 28 20  1  0
 28 23  1  0
 29 18  1  0
 29 31  1  0
 30 29  2  0
M  END
$$$$
