YGW.pdb
     RDKit          3D

 31 33  0  0  1  0  0  0  0  0999 V2000
    8.5632  -13.0795   14.7700 O   0  0  0  0  0  0  0  0  0  0  0  0
    8.1243  -13.6072   15.9715 C   0  0  0  0  0  0  0  0  0  0  0  0
    7.5015  -14.8302   16.0439 C   0  0  0  0  0  0  0  0  0  0  0  0
    7.0679  -15.3512   17.2324 C   0  0  0  0  0  0  0  0  0  0  0  0
    7.2729  -14.6102   18.3731 C   0  0  0  0  0  0  0  0  0  0  0  0
    6.8198  -15.1299   19.6885 C   0  0  0  0  0  0  0  0  0  0  0  0
    7.9947  -15.4812   20.5774 C   0  0  2  0  0  0  0  0  0  0  0  0
    8.9642  -16.2958   19.9117 N   0  0  0  0  0  0  0  0  0  0  0  0
    7.5678  -16.0921   21.8505 C   0  0  0  0  0  0  0  0  0  0  0  0
    6.7830  -15.4455   22.6129 O   0  0  0  0  0  0  0  0  0  0  0  0
    7.9040  -13.3682   18.3088 C   0  0  0  0  0  0  0  0  0  0  0  0
    8.3393  -12.8463   17.1124 C   0  0  0  0  0  0  0  0  0  0  0  0
    7.9733  -17.3679   22.2962 N   0  0  0  0  0  0  0  0  0  0  0  0
    7.5421  -17.9183   23.5761 C   0  0  0  0  0  0  0  0  0  0  0  0
    8.5041  -17.5480   24.6545 C   0  0  0  0  0  0  0  0  0  0  0  0
    8.6978  -18.3625   25.5820 O   0  0  0  0  0  0  0  0  0  0  0  0
    9.1987  -16.3190   24.6648 N   0  0  0  0  0  0  0  0  0  0  0  0
   10.1148  -15.8791   25.7018 C   0  0  1  0  0  0  0  0  0  0  0  0
    9.3590  -15.7416   26.9698 C   0  0  0  0  0  0  0  0  0  0  0  0
    8.0384  -15.1328   26.9134 C   0  0  0  0  0  0  0  0  0  0  0  0
    6.7841  -15.7522   26.8474 C   0  0  0  0  0  0  0  0  0  0  0  0
    5.8364  -14.8333   26.7840 N   0  0  0  0  0  0  0  0  0  0  0  0
    6.3704  -13.5856   26.8031 C   0  0  0  0  0  0  0  0  0  0  0  0
    5.7563  -12.3520   26.7684 C   0  0  0  0  0  0  0  0  0  0  0  0
    6.5509  -11.2282   26.8182 C   0  0  0  0  0  0  0  0  0  0  0  0
    7.9387  -11.3668   26.9013 C   0  0  0  0  0  0  0  0  0  0  0  0
    8.5051  -12.6091   26.9326 C   0  0  0  0  0  0  0  0  0  0  0  0
    7.7373  -13.7680   26.8836 C   0  0  0  0  0  0  0  0  0  0  0  0
   11.4076  -16.5332   25.7283 C   0  0  0  0  0  0  0  0  0  0  0  0
   12.2554  -16.3191   26.6214 O   0  0  0  0  0  0  0  0  0  0  0  0
   11.7726  -17.4463   24.7530 O   0  0  0  0  0  0  0  0  0  0  0  0
  2  1  1  0
  3  2  2  0
  4  3  1  0
  5  4  2  0
  5 11  1  0
  6  5  1  0
  7  9  1  0
  7  8  1  6
  7  6  1  0
  9 13  1  0
 10  9  2  0
 11 12  2  0
 12  2  1  0
 13 14  1  0
 15 14  1  0
 16 15  2  0
 17 15  1  0
 18 19  1  1
 18 17  1  0
 19 20  1  0
 20 21  2  0
 21 22  1  0
 23 22  1  0
 24 23  2  0
 25 24  1  0
 26 27  1  0
 26 25  2  0
 27 28  2  0
 28 20  1  0
 28 23  1  0
 29 18  1  0
 29 31  1  0
 30 29  2  0
M  END
$$$$
