YGW.pdb
     RDKit          3D

 31 33  0  0  1  0  0  0  0  0999 V2000
    8.5683  -11.5159   20.5742 O   0  0  0  0  0  0  0  0  0  0  0  0
    8.3229  -12.8583   20.3455 C   0  0  0  0  0  0  0  0  0  0  0  0
    9.1334  -13.8429   20.8579 C   0  0  0  0  0  0  0  0  0  0  0  0
    8.8899  -15.1701   20.6313 C   0  0  0  0  0  0  0  0  0  0  0  0
    7.7965  -15.5024   19.8656 C   0  0  0  0  0  0  0  0  0  0  0  0
    7.4888  -16.9287   19.5886 C   0  0  0  0  0  0  0  0  0  0  0  0
    6.6818  -17.5471   20.7112 C   0  0  2  0  0  0  0  0  0  0  0  0
    5.4420  -16.8694   20.9357 N   0  0  0  0  0  0  0  0  0  0  0  0
    7.4601  -17.6637   21.9590 C   0  0  0  0  0  0  0  0  0  0  0  0
    7.0827  -17.0149   22.9846 O   0  0  0  0  0  0  0  0  0  0  0  0
    6.9687  -14.5098   19.3417 C   0  0  0  0  0  0  0  0  0  0  0  0
    7.2155  -13.1757   19.5710 C   0  0  0  0  0  0  0  0  0  0  0  0
    8.6170  -18.4582   22.1037 N   0  0  0  0  0  0  0  0  0  0  0  0
    9.9556  -17.9362   21.8533 C   0  0  0  0  0  0  0  0  0  0  0  0
   10.5068  -17.2997   23.0848 C   0  0  0  0  0  0  0  0  0  0  0  0
   11.7193  -16.9988   23.1051 O   0  0  0  0  0  0  0  0  0  0  0  0
    9.7132  -17.0268   24.2201 N   0  0  0  0  0  0  0  0  0  0  0  0
   10.2054  -16.5185   25.4880 C   0  0  1  0  0  0  0  0  0  0  0  0
    9.7813  -15.1045   25.6243 C   0  0  0  0  0  0  0  0  0  0  0  0
    8.3630  -14.8326   25.8030 C   0  0  0  0  0  0  0  0  0  0  0  0
    7.2880  -15.7301   25.8161 C   0  0  0  0  0  0  0  0  0  0  0  0
    6.1564  -15.0674   25.9798 N   0  0  0  0  0  0  0  0  0  0  0  0
    6.3876  -13.7339   26.0841 C   0  0  0  0  0  0  0  0  0  0  0  0
    5.5092  -12.6886   26.2735 C   0  0  0  0  0  0  0  0  0  0  0  0
    6.0240  -11.4142   26.3613 C   0  0  0  0  0  0  0  0  0  0  0  0
    7.4034  -11.2179   26.2575 C   0  0  0  0  0  0  0  0  0  0  0  0
    8.2373  -12.2830   26.0695 C   0  0  0  0  0  0  0  0  0  0  0  0
    7.7565  -13.5848   25.9750 C   0  0  0  0  0  0  0  0  0  0  0  0
   10.0613  -17.4025   26.6271 C   0  0  0  0  0  0  0  0  0  0  0  0
    9.3529  -18.4319   26.5987 O   0  0  0  0  0  0  0  0  0  0  0  0
   10.7153  -17.1501   27.8215 O   0  0  0  0  0  0  0  0  0  0  0  0
  2  1  1  0
  3  2  2  0
  4  3  1  0
  5  4  2  0
  5 11  1  0
  6  5  1  0
  7  9  1  0
  7  8  1  1
  7  6  1  0
  9 13  1  0
 10  9  2  0
 11 12  2  0
 12  2  1  0
 13 14  1  0
 15 14  1  0
 16 15  2  0
 17 15  1  0
 18 19  1  1
 18 17  1  0
 19 20  1  0
 20 21  2  0
 21 22  1  0
 23 22  1  0
 24 23  2  0
 25 24  1  0
 26 27  1  0
 26 25  2  0
 27 28  2  0
 28 20  1  0
 28 23  1  0
 29 18  1  0
 29 31  1  0
 30 29  2  0
M  END
$$$$
