YGW.pdb
     RDKit          3D

 31 33  0  0  1  0  0  0  0  0999 V2000
    9.0670  -13.1723   16.4902 O   0  0  0  0  0  0  0  0  0  0  0  0
    8.3738  -13.8716   17.4624 C   0  0  0  0  0  0  0  0  0  0  0  0
    8.2144  -15.2354   17.4022 C   0  0  0  0  0  0  0  0  0  0  0  0
    7.5287  -15.9260   18.3640 C   0  0  0  0  0  0  0  0  0  0  0  0
    6.9933  -15.2120   19.4107 C   0  0  0  0  0  0  0  0  0  0  0  0
    6.2387  -15.9137   20.4802 C   0  0  0  0  0  0  0  0  0  0  0  0
    6.9269  -15.7761   21.8224 C   0  0  2  0  0  0  0  0  0  0  0  0
    7.2302  -14.4165   22.1485 N   0  0  0  0  0  0  0  0  0  0  0  0
    8.1258  -16.6297   21.9245 C   0  0  0  0  0  0  0  0  0  0  0  0
    7.9820  -17.8911   21.9837 O   0  0  0  0  0  0  0  0  0  0  0  0
    7.1503  -13.8279   19.4797 C   0  0  0  0  0  0  0  0  0  0  0  0
    7.8403  -13.1355   18.5113 C   0  0  0  0  0  0  0  0  0  0  0  0
    9.4490  -16.1418   21.9623 N   0  0  0  0  0  0  0  0  0  0  0  0
   10.5855  -16.9986   22.2808 C   0  0  0  0  0  0  0  0  0  0  0  0
   10.9835  -16.8288   23.7085 C   0  0  0  0  0  0  0  0  0  0  0  0
   12.1589  -16.4876   23.9600 O   0  0  0  0  0  0  0  0  0  0  0  0
   10.0862  -17.0383   24.7781 N   0  0  0  0  0  0  0  0  0  0  0  0
   10.3271  -16.6716   26.1622 C   0  0  1  0  0  0  0  0  0  0  0  0
    9.9782  -15.2414   26.3374 C   0  0  0  0  0  0  0  0  0  0  0  0
    8.5820  -14.8578   26.1926 C   0  0  0  0  0  0  0  0  0  0  0  0
    7.4791  -15.6538   25.8587 C   0  0  0  0  0  0  0  0  0  0  0  0
    6.3902  -14.9067   25.8064 N   0  0  0  0  0  0  0  0  0  0  0  0
    6.6783  -13.6112   26.0911 C   0  0  0  0  0  0  0  0  0  0  0  0
    5.8537  -12.5089   26.1616 C   0  0  0  0  0  0  0  0  0  0  0  0
    6.4159  -11.2961   26.4935 C   0  0  0  0  0  0  0  0  0  0  0  0
    7.7878  -11.2170   26.7461 C   0  0  0  0  0  0  0  0  0  0  0  0
    8.5678  -12.3351   26.6643 C   0  0  0  0  0  0  0  0  0  0  0  0
    8.0382  -13.5775   26.3316 C   0  0  0  0  0  0  0  0  0  0  0  0
    9.8835  -17.6247   27.1596 C   0  0  0  0  0  0  0  0  0  0  0  0
    9.0889  -18.5540   26.9002 O   0  0  0  0  0  0  0  0  0  0  0  0
   10.3284  -17.5558   28.4692 O   0  0  0  0  0  0  0  0  0  0  0  0
  2  1  1  0
  3  2  2  0
  4  3  1  0
  5  4  2  0
  5 11  1  0
  6  5  1  0
  7  9  1  0
  7  8  1  6
  7  6  1  0
  9 13  1  0
 10  9  2  0
 11 12  2  0
 12  2  1  0
 13 14  1  0
 15 14  1  0
 16 15  2  0
 17 15  1  0
 18 19  1  1
 18 17  1  0
 19 20  1  0
 20 21  2  0
 21 22  1  0
 23 22  1  0
 24 23  2  0
 25 24  1  0
 26 27  1  0
 26 25  2  0
 27 28  2  0
 28 20  1  0
 28 23  1  0
 29 18  1  0
 29 31  1  0
 30 29  2  0
M  END
$$$$
