YGW.pdb
     RDKit          3D

 31 33  0  0  1  0  0  0  0  0999 V2000
    6.1974  -24.2722   29.2236 O   0  0  0  0  0  0  0  0  0  0  0  0
    6.4995  -23.6540   28.0231 C   0  0  0  0  0  0  0  0  0  0  0  0
    5.8414  -23.9679   26.8581 C   0  0  0  0  0  0  0  0  0  0  0  0
    6.1409  -23.3561   25.6714 C   0  0  0  0  0  0  0  0  0  0  0  0
    7.1329  -22.4031   25.6709 C   0  0  0  0  0  0  0  0  0  0  0  0
    7.4974  -21.7102   24.4088 C   0  0  0  0  0  0  0  0  0  0  0  0
    6.9399  -20.3025   24.3714 C   0  0  2  0  0  0  0  0  0  0  0  0
    5.5096  -20.2765   24.3831 N   0  0  0  0  0  0  0  0  0  0  0  0
    7.4789  -19.5190   23.2435 C   0  0  0  0  0  0  0  0  0  0  0  0
    8.7041  -19.6489   22.9315 O   0  0  0  0  0  0  0  0  0  0  0  0
    7.8058  -22.0783   26.8486 C   0  0  0  0  0  0  0  0  0  0  0  0
    7.5029  -22.6949   28.0407 C   0  0  0  0  0  0  0  0  0  0  0  0
    6.7211  -18.6167   22.4676 N   0  0  0  0  0  0  0  0  0  0  0  0
    7.3001  -17.8682   21.3578 C   0  0  0  0  0  0  0  0  0  0  0  0
    8.2552  -16.8397   21.8634 C   0  0  0  0  0  0  0  0  0  0  0  0
    8.8040  -16.0819   21.0353 O   0  0  0  0  0  0  0  0  0  0  0  0
    8.5591  -16.6928   23.2342 N   0  0  0  0  0  0  0  0  0  0  0  0
    9.5812  -15.8180   23.7801 C   0  0  1  0  0  0  0  0  0  0  0  0
    9.0164  -14.4526   23.9005 C   0  0  0  0  0  0  0  0  0  0  0  0
    7.8920  -14.2574   24.8034 C   0  0  0  0  0  0  0  0  0  0  0  0
    6.9758  -15.1997   25.2871 C   0  0  0  0  0  0  0  0  0  0  0  0
    6.0900  -14.6014   26.0643 N   0  0  0  0  0  0  0  0  0  0  0  0
    6.3432  -13.2708   26.1510 C   0  0  0  0  0  0  0  0  0  0  0  0
    5.6882  -12.2822   26.8538 C   0  0  0  0  0  0  0  0  0  0  0  0
    6.1762  -10.9966   26.7761 C   0  0  0  0  0  0  0  0  0  0  0  0
    7.3062  -10.7327   25.9978 C   0  0  0  0  0  0  0  0  0  0  0  0
    7.9237  -11.7431   25.3173 C   0  0  0  0  0  0  0  0  0  0  0  0
    7.4615  -13.0539   25.3696 C   0  0  0  0  0  0  0  0  0  0  0  0
   10.3536  -16.3527   24.8835 C   0  0  0  0  0  0  0  0  0  0  0  0
    9.9988  -17.3612   25.5310 O   0  0  0  0  0  0  0  0  0  0  0  0
   11.5447  -15.7672   25.2789 O   0  0  0  0  0  0  0  0  0  0  0  0
  2  1  1  0
  3  2  2  0
  4  3  1  0
  5  4  2  0
  5 11  1  0
  6  5  1  0
  7  9  1  0
  7  8  1  6
  7  6  1  0
  9 13  1  0
 10  9  2  0
 11 12  2  0
 12  2  1  0
 13 14  1  0
 15 14  1  0
 16 15  2  0
 17 15  1  0
 18 19  1  1
 18 17  1  0
 19 20  1  0
 20 21  2  0
 21 22  1  0
 23 22  1  0
 24 23  2  0
 25 24  1  0
 26 27  1  0
 26 25  2  0
 27 28  2  0
 28 20  1  0
 28 23  1  0
 29 18  1  0
 29 31  1  0
 30 29  2  0
M  END
$$$$
