YGW.pdb
     RDKit          3D

 31 33  0  0  1  0  0  0  0  0999 V2000
    7.9390  -12.7555   15.2079 O   0  0  0  0  0  0  0  0  0  0  0  0
    7.8178  -13.3348   16.4586 C   0  0  0  0  0  0  0  0  0  0  0  0
    7.3918  -14.6313   16.6209 C   0  0  0  0  0  0  0  0  0  0  0  0
    7.2722  -15.2034   17.8581 C   0  0  0  0  0  0  0  0  0  0  0  0
    7.5936  -14.4379   18.9549 C   0  0  0  0  0  0  0  0  0  0  0  0
    7.4796  -15.0109   20.3204 C   0  0  0  0  0  0  0  0  0  0  0  0
    8.8435  -15.2858   20.9190 C   0  0  2  0  0  0  0  0  0  0  0  0
    9.7375  -15.9057   19.9899 N   0  0  0  0  0  0  0  0  0  0  0  0
    8.7568  -16.0580   22.1730 C   0  0  0  0  0  0  0  0  0  0  0  0
    7.9395  -15.6853   23.0721 O   0  0  0  0  0  0  0  0  0  0  0  0
    8.0267  -13.1214   18.7995 C   0  0  0  0  0  0  0  0  0  0  0  0
    8.1462  -12.5483   17.5543 C   0  0  0  0  0  0  0  0  0  0  0  0
    9.5291  -17.2042   22.4564 N   0  0  0  0  0  0  0  0  0  0  0  0
    9.4740  -17.8797   23.7479 C   0  0  0  0  0  0  0  0  0  0  0  0
   10.0398  -17.0075   24.8179 C   0  0  0  0  0  0  0  0  0  0  0  0
   10.9846  -16.2446   24.5235 O   0  0  0  0  0  0  0  0  0  0  0  0
    9.5496  -17.0130   26.1418 N   0  0  0  0  0  0  0  0  0  0  0  0
   10.1546  -16.3209   27.2657 C   0  0  1  0  0  0  0  0  0  0  0  0
    9.1003  -15.5480   27.9649 C   0  0  0  0  0  0  0  0  0  0  0  0
    7.9632  -15.0852   27.1836 C   0  0  0  0  0  0  0  0  0  0  0  0
    6.8994  -15.8246   26.6518 C   0  0  0  0  0  0  0  0  0  0  0  0
    6.0901  -15.0224   25.9823 N   0  0  0  0  0  0  0  0  0  0  0  0
    6.5389  -13.7419   26.0195 C   0  0  0  0  0  0  0  0  0  0  0  0
    6.0059  -12.5939   25.4736 C   0  0  0  0  0  0  0  0  0  0  0  0
    6.6696  -11.4053   25.6826 C   0  0  0  0  0  0  0  0  0  0  0  0
    7.8489  -11.3954   26.4319 C   0  0  0  0  0  0  0  0  0  0  0  0
    8.3417  -12.5572   26.9540 C   0  0  0  0  0  0  0  0  0  0  0  0
    7.7014  -13.7774   26.7648 C   0  0  0  0  0  0  0  0  0  0  0  0
   11.0948  -17.0903   28.0556 C   0  0  0  0  0  0  0  0  0  0  0  0
   11.7936  -16.5822   28.9589 O   0  0  0  0  0  0  0  0  0  0  0  0
   11.2654  -18.4491   27.8497 O   0  0  0  0  0  0  0  0  0  0  0  0
  2  1  1  0
  3  2  2  0
  4  3  1  0
  5  4  2  0
  5 11  1  0
  6  5  1  0
  7  9  1  0
  7  8  1  6
  7  6  1  0
  9 13  1  0
 10  9  2  0
 11 12  2  0
 12  2  1  0
 13 14  1  0
 15 14  1  0
 16 15  2  0
 17 15  1  0
 18 19  1  1
 18 17  1  0
 19 20  1  0
 20 21  2  0
 21 22  1  0
 23 22  1  0
 24 23  2  0
 25 24  1  0
 26 27  1  0
 26 25  2  0
 27 28  2  0
 28 20  1  0
 28 23  1  0
 29 18  1  0
 29 31  1  0
 30 29  2  0
M  END
$$$$
