YGW.pdb
     RDKit          3D

 31 33  0  0  1  0  0  0  0  0999 V2000
    8.2433  -11.8519   18.7818 O   0  0  0  0  0  0  0  0  0  0  0  0
    8.0141  -13.1456   19.2162 C   0  0  0  0  0  0  0  0  0  0  0  0
    9.0013  -14.1017   19.2048 C   0  0  0  0  0  0  0  0  0  0  0  0
    8.7738  -15.3806   19.6345 C   0  0  0  0  0  0  0  0  0  0  0  0
    7.5125  -15.6932   20.0860 C   0  0  0  0  0  0  0  0  0  0  0  0
    7.2129  -17.0678   20.5620 C   0  0  0  0  0  0  0  0  0  0  0  0
    7.3637  -17.1761   22.0652 C   0  0  2  0  0  0  0  0  0  0  0  0
    6.2545  -16.6126   22.7716 N   0  0  0  0  0  0  0  0  0  0  0  0
    8.6414  -16.6116   22.5397 C   0  0  0  0  0  0  0  0  0  0  0  0
    8.6679  -15.4125   22.9604 O   0  0  0  0  0  0  0  0  0  0  0  0
    6.5049  -14.7292   20.1010 C   0  0  0  0  0  0  0  0  0  0  0  0
    6.7360  -13.4436   19.6684 C   0  0  0  0  0  0  0  0  0  0  0  0
    9.8631  -17.3168   22.5627 N   0  0  0  0  0  0  0  0  0  0  0  0
   11.1384  -16.6558   22.8150 C   0  0  0  0  0  0  0  0  0  0  0  0
   11.3276  -16.4266   24.2770 C   0  0  0  0  0  0  0  0  0  0  0  0
   12.4452  -16.0360   24.6764 O   0  0  0  0  0  0  0  0  0  0  0  0
   10.2965  -16.6338   25.2188 N   0  0  0  0  0  0  0  0  0  0  0  0
   10.4390  -16.5246   26.6597 C   0  0  1  0  0  0  0  0  0  0  0  0
    9.9444  -15.1923   27.0816 C   0  0  0  0  0  0  0  0  0  0  0  0
    8.5969  -14.8093   26.6876 C   0  0  0  0  0  0  0  0  0  0  0  0
    7.5962  -15.5898   26.0953 C   0  0  0  0  0  0  0  0  0  0  0  0
    6.5251  -14.8479   25.8744 N   0  0  0  0  0  0  0  0  0  0  0  0
    6.7274  -13.5710   26.2879 C   0  0  0  0  0  0  0  0  0  0  0  0
    5.8846  -12.4806   26.2608 C   0  0  0  0  0  0  0  0  0  0  0  0
    6.3479  -11.2875   26.7695 C   0  0  0  0  0  0  0  0  0  0  0  0
    7.6417  -11.2156   27.2922 C   0  0  0  0  0  0  0  0  0  0  0  0
    8.4433  -12.3213   27.2985 C   0  0  0  0  0  0  0  0  0  0  0  0
    8.0127  -13.5438   26.7936 C   0  0  0  0  0  0  0  0  0  0  0  0
   10.0471  -17.6891   27.4280 C   0  0  0  0  0  0  0  0  0  0  0  0
   10.3296  -17.8272   28.6377 O   0  0  0  0  0  0  0  0  0  0  0  0
    9.3246  -18.7212   26.8530 O   0  0  0  0  0  0  0  0  0  0  0  0
  2  1  1  0
  3  2  2  0
  4  3  1  0
  5  4  2  0
  5 11  1  0
  6  5  1  0
  7  9  1  0
  7  8  1  1
  7  6  1  0
  9 13  1  0
 10  9  2  0
 11 12  2  0
 12  2  1  0
 13 14  1  0
 15 14  1  0
 16 15  2  0
 17 15  1  0
 18 19  1  1
 18 17  1  0
 19 20  1  0
 20 21  2  0
 21 22  1  0
 23 22  1  0
 24 23  2  0
 25 24  1  0
 26 27  1  0
 26 25  2  0
 27 28  2  0
 28 20  1  0
 28 23  1  0
 29 18  1  0
 29 31  1  0
 30 29  2  0
M  END
$$$$
