YGW.pdb
     RDKit          3D

 31 33  0  0  1  0  0  0  0  0999 V2000
    6.8014  -20.9173   13.8478 O   0  0  0  0  0  0  0  0  0  0  0  0
    6.9897  -20.0817   14.9345 C   0  0  0  0  0  0  0  0  0  0  0  0
    7.9636  -20.3201   15.8745 C   0  0  0  0  0  0  0  0  0  0  0  0
    8.1491  -19.4932   16.9487 C   0  0  0  0  0  0  0  0  0  0  0  0
    7.3243  -18.3989   17.0687 C   0  0  0  0  0  0  0  0  0  0  0  0
    7.4832  -17.4707   18.2172 C   0  0  0  0  0  0  0  0  0  0  0  0
    7.6007  -18.2260   19.5248 C   0  0  2  0  0  0  0  0  0  0  0  0
    6.4492  -19.0284   19.8023 N   0  0  0  0  0  0  0  0  0  0  0  0
    7.9159  -17.3347   20.6573 C   0  0  0  0  0  0  0  0  0  0  0  0
    7.0442  -17.1588   21.5654 O   0  0  0  0  0  0  0  0  0  0  0  0
    6.3335  -18.1493   16.1194 C   0  0  0  0  0  0  0  0  0  0  0  0
    6.1489  -18.9823   15.0399 C   0  0  0  0  0  0  0  0  0  0  0  0
    9.1382  -16.6475   20.8127 N   0  0  0  0  0  0  0  0  0  0  0  0
    9.1984  -15.2519   21.2319 C   0  0  0  0  0  0  0  0  0  0  0  0
    9.4577  -15.1578   22.6981 C   0  0  0  0  0  0  0  0  0  0  0  0
    9.6592  -14.0285   23.1935 O   0  0  0  0  0  0  0  0  0  0  0  0
    9.4834  -16.2907   23.5400 N   0  0  0  0  0  0  0  0  0  0  0  0
   10.0019  -16.3195   24.8959 C   0  0  1  0  0  0  0  0  0  0  0  0
    8.8681  -16.5253   25.8287 C   0  0  0  0  0  0  0  0  0  0  0  0
    7.6836  -15.6980   25.6547 C   0  0  0  0  0  0  0  0  0  0  0  0
    6.4463  -16.0369   25.0932 C   0  0  0  0  0  0  0  0  0  0  0  0
    5.6493  -14.9827   25.1022 N   0  0  0  0  0  0  0  0  0  0  0  0
    6.2739  -13.9090   25.6494 C   0  0  0  0  0  0  0  0  0  0  0  0
    5.8174  -12.6265   25.8662 C   0  0  0  0  0  0  0  0  0  0  0  0
    6.6697  -11.7251   26.4645 C   0  0  0  0  0  0  0  0  0  0  0  0
    7.9562  -12.1292   26.8303 C   0  0  0  0  0  0  0  0  0  0  0  0
    8.3673  -13.4103   26.5960 C   0  0  0  0  0  0  0  0  0  0  0  0
    7.5370  -14.3497   25.9938 C   0  0  0  0  0  0  0  0  0  0  0  0
   11.2172  -17.0828   25.0966 C   0  0  0  0  0  0  0  0  0  0  0  0
   11.7133  -17.8096   24.2089 O   0  0  0  0  0  0  0  0  0  0  0  0
   11.9034  -17.0410   26.2988 O   0  0  0  0  0  0  0  0  0  0  0  0
  2  1  1  0
  3  2  2  0
  4  3  1  0
  5  4  2  0
  5 11  1  0
  6  5  1  0
  7  9  1  0
  7  8  1  1
  7  6  1  0
  9 13  1  0
 10  9  2  0
 11 12  2  0
 12  2  1  0
 13 14  1  0
 15 14  1  0
 16 15  2  0
 17 15  1  0
 18 19  1  1
 18 17  1  0
 19 20  1  0
 20 21  2  0
 21 22  1  0
 23 22  1  0
 24 23  2  0
 25 24  1  0
 26 27  1  0
 26 25  2  0
 27 28  2  0
 28 20  1  0
 28 23  1  0
 29 18  1  0
 29 31  1  0
 30 29  2  0
M  END
$$$$
