YGW.pdb
     RDKit          3D

 31 33  0  0  1  0  0  0  0  0999 V2000
   11.7710  -17.6168   29.6792 O   0  0  0  0  0  0  0  0  0  0  0  0
   10.6890  -17.9909   28.9021 C   0  0  0  0  0  0  0  0  0  0  0  0
   10.2604  -19.2948   28.8324 C   0  0  0  0  0  0  0  0  0  0  0  0
    9.1903  -19.6639   28.0637 C   0  0  0  0  0  0  0  0  0  0  0  0
    8.5420  -18.6830   27.3495 C   0  0  0  0  0  0  0  0  0  0  0  0
    7.3757  -19.0311   26.4985 C   0  0  0  0  0  0  0  0  0  0  0  0
    7.8156  -19.5900   25.1613 C   0  0  2  0  0  0  0  0  0  0  0  0
    8.9445  -18.8977   24.6199 N   0  0  0  0  0  0  0  0  0  0  0  0
    6.7077  -19.6470   24.1889 C   0  0  0  0  0  0  0  0  0  0  0  0
    6.2392  -20.7796   23.8527 O   0  0  0  0  0  0  0  0  0  0  0  0
    8.9702  -17.3573   27.4144 C   0  0  0  0  0  0  0  0  0  0  0  0
   10.0465  -16.9886   28.1882 C   0  0  0  0  0  0  0  0  0  0  0  0
    6.1153  -18.5149   23.5905 N   0  0  0  0  0  0  0  0  0  0  0  0
    6.3244  -18.1777   22.1871 C   0  0  0  0  0  0  0  0  0  0  0  0
    7.2718  -17.0322   22.0608 C   0  0  0  0  0  0  0  0  0  0  0  0
    7.1514  -16.2682   21.0794 O   0  0  0  0  0  0  0  0  0  0  0  0
    8.2923  -16.7820   23.0036 N   0  0  0  0  0  0  0  0  0  0  0  0
    9.1634  -15.6204   23.0121 C   0  0  1  0  0  0  0  0  0  0  0  0
    8.3220  -14.4011   22.9540 C   0  0  0  0  0  0  0  0  0  0  0  0
    7.4502  -14.1202   24.0848 C   0  0  0  0  0  0  0  0  0  0  0  0
    6.6327  -14.9983   24.8072 C   0  0  0  0  0  0  0  0  0  0  0  0
    5.9808  -14.3314   25.7436 N   0  0  0  0  0  0  0  0  0  0  0  0
    6.3051  -13.0137   25.7135 C   0  0  0  0  0  0  0  0  0  0  0  0
    5.8769  -11.9715   26.5075 C   0  0  0  0  0  0  0  0  0  0  0  0
    6.3886  -10.7160   26.2648 C   0  0  0  0  0  0  0  0  0  0  0  0
    7.3151  -10.5352   25.2347 C   0  0  0  0  0  0  0  0  0  0  0  0
    7.7112  -11.5965   24.4719 C   0  0  0  0  0  0  0  0  0  0  0  0
    7.2174  -12.8793   24.6849 C   0  0  0  0  0  0  0  0  0  0  0  0
   10.2689  -15.6606   23.9481 C   0  0  0  0  0  0  0  0  0  0  0  0
   11.1872  -14.8126   23.9466 O   0  0  0  0  0  0  0  0  0  0  0  0
   10.3625  -16.6530   24.9094 O   0  0  0  0  0  0  0  0  0  0  0  0
  2  1  1  0
  3  2  2  0
  4  3  1  0
  5  4  2  0
  5 11  1  0
  6  5  1  0
  7  9  1  0
  7  8  1  6
  7  6  1  0
  9 13  1  0
 10  9  2  0
 11 12  2  0
 12  2  1  0
 13 14  1  0
 15 14  1  0
 16 15  2  0
 17 15  1  0
 18 19  1  1
 18 17  1  0
 19 20  1  0
 20 21  2  0
 21 22  1  0
 23 22  1  0
 24 23  2  0
 25 24  1  0
 26 27  1  0
 26 25  2  0
 27 28  2  0
 28 20  1  0
 28 23  1  0
 29 18  1  0
 29 31  1  0
 30 29  2  0
M  END
$$$$
