YGW.pdb
     RDKit          3D

 31 33  0  0  1  0  0  0  0  0999 V2000
    7.8038  -11.3997   17.7519 O   0  0  0  0  0  0  0  0  0  0  0  0
    7.9202  -12.4746   18.6154 C   0  0  0  0  0  0  0  0  0  0  0  0
    6.8650  -13.3162   18.8747 C   0  0  0  0  0  0  0  0  0  0  0  0
    6.9809  -14.3788   19.7288 C   0  0  0  0  0  0  0  0  0  0  0  0
    8.1989  -14.5894   20.3326 C   0  0  0  0  0  0  0  0  0  0  0  0
    8.3771  -15.7281   21.2693 C   0  0  0  0  0  0  0  0  0  0  0  0
    9.3571  -16.7448   20.7218 C   0  0  2  0  0  0  0  0  0  0  0  0
    8.9742  -17.2412   19.4358 N   0  0  0  0  0  0  0  0  0  0  0  0
    9.6027  -17.8489   21.6688 C   0  0  0  0  0  0  0  0  0  0  0  0
    9.3715  -19.0426   21.2985 O   0  0  0  0  0  0  0  0  0  0  0  0
    9.2750  -13.7404   20.0752 C   0  0  0  0  0  0  0  0  0  0  0  0
    9.1560  -12.6724   19.2159 C   0  0  0  0  0  0  0  0  0  0  0  0
   10.0854  -17.6771   22.9833 N   0  0  0  0  0  0  0  0  0  0  0  0
    9.5799  -16.6333   23.8676 C   0  0  0  0  0  0  0  0  0  0  0  0
   10.4316  -16.5245   25.0876 C   0  0  0  0  0  0  0  0  0  0  0  0
   11.5732  -16.0298   24.9718 O   0  0  0  0  0  0  0  0  0  0  0  0
    9.9974  -16.9574   26.3592 N   0  0  0  0  0  0  0  0  0  0  0  0
   10.5459  -16.5183   27.6299 C   0  0  1  0  0  0  0  0  0  0  0  0
    9.6745  -15.4496   28.1742 C   0  0  0  0  0  0  0  0  0  0  0  0
    8.4108  -15.1914   27.5003 C   0  0  0  0  0  0  0  0  0  0  0  0
    7.4202  -16.0996   27.1063 C   0  0  0  0  0  0  0  0  0  0  0  0
    6.4403  -15.4538   26.4984 N   0  0  0  0  0  0  0  0  0  0  0  0
    6.6976  -14.1221   26.4469 C   0  0  0  0  0  0  0  0  0  0  0  0
    5.9510  -13.0892   25.9218 C   0  0  0  0  0  0  0  0  0  0  0  0
    6.4503  -11.8094   26.0217 C   0  0  0  0  0  0  0  0  0  0  0  0
    7.6830  -11.5956   26.6438 C   0  0  0  0  0  0  0  0  0  0  0  0
    8.3897  -12.6491   27.1498 C   0  0  0  0  0  0  0  0  0  0  0  0
    7.9201  -13.9558   27.0683 C   0  0  0  0  0  0  0  0  0  0  0  0
   11.0048  -17.5650   28.5208 C   0  0  0  0  0  0  0  0  0  0  0  0
   10.7401  -18.7728   28.3376 O   0  0  0  0  0  0  0  0  0  0  0  0
   11.7756  -17.2759   29.6344 O   0  0  0  0  0  0  0  0  0  0  0  0
  2  1  1  0
  3  2  2  0
  4  3  1  0
  5  4  2  0
  5 11  1  0
  6  5  1  0
  7  9  1  0
  7  8  1  6
  7  6  1  0
  9 13  1  0
 10  9  2  0
 11 12  2  0
 12  2  1  0
 13 14  1  0
 15 14  1  0
 16 15  2  0
 17 15  1  0
 18 19  1  1
 18 17  1  0
 19 20  1  0
 20 21  2  0
 21 22  1  0
 23 22  1  0
 24 23  2  0
 25 24  1  0
 26 27  1  0
 26 25  2  0
 27 28  2  0
 28 20  1  0
 28 23  1  0
 29 18  1  0
 29 31  1  0
 30 29  2  0
M  END
$$$$
