IDY.pdb
     RDKit          3D

 29 29  0  0  1  0  0  0  0  0999 V2000
   25.0895  -15.7637  -15.6003 C   0  0  0  0  0  0  0  0  0  0  0  0
   24.2651  -15.2691  -16.7630 C   0  0  0  0  0  0  0  0  0  0  0  0
   23.9741  -13.7911  -16.6977 C   0  0  2  0  0  0  0  0  0  0  0  0
   23.3682  -13.3858  -15.3785 C   0  0  0  0  0  0  0  0  0  0  0  0
   23.1532  -13.3498  -17.8786 C   0  0  2  0  0  0  0  0  0  0  0  0
   23.7051  -13.7338  -19.1269 N   0  0  0  0  0  0  0  0  0  0  0  0
   22.7745  -11.9326  -17.7605 C   0  0  0  0  0  0  0  0  0  0  0  0
   23.7021  -11.0811  -17.8819 O   0  0  0  0  0  0  0  0  0  0  0  0
   21.4914  -11.4135  -17.5266 N   0  0  0  0  0  0  0  0  0  0  0  0
   21.1890  -10.0302  -17.3079 C   0  0  1  0  0  0  0  0  0  0  0  0
   20.1017   -9.5732  -18.2382 C   0  0  0  0  0  0  0  0  0  0  0  0
   19.7733   -8.1345  -18.1102 C   0  0  0  0  0  0  0  0  0  0  0  0
   20.6550   -7.2485  -18.3415 O   0  0  0  0  0  0  0  0  0  0  0  0
   20.8485   -9.6690  -15.9418 C   0  0  0  0  0  0  0  0  0  0  0  0
   20.1164  -10.3193  -15.1522 O   0  0  0  0  0  0  0  0  0  0  0  0
   18.5327   -7.6349  -17.7428 O   0  0  0  0  0  0  0  0  0  0  0  0
   23.5141   -2.4015  -15.9038 O   0  0  0  0  0  0  0  0  0  0  0  0
   23.2683   -3.6676  -15.3429 C   0  0  0  0  0  0  0  0  0  0  0  0
   23.8694   -4.7881  -15.8739 C   0  0  0  0  0  0  0  0  0  0  0  0
   23.5844   -5.9979  -15.2746 C   0  0  0  0  0  0  0  0  0  0  0  0
   22.7375   -6.0938  -14.1925 C   0  0  0  0  0  0  0  0  0  0  0  0
   22.4778   -7.4078  -13.6064 C   0  0  0  0  0  0  0  0  0  0  0  0
   21.1772   -8.0431  -14.0452 C   0  0  2  0  0  0  0  0  0  0  0  0
   21.3981   -8.4549  -15.4408 N   0  0  0  0  0  0  0  0  0  0  0  0
   20.0353   -7.0945  -14.0335 C   0  0  0  0  0  0  0  0  0  0  0  0
   19.3932   -6.7054  -12.8707 O   0  0  0  0  0  0  0  0  0  0  0  0
   22.1512   -4.9588  -13.6832 C   0  0  0  0  0  0  0  0  0  0  0  0
   22.4220   -3.7478  -14.2647 C   0  0  0  0  0  0  0  0  0  0  0  0
   19.5845   -6.5851  -15.1103 O   0  0  0  0  0  0  0  0  0  0  0  0
  1  2  1  0
  2  3  1  0
  3  4  1  1
  5  6  1  6
  5  3  1  0
  7  8  2  0
  7  5  1  0
  9  7  1  0
 10  9  1  0
 10 11  1  6
 12 16  1  0
 12 11  1  0
 13 12  2  0
 14 24  1  0
 14 10  1  0
 15 14  2  0
 18 17  1  0
 19 18  2  0
 20 19  1  0
 21 27  1  0
 21 20  2  0
 22 21  1  0
 23 22  1  6
 23 24  1  0
 23 25  1  0
 25 26  1  0
 27 28  2  0
 28 18  1  0
 29 25  2  0
M  END
$$$$
