IDY.pdb
     RDKit          3D

 29 29  0  0  1  0  0  0  0  0999 V2000
   37.1930  -11.1343   -6.3994 C   0  0  0  0  0  0  0  0  0  0  0  0
   38.6819  -10.9113   -6.4974 C   0  0  0  0  0  0  0  0  0  0  0  0
   39.0460   -9.6657   -7.2649 C   0  0  2  0  0  0  0  0  0  0  0  0
   38.3780   -9.6106   -8.6149 C   0  0  0  0  0  0  0  0  0  0  0  0
   40.5388   -9.4971   -7.3437 C   0  0  2  0  0  0  0  0  0  0  0  0
   41.1766   -9.5011   -6.0775 N   0  0  0  0  0  0  0  0  0  0  0  0
   40.8998   -8.3817   -8.2332 C   0  0  0  0  0  0  0  0  0  0  0  0
   40.7611   -7.2130   -7.7694 O   0  0  0  0  0  0  0  0  0  0  0  0
   41.3841   -8.4668   -9.5480 N   0  0  0  0  0  0  0  0  0  0  0  0
   41.6344   -7.3488  -10.4084 C   0  0  1  0  0  0  0  0  0  0  0  0
   42.4029   -7.7797  -11.6250 C   0  0  0  0  0  0  0  0  0  0  0  0
   42.8544   -6.6535  -12.4747 C   0  0  0  0  0  0  0  0  0  0  0  0
   42.5309   -5.4583  -12.1870 O   0  0  0  0  0  0  0  0  0  0  0  0
   40.4617   -6.5913  -10.8128 C   0  0  0  0  0  0  0  0  0  0  0  0
   39.3542   -7.0598  -11.1819 O   0  0  0  0  0  0  0  0  0  0  0  0
   43.6359   -6.7839  -13.6131 O   0  0  0  0  0  0  0  0  0  0  0  0
   34.4659   -0.4556  -10.1171 O   0  0  0  0  0  0  0  0  0  0  0  0
   35.4748   -1.4352  -10.0905 C   0  0  0  0  0  0  0  0  0  0  0  0
   35.3945   -2.5337  -10.9187 C   0  0  0  0  0  0  0  0  0  0  0  0
   36.4184   -3.4554  -10.8411 C   0  0  0  0  0  0  0  0  0  0  0  0
   37.4794   -3.2953   -9.9774 C   0  0  0  0  0  0  0  0  0  0  0  0
   38.5302   -4.3114   -9.9452 C   0  0  0  0  0  0  0  0  0  0  0  0
   39.4327   -4.3174  -11.1590 C   0  0  2  0  0  0  0  0  0  0  0  0
   40.5728   -5.1720  -10.7904 N   0  0  0  0  0  0  0  0  0  0  0  0
   39.9689   -2.9733  -11.4899 C   0  0  0  0  0  0  0  0  0  0  0  0
   39.3537   -2.1188  -12.3883 O   0  0  0  0  0  0  0  0  0  0  0  0
   37.5336   -2.1892   -9.1621 C   0  0  0  0  0  0  0  0  0  0  0  0
   36.5262   -1.2623   -9.2246 C   0  0  0  0  0  0  0  0  0  0  0  0
   41.0382   -2.5350  -10.9543 O   0  0  0  0  0  0  0  0  0  0  0  0
  1  2  1  0
  2  3  1  0
  3  4  1  6
  5  6  1  1
  5  3  1  0
  7  8  2  0
  7  5  1  0
  9  7  1  0
 10  9  1  0
 10 11  1  6
 12 16  1  0
 12 11  1  0
 13 12  2  0
 14 24  1  0
 14 10  1  0
 15 14  2  0
 18 17  1  0
 19 18  2  0
 20 19  1  0
 21 27  1  0
 21 20  2  0
 22 21  1  0
 23 22  1  1
 23 24  1  0
 23 25  1  0
 25 26  1  0
 27 28  2  0
 28 18  1  0
 29 25  2  0
M  END
$$$$
