IDY.pdb
     RDKit          3D

 29 29  0  0  1  0  0  0  0  0999 V2000
   17.5378  -12.7895  -19.0431 C   0  0  0  0  0  0  0  0  0  0  0  0
   17.2192  -13.1920  -17.6244 C   0  0  0  0  0  0  0  0  0  0  0  0
   17.3063  -12.0457  -16.6487 C   0  0  2  0  0  0  0  0  0  0  0  0
   16.4576  -10.8729  -17.0681 C   0  0  0  0  0  0  0  0  0  0  0  0
   18.7385  -11.6674  -16.3867 C   0  0  2  0  0  0  0  0  0  0  0  0
   19.5729  -12.7762  -16.0961 N   0  0  0  0  0  0  0  0  0  0  0  0
   18.8249  -10.5425  -15.4418 C   0  0  0  0  0  0  0  0  0  0  0  0
   18.0448  -10.5712  -14.4463 O   0  0  0  0  0  0  0  0  0  0  0  0
   19.6805   -9.4324  -15.5193 N   0  0  0  0  0  0  0  0  0  0  0  0
   19.6879   -8.3315  -14.6024 C   0  0  1  0  0  0  0  0  0  0  0  0
   21.0030   -7.6076  -14.6560 C   0  0  0  0  0  0  0  0  0  0  0  0
   21.1287   -6.5247  -13.6533 C   0  0  0  0  0  0  0  0  0  0  0  0
   21.1286   -5.3064  -14.0162 O   0  0  0  0  0  0  0  0  0  0  0  0
   18.5990   -7.3805  -14.7525 C   0  0  0  0  0  0  0  0  0  0  0  0
   18.1672   -6.8955  -15.8298 O   0  0  0  0  0  0  0  0  0  0  0  0
   21.2536   -6.7217  -12.2861 O   0  0  0  0  0  0  0  0  0  0  0  0
   14.9999   -5.6816   -7.4987 O   0  0  0  0  0  0  0  0  0  0  0  0
   15.1749   -5.9684   -8.8645 C   0  0  0  0  0  0  0  0  0  0  0  0
   15.6917   -7.1845   -9.2554 C   0  0  0  0  0  0  0  0  0  0  0  0
   15.8366   -7.3994  -10.6107 C   0  0  0  0  0  0  0  0  0  0  0  0
   15.4836   -6.4474  -11.5415 C   0  0  0  0  0  0  0  0  0  0  0  0
   15.6646   -6.7402  -12.9624 C   0  0  0  0  0  0  0  0  0  0  0  0
   16.8201   -6.0097  -13.6099 C   0  0  2  0  0  0  0  0  0  0  0  0
   17.9507   -6.9506  -13.5599 N   0  0  0  0  0  0  0  0  0  0  0  0
   17.2216   -4.7873  -12.8694 C   0  0  0  0  0  0  0  0  0  0  0  0
   16.4893   -3.6133  -12.9034 O   0  0  0  0  0  0  0  0  0  0  0  0
   14.9703   -5.2422  -11.1228 C   0  0  0  0  0  0  0  0  0  0  0  0
   14.8188   -5.0099   -9.7808 C   0  0  0  0  0  0  0  0  0  0  0  0
   18.2764   -4.7599  -12.1559 O   0  0  0  0  0  0  0  0  0  0  0  0
  1  2  1  0
  2  3  1  0
  3  4  1  6
  5  6  1  1
  5  3  1  0
  7  8  2  0
  7  5  1  0
  9  7  1  0
 10  9  1  0
 10 11  1  6
 12 16  1  0
 12 11  1  0
 13 12  2  0
 14 24  1  0
 14 10  1  0
 15 14  2  0
 18 17  1  0
 19 18  2  0
 20 19  1  0
 21 27  1  0
 21 20  2  0
 22 21  1  0
 23 22  1  1
 23 24  1  0
 23 25  1  0
 25 26  1  0
 27 28  2  0
 28 18  1  0
 29 25  2  0
M  END
$$$$
