IDY.pdb
     RDKit          3D

 29 29  0  0  1  0  0  0  0  0999 V2000
   20.1634  -12.7248  -16.3167 C   0  0  0  0  0  0  0  0  0  0  0  0
   19.0133  -11.7534  -16.2173 C   0  0  0  0  0  0  0  0  0  0  0  0
   19.4482  -10.3109  -16.2775 C   0  0  2  0  0  0  0  0  0  0  0  0
   20.5932  -10.0199  -15.3416 C   0  0  0  0  0  0  0  0  0  0  0  0
   18.2791   -9.3858  -16.0768 C   0  0  2  0  0  0  0  0  0  0  0  0
   17.0971   -9.8173  -16.7301 N   0  0  0  0  0  0  0  0  0  0  0  0
   18.6636   -7.9860  -16.3185 C   0  0  0  0  0  0  0  0  0  0  0  0
   19.8300   -7.7826  -16.7639 O   0  0  0  0  0  0  0  0  0  0  0  0
   17.8781   -6.8416  -16.1096 N   0  0  0  0  0  0  0  0  0  0  0  0
   18.3229   -5.4918  -16.2911 C   0  0  1  0  0  0  0  0  0  0  0  0
   17.1890   -4.6181  -16.7464 C   0  0  0  0  0  0  0  0  0  0  0  0
   16.4616   -5.1497  -17.9220 C   0  0  0  0  0  0  0  0  0  0  0  0
   17.0795   -5.3976  -19.0049 O   0  0  0  0  0  0  0  0  0  0  0  0
   18.9780   -4.8857  -15.1439 C   0  0  0  0  0  0  0  0  0  0  0  0
   18.5853   -4.9188  -13.9493 O   0  0  0  0  0  0  0  0  0  0  0  0
   15.1010   -5.4164  -17.9576 O   0  0  0  0  0  0  0  0  0  0  0  0
   22.3380   -9.7843  -13.4124 O   0  0  0  0  0  0  0  0  0  0  0  0
   22.3294   -8.3963  -13.6396 C   0  0  0  0  0  0  0  0  0  0  0  0
   21.8120   -7.5430  -12.6893 C   0  0  0  0  0  0  0  0  0  0  0  0
   21.8353   -6.1937  -12.9769 C   0  0  0  0  0  0  0  0  0  0  0  0
   22.3505   -5.7091  -14.1589 C   0  0  0  0  0  0  0  0  0  0  0  0
   22.3429   -4.2672  -14.4003 C   0  0  0  0  0  0  0  0  0  0  0  0
   20.9805   -3.6203  -14.2850 C   0  0  2  0  0  0  0  0  0  0  0  0
   20.1899   -4.1809  -15.3925 N   0  0  0  0  0  0  0  0  0  0  0  0
   21.0208   -2.1472  -14.4643 C   0  0  0  0  0  0  0  0  0  0  0  0
   21.5924   -1.2926  -13.5376 O   0  0  0  0  0  0  0  0  0  0  0  0
   22.8603   -6.5839  -15.0895 C   0  0  0  0  0  0  0  0  0  0  0  0
   22.8462   -7.9279  -14.8222 C   0  0  0  0  0  0  0  0  0  0  0  0
   20.5230   -1.5902  -15.4959 O   0  0  0  0  0  0  0  0  0  0  0  0
  1  2  1  0
  2  3  1  0
  3  4  1  1
  5  6  1  6
  5  3  1  0
  7  8  2  0
  7  5  1  0
  9  7  1  0
 10  9  1  0
 10 11  1  1
 12 16  1  0
 12 11  1  0
 13 12  2  0
 14 24  1  0
 14 10  1  0
 15 14  2  0
 18 17  1  0
 19 18  2  0
 20 19  1  0
 21 27  1  0
 21 20  2  0
 22 21  1  0
 23 22  1  6
 23 24  1  0
 23 25  1  0
 25 26  1  0
 27 28  2  0
 28 18  1  0
 29 25  2  0
M  END
$$$$
