IDY.pdb
     RDKit          3D

 29 29  0  0  1  0  0  0  0  0999 V2000
   20.1950  -13.4746  -21.7674 C   0  0  0  0  0  0  0  0  0  0  0  0
   20.6349  -13.3882  -20.3269 C   0  0  0  0  0  0  0  0  0  0  0  0
   20.4955  -12.0038  -19.7460 C   0  0  2  0  0  0  0  0  0  0  0  0
   21.2471  -10.9705  -20.5454 C   0  0  0  0  0  0  0  0  0  0  0  0
   20.8585  -11.9917  -18.2862 C   0  0  2  0  0  0  0  0  0  0  0  0
   20.3452  -13.0999  -17.5660 N   0  0  0  0  0  0  0  0  0  0  0  0
   20.6031  -10.6718  -17.6877 C   0  0  0  0  0  0  0  0  0  0  0  0
   20.9457   -9.6607  -18.3663 O   0  0  0  0  0  0  0  0  0  0  0  0
   20.0183  -10.4042  -16.4399 N   0  0  0  0  0  0  0  0  0  0  0  0
   19.8382   -9.0993  -15.8766 C   0  0  1  0  0  0  0  0  0  0  0  0
   18.9243   -9.1588  -14.6859 C   0  0  0  0  0  0  0  0  0  0  0  0
   17.6408   -9.8479  -14.9535 C   0  0  0  0  0  0  0  0  0  0  0  0
   17.1497  -10.6512  -14.0994 O   0  0  0  0  0  0  0  0  0  0  0  0
   21.0583   -8.3930  -15.5226 C   0  0  0  0  0  0  0  0  0  0  0  0
   22.2318   -8.8420  -15.5835 O   0  0  0  0  0  0  0  0  0  0  0  0
   16.8842   -9.6939  -16.1056 O   0  0  0  0  0  0  0  0  0  0  0  0
   26.7323   -2.4516  -17.3293 O   0  0  0  0  0  0  0  0  0  0  0  0
   25.7104   -3.3876  -17.0890 C   0  0  0  0  0  0  0  0  0  0  0  0
   25.8045   -4.2562  -16.0234 C   0  0  0  0  0  0  0  0  0  0  0  0
   24.7666   -5.1481  -15.8460 C   0  0  0  0  0  0  0  0  0  0  0  0
   23.6790   -5.1782  -16.6908 C   0  0  0  0  0  0  0  0  0  0  0  0
   22.6146   -6.1501  -16.4459 C   0  0  0  0  0  0  0  0  0  0  0  0
   22.0646   -6.1346  -15.0369 C   0  0  2  0  0  0  0  0  0  0  0  0
   20.9160   -7.0544  -15.0588 N   0  0  0  0  0  0  0  0  0  0  0  0
   21.5618   -4.7999  -14.6252 C   0  0  0  0  0  0  0  0  0  0  0  0
   22.2782   -3.9477  -13.8028 O   0  0  0  0  0  0  0  0  0  0  0  0
   23.6115   -4.2996  -17.7465 C   0  0  0  0  0  0  0  0  0  0  0  0
   24.6325   -3.4061  -17.9392 C   0  0  0  0  0  0  0  0  0  0  0  0
   20.4287   -4.3682  -15.0150 O   0  0  0  0  0  0  0  0  0  0  0  0
  1  2  1  0
  2  3  1  0
  3  4  1  6
  5  6  1  1
  5  3  1  0
  7  8  2  0
  7  5  1  0
  9  7  1  0
 10  9  1  0
 10 11  1  1
 12 16  1  0
 12 11  1  0
 13 12  2  0
 14 24  1  0
 14 10  1  0
 15 14  2  0
 18 17  1  0
 19 18  2  0
 20 19  1  0
 21 27  1  0
 21 20  2  0
 22 21  1  0
 23 22  1  6
 23 24  1  0
 23 25  1  0
 25 26  1  0
 27 28  2  0
 28 18  1  0
 29 25  2  0
M  END
$$$$
