IDY.pdb
     RDKit          3D

 29 29  0  0  1  0  0  0  0  0999 V2000
   23.9348  -14.1564  -15.2108 C   0  0  0  0  0  0  0  0  0  0  0  0
   22.5229  -13.8218  -15.6242 C   0  0  0  0  0  0  0  0  0  0  0  0
   22.2876  -12.3415  -15.7876 C   0  0  2  0  0  0  0  0  0  0  0  0
   22.6235  -11.5683  -14.5382 C   0  0  0  0  0  0  0  0  0  0  0  0
   20.8955  -12.0681  -16.2881 C   0  0  2  0  0  0  0  0  0  0  0  0
   20.5288  -12.8628  -17.4035 N   0  0  0  0  0  0  0  0  0  0  0  0
   20.6587  -10.6229  -16.4324 C   0  0  0  0  0  0  0  0  0  0  0  0
   21.3236  -10.0212  -17.3246 O   0  0  0  0  0  0  0  0  0  0  0  0
   19.7726   -9.8292  -15.6872 N   0  0  0  0  0  0  0  0  0  0  0  0
   19.6490   -8.4060  -15.7969 C   0  0  1  0  0  0  0  0  0  0  0  0
   18.2026   -8.0011  -15.8203 C   0  0  0  0  0  0  0  0  0  0  0  0
   17.9945   -6.5402  -15.9478 C   0  0  0  0  0  0  0  0  0  0  0  0
   18.3632   -5.9253  -16.9975 O   0  0  0  0  0  0  0  0  0  0  0  0
   20.3574   -7.6336  -14.7898 C   0  0  0  0  0  0  0  0  0  0  0  0
   20.5865   -7.9775  -13.6017 O   0  0  0  0  0  0  0  0  0  0  0  0
   17.4065   -5.7366  -14.9824 O   0  0  0  0  0  0  0  0  0  0  0  0
   25.1986   -5.4112  -19.5299 O   0  0  0  0  0  0  0  0  0  0  0  0
   24.6601   -5.5350  -18.2365 C   0  0  0  0  0  0  0  0  0  0  0  0
   24.4449   -4.4128  -17.4664 C   0  0  0  0  0  0  0  0  0  0  0  0
   23.9141   -4.6067  -16.2075 C   0  0  0  0  0  0  0  0  0  0  0  0
   23.6089   -5.8624  -15.7307 C   0  0  0  0  0  0  0  0  0  0  0  0
   23.0499   -5.9965  -14.3864 C   0  0  0  0  0  0  0  0  0  0  0  0
   21.6205   -5.5206  -14.2524 C   0  0  2  0  0  0  0  0  0  0  0  0
   20.8448   -6.3552  -15.1840 N   0  0  0  0  0  0  0  0  0  0  0  0
   21.4395   -4.1053  -14.6622 C   0  0  0  0  0  0  0  0  0  0  0  0
   21.9373   -3.0412  -13.9302 O   0  0  0  0  0  0  0  0  0  0  0  0
   23.8343   -6.9650  -16.5211 C   0  0  0  0  0  0  0  0  0  0  0  0
   24.3608   -6.7929  -17.7745 C   0  0  0  0  0  0  0  0  0  0  0  0
   20.8072   -3.7973  -15.7241 O   0  0  0  0  0  0  0  0  0  0  0  0
  1  2  1  0
  2  3  1  0
  3  4  1  1
  5  6  1  6
  5  3  1  0
  7  8  2  0
  7  5  1  0
  9  7  1  0
 10  9  1  0
 10 11  1  1
 12 16  1  0
 12 11  1  0
 13 12  2  0
 14 24  1  0
 14 10  1  0
 15 14  2  0
 18 17  1  0
 19 18  2  0
 20 19  1  0
 21 27  1  0
 21 20  2  0
 22 21  1  0
 23 22  1  6
 23 24  1  0
 23 25  1  0
 25 26  1  0
 27 28  2  0
 28 18  1  0
 29 25  2  0
M  END
$$$$
