IDY.pdb
     RDKit          3D

 29 29  0  0  1  0  0  0  0  0999 V2000
   27.9631  -15.4023  -19.1732 C   0  0  0  0  0  0  0  0  0  0  0  0
   27.3054  -16.7337  -18.9070 C   0  0  0  0  0  0  0  0  0  0  0  0
   28.0935  -17.6065  -17.9632 C   0  0  2  0  0  0  0  0  0  0  0  0
   29.4959  -17.8584  -18.4544 C   0  0  0  0  0  0  0  0  0  0  0  0
   27.3469  -18.8744  -17.6499 C   0  0  2  0  0  0  0  0  0  0  0  0
   27.2414  -19.7569  -18.7545 N   0  0  0  0  0  0  0  0  0  0  0  0
   26.0882  -18.5873  -16.9438 C   0  0  0  0  0  0  0  0  0  0  0  0
   26.1557  -17.8090  -15.9488 O   0  0  0  0  0  0  0  0  0  0  0  0
   24.8108  -19.0822  -17.2502 N   0  0  0  0  0  0  0  0  0  0  0  0
   23.6282  -18.8481  -16.4759 C   0  0  1  0  0  0  0  0  0  0  0  0
   22.4296  -18.7086  -17.3705 C   0  0  0  0  0  0  0  0  0  0  0  0
   22.4740  -17.5138  -18.2448 C   0  0  0  0  0  0  0  0  0  0  0  0
   23.2187  -16.5265  -17.9505 O   0  0  0  0  0  0  0  0  0  0  0  0
   23.3527  -19.8265  -15.4370 C   0  0  0  0  0  0  0  0  0  0  0  0
   23.5575  -21.0662  -15.4979 O   0  0  0  0  0  0  0  0  0  0  0  0
   21.7434  -17.3599  -19.4136 O   0  0  0  0  0  0  0  0  0  0  0  0
   21.4891  -21.9816   -7.0372 O   0  0  0  0  0  0  0  0  0  0  0  0
   21.8285  -21.3386   -8.2412 C   0  0  0  0  0  0  0  0  0  0  0  0
   23.1511  -21.1976   -8.6012 C   0  0  0  0  0  0  0  0  0  0  0  0
   23.4126  -20.5570   -9.7951 C   0  0  0  0  0  0  0  0  0  0  0  0
   22.4039  -20.0753  -10.6000 C   0  0  0  0  0  0  0  0  0  0  0  0
   22.7515  -19.4051  -11.8521 C   0  0  0  0  0  0  0  0  0  0  0  0
   22.5267  -20.2405  -13.0927 C   0  0  2  0  0  0  0  0  0  0  0  0
   22.7934  -19.3363  -14.2229 N   0  0  0  0  0  0  0  0  0  0  0  0
   21.1280  -20.7203  -13.2234 C   0  0  0  0  0  0  0  0  0  0  0  0
   20.7157  -21.9650  -12.7799 O   0  0  0  0  0  0  0  0  0  0  0  0
   21.0926  -20.2299  -10.2156 C   0  0  0  0  0  0  0  0  0  0  0  0
   20.8126  -20.8635   -9.0332 C   0  0  0  0  0  0  0  0  0  0  0  0
   20.2258  -19.9981  -13.7588 O   0  0  0  0  0  0  0  0  0  0  0  0
  1  2  1  0
  2  3  1  0
  3  4  1  6
  5  6  1  6
  5  3  1  0
  7  8  2  0
  7  5  1  0
  9  7  1  0
 10  9  1  0
 10 11  1  6
 12 16  1  0
 12 11  1  0
 13 12  2  0
 14 24  1  0
 14 10  1  0
 15 14  2  0
 18 17  1  0
 19 18  2  0
 20 19  1  0
 21 27  1  0
 21 20  2  0
 22 21  1  0
 23 22  1  1
 23 24  1  0
 23 25  1  0
 25 26  1  0
 27 28  2  0
 28 18  1  0
 29 25  2  0
M  END
$$$$
