IDY.pdb
     RDKit          3D

 29 29  0  0  1  0  0  0  0  0999 V2000
   24.6889  -14.4091  -15.6845 C   0  0  0  0  0  0  0  0  0  0  0  0
   23.1954  -14.6197  -15.7236 C   0  0  0  0  0  0  0  0  0  0  0  0
   22.4187  -13.3353  -15.8669 C   0  0  2  0  0  0  0  0  0  0  0  0
   22.7597  -12.3381  -14.7894 C   0  0  0  0  0  0  0  0  0  0  0  0
   20.9423  -13.6056  -15.9677 C   0  0  2  0  0  0  0  0  0  0  0  0
   20.6200  -14.6660  -16.8519 N   0  0  0  0  0  0  0  0  0  0  0  0
   20.1880  -12.3583  -16.1700 C   0  0  0  0  0  0  0  0  0  0  0  0
   20.8034  -11.4017  -16.7235 O   0  0  0  0  0  0  0  0  0  0  0  0
   18.8532  -12.1065  -15.8162 N   0  0  0  0  0  0  0  0  0  0  0  0
   18.1718  -10.8600  -16.0028 C   0  0  1  0  0  0  0  0  0  0  0  0
   16.6909  -11.0347  -15.8219 C   0  0  0  0  0  0  0  0  0  0  0  0
   16.2182  -12.4156  -16.0745 C   0  0  0  0  0  0  0  0  0  0  0  0
   16.0760  -12.8413  -17.2638 O   0  0  0  0  0  0  0  0  0  0  0  0
   18.6392   -9.7581  -15.1782 C   0  0  0  0  0  0  0  0  0  0  0  0
   18.9339   -9.8054  -13.9562 O   0  0  0  0  0  0  0  0  0  0  0  0
   15.8987  -13.3364  -15.0878 O   0  0  0  0  0  0  0  0  0  0  0  0
   22.5725   -1.8903  -14.3590 O   0  0  0  0  0  0  0  0  0  0  0  0
   22.0633   -3.1460  -14.7362 C   0  0  0  0  0  0  0  0  0  0  0  0
   22.5026   -4.2888  -14.1039 C   0  0  0  0  0  0  0  0  0  0  0  0
   21.9613   -5.4867  -14.5235 C   0  0  0  0  0  0  0  0  0  0  0  0
   21.0224   -5.5498  -15.5294 C   0  0  0  0  0  0  0  0  0  0  0  0
   20.4909   -6.8528  -15.9259 C   0  0  0  0  0  0  0  0  0  0  0  0
   19.3282   -7.3361  -15.0876 C   0  0  2  0  0  0  0  0  0  0  0  0
   18.7800   -8.4922  -15.8147 N   0  0  0  0  0  0  0  0  0  0  0  0
   18.2442   -6.3295  -14.9642 C   0  0  0  0  0  0  0  0  0  0  0  0
   18.2142   -5.3761  -13.9612 O   0  0  0  0  0  0  0  0  0  0  0  0
   20.6023   -4.3930  -16.1431 C   0  0  0  0  0  0  0  0  0  0  0  0
   21.1281   -3.1934  -15.7403 C   0  0  0  0  0  0  0  0  0  0  0  0
   17.2739   -6.2944  -15.7886 O   0  0  0  0  0  0  0  0  0  0  0  0
  1  2  1  0
  2  3  1  0
  3  4  1  1
  5  6  1  6
  5  3  1  0
  7  8  2  0
  7  5  1  0
  9  7  1  0
 10  9  1  0
 10 11  1  1
 12 16  1  0
 12 11  1  0
 13 12  2  0
 14 24  1  0
 14 10  1  0
 15 14  2  0
 18 17  1  0
 19 18  2  0
 20 19  1  0
 21 27  1  0
 21 20  2  0
 22 21  1  0
 23 22  1  6
 23 24  1  0
 23 25  1  0
 25 26  1  0
 27 28  2  0
 28 18  1  0
 29 25  2  0
M  END
$$$$
