IDY.pdb
     RDKit          3D

 29 29  0  0  1  0  0  0  0  0999 V2000
   29.0402  -18.8941  -17.9136 C   0  0  0  0  0  0  0  0  0  0  0  0
   28.2871  -17.7627  -17.2587 C   0  0  0  0  0  0  0  0  0  0  0  0
   27.8746  -18.0669  -15.8407 C   0  0  2  0  0  0  0  0  0  0  0  0
   29.0598  -18.2489  -14.9275 C   0  0  0  0  0  0  0  0  0  0  0  0
   26.9168  -19.2260  -15.7939 C   0  0  2  0  0  0  0  0  0  0  0  0
   26.0869  -19.3211  -16.9395 N   0  0  0  0  0  0  0  0  0  0  0  0
   26.2209  -19.2862  -14.4986 C   0  0  0  0  0  0  0  0  0  0  0  0
   26.5939  -18.4658  -13.6109 O   0  0  0  0  0  0  0  0  0  0  0  0
   25.1824  -20.1567  -14.1324 N   0  0  0  0  0  0  0  0  0  0  0  0
   24.5745  -20.2159  -12.8364 C   0  0  1  0  0  0  0  0  0  0  0  0
   23.1472  -20.6720  -12.9422 C   0  0  0  0  0  0  0  0  0  0  0  0
   22.4448  -20.7391  -11.6398 C   0  0  0  0  0  0  0  0  0  0  0  0
   22.2998  -19.6943  -10.9305 O   0  0  0  0  0  0  0  0  0  0  0  0
   25.2742  -21.0216  -11.8495 C   0  0  0  0  0  0  0  0  0  0  0  0
   25.6517  -22.2141  -11.9830 O   0  0  0  0  0  0  0  0  0  0  0  0
   21.9024  -21.8916  -11.0909 O   0  0  0  0  0  0  0  0  0  0  0  0
   28.7777  -19.2708   -3.9799 O   0  0  0  0  0  0  0  0  0  0  0  0
   28.4618  -19.5429   -5.3232 C   0  0  0  0  0  0  0  0  0  0  0  0
   27.6971  -18.6545   -6.0476 C   0  0  0  0  0  0  0  0  0  0  0  0
   27.4252  -18.9838   -7.3598 C   0  0  0  0  0  0  0  0  0  0  0  0
   27.8922  -20.1469   -7.9312 C   0  0  0  0  0  0  0  0  0  0  0  0
   27.5656  -20.4349   -9.3269 C   0  0  0  0  0  0  0  0  0  0  0  0
   26.2447  -21.1439   -9.5274 C   0  0  2  0  0  0  0  0  0  0  0  0
   25.5650  -20.4016  -10.6012 N   0  0  0  0  0  0  0  0  0  0  0  0
   25.3721  -21.0949   -8.3274 C   0  0  0  0  0  0  0  0  0  0  0  0
   25.5198  -21.9572   -7.2549 O   0  0  0  0  0  0  0  0  0  0  0  0
   28.6532  -21.0154   -7.1844 C   0  0  0  0  0  0  0  0  0  0  0  0
   28.9341  -20.7059   -5.8794 C   0  0  0  0  0  0  0  0  0  0  0  0
   24.4303  -20.2433   -8.2258 O   0  0  0  0  0  0  0  0  0  0  0  0
  1  2  1  0
  2  3  1  0
  3  4  1  1
  5  6  1  6
  5  3  1  0
  7  8  2  0
  7  5  1  0
  9  7  1  0
 10  9  1  0
 10 11  1  6
 12 16  1  0
 12 11  1  0
 13 12  2  0
 14 24  1  0
 14 10  1  0
 15 14  2  0
 18 17  1  0
 19 18  2  0
 20 19  1  0
 21 27  1  0
 21 20  2  0
 22 21  1  0
 23 22  1  1
 23 24  1  0
 23 25  1  0
 25 26  1  0
 27 28  2  0
 28 18  1  0
 29 25  2  0
M  END
$$$$
