IDY.pdb
     RDKit          3D

 29 29  0  0  1  0  0  0  0  0999 V2000
   23.7476  -17.7470  -22.1829 C   0  0  0  0  0  0  0  0  0  0  0  0
   22.9482  -16.6784  -21.4792 C   0  0  0  0  0  0  0  0  0  0  0  0
   22.4149  -17.1215  -20.1402 C   0  0  2  0  0  0  0  0  0  0  0  0
   21.6769  -18.4329  -20.2248 C   0  0  0  0  0  0  0  0  0  0  0  0
   21.6010  -16.0327  -19.4961 C   0  0  2  0  0  0  0  0  0  0  0  0
   22.2940  -14.8013  -19.3797 N   0  0  0  0  0  0  0  0  0  0  0  0
   20.9506  -16.5142  -18.2670 C   0  0  0  0  0  0  0  0  0  0  0  0
   21.6754  -16.6028  -17.2340 O   0  0  0  0  0  0  0  0  0  0  0  0
   19.6073  -16.8894  -18.1083 N   0  0  0  0  0  0  0  0  0  0  0  0
   19.0280  -17.3874  -16.8962 C   0  0  1  0  0  0  0  0  0  0  0  0
   17.5961  -16.9496  -16.7756 C   0  0  0  0  0  0  0  0  0  0  0  0
   16.9698  -17.3086  -15.4823 C   0  0  0  0  0  0  0  0  0  0  0  0
   15.7051  -17.3790  -15.3755 O   0  0  0  0  0  0  0  0  0  0  0  0
   19.1188  -18.8247  -16.6997 C   0  0  0  0  0  0  0  0  0  0  0  0
   18.8394  -19.7178  -17.5403 O   0  0  0  0  0  0  0  0  0  0  0  0
   17.6659  -17.5893  -14.3160 O   0  0  0  0  0  0  0  0  0  0  0  0
   20.3254  -19.0333   -9.0262 O   0  0  0  0  0  0  0  0  0  0  0  0
   20.4978  -19.4891  -10.3455 C   0  0  0  0  0  0  0  0  0  0  0  0
   20.2538  -20.8086  -10.6590 C   0  0  0  0  0  0  0  0  0  0  0  0
   20.4427  -21.1878  -11.9723 C   0  0  0  0  0  0  0  0  0  0  0  0
   20.8568  -20.2954  -12.9363 C   0  0  0  0  0  0  0  0  0  0  0  0
   21.0385  -20.7645  -14.3091 C   0  0  0  0  0  0  0  0  0  0  0  0
   19.7906  -20.7041  -15.1617 C   0  0  2  0  0  0  0  0  0  0  0  0
   19.5703  -19.2732  -15.4260 N   0  0  0  0  0  0  0  0  0  0  0  0
   18.5863  -21.2214  -14.4647 C   0  0  0  0  0  0  0  0  0  0  0  0
   17.5866  -20.3966  -13.9789 O   0  0  0  0  0  0  0  0  0  0  0  0
   21.0930  -18.9843  -12.5950 C   0  0  0  0  0  0  0  0  0  0  0  0
   20.9110  -18.5884  -11.2958 C   0  0  0  0  0  0  0  0  0  0  0  0
   18.4127  -22.4692  -14.2771 O   0  0  0  0  0  0  0  0  0  0  0  0
  1  2  1  0
  2  3  1  0
  3  4  1  6
  5  6  1  1
  5  3  1  0
  7  8  2  0
  7  5  1  0
  9  7  1  0
 10  9  1  0
 10 11  1  6
 12 16  1  0
 12 11  1  0
 13 12  2  0
 14 24  1  0
 14 10  1  0
 15 14  2  0
 18 17  1  0
 19 18  2  0
 20 19  1  0
 21 27  1  0
 21 20  2  0
 22 21  1  0
 23 22  1  1
 23 24  1  0
 23 25  1  0
 25 26  1  0
 27 28  2  0
 28 18  1  0
 29 25  2  0
M  END
$$$$
