IDY.pdb
     RDKit          3D

 29 29  0  0  1  0  0  0  0  0999 V2000
   16.6211   -9.5592  -19.0454 C   0  0  0  0  0  0  0  0  0  0  0  0
   17.8206   -9.9879  -18.2369 C   0  0  0  0  0  0  0  0  0  0  0  0
   18.5788   -8.8291  -17.6403 C   0  0  2  0  0  0  0  0  0  0  0  0
   18.9817   -7.8143  -18.6793 C   0  0  0  0  0  0  0  0  0  0  0  0
   19.7391   -9.3116  -16.8132 C   0  0  2  0  0  0  0  0  0  0  0  0
   19.3776  -10.2766  -15.8394 N   0  0  0  0  0  0  0  0  0  0  0  0
   20.5441   -8.1826  -16.3204 C   0  0  0  0  0  0  0  0  0  0  0  0
   20.0203   -7.4531  -15.4295 O   0  0  0  0  0  0  0  0  0  0  0  0
   21.8370   -7.8195  -16.7292 N   0  0  0  0  0  0  0  0  0  0  0  0
   22.5520   -6.6646  -16.2732 C   0  0  1  0  0  0  0  0  0  0  0  0
   23.9924   -7.0029  -16.0139 C   0  0  0  0  0  0  0  0  0  0  0  0
   24.8021   -5.8505  -15.5550 C   0  0  0  0  0  0  0  0  0  0  0  0
   24.3707   -5.0835  -14.6377 O   0  0  0  0  0  0  0  0  0  0  0  0
   22.4706   -5.4947  -17.1319 C   0  0  0  0  0  0  0  0  0  0  0  0
   22.7624   -5.4372  -18.3542 O   0  0  0  0  0  0  0  0  0  0  0  0
   26.0496   -5.5095  -16.0559 O   0  0  0  0  0  0  0  0  0  0  0  0
   16.2105   -1.0309  -15.3181 O   0  0  0  0  0  0  0  0  0  0  0  0
   17.3107   -1.5767  -16.0036 C   0  0  0  0  0  0  0  0  0  0  0  0
   17.4311   -2.9424  -16.1422 C   0  0  0  0  0  0  0  0  0  0  0  0
   18.5347   -3.4099  -16.8261 C   0  0  0  0  0  0  0  0  0  0  0  0
   19.4812   -2.5582  -17.3515 C   0  0  0  0  0  0  0  0  0  0  0  0
   20.6272   -3.1207  -18.0640 C   0  0  0  0  0  0  0  0  0  0  0  0
   21.9354   -3.0389  -17.3091 C   0  0  2  0  0  0  0  0  0  0  0  0
   22.0138   -4.2867  -16.5326 N   0  0  0  0  0  0  0  0  0  0  0  0
   21.9803   -1.9092  -16.3471 C   0  0  0  0  0  0  0  0  0  0  0  0
   22.0962   -0.5882  -16.7438 O   0  0  0  0  0  0  0  0  0  0  0  0
   19.3355   -1.1993  -17.1980 C   0  0  0  0  0  0  0  0  0  0  0  0
   18.2461   -0.7157  -16.5219 C   0  0  0  0  0  0  0  0  0  0  0  0
   21.9134   -2.1045  -15.0902 O   0  0  0  0  0  0  0  0  0  0  0  0
  1  2  1  0
  2  3  1  0
  3  4  1  6
  5  6  1  1
  5  3  1  0
  7  8  2  0
  7  5  1  0
  9  7  1  0
 10  9  1  0
 10 11  1  6
 12 16  1  0
 12 11  1  0
 13 12  2  0
 14 24  1  0
 14 10  1  0
 15 14  2  0
 18 17  1  0
 19 18  2  0
 20 19  1  0
 21 27  1  0
 21 20  2  0
 22 21  1  0
 23 22  1  1
 23 24  1  0
 23 25  1  0
 25 26  1  0
 27 28  2  0
 28 18  1  0
 29 25  2  0
M  END
$$$$
