IDY.pdb
     RDKit          3D

 29 29  0  0  1  0  0  0  0  0999 V2000
   16.5577  -10.6526  -18.8287 C   0  0  0  0  0  0  0  0  0  0  0  0
   17.7006  -10.9145  -17.8793 C   0  0  0  0  0  0  0  0  0  0  0  0
   18.0428   -9.7237  -17.0200 C   0  0  2  0  0  0  0  0  0  0  0  0
   18.3526   -8.4976  -17.8399 C   0  0  0  0  0  0  0  0  0  0  0  0
   19.1315  -10.0614  -16.0383 C   0  0  2  0  0  0  0  0  0  0  0  0
   18.9226  -11.2895  -15.3615 N   0  0  0  0  0  0  0  0  0  0  0  0
   19.4468   -8.9086  -15.1797 C   0  0  0  0  0  0  0  0  0  0  0  0
   18.6258   -8.6435  -14.2546 O   0  0  0  0  0  0  0  0  0  0  0  0
   20.5632   -8.0625  -15.2706 N   0  0  0  0  0  0  0  0  0  0  0  0
   20.7866   -6.9022  -14.4602 C   0  0  1  0  0  0  0  0  0  0  0  0
   22.1288   -6.9759  -13.7898 C   0  0  0  0  0  0  0  0  0  0  0  0
   22.3891   -5.8591  -12.8523 C   0  0  0  0  0  0  0  0  0  0  0  0
   23.0562   -4.8442  -13.2275 O   0  0  0  0  0  0  0  0  0  0  0  0
   20.6478   -5.6246  -15.1390 C   0  0  0  0  0  0  0  0  0  0  0  0
   20.6725   -4.4843  -14.6084 O   0  0  0  0  0  0  0  0  0  0  0  0
   21.9532   -5.8114  -11.5365 O   0  0  0  0  0  0  0  0  0  0  0  0
   20.2818   -0.1389  -22.0073 O   0  0  0  0  0  0  0  0  0  0  0  0
   20.4771   -1.2164  -21.1248 C   0  0  0  0  0  0  0  0  0  0  0  0
   19.8701   -2.4292  -21.3687 C   0  0  0  0  0  0  0  0  0  0  0  0
   20.1047   -3.4430  -20.4625 C   0  0  0  0  0  0  0  0  0  0  0  0
   20.9086   -3.2624  -19.3587 C   0  0  0  0  0  0  0  0  0  0  0  0
   21.1138   -4.3791  -18.4376 C   0  0  0  0  0  0  0  0  0  0  0  0
   20.1175   -4.4448  -17.3015 C   0  0  2  0  0  0  0  0  0  0  0  0
   20.4651   -5.6619  -16.5506 N   0  0  0  0  0  0  0  0  0  0  0  0
   18.7155   -4.5910  -17.7672 C   0  0  0  0  0  0  0  0  0  0  0  0
   17.8766   -3.5102  -17.9769 O   0  0  0  0  0  0  0  0  0  0  0  0
   21.5016   -2.0411  -19.1400 C   0  0  0  0  0  0  0  0  0  0  0  0
   21.2808   -1.0217  -20.0288 C   0  0  0  0  0  0  0  0  0  0  0  0
   18.2092   -5.7364  -17.9995 O   0  0  0  0  0  0  0  0  0  0  0  0
  1  2  1  0
  2  3  1  0
  3  4  1  6
  5  6  1  1
  5  3  1  0
  7  8  2  0
  7  5  1  0
  9  7  1  0
 10  9  1  0
 10 11  1  6
 12 16  1  0
 12 11  1  0
 13 12  2  0
 14 24  1  0
 14 10  1  0
 15 14  2  0
 18 17  1  0
 19 18  2  0
 20 19  1  0
 21 27  1  0
 21 20  2  0
 22 21  1  0
 23 22  1  6
 23 24  1  0
 23 25  1  0
 25 26  1  0
 27 28  2  0
 28 18  1  0
 29 25  2  0
M  END
$$$$
