IDY.pdb
     RDKit          3D

 29 29  0  0  1  0  0  0  0  0999 V2000
   28.8007  -16.7874  -16.5708 C   0  0  0  0  0  0  0  0  0  0  0  0
   27.9727  -18.0476  -16.5205 C   0  0  0  0  0  0  0  0  0  0  0  0
   27.3874  -18.3189  -15.1577 C   0  0  2  0  0  0  0  0  0  0  0  0
   28.3754  -18.9828  -14.2333 C   0  0  0  0  0  0  0  0  0  0  0  0
   26.0907  -19.0737  -15.2675 C   0  0  2  0  0  0  0  0  0  0  0  0
   25.1914  -18.5194  -16.2131 N   0  0  0  0  0  0  0  0  0  0  0  0
   25.5240  -19.3494  -13.9377 C   0  0  0  0  0  0  0  0  0  0  0  0
   25.2564  -18.3486  -13.2118 O   0  0  0  0  0  0  0  0  0  0  0  0
   25.2442  -20.6060  -13.3780 N   0  0  0  0  0  0  0  0  0  0  0  0
   24.6669  -20.8224  -12.0847 C   0  0  1  0  0  0  0  0  0  0  0  0
   23.5582  -21.8329  -12.1630 C   0  0  0  0  0  0  0  0  0  0  0  0
   22.3975  -21.3834  -12.9659 C   0  0  0  0  0  0  0  0  0  0  0  0
   21.9092  -20.2216  -12.7996 O   0  0  0  0  0  0  0  0  0  0  0  0
   25.5989  -21.1985  -11.0347 C   0  0  0  0  0  0  0  0  0  0  0  0
   26.2737  -22.2583  -10.9721 O   0  0  0  0  0  0  0  0  0  0  0  0
   21.7585  -22.1473  -13.9312 O   0  0  0  0  0  0  0  0  0  0  0  0
   29.5254  -19.8300   -3.1986 O   0  0  0  0  0  0  0  0  0  0  0  0
   28.9521  -19.7424   -4.4799 C   0  0  0  0  0  0  0  0  0  0  0  0
   29.2890  -20.6585   -5.4526 C   0  0  0  0  0  0  0  0  0  0  0  0
   28.6892  -20.5139   -6.6869 C   0  0  0  0  0  0  0  0  0  0  0  0
   27.7915  -19.5021   -6.9470 C   0  0  0  0  0  0  0  0  0  0  0  0
   27.1936  -19.4062   -8.2777 C   0  0  0  0  0  0  0  0  0  0  0  0
   26.4867  -20.6615   -8.7385 C   0  0  2  0  0  0  0  0  0  0  0  0
   25.7697  -20.2752   -9.9643 N   0  0  0  0  0  0  0  0  0  0  0  0
   25.4782  -21.1500   -7.7648 C   0  0  0  0  0  0  0  0  0  0  0  0
   25.7842  -22.0357   -6.7462 O   0  0  0  0  0  0  0  0  0  0  0  0
   27.4737  -18.6018   -5.9572 C   0  0  0  0  0  0  0  0  0  0  0  0
   28.0590  -18.7288   -4.7247 C   0  0  0  0  0  0  0  0  0  0  0  0
   24.2634  -20.7714   -7.8211 O   0  0  0  0  0  0  0  0  0  0  0  0
  1  2  1  0
  2  3  1  0
  3  4  1  1
  5  6  1  6
  5  3  1  0
  7  8  2  0
  7  5  1  0
  9  7  1  0
 10  9  1  0
 10 11  1  6
 12 16  1  0
 12 11  1  0
 13 12  2  0
 14 24  1  0
 14 10  1  0
 15 14  2  0
 18 17  1  0
 19 18  2  0
 20 19  1  0
 21 27  1  0
 21 20  2  0
 22 21  1  0
 23 22  1  1
 23 24  1  0
 23 25  1  0
 25 26  1  0
 27 28  2  0
 28 18  1  0
 29 25  2  0
M  END
$$$$
