IDY.pdb
     RDKit          3D

 29 29  0  0  1  0  0  0  0  0999 V2000
   24.7666  -25.9274  -17.1274 C   0  0  0  0  0  0  0  0  0  0  0  0
   24.6797  -27.0855  -18.0904 C   0  0  0  0  0  0  0  0  0  0  0  0
   25.2497  -28.3650  -17.5325 C   0  0  2  0  0  0  0  0  0  0  0  0
   26.6537  -28.1868  -17.0142 C   0  0  0  0  0  0  0  0  0  0  0  0
   25.1314  -29.4876  -18.5270 C   0  0  2  0  0  0  0  0  0  0  0  0
   23.7998  -29.7343  -18.9465 N   0  0  0  0  0  0  0  0  0  0  0  0
   25.8871  -30.6699  -18.0837 C   0  0  0  0  0  0  0  0  0  0  0  0
   25.3069  -31.4478  -17.2722 O   0  0  0  0  0  0  0  0  0  0  0  0
   27.1886  -31.0362  -18.4610 N   0  0  0  0  0  0  0  0  0  0  0  0
   27.8939  -32.1864  -17.9790 C   0  0  1  0  0  0  0  0  0  0  0  0
   29.2253  -32.3151  -18.6626 C   0  0  0  0  0  0  0  0  0  0  0  0
   29.9047  -33.6061  -18.4063 C   0  0  0  0  0  0  0  0  0  0  0  0
   29.3298  -34.5140  -17.7273 O   0  0  0  0  0  0  0  0  0  0  0  0
   28.0744  -32.2556  -16.5384 C   0  0  0  0  0  0  0  0  0  0  0  0
   28.6440  -31.4028  -15.8100 O   0  0  0  0  0  0  0  0  0  0  0  0
   31.1735  -33.9369  -18.8584 O   0  0  0  0  0  0  0  0  0  0  0  0
   25.4293  -32.6190   -8.4618 O   0  0  0  0  0  0  0  0  0  0  0  0
   25.7266  -32.5601   -9.8352 C   0  0  0  0  0  0  0  0  0  0  0  0
   24.7090  -32.5684  -10.7643 C   0  0  0  0  0  0  0  0  0  0  0  0
   25.0718  -32.5083  -12.0943 C   0  0  0  0  0  0  0  0  0  0  0  0
   26.3902  -32.4425  -12.4879 C   0  0  0  0  0  0  0  0  0  0  0  0
   26.7046  -32.3822  -13.9145 C   0  0  0  0  0  0  0  0  0  0  0  0
   27.5791  -33.5120  -14.4112 C   0  0  2  0  0  0  0  0  0  0  0  0
   27.5544  -33.4053  -15.8788 N   0  0  0  0  0  0  0  0  0  0  0  0
   27.0545  -34.8531  -14.0507 C   0  0  0  0  0  0  0  0  0  0  0  0
   26.5783  -35.7513  -14.9900 O   0  0  0  0  0  0  0  0  0  0  0  0
   27.3853  -32.4359  -11.5388 C   0  0  0  0  0  0  0  0  0  0  0  0
   27.0451  -32.4950  -10.2127 C   0  0  0  0  0  0  0  0  0  0  0  0
   27.0166  -35.2478  -12.8403 O   0  0  0  0  0  0  0  0  0  0  0  0
  1  2  1  0
  2  3  1  0
  3  4  1  6
  5  6  1  1
  5  3  1  0
  7  8  2  0
  7  5  1  0
  9  7  1  0
 10  9  1  0
 10 11  1  6
 12 16  1  0
 12 11  1  0
 13 12  2  0
 14 24  1  0
 14 10  1  0
 15 14  2  0
 18 17  1  0
 19 18  2  0
 20 19  1  0
 21 27  1  0
 21 20  2  0
 22 21  1  0
 23 22  1  1
 23 24  1  0
 23 25  1  0
 25 26  1  0
 27 28  2  0
 28 18  1  0
 29 25  2  0
M  END
$$$$
