IDY.pdb
     RDKit          3D

 29 29  0  0  1  0  0  0  0  0999 V2000
   15.8505  -12.6559  -15.7490 C   0  0  0  0  0  0  0  0  0  0  0  0
   17.1070  -12.6438  -16.5840 C   0  0  0  0  0  0  0  0  0  0  0  0
   18.0739  -11.5577  -16.1852 C   0  0  2  0  0  0  0  0  0  0  0  0
   17.4418  -10.1898  -16.2179 C   0  0  0  0  0  0  0  0  0  0  0  0
   19.3390  -11.6370  -16.9953 C   0  0  2  0  0  0  0  0  0  0  0  0
   19.9831  -12.8977  -16.9173 N   0  0  0  0  0  0  0  0  0  0  0  0
   20.1990  -10.4682  -16.7504 C   0  0  0  0  0  0  0  0  0  0  0  0
   20.8412  -10.4494  -15.6607 O   0  0  0  0  0  0  0  0  0  0  0  0
   20.3896   -9.3628  -17.5944 N   0  0  0  0  0  0  0  0  0  0  0  0
   21.1034   -8.1710  -17.2436 C   0  0  1  0  0  0  0  0  0  0  0  0
   21.4125   -7.3597  -18.4694 C   0  0  0  0  0  0  0  0  0  0  0  0
   22.2569   -6.1727  -18.2013 C   0  0  0  0  0  0  0  0  0  0  0  0
   23.3820   -6.2986  -17.6233 O   0  0  0  0  0  0  0  0  0  0  0  0
   20.4671   -7.3274  -16.2456 C   0  0  0  0  0  0  0  0  0  0  0  0
   19.2315   -7.1921  -16.0524 O   0  0  0  0  0  0  0  0  0  0  0  0
   21.9210   -4.8695  -18.5369 O   0  0  0  0  0  0  0  0  0  0  0  0
   17.9847   -4.3916   -8.7384 O   0  0  0  0  0  0  0  0  0  0  0  0
   18.5297   -4.9703   -9.8987 C   0  0  0  0  0  0  0  0  0  0  0  0
   18.0671   -4.5957  -11.1415 C   0  0  0  0  0  0  0  0  0  0  0  0
   18.6460   -5.2030  -12.2369 C   0  0  0  0  0  0  0  0  0  0  0  0
   19.6434   -6.1440  -12.1063 C   0  0  0  0  0  0  0  0  0  0  0  0
   20.2125   -6.7493  -13.3093 C   0  0  0  0  0  0  0  0  0  0  0  0
   20.7820   -5.7580  -14.2996 C   0  0  2  0  0  0  0  0  0  0  0  0
   21.3267   -6.5745  -15.3962 N   0  0  0  0  0  0  0  0  0  0  0  0
   21.8993   -4.9562  -13.7404 C   0  0  0  0  0  0  0  0  0  0  0  0
   23.1819   -5.4550  -13.5927 O   0  0  0  0  0  0  0  0  0  0  0  0
   20.0857   -6.4989  -10.8534 C   0  0  0  0  0  0  0  0  0  0  0  0
   19.5231   -5.9068   -9.7530 C   0  0  0  0  0  0  0  0  0  0  0  0
   21.7283   -3.7516  -13.3636 O   0  0  0  0  0  0  0  0  0  0  0  0
  1  2  1  0
  2  3  1  0
  3  4  1  6
  5  6  1  1
  5  3  1  0
  7  8  2  0
  7  5  1  0
  9  7  1  0
 10  9  1  0
 10 11  1  6
 12 16  1  0
 12 11  1  0
 13 12  2  0
 14 24  1  0
 14 10  1  0
 15 14  2  0
 18 17  1  0
 19 18  2  0
 20 19  1  0
 21 27  1  0
 21 20  2  0
 22 21  1  0
 23 22  1  1
 23 24  1  0
 23 25  1  0
 25 26  1  0
 27 28  2  0
 28 18  1  0
 29 25  2  0
M  END
$$$$
