IDY.pdb
     RDKit          3D

 29 29  0  0  1  0  0  0  0  0999 V2000
   20.7637  -13.0088  -16.3331 C   0  0  0  0  0  0  0  0  0  0  0  0
   19.6877  -12.0703  -16.8207 C   0  0  0  0  0  0  0  0  0  0  0  0
   20.0985  -10.6203  -16.7719 C   0  0  2  0  0  0  0  0  0  0  0  0
   20.6550  -10.2291  -15.4269 C   0  0  0  0  0  0  0  0  0  0  0  0
   18.9764   -9.7258  -17.2233 C   0  0  2  0  0  0  0  0  0  0  0  0
   18.2786  -10.2199  -18.3544 N   0  0  0  0  0  0  0  0  0  0  0  0
   19.4184   -8.3250  -17.3116 C   0  0  0  0  0  0  0  0  0  0  0  0
   20.6528   -8.1263  -17.5041 O   0  0  0  0  0  0  0  0  0  0  0  0
   18.6207   -7.1747  -17.2058 N   0  0  0  0  0  0  0  0  0  0  0  0
   19.1012   -5.8276  -17.2899 C   0  0  1  0  0  0  0  0  0  0  0  0
   18.1392   -4.9703  -18.0620 C   0  0  0  0  0  0  0  0  0  0  0  0
   17.8353   -5.4868  -19.4165 C   0  0  0  0  0  0  0  0  0  0  0  0
   18.7703   -5.8870  -20.1791 O   0  0  0  0  0  0  0  0  0  0  0  0
   19.4148   -5.1912  -16.0213 C   0  0  0  0  0  0  0  0  0  0  0  0
   18.7378   -5.2501  -14.9627 O   0  0  0  0  0  0  0  0  0  0  0  0
   16.5634   -5.5802  -19.9617 O   0  0  0  0  0  0  0  0  0  0  0  0
   22.2361   -9.8977  -13.2023 O   0  0  0  0  0  0  0  0  0  0  0  0
   22.2712   -8.5211  -13.4887 C   0  0  0  0  0  0  0  0  0  0  0  0
   21.7782   -7.6122  -12.5779 C   0  0  0  0  0  0  0  0  0  0  0  0
   21.8441   -6.2778  -12.9230 C   0  0  0  0  0  0  0  0  0  0  0  0
   22.3772   -5.8607  -14.1227 C   0  0  0  0  0  0  0  0  0  0  0  0
   22.4150   -4.4308  -14.4257 C   0  0  0  0  0  0  0  0  0  0  0  0
   21.0623   -3.8137  -14.7032 C   0  0  2  0  0  0  0  0  0  0  0  0
   20.6108   -4.4206  -15.9657 N   0  0  0  0  0  0  0  0  0  0  0  0
   21.1262   -2.3451  -14.9100 C   0  0  0  0  0  0  0  0  0  0  0  0
   21.4464   -1.4567  -13.8981 O   0  0  0  0  0  0  0  0  0  0  0  0
   22.8620   -6.7900  -15.0130 C   0  0  0  0  0  0  0  0  0  0  0  0
   22.8054   -8.1201  -14.6883 C   0  0  0  0  0  0  0  0  0  0  0  0
   20.8852   -1.8237  -16.0469 O   0  0  0  0  0  0  0  0  0  0  0  0
  1  2  1  0
  2  3  1  0
  3  4  1  1
  5  6  1  6
  5  3  1  0
  7  8  2  0
  7  5  1  0
  9  7  1  0
 10  9  1  0
 10 11  1  1
 12 16  1  0
 12 11  1  0
 13 12  2  0
 14 24  1  0
 14 10  1  0
 15 14  2  0
 18 17  1  0
 19 18  2  0
 20 19  1  0
 21 27  1  0
 21 20  2  0
 22 21  1  0
 23 22  1  6
 23 24  1  0
 23 25  1  0
 25 26  1  0
 27 28  2  0
 28 18  1  0
 29 25  2  0
M  END
$$$$
