PKP.pdb
     RDKit          3D

 24 25  0  0  1  0  0  0  0  0999 V2000
    8.5293  -15.1750   19.6296 N   0  0  0  0  0  0  0  0  0  0  0  0
    8.3839  -14.9509   18.1990 C   0  0  0  0  0  0  0  0  0  0  0  0
    8.0791  -13.4868   18.0180 C   0  0  0  0  0  0  0  0  0  0  0  0
    7.5229  -13.1234   19.4037 C   0  0  0  0  0  0  0  0  0  0  0  0
    8.4409  -13.9065   20.2718 C   0  0  1  0  0  0  0  0  0  0  0  0
    8.0080  -14.0119   21.6817 C   0  0  0  0  0  0  0  0  0  0  0  0
    7.8133  -12.9439   22.2921 O   0  0  0  0  0  0  0  0  0  0  0  0
    7.8069  -15.2271   22.3614 N   0  0  0  0  0  0  0  0  0  0  0  0
    7.3581  -15.4746   23.6779 C   0  0  1  0  0  0  0  0  0  0  0  0
    6.9028  -16.8662   24.0175 C   0  0  0  0  0  0  0  0  0  0  0  0
    6.2251  -17.6026   22.8971 C   0  0  0  0  0  0  0  0  0  0  0  0
    5.9858  -19.0292   23.3198 C   0  0  0  0  0  0  0  0  0  0  0  0
    5.2886  -19.8919   22.3103 C   0  0  0  0  0  0  0  0  0  0  0  0
    5.0460  -21.2252   22.7975 N   0  0  0  0  0  0  0  0  0  0  0  0
    8.2012  -14.9415   24.7467 C   0  0  0  0  0  0  0  0  0  0  0  0
    9.4666  -15.1215   24.5671 O   0  0  0  0  0  0  0  0  0  0  0  0
    7.8196  -14.2718   25.9150 N   0  0  0  0  0  0  0  0  0  0  0  0
    6.5136  -13.9463   26.4386 C   0  0  0  0  0  0  0  0  0  0  0  0
    6.7197  -12.5957   27.1220 C   0  0  0  0  0  0  0  0  0  0  0  0
    8.2116  -12.3536   27.1299 C   0  0  0  0  0  0  0  0  0  0  0  0
    8.7894  -13.7101   26.8678 C   0  0  1  0  0  0  0  0  0  0  0  0
    8.8813  -14.5636   28.0620 C   0  0  0  0  0  0  0  0  0  0  0  0
    9.6887  -14.2466   28.9719 O   0  0  0  0  0  0  0  0  0  0  0  0
    8.1336  -15.7020   28.2553 O   0  0  0  0  0  0  0  0  0  0  0  0
  1  2  1  0
  1  5  1  0
  2  3  1  0
  3  4  1  0
  5  4  1  0
  5  6  1  1
  6  7  2  0
  8  6  1  0
  9  8  1  0
 10 11  1  0
  9 10  1  1
 11 12  1  0
 12 13  1  0
 13 14  1  0
 15  9  1  0
 16 15  2  0
 17 21  1  0
 17 15  1  0
 18 19  1  0
 18 17  1  0
 19 20  1  0
 21 20  1  0
 21 22  1  1
 23 22  2  0
 24 22  1  0
M  END
$$$$
