PKP.pdb
     RDKit          3D

 24 25  0  0  1  0  0  0  0  0999 V2000
    8.5250  -15.1524   19.4812 N   0  0  0  0  0  0  0  0  0  0  0  0
    8.3285  -14.8740   18.0663 C   0  0  0  0  0  0  0  0  0  0  0  0
    8.1408  -13.3848   17.9392 C   0  0  0  0  0  0  0  0  0  0  0  0
    7.6869  -13.0179   19.3608 C   0  0  0  0  0  0  0  0  0  0  0  0
    8.5767  -13.9008   20.1596 C   0  0  1  0  0  0  0  0  0  0  0  0
    8.2067  -14.0121   21.5869 C   0  0  0  0  0  0  0  0  0  0  0  0
    8.1579  -12.9527   22.2400 O   0  0  0  0  0  0  0  0  0  0  0  0
    7.9118  -15.2236   22.2383 N   0  0  0  0  0  0  0  0  0  0  0  0
    7.4622  -15.4675   23.5550 C   0  0  1  0  0  0  0  0  0  0  0  0
    6.9234  -16.8340   23.8742 C   0  0  0  0  0  0  0  0  0  0  0  0
    5.9453  -17.3794   22.8729 C   0  0  0  0  0  0  0  0  0  0  0  0
    5.8015  -18.8646   23.0844 C   0  0  0  0  0  0  0  0  0  0  0  0
    4.8965  -19.5684   22.1174 C   0  0  0  0  0  0  0  0  0  0  0  0
    4.9013  -20.9972   22.2969 N   0  0  0  0  0  0  0  0  0  0  0  0
    8.3485  -15.0092   24.6236 C   0  0  0  0  0  0  0  0  0  0  0  0
    9.5975  -15.2701   24.4285 O   0  0  0  0  0  0  0  0  0  0  0  0
    8.0229  -14.3349   25.8061 N   0  0  0  0  0  0  0  0  0  0  0  0
    6.7474  -13.9201   26.3414 C   0  0  0  0  0  0  0  0  0  0  0  0
    7.0586  -12.6028   27.0493 C   0  0  0  0  0  0  0  0  0  0  0  0
    8.5648  -12.4761   27.0554 C   0  0  0  0  0  0  0  0  0  0  0  0
    9.0358  -13.8677   26.7650 C   0  0  1  0  0  0  0  0  0  0  0  0
    9.0653  -14.7486   27.9425 C   0  0  0  0  0  0  0  0  0  0  0  0
    8.1760  -15.6289   28.0624 O   0  0  0  0  0  0  0  0  0  0  0  0
   10.0131  -14.6746   28.9369 O   0  0  0  0  0  0  0  0  0  0  0  0
  1  2  1  0
  1  5  1  0
  2  3  1  0
  3  4  1  0
  5  4  1  0
  5  6  1  1
  6  7  2  0
  8  6  1  0
  9  8  1  0
 10 11  1  0
  9 10  1  6
 11 12  1  0
 12 13  1  0
 13 14  1  0
 15  9  1  0
 16 15  2  0
 17 21  1  0
 17 15  1  0
 18 19  1  0
 18 17  1  0
 19 20  1  0
 21 20  1  0
 21 22  1  1
 23 22  2  0
 24 22  1  0
M  END
$$$$
