PKP.pdb
     RDKit          3D

 24 25  0  0  1  0  0  0  0  0999 V2000
    8.7512  -15.0794   19.8678 N   0  0  0  0  0  0  0  0  0  0  0  0
    8.5018  -14.7360   18.4757 C   0  0  0  0  0  0  0  0  0  0  0  0
    8.0656  -13.2943   18.4559 C   0  0  0  0  0  0  0  0  0  0  0  0
    7.5653  -13.1132   19.8976 C   0  0  0  0  0  0  0  0  0  0  0  0
    8.5960  -13.8896   20.6356 C   0  0  1  0  0  0  0  0  0  0  0  0
    8.2589  -14.1648   22.0487 C   0  0  0  0  0  0  0  0  0  0  0  0
    8.1445  -13.1798   22.8023 O   0  0  0  0  0  0  0  0  0  0  0  0
    8.0634  -15.4519   22.5819 N   0  0  0  0  0  0  0  0  0  0  0  0
    7.8184  -15.8631   23.9110 C   0  0  1  0  0  0  0  0  0  0  0  0
    7.3396  -17.2700   24.1367 C   0  0  0  0  0  0  0  0  0  0  0  0
    7.2927  -17.7005   25.5752 C   0  0  0  0  0  0  0  0  0  0  0  0
    6.9168  -19.1584   25.6404 C   0  0  0  0  0  0  0  0  0  0  0  0
    6.6625  -19.6973   27.0167 C   0  0  0  0  0  0  0  0  0  0  0  0
    6.4592  -21.1229   27.0223 N   0  0  0  0  0  0  0  0  0  0  0  0
    8.8536  -15.5173   24.8836 C   0  0  0  0  0  0  0  0  0  0  0  0
   10.0507  -15.8410   24.5254 O   0  0  0  0  0  0  0  0  0  0  0  0
    8.7160  -14.8901   26.1272 N   0  0  0  0  0  0  0  0  0  0  0  0
    7.5436  -14.4266   26.8315 C   0  0  0  0  0  0  0  0  0  0  0  0
    8.0253  -13.1723   27.5582 C   0  0  0  0  0  0  0  0  0  0  0  0
    9.5269  -13.1405   27.3885 C   0  0  0  0  0  0  0  0  0  0  0  0
    9.8640  -14.5407   26.9780 C   0  0  1  0  0  0  0  0  0  0  0  0
    9.9709  -15.4852   28.1003 C   0  0  0  0  0  0  0  0  0  0  0  0
    9.0629  -16.3394   28.2612 O   0  0  0  0  0  0  0  0  0  0  0  0
   11.0117  -15.4987   28.9999 O   0  0  0  0  0  0  0  0  0  0  0  0
  1  2  1  0
  1  5  1  0
  2  3  1  0
  3  4  1  0
  5  4  1  0
  5  6  1  1
  6  7  2  0
  8  6  1  0
  9  8  1  0
 10 11  1  0
  9 10  1  6
 11 12  1  0
 12 13  1  0
 13 14  1  0
 15  9  1  0
 16 15  2  0
 17 21  1  0
 17 15  1  0
 18 19  1  0
 18 17  1  0
 19 20  1  0
 21 20  1  0
 21 22  1  1
 23 22  2  0
 24 22  1  0
M  END
$$$$
