PKP.pdb
     RDKit          3D

 24 25  0  0  1  0  0  0  0  0999 V2000
    8.4373  -15.0938   19.5795 N   0  0  0  0  0  0  0  0  0  0  0  0
    8.3899  -14.8935   18.1388 C   0  0  0  0  0  0  0  0  0  0  0  0
    8.2352  -13.4125   17.9115 C   0  0  0  0  0  0  0  0  0  0  0  0
    7.6431  -12.9635   19.2567 C   0  0  0  0  0  0  0  0  0  0  0  0
    8.4354  -13.8067   20.1899 C   0  0  1  0  0  0  0  0  0  0  0  0
    7.9202  -13.8353   21.5756 C   0  0  0  0  0  0  0  0  0  0  0  0
    7.9106  -12.7549   22.1950 O   0  0  0  0  0  0  0  0  0  0  0  0
    7.4485  -14.9917   22.2232 N   0  0  0  0  0  0  0  0  0  0  0  0
    6.9207  -15.1607   23.5226 C   0  0  1  0  0  0  0  0  0  0  0  0
    6.3000  -16.4862   23.8645 C   0  0  0  0  0  0  0  0  0  0  0  0
    7.2769  -17.5709   24.2195 C   0  0  0  0  0  0  0  0  0  0  0  0
    6.5171  -18.8342   24.5324 C   0  0  0  0  0  0  0  0  0  0  0  0
    7.3565  -20.0025   24.9566 C   0  0  0  0  0  0  0  0  0  0  0  0
    6.5682  -21.1729   25.2438 N   0  0  0  0  0  0  0  0  0  0  0  0
    7.7725  -14.7015   24.6185 C   0  0  0  0  0  0  0  0  0  0  0  0
    9.0375  -14.8467   24.4069 O   0  0  0  0  0  0  0  0  0  0  0  0
    7.3995  -14.1333   25.8420 N   0  0  0  0  0  0  0  0  0  0  0  0
    6.1024  -13.9671   26.4548 C   0  0  0  0  0  0  0  0  0  0  0  0
    6.2176  -12.6390   27.2007 C   0  0  0  0  0  0  0  0  0  0  0  0
    7.6768  -12.2494   27.1394 C   0  0  0  0  0  0  0  0  0  0  0  0
    8.3664  -13.5262   26.7696 C   0  0  1  0  0  0  0  0  0  0  0  0
    8.6131  -14.4255   27.9069 C   0  0  0  0  0  0  0  0  0  0  0  0
    9.4409  -14.0763   28.7862 O   0  0  0  0  0  0  0  0  0  0  0  0
    7.9913  -15.6407   28.0778 O   0  0  0  0  0  0  0  0  0  0  0  0
  1  2  1  0
  1  5  1  0
  2  3  1  0
  3  4  1  0
  5  4  1  0
  5  6  1  1
  6  7  2  0
  8  6  1  0
  9  8  1  0
 10 11  1  0
  9 10  1  1
 11 12  1  0
 12 13  1  0
 13 14  1  0
 15  9  1  0
 16 15  2  0
 17 21  1  0
 17 15  1  0
 18 19  1  0
 18 17  1  0
 19 20  1  0
 21 20  1  0
 21 22  1  1
 23 22  2  0
 24 22  1  0
M  END
$$$$
