PKP.pdb
     RDKit          3D

 24 25  0  0  1  0  0  0  0  0999 V2000
    8.6548  -14.9134   19.6282 N   0  0  0  0  0  0  0  0  0  0  0  0
    8.5043  -14.6580   18.2034 C   0  0  0  0  0  0  0  0  0  0  0  0
    7.9931  -13.2476   18.0670 C   0  0  0  0  0  0  0  0  0  0  0  0
    7.3648  -13.0219   19.4511 C   0  0  0  0  0  0  0  0  0  0  0  0
    8.3710  -13.6966   20.3125 C   0  0  1  0  0  0  0  0  0  0  0  0
    7.9323  -13.9176   21.7072 C   0  0  0  0  0  0  0  0  0  0  0  0
    7.6862  -12.9036   22.3872 O   0  0  0  0  0  0  0  0  0  0  0  0
    7.7796  -15.1843   22.2999 N   0  0  0  0  0  0  0  0  0  0  0  0
    7.4064  -15.5388   23.6154 C   0  0  1  0  0  0  0  0  0  0  0  0
    7.0674  -16.9775   23.8884 C   0  0  0  0  0  0  0  0  0  0  0  0
    6.9061  -17.3261   25.3408 C   0  0  0  0  0  0  0  0  0  0  0  0
    7.0145  -18.8205   25.5030 C   0  0  0  0  0  0  0  0  0  0  0  0
    6.8855  -19.3269   26.9087 C   0  0  0  0  0  0  0  0  0  0  0  0
    7.1103  -20.7460   27.0068 N   0  0  0  0  0  0  0  0  0  0  0  0
    8.2537  -15.0061   24.6811 C   0  0  0  0  0  0  0  0  0  0  0  0
    9.5022  -15.3158   24.5742 O   0  0  0  0  0  0  0  0  0  0  0  0
    7.8922  -14.2167   25.7788 N   0  0  0  0  0  0  0  0  0  0  0  0
    6.6031  -13.7364   26.2186 C   0  0  0  0  0  0  0  0  0  0  0  0
    6.9072  -12.3608   26.8091 C   0  0  0  0  0  0  0  0  0  0  0  0
    8.4138  -12.2528   26.8653 C   0  0  0  0  0  0  0  0  0  0  0  0
    8.8733  -13.6717   26.7296 C   0  0  1  0  0  0  0  0  0  0  0  0
    8.8414  -14.4349   27.9864 C   0  0  0  0  0  0  0  0  0  0  0  0
    7.9418  -15.2980   28.1478 O   0  0  0  0  0  0  0  0  0  0  0  0
    9.7415  -14.2672   29.0132 O   0  0  0  0  0  0  0  0  0  0  0  0
  1  2  1  0
  1  5  1  0
  2  3  1  0
  3  4  1  0
  5  4  1  0
  5  6  1  1
  6  7  2  0
  8  6  1  0
  9  8  1  0
 10 11  1  0
  9 10  1  6
 11 12  1  0
 12 13  1  0
 13 14  1  0
 15  9  1  0
 16 15  2  0
 17 21  1  0
 17 15  1  0
 18 19  1  0
 18 17  1  0
 19 20  1  0
 21 20  1  0
 21 22  1  1
 23 22  2  0
 24 22  1  0
M  END
$$$$
