PKP.pdb
     RDKit          3D

 24 25  0  0  1  0  0  0  0  0999 V2000
    8.9001  -15.0650   19.8488 N   0  0  0  0  0  0  0  0  0  0  0  0
    8.7550  -14.8737   18.4134 C   0  0  0  0  0  0  0  0  0  0  0  0
    8.0625  -13.5501   18.2198 C   0  0  0  0  0  0  0  0  0  0  0  0
    7.3725  -13.3714   19.5813 C   0  0  0  0  0  0  0  0  0  0  0  0
    8.4368  -13.8784   20.4867 C   0  0  1  0  0  0  0  0  0  0  0  0
    7.9946  -14.1162   21.8774 C   0  0  0  0  0  0  0  0  0  0  0  0
    7.4695  -13.1567   22.4730 O   0  0  0  0  0  0  0  0  0  0  0  0
    8.1301  -15.3418   22.5548 N   0  0  0  0  0  0  0  0  0  0  0  0
    7.8000  -15.6936   23.8825 C   0  0  1  0  0  0  0  0  0  0  0  0
    7.3717  -17.1091   24.1510 C   0  0  0  0  0  0  0  0  0  0  0  0
    6.2115  -17.5877   23.3253 C   0  0  0  0  0  0  0  0  0  0  0  0
    6.0149  -19.0631   23.5616 C   0  0  0  0  0  0  0  0  0  0  0  0
    4.9463  -19.7115   22.7328 C   0  0  0  0  0  0  0  0  0  0  0  0
    4.8350  -21.1252   22.9837 N   0  0  0  0  0  0  0  0  0  0  0  0
    8.7373  -15.2435   24.9103 C   0  0  0  0  0  0  0  0  0  0  0  0
    9.9782  -15.4680   24.6348 O   0  0  0  0  0  0  0  0  0  0  0  0
    8.4670  -14.6105   26.1290 N   0  0  0  0  0  0  0  0  0  0  0  0
    7.2169  -14.2291   26.7433 C   0  0  0  0  0  0  0  0  0  0  0  0
    7.5502  -12.9306   27.4755 C   0  0  0  0  0  0  0  0  0  0  0  0
    9.0531  -12.7848   27.4067 C   0  0  0  0  0  0  0  0  0  0  0  0
    9.5237  -14.1605   27.0480 C   0  0  1  0  0  0  0  0  0  0  0  0
    9.6251  -15.0772   28.1937 C   0  0  0  0  0  0  0  0  0  0  0  0
    8.7541  -15.9731   28.3312 O   0  0  0  0  0  0  0  0  0  0  0  0
   10.6223  -15.0211   29.1397 O   0  0  0  0  0  0  0  0  0  0  0  0
  1  2  1  0
  1  5  1  0
  2  3  1  0
  3  4  1  0
  5  4  1  0
  5  6  1  1
  6  7  2  0
  8  6  1  0
  9  8  1  0
 10 11  1  0
  9 10  1  6
 11 12  1  0
 12 13  1  0
 13 14  1  0
 15  9  1  0
 16 15  2  0
 17 21  1  0
 17 15  1  0
 18 19  1  0
 18 17  1  0
 19 20  1  0
 21 20  1  0
 21 22  1  1
 23 22  2  0
 24 22  1  0
M  END
$$$$
