PKP.pdb
     RDKit          3D

 24 25  0  0  1  0  0  0  0  0999 V2000
    8.6141  -14.8552   19.5319 N   0  0  0  0  0  0  0  0  0  0  0  0
    8.4277  -14.6093   18.1096 C   0  0  0  0  0  0  0  0  0  0  0  0
    7.8652  -13.2180   17.9798 C   0  0  0  0  0  0  0  0  0  0  0  0
    7.2561  -13.0101   19.3753 C   0  0  0  0  0  0  0  0  0  0  0  0
    8.3014  -13.6469   20.2187 C   0  0  1  0  0  0  0  0  0  0  0  0
    7.8974  -13.8789   21.6220 C   0  0  0  0  0  0  0  0  0  0  0  0
    7.6182  -12.8728   22.3011 O   0  0  0  0  0  0  0  0  0  0  0  0
    7.8118  -15.1475   22.2240 N   0  0  0  0  0  0  0  0  0  0  0  0
    7.4698  -15.5109   23.5455 C   0  0  1  0  0  0  0  0  0  0  0  0
    7.2926  -16.9719   23.8514 C   0  0  0  0  0  0  0  0  0  0  0  0
    7.1441  -17.3007   25.3098 C   0  0  0  0  0  0  0  0  0  0  0  0
    7.0766  -18.7974   25.4722 C   0  0  0  0  0  0  0  0  0  0  0  0
    6.7326  -19.2811   26.8495 C   0  0  0  0  0  0  0  0  0  0  0  0
    6.6180  -20.7150   26.9182 N   0  0  0  0  0  0  0  0  0  0  0  0
    8.2427  -14.8612   24.6028 C   0  0  0  0  0  0  0  0  0  0  0  0
    9.5160  -14.8356   24.3931 O   0  0  0  0  0  0  0  0  0  0  0  0
    7.7875  -14.2727   25.7883 N   0  0  0  0  0  0  0  0  0  0  0  0
    6.4736  -14.2378   26.3867 C   0  0  0  0  0  0  0  0  0  0  0  0
    6.4100  -12.8632   27.0499 C   0  0  0  0  0  0  0  0  0  0  0  0
    7.8077  -12.2936   26.9682 C   0  0  0  0  0  0  0  0  0  0  0  0
    8.6590  -13.4912   26.6791 C   0  0  1  0  0  0  0  0  0  0  0  0
    9.0075  -14.2807   27.8701 C   0  0  0  0  0  0  0  0  0  0  0  0
    8.4440  -15.3904   28.0469 O   0  0  0  0  0  0  0  0  0  0  0  0
    9.9212  -13.8827   28.8183 O   0  0  0  0  0  0  0  0  0  0  0  0
  1  2  1  0
  1  5  1  0
  2  3  1  0
  3  4  1  0
  5  4  1  0
  5  6  1  1
  6  7  2  0
  8  6  1  0
  9  8  1  0
 10 11  1  0
  9 10  1  6
 11 12  1  0
 12 13  1  0
 13 14  1  0
 15  9  1  0
 16 15  2  0
 17 21  1  0
 17 15  1  0
 18 19  1  0
 18 17  1  0
 19 20  1  0
 21 20  1  0
 21 22  1  1
 23 22  2  0
 24 22  1  0
M  END
$$$$
