PKP.pdb
     RDKit          3D

 24 25  0  0  1  0  0  0  0  0999 V2000
    8.5872  -15.1464   19.6136 N   0  0  0  0  0  0  0  0  0  0  0  0
    8.4100  -14.8713   18.1955 C   0  0  0  0  0  0  0  0  0  0  0  0
    8.1334  -13.3958   18.0710 C   0  0  0  0  0  0  0  0  0  0  0  0
    7.6214  -13.0672   19.4822 C   0  0  0  0  0  0  0  0  0  0  0  0
    8.5437  -13.8986   20.2994 C   0  0  1  0  0  0  0  0  0  0  0  0
    8.1449  -14.0420   21.7160 C   0  0  0  0  0  0  0  0  0  0  0  0
    8.0027  -12.9916   22.3699 O   0  0  0  0  0  0  0  0  0  0  0  0
    7.9208  -15.2744   22.3566 N   0  0  0  0  0  0  0  0  0  0  0  0
    7.5697  -15.5581   23.6951 C   0  0  1  0  0  0  0  0  0  0  0  0
    6.9715  -16.9036   23.9969 C   0  0  0  0  0  0  0  0  0  0  0  0
    5.8238  -17.2999   23.1122 C   0  0  0  0  0  0  0  0  0  0  0  0
    5.7247  -18.8033   23.0787 C   0  0  0  0  0  0  0  0  0  0  0  0
    4.7237  -19.3616   22.1115 C   0  0  0  0  0  0  0  0  0  0  0  0
    4.7496  -20.8005   22.0595 N   0  0  0  0  0  0  0  0  0  0  0  0
    8.5719  -15.2112   24.7015 C   0  0  0  0  0  0  0  0  0  0  0  0
    9.7740  -15.5751   24.4039 O   0  0  0  0  0  0  0  0  0  0  0  0
    8.3986  -14.5457   25.9206 N   0  0  0  0  0  0  0  0  0  0  0  0
    7.2242  -13.9599   26.5232 C   0  0  0  0  0  0  0  0  0  0  0  0
    7.7643  -12.7393   27.2660 C   0  0  0  0  0  0  0  0  0  0  0  0
    9.2708  -12.8504   27.2144 C   0  0  0  0  0  0  0  0  0  0  0  0
    9.5055  -14.2847   26.8535 C   0  0  1  0  0  0  0  0  0  0  0  0
    9.4366  -15.2092   27.9953 C   0  0  0  0  0  0  0  0  0  0  0  0
   10.3415  -15.1636   28.8665 O   0  0  0  0  0  0  0  0  0  0  0  0
    8.4351  -16.1344   28.1786 O   0  0  0  0  0  0  0  0  0  0  0  0
  1  2  1  0
  1  5  1  0
  2  3  1  0
  3  4  1  0
  5  4  1  0
  5  6  1  1
  6  7  2  0
  8  6  1  0
  9  8  1  0
 10 11  1  0
  9 10  1  6
 11 12  1  0
 12 13  1  0
 13 14  1  0
 15  9  1  0
 16 15  2  0
 17 21  1  0
 17 15  1  0
 18 19  1  0
 18 17  1  0
 19 20  1  0
 21 20  1  0
 21 22  1  1
 23 22  2  0
 24 22  1  0
M  END
$$$$
