PKP.pdb
     RDKit          3D

 24 25  0  0  1  0  0  0  0  0999 V2000
    8.9689  -17.6593   20.8459 N   0  0  0  0  0  0  0  0  0  0  0  0
    8.7376  -17.9332   19.4353 C   0  0  0  0  0  0  0  0  0  0  0  0
    9.7286  -17.1016   18.6637 C   0  0  0  0  0  0  0  0  0  0  0  0
   10.0585  -16.0033   19.6867 C   0  0  0  0  0  0  0  0  0  0  0  0
   10.1087  -16.8095   20.9345 C   0  0  1  0  0  0  0  0  0  0  0  0
   10.1267  -16.0105   22.1786 C   0  0  0  0  0  0  0  0  0  0  0  0
   11.2144  -15.4972   22.5023 O   0  0  0  0  0  0  0  0  0  0  0  0
    9.0064  -15.8001   23.0030 N   0  0  0  0  0  0  0  0  0  0  0  0
    8.8807  -15.0694   24.2055 C   0  0  1  0  0  0  0  0  0  0  0  0
    7.6063  -14.3069   24.4370 C   0  0  0  0  0  0  0  0  0  0  0  0
    7.4892  -13.6638   25.7897 C   0  0  0  0  0  0  0  0  0  0  0  0
    6.2308  -12.8357   25.8335 C   0  0  0  0  0  0  0  0  0  0  0  0
    5.9866  -12.1023   27.1187 C   0  0  0  0  0  0  0  0  0  0  0  0
    4.8178  -11.2630   27.0616 N   0  0  0  0  0  0  0  0  0  0  0  0
    9.2774  -15.7762   25.4222 C   0  0  0  0  0  0  0  0  0  0  0  0
    9.2494  -17.0629   25.3242 O   0  0  0  0  0  0  0  0  0  0  0  0
    9.6783  -15.2468   26.6543 N   0  0  0  0  0  0  0  0  0  0  0  0
    9.3155  -14.0191   27.3227 C   0  0  0  0  0  0  0  0  0  0  0  0
   10.5953  -13.6045   28.0464 C   0  0  0  0  0  0  0  0  0  0  0  0
   11.5475  -14.7710   27.9149 C   0  0  0  0  0  0  0  0  0  0  0  0
   10.6559  -15.9110   27.5300 C   0  0  1  0  0  0  0  0  0  0  0  0
    9.9712  -16.5465   28.6660 C   0  0  0  0  0  0  0  0  0  0  0  0
    8.7277  -16.4026   28.7808 O   0  0  0  0  0  0  0  0  0  0  0  0
   10.6071  -17.2991   29.6261 O   0  0  0  0  0  0  0  0  0  0  0  0
  1  2  1  0
  1  5  1  0
  2  3  1  0
  3  4  1  0
  5  4  1  0
  5  6  1  1
  6  7  2  0
  8  6  1  0
  9  8  1  0
 10 11  1  0
  9 10  1  1
 11 12  1  0
 12 13  1  0
 13 14  1  0
 15  9  1  0
 16 15  2  0
 17 21  1  0
 17 15  1  0
 18 19  1  0
 18 17  1  0
 19 20  1  0
 21 20  1  0
 21 22  1  1
 23 22  2  0
 24 22  1  0
M  END
$$$$
