PKP.pdb
     RDKit          3D

 24 25  0  0  1  0  0  0  0  0999 V2000
    8.6099  -14.9882   19.5654 N   0  0  0  0  0  0  0  0  0  0  0  0
    8.4263  -14.7228   18.1462 C   0  0  0  0  0  0  0  0  0  0  0  0
    8.0536  -13.2687   18.0214 C   0  0  0  0  0  0  0  0  0  0  0  0
    7.5095  -12.9773   19.4287 C   0  0  0  0  0  0  0  0  0  0  0  0
    8.4783  -13.7472   20.2524 C   0  0  1  0  0  0  0  0  0  0  0  0
    8.0785  -13.9193   21.6655 C   0  0  0  0  0  0  0  0  0  0  0  0
    7.8620  -12.8818   22.3197 O   0  0  0  0  0  0  0  0  0  0  0  0
    7.9310  -15.1649   22.3026 N   0  0  0  0  0  0  0  0  0  0  0  0
    7.5094  -15.4763   23.6144 C   0  0  1  0  0  0  0  0  0  0  0  0
    7.0549  -16.8816   23.8938 C   0  0  0  0  0  0  0  0  0  0  0  0
    6.1046  -17.4538   22.8806 C   0  0  0  0  0  0  0  0  0  0  0  0
    5.7969  -18.8829   23.2468 C   0  0  0  0  0  0  0  0  0  0  0  0
    4.8025  -19.5747   22.3626 C   0  0  0  0  0  0  0  0  0  0  0  0
    4.5531  -20.9332   22.7700 N   0  0  0  0  0  0  0  0  0  0  0  0
    8.3776  -15.0005   24.6900 C   0  0  0  0  0  0  0  0  0  0  0  0
    9.6371  -15.1907   24.4817 O   0  0  0  0  0  0  0  0  0  0  0  0
    8.0252  -14.3750   25.8915 N   0  0  0  0  0  0  0  0  0  0  0  0
    6.7326  -14.0832   26.4657 C   0  0  0  0  0  0  0  0  0  0  0  0
    6.9447  -12.7539   27.1878 C   0  0  0  0  0  0  0  0  0  0  0  0
    8.4334  -12.4939   27.1580 C   0  0  0  0  0  0  0  0  0  0  0  0
    9.0178  -13.8338   26.8325 C   0  0  1  0  0  0  0  0  0  0  0  0
    9.1564  -14.7256   27.9938 C   0  0  0  0  0  0  0  0  0  0  0  0
    9.9994  -14.4379   28.8807 O   0  0  0  0  0  0  0  0  0  0  0  0
    8.4161  -15.8701   28.1794 O   0  0  0  0  0  0  0  0  0  0  0  0
  1  2  1  0
  1  5  1  0
  2  3  1  0
  3  4  1  0
  5  4  1  0
  5  6  1  1
  6  7  2  0
  8  6  1  0
  9  8  1  0
 10 11  1  0
  9 10  1  6
 11 12  1  0
 12 13  1  0
 13 14  1  0
 15  9  1  0
 16 15  2  0
 17 21  1  0
 17 15  1  0
 18 19  1  0
 18 17  1  0
 19 20  1  0
 21 20  1  0
 21 22  1  1
 23 22  2  0
 24 22  1  0
M  END
$$$$
