PKP.pdb
     RDKit          3D

 24 25  0  0  1  0  0  0  0  0999 V2000
    8.3130  -15.2883   19.5767 N   0  0  0  0  0  0  0  0  0  0  0  0
    8.2534  -15.1206   18.1322 C   0  0  0  0  0  0  0  0  0  0  0  0
    8.1715  -13.6395   17.8704 C   0  0  0  0  0  0  0  0  0  0  0  0
    7.6245  -13.1282   19.2124 C   0  0  0  0  0  0  0  0  0  0  0  0
    8.3870  -13.9884   20.1548 C   0  0  1  0  0  0  0  0  0  0  0  0
    7.8927  -13.9569   21.5480 C   0  0  0  0  0  0  0  0  0  0  0  0
    7.9582  -12.8653   22.1440 O   0  0  0  0  0  0  0  0  0  0  0  0
    7.3622  -15.0688   22.2273 N   0  0  0  0  0  0  0  0  0  0  0  0
    6.9043  -15.1939   23.5578 C   0  0  1  0  0  0  0  0  0  0  0  0
    6.2366  -16.4805   23.9555 C   0  0  0  0  0  0  0  0  0  0  0  0
    6.8377  -17.7190   23.3540 C   0  0  0  0  0  0  0  0  0  0  0  0
    6.2958  -18.9277   24.0726 C   0  0  0  0  0  0  0  0  0  0  0  0
    6.9215  -20.2369   23.6933 C   0  0  0  0  0  0  0  0  0  0  0  0
    6.3498  -21.3492   24.4074 N   0  0  0  0  0  0  0  0  0  0  0  0
    7.8426  -14.7676   24.5948 C   0  0  0  0  0  0  0  0  0  0  0  0
    9.0853  -14.9450   24.2945 O   0  0  0  0  0  0  0  0  0  0  0  0
    7.5713  -14.2004   25.8453 N   0  0  0  0  0  0  0  0  0  0  0  0
    6.3248  -14.0026   26.5472 C   0  0  0  0  0  0  0  0  0  0  0  0
    6.5299  -12.6854   27.2931 C   0  0  0  0  0  0  0  0  0  0  0  0
    7.9922  -12.3374   27.1342 C   0  0  0  0  0  0  0  0  0  0  0  0
    8.6170  -13.6300   26.7084 C   0  0  1  0  0  0  0  0  0  0  0  0
    8.9148  -14.5465   27.8194 C   0  0  0  0  0  0  0  0  0  0  0  0
    8.1964  -15.5668   27.9717 O   0  0  0  0  0  0  0  0  0  0  0  0
    9.9407  -14.3618   28.7172 O   0  0  0  0  0  0  0  0  0  0  0  0
  1  2  1  0
  1  5  1  0
  2  3  1  0
  3  4  1  0
  5  4  1  0
  5  6  1  1
  6  7  2  0
  8  6  1  0
  9  8  1  0
 10 11  1  0
  9 10  1  1
 11 12  1  0
 12 13  1  0
 13 14  1  0
 15  9  1  0
 16 15  2  0
 17 21  1  0
 17 15  1  0
 18 19  1  0
 18 17  1  0
 19 20  1  0
 21 20  1  0
 21 22  1  1
 23 22  2  0
 24 22  1  0
M  END
$$$$
