PKP.pdb
     RDKit          3D

 24 25  0  0  1  0  0  0  0  0999 V2000
    8.3869  -15.0292   19.5925 N   0  0  0  0  0  0  0  0  0  0  0  0
    8.1542  -14.7440   18.1844 C   0  0  0  0  0  0  0  0  0  0  0  0
    7.8503  -13.2720   18.0843 C   0  0  0  0  0  0  0  0  0  0  0  0
    7.3846  -12.9646   19.5161 C   0  0  0  0  0  0  0  0  0  0  0  0
    8.3488  -13.7885   20.2914 C   0  0  1  0  0  0  0  0  0  0  0  0
    8.0039  -13.9511   21.7200 C   0  0  0  0  0  0  0  0  0  0  0  0
    7.8009  -12.9097   22.3723 O   0  0  0  0  0  0  0  0  0  0  0  0
    7.8937  -15.1920   22.3736 N   0  0  0  0  0  0  0  0  0  0  0  0
    7.4944  -15.4974   23.6938 C   0  0  1  0  0  0  0  0  0  0  0  0
    7.1095  -16.9171   24.0033 C   0  0  0  0  0  0  0  0  0  0  0  0
    6.1758  -17.5512   23.0118 C   0  0  0  0  0  0  0  0  0  0  0  0
    5.9534  -18.9911   23.3968 C   0  0  0  0  0  0  0  0  0  0  0  0
    5.0163  -19.7574   22.5113 C   0  0  0  0  0  0  0  0  0  0  0  0
    4.8917  -21.1376   22.9029 N   0  0  0  0  0  0  0  0  0  0  0  0
    8.3444  -14.9594   24.7546 C   0  0  0  0  0  0  0  0  0  0  0  0
    9.6103  -15.1053   24.5486 O   0  0  0  0  0  0  0  0  0  0  0  0
    7.9689  -14.3168   25.9400 N   0  0  0  0  0  0  0  0  0  0  0  0
    6.6658  -13.9995   26.4755 C   0  0  0  0  0  0  0  0  0  0  0  0
    6.8787  -12.6665   27.1905 C   0  0  0  0  0  0  0  0  0  0  0  0
    8.3716  -12.4297   27.1994 C   0  0  0  0  0  0  0  0  0  0  0  0
    8.9437  -13.7815   26.9028 C   0  0  1  0  0  0  0  0  0  0  0  0
    9.0365  -14.6638   28.0758 C   0  0  0  0  0  0  0  0  0  0  0  0
    8.2395  -15.6313   28.1702 O   0  0  0  0  0  0  0  0  0  0  0  0
    9.9490  -14.5010   29.0924 O   0  0  0  0  0  0  0  0  0  0  0  0
  1  2  1  0
  1  5  1  0
  2  3  1  0
  3  4  1  0
  5  4  1  0
  5  6  1  1
  6  7  2  0
  8  6  1  0
  9  8  1  0
 10 11  1  0
  9 10  1  6
 11 12  1  0
 12 13  1  0
 13 14  1  0
 15  9  1  0
 16 15  2  0
 17 21  1  0
 17 15  1  0
 18 19  1  0
 18 17  1  0
 19 20  1  0
 21 20  1  0
 21 22  1  1
 23 22  2  0
 24 22  1  0
M  END
$$$$
