PKP.pdb
     RDKit          3D

 24 25  0  0  1  0  0  0  0  0999 V2000
    8.5271  -15.0589   19.7195 N   0  0  0  0  0  0  0  0  0  0  0  0
    8.2648  -14.7581   18.3199 C   0  0  0  0  0  0  0  0  0  0  0  0
    7.9207  -13.2934   18.2479 C   0  0  0  0  0  0  0  0  0  0  0  0
    7.4697  -13.0206   19.6915 C   0  0  0  0  0  0  0  0  0  0  0  0
    8.4674  -13.8306   20.4387 C   0  0  1  0  0  0  0  0  0  0  0  0
    8.1494  -14.0245   21.8696 C   0  0  0  0  0  0  0  0  0  0  0  0
    7.9472  -12.9981   22.5455 O   0  0  0  0  0  0  0  0  0  0  0  0
    8.0636  -15.2789   22.5007 N   0  0  0  0  0  0  0  0  0  0  0  0
    7.7011  -15.6132   23.8245 C   0  0  1  0  0  0  0  0  0  0  0  0
    7.1856  -17.0009   24.0851 C   0  0  0  0  0  0  0  0  0  0  0  0
    6.0574  -17.4359   23.1936 C   0  0  0  0  0  0  0  0  0  0  0  0
    5.9435  -18.9378   23.2415 C   0  0  0  0  0  0  0  0  0  0  0  0
    4.8560  -19.5288   22.3945 C   0  0  0  0  0  0  0  0  0  0  0  0
    4.9340  -20.9648   22.3191 N   0  0  0  0  0  0  0  0  0  0  0  0
    8.6548  -15.2231   24.8616 C   0  0  0  0  0  0  0  0  0  0  0  0
    9.8882  -15.4681   24.5706 O   0  0  0  0  0  0  0  0  0  0  0  0
    8.4068  -14.6272   26.1035 N   0  0  0  0  0  0  0  0  0  0  0  0
    7.1676  -14.2788   26.7582 C   0  0  0  0  0  0  0  0  0  0  0  0
    7.5031  -12.9966   27.5178 C   0  0  0  0  0  0  0  0  0  0  0  0
    9.0020  -12.8299   27.4168 C   0  0  0  0  0  0  0  0  0  0  0  0
    9.4802  -14.1891   27.0089 C   0  0  1  0  0  0  0  0  0  0  0  0
    9.6208  -15.1355   28.1259 C   0  0  0  0  0  0  0  0  0  0  0  0
    8.7711  -16.0532   28.2525 O   0  0  0  0  0  0  0  0  0  0  0  0
   10.6331  -15.0851   29.0561 O   0  0  0  0  0  0  0  0  0  0  0  0
  1  2  1  0
  1  5  1  0
  2  3  1  0
  3  4  1  0
  5  4  1  0
  5  6  1  1
  6  7  2  0
  8  6  1  0
  9  8  1  0
 10 11  1  0
  9 10  1  6
 11 12  1  0
 12 13  1  0
 13 14  1  0
 15  9  1  0
 16 15  2  0
 17 21  1  0
 17 15  1  0
 18 19  1  0
 18 17  1  0
 19 20  1  0
 21 20  1  0
 21 22  1  1
 23 22  2  0
 24 22  1  0
M  END
$$$$
