PKP.pdb
     RDKit          3D

 24 25  0  0  1  0  0  0  0  0999 V2000
    8.7236  -15.0531   19.5311 N   0  0  0  0  0  0  0  0  0  0  0  0
    8.6565  -14.8138   18.0972 C   0  0  0  0  0  0  0  0  0  0  0  0
    8.2138  -13.3854   17.9159 C   0  0  0  0  0  0  0  0  0  0  0  0
    7.5266  -13.1118   19.2629 C   0  0  0  0  0  0  0  0  0  0  0  0
    8.4581  -13.8148   20.1836 C   0  0  1  0  0  0  0  0  0  0  0  0
    7.9404  -13.9954   21.5568 C   0  0  0  0  0  0  0  0  0  0  0  0
    7.7157  -12.9616   22.2142 O   0  0  0  0  0  0  0  0  0  0  0  0
    7.6914  -15.2449   22.1533 N   0  0  0  0  0  0  0  0  0  0  0  0
    7.2823  -15.5654   23.4669 C   0  0  1  0  0  0  0  0  0  0  0  0
    7.0577  -17.0134   23.8018 C   0  0  0  0  0  0  0  0  0  0  0  0
    6.8293  -17.2990   25.2589 C   0  0  0  0  0  0  0  0  0  0  0  0
    7.1313  -18.7505   25.5289 C   0  0  0  0  0  0  0  0  0  0  0  0
    6.9555  -19.1912   26.9517 C   0  0  0  0  0  0  0  0  0  0  0  0
    7.1448  -20.6091   27.1176 N   0  0  0  0  0  0  0  0  0  0  0  0
    8.0220  -14.9049   24.5411 C   0  0  0  0  0  0  0  0  0  0  0  0
    9.3021  -14.8920   24.3768 O   0  0  0  0  0  0  0  0  0  0  0  0
    7.5294  -14.2945   25.7003 N   0  0  0  0  0  0  0  0  0  0  0  0
    6.2030  -14.2735   26.2712 C   0  0  0  0  0  0  0  0  0  0  0  0
    6.0949  -12.8829   26.8942 C   0  0  0  0  0  0  0  0  0  0  0  0
    7.4808  -12.2838   26.8245 C   0  0  0  0  0  0  0  0  0  0  0  0
    8.3646  -13.4690   26.5861 C   0  0  1  0  0  0  0  0  0  0  0  0
    8.7061  -14.2171   27.8054 C   0  0  0  0  0  0  0  0  0  0  0  0
    9.4377  -13.6679   28.6676 O   0  0  0  0  0  0  0  0  0  0  0  0
    8.2738  -15.4956   28.0718 O   0  0  0  0  0  0  0  0  0  0  0  0
  1  2  1  0
  1  5  1  0
  2  3  1  0
  3  4  1  0
  5  4  1  0
  5  6  1  1
  6  7  2  0
  8  6  1  0
  9  8  1  0
 10 11  1  0
  9 10  1  1
 11 12  1  0
 12 13  1  0
 13 14  1  0
 15  9  1  0
 16 15  2  0
 17 21  1  0
 17 15  1  0
 18 19  1  0
 18 17  1  0
 19 20  1  0
 21 20  1  0
 21 22  1  1
 23 22  2  0
 24 22  1  0
M  END
$$$$
