RFV.pdb
     RDKit          3D

 30 30  0  0  1  0  0  0  0  0999 V2000
   12.9328  -18.5253   16.1472 N   0  0  0  0  0  0  0  0  0  0  0  0
   12.1957  -19.6357   16.6422 C   0  0  0  0  0  0  0  0  0  0  0  0
   11.6613  -20.4605   15.7878 N   0  0  0  0  0  0  0  0  0  0  0  0
   12.0587  -19.8210   18.0489 N   0  0  0  0  0  0  0  0  0  0  0  0
   12.4338  -18.7167   18.9295 C   0  0  0  0  0  0  0  0  0  0  0  0
   11.4459  -17.5977   18.8517 C   0  0  0  0  0  0  0  0  0  0  0  0
   11.3925  -16.8164   20.1217 C   0  0  0  0  0  0  0  0  0  0  0  0
   10.7191  -17.5039   21.2468 C   0  0  2  0  0  0  0  0  0  0  0  0
    9.6007  -18.3241   20.9512 N   0  0  0  0  0  0  0  0  0  0  0  0
   10.4503  -16.5210   22.3376 C   0  0  0  0  0  0  0  0  0  0  0  0
   11.4082  -15.8239   22.7369 O   0  0  0  0  0  0  0  0  0  0  0  0
   11.1238  -21.2945   16.0890 N   0  0  0  0  0  0  0  0  0  0  0  0
    9.1824  -16.3400   22.9357 C   0  0  1  0  0  0  0  0  0  0  0  0
    8.9403  -15.4342   24.0366 C   0  0  0  0  0  0  0  0  0  0  0  0
    7.4942  -14.9888   24.0821 C   0  0  0  0  0  0  0  0  0  0  0  0
    7.2773  -13.8524   24.9772 C   0  0  0  0  0  0  0  0  0  0  0  0
    7.7492  -12.5902   24.7224 C   0  0  0  0  0  0  0  0  0  0  0  0
    7.4936  -11.5735   25.6274 C   0  0  0  0  0  0  0  0  0  0  0  0
    6.7734  -11.7975   26.7845 C   0  0  0  0  0  0  0  0  0  0  0  0
    6.3018  -13.0638   27.0368 C   0  0  0  0  0  0  0  0  0  0  0  0
    6.5619  -14.0598   26.1333 C   0  0  0  0  0  0  0  0  0  0  0  0
    9.2782  -16.0651   25.3288 O   0  0  0  0  0  0  0  0  0  0  0  0
    9.1125  -17.2965   25.5424 C   0  0  0  0  0  0  0  0  0  0  0  0
   11.4082  -13.4547   27.7822 C   0  0  2  0  0  0  0  0  0  0  0  0
   10.7230  -14.6285   28.4717 C   0  0  0  0  0  0  0  0  0  0  0  0
    9.4223  -14.1392   29.0204 C   0  0  2  0  0  0  0  0  0  0  0  0
   10.5497  -15.7892   27.4955 N   0  0  0  0  0  0  0  0  0  0  0  0
    9.8128  -15.2533   26.3676 C   0  0  0  0  0  0  0  0  0  0  0  0
    9.7530  -16.8586   28.1069 O   0  0  0  0  0  0  0  0  0  0  0  0
    8.5463  -16.9924   27.8384 O   0  0  0  0  0  0  0  0  0  0  0  0
  2  1  1  0
  3  2  2  0
  4  2  1  0
  5  4  1  0
  6  5  1  0
  7  6  1  0
  8  7  1  0
  8  9  1  6
 10  8  1  0
 10 12  1  0
 11 10  2  0
 13 21  1  0
 13 12  1  0
 13 14  1  6
 15 14  1  0
 16 15  2  0
 17 16  1  0
 18 19  1  0
 18 17  2  0
 19 20  2  0
 20 15  1  0
 21 27  1  0
 22 21  2  0
 24 23  1  1
 24 25  1  0
 24 26  1  0
 26 28  1  0
 26 27  1  1
 28 29  2  0
 28 30  1  0
M  END
$$$$
