RFV.pdb
     RDKit          3D

 30 30  0  0  1  0  0  0  0  0999 V2000
   11.9980  -21.9383   20.2088 N   0  0  0  0  0  0  0  0  0  0  0  0
   12.6748  -21.4702   19.0494 C   0  0  0  0  0  0  0  0  0  0  0  0
   12.6395  -22.1979   17.9700 N   0  0  0  0  0  0  0  0  0  0  0  0
   13.3705  -20.2268   19.0924 N   0  0  0  0  0  0  0  0  0  0  0  0
   13.3959  -19.4944   20.3568 C   0  0  0  0  0  0  0  0  0  0  0  0
   12.0282  -19.3824   20.9494 C   0  0  0  0  0  0  0  0  0  0  0  0
   11.8409  -18.0894   21.6700 C   0  0  0  0  0  0  0  0  0  0  0  0
   10.7221  -17.2569   21.1729 C   0  0  2  0  0  0  0  0  0  0  0  0
   10.8284  -16.7103   19.8687 N   0  0  0  0  0  0  0  0  0  0  0  0
   10.3659  -16.2393   22.2053 C   0  0  0  0  0  0  0  0  0  0  0  0
   11.1720  -15.3031   22.3967 O   0  0  0  0  0  0  0  0  0  0  0  0
   13.0554  -21.8780   17.0757 N   0  0  0  0  0  0  0  0  0  0  0  0
    9.1772  -16.2794   22.9691 C   0  0  1  0  0  0  0  0  0  0  0  0
    8.8677  -15.3308   24.0158 C   0  0  0  0  0  0  0  0  0  0  0  0
    7.4751  -14.7596   23.8541 C   0  0  0  0  0  0  0  0  0  0  0  0
    7.1018  -13.8554   24.9417 C   0  0  0  0  0  0  0  0  0  0  0  0
    6.3630  -14.2470   26.0287 C   0  0  0  0  0  0  0  0  0  0  0  0
    6.0579  -13.3210   27.0123 C   0  0  0  0  0  0  0  0  0  0  0  0
    6.4794  -12.0084   26.9277 C   0  0  0  0  0  0  0  0  0  0  0  0
    7.2197  -11.6193   25.8368 C   0  0  0  0  0  0  0  0  0  0  0  0
    7.5141  -12.5453   24.8715 C   0  0  0  0  0  0  0  0  0  0  0  0
    8.9657  -15.9590   25.3491 O   0  0  0  0  0  0  0  0  0  0  0  0
    8.6341  -17.1576   25.5564 C   0  0  0  0  0  0  0  0  0  0  0  0
   11.2624  -13.4038   27.6852 C   0  0  2  0  0  0  0  0  0  0  0  0
   10.6007  -14.5614   28.4233 C   0  0  0  0  0  0  0  0  0  0  0  0
    9.3552  -14.0414   29.0641 C   0  0  2  0  0  0  0  0  0  0  0  0
   10.3294  -15.7166   27.4630 N   0  0  0  0  0  0  0  0  0  0  0  0
    9.4550  -15.1835   26.4368 C   0  0  0  0  0  0  0  0  0  0  0  0
    9.6278  -16.8038   28.1544 O   0  0  0  0  0  0  0  0  0  0  0  0
   10.2014  -17.4889   29.0191 O   0  0  0  0  0  0  0  0  0  0  0  0
  2  1  1  0
  3  2  2  0
  4  2  1  0
  5  4  1  0
  6  5  1  0
  7  6  1  0
  8  7  1  0
  8  9  1  6
 10  8  1  0
 10 12  1  0
 11 10  2  0
 13 21  1  0
 13 12  1  0
 13 14  1  1
 15 14  1  0
 16 15  2  0
 17 16  1  0
 18 19  1  0
 18 17  2  0
 19 20  2  0
 20 15  1  0
 21 27  1  0
 22 21  2  0
 24 23  1  1
 24 25  1  0
 24 26  1  0
 26 28  1  0
 26 27  1  1
 28 29  2  0
 28 30  1  0
M  END
$$$$
