RFV.pdb
     RDKit          3D

 30 30  0  0  1  0  0  0  0  0999 V2000
   10.1944  -14.5539   15.3001 N   0  0  0  0  0  0  0  0  0  0  0  0
    8.8072  -14.4108   15.0233 C   0  0  0  0  0  0  0  0  0  0  0  0
    8.2176  -15.3219   14.3035 N   0  0  0  0  0  0  0  0  0  0  0  0
    8.0983  -13.2848   15.5346 N   0  0  0  0  0  0  0  0  0  0  0  0
    8.1315  -13.0456   16.9759 C   0  0  0  0  0  0  0  0  0  0  0  0
    8.3643  -14.3129   17.7336 C   0  0  0  0  0  0  0  0  0  0  0  0
    8.3578  -14.0858   19.2082 C   0  0  0  0  0  0  0  0  0  0  0  0
    8.4829  -15.3130   20.0268 C   0  0  2  0  0  0  0  0  0  0  0  0
    7.5059  -16.3271   19.8584 N   0  0  0  0  0  0  0  0  0  0  0  0
    8.6921  -14.9354   21.4558 C   0  0  0  0  0  0  0  0  0  0  0  0
    9.7035  -14.2544   21.7318 O   0  0  0  0  0  0  0  0  0  0  0  0
    7.1969  -15.3056   14.1219 N   0  0  0  0  0  0  0  0  0  0  0  0
    7.8151  -15.3042   22.5012 C   0  0  1  0  0  0  0  0  0  0  0  0
    7.9929  -14.8921   23.8759 C   0  0  0  0  0  0  0  0  0  0  0  0
    6.7371  -14.2553   24.4320 C   0  0  0  0  0  0  0  0  0  0  0  0
    6.9709  -13.5364   25.6843 C   0  0  0  0  0  0  0  0  0  0  0  0
    7.5318  -12.2864   25.7435 C   0  0  0  0  0  0  0  0  0  0  0  0
    7.7140  -11.6809   26.9757 C   0  0  0  0  0  0  0  0  0  0  0  0
    7.3444  -12.3046   28.1513 C   0  0  0  0  0  0  0  0  0  0  0  0
    6.7825  -13.5575   28.0883 C   0  0  0  0  0  0  0  0  0  0  0  0
    6.6082  -14.1446   26.8632 C   0  0  0  0  0  0  0  0  0  0  0  0
    8.3563  -16.0394   24.7324 O   0  0  0  0  0  0  0  0  0  0  0  0
    7.5767  -17.0112   24.9254 C   0  0  0  0  0  0  0  0  0  0  0  0
   11.9019  -17.4202   24.3868 C   0  0  2  0  0  0  0  0  0  0  0  0
   11.6320  -17.2260   25.8740 C   0  0  0  0  0  0  0  0  0  0  0  0
   12.3413  -15.9846   26.3081 C   0  0  2  0  0  0  0  0  0  0  0  0
   10.1294  -17.1667   26.1369 N   0  0  0  0  0  0  0  0  0  0  0  0
    9.6336  -16.0483   25.3589 C   0  0  0  0  0  0  0  0  0  0  0  0
    9.8674  -16.9002   27.5555 O   0  0  0  0  0  0  0  0  0  0  0  0
    9.4894  -15.7790   27.9378 O   0  0  0  0  0  0  0  0  0  0  0  0
  2  1  1  0
  3  2  2  0
  4  2  1  0
  5  4  1  0
  6  5  1  0
  7  6  1  0
  8  7  1  0
  8  9  1  1
 10  8  1  0
 10 12  1  0
 11 10  2  0
 13 21  1  0
 13 12  1  0
 13 14  1  6
 15 14  1  0
 16 15  2  0
 17 16  1  0
 18 19  1  0
 18 17  2  0
 19 20  2  0
 20 15  1  0
 21 27  1  0
 22 21  2  0
 24 23  1  1
 24 25  1  0
 24 26  1  0
 26 28  1  0
 26 27  1  1
 28 29  2  0
 28 30  1  0
M  END
$$$$
