RFV.pdb
     RDKit          3D

 30 30  0  0  1  0  0  0  0  0999 V2000
    9.8241  -13.6589   15.0673 N   0  0  0  0  0  0  0  0  0  0  0  0
    8.6221  -14.4170   15.1106 C   0  0  0  0  0  0  0  0  0  0  0  0
    8.3616  -15.2301   14.1273 N   0  0  0  0  0  0  0  0  0  0  0  0
    7.7366  -14.2728   16.2183 N   0  0  0  0  0  0  0  0  0  0  0  0
    8.1448  -13.4018   17.3185 C   0  0  0  0  0  0  0  0  0  0  0  0
    9.1880  -14.0512   18.1696 C   0  0  0  0  0  0  0  0  0  0  0  0
    8.7719  -14.1188   19.6009 C   0  0  0  0  0  0  0  0  0  0  0  0
    9.1653  -15.3604   20.3048 C   0  0  2  0  0  0  0  0  0  0  0  0
    8.3986  -16.5299   20.0688 N   0  0  0  0  0  0  0  0  0  0  0  0
    9.3524  -15.0680   21.7566 C   0  0  0  0  0  0  0  0  0  0  0  0
   10.3361  -14.3693   22.0836 O   0  0  0  0  0  0  0  0  0  0  0  0
    7.5190  -15.8343   14.1201 N   0  0  0  0  0  0  0  0  0  0  0  0
    8.4841  -15.5354   22.7693 C   0  0  1  0  0  0  0  0  0  0  0  0
    8.4286  -14.9685   24.0985 C   0  0  0  0  0  0  0  0  0  0  0  0
    7.0068  -14.8971   24.6133 C   0  0  0  0  0  0  0  0  0  0  0  0
    6.7349  -13.6713   25.3638 C   0  0  0  0  0  0  0  0  0  0  0  0
    7.4080  -12.4946   25.1566 C   0  0  0  0  0  0  0  0  0  0  0  0
    7.0814  -11.3823   25.9145 C   0  0  0  0  0  0  0  0  0  0  0  0
    6.0920  -11.4265   26.8772 C   0  0  0  0  0  0  0  0  0  0  0  0
    5.4194  -12.6076   27.0823 C   0  0  0  0  0  0  0  0  0  0  0  0
    5.7525  -13.6997   26.3259 C   0  0  0  0  0  0  0  0  0  0  0  0
    9.2329  -15.7627   25.0495 O   0  0  0  0  0  0  0  0  0  0  0  0
    9.6027  -16.9420   24.8002 C   0  0  0  0  0  0  0  0  0  0  0  0
   11.3626  -15.5132   29.5716 C   0  0  2  0  0  0  0  0  0  0  0  0
   10.3975  -14.9767   28.5212 C   0  0  0  0  0  0  0  0  0  0  0  0
   10.7522  -13.5485   28.2630 C   0  0  1  0  0  0  0  0  0  0  0  0
   10.4566  -15.8342   27.2596 N   0  0  0  0  0  0  0  0  0  0  0  0
    9.6057  -15.1733   26.2895 C   0  0  0  0  0  0  0  0  0  0  0  0
    9.9125  -17.1710   27.5226 O   0  0  0  0  0  0  0  0  0  0  0  0
    8.6858  -17.3744   27.5258 O   0  0  0  0  0  0  0  0  0  0  0  0
  2  1  1  0
  3  2  2  0
  4  2  1  0
  5  4  1  0
  6  5  1  0
  7  6  1  0
  8  7  1  0
  8  9  1  1
 10  8  1  0
 10 12  1  0
 11 10  2  0
 13 21  1  0
 13 12  1  0
 13 14  1  6
 15 14  1  0
 16 15  2  0
 17 16  1  0
 18 19  1  0
 18 17  2  0
 19 20  2  0
 20 15  1  0
 21 27  1  0
 22 21  2  0
 24 23  1  1
 24 25  1  0
 24 26  1  0
 26 28  1  0
 26 27  1  1
 28 29  2  0
 28 30  1  0
M  END
$$$$
