RFV.pdb
     RDKit          3D

 30 30  0  0  1  0  0  0  0  0999 V2000
   11.0055  -21.2081   17.1474 N   0  0  0  0  0  0  0  0  0  0  0  0
   10.9302  -19.9467   16.4958 C   0  0  0  0  0  0  0  0  0  0  0  0
   11.7869  -19.6800   15.5521 N   0  0  0  0  0  0  0  0  0  0  0  0
    9.9285  -19.0103   16.8852 N   0  0  0  0  0  0  0  0  0  0  0  0
    9.8835  -18.5906   18.2843 C   0  0  0  0  0  0  0  0  0  0  0  0
   10.8142  -17.4495   18.5412 C   0  0  0  0  0  0  0  0  0  0  0  0
   10.3188  -16.5664   19.6371 C   0  0  0  0  0  0  0  0  0  0  0  0
    9.8834  -17.2780   20.8602 C   0  0  2  0  0  0  0  0  0  0  0  0
    8.7404  -18.1128   20.7725 N   0  0  0  0  0  0  0  0  0  0  0  0
    9.8155  -16.3124   21.9966 C   0  0  0  0  0  0  0  0  0  0  0  0
   10.8612  -15.6955   22.2945 O   0  0  0  0  0  0  0  0  0  0  0  0
   11.8763  -18.7325   15.1404 N   0  0  0  0  0  0  0  0  0  0  0  0
    8.6426  -16.0628   22.7449 C   0  0  1  0  0  0  0  0  0  0  0  0
    8.6006  -15.1898   23.8970 C   0  0  0  0  0  0  0  0  0  0  0  0
    7.3028  -14.4128   23.9585 C   0  0  0  0  0  0  0  0  0  0  0  0
    7.2234  -13.5301   25.1222 C   0  0  0  0  0  0  0  0  0  0  0  0
    6.4827  -13.8192   26.2395 C   0  0  0  0  0  0  0  0  0  0  0  0
    6.4681  -12.9235   27.2957 C   0  0  0  0  0  0  0  0  0  0  0  0
    7.1823  -11.7420   27.2539 C   0  0  0  0  0  0  0  0  0  0  0  0
    7.9237  -11.4554   26.1324 C   0  0  0  0  0  0  0  0  0  0  0  0
    7.9292  -12.3500   25.0954 C   0  0  0  0  0  0  0  0  0  0  0  0
    8.7487  -15.9565   25.1509 O   0  0  0  0  0  0  0  0  0  0  0  0
    7.9380  -16.8611   25.4886 C   0  0  0  0  0  0  0  0  0  0  0  0
   11.9850  -17.4564   25.5459 C   0  0  2  0  0  0  0  0  0  0  0  0
   11.7453  -16.7861   26.8934 C   0  0  0  0  0  0  0  0  0  0  0  0
   12.5585  -15.5332   26.9308 C   0  0  2  0  0  0  0  0  0  0  0  0
   10.2552  -16.5260   27.0986 N   0  0  0  0  0  0  0  0  0  0  0  0
    9.8479  -15.6647   26.0057 C   0  0  0  0  0  0  0  0  0  0  0  0
   10.0281  -15.8151   28.3616 O   0  0  0  0  0  0  0  0  0  0  0  0
    9.8404  -14.5861   28.3806 O   0  0  0  0  0  0  0  0  0  0  0  0
  2  1  1  0
  3  2  2  0
  4  2  1  0
  5  4  1  0
  6  5  1  0
  7  6  1  0
  8  7  1  0
  8  9  1  6
 10  8  1  0
 10 12  1  0
 11 10  2  0
 13 21  1  0
 13 12  1  0
 13 14  1  1
 15 14  1  0
 16 15  2  0
 17 16  1  0
 18 19  1  0
 18 17  2  0
 19 20  2  0
 20 15  1  0
 21 27  1  0
 22 21  2  0
 24 23  1  1
 24 25  1  0
 24 26  1  0
 26 28  1  0
 26 27  1  1
 28 29  2  0
 28 30  1  0
M  END
$$$$
