RFV.pdb
     RDKit          3D

 30 30  0  0  1  0  0  0  0  0999 V2000
   12.2090  -20.3011   17.7082 N   0  0  0  0  0  0  0  0  0  0  0  0
   11.0788  -20.0837   16.8735 C   0  0  0  0  0  0  0  0  0  0  0  0
   11.2747  -19.8379   15.6097 N   0  0  0  0  0  0  0  0  0  0  0  0
    9.7684  -20.1390   17.4318 N   0  0  0  0  0  0  0  0  0  0  0  0
    9.1085  -18.8791   17.7682 C   0  0  0  0  0  0  0  0  0  0  0  0
    9.7409  -18.2337   18.9589 C   0  0  0  0  0  0  0  0  0  0  0  0
    8.7572  -17.4290   19.7406 C   0  0  0  0  0  0  0  0  0  0  0  0
    9.0247  -15.9731   19.7654 C   0  0  2  0  0  0  0  0  0  0  0  0
   10.0455  -15.4701   18.9192 N   0  0  0  0  0  0  0  0  0  0  0  0
    9.1633  -15.5195   21.1808 C   0  0  0  0  0  0  0  0  0  0  0  0
   10.2675  -15.6972   21.7394 O   0  0  0  0  0  0  0  0  0  0  0  0
   10.4923  -19.6388   14.9592 N   0  0  0  0  0  0  0  0  0  0  0  0
    8.1217  -14.9064   21.9137 C   0  0  2  0  0  0  0  0  0  0  0  0
    8.2571  -14.4774   23.2880 C   0  0  0  0  0  0  0  0  0  0  0  0
    7.1031  -13.5934   23.7105 C   0  0  0  0  0  0  0  0  0  0  0  0
    7.2292  -13.1130   25.0864 C   0  0  0  0  0  0  0  0  0  0  0  0
    8.1720  -12.1997   25.4835 C   0  0  0  0  0  0  0  0  0  0  0  0
    8.2160  -11.8009   26.8090 C   0  0  0  0  0  0  0  0  0  0  0  0
    7.3321  -12.3001   27.7457 C   0  0  0  0  0  0  0  0  0  0  0  0
    6.3884  -13.2153   27.3443 C   0  0  0  0  0  0  0  0  0  0  0  0
    6.3562  -13.6010   26.0305 C   0  0  0  0  0  0  0  0  0  0  0  0
    8.3210  -15.6354   24.2029 O   0  0  0  0  0  0  0  0  0  0  0  0
    7.4085  -16.5037   24.2572 C   0  0  0  0  0  0  0  0  0  0  0  0
   11.5145  -18.5828   26.4111 C   0  0  2  0  0  0  0  0  0  0  0  0
   11.0972  -17.4333   25.5016 C   0  0  0  0  0  0  0  0  0  0  0  0
   11.1908  -17.9120   24.0893 C   0  0  1  0  0  0  0  0  0  0  0  0
    9.6960  -16.9501   25.8667 N   0  0  0  0  0  0  0  0  0  0  0  0
    9.4550  -15.7764   25.0503 C   0  0  0  0  0  0  0  0  0  0  0  0
    9.6419  -16.5548   27.2785 O   0  0  0  0  0  0  0  0  0  0  0  0
   10.0989  -15.4618   27.6560 O   0  0  0  0  0  0  0  0  0  0  0  0
  2  1  1  0
  3  2  2  0
  4  2  1  0
  5  4  1  0
  6  5  1  0
  7  6  1  0
  8  7  1  0
  8  9  1  6
 10  8  1  0
 10 12  1  0
 11 10  2  0
 13 21  1  0
 13 12  1  0
 13 14  1  6
 15 14  1  0
 16 15  2  0
 17 16  1  0
 18 19  1  0
 18 17  2  0
 19 20  2  0
 20 15  1  0
 21 27  1  0
 22 21  2  0
 24 23  1  6
 24 25  1  0
 24 26  1  0
 26 28  1  0
 26 27  1  1
 28 29  2  0
 28 30  1  0
M  END
$$$$
