RFV.pdb
     RDKit          3D

 30 30  0  0  1  0  0  0  0  0999 V2000
   12.0955  -19.9257   14.6556 N   0  0  0  0  0  0  0  0  0  0  0  0
   11.2157  -19.2316   15.5306 C   0  0  0  0  0  0  0  0  0  0  0  0
   10.6142  -18.1632   15.0918 N   0  0  0  0  0  0  0  0  0  0  0  0
   11.0125  -19.7151   16.8560 N   0  0  0  0  0  0  0  0  0  0  0  0
   10.0627  -19.0057   17.7107 C   0  0  0  0  0  0  0  0  0  0  0  0
   10.7587  -18.0397   18.6144 C   0  0  0  0  0  0  0  0  0  0  0  0
    9.8102  -17.3865   19.5630 C   0  0  0  0  0  0  0  0  0  0  0  0
    9.8438  -17.9216   20.9430 C   0  0  2  0  0  0  0  0  0  0  0  0
    9.0308  -19.0448   21.2406 N   0  0  0  0  0  0  0  0  0  0  0  0
    9.6683  -16.8004   21.9127 C   0  0  0  0  0  0  0  0  0  0  0  0
   10.4099  -15.8023   21.7831 O   0  0  0  0  0  0  0  0  0  0  0  0
    9.9427  -17.6300   15.6749 N   0  0  0  0  0  0  0  0  0  0  0  0
    8.7173  -16.8092   22.9585 C   0  0  1  0  0  0  0  0  0  0  0  0
    8.5359  -15.7119   23.8827 C   0  0  0  0  0  0  0  0  0  0  0  0
    7.0756  -15.3378   24.0214 C   0  0  0  0  0  0  0  0  0  0  0  0
    6.8758  -14.0915   24.7607 C   0  0  0  0  0  0  0  0  0  0  0  0
    7.4067  -12.8889   24.3700 C   0  0  0  0  0  0  0  0  0  0  0  0
    7.1632  -11.7586   25.1325 C   0  0  0  0  0  0  0  0  0  0  0  0
    6.3969  -11.8103   26.2805 C   0  0  0  0  0  0  0  0  0  0  0  0
    5.8663  -13.0173   26.6692 C   0  0  0  0  0  0  0  0  0  0  0  0
    6.1151  -14.1269   25.9059 C   0  0  0  0  0  0  0  0  0  0  0  0
    9.0630  -16.0504   25.2204 O   0  0  0  0  0  0  0  0  0  0  0  0
    9.0533  -17.2277   25.6716 C   0  0  0  0  0  0  0  0  0  0  0  0
   10.5174  -14.2168   29.5654 C   0  0  2  0  0  0  0  0  0  0  0  0
    9.8504  -14.0858   28.2014 C   0  0  0  0  0  0  0  0  0  0  0  0
   10.2303  -12.7571   27.6334 C   0  0  1  0  0  0  0  0  0  0  0  0
   10.2561  -15.2484   27.2990 N   0  0  0  0  0  0  0  0  0  0  0  0
    9.6037  -15.0102   26.0263 C   0  0  0  0  0  0  0  0  0  0  0  0
    9.7628  -16.5175   27.8452 O   0  0  0  0  0  0  0  0  0  0  0  0
    8.5476  -16.7807   27.8576 O   0  0  0  0  0  0  0  0  0  0  0  0
  2  1  1  0
  3  2  2  0
  4  2  1  0
  5  4  1  0
  6  5  1  0
  7  6  1  0
  8  7  1  0
  8  9  1  6
 10  8  1  0
 10 12  1  0
 11 10  2  0
 13 21  1  0
 13 12  1  0
 13 14  1  1
 15 14  1  0
 16 15  2  0
 17 16  1  0
 18 19  1  0
 18 17  2  0
 19 20  2  0
 20 15  1  0
 21 27  1  0
 22 21  2  0
 24 23  1  1
 24 25  1  0
 24 26  1  0
 26 28  1  0
 26 27  1  1
 28 29  2  0
 28 30  1  0
M  END
$$$$
