RFV.pdb
     RDKit          3D

 30 30  0  0  1  0  0  0  0  0999 V2000
    4.7659  -20.7401   19.5919 N   0  0  0  0  0  0  0  0  0  0  0  0
    5.3947  -20.2920   18.3981 C   0  0  0  0  0  0  0  0  0  0  0  0
    4.7001  -20.2726   17.2967 N   0  0  0  0  0  0  0  0  0  0  0  0
    6.7581  -19.8775   18.4317 N   0  0  0  0  0  0  0  0  0  0  0  0
    7.2934  -19.3694   19.6930 C   0  0  0  0  0  0  0  0  0  0  0  0
    8.7688  -19.1450   19.6080 C   0  0  0  0  0  0  0  0  0  0  0  0
    9.3041  -18.5057   20.8453 C   0  0  0  0  0  0  0  0  0  0  0  0
    9.5865  -17.0575   20.7247 C   0  0  2  0  0  0  0  0  0  0  0  0
   10.4520  -16.6331   19.6846 N   0  0  0  0  0  0  0  0  0  0  0  0
    9.9705  -16.5153   22.0615 C   0  0  0  0  0  0  0  0  0  0  0  0
   11.1819  -16.5400   22.3692 O   0  0  0  0  0  0  0  0  0  0  0  0
    5.1063  -19.9630   16.3943 N   0  0  0  0  0  0  0  0  0  0  0  0
    9.0449  -15.9814   22.9868 C   0  0  2  0  0  0  0  0  0  0  0  0
    9.3880  -15.6281   24.3465 C   0  0  0  0  0  0  0  0  0  0  0  0
    8.3647  -14.6915   24.9524 C   0  0  0  0  0  0  0  0  0  0  0  0
    8.6797  -14.3210   26.3320 C   0  0  0  0  0  0  0  0  0  0  0  0
    8.2543  -15.0369   27.4216 C   0  0  0  0  0  0  0  0  0  0  0  0
    8.6029  -14.6114   28.6926 C   0  0  0  0  0  0  0  0  0  0  0  0
    9.3706  -13.4808   28.8932 C   0  0  0  0  0  0  0  0  0  0  0  0
    9.7952  -12.7656   27.7989 C   0  0  0  0  0  0  0  0  0  0  0  0
    9.4432  -13.1976   26.5478 C   0  0  0  0  0  0  0  0  0  0  0  0
    9.4875  -16.8300   25.1995 O   0  0  0  0  0  0  0  0  0  0  0  0
    8.5069  -17.5956   25.4039 C   0  0  0  0  0  0  0  0  0  0  0  0
   12.1553  -19.2702   24.5696 C   0  0  2  0  0  0  0  0  0  0  0  0
   12.2850  -18.9215   26.0476 C   0  0  0  0  0  0  0  0  0  0  0  0
   13.4302  -17.9731   26.1938 C   0  0  2  0  0  0  0  0  0  0  0  0
   10.9731  -18.3444   26.5732 N   0  0  0  0  0  0  0  0  0  0  0  0
   10.7363  -17.1353   25.8089 C   0  0  0  0  0  0  0  0  0  0  0  0
   11.1031  -17.9827   27.9890 O   0  0  0  0  0  0  0  0  0  0  0  0
   11.3484  -16.8129   28.3318 O   0  0  0  0  0  0  0  0  0  0  0  0
  2  1  1  0
  3  2  2  0
  4  2  1  0
  5  4  1  0
  6  5  1  0
  7  6  1  0
  8  7  1  0
  8  9  1  6
 10  8  1  0
 10 12  1  0
 11 10  2  0
 13 21  1  0
 13 12  1  0
 13 14  1  6
 15 14  1  0
 16 15  2  0
 17 16  1  0
 18 19  1  0
 18 17  2  0
 19 20  2  0
 20 15  1  0
 21 27  1  0
 22 21  2  0
 24 23  1  1
 24 25  1  0
 24 26  1  0
 26 28  1  0
 26 27  1  1
 28 29  2  0
 28 30  1  0
M  END
$$$$
