RFV.pdb
     RDKit          3D

 30 30  0  0  1  0  0  0  0  0999 V2000
    9.3947  -15.7486   14.2278 N   0  0  0  0  0  0  0  0  0  0  0  0
    9.5223  -14.8245   15.3007 C   0  0  0  0  0  0  0  0  0  0  0  0
   10.7082  -14.3796   15.6032 N   0  0  0  0  0  0  0  0  0  0  0  0
    8.3611  -14.4085   16.0152 N   0  0  0  0  0  0  0  0  0  0  0  0
    8.5414  -13.5487   17.1832 C   0  0  0  0  0  0  0  0  0  0  0  0
    8.1565  -14.2539   18.4437 C   0  0  0  0  0  0  0  0  0  0  0  0
    9.3019  -14.3536   19.3946 C   0  0  0  0  0  0  0  0  0  0  0  0
    9.2688  -15.5351   20.2861 C   0  0  2  0  0  0  0  0  0  0  0  0
    8.2926  -16.5321   20.0329 N   0  0  0  0  0  0  0  0  0  0  0  0
    9.2855  -15.0823   21.7085 C   0  0  0  0  0  0  0  0  0  0  0  0
   10.1281  -14.2164   22.0298 O   0  0  0  0  0  0  0  0  0  0  0  0
   10.8628  -13.7003   16.3711 N   0  0  0  0  0  0  0  0  0  0  0  0
    8.4075  -15.5769   22.6996 C   0  0  1  0  0  0  0  0  0  0  0  0
    8.3079  -15.0181   24.0296 C   0  0  0  0  0  0  0  0  0  0  0  0
    6.8648  -14.8422   24.4519 C   0  0  0  0  0  0  0  0  0  0  0  0
    6.6941  -13.8136   25.4780 C   0  0  0  0  0  0  0  0  0  0  0  0
    6.1754  -14.0673   26.7218 C   0  0  0  0  0  0  0  0  0  0  0  0
    6.0521  -13.0300   27.6312 C   0  0  0  0  0  0  0  0  0  0  0  0
    6.4390  -11.7417   27.3178 C   0  0  0  0  0  0  0  0  0  0  0  0
    6.9586  -11.4910   26.0701 C   0  0  0  0  0  0  0  0  0  0  0  0
    7.0749  -12.5260   25.1807 C   0  0  0  0  0  0  0  0  0  0  0  0
    8.9854  -15.8790   25.0204 O   0  0  0  0  0  0  0  0  0  0  0  0
    9.1064  -17.1239   24.8622 C   0  0  0  0  0  0  0  0  0  0  0  0
   11.3318  -13.7043   27.6036 C   0  0  2  0  0  0  0  0  0  0  0  0
   10.7449  -14.9741   28.2084 C   0  0  0  0  0  0  0  0  0  0  0  0
    9.5523  -14.5840   29.0195 C   0  0  2  0  0  0  0  0  0  0  0  0
   10.4054  -15.9771   27.1089 N   0  0  0  0  0  0  0  0  0  0  0  0
    9.5232  -15.2800   26.1934 C   0  0  0  0  0  0  0  0  0  0  0  0
    9.6836  -17.1255   27.6678 O   0  0  0  0  0  0  0  0  0  0  0  0
    8.4457  -17.2072   27.5837 O   0  0  0  0  0  0  0  0  0  0  0  0
  2  1  1  0
  3  2  2  0
  4  2  1  0
  5  4  1  0
  6  5  1  0
  7  6  1  0
  8  7  1  0
  8  9  1  1
 10  8  1  0
 10 12  1  0
 11 10  2  0
 13 21  1  0
 13 12  1  0
 13 14  1  1
 15 14  1  0
 16 15  2  0
 17 16  1  0
 18 19  1  0
 18 17  2  0
 19 20  2  0
 20 15  1  0
 21 27  1  0
 22 21  2  0
 24 23  1  1
 24 25  1  0
 24 26  1  0
 26 28  1  0
 26 27  1  1
 28 29  2  0
 28 30  1  0
M  END
$$$$
