RFV.pdb
     RDKit          3D

 30 30  0  0  1  0  0  0  0  0999 V2000
    8.3507  -12.7235   15.1188 N   0  0  0  0  0  0  0  0  0  0  0  0
    8.7094  -14.0510   15.4798 C   0  0  0  0  0  0  0  0  0  0  0  0
    9.3316  -14.7888   14.6055 N   0  0  0  0  0  0  0  0  0  0  0  0
    8.3838  -14.5414   16.7781 N   0  0  0  0  0  0  0  0  0  0  0  0
    7.7372  -13.6280   17.7180 C   0  0  0  0  0  0  0  0  0  0  0  0
    7.4821  -14.2902   19.0335 C   0  0  0  0  0  0  0  0  0  0  0  0
    8.6848  -14.2513   19.9157 C   0  0  0  0  0  0  0  0  0  0  0  0
    8.8837  -15.4585   20.7494 C   0  0  2  0  0  0  0  0  0  0  0  0
    7.9184  -16.4937   20.6615 N   0  0  0  0  0  0  0  0  0  0  0  0
    9.1722  -15.0470   22.1550 C   0  0  0  0  0  0  0  0  0  0  0  0
   10.0206  -14.1458   22.3311 O   0  0  0  0  0  0  0  0  0  0  0  0
    9.6013  -15.7700   14.8045 N   0  0  0  0  0  0  0  0  0  0  0  0
    8.5425  -15.6177   23.2845 C   0  0  1  0  0  0  0  0  0  0  0  0
    8.7401  -15.1409   24.6354 C   0  0  0  0  0  0  0  0  0  0  0  0
    7.4443  -15.1357   25.4180 C   0  0  0  0  0  0  0  0  0  0  0  0
    7.0664  -13.8012   25.8829 C   0  0  0  0  0  0  0  0  0  0  0  0
    7.9774  -12.8407   26.2411 C   0  0  0  0  0  0  0  0  0  0  0  0
    7.5273  -11.6027   26.6685 C   0  0  0  0  0  0  0  0  0  0  0  0
    6.1800  -11.3081   26.7442 C   0  0  0  0  0  0  0  0  0  0  0  0
    5.2696  -12.2731   26.3844 C   0  0  0  0  0  0  0  0  0  0  0  0
    5.7285  -13.4930   25.9636 C   0  0  0  0  0  0  0  0  0  0  0  0
    9.7208  -15.9775   25.3566 O   0  0  0  0  0  0  0  0  0  0  0  0
   10.1623  -17.0595   24.8835 C   0  0  0  0  0  0  0  0  0  0  0  0
   11.9685  -14.0392   28.1097 C   0  0  2  0  0  0  0  0  0  0  0  0
   11.4925  -15.3983   28.6085 C   0  0  0  0  0  0  0  0  0  0  0  0
   10.3407  -15.1677   29.5318 C   0  0  2  0  0  0  0  0  0  0  0  0
   11.1300  -16.2984   27.4300 N   0  0  0  0  0  0  0  0  0  0  0  0
   10.1855  -15.5439   26.6295 C   0  0  0  0  0  0  0  0  0  0  0  0
   10.4692  -17.5200   27.9023 O   0  0  0  0  0  0  0  0  0  0  0  0
    9.2292  -17.6096   27.9266 O   0  0  0  0  0  0  0  0  0  0  0  0
  2  1  1  0
  3  2  2  0
  4  2  1  0
  5  4  1  0
  6  5  1  0
  7  6  1  0
  8  7  1  0
  8  9  1  1
 10  8  1  0
 10 12  1  0
 11 10  2  0
 13 21  1  0
 13 12  1  0
 13 14  1  1
 15 14  1  0
 16 15  2  0
 17 16  1  0
 18 19  1  0
 18 17  2  0
 19 20  2  0
 20 15  1  0
 21 27  1  0
 22 21  2  0
 24 23  1  1
 24 25  1  0
 24 26  1  0
 26 28  1  0
 26 27  1  1
 28 29  2  0
 28 30  1  0
M  END
$$$$
