RFV.pdb
     RDKit          3D

 30 30  0  0  1  0  0  0  0  0999 V2000
   10.4062  -20.9998   19.2007 N   0  0  0  0  0  0  0  0  0  0  0  0
   10.7330  -21.2772   20.5563 C   0  0  0  0  0  0  0  0  0  0  0  0
   11.9682  -21.5619   20.8545 N   0  0  0  0  0  0  0  0  0  0  0  0
    9.7120  -21.2381   21.5503 N   0  0  0  0  0  0  0  0  0  0  0  0
    8.4652  -20.5457   21.2311 C   0  0  0  0  0  0  0  0  0  0  0  0
    8.6663  -19.0663   21.1591 C   0  0  0  0  0  0  0  0  0  0  0  0
    7.3806  -18.3426   20.9372 C   0  0  0  0  0  0  0  0  0  0  0  0
    7.5234  -16.9022   20.6262 C   0  0  2  0  0  0  0  0  0  0  0  0
    8.2244  -16.5429   19.4470 N   0  0  0  0  0  0  0  0  0  0  0  0
    8.0113  -16.1804   21.8384 C   0  0  0  0  0  0  0  0  0  0  0  0
    9.2380  -15.9545   21.9222 O   0  0  0  0  0  0  0  0  0  0  0  0
   12.2778  -21.7161   21.8320 N   0  0  0  0  0  0  0  0  0  0  0  0
    7.1669  -15.7443   22.8847 C   0  0  1  0  0  0  0  0  0  0  0  0
    7.6433  -15.0425   24.0559 C   0  0  0  0  0  0  0  0  0  0  0  0
    6.5195  -14.3161   24.7639 C   0  0  0  0  0  0  0  0  0  0  0  0
    6.9865  -13.5038   25.8872 C   0  0  0  0  0  0  0  0  0  0  0  0
    7.2269  -14.0126   27.1379 C   0  0  0  0  0  0  0  0  0  0  0  0
    7.6696  -13.1675   28.1418 C   0  0  0  0  0  0  0  0  0  0  0  0
    7.8764  -11.8206   27.9164 C   0  0  0  0  0  0  0  0  0  0  0  0
    7.6345  -11.3140   26.6617 C   0  0  0  0  0  0  0  0  0  0  0  0
    7.1969  -12.1609   25.6783 C   0  0  0  0  0  0  0  0  0  0  0  0
    8.2770  -15.9729   25.0124 O   0  0  0  0  0  0  0  0  0  0  0  0
    7.6807  -16.9888   25.4616 C   0  0  0  0  0  0  0  0  0  0  0  0
   12.8267  -17.2988   26.4913 C   0  0  2  0  0  0  0  0  0  0  0  0
   11.8638  -16.4140   25.7086 C   0  0  0  0  0  0  0  0  0  0  0  0
   12.0903  -16.6687   24.2538 C   0  0  1  0  0  0  0  0  0  0  0  0
   10.4245  -16.6890   26.1363 N   0  0  0  0  0  0  0  0  0  0  0  0
    9.6093  -15.7137   25.4386 C   0  0  0  0  0  0  0  0  0  0  0  0
   10.2696  -16.4785   27.5798 O   0  0  0  0  0  0  0  0  0  0  0  0
   10.0183  -15.3510   28.0399 O   0  0  0  0  0  0  0  0  0  0  0  0
  2  1  1  0
  3  2  2  0
  4  2  1  0
  5  4  1  0
  6  5  1  0
  7  6  1  0
  8  7  1  0
  8  9  1  6
 10  8  1  0
 10 12  1  0
 11 10  2  0
 13 21  1  0
 13 12  1  0
 13 14  1  1
 15 14  1  0
 16 15  2  0
 17 16  1  0
 18 19  1  0
 18 17  2  0
 19 20  2  0
 20 15  1  0
 21 27  1  0
 22 21  2  0
 24 23  1  6
 24 25  1  0
 24 26  1  0
 26 28  1  0
 26 27  1  1
 28 29  2  0
 28 30  1  0
M  END
$$$$
