RFV.pdb
     RDKit          3D

 30 30  0  0  1  0  0  0  0  0999 V2000
    7.6354  -19.5509   16.4399 N   0  0  0  0  0  0  0  0  0  0  0  0
    7.3547  -18.5344   15.4864 C   0  0  0  0  0  0  0  0  0  0  0  0
    7.1642  -18.8789   14.2451 N   0  0  0  0  0  0  0  0  0  0  0  0
    7.2882  -17.1734   15.9051 N   0  0  0  0  0  0  0  0  0  0  0  0
    7.5939  -16.8656   17.3006 C   0  0  0  0  0  0  0  0  0  0  0  0
    9.0685  -16.8462   17.5442 C   0  0  0  0  0  0  0  0  0  0  0  0
    9.4059  -16.2089   18.8504 C   0  0  0  0  0  0  0  0  0  0  0  0
    8.9783  -16.9733   20.0440 C   0  0  2  0  0  0  0  0  0  0  0  0
    7.7311  -17.6462   19.9911 N   0  0  0  0  0  0  0  0  0  0  0  0
    9.1299  -16.1193   21.2589 C   0  0  0  0  0  0  0  0  0  0  0  0
   10.2327  -15.5581   21.4373 O   0  0  0  0  0  0  0  0  0  0  0  0
    6.9942  -18.1794   13.4988 N   0  0  0  0  0  0  0  0  0  0  0  0
    8.1020  -15.9149   22.2074 C   0  0  1  0  0  0  0  0  0  0  0  0
    8.2759  -15.1487   23.4214 C   0  0  0  0  0  0  0  0  0  0  0  0
    7.0732  -14.2738   23.7036 C   0  0  0  0  0  0  0  0  0  0  0  0
    7.2082  -13.5033   24.9397 C   0  0  0  0  0  0  0  0  0  0  0  0
    7.8905  -12.3163   25.0183 C   0  0  0  0  0  0  0  0  0  0  0  0
    7.9649  -11.6544   26.2326 C   0  0  0  0  0  0  0  0  0  0  0  0
    7.3679  -12.1596   27.3711 C   0  0  0  0  0  0  0  0  0  0  0  0
    6.6848  -13.3495   27.2886 C   0  0  0  0  0  0  0  0  0  0  0  0
    6.6191  -13.9935   26.0817 C   0  0  0  0  0  0  0  0  0  0  0  0
    8.4948  -16.0348   24.5829 O   0  0  0  0  0  0  0  0  0  0  0  0
    7.6258  -16.8594   24.9759 C   0  0  0  0  0  0  0  0  0  0  0  0
   12.4094  -18.2948   26.4298 C   0  0  2  0  0  0  0  0  0  0  0  0
   11.6821  -17.2878   25.5469 C   0  0  0  0  0  0  0  0  0  0  0  0
   11.6938  -17.8148   24.1488 C   0  0  1  0  0  0  0  0  0  0  0  0
   10.2692  -17.0456   26.0718 N   0  0  0  0  0  0  0  0  0  0  0  0
    9.7324  -15.9560   25.2802 C   0  0  0  0  0  0  0  0  0  0  0  0
   10.3096  -16.6250   27.4767 O   0  0  0  0  0  0  0  0  0  0  0  0
   10.3383  -15.4207   27.7846 O   0  0  0  0  0  0  0  0  0  0  0  0
  2  1  1  0
  3  2  2  0
  4  2  1  0
  5  4  1  0
  6  5  1  0
  7  6  1  0
  8  7  1  0
  8  9  1  6
 10  8  1  0
 10 12  1  0
 11 10  2  0
 13 21  1  0
 13 12  1  0
 13 14  1  6
 15 14  1  0
 16 15  2  0
 17 16  1  0
 18 19  1  0
 18 17  2  0
 19 20  2  0
 20 15  1  0
 21 27  1  0
 22 21  2  0
 24 23  1  6
 24 25  1  0
 24 26  1  0
 26 28  1  0
 26 27  1  6
 28 29  2  0
 28 30  1  0
M  END
$$$$
