RFV.pdb
     RDKit          3D

 30 30  0  0  1  0  0  0  0  0999 V2000
    9.1398  -14.8373   15.2849 N   0  0  0  0  0  0  0  0  0  0  0  0
    8.5403  -13.5589   15.4515 C   0  0  0  0  0  0  0  0  0  0  0  0
    8.6480  -12.6892   14.4882 N   0  0  0  0  0  0  0  0  0  0  0  0
    7.8411  -13.2593   16.6570 N   0  0  0  0  0  0  0  0  0  0  0  0
    7.3559  -14.3741   17.4678 C   0  0  0  0  0  0  0  0  0  0  0  0
    8.4832  -15.2303   17.9477 C   0  0  0  0  0  0  0  0  0  0  0  0
    8.7993  -14.9764   19.3837 C   0  0  0  0  0  0  0  0  0  0  0  0
    8.4378  -16.0782   20.3041 C   0  0  2  0  0  0  0  0  0  0  0  0
    7.1376  -16.6343   20.1973 N   0  0  0  0  0  0  0  0  0  0  0  0
    8.7950  -15.6928   21.7014 C   0  0  0  0  0  0  0  0  0  0  0  0
    9.9631  -15.3005   21.9123 O   0  0  0  0  0  0  0  0  0  0  0  0
    8.2388  -11.7389   14.5554 N   0  0  0  0  0  0  0  0  0  0  0  0
    7.8903  -15.7482   22.7860 C   0  0  1  0  0  0  0  0  0  0  0  0
    8.2112  -15.2864   24.1184 C   0  0  0  0  0  0  0  0  0  0  0  0
    6.9903  -14.7373   24.8253 C   0  0  0  0  0  0  0  0  0  0  0  0
    7.3192  -14.0372   26.0668 C   0  0  0  0  0  0  0  0  0  0  0  0
    7.5294  -12.6838   26.1370 C   0  0  0  0  0  0  0  0  0  0  0  0
    7.8350  -12.1060   27.3580 C   0  0  0  0  0  0  0  0  0  0  0  0
    7.9343  -12.8591   28.5115 C   0  0  0  0  0  0  0  0  0  0  0  0
    7.7230  -14.2154   28.4375 C   0  0  0  0  0  0  0  0  0  0  0  0
    7.4216  -14.7737   27.2237 C   0  0  0  0  0  0  0  0  0  0  0  0
    8.7770  -16.3776   24.9376 O   0  0  0  0  0  0  0  0  0  0  0  0
    8.1080  -17.3967   25.2593 C   0  0  0  0  0  0  0  0  0  0  0  0
   13.1168  -18.1089   26.6679 C   0  0  2  0  0  0  0  0  0  0  0  0
   12.2941  -17.1346   25.8333 C   0  0  0  0  0  0  0  0  0  0  0  0
   12.6437  -17.3558   24.3976 C   0  0  1  0  0  0  0  0  0  0  0  0
   10.8051  -17.3242   26.1115 N   0  0  0  0  0  0  0  0  0  0  0  0
   10.1266  -16.2750   25.3761 C   0  0  0  0  0  0  0  0  0  0  0  0
   10.5243  -17.1480   27.5406 O   0  0  0  0  0  0  0  0  0  0  0  0
   10.1771  -18.1093   28.2489 O   0  0  0  0  0  0  0  0  0  0  0  0
  2  1  1  0
  3  2  2  0
  4  2  1  0
  5  4  1  0
  6  5  1  0
  7  6  1  0
  8  7  1  0
  8  9  1  1
 10  8  1  0
 10 12  1  0
 11 10  2  0
 13 21  1  0
 13 12  1  0
 13 14  1  1
 15 14  1  0
 16 15  2  0
 17 16  1  0
 18 19  1  0
 18 17  2  0
 19 20  2  0
 20 15  1  0
 21 27  1  0
 22 21  2  0
 24 23  1  1
 24 25  1  0
 24 26  1  0
 26 28  1  0
 26 27  1  1
 28 29  2  0
 28 30  1  0
M  END
$$$$
