RFV.pdb
     RDKit          3D

 30 30  0  0  1  0  0  0  0  0999 V2000
    8.5052  -12.3155   16.5823 N   0  0  0  0  0  0  0  0  0  0  0  0
    9.0419  -13.5320   16.0786 C   0  0  0  0  0  0  0  0  0  0  0  0
    9.7934  -13.4895   15.0160 N   0  0  0  0  0  0  0  0  0  0  0  0
    8.7491  -14.7598   16.7408 N   0  0  0  0  0  0  0  0  0  0  0  0
    7.5219  -14.8419   17.5302 C   0  0  0  0  0  0  0  0  0  0  0  0
    7.8174  -15.1088   18.9709 C   0  0  0  0  0  0  0  0  0  0  0  0
    8.6286  -16.3482   19.1498 C   0  0  0  0  0  0  0  0  0  0  0  0
    8.3488  -17.1004   20.3938 C   0  0  2  0  0  0  0  0  0  0  0  0
    7.0734  -17.7046   20.5329 N   0  0  0  0  0  0  0  0  0  0  0  0
    8.7322  -16.2680   21.5721 C   0  0  0  0  0  0  0  0  0  0  0  0
    9.8793  -15.7711   21.5804 O   0  0  0  0  0  0  0  0  0  0  0  0
   10.1725  -14.3476   14.5743 N   0  0  0  0  0  0  0  0  0  0  0  0
    7.8743  -16.0156   22.6668 C   0  0  1  0  0  0  0  0  0  0  0  0
    8.2562  -15.2240   23.8152 C   0  0  0  0  0  0  0  0  0  0  0  0
    7.2344  -14.1472   24.1125 C   0  0  0  0  0  0  0  0  0  0  0  0
    7.4010  -13.5567   25.4404 C   0  0  0  0  0  0  0  0  0  0  0  0
    8.4113  -12.6852   25.7575 C   0  0  0  0  0  0  0  0  0  0  0  0
    8.4896  -12.1740   27.0422 C   0  0  0  0  0  0  0  0  0  0  0  0
    7.5739  -12.5196   28.0167 C   0  0  0  0  0  0  0  0  0  0  0  0
    6.5625  -13.3934   27.6955 C   0  0  0  0  0  0  0  0  0  0  0  0
    6.4970  -13.8913   26.4213 C   0  0  0  0  0  0  0  0  0  0  0  0
    8.4105  -16.0694   25.0166 O   0  0  0  0  0  0  0  0  0  0  0  0
    7.4573  -16.7407   25.4964 C   0  0  0  0  0  0  0  0  0  0  0  0
   12.1960  -18.6550   26.7742 C   0  0  2  0  0  0  0  0  0  0  0  0
   11.5458  -17.5810   25.9101 C   0  0  0  0  0  0  0  0  0  0  0  0
   11.5612  -18.0623   24.4957 C   0  0  1  0  0  0  0  0  0  0  0  0
   10.1365  -17.2778   26.4124 N   0  0  0  0  0  0  0  0  0  0  0  0
    9.6819  -16.1300   25.6521 C   0  0  0  0  0  0  0  0  0  0  0  0
   10.1660  -16.9137   27.8332 O   0  0  0  0  0  0  0  0  0  0  0  0
   10.3790  -15.7418   28.1902 O   0  0  0  0  0  0  0  0  0  0  0  0
  2  1  1  0
  3  2  2  0
  4  2  1  0
  5  4  1  0
  6  5  1  0
  7  6  1  0
  8  7  1  0
  8  9  1  1
 10  8  1  0
 10 12  1  0
 11 10  2  0
 13 21  1  0
 13 12  1  0
 13 14  1  1
 15 14  1  0
 16 15  2  0
 17 16  1  0
 18 19  1  0
 18 17  2  0
 19 20  2  0
 20 15  1  0
 21 27  1  0
 22 21  2  0
 24 23  1  6
 24 25  1  0
 24 26  1  0
 26 28  1  0
 26 27  1  6
 28 29  2  0
 28 30  1  0
M  END
$$$$
