RFV.pdb
     RDKit          3D

 30 30  0  0  1  0  0  0  0  0999 V2000
    9.1122  -15.2364   14.7830 N   0  0  0  0  0  0  0  0  0  0  0  0
    8.5798  -13.9619   15.1202 C   0  0  0  0  0  0  0  0  0  0  0  0
    7.9962  -13.2633   14.1889 N   0  0  0  0  0  0  0  0  0  0  0  0
    8.6947  -13.4808   16.4571 N   0  0  0  0  0  0  0  0  0  0  0  0
    8.2779  -14.3625   17.5455 C   0  0  0  0  0  0  0  0  0  0  0  0
    9.4161  -15.1979   18.0364 C   0  0  0  0  0  0  0  0  0  0  0  0
    9.8020  -14.8426   19.4332 C   0  0  0  0  0  0  0  0  0  0  0  0
    9.7309  -15.9604   20.4013 C   0  0  2  0  0  0  0  0  0  0  0  0
    8.7810  -16.9863   20.1639 N   0  0  0  0  0  0  0  0  0  0  0  0
    9.6626  -15.4107   21.7875 C   0  0  0  0  0  0  0  0  0  0  0  0
   10.5250  -14.5685   22.1188 O   0  0  0  0  0  0  0  0  0  0  0  0
    8.0334  -13.5371   13.1895 N   0  0  0  0  0  0  0  0  0  0  0  0
    8.6836  -15.7894   22.7342 C   0  0  1  0  0  0  0  0  0  0  0  0
    8.4853  -15.1084   23.9944 C   0  0  0  0  0  0  0  0  0  0  0  0
    7.0212  -14.8145   24.2429 C   0  0  0  0  0  0  0  0  0  0  0  0
    6.8117  -13.8172   25.2924 C   0  0  0  0  0  0  0  0  0  0  0  0
    6.3005  -14.1187   26.5287 C   0  0  0  0  0  0  0  0  0  0  0  0
    6.1383  -13.1083   27.4618 C   0  0  0  0  0  0  0  0  0  0  0  0
    6.4788  -11.7998   27.1797 C   0  0  0  0  0  0  0  0  0  0  0  0
    6.9910  -11.5012   25.9395 C   0  0  0  0  0  0  0  0  0  0  0  0
    7.1461  -12.5100   25.0263 C   0  0  0  0  0  0  0  0  0  0  0  0
    9.0004  -15.9133   25.1208 O   0  0  0  0  0  0  0  0  0  0  0  0
    8.8538  -17.1641   25.1791 C   0  0  0  0  0  0  0  0  0  0  0  0
   11.5802  -13.7089   27.4109 C   0  0  2  0  0  0  0  0  0  0  0  0
   10.9575  -14.8864   28.1514 C   0  0  0  0  0  0  0  0  0  0  0  0
    9.8418  -14.3577   28.9928 C   0  0  2  0  0  0  0  0  0  0  0  0
   10.4928  -15.9503   27.1601 N   0  0  0  0  0  0  0  0  0  0  0  0
    9.6893  -15.2523   26.1756 C   0  0  0  0  0  0  0  0  0  0  0  0
    9.6474  -16.9429   27.8325 O   0  0  0  0  0  0  0  0  0  0  0  0
    8.4085  -16.9020   27.7338 O   0  0  0  0  0  0  0  0  0  0  0  0
  2  1  1  0
  3  2  2  0
  4  2  1  0
  5  4  1  0
  6  5  1  0
  7  6  1  0
  8  7  1  0
  8  9  1  6
 10  8  1  0
 10 12  1  0
 11 10  2  0
 13 21  1  0
 13 12  1  0
 13 14  1  1
 15 14  1  0
 16 15  2  0
 17 16  1  0
 18 19  1  0
 18 17  2  0
 19 20  2  0
 20 15  1  0
 21 27  1  0
 22 21  2  0
 24 23  1  1
 24 25  1  0
 24 26  1  0
 26 28  1  0
 26 27  1  1
 28 29  2  0
 28 30  1  0
M  END
$$$$
