HTR.pdb
     RDKit          3D

 29 29  0  0  1  0  0  0  0  0999 V2000
   28.1995  -21.3373  -15.9592 N   0  0  0  0  0  0  0  0  0  0  0  0
   27.6291  -20.3709  -15.0482 C   0  0  1  0  0  0  0  0  0  0  0  0
   26.9251  -19.3217  -15.9107 C   0  0  0  0  0  0  0  0  0  0  0  0
   27.9832  -18.5855  -16.6694 C   0  0  0  0  0  0  0  0  0  0  0  0
   28.0066  -18.3698  -18.0466 C   0  0  0  0  0  0  0  0  0  0  0  0
   29.1145  -17.6709  -18.3438 N   0  0  0  0  0  0  0  0  0  0  0  0
   29.7918  -17.4377  -17.2024 C   0  0  0  0  0  0  0  0  0  0  0  0
   29.0902  -18.0001  -16.1968 N   0  0  0  0  0  0  0  0  0  0  0  0
   26.6090  -20.9749  -14.1600 C   0  0  0  0  0  0  0  0  0  0  0  0
   25.9410  -21.9365  -14.6166 O   0  0  0  0  0  0  0  0  0  0  0  0
   27.2803  -21.6160  -10.4194 C   0  0  0  0  0  0  0  0  0  0  0  0
   25.8602  -21.1011  -10.5618 C   0  0  1  0  0  0  0  0  0  0  0  0
   25.8672  -19.7646  -10.1508 O   0  0  0  0  0  0  0  0  0  0  0  0
   25.4240  -21.1059  -12.0153 C   0  0  2  0  0  0  0  0  0  0  0  0
   26.4151  -20.4661  -12.8464 N   0  0  0  0  0  0  0  0  0  0  0  0
   24.1204  -20.4148  -12.1838 C   0  0  0  0  0  0  0  0  0  0  0  0
   24.1369  -19.1437  -12.2561 O   0  0  0  0  0  0  0  0  0  0  0  0
   21.4210  -16.3092  -17.6704 N   0  0  0  0  0  0  0  0  0  0  0  0
   20.2384  -16.6952  -16.9489 C   0  0  0  0  0  0  0  0  0  0  0  0
   19.1963  -15.9392  -16.9115 N   0  0  0  0  0  0  0  0  0  0  0  0
   20.1841  -17.9309  -16.2487 N   0  0  0  0  0  0  0  0  0  0  0  0
   21.2931  -18.8383  -16.2173 C   0  0  0  0  0  0  0  0  0  0  0  0
   21.0708  -20.0820  -15.4206 C   0  0  0  0  0  0  0  0  0  0  0  0
   22.1160  -20.5134  -14.4828 C   0  0  0  0  0  0  0  0  0  0  0  0
   21.7797  -20.6679  -13.0483 C   0  0  2  0  0  0  0  0  0  0  0  0
   22.9087  -21.1329  -12.2610 N   0  0  0  0  0  0  0  0  0  0  0  0
   20.6494  -21.5532  -12.7537 C   0  0  0  0  0  0  0  0  0  0  0  0
   20.7762  -22.7880  -12.8773 O   0  0  0  0  0  0  0  0  0  0  0  0
   19.4301  -21.0493  -12.3392 O   0  0  0  0  0  0  0  0  0  0  0  0
  2  9  1  0
  2  1  1  6
  3  2  1  0
  4  8  1  0
  4  3  1  0
  5  4  2  0
  6  5  1  0
  6  7  1  0
  7  8  2  0
  9 10  2  0
 12 13  1  0
 12 14  1  0
 12 11  1  6
 14 16  1  0
 15  9  1  0
 14 15  1  6
 16 17  2  0
 18 19  1  0
 19 20  2  0
 21 19  1  0
 22 21  1  0
 22 23  1  0
 23 24  1  0
 25 24  1  6
 25 27  1  0
 26 25  1  0
 26 16  1  0
 27 28  2  0
 27 29  1  0
M  END
$$$$
