HTR.pdb
     RDKit          3D

 29 29  0  0  1  0  0  0  0  0999 V2000
   23.9091  -12.9371  -16.2709 N   0  0  0  0  0  0  0  0  0  0  0  0
   24.1196  -11.5103  -16.3668 C   0  0  1  0  0  0  0  0  0  0  0  0
   24.8635  -11.2670  -17.6813 C   0  0  0  0  0  0  0  0  0  0  0  0
   26.2265  -11.8663  -17.5396 C   0  0  0  0  0  0  0  0  0  0  0  0
   26.6389  -13.0981  -18.0460 C   0  0  0  0  0  0  0  0  0  0  0  0
   27.9271  -13.2799  -17.7120 N   0  0  0  0  0  0  0  0  0  0  0  0
   28.3429  -12.2061  -17.0121 C   0  0  0  0  0  0  0  0  0  0  0  0
   27.2975  -11.3588  -16.9175 N   0  0  0  0  0  0  0  0  0  0  0  0
   22.8437  -10.7605  -16.4317 C   0  0  0  0  0  0  0  0  0  0  0  0
   21.8865  -11.2994  -17.0422 O   0  0  0  0  0  0  0  0  0  0  0  0
   20.5089  -10.1267  -13.8663 C   0  0  0  0  0  0  0  0  0  0  0  0
   20.9011   -8.7571  -14.3884 C   0  0  1  0  0  0  0  0  0  0  0  0
   21.9549   -8.3019  -13.5898 O   0  0  0  0  0  0  0  0  0  0  0  0
   21.4383   -8.8492  -15.8047 C   0  0  2  0  0  0  0  0  0  0  0  0
   22.7348   -9.4827  -15.8173 N   0  0  0  0  0  0  0  0  0  0  0  0
   21.5421   -7.5039  -16.4249 C   0  0  0  0  0  0  0  0  0  0  0  0
   22.6122   -6.8453  -16.2185 O   0  0  0  0  0  0  0  0  0  0  0  0
   18.1754   -2.9656  -22.2938 N   0  0  0  0  0  0  0  0  0  0  0  0
   19.2293   -2.0563  -21.9319 C   0  0  0  0  0  0  0  0  0  0  0  0
   19.2359   -0.8359  -22.3437 N   0  0  0  0  0  0  0  0  0  0  0  0
   20.3042   -2.4806  -21.1044 N   0  0  0  0  0  0  0  0  0  0  0  0
   20.3735   -3.8069  -20.5656 C   0  0  0  0  0  0  0  0  0  0  0  0
   19.4269   -4.0847  -19.4441 C   0  0  0  0  0  0  0  0  0  0  0  0
   19.4944   -5.3897  -18.7729 C   0  0  0  0  0  0  0  0  0  0  0  0
   20.5514   -5.6279  -17.7627 C   0  0  2  0  0  0  0  0  0  0  0  0
   20.4997   -6.9714  -17.2122 N   0  0  0  0  0  0  0  0  0  0  0  0
   20.5705   -4.6948  -16.6326 C   0  0  0  0  0  0  0  0  0  0  0  0
   21.2830   -3.6720  -16.6809 O   0  0  0  0  0  0  0  0  0  0  0  0
   19.8116   -4.9222  -15.4991 O   0  0  0  0  0  0  0  0  0  0  0  0
  2  9  1  0
  2  1  1  6
  3  2  1  0
  4  8  1  0
  4  3  1  0
  5  4  2  0
  6  5  1  0
  6  7  1  0
  7  8  2  0
  9 10  2  0
 12 13  1  0
 12 14  1  0
 12 11  1  1
 14 16  1  0
 15  9  1  0
 14 15  1  1
 16 17  2  0
 18 19  1  0
 19 20  2  0
 21 19  1  0
 22 21  1  0
 22 23  1  0
 23 24  1  0
 25 24  1  6
 25 27  1  0
 26 25  1  0
 26 16  1  0
 27 28  2  0
 27 29  1  0
M  END
$$$$
