HTR.pdb
     RDKit          3D

 29 29  0  0  1  0  0  0  0  0999 V2000
   25.0556  -21.2810  -10.6815 N   0  0  0  0  0  0  0  0  0  0  0  0
   24.0825  -20.9998  -11.7126 C   0  0  1  0  0  0  0  0  0  0  0  0
   23.0709  -20.0272  -11.1034 C   0  0  0  0  0  0  0  0  0  0  0  0
   22.2789  -20.7865  -10.0869 C   0  0  0  0  0  0  0  0  0  0  0  0
   22.4251  -20.7039   -8.7028 C   0  0  0  0  0  0  0  0  0  0  0  0
   21.5351  -21.5350   -8.1359 N   0  0  0  0  0  0  0  0  0  0  0  0
   20.8320  -22.1398   -9.1134 C   0  0  0  0  0  0  0  0  0  0  0  0
   21.2972  -21.6732  -10.2905 N   0  0  0  0  0  0  0  0  0  0  0  0
   24.6903  -20.3326  -12.8872 C   0  0  0  0  0  0  0  0  0  0  0  0
   25.3654  -19.2936  -12.6772 O   0  0  0  0  0  0  0  0  0  0  0  0
   26.6837  -20.3086  -17.2203 C   0  0  0  0  0  0  0  0  0  0  0  0
   26.0630  -21.0485  -16.0500 C   0  0  1  0  0  0  0  0  0  0  0  0
   27.0983  -21.3428  -15.1573 O   0  0  0  0  0  0  0  0  0  0  0  0
   25.0852  -20.1604  -15.3029 C   0  0  2  0  0  0  0  0  0  0  0  0
   24.5010  -20.8696  -14.1902 N   0  0  0  0  0  0  0  0  0  0  0  0
   24.0051  -19.6808  -16.2022 C   0  0  0  0  0  0  0  0  0  0  0  0
   22.8341  -20.1416  -16.0079 O   0  0  0  0  0  0  0  0  0  0  0  0
   17.6638  -14.9329  -15.9855 N   0  0  0  0  0  0  0  0  0  0  0  0
   17.7154  -15.1417  -17.4074 C   0  0  0  0  0  0  0  0  0  0  0  0
   16.7459  -14.7831  -18.1758 N   0  0  0  0  0  0  0  0  0  0  0  0
   18.8454  -15.7564  -18.0121 N   0  0  0  0  0  0  0  0  0  0  0  0
   19.9384  -16.2691  -17.2396 C   0  0  0  0  0  0  0  0  0  0  0  0
   21.0106  -16.9441  -18.0305 C   0  0  0  0  0  0  0  0  0  0  0  0
   22.1424  -17.5452  -17.3123 C   0  0  0  0  0  0  0  0  0  0  0  0
   23.2064  -18.2283  -18.0843 C   0  0  2  0  0  0  0  0  0  0  0  0
   24.2605  -18.7518  -17.2325 N   0  0  0  0  0  0  0  0  0  0  0  0
   23.8489  -17.4238  -19.1276 C   0  0  0  0  0  0  0  0  0  0  0  0
   25.0220  -17.0279  -18.9753 O   0  0  0  0  0  0  0  0  0  0  0  0
   23.1799  -17.0864  -20.2899 O   0  0  0  0  0  0  0  0  0  0  0  0
  2  9  1  0
  2  1  1  1
  3  2  1  0
  4  8  1  0
  4  3  1  0
  5  4  2  0
  6  5  1  0
  6  7  1  0
  7  8  2  0
  9 10  2  0
 12 13  1  0
 12 14  1  0
 12 11  1  6
 14 16  1  0
 15  9  1  0
 14 15  1  1
 16 17  2  0
 18 19  1  0
 19 20  2  0
 21 19  1  0
 22 21  1  0
 22 23  1  0
 23 24  1  0
 25 24  1  1
 25 27  1  0
 26 25  1  0
 26 16  1  0
 27 28  2  0
 27 29  1  0
M  END
$$$$
