HTR.pdb
     RDKit          3D

 29 29  0  0  1  0  0  0  0  0999 V2000
   28.0252  -18.8058  -18.8712 N   0  0  0  0  0  0  0  0  0  0  0  0
   27.3056  -18.3012  -17.7237 C   0  0  1  0  0  0  0  0  0  0  0  0
   25.9477  -17.8194  -18.2381 C   0  0  0  0  0  0  0  0  0  0  0  0
   26.1754  -16.5251  -18.9522 C   0  0  0  0  0  0  0  0  0  0  0  0
   27.3874  -15.8429  -19.0497 C   0  0  0  0  0  0  0  0  0  0  0  0
   27.1847  -14.7265  -19.7686 N   0  0  0  0  0  0  0  0  0  0  0  0
   25.8870  -14.6796  -20.1285 C   0  0  0  0  0  0  0  0  0  0  0  0
   25.2902  -15.7792  -19.6243 N   0  0  0  0  0  0  0  0  0  0  0  0
   27.0512  -19.3564  -16.7157 C   0  0  0  0  0  0  0  0  0  0  0  0
   26.8400  -20.5210  -17.1381 O   0  0  0  0  0  0  0  0  0  0  0  0
   29.3595  -20.7413  -14.7577 C   0  0  0  0  0  0  0  0  0  0  0  0
   28.3098  -20.3694  -13.7272 C   0  0  1  0  0  0  0  0  0  0  0  0
   28.7060  -19.1539  -13.1607 O   0  0  0  0  0  0  0  0  0  0  0  0
   26.9651  -20.1231  -14.3863 C   0  0  2  0  0  0  0  0  0  0  0  0
   27.0525  -19.0353  -15.3304 N   0  0  0  0  0  0  0  0  0  0  0  0
   25.9232  -19.8137  -13.3744 C   0  0  0  0  0  0  0  0  0  0  0  0
   25.6420  -18.5871  -13.1801 O   0  0  0  0  0  0  0  0  0  0  0  0
   18.2887  -23.6045  -11.0016 N   0  0  0  0  0  0  0  0  0  0  0  0
   18.2317  -22.2279  -10.5893 C   0  0  0  0  0  0  0  0  0  0  0  0
   17.1528  -21.7134  -10.1095 N   0  0  0  0  0  0  0  0  0  0  0  0
   19.3721  -21.3870  -10.7012 N   0  0  0  0  0  0  0  0  0  0  0  0
   20.5063  -21.7437  -11.5017 C   0  0  0  0  0  0  0  0  0  0  0  0
   21.7616  -20.9972  -11.1888 C   0  0  0  0  0  0  0  0  0  0  0  0
   22.9270  -21.1820  -12.0639 C   0  0  0  0  0  0  0  0  0  0  0  0
   24.2155  -20.5523  -11.6925 C   0  0  2  0  0  0  0  0  0  0  0  0
   25.2678  -20.8341  -12.6538 N   0  0  0  0  0  0  0  0  0  0  0  0
   24.7328  -20.9008  -10.3662 C   0  0  0  0  0  0  0  0  0  0  0  0
   25.5959  -21.7937  -10.2487 O   0  0  0  0  0  0  0  0  0  0  0  0
   24.2821  -20.2591   -9.2270 O   0  0  0  0  0  0  0  0  0  0  0  0
  2  9  1  0
  2  1  1  6
  3  2  1  0
  4  8  1  0
  4  3  1  0
  5  4  2  0
  6  5  1  0
  6  7  1  0
  7  8  2  0
  9 10  2  0
 12 13  1  0
 12 14  1  0
 12 11  1  6
 14 16  1  0
 15  9  1  0
 14 15  1  6
 16 17  2  0
 18 19  1  0
 19 20  2  0
 21 19  1  0
 22 21  1  0
 22 23  1  0
 23 24  1  0
 25 24  1  6
 25 27  1  0
 26 25  1  0
 26 16  1  0
 27 28  2  0
 27 29  1  0
M  END
$$$$
