HTR.pdb
     RDKit          3D

 29 29  0  0  1  0  0  0  0  0999 V2000
   23.3449  -15.7788  -16.8244 N   0  0  0  0  0  0  0  0  0  0  0  0
   22.3000  -15.1789  -16.0260 C   0  0  1  0  0  0  0  0  0  0  0  0
   21.9560  -16.1883  -14.9290 C   0  0  0  0  0  0  0  0  0  0  0  0
   21.5958  -17.4739  -15.6032 C   0  0  0  0  0  0  0  0  0  0  0  0
   21.2873  -17.6349  -16.9533 C   0  0  0  0  0  0  0  0  0  0  0  0
   21.0208  -18.9331  -17.1715 N   0  0  0  0  0  0  0  0  0  0  0  0
   21.1500  -19.5978  -16.0065 C   0  0  0  0  0  0  0  0  0  0  0  0
   21.4994  -18.6960  -15.0661 N   0  0  0  0  0  0  0  0  0  0  0  0
   22.7502  -13.9342  -15.3608 C   0  0  0  0  0  0  0  0  0  0  0  0
   22.0215  -13.4701  -14.4482 O   0  0  0  0  0  0  0  0  0  0  0  0
   26.0821  -10.3298  -14.8170 C   0  0  0  0  0  0  0  0  0  0  0  0
   25.7443  -11.6870  -15.4055 C   0  0  1  0  0  0  0  0  0  0  0  0
   26.4830  -12.6365  -14.6927 O   0  0  0  0  0  0  0  0  0  0  0  0
   24.2806  -12.0238  -15.1887 C   0  0  2  0  0  0  0  0  0  0  0  0
   23.9644  -13.3108  -15.7598 N   0  0  0  0  0  0  0  0  0  0  0  0
   23.4001  -10.9896  -15.7891 C   0  0  0  0  0  0  0  0  0  0  0  0
   23.3291  -10.9474  -17.0597 O   0  0  0  0  0  0  0  0  0  0  0  0
   15.0137   -9.1314  -15.2887 N   0  0  0  0  0  0  0  0  0  0  0  0
   15.5603   -8.0006  -15.9892 C   0  0  0  0  0  0  0  0  0  0  0  0
   14.8002   -7.1080  -16.5226 N   0  0  0  0  0  0  0  0  0  0  0  0
   16.9660   -7.8336  -16.1166 N   0  0  0  0  0  0  0  0  0  0  0  0
   17.8976   -8.7851  -15.5865 C   0  0  0  0  0  0  0  0  0  0  0  0
   19.3370   -8.4435  -15.7918 C   0  0  0  0  0  0  0  0  0  0  0  0
   20.3571   -9.4177  -15.3811 C   0  0  0  0  0  0  0  0  0  0  0  0
   21.7889   -9.0814  -15.5581 C   0  0  2  0  0  0  0  0  0  0  0  0
   22.6693  -10.0870  -14.9884 N   0  0  0  0  0  0  0  0  0  0  0  0
   22.2065   -7.7829  -15.0217 C   0  0  0  0  0  0  0  0  0  0  0  0
   22.8839   -7.7296  -13.9756 O   0  0  0  0  0  0  0  0  0  0  0  0
   21.8634   -6.6005  -15.6514 O   0  0  0  0  0  0  0  0  0  0  0  0
  2  9  1  0
  2  1  1  6
  3  2  1  0
  4  8  1  0
  4  3  1  0
  5  4  2  0
  6  5  1  0
  6  7  1  0
  7  8  2  0
  9 10  2  0
 12 13  1  0
 12 14  1  0
 12 11  1  1
 14 16  1  0
 15  9  1  0
 14 15  1  6
 16 17  2  0
 18 19  1  0
 19 20  2  0
 21 19  1  0
 22 21  1  0
 22 23  1  0
 23 24  1  0
 25 24  1  1
 25 27  1  0
 26 25  1  0
 26 16  1  0
 27 28  2  0
 27 29  1  0
M  END
$$$$
