HTR.pdb
     RDKit          3D

 29 29  0  0  1  0  0  0  0  0999 V2000
   25.6789  -16.1274  -18.5991 N   0  0  0  0  0  0  0  0  0  0  0  0
   25.3796  -17.4174  -18.0197 C   0  0  1  0  0  0  0  0  0  0  0  0
   26.6403  -17.8648  -17.2774 C   0  0  0  0  0  0  0  0  0  0  0  0
   27.6313  -18.3053  -18.3075 C   0  0  0  0  0  0  0  0  0  0  0  0
   27.4316  -18.3169  -19.6873 C   0  0  0  0  0  0  0  0  0  0  0  0
   28.5509  -18.7768  -20.2701 N   0  0  0  0  0  0  0  0  0  0  0  0
   29.4507  -19.0563  -19.3067 C   0  0  0  0  0  0  0  0  0  0  0  0
   28.8750  -18.7638  -18.1223 N   0  0  0  0  0  0  0  0  0  0  0  0
   24.2816  -17.3432  -17.0282 C   0  0  0  0  0  0  0  0  0  0  0  0
   24.3667  -16.4624  -16.1358 O   0  0  0  0  0  0  0  0  0  0  0  0
   20.8230  -16.4920  -17.5349 C   0  0  0  0  0  0  0  0  0  0  0  0
   20.8018  -17.8348  -16.8289 C   0  0  1  0  0  0  0  0  0  0  0  0
   20.6578  -18.8137  -17.8170 O   0  0  0  0  0  0  0  0  0  0  0  0
   22.1258  -18.1065  -16.1387 C   0  0  2  0  0  0  0  0  0  0  0  0
   23.1859  -18.2461  -17.1077 N   0  0  0  0  0  0  0  0  0  0  0  0
   22.0529  -19.3358  -15.3087 C   0  0  0  0  0  0  0  0  0  0  0  0
   22.3878  -20.4341  -15.8591 O   0  0  0  0  0  0  0  0  0  0  0  0
   27.3796  -21.2376  -10.8851 N   0  0  0  0  0  0  0  0  0  0  0  0
   26.4751  -20.8306   -9.8438 C   0  0  0  0  0  0  0  0  0  0  0  0
   26.8947  -20.2278   -8.7857 N   0  0  0  0  0  0  0  0  0  0  0  0
   25.0807  -21.0848   -9.9507 N   0  0  0  0  0  0  0  0  0  0  0  0
   24.4777  -21.5230  -11.1749 C   0  0  0  0  0  0  0  0  0  0  0  0
   23.7809  -20.4564  -11.9544 C   0  0  0  0  0  0  0  0  0  0  0  0
   22.3151  -20.3821  -11.8909 C   0  0  0  0  0  0  0  0  0  0  0  0
   21.5320  -20.4898  -13.1438 C   0  0  2  0  0  0  0  0  0  0  0  0
   21.6300  -19.2944  -13.9637 N   0  0  0  0  0  0  0  0  0  0  0  0
   20.1066  -20.7877  -12.9771 C   0  0  0  0  0  0  0  0  0  0  0  0
   19.2665  -19.8676  -13.0372 O   0  0  0  0  0  0  0  0  0  0  0  0
   19.6631  -22.0778  -12.7503 O   0  0  0  0  0  0  0  0  0  0  0  0
  2  9  1  0
  2  1  1  1
  3  2  1  0
  4  8  1  0
  4  3  1  0
  5  4  2  0
  6  5  1  0
  6  7  1  0
  7  8  2  0
  9 10  2  0
 12 13  1  0
 12 14  1  0
 12 11  1  6
 14 16  1  0
 15  9  1  0
 14 15  1  6
 16 17  2  0
 18 19  1  0
 19 20  2  0
 21 19  1  0
 22 21  1  0
 22 23  1  0
 23 24  1  0
 25 24  1  1
 25 27  1  0
 26 25  1  0
 26 16  1  0
 27 28  2  0
 27 29  1  0
M  END
$$$$
