HTR.pdb
     RDKit          3D

 29 29  0  0  1  0  0  0  0  0999 V2000
   22.9644  -22.8340  -17.0748 N   0  0  0  0  0  0  0  0  0  0  0  0
   21.7035  -23.5274  -17.2118 C   0  0  1  0  0  0  0  0  0  0  0  0
   22.0246  -24.9041  -17.7967 C   0  0  0  0  0  0  0  0  0  0  0  0
   22.3086  -24.7145  -19.2528 C   0  0  0  0  0  0  0  0  0  0  0  0
   23.5231  -24.3129  -19.8073 C   0  0  0  0  0  0  0  0  0  0  0  0
   23.3791  -24.2605  -21.1417 N   0  0  0  0  0  0  0  0  0  0  0  0
   22.1160  -24.6149  -21.4496 C   0  0  0  0  0  0  0  0  0  0  0  0
   21.4813  -24.8869  -20.2907 N   0  0  0  0  0  0  0  0  0  0  0  0
   21.0394  -23.7423  -15.9052 C   0  0  0  0  0  0  0  0  0  0  0  0
   21.7757  -23.8432  -14.8918 O   0  0  0  0  0  0  0  0  0  0  0  0
   16.9120  -23.9245  -13.2041 C   0  0  0  0  0  0  0  0  0  0  0  0
   17.5713  -23.6119  -14.5345 C   0  0  1  0  0  0  0  0  0  0  0  0
   17.5646  -22.2208  -14.6769 O   0  0  0  0  0  0  0  0  0  0  0  0
   19.0269  -24.0410  -14.5334 C   0  0  2  0  0  0  0  0  0  0  0  0
   19.6219  -23.8266  -15.8305 N   0  0  0  0  0  0  0  0  0  0  0  0
   19.1613  -25.4723  -14.1611 C   0  0  0  0  0  0  0  0  0  0  0  0
   18.8787  -26.3376  -15.0514 O   0  0  0  0  0  0  0  0  0  0  0  0
   17.6363  -30.8505   -8.4033 N   0  0  0  0  0  0  0  0  0  0  0  0
   18.8574  -31.4890   -8.8150 C   0  0  0  0  0  0  0  0  0  0  0  0
   19.1079  -32.7170   -8.5178 N   0  0  0  0  0  0  0  0  0  0  0  0
   19.8326  -30.7786   -9.5662 N   0  0  0  0  0  0  0  0  0  0  0  0
   19.6442  -29.4140   -9.9621 C   0  0  0  0  0  0  0  0  0  0  0  0
   20.7340  -28.8448  -10.8102 C   0  0  0  0  0  0  0  0  0  0  0  0
   20.5734  -27.4856  -11.3439 C   0  0  0  0  0  0  0  0  0  0  0  0
   19.6270  -27.2557  -12.4603 C   0  0  2  0  0  0  0  0  0  0  0  0
   19.5846  -25.8636  -12.8736 N   0  0  0  0  0  0  0  0  0  0  0  0
   18.2453  -27.6803  -12.2181 C   0  0  0  0  0  0  0  0  0  0  0  0
   17.8326  -28.7584  -12.6908 O   0  0  0  0  0  0  0  0  0  0  0  0
   17.3755  -26.9065  -11.4716 O   0  0  0  0  0  0  0  0  0  0  0  0
  2  9  1  0
  2  1  1  1
  3  2  1  0
  4  8  1  0
  4  3  1  0
  5  4  2  0
  6  5  1  0
  6  7  1  0
  7  8  2  0
  9 10  2  0
 12 13  1  0
 12 14  1  0
 12 11  1  1
 14 16  1  0
 15  9  1  0
 14 15  1  6
 16 17  2  0
 18 19  1  0
 19 20  2  0
 21 19  1  0
 22 21  1  0
 22 23  1  0
 23 24  1  0
 25 24  1  1
 25 27  1  0
 26 25  1  0
 26 16  1  0
 27 28  2  0
 27 29  1  0
M  END
$$$$
