HTR.pdb
     RDKit          3D

 29 29  0  0  1  0  0  0  0  0999 V2000
-2797.4680 7533.8389 1596.2349 N   0  0  0  0  0  0  0  0  0  0  0  0
-2798.4844 7532.9946 1595.6460 C   0  0  1  0  0  0  0  0  0  0  0  0
-2798.3662 7531.6318 1596.3304 C   0  0  0  0  0  0  0  0  0  0  0  0
-2799.4165 7530.7446 1595.7445 C   0  0  0  0  0  0  0  0  0  0  0  0
-2800.7822 7530.7939 1596.0272 C   0  0  0  0  0  0  0  0  0  0  0  0
-2801.3938 7529.8438 1595.3035 N   0  0  0  0  0  0  0  0  0  0  0  0
-2800.4634 7529.1929 1594.5726 C   0  0  0  0  0  0  0  0  0  0  0  0
-2799.2720 7529.7573 1594.8536 N   0  0  0  0  0  0  0  0  0  0  0  0
-2799.8518 7533.5049 1595.9015 C   0  0  0  0  0  0  0  0  0  0  0  0
-2800.3018 7533.3960 1597.0697 O   0  0  0  0  0  0  0  0  0  0  0  0
-2800.3323 7531.0356 1593.8771 C   0  0  0  0  0  0  0  0  0  0  0  0
-2799.5618 7532.3018 1593.5582 C   0  0  1  0  0  0  0  0  0  0  0  0
-2799.0552 7532.1577 1592.2646 O   0  0  0  0  0  0  0  0  0  0  0  0
-2800.4844 7533.5073 1593.5311 C   0  0  2  0  0  0  0  0  0  0  0  0
-2800.6035 7534.0903 1594.8459 N   0  0  0  0  0  0  0  0  0  0  0  0
-2801.8337 7533.1348 1593.0343 C   0  0  0  0  0  0  0  0  0  0  0  0
-2802.8296 7533.4204 1593.7743 O   0  0  0  0  0  0  0  0  0  0  0  0
-2805.7554 7532.1426 1596.0511 N   0  0  0  0  0  0  0  0  0  0  0  0
-2807.0798 7532.1685 1595.4919 C   0  0  0  0  0  0  0  0  0  0  0  0
-2808.1240 7532.2690 1596.2379 N   0  0  0  0  0  0  0  0  0  0  0  0
-2807.2776 7532.0771 1594.0867 N   0  0  0  0  0  0  0  0  0  0  0  0
-2806.5210 7532.8682 1593.1575 C   0  0  0  0  0  0  0  0  0  0  0  0
-2805.6667 7532.0845 1592.2139 C   0  0  0  0  0  0  0  0  0  0  0  0
-2804.4387 7532.7031 1591.6985 C   0  0  0  0  0  0  0  0  0  0  0  0
-2803.2603 7531.8491 1591.4232 C   0  0  2  0  0  0  0  0  0  0  0  0
-2802.0117 7532.4902 1591.7925 N   0  0  0  0  0  0  0  0  0  0  0  0
-2803.1216 7531.3887 1590.0382 C   0  0  0  0  0  0  0  0  0  0  0  0
-2802.8955 7532.2100 1589.1285 O   0  0  0  0  0  0  0  0  0  0  0  0
-2803.2361 7530.0479 1589.7108 O   0  0  0  0  0  0  0  0  0  0  0  0
  2  9  1  0
  2  1  1  1
  3  2  1  0
  4  8  1  0
  4  3  1  0
  5  4  2  0
  6  5  1  0
  6  7  1  0
  7  8  2  0
  9 10  2  0
 12 13  1  0
 12 14  1  0
 12 11  1  6
 14 16  1  0
 15  9  1  0
 14 15  1  1
 16 17  2  0
 18 19  1  0
 19 20  2  0
 21 19  1  0
 22 21  1  0
 22 23  1  0
 23 24  1  0
 25 24  1  6
 25 27  1  0
 26 25  1  0
 26 16  1  0
 27 28  2  0
 27 29  1  0
M  END
$$$$
