HTR.pdb
     RDKit          3D

 29 29  0  0  1  0  0  0  0  0999 V2000
   28.4890  -19.0366  -19.2074 N   0  0  0  0  0  0  0  0  0  0  0  0
   27.3615  -18.6341  -18.3974 C   0  0  1  0  0  0  0  0  0  0  0  0
   26.3341  -18.0244  -19.3530 C   0  0  0  0  0  0  0  0  0  0  0  0
   26.9198  -16.7561  -19.8871 C   0  0  0  0  0  0  0  0  0  0  0  0
   26.9006  -16.3388  -21.2173 C   0  0  0  0  0  0  0  0  0  0  0  0
   27.5251  -15.1522  -21.2946 N   0  0  0  0  0  0  0  0  0  0  0  0
   27.9383  -14.8053  -20.0598 C   0  0  0  0  0  0  0  0  0  0  0  0
   27.5621  -15.7906  -19.2187 N   0  0  0  0  0  0  0  0  0  0  0  0
   26.7166  -19.7863  -17.7259 C   0  0  0  0  0  0  0  0  0  0  0  0
   26.6342  -20.8607  -18.3725 O   0  0  0  0  0  0  0  0  0  0  0  0
   27.9926  -21.8384  -15.5334 C   0  0  0  0  0  0  0  0  0  0  0  0
   26.7428  -21.4041  -14.7908 C   0  0  1  0  0  0  0  0  0  0  0  0
   27.1157  -20.3595  -13.9393 O   0  0  0  0  0  0  0  0  0  0  0  0
   25.7117  -20.8361  -15.7487 C   0  0  2  0  0  0  0  0  0  0  0  0
   26.2195  -19.6529  -16.4002 N   0  0  0  0  0  0  0  0  0  0  0  0
   24.4500  -20.5041  -15.0395 C   0  0  0  0  0  0  0  0  0  0  0  0
   24.3245  -19.3183  -14.5927 O   0  0  0  0  0  0  0  0  0  0  0  0
   17.8506  -24.7180  -12.1845 N   0  0  0  0  0  0  0  0  0  0  0  0
   17.1617  -23.4557  -12.1947 C   0  0  0  0  0  0  0  0  0  0  0  0
   16.1246  -23.2493  -11.4592 N   0  0  0  0  0  0  0  0  0  0  0  0
   17.6065  -22.3905  -13.0240 N   0  0  0  0  0  0  0  0  0  0  0  0
   18.7276  -22.5288  -13.9061 C   0  0  0  0  0  0  0  0  0  0  0  0
   20.0570  -22.2376  -13.2905 C   0  0  0  0  0  0  0  0  0  0  0  0
   21.2540  -22.2960  -14.1401 C   0  0  0  0  0  0  0  0  0  0  0  0
   22.2324  -21.1849  -14.0861 C   0  0  2  0  0  0  0  0  0  0  0  0
   23.4277  -21.4602  -14.8647 N   0  0  0  0  0  0  0  0  0  0  0  0
   22.6687  -20.7887  -12.7441 C   0  0  0  0  0  0  0  0  0  0  0  0
   23.7114  -21.2725  -12.2596 O   0  0  0  0  0  0  0  0  0  0  0  0
   21.9447  -19.8828  -11.9906 O   0  0  0  0  0  0  0  0  0  0  0  0
  2  9  1  0
  2  1  1  6
  3  2  1  0
  4  8  1  0
  4  3  1  0
  5  4  2  0
  6  5  1  0
  6  7  1  0
  7  8  2  0
  9 10  2  0
 12 13  1  0
 12 14  1  0
 12 11  1  6
 14 16  1  0
 15  9  1  0
 14 15  1  1
 16 17  2  0
 18 19  1  0
 19 20  2  0
 21 19  1  0
 22 21  1  0
 22 23  1  0
 23 24  1  0
 25 24  1  1
 25 27  1  0
 26 25  1  0
 26 16  1  0
 27 28  2  0
 27 29  1  0
M  END
$$$$
