HTR.pdb
     RDKit          3D

 29 29  0  0  1  0  0  0  0  0999 V2000
   18.3462  -12.6047  -16.2177 N   0  0  0  0  0  0  0  0  0  0  0  0
   17.3384  -11.6772  -15.7557 C   0  0  1  0  0  0  0  0  0  0  0  0
   16.6296  -12.3537  -14.5807 C   0  0  0  0  0  0  0  0  0  0  0  0
   15.7688  -13.4392  -15.1445 C   0  0  0  0  0  0  0  0  0  0  0  0
   14.7013  -13.2672  -16.0246 C   0  0  0  0  0  0  0  0  0  0  0  0
   14.1836  -14.4759  -16.2986 N   0  0  0  0  0  0  0  0  0  0  0  0
   14.8868  -15.4054  -15.6224 C   0  0  0  0  0  0  0  0  0  0  0  0
   15.8446  -14.7577  -14.9275 N   0  0  0  0  0  0  0  0  0  0  0  0
   17.9292  -10.4153  -15.2528 C   0  0  0  0  0  0  0  0  0  0  0  0
   18.6459  -10.4824  -14.2227 O   0  0  0  0  0  0  0  0  0  0  0  0
   18.0266   -6.7680  -17.5688 C   0  0  0  0  0  0  0  0  0  0  0  0
   19.0034   -7.2291  -16.5031 C   0  0  1  0  0  0  0  0  0  0  0  0
   19.5344   -6.0791  -15.9107 O   0  0  0  0  0  0  0  0  0  0  0  0
   18.2876   -7.9925  -15.4042 C   0  0  2  0  0  0  0  0  0  0  0  0
   17.6784   -9.1903  -15.9300 N   0  0  0  0  0  0  0  0  0  0  0  0
   17.2455   -7.1520  -14.7616 C   0  0  0  0  0  0  0  0  0  0  0  0
   16.0682   -7.2095  -15.2433 O   0  0  0  0  0  0  0  0  0  0  0  0
   14.2887   -6.0671   -6.9113 N   0  0  0  0  0  0  0  0  0  0  0  0
   14.1553   -6.9099   -8.0690 C   0  0  0  0  0  0  0  0  0  0  0  0
   13.7344   -8.1234   -7.9728 N   0  0  0  0  0  0  0  0  0  0  0  0
   14.4879   -6.4262   -9.3634 N   0  0  0  0  0  0  0  0  0  0  0  0
   14.9656   -5.0922   -9.5789 C   0  0  0  0  0  0  0  0  0  0  0  0
   15.3251   -4.7693  -10.9922 C   0  0  0  0  0  0  0  0  0  0  0  0
   16.1889   -5.7013  -11.7293 C   0  0  0  0  0  0  0  0  0  0  0  0
   16.5803   -5.3759  -13.1205 C   0  0  2  0  0  0  0  0  0  0  0  0
   17.5424   -6.3207  -13.6613 N   0  0  0  0  0  0  0  0  0  0  0  0
   17.1265   -4.0316  -13.3278 C   0  0  0  0  0  0  0  0  0  0  0  0
   18.3372   -3.8845  -13.5899 O   0  0  0  0  0  0  0  0  0  0  0  0
   16.3256   -2.9080  -13.2373 O   0  0  0  0  0  0  0  0  0  0  0  0
  2  9  1  0
  2  1  1  1
  3  2  1  0
  4  8  1  0
  4  3  1  0
  5  4  2  0
  6  5  1  0
  6  7  1  0
  7  8  2  0
  9 10  2  0
 12 13  1  0
 12 14  1  0
 12 11  1  6
 14 16  1  0
 15  9  1  0
 14 15  1  6
 16 17  2  0
 18 19  1  0
 19 20  2  0
 21 19  1  0
 22 21  1  0
 22 23  1  0
 23 24  1  0
 25 24  1  1
 25 27  1  0
 26 25  1  0
 26 16  1  0
 27 28  2  0
 27 29  1  0
M  END
$$$$
