HTR.pdb
     RDKit          3D

 29 29  0  0  1  0  0  0  0  0999 V2000
   26.2782  -17.9210  -18.2746 N   0  0  0  0  0  0  0  0  0  0  0  0
   25.1255  -17.0706  -18.4673 C   0  0  1  0  0  0  0  0  0  0  0  0
   25.2350  -16.5027  -19.8837 C   0  0  0  0  0  0  0  0  0  0  0  0
   26.5134  -15.7298  -19.9565 C   0  0  0  0  0  0  0  0  0  0  0  0
   26.8674  -14.6498  -19.1490 C   0  0  0  0  0  0  0  0  0  0  0  0
   28.0878  -14.2295  -19.5205 N   0  0  0  0  0  0  0  0  0  0  0  0
   28.5172  -15.0062  -20.5344 C   0  0  0  0  0  0  0  0  0  0  0  0
   27.5486  -15.9111  -20.7853 N   0  0  0  0  0  0  0  0  0  0  0  0
   23.8540  -17.8265  -18.3875 C   0  0  0  0  0  0  0  0  0  0  0  0
   23.1895  -17.9540  -19.4464 O   0  0  0  0  0  0  0  0  0  0  0  0
   21.3007  -21.4471  -16.6091 C   0  0  0  0  0  0  0  0  0  0  0  0
   22.5634  -20.6157  -16.7377 C   0  0  1  0  0  0  0  0  0  0  0  0
   23.3120  -21.1685  -17.7814 O   0  0  0  0  0  0  0  0  0  0  0  0
   22.2363  -19.1910  -17.1456 C   0  0  2  0  0  0  0  0  0  0  0  0
   23.4271  -18.3758  -17.1473 N   0  0  0  0  0  0  0  0  0  0  0  0
   21.2310  -18.5914  -16.2317 C   0  0  0  0  0  0  0  0  0  0  0  0
   21.5387  -18.5047  -14.9992 O   0  0  0  0  0  0  0  0  0  0  0  0
   14.8769  -14.2970  -14.2059 N   0  0  0  0  0  0  0  0  0  0  0  0
   15.2073  -13.6870  -15.4657 C   0  0  0  0  0  0  0  0  0  0  0  0
   15.2922  -12.4081  -15.5922 N   0  0  0  0  0  0  0  0  0  0  0  0
   15.4502  -14.4829  -16.6179 N   0  0  0  0  0  0  0  0  0  0  0  0
   15.5277  -15.9126  -16.5540 C   0  0  0  0  0  0  0  0  0  0  0  0
   16.6971  -16.4498  -15.7958 C   0  0  0  0  0  0  0  0  0  0  0  0
   17.8462  -16.9690  -16.5494 C   0  0  0  0  0  0  0  0  0  0  0  0
   18.9586  -17.6154  -15.8149 C   0  0  2  0  0  0  0  0  0  0  0  0
   19.9830  -18.1346  -16.7047 N   0  0  0  0  0  0  0  0  0  0  0  0
   18.5744  -18.7036  -14.9114 C   0  0  0  0  0  0  0  0  0  0  0  0
   18.4976  -19.8722  -15.3407 O   0  0  0  0  0  0  0  0  0  0  0  0
   18.2892  -18.4657  -13.5793 O   0  0  0  0  0  0  0  0  0  0  0  0
  2  9  1  0
  2  1  1  6
  3  2  1  0
  4  8  1  0
  4  3  1  0
  5  4  2  0
  6  5  1  0
  6  7  1  0
  7  8  2  0
  9 10  2  0
 12 13  1  0
 12 14  1  0
 12 11  1  6
 14 16  1  0
 15  9  1  0
 14 15  1  1
 16 17  2  0
 18 19  1  0
 19 20  2  0
 21 19  1  0
 22 21  1  0
 22 23  1  0
 23 24  1  0
 25 24  1  6
 25 27  1  0
 26 25  1  0
 26 16  1  0
 27 28  2  0
 27 29  1  0
M  END
$$$$
