HTR.pdb
     RDKit          3D

 29 29  0  0  1  0  0  0  0  0999 V2000
   27.9652  -18.2972  -18.7461 N   0  0  0  0  0  0  0  0  0  0  0  0
   27.2166  -17.9088  -17.5722 C   0  0  1  0  0  0  0  0  0  0  0  0
   25.8559  -17.4146  -18.0669 C   0  0  0  0  0  0  0  0  0  0  0  0
   26.0694  -16.0726  -18.6919 C   0  0  0  0  0  0  0  0  0  0  0  0
   25.6959  -15.6987  -19.9820 C   0  0  0  0  0  0  0  0  0  0  0  0
   26.0570  -14.4187  -20.1697 N   0  0  0  0  0  0  0  0  0  0  0  0
   26.6458  -13.9710  -19.0434 C   0  0  0  0  0  0  0  0  0  0  0  0
   26.6443  -14.9885  -18.1576 N   0  0  0  0  0  0  0  0  0  0  0  0
   26.9716  -19.0519  -16.6624 C   0  0  0  0  0  0  0  0  0  0  0  0
   26.2687  -19.9979  -17.0987 O   0  0  0  0  0  0  0  0  0  0  0  0
   29.3129  -19.9115  -13.0687 C   0  0  0  0  0  0  0  0  0  0  0  0
   28.6296  -20.8109  -14.0818 C   0  0  1  0  0  0  0  0  0  0  0  0
   28.3294  -22.0094  -13.4270 O   0  0  0  0  0  0  0  0  0  0  0  0
   27.3065  -20.2177  -14.5293 C   0  0  2  0  0  0  0  0  0  0  0  0
   27.5234  -19.0520  -15.3519 N   0  0  0  0  0  0  0  0  0  0  0  0
   26.4656  -19.8470  -13.3628 C   0  0  0  0  0  0  0  0  0  0  0  0
   26.6308  -18.6855  -12.8679 O   0  0  0  0  0  0  0  0  0  0  0  0
   18.0483  -20.4038  -10.3149 N   0  0  0  0  0  0  0  0  0  0  0  0
   18.6966  -19.4357  -11.1579 C   0  0  0  0  0  0  0  0  0  0  0  0
   18.0556  -18.4292  -11.6428 N   0  0  0  0  0  0  0  0  0  0  0  0
   20.0739  -19.5622  -11.4854 N   0  0  0  0  0  0  0  0  0  0  0  0
   20.8619  -20.6766  -11.0480 C   0  0  0  0  0  0  0  0  0  0  0  0
   22.3071  -20.3782  -10.8174 C   0  0  0  0  0  0  0  0  0  0  0  0
   23.2654  -20.6646  -11.8934 C   0  0  0  0  0  0  0  0  0  0  0  0
   24.7059  -20.4049  -11.6650 C   0  0  2  0  0  0  0  0  0  0  0  0
   25.5201  -20.7421  -12.8201 N   0  0  0  0  0  0  0  0  0  0  0  0
   25.2958  -21.0789  -10.5048 C   0  0  0  0  0  0  0  0  0  0  0  0
   25.9143  -22.1517  -10.6553 O   0  0  0  0  0  0  0  0  0  0  0  0
   25.1815  -20.5514   -9.2316 O   0  0  0  0  0  0  0  0  0  0  0  0
  2  9  1  0
  2  1  1  6
  3  2  1  0
  4  8  1  0
  4  3  1  0
  5  4  2  0
  6  5  1  0
  6  7  1  0
  7  8  2  0
  9 10  2  0
 12 13  1  0
 12 14  1  0
 12 11  1  1
 14 16  1  0
 15  9  1  0
 14 15  1  1
 16 17  2  0
 18 19  1  0
 19 20  2  0
 21 19  1  0
 22 21  1  0
 22 23  1  0
 23 24  1  0
 25 24  1  6
 25 27  1  0
 26 25  1  0
 26 16  1  0
 27 28  2  0
 27 29  1  0
M  END
$$$$
