HTR.pdb
     RDKit          3D

 29 29  0  0  1  0  0  0  0  0999 V2000
   26.5605  -21.4815  -10.1500 N   0  0  0  0  0  0  0  0  0  0  0  0
   25.6394  -21.0565  -11.1797 C   0  0  1  0  0  0  0  0  0  0  0  0
   24.7304  -20.0032  -10.5434 C   0  0  0  0  0  0  0  0  0  0  0  0
   23.3231  -20.4937  -10.6703 C   0  0  0  0  0  0  0  0  0  0  0  0
   22.9252  -21.7182  -11.2051 C   0  0  0  0  0  0  0  0  0  0  0  0
   21.5853  -21.7886  -11.1427 N   0  0  0  0  0  0  0  0  0  0  0  0
   21.1229  -20.6512  -10.5873 C   0  0  0  0  0  0  0  0  0  0  0  0
   22.1918  -19.8775  -10.3071 N   0  0  0  0  0  0  0  0  0  0  0  0
   26.3337  -20.4153  -12.3203 C   0  0  0  0  0  0  0  0  0  0  0  0
   27.3030  -19.6600  -12.0568 O   0  0  0  0  0  0  0  0  0  0  0  0
   27.4992  -20.4301  -17.0633 C   0  0  0  0  0  0  0  0  0  0  0  0
   26.7340  -21.0457  -15.9068 C   0  0  1  0  0  0  0  0  0  0  0  0
   27.4654  -22.1579  -15.4789 O   0  0  0  0  0  0  0  0  0  0  0  0
   26.6681  -20.0904  -14.7294 C   0  0  2  0  0  0  0  0  0  0  0  0
   25.8990  -20.6634  -13.6513 N   0  0  0  0  0  0  0  0  0  0  0  0
   26.0659  -18.7927  -15.1278 C   0  0  0  0  0  0  0  0  0  0  0  0
   24.7950  -18.7252  -15.1680 O   0  0  0  0  0  0  0  0  0  0  0  0
   29.7702  -10.6982  -17.0171 N   0  0  0  0  0  0  0  0  0  0  0  0
   28.3678  -10.5990  -17.3198 C   0  0  0  0  0  0  0  0  0  0  0  0
   27.8496   -9.5036  -17.7564 N   0  0  0  0  0  0  0  0  0  0  0  0
   27.5046  -11.7143  -17.1433 N   0  0  0  0  0  0  0  0  0  0  0  0
   27.9542  -12.9396  -16.5511 C   0  0  0  0  0  0  0  0  0  0  0  0
   26.9100  -13.9995  -16.4198 C   0  0  0  0  0  0  0  0  0  0  0  0
   27.3143  -15.3315  -15.9505 C   0  0  0  0  0  0  0  0  0  0  0  0
   26.2930  -16.3990  -15.8409 C   0  0  2  0  0  0  0  0  0  0  0  0
   26.8651  -17.6760  -15.4501 N   0  0  0  0  0  0  0  0  0  0  0  0
   25.4880  -16.6324  -17.0434 C   0  0  0  0  0  0  0  0  0  0  0  0
   25.9448  -17.3260  -17.9741 O   0  0  0  0  0  0  0  0  0  0  0  0
   24.2205  -16.0955  -17.1758 O   0  0  0  0  0  0  0  0  0  0  0  0
  2  9  1  0
  2  1  1  1
  3  2  1  0
  4  8  1  0
  4  3  1  0
  5  4  2  0
  6  5  1  0
  6  7  1  0
  7  8  2  0
  9 10  2  0
 12 13  1  0
 12 14  1  0
 12 11  1  6
 14 16  1  0
 15  9  1  0
 14 15  1  1
 16 17  2  0
 18 19  1  0
 19 20  2  0
 21 19  1  0
 22 21  1  0
 22 23  1  0
 23 24  1  0
 25 24  1  6
 25 27  1  0
 26 25  1  0
 26 16  1  0
 27 28  2  0
 27 29  1  0
M  END
$$$$
