HTR.pdb
     RDKit          3D

 29 29  0  0  1  0  0  0  0  0999 V2000
   27.0303  -21.9942  -10.3152 N   0  0  0  0  0  0  0  0  0  0  0  0
   25.9262  -21.2050  -10.8126 C   0  0  1  0  0  0  0  0  0  0  0  0
   25.6345  -20.1447   -9.7490 C   0  0  0  0  0  0  0  0  0  0  0  0
   24.4846  -20.6393   -8.9302 C   0  0  0  0  0  0  0  0  0  0  0  0
   23.7471  -21.7987   -9.1659 C   0  0  0  0  0  0  0  0  0  0  0  0
   22.8037  -21.8974   -8.2150 N   0  0  0  0  0  0  0  0  0  0  0  0
   22.9193  -20.8407   -7.3869 C   0  0  0  0  0  0  0  0  0  0  0  0
   23.9447  -20.0882   -7.8365 N   0  0  0  0  0  0  0  0  0  0  0  0
   26.2675  -20.4953  -12.0672 C   0  0  0  0  0  0  0  0  0  0  0  0
   27.4378  -20.0516  -12.1808 O   0  0  0  0  0  0  0  0  0  0  0  0
   25.6914  -21.9883  -15.4739 C   0  0  0  0  0  0  0  0  0  0  0  0
   25.1694  -20.5641  -15.5086 C   0  0  1  0  0  0  0  0  0  0  0  0
   23.7830  -20.6329  -15.3403 O   0  0  0  0  0  0  0  0  0  0  0  0
   25.7089  -19.7594  -14.3405 C   0  0  2  0  0  0  0  0  0  0  0  0
   25.2889  -20.3374  -13.0868 N   0  0  0  0  0  0  0  0  0  0  0  0
   25.2529  -18.3478  -14.4086 C   0  0  0  0  0  0  0  0  0  0  0  0
   24.1561  -18.0586  -13.8301 O   0  0  0  0  0  0  0  0  0  0  0  0
   31.0381  -15.5730  -18.5898 N   0  0  0  0  0  0  0  0  0  0  0  0
   29.8785  -15.3810  -19.4185 C   0  0  0  0  0  0  0  0  0  0  0  0
   29.9497  -15.4531  -20.7025 N   0  0  0  0  0  0  0  0  0  0  0  0
   28.6098  -15.1021  -18.8414 N   0  0  0  0  0  0  0  0  0  0  0  0
   28.3495  -15.2926  -17.4450 C   0  0  0  0  0  0  0  0  0  0  0  0
   26.9857  -14.8831  -16.9939 C   0  0  0  0  0  0  0  0  0  0  0  0
   26.6302  -15.0580  -15.5793 C   0  0  0  0  0  0  0  0  0  0  0  0
   25.5377  -15.9916  -15.2197 C   0  0  2  0  0  0  0  0  0  0  0  0
   26.0009  -17.3622  -15.0861 N   0  0  0  0  0  0  0  0  0  0  0  0
   24.3904  -16.0068  -16.1318 C   0  0  0  0  0  0  0  0  0  0  0  0
   23.5749  -15.0630  -16.1229 O   0  0  0  0  0  0  0  0  0  0  0  0
   24.1847  -17.0538  -17.0114 O   0  0  0  0  0  0  0  0  0  0  0  0
  2  9  1  0
  2  1  1  1
  3  2  1  0
  4  8  1  0
  4  3  1  0
  5  4  2  0
  6  5  1  0
  6  7  1  0
  7  8  2  0
  9 10  2  0
 12 13  1  0
 12 14  1  0
 12 11  1  1
 14 16  1  0
 15  9  1  0
 14 15  1  1
 16 17  2  0
 18 19  1  0
 19 20  2  0
 21 19  1  0
 22 21  1  0
 22 23  1  0
 23 24  1  0
 25 24  1  6
 25 27  1  0
 26 25  1  0
 26 16  1  0
 27 28  2  0
 27 29  1  0
M  END
$$$$
