HTR.pdb
     RDKit          3D

 29 29  0  0  1  0  0  0  0  0999 V2000
   18.6020  -17.4847  -16.4495 N   0  0  0  0  0  0  0  0  0  0  0  0
   19.9198  -17.0941  -16.0023 C   0  0  1  0  0  0  0  0  0  0  0  0
   19.7329  -16.3943  -14.6547 C   0  0  0  0  0  0  0  0  0  0  0  0
   19.0036  -15.1146  -14.9144 C   0  0  0  0  0  0  0  0  0  0  0  0
   19.5598  -13.9400  -15.4192 C   0  0  0  0  0  0  0  0  0  0  0  0
   18.5864  -13.0189  -15.5096 N   0  0  0  0  0  0  0  0  0  0  0  0
   17.4347  -13.5705  -15.0794 C   0  0  0  0  0  0  0  0  0  0  0  0
   17.7072  -14.8425  -14.7223 N   0  0  0  0  0  0  0  0  0  0  0  0
   20.8030  -18.2622  -15.7789 C   0  0  0  0  0  0  0  0  0  0  0  0
   20.3375  -19.2200  -15.1117 O   0  0  0  0  0  0  0  0  0  0  0  0
   22.1566  -20.2453  -18.4984 C   0  0  0  0  0  0  0  0  0  0  0  0
   23.3393  -19.9436  -17.5971 C   0  0  1  0  0  0  0  0  0  0  0  0
   24.0159  -18.8574  -18.1609 O   0  0  0  0  0  0  0  0  0  0  0  0
   22.8751  -19.4995  -16.2223 C   0  0  2  0  0  0  0  0  0  0  0  0
   22.1216  -18.2721  -16.3112 N   0  0  0  0  0  0  0  0  0  0  0  0
   24.0280  -19.3038  -15.3069 C   0  0  0  0  0  0  0  0  0  0  0  0
   24.5825  -18.1575  -15.3011 O   0  0  0  0  0  0  0  0  0  0  0  0
   25.6792  -21.6390   -6.9562 N   0  0  0  0  0  0  0  0  0  0  0  0
   26.4396  -20.4682   -7.3017 C   0  0  0  0  0  0  0  0  0  0  0  0
   27.1366  -19.8351   -6.4229 N   0  0  0  0  0  0  0  0  0  0  0  0
   26.4435  -19.9698   -8.6328 N   0  0  0  0  0  0  0  0  0  0  0  0
   25.7945  -20.6613   -9.7073 C   0  0  0  0  0  0  0  0  0  0  0  0
   26.0375  -20.0901  -11.0659 C   0  0  0  0  0  0  0  0  0  0  0  0
   25.3448  -20.6882  -12.2150 C   0  0  0  0  0  0  0  0  0  0  0  0
   25.6219  -20.1694  -13.5747 C   0  0  2  0  0  0  0  0  0  0  0  0
   24.4947  -20.3428  -14.4748 N   0  0  0  0  0  0  0  0  0  0  0  0
   26.8007  -20.7315  -14.2400 C   0  0  0  0  0  0  0  0  0  0  0  0
   26.6605  -21.5694  -15.1533 O   0  0  0  0  0  0  0  0  0  0  0  0
   28.0804  -20.3541  -13.8759 O   0  0  0  0  0  0  0  0  0  0  0  0
  2  9  1  0
  2  1  1  1
  3  2  1  0
  4  8  1  0
  4  3  1  0
  5  4  2  0
  6  5  1  0
  6  7  1  0
  7  8  2  0
  9 10  2  0
 12 13  1  0
 12 14  1  0
 12 11  1  6
 14 16  1  0
 15  9  1  0
 14 15  1  6
 16 17  2  0
 18 19  1  0
 19 20  2  0
 21 19  1  0
 22 21  1  0
 22 23  1  0
 23 24  1  0
 25 24  1  1
 25 27  1  0
 26 25  1  0
 26 16  1  0
 27 28  2  0
 27 29  1  0
M  END
$$$$
