HTR.pdb
     RDKit          3D

 29 29  0  0  1  0  0  0  0  0999 V2000
   29.0592  -23.5154  -19.0015 N   0  0  0  0  0  0  0  0  0  0  0  0
   28.2717  -24.2522  -18.0392 C   0  0  1  0  0  0  0  0  0  0  0  0
   28.7047  -23.7628  -16.6558 C   0  0  0  0  0  0  0  0  0  0  0  0
   30.0778  -24.2991  -16.4030 C   0  0  0  0  0  0  0  0  0  0  0  0
   30.8063  -25.1267  -17.2562 C   0  0  0  0  0  0  0  0  0  0  0  0
   31.9897  -25.3894  -16.6778 N   0  0  0  0  0  0  0  0  0  0  0  0
   32.0342  -24.7568  -15.4888 C   0  0  0  0  0  0  0  0  0  0  0  0
   30.8653  -24.1002  -15.3391 N   0  0  0  0  0  0  0  0  0  0  0  0
   26.8225  -23.9771  -18.1756 C   0  0  0  0  0  0  0  0  0  0  0  0
   26.4790  -22.7931  -18.4189 O   0  0  0  0  0  0  0  0  0  0  0  0
   22.5285  -25.2889  -19.7468 C   0  0  0  0  0  0  0  0  0  0  0  0
   24.0225  -25.4630  -19.5478 C   0  0  1  0  0  0  0  0  0  0  0  0
   24.6538  -24.8457  -20.6321 O   0  0  0  0  0  0  0  0  0  0  0  0
   24.4926  -24.7367  -18.3010 C   0  0  2  0  0  0  0  0  0  0  0  0
   25.8794  -25.0317  -18.0323 N   0  0  0  0  0  0  0  0  0  0  0  0
   23.6721  -25.1138  -17.1221 C   0  0  0  0  0  0  0  0  0  0  0  0
   24.2052  -25.8854  -16.2607 O   0  0  0  0  0  0  0  0  0  0  0  0
   21.5746  -28.8345  -11.0629 N   0  0  0  0  0  0  0  0  0  0  0  0
   20.3866  -28.0711  -11.3349 C   0  0  0  0  0  0  0  0  0  0  0  0
   19.2155  -28.5237  -11.0474 N   0  0  0  0  0  0  0  0  0  0  0  0
   20.4694  -26.7854  -11.9351 N   0  0  0  0  0  0  0  0  0  0  0  0
   21.5684  -26.4048  -12.7726 C   0  0  0  0  0  0  0  0  0  0  0  0
   21.5329  -24.9937  -13.2611 C   0  0  0  0  0  0  0  0  0  0  0  0
   22.2106  -24.6686  -14.5232 C   0  0  0  0  0  0  0  0  0  0  0  0
   21.5412  -24.9889  -15.8053 C   0  0  2  0  0  0  0  0  0  0  0  0
   22.3539  -24.6394  -16.9578 N   0  0  0  0  0  0  0  0  0  0  0  0
   20.2225  -24.3800  -16.0018 C   0  0  0  0  0  0  0  0  0  0  0  0
   20.0972  -23.3950  -16.7568 O   0  0  0  0  0  0  0  0  0  0  0  0
   19.0999  -24.8737  -15.3627 O   0  0  0  0  0  0  0  0  0  0  0  0
  2  9  1  0
  2  1  1  6
  3  2  1  0
  4  8  1  0
  4  3  1  0
  5  4  2  0
  6  5  1  0
  6  7  1  0
  7  8  2  0
  9 10  2  0
 12 13  1  0
 12 14  1  0
 12 11  1  6
 14 16  1  0
 15  9  1  0
 14 15  1  1
 16 17  2  0
 18 19  1  0
 19 20  2  0
 21 19  1  0
 22 21  1  0
 22 23  1  0
 23 24  1  0
 25 24  1  1
 25 27  1  0
 26 25  1  0
 26 16  1  0
 27 28  2  0
 27 29  1  0
M  END
$$$$
