PRR.pdb
     RDKit          3D

 30 30  0  0  1  0  0  0  0  0999 V2000
   27.7734  -19.0520  -16.5740 N   0  0  0  0  0  0  0  0  0  0  0  0
   29.0400  -18.6294  -17.1660 C   0  0  0  0  0  0  0  0  0  0  0  0
   28.6231  -18.5239  -18.6388 C   0  0  0  0  0  0  0  0  0  0  0  0
   27.3150  -17.7648  -18.5082 C   0  0  0  0  0  0  0  0  0  0  0  0
   26.8537  -18.0508  -17.0896 C   0  0  1  0  0  0  0  0  0  0  0  0
   25.4695  -18.6444  -17.1043 C   0  0  0  0  0  0  0  0  0  0  0  0
   24.4773  -18.0063  -17.5105 O   0  0  0  0  0  0  0  0  0  0  0  0
   26.1586  -21.7983  -12.0519 N   0  0  0  0  0  0  0  0  0  0  0  0
   24.7446  -21.9492  -12.1613 C   0  0  0  0  0  0  0  0  0  0  0  0
   24.0383  -21.3478  -11.2452 N   0  0  0  0  0  0  0  0  0  0  0  0
   24.1385  -22.7043  -13.1984 N   0  0  0  0  0  0  0  0  0  0  0  0
   24.9675  -23.2979  -14.2232 C   0  0  0  0  0  0  0  0  0  0  0  0
   25.3154  -22.2646  -15.3008 C   0  0  0  0  0  0  0  0  0  0  0  0
   24.1839  -22.0884  -16.2671 C   0  0  0  0  0  0  0  0  0  0  0  0
   24.0070  -20.6679  -16.6299 C   0  0  2  0  0  0  0  0  0  0  0  0
   25.2895  -19.9522  -16.6485 N   0  0  0  0  0  0  0  0  0  0  0  0
   23.0733  -19.9862  -15.7008 C   0  0  0  0  0  0  0  0  0  0  0  0
   23.4419  -19.3567  -14.6834 O   0  0  0  0  0  0  0  0  0  0  0  0
   22.9957  -21.3930  -11.2149 N   0  0  0  0  0  0  0  0  0  0  0  0
   15.1263  -16.7559  -17.2451 C   0  0  0  0  0  0  0  0  0  0  0  0
   15.4373  -16.2197  -15.9752 N   0  0  0  0  0  0  0  0  0  0  0  0
   14.6279  -15.3528  -15.4674 N   0  0  0  0  0  0  0  0  0  0  0  0
   16.6160  -16.6483  -15.3147 C   0  0  0  0  0  0  0  0  0  0  0  0
   17.5153  -17.5283  -16.0358 C   0  0  0  0  0  0  0  0  0  0  0  0
   18.6573  -18.0057  -15.1333 C   0  0  0  0  0  0  0  0  0  0  0  0
   19.5965  -18.8502  -15.9149 C   0  0  2  0  0  0  0  0  0  0  0  0
   20.7546  -19.3114  -15.0842 N   0  0  0  0  0  0  0  0  0  0  0  0
   21.6651  -20.0418  -15.9689 C   0  0  0  0  0  0  0  0  0  0  0  0
   20.3005  -20.1952  -13.9910 O   0  0  0  0  0  0  0  0  0  0  0  0
   20.1980  -21.4233  -14.1533 O   0  0  0  0  0  0  0  0  0  0  0  0
  1  2  1  0
  3  2  1  0
  4  5  1  0
  4  3  1  0
  5  1  1  0
  5  6  1  6
  6 16  1  0
  7  6  2  0
  8  9  1  0
  9 10  2  0
 11  9  1  0
 12 11  1  0
 13 12  1  0
 14 13  1  0
 15 14  1  1
 15 16  1  0
 17 15  1  0
 17 27  1  0
 18 17  2  0
 20 22  1  0
 20 19  1  0
 21 20  2  0
 22 23  1  0
 23 24  1  0
 25 24  1  0
 26 25  1  6
 26 27  1  0
 26 28  1  0
 28 29  2  0
 28 30  1  0
M  END
$$$$
