PRR.pdb
     RDKit          3D

 30 30  0  0  1  0  0  0  0  0999 V2000
   27.3063  -21.5206  -17.5226 N   0  0  0  0  0  0  0  0  0  0  0  0
   28.5442  -21.5672  -18.2962 C   0  0  0  0  0  0  0  0  0  0  0  0
   29.4801  -22.2065  -17.2621 C   0  0  0  0  0  0  0  0  0  0  0  0
   28.6100  -23.3441  -16.7590 C   0  0  0  0  0  0  0  0  0  0  0  0
   27.1908  -22.8942  -17.0601 C   0  0  1  0  0  0  0  0  0  0  0  0
   26.3667  -22.9003  -15.7995 C   0  0  0  0  0  0  0  0  0  0  0  0
   26.1635  -23.9420  -15.1435 O   0  0  0  0  0  0  0  0  0  0  0  0
   25.1124  -20.4737   -8.4229 N   0  0  0  0  0  0  0  0  0  0  0  0
   26.3916  -20.3702   -9.0449 C   0  0  0  0  0  0  0  0  0  0  0  0
   27.3931  -20.8531   -8.3640 N   0  0  0  0  0  0  0  0  0  0  0  0
   26.5701  -19.7806  -10.3230 N   0  0  0  0  0  0  0  0  0  0  0  0
   25.4172  -19.3037  -11.0531 C   0  0  0  0  0  0  0  0  0  0  0  0
   24.8467  -20.4130  -11.9442 C   0  0  0  0  0  0  0  0  0  0  0  0
   25.6443  -20.5589  -13.2042 C   0  0  0  0  0  0  0  0  0  0  0  0
   25.0301  -21.5463  -14.1145 C   0  0  2  0  0  0  0  0  0  0  0  0
   25.8110  -21.7008  -15.3490 N   0  0  0  0  0  0  0  0  0  0  0  0
   23.6358  -21.1722  -14.4546 C   0  0  0  0  0  0  0  0  0  0  0  0
   23.3348  -20.3704  -15.3677 O   0  0  0  0  0  0  0  0  0  0  0  0
   28.3811  -20.8001   -8.6972 N   0  0  0  0  0  0  0  0  0  0  0  0
   17.9958  -24.3520  -10.4051 C   0  0  0  0  0  0  0  0  0  0  0  0
   18.5782  -24.9814  -11.5283 N   0  0  0  0  0  0  0  0  0  0  0  0
   19.0501  -26.1730  -11.3797 N   0  0  0  0  0  0  0  0  0  0  0  0
   18.6236  -24.2863  -12.7628 C   0  0  0  0  0  0  0  0  0  0  0  0
   17.9619  -22.9981  -12.8401 C   0  0  0  0  0  0  0  0  0  0  0  0
   18.8446  -21.9694  -13.5538 C   0  0  0  0  0  0  0  0  0  0  0  0
   20.2686  -22.1947  -13.1969 C   0  0  2  0  0  0  0  0  0  0  0  0
   21.1892  -21.3348  -14.0075 N   0  0  0  0  0  0  0  0  0  0  0  0
   22.5597  -21.7531  -13.7044 C   0  0  0  0  0  0  0  0  0  0  0  0
   21.0133  -19.9079  -13.6680 O   0  0  0  0  0  0  0  0  0  0  0  0
   21.5569  -19.4100  -12.6672 O   0  0  0  0  0  0  0  0  0  0  0  0
  1  2  1  0
  3  2  1  0
  4  5  1  0
  4  3  1  0
  5  1  1  0
  5  6  1  1
  6 16  1  0
  7  6  2  0
  8  9  1  0
  9 10  2  0
 11  9  1  0
 12 11  1  0
 13 12  1  0
 14 13  1  0
 15 14  1  1
 15 16  1  0
 17 15  1  0
 17 27  1  0
 18 17  2  0
 20 22  1  0
 20 19  1  0
 21 20  2  0
 22 23  1  0
 23 24  1  0
 25 24  1  0
 26 25  1  6
 26 27  1  0
 26 28  1  0
 28 29  2  0
 28 30  1  0
M  END
$$$$
