PRR.pdb
     RDKit          3D

 30 30  0  0  1  0  0  0  0  0999 V2000
   28.4791  -19.2762  -16.8029 N   0  0  0  0  0  0  0  0  0  0  0  0
   29.3611  -18.8877  -17.9003 C   0  0  0  0  0  0  0  0  0  0  0  0
   28.4309  -19.1451  -19.0930 C   0  0  0  0  0  0  0  0  0  0  0  0
   27.1528  -18.4906  -18.6007 C   0  0  0  0  0  0  0  0  0  0  0  0
   27.2860  -18.4956  -17.0876 C   0  0  1  0  0  0  0  0  0  0  0  0
   26.1054  -19.1939  -16.4656 C   0  0  0  0  0  0  0  0  0  0  0  0
   24.9460  -18.7402  -16.5479 O   0  0  0  0  0  0  0  0  0  0  0  0
   22.3923  -25.7217  -16.2811 N   0  0  0  0  0  0  0  0  0  0  0  0
   23.6797  -25.6880  -16.8939 C   0  0  0  0  0  0  0  0  0  0  0  0
   23.7171  -26.0271  -18.1522 N   0  0  0  0  0  0  0  0  0  0  0  0
   24.8495  -25.3105  -16.1852 N   0  0  0  0  0  0  0  0  0  0  0  0
   24.7519  -24.9658  -14.7846 C   0  0  0  0  0  0  0  0  0  0  0  0
   24.4789  -23.4668  -14.6161 C   0  0  0  0  0  0  0  0  0  0  0  0
   25.5506  -22.6452  -15.2655 C   0  0  0  0  0  0  0  0  0  0  0  0
   25.2556  -21.2020  -15.1601 C   0  0  2  0  0  0  0  0  0  0  0  0
   26.3140  -20.3889  -15.7735 N   0  0  0  0  0  0  0  0  0  0  0  0
   25.0721  -20.7908  -13.7470 C   0  0  0  0  0  0  0  0  0  0  0  0
   25.9371  -20.9567  -12.8573 O   0  0  0  0  0  0  0  0  0  0  0  0
   24.6104  -26.1514  -18.6779 N   0  0  0  0  0  0  0  0  0  0  0  0
   17.7463  -22.1829   -9.9014 C   0  0  0  0  0  0  0  0  0  0  0  0
   18.7848  -22.8404   -9.2042 N   0  0  0  0  0  0  0  0  0  0  0  0
   18.4633  -23.7812   -8.3820 N   0  0  0  0  0  0  0  0  0  0  0  0
   20.1268  -22.4442   -9.4304 C   0  0  0  0  0  0  0  0  0  0  0  0
   20.3832  -21.4975  -10.4987 C   0  0  0  0  0  0  0  0  0  0  0  0
   21.8795  -21.1893  -10.6119 C   0  0  0  0  0  0  0  0  0  0  0  0
   22.1116  -20.2211  -11.7142 C   0  0  1  0  0  0  0  0  0  0  0  0
   23.5713  -19.9677  -11.9352 N   0  0  0  0  0  0  0  0  0  0  0  0
   23.8394  -20.1663  -13.3614 C   0  0  0  0  0  0  0  0  0  0  0  0
   24.3950  -20.8973  -11.1355 O   0  0  0  0  0  0  0  0  0  0  0  0
   24.6271  -22.0543  -11.5260 O   0  0  0  0  0  0  0  0  0  0  0  0
  1  2  1  0
  3  2  1  0
  4  5  1  0
  4  3  1  0
  5  1  1  0
  5  6  1  1
  6 16  1  0
  7  6  2  0
  8  9  1  0
  9 10  2  0
 11  9  1  0
 12 11  1  0
 13 12  1  0
 14 13  1  0
 15 14  1  1
 15 16  1  0
 17 15  1  0
 17 27  1  0
 18 17  2  0
 20 22  1  0
 20 19  1  0
 21 20  2  0
 22 23  1  0
 23 24  1  0
 25 24  1  0
 26 25  1  6
 26 27  1  0
 26 28  1  0
 28 29  2  0
 28 30  1  0
M  END
$$$$
