PRR.pdb
     RDKit          3D

 30 30  0  0  1  0  0  0  0  0999 V2000
   21.9976  -14.7245  -17.3964 N   0  0  0  0  0  0  0  0  0  0  0  0
   22.0869  -16.0524  -17.9979 C   0  0  0  0  0  0  0  0  0  0  0  0
   20.9932  -15.9341  -19.0673 C   0  0  0  0  0  0  0  0  0  0  0  0
   21.3258  -14.5779  -19.6625 C   0  0  0  0  0  0  0  0  0  0  0  0
   22.0900  -13.8612  -18.5626 C   0  0  1  0  0  0  0  0  0  0  0  0
   21.4212  -12.5521  -18.2351 C   0  0  0  0  0  0  0  0  0  0  0  0
   21.3534  -11.6165  -19.0578 O   0  0  0  0  0  0  0  0  0  0  0  0
   14.3394  -13.4572  -14.0506 N   0  0  0  0  0  0  0  0  0  0  0  0
   14.3221  -13.2043  -15.4541 C   0  0  0  0  0  0  0  0  0  0  0  0
   13.2026  -13.4757  -16.0647 N   0  0  0  0  0  0  0  0  0  0  0  0
   15.4479  -12.6903  -16.1479 N   0  0  0  0  0  0  0  0  0  0  0  0
   16.6521  -12.3740  -15.4133 C   0  0  0  0  0  0  0  0  0  0  0  0
   17.7550  -11.8978  -16.3655 C   0  0  0  0  0  0  0  0  0  0  0  0
   19.0070  -11.5569  -15.6161 C   0  0  0  0  0  0  0  0  0  0  0  0
   20.1011  -11.1951  -16.5396 C   0  0  2  0  0  0  0  0  0  0  0  0
   20.8581  -12.3784  -16.9690 N   0  0  0  0  0  0  0  0  0  0  0  0
   21.0257  -10.2135  -15.9222 C   0  0  0  0  0  0  0  0  0  0  0  0
   21.9531  -10.5280  -15.1423 O   0  0  0  0  0  0  0  0  0  0  0  0
   13.0740  -13.3477  -17.0928 N   0  0  0  0  0  0  0  0  0  0  0  0
   21.8519   -1.5576  -17.3846 C   0  0  0  0  0  0  0  0  0  0  0  0
   22.7522   -1.7632  -16.3151 N   0  0  0  0  0  0  0  0  0  0  0  0
   23.4370   -0.7535  -15.8953 N   0  0  0  0  0  0  0  0  0  0  0  0
   22.8697   -3.0582  -15.7509 C   0  0  0  0  0  0  0  0  0  0  0  0
   22.0986   -4.1308  -16.3493 C   0  0  0  0  0  0  0  0  0  0  0  0
   22.3771   -5.4643  -15.6487 C   0  0  0  0  0  0  0  0  0  0  0  0
   21.5677   -6.5405  -16.2757 C   0  0  1  0  0  0  0  0  0  0  0  0
   21.7520   -7.8539  -15.5795 N   0  0  0  0  0  0  0  0  0  0  0  0
   20.8615   -8.8209  -16.2254 C   0  0  0  0  0  0  0  0  0  0  0  0
   21.4159   -7.7423  -14.1453 O   0  0  0  0  0  0  0  0  0  0  0  0
   20.2396   -7.8136  -13.7498 O   0  0  0  0  0  0  0  0  0  0  0  0
  1  2  1  0
  3  2  1  0
  4  5  1  0
  4  3  1  0
  5  1  1  0
  5  6  1  1
  6 16  1  0
  7  6  2  0
  8  9  1  0
  9 10  2  0
 11  9  1  0
 12 11  1  0
 13 12  1  0
 14 13  1  0
 15 14  1  1
 15 16  1  0
 17 15  1  0
 17 27  1  0
 18 17  2  0
 20 22  1  0
 20 19  1  0
 21 20  2  0
 22 23  1  0
 23 24  1  0
 25 24  1  0
 26 25  1  6
 26 27  1  0
 26 28  1  0
 28 29  2  0
 28 30  1  0
M  END
$$$$
