PRR.pdb
     RDKit          3D

 30 30  0  0  1  0  0  0  0  0999 V2000
   27.6558  -21.3451  -11.1521 N   0  0  0  0  0  0  0  0  0  0  0  0
   29.0735  -21.6357  -11.3489 C   0  0  0  0  0  0  0  0  0  0  0  0
   29.2682  -21.0664  -12.7602 C   0  0  0  0  0  0  0  0  0  0  0  0
   28.5645  -19.7283  -12.6246 C   0  0  0  0  0  0  0  0  0  0  0  0
   27.5934  -19.9286  -11.4738 C   0  0  1  0  0  0  0  0  0  0  0  0
   26.1906  -19.6065  -11.9174 C   0  0  0  0  0  0  0  0  0  0  0  0
   25.3279  -19.1704  -11.1284 O   0  0  0  0  0  0  0  0  0  0  0  0
   25.9032  -16.5408  -19.5189 N   0  0  0  0  0  0  0  0  0  0  0  0
   26.5052  -17.6317  -18.8249 C   0  0  0  0  0  0  0  0  0  0  0  0
   27.3511  -18.3443  -19.5151 N   0  0  0  0  0  0  0  0  0  0  0  0
   26.2072  -17.9281  -17.4698 N   0  0  0  0  0  0  0  0  0  0  0  0
   25.3675  -17.0270  -16.7131 C   0  0  0  0  0  0  0  0  0  0  0  0
   25.2029  -17.5251  -15.2727 C   0  0  0  0  0  0  0  0  0  0  0  0
   24.7245  -18.9447  -15.2422 C   0  0  0  0  0  0  0  0  0  0  0  0
   24.5564  -19.4226  -13.8550 C   0  0  2  0  0  0  0  0  0  0  0  0
   25.8427  -19.8021  -13.2557 N   0  0  0  0  0  0  0  0  0  0  0  0
   23.6219  -20.5724  -13.7902 C   0  0  0  0  0  0  0  0  0  0  0  0
   23.8594  -21.6902  -14.3015 O   0  0  0  0  0  0  0  0  0  0  0  0
   27.8436  -19.1760  -19.1206 N   0  0  0  0  0  0  0  0  0  0  0  0
   17.9628  -24.5880  -10.4518 C   0  0  0  0  0  0  0  0  0  0  0  0
   18.6989  -24.4346   -9.2555 N   0  0  0  0  0  0  0  0  0  0  0  0
   18.8643  -25.4724   -8.5070 N   0  0  0  0  0  0  0  0  0  0  0  0
   19.2210  -23.1589   -8.9249 C   0  0  0  0  0  0  0  0  0  0  0  0
   19.1273  -22.1092   -9.9211 C   0  0  0  0  0  0  0  0  0  0  0  0
   19.9351  -22.4664  -11.1728 C   0  0  0  0  0  0  0  0  0  0  0  0
   20.7368  -21.2933  -11.6056 C   0  0  2  0  0  0  0  0  0  0  0  0
   21.5792  -21.6056  -12.8043 N   0  0  0  0  0  0  0  0  0  0  0  0
   22.3710  -20.4111  -13.1065 C   0  0  0  0  0  0  0  0  0  0  0  0
   20.7353  -21.9554  -13.9652 O   0  0  0  0  0  0  0  0  0  0  0  0
   20.3563  -23.1230  -14.1602 O   0  0  0  0  0  0  0  0  0  0  0  0
  1  2  1  0
  3  2  1  0
  4  5  1  0
  4  3  1  0
  5  1  1  0
  5  6  1  6
  6 16  1  0
  7  6  2  0
  8  9  1  0
  9 10  2  0
 11  9  1  0
 12 11  1  0
 13 12  1  0
 14 13  1  0
 15 14  1  6
 15 16  1  0
 17 15  1  0
 17 27  1  0
 18 17  2  0
 20 22  1  0
 20 19  1  0
 21 20  2  0
 22 23  1  0
 23 24  1  0
 25 24  1  0
 26 25  1  1
 26 27  1  0
 26 28  1  0
 28 29  2  0
 28 30  1  0
M  END
$$$$
