PRR.pdb
     RDKit          3D

 30 30  0  0  1  0  0  0  0  0999 V2000
   27.0576  -17.3987  -16.7829 N   0  0  0  0  0  0  0  0  0  0  0  0
   28.0546  -16.5557  -17.4376 C   0  0  0  0  0  0  0  0  0  0  0  0
   29.3376  -17.2801  -17.0098 C   0  0  0  0  0  0  0  0  0  0  0  0
   28.9548  -18.7219  -17.2906 C   0  0  0  0  0  0  0  0  0  0  0  0
   27.4365  -18.7240  -17.2454 C   0  0  1  0  0  0  0  0  0  0  0  0
   26.9493  -19.7326  -16.2386 C   0  0  0  0  0  0  0  0  0  0  0  0
   27.1265  -20.9587  -16.3871 O   0  0  0  0  0  0  0  0  0  0  0  0
   23.2909  -20.3983   -9.2100 N   0  0  0  0  0  0  0  0  0  0  0  0
   24.5104  -20.5402   -8.4842 C   0  0  0  0  0  0  0  0  0  0  0  0
   24.4085  -20.4700   -7.1863 N   0  0  0  0  0  0  0  0  0  0  0  0
   25.7585  -20.7448   -9.1273 N   0  0  0  0  0  0  0  0  0  0  0  0
   26.1583  -19.8626  -10.2004 C   0  0  0  0  0  0  0  0  0  0  0  0
   25.7608  -20.4515  -11.5588 C   0  0  0  0  0  0  0  0  0  0  0  0
   26.1899  -19.5581  -12.6825 C   0  0  0  0  0  0  0  0  0  0  0  0
   25.8304  -20.1367  -13.9928 C   0  0  2  0  0  0  0  0  0  0  0  0
   26.2766  -19.2817  -15.1007 N   0  0  0  0  0  0  0  0  0  0  0  0
   24.3685  -20.3625  -14.0998 C   0  0  0  0  0  0  0  0  0  0  0  0
   23.5314  -19.4415  -14.2353 O   0  0  0  0  0  0  0  0  0  0  0  0
   25.2389  -20.4076   -6.5567 N   0  0  0  0  0  0  0  0  0  0  0  0
   19.7928  -25.8696  -16.2832 C   0  0  0  0  0  0  0  0  0  0  0  0
   21.0582  -26.2988  -15.8237 N   0  0  0  0  0  0  0  0  0  0  0  0
   21.7835  -27.0106  -16.6187 N   0  0  0  0  0  0  0  0  0  0  0  0
   21.4782  -25.9368  -14.5192 C   0  0  0  0  0  0  0  0  0  0  0  0
   20.5412  -25.2131  -13.6818 C   0  0  0  0  0  0  0  0  0  0  0  0
   20.7264  -23.6998  -13.8314 C   0  0  0  0  0  0  0  0  0  0  0  0
   22.1709  -23.3607  -13.7621 C   0  0  2  0  0  0  0  0  0  0  0  0
   22.4196  -21.9161  -14.0705 N   0  0  0  0  0  0  0  0  0  0  0  0
   23.8690  -21.7063  -14.0471 C   0  0  0  0  0  0  0  0  0  0  0  0
   21.7702  -21.0439  -13.0705 O   0  0  0  0  0  0  0  0  0  0  0  0
   22.1815  -20.9864  -11.8990 O   0  0  0  0  0  0  0  0  0  0  0  0
  1  2  1  0
  3  2  1  0
  4  5  1  0
  4  3  1  0
  5  1  1  0
  5  6  1  1
  6 16  1  0
  7  6  2  0
  8  9  1  0
  9 10  2  0
 11  9  1  0
 12 11  1  0
 13 12  1  0
 14 13  1  0
 15 14  1  1
 15 16  1  0
 17 15  1  0
 17 27  1  0
 18 17  2  0
 20 22  1  0
 20 19  1  0
 21 20  2  0
 22 23  1  0
 23 24  1  0
 25 24  1  0
 26 25  1  6
 26 27  1  0
 26 28  1  0
 28 29  2  0
 28 30  1  0
M  END
$$$$
