PRR.pdb
     RDKit          3D

 30 30  0  0  1  0  0  0  0  0999 V2000
   27.2839  -19.7400  -16.9569 N   0  0  0  0  0  0  0  0  0  0  0  0
   28.3972  -19.1032  -17.6557 C   0  0  0  0  0  0  0  0  0  0  0  0
   29.5779  -19.7592  -16.9281 C   0  0  0  0  0  0  0  0  0  0  0  0
   29.1386  -21.2122  -16.9296 C   0  0  0  0  0  0  0  0  0  0  0  0
   27.6273  -21.1484  -17.0682 C   0  0  1  0  0  0  0  0  0  0  0  0
   26.9709  -21.8857  -15.9308 C   0  0  0  0  0  0  0  0  0  0  0  0
   27.1206  -23.1126  -15.7599 O   0  0  0  0  0  0  0  0  0  0  0  0
   22.7444  -19.7319   -9.7077 N   0  0  0  0  0  0  0  0  0  0  0  0
   23.5776  -20.5984   -8.9401 C   0  0  0  0  0  0  0  0  0  0  0  0
   23.0278  -21.1188   -7.8786 N   0  0  0  0  0  0  0  0  0  0  0  0
   24.9199  -20.8804   -9.3027 N   0  0  0  0  0  0  0  0  0  0  0  0
   25.5180  -20.1783  -10.4158 C   0  0  0  0  0  0  0  0  0  0  0  0
   24.9430  -20.6838  -11.7439 C   0  0  0  0  0  0  0  0  0  0  0  0
   26.0153  -21.2734  -12.6085 C   0  0  0  0  0  0  0  0  0  0  0  0
   25.4628  -21.7591  -13.8890 C   0  0  2  0  0  0  0  0  0  0  0  0
   26.1677  -21.1738  -15.0372 N   0  0  0  0  0  0  0  0  0  0  0  0
   24.0130  -21.4659  -13.9967 C   0  0  0  0  0  0  0  0  0  0  0  0
   23.5446  -20.3108  -14.1129 O   0  0  0  0  0  0  0  0  0  0  0  0
   23.5325  -21.7789   -7.2466 N   0  0  0  0  0  0  0  0  0  0  0  0
   18.3855  -27.6275  -14.5703 C   0  0  0  0  0  0  0  0  0  0  0  0
   18.5897  -26.7744  -15.6781 N   0  0  0  0  0  0  0  0  0  0  0  0
   18.2352  -27.1980  -16.8440 N   0  0  0  0  0  0  0  0  0  0  0  0
   19.1724  -25.4992  -15.4692 C   0  0  0  0  0  0  0  0  0  0  0  0
   18.7650  -24.7519  -14.2951 C   0  0  0  0  0  0  0  0  0  0  0  0
   19.4570  -23.3861  -14.2460 C   0  0  0  0  0  0  0  0  0  0  0  0
   20.9234  -23.5704  -14.0970 C   0  0  1  0  0  0  0  0  0  0  0  0
   21.6560  -22.2644  -14.1356 N   0  0  0  0  0  0  0  0  0  0  0  0
   23.0814  -22.5565  -13.9678 C   0  0  0  0  0  0  0  0  0  0  0  0
   21.1962  -21.3697  -13.0538 O   0  0  0  0  0  0  0  0  0  0  0  0
   21.6391  -21.4740  -11.8970 O   0  0  0  0  0  0  0  0  0  0  0  0
  1  2  1  0
  3  2  1  0
  4  5  1  0
  4  3  1  0
  5  1  1  0
  5  6  1  1
  6 16  1  0
  7  6  2  0
  8  9  1  0
  9 10  2  0
 11  9  1  0
 12 11  1  0
 13 12  1  0
 14 13  1  0
 15 14  1  1
 15 16  1  0
 17 15  1  0
 17 27  1  0
 18 17  2  0
 20 22  1  0
 20 19  1  0
 21 20  2  0
 22 23  1  0
 23 24  1  0
 25 24  1  0
 26 25  1  6
 26 27  1  0
 26 28  1  0
 28 29  2  0
 28 30  1  0
M  END
$$$$
