PRR.pdb
     RDKit          3D

 30 30  0  0  1  0  0  0  0  0999 V2000
   29.9246  -22.3730  -12.3620 N   0  0  0  0  0  0  0  0  0  0  0  0
   30.8187  -22.2680  -11.2118 C   0  0  0  0  0  0  0  0  0  0  0  0
   31.1441  -20.7696  -11.2638 C   0  0  0  0  0  0  0  0  0  0  0  0
   29.7576  -20.1864  -11.4679 C   0  0  0  0  0  0  0  0  0  0  0  0
   28.9595  -21.3208  -12.0874 C   0  0  1  0  0  0  0  0  0  0  0  0
   28.3589  -20.8779  -13.3957 C   0  0  0  0  0  0  0  0  0  0  0  0
   27.5029  -19.9726  -13.4611 O   0  0  0  0  0  0  0  0  0  0  0  0
   32.2944  -24.6988  -15.6217 N   0  0  0  0  0  0  0  0  0  0  0  0
   31.6569  -25.4794  -16.6309 C   0  0  0  0  0  0  0  0  0  0  0  0
   31.7887  -26.7714  -16.5152 N   0  0  0  0  0  0  0  0  0  0  0  0
   30.9244  -24.8939  -17.6956 N   0  0  0  0  0  0  0  0  0  0  0  0
   30.7405  -23.4604  -17.7280 C   0  0  0  0  0  0  0  0  0  0  0  0
   29.6205  -23.0388  -16.7699 C   0  0  0  0  0  0  0  0  0  0  0  0
   29.2603  -21.5968  -16.9595 C   0  0  0  0  0  0  0  0  0  0  0  0
   28.3119  -21.1419  -15.9229 C   0  0  2  0  0  0  0  0  0  0  0  0
   28.7731  -21.5005  -14.5752 N   0  0  0  0  0  0  0  0  0  0  0  0
   26.9574  -21.7024  -16.1478 C   0  0  0  0  0  0  0  0  0  0  0  0
   26.4582  -22.6142  -15.4501 O   0  0  0  0  0  0  0  0  0  0  0  0
   31.3926  -27.4442  -17.2082 N   0  0  0  0  0  0  0  0  0  0  0  0
   20.8421  -18.7703  -14.2543 C   0  0  0  0  0  0  0  0  0  0  0  0
   20.6876  -20.1482  -13.9816 N   0  0  0  0  0  0  0  0  0  0  0  0
   19.4925  -20.6340  -13.9672 N   0  0  0  0  0  0  0  0  0  0  0  0
   21.8395  -20.9364  -13.7343 C   0  0  0  0  0  0  0  0  0  0  0  0
   23.1318  -20.2797  -13.7751 C   0  0  0  0  0  0  0  0  0  0  0  0
   24.1117  -21.0506  -14.6652 C   0  0  0  0  0  0  0  0  0  0  0  0
   24.4025  -20.2645  -15.8915 C   0  0  2  0  0  0  0  0  0  0  0  0
   24.7055  -21.1490  -17.0617 N   0  0  0  0  0  0  0  0  0  0  0  0
   26.1611  -21.1812  -17.2213 C   0  0  0  0  0  0  0  0  0  0  0  0
   24.0770  -20.6283  -18.2931 O   0  0  0  0  0  0  0  0  0  0  0  0
   24.5226  -19.6215  -18.8699 O   0  0  0  0  0  0  0  0  0  0  0  0
  1  2  1  0
  3  2  1  0
  4  5  1  0
  4  3  1  0
  5  1  1  0
  5  6  1  6
  6 16  1  0
  7  6  2  0
  8  9  1  0
  9 10  2  0
 11  9  1  0
 12 11  1  0
 13 12  1  0
 14 13  1  0
 15 14  1  6
 15 16  1  0
 17 15  1  0
 17 27  1  0
 18 17  2  0
 20 22  1  0
 20 19  1  0
 21 20  2  0
 22 23  1  0
 23 24  1  0
 25 24  1  0
 26 25  1  1
 26 27  1  0
 26 28  1  0
 28 29  2  0
 28 30  1  0
M  END
$$$$
