PRR.pdb
     RDKit          3D

 30 30  0  0  1  0  0  0  0  0999 V2000
   28.1098  -17.9040  -19.4654 N   0  0  0  0  0  0  0  0  0  0  0  0
   29.2481  -17.6110  -20.3323 C   0  0  0  0  0  0  0  0  0  0  0  0
   29.8110  -16.3727  -19.6227 C   0  0  0  0  0  0  0  0  0  0  0  0
   29.7895  -16.8404  -18.1788 C   0  0  0  0  0  0  0  0  0  0  0  0
   28.7333  -17.9318  -18.1523 C   0  0  1  0  0  0  0  0  0  0  0  0
   27.6815  -17.6103  -17.1233 C   0  0  0  0  0  0  0  0  0  0  0  0
   27.2036  -16.4647  -16.9971 O   0  0  0  0  0  0  0  0  0  0  0  0
   21.6484  -17.6289  -18.5110 N   0  0  0  0  0  0  0  0  0  0  0  0
   22.0067  -18.9947  -18.3101 C   0  0  0  0  0  0  0  0  0  0  0  0
   21.9193  -19.7634  -19.3595 N   0  0  0  0  0  0  0  0  0  0  0  0
   22.4322  -19.4919  -17.0512 N   0  0  0  0  0  0  0  0  0  0  0  0
   22.3106  -18.6552  -15.8786 C   0  0  0  0  0  0  0  0  0  0  0  0
   23.6451  -18.5818  -15.1279 C   0  0  0  0  0  0  0  0  0  0  0  0
   24.8001  -18.5307  -16.0811 C   0  0  0  0  0  0  0  0  0  0  0  0
   26.0884  -18.5100  -15.3594 C   0  0  2  0  0  0  0  0  0  0  0  0
   27.2254  -18.6274  -16.2819 N   0  0  0  0  0  0  0  0  0  0  0  0
   26.1577  -19.5928  -14.3483 C   0  0  0  0  0  0  0  0  0  0  0  0
   25.9457  -20.7992  -14.6068 O   0  0  0  0  0  0  0  0  0  0  0  0
   22.1478  -20.7818  -19.3349 N   0  0  0  0  0  0  0  0  0  0  0  0
   26.1287  -20.8668   -5.5500 C   0  0  0  0  0  0  0  0  0  0  0  0
   27.4085  -20.4887   -6.0145 N   0  0  0  0  0  0  0  0  0  0  0  0
   28.3672  -20.4085   -5.1548 N   0  0  0  0  0  0  0  0  0  0  0  0
   27.5887  -20.2125   -7.3931 C   0  0  0  0  0  0  0  0  0  0  0  0
   26.4087  -19.9328   -8.1883 C   0  0  0  0  0  0  0  0  0  0  0  0
   26.4724  -20.6545   -9.5381 C   0  0  0  0  0  0  0  0  0  0  0  0
   26.3904  -19.6643  -10.6422 C   0  0  2  0  0  0  0  0  0  0  0  0
   26.4817  -20.3194  -11.9862 N   0  0  0  0  0  0  0  0  0  0  0  0
   26.4849  -19.2554  -12.9928 C   0  0  0  0  0  0  0  0  0  0  0  0
   25.3335  -21.2209  -12.2125 O   0  0  0  0  0  0  0  0  0  0  0  0
   24.1971  -20.7741  -12.4445 O   0  0  0  0  0  0  0  0  0  0  0  0
  1  2  1  0
  3  2  1  0
  4  5  1  0
  4  3  1  0
  5  1  1  0
  5  6  1  1
  6 16  1  0
  7  6  2  0
  8  9  1  0
  9 10  2  0
 11  9  1  0
 12 11  1  0
 13 12  1  0
 14 13  1  0
 15 14  1  6
 15 16  1  0
 17 15  1  0
 17 27  1  0
 18 17  2  0
 20 22  1  0
 20 19  1  0
 21 20  2  0
 22 23  1  0
 23 24  1  0
 25 24  1  0
 26 25  1  1
 26 27  1  0
 26 28  1  0
 28 29  2  0
 28 30  1  0
M  END
$$$$
