PRR.pdb
     RDKit          3D

 30 30  0  0  1  0  0  0  0  0999 V2000
   27.2322  -27.0013  -16.1740 N   0  0  0  0  0  0  0  0  0  0  0  0
   28.6159  -26.6175  -16.4411 C   0  0  0  0  0  0  0  0  0  0  0  0
   28.8290  -27.3136  -17.7916 C   0  0  0  0  0  0  0  0  0  0  0  0
   27.5569  -26.9158  -18.5182 C   0  0  0  0  0  0  0  0  0  0  0  0
   26.5693  -26.6067  -17.4063 C   0  0  1  0  0  0  0  0  0  0  0  0
   25.3297  -27.4473  -17.5656 C   0  0  0  0  0  0  0  0  0  0  0  0
   24.3889  -27.1089  -18.3121 O   0  0  0  0  0  0  0  0  0  0  0  0
   28.3001  -32.7241  -16.2829 N   0  0  0  0  0  0  0  0  0  0  0  0
   27.4179  -32.7855  -15.1639 C   0  0  0  0  0  0  0  0  0  0  0  0
   27.9749  -32.6355  -13.9947 N   0  0  0  0  0  0  0  0  0  0  0  0
   26.0221  -32.9959  -15.3069 N   0  0  0  0  0  0  0  0  0  0  0  0
   25.4527  -33.1128  -16.6305 C   0  0  0  0  0  0  0  0  0  0  0  0
   25.1985  -31.7261  -17.2325 C   0  0  0  0  0  0  0  0  0  0  0  0
   24.4032  -30.8675  -16.2968 C   0  0  0  0  0  0  0  0  0  0  0  0
   24.0831  -29.5627  -16.9101 C   0  0  2  0  0  0  0  0  0  0  0  0
   25.2288  -28.6452  -16.8548 N   0  0  0  0  0  0  0  0  0  0  0  0
   22.9118  -28.9317  -16.2549 C   0  0  0  0  0  0  0  0  0  0  0  0
   22.9530  -28.3969  -15.1238 O   0  0  0  0  0  0  0  0  0  0  0  0
   27.4331  -32.6632  -13.1028 N   0  0  0  0  0  0  0  0  0  0  0  0
   16.5074  -25.6893  -15.6403 C   0  0  0  0  0  0  0  0  0  0  0  0
   15.9338  -25.4645  -16.9120 N   0  0  0  0  0  0  0  0  0  0  0  0
   14.6854  -25.1433  -16.9668 N   0  0  0  0  0  0  0  0  0  0  0  0
   16.7426  -25.6009  -18.0680 C   0  0  0  0  0  0  0  0  0  0  0  0
   17.5231  -26.8148  -18.2098 C   0  0  0  0  0  0  0  0  0  0  0  0
   18.6837  -26.8413  -17.2103 C   0  0  0  0  0  0  0  0  0  0  0  0
   19.4503  -28.1044  -17.3631 C   0  0  2  0  0  0  0  0  0  0  0  0
   20.5189  -28.2372  -16.3218 N   0  0  0  0  0  0  0  0  0  0  0  0
   21.6529  -28.9253  -16.9430 C   0  0  0  0  0  0  0  0  0  0  0  0
   20.0330  -29.0153  -15.1638 O   0  0  0  0  0  0  0  0  0  0  0  0
   20.2126  -30.2429  -15.0890 O   0  0  0  0  0  0  0  0  0  0  0  0
  1  2  1  0
  3  2  1  0
  4  5  1  0
  4  3  1  0
  5  1  1  0
  5  6  1  6
  6 16  1  0
  7  6  2  0
  8  9  1  0
  9 10  2  0
 11  9  1  0
 12 11  1  0
 13 12  1  0
 14 13  1  0
 15 14  1  1
 15 16  1  0
 17 15  1  0
 17 27  1  0
 18 17  2  0
 20 22  1  0
 20 19  1  0
 21 20  2  0
 22 23  1  0
 23 24  1  0
 25 24  1  0
 26 25  1  6
 26 27  1  0
 26 28  1  0
 28 29  2  0
 28 30  1  0
M  END
$$$$
