WWL.pdb
     RDKit          3D

 37 40  0  0  1  0  0  0  0  0999 V2000
   10.9521  -16.5508   20.1344 N   0  0  0  0  0  0  0  0  0  0  0  0
   11.3508  -15.1858   20.4073 C   0  0  1  0  0  0  0  0  0  0  0  0
   11.0446  -14.3844   19.1332 C   0  0  0  0  0  0  0  0  0  0  0  0
   11.9130  -14.8695   18.0238 C   0  0  0  0  0  0  0  0  0  0  0  0
   11.4961  -15.4279   16.8274 C   0  0  0  0  0  0  0  0  0  0  0  0
   12.5797  -15.7452   16.0786 N   0  0  0  0  0  0  0  0  0  0  0  0
   13.7007  -15.4165   16.7372 C   0  0  0  0  0  0  0  0  0  0  0  0
   15.0351  -15.5331   16.4135 C   0  0  0  0  0  0  0  0  0  0  0  0
   15.9491  -15.0861   17.3408 C   0  0  0  0  0  0  0  0  0  0  0  0
   15.5608  -14.5382   18.5560 C   0  0  0  0  0  0  0  0  0  0  0  0
   14.2236  -14.4374   18.8457 C   0  0  0  0  0  0  0  0  0  0  0  0
   13.2882  -14.8709   17.9489 C   0  0  0  0  0  0  0  0  0  0  0  0
   10.5681  -14.6677   21.5552 C   0  0  0  0  0  0  0  0  0  0  0  0
   10.5967  -13.4147   21.7952 O   0  0  0  0  0  0  0  0  0  0  0  0
    9.8162  -15.5755   22.3454 N   0  0  0  0  0  0  0  0  0  0  0  0
    9.1650  -15.1655   23.5648 C   0  0  1  0  0  0  0  0  0  0  0  0
    7.8197  -15.8143   23.6425 C   0  0  0  0  0  0  0  0  0  0  0  0
    6.9546  -15.2823   24.6939 C   0  0  0  0  0  0  0  0  0  0  0  0
    6.3093  -16.0494   25.6338 C   0  0  0  0  0  0  0  0  0  0  0  0
    5.6154  -15.2425   26.4284 N   0  0  0  0  0  0  0  0  0  0  0  0
    5.7849  -13.9769   26.0407 C   0  0  0  0  0  0  0  0  0  0  0  0
    5.2741  -12.7756   26.5456 C   0  0  0  0  0  0  0  0  0  0  0  0
    5.6113  -11.5827   25.9498 C   0  0  0  0  0  0  0  0  0  0  0  0
    6.4490  -11.5864   24.8619 C   0  0  0  0  0  0  0  0  0  0  0  0
    6.9718  -12.7577   24.3375 C   0  0  0  0  0  0  0  0  0  0  0  0
    6.6319  -13.9701   24.9393 C   0  0  0  0  0  0  0  0  0  0  0  0
   10.0520  -15.4265   24.7170 C   0  0  0  0  0  0  0  0  0  0  0  0
   11.0169  -14.6308   24.8938 O   0  0  0  0  0  0  0  0  0  0  0  0
    9.9883  -14.1115   29.3279 C   0  0  0  0  0  0  0  0  0  0  0  0
   10.4564  -14.7359   28.0657 C   0  0  1  0  0  0  0  0  0  0  0  0
   11.8176  -14.1302   27.6799 C   0  0  0  0  0  0  0  0  0  0  0  0
   10.4409  -16.1940   27.9331 C   0  0  0  0  0  0  0  0  0  0  0  0
   10.8410  -16.8434   26.6787 C   0  0  2  0  0  0  0  0  0  0  0  0
    9.8908  -16.4791   25.6024 N   0  0  0  0  0  0  0  0  0  0  0  0
   10.9935  -18.2799   26.5920 C   0  0  0  0  0  0  0  0  0  0  0  0
   10.2520  -19.0640   25.7440 O   0  0  0  0  0  0  0  0  0  0  0  0
   11.8263  -18.8914   27.3099 O   0  0  0  0  0  0  0  0  0  0  0  0
  2  1  1  6
  3  2  1  0
  3  4  1  0
  4 12  1  0
  4  5  2  0
  5  6  1  0
  7  6  1  0
  7  8  2  0
  9  8  1  0
 10  9  2  0
 11 10  1  0
 11 12  2  0
 12  7  1  0
 13  2  1  0
 14 13  2  0
 15 13  1  0
 16 17  1  1
 16 15  1  0
 17 18  1  0
 18 19  2  0
 19 20  1  0
 21 20  1  0
 22 21  2  0
 23 22  1  0
 24 25  1  0
 24 23  2  0
 25 26  2  0
 26 18  1  0
 26 21  1  0
 27 16  1  0
 28 27  2  0
 30 29  1  1
 30 31  1  0
 33 32  1  1
 32 30  1  0
 33 34  1  0
 34 27  1  0
 35 36  1  0
 35 33  1  0
 37 35  2  0
M  END
$$$$
