WWL.pdb
     RDKit          3D

 37 40  0  0  1  0  0  0  0  0999 V2000
    5.9789  -19.2365   23.2210 N   0  0  0  0  0  0  0  0  0  0  0  0
    7.1938  -18.9605   23.9588 C   0  0  1  0  0  0  0  0  0  0  0  0
    7.9040  -20.3103   24.1403 C   0  0  0  0  0  0  0  0  0  0  0  0
    7.2014  -21.1011   25.1896 C   0  0  0  0  0  0  0  0  0  0  0  0
    6.6525  -22.3642   25.0480 C   0  0  0  0  0  0  0  0  0  0  0  0
    6.0987  -22.7473   26.2236 N   0  0  0  0  0  0  0  0  0  0  0  0
    6.2615  -21.7816   27.1399 C   0  0  0  0  0  0  0  0  0  0  0  0
    5.8866  -21.6846   28.4624 C   0  0  0  0  0  0  0  0  0  0  0  0
    6.2198  -20.5265   29.1278 C   0  0  0  0  0  0  0  0  0  0  0  0
    6.9044  -19.4895   28.5083 C   0  0  0  0  0  0  0  0  0  0  0  0
    7.2622  -19.6197   27.1903 C   0  0  0  0  0  0  0  0  0  0  0  0
    6.9480  -20.7553   26.4984 C   0  0  0  0  0  0  0  0  0  0  0  0
    8.0375  -18.0229   23.1790 C   0  0  0  0  0  0  0  0  0  0  0  0
    8.8008  -18.4998   22.2744 O   0  0  0  0  0  0  0  0  0  0  0  0
    7.9695  -16.6338   23.4610 N   0  0  0  0  0  0  0  0  0  0  0  0
    9.0959  -15.7581   23.2521 C   0  0  1  0  0  0  0  0  0  0  0  0
    8.5992  -14.3614   23.0539 C   0  0  0  0  0  0  0  0  0  0  0  0
    7.7714  -14.1802   21.8628 C   0  0  0  0  0  0  0  0  0  0  0  0
    6.4538  -14.5579   21.7654 C   0  0  0  0  0  0  0  0  0  0  0  0
    6.0167  -14.2439   20.5511 N   0  0  0  0  0  0  0  0  0  0  0  0
    7.0016  -13.6750   19.8532 C   0  0  0  0  0  0  0  0  0  0  0  0
    7.0442  -13.1754   18.5465 C   0  0  0  0  0  0  0  0  0  0  0  0
    8.2081  -12.6284   18.0589 C   0  0  0  0  0  0  0  0  0  0  0  0
    9.3185  -12.5793   18.8650 C   0  0  0  0  0  0  0  0  0  0  0  0
    9.3099  -13.0647   20.1629 C   0  0  0  0  0  0  0  0  0  0  0  0
    8.1307  -13.6206   20.6612 C   0  0  0  0  0  0  0  0  0  0  0  0
   10.0690  -15.9251   24.3511 C   0  0  0  0  0  0  0  0  0  0  0  0
   11.2166  -15.4240   24.1863 O   0  0  0  0  0  0  0  0  0  0  0  0
    8.0691  -14.5409   28.7390 C   0  0  0  0  0  0  0  0  0  0  0  0
    9.2090  -14.7948   27.8235 C   0  0  1  0  0  0  0  0  0  0  0  0
   10.1723  -13.5957   27.8755 C   0  0  0  0  0  0  0  0  0  0  0  0
    9.9149  -16.0760   27.8885 C   0  0  0  0  0  0  0  0  0  0  0  0
   10.6690  -16.5831   26.7355 C   0  0  2  0  0  0  0  0  0  0  0  0
    9.8011  -16.5913   25.5353 N   0  0  0  0  0  0  0  0  0  0  0  0
   11.3022  -17.8841   26.7655 C   0  0  0  0  0  0  0  0  0  0  0  0
   12.3196  -18.2043   27.6292 O   0  0  0  0  0  0  0  0  0  0  0  0
   10.9464  -18.8003   25.9801 O   0  0  0  0  0  0  0  0  0  0  0  0
  2  1  1  6
  3  2  1  0
  3  4  1  0
  4 12  1  0
  4  5  2  0
  5  6  1  0
  7  6  1  0
  7  8  2  0
  9  8  1  0
 10  9  2  0
 11 10  1  0
 11 12  2  0
 12  7  1  0
 13  2  1  0
 14 13  2  0
 15 13  1  0
 16 17  1  1
 16 15  1  0
 17 18  1  0
 18 19  2  0
 19 20  1  0
 21 20  1  0
 22 21  2  0
 23 22  1  0
 24 25  1  0
 24 23  2  0
 25 26  2  0
 26 18  1  0
 26 21  1  0
 27 16  1  0
 28 27  2  0
 30 29  1  1
 30 31  1  0
 33 32  1  1
 32 30  1  0
 33 34  1  0
 34 27  1  0
 35 36  1  0
 35 33  1  0
 37 35  2  0
M  END
$$$$
