WWL.pdb
     RDKit          3D

 37 40  0  0  1  0  0  0  0  0999 V2000
    7.8830  -21.5072   23.9020 N   0  0  0  0  0  0  0  0  0  0  0  0
    7.7339  -20.3758   24.7932 C   0  0  1  0  0  0  0  0  0  0  0  0
    8.5404  -20.7128   26.0562 C   0  0  0  0  0  0  0  0  0  0  0  0
    8.0333  -19.9005   27.1976 C   0  0  0  0  0  0  0  0  0  0  0  0
    6.7086  -19.6719   27.5292 C   0  0  0  0  0  0  0  0  0  0  0  0
    6.6509  -18.8832   28.6293 N   0  0  0  0  0  0  0  0  0  0  0  0
    7.8918  -18.5808   29.0385 C   0  0  0  0  0  0  0  0  0  0  0  0
    8.3637  -17.8238   30.0888 C   0  0  0  0  0  0  0  0  0  0  0  0
    9.7296  -17.7172   30.2241 C   0  0  0  0  0  0  0  0  0  0  0  0
   10.6093  -18.3394   29.3485 C   0  0  0  0  0  0  0  0  0  0  0  0
   10.1048  -19.0855   28.3136 C   0  0  0  0  0  0  0  0  0  0  0  0
    8.7544  -19.2132   28.1486 C   0  0  0  0  0  0  0  0  0  0  0  0
    8.2709  -19.1604   24.1350 C   0  0  0  0  0  0  0  0  0  0  0  0
    9.3004  -19.2763   23.3899 O   0  0  0  0  0  0  0  0  0  0  0  0
    7.6269  -17.9147   24.3523 N   0  0  0  0  0  0  0  0  0  0  0  0
    8.1343  -16.6868   23.7919 C   0  0  1  0  0  0  0  0  0  0  0  0
    7.2069  -15.5681   24.1456 C   0  0  0  0  0  0  0  0  0  0  0  0
    6.9084  -14.6608   23.0390 C   0  0  0  0  0  0  0  0  0  0  0  0
    5.7123  -14.0057   22.8702 C   0  0  0  0  0  0  0  0  0  0  0  0
    5.7902  -13.2689   21.7678 N   0  0  0  0  0  0  0  0  0  0  0  0
    6.9939  -13.4198   21.2118 C   0  0  0  0  0  0  0  0  0  0  0  0
    7.5589  -12.8650   20.0577 C   0  0  0  0  0  0  0  0  0  0  0  0
    8.8459  -13.1915   19.6990 C   0  0  0  0  0  0  0  0  0  0  0  0
    9.5630  -14.0619   20.4822 C   0  0  0  0  0  0  0  0  0  0  0  0
    9.0335  -14.6285   21.6305 C   0  0  0  0  0  0  0  0  0  0  0  0
    7.7278  -14.2997   21.9977 C   0  0  0  0  0  0  0  0  0  0  0  0
    9.5380  -16.4902   24.2083 C   0  0  0  0  0  0  0  0  0  0  0  0
   10.3127  -15.9342   23.3800 O   0  0  0  0  0  0  0  0  0  0  0  0
    9.1478  -14.4674   29.0510 C   0  0  0  0  0  0  0  0  0  0  0  0
    9.6674  -14.7534   27.6908 C   0  0  1  0  0  0  0  0  0  0  0  0
   10.0844  -13.4307   27.0236 C   0  0  0  0  0  0  0  0  0  0  0  0
   10.6684  -15.8063   27.5075 C   0  0  0  0  0  0  0  0  0  0  0  0
   11.1341  -16.1815   26.1667 C   0  0  2  0  0  0  0  0  0  0  0  0
   10.0482  -16.8756   25.4367 N   0  0  0  0  0  0  0  0  0  0  0  0
   12.3117  -17.0025   25.9832 C   0  0  0  0  0  0  0  0  0  0  0  0
   12.2555  -18.3287   25.6340 O   0  0  0  0  0  0  0  0  0  0  0  0
   13.4667  -16.5307   26.1449 O   0  0  0  0  0  0  0  0  0  0  0  0
  2  1  1  6
  3  2  1  0
  3  4  1  0
  4 12  1  0
  4  5  2  0
  5  6  1  0
  7  6  1  0
  7  8  2  0
  9  8  1  0
 10  9  2  0
 11 10  1  0
 11 12  2  0
 12  7  1  0
 13  2  1  0
 14 13  2  0
 15 13  1  0
 16 17  1  1
 16 15  1  0
 17 18  1  0
 18 19  2  0
 19 20  1  0
 21 20  1  0
 22 21  2  0
 23 22  1  0
 24 25  1  0
 24 23  2  0
 25 26  2  0
 26 18  1  0
 26 21  1  0
 27 16  1  0
 28 27  2  0
 30 29  1  1
 30 31  1  0
 33 32  1  1
 32 30  1  0
 33 34  1  0
 34 27  1  0
 35 36  1  0
 35 33  1  0
 37 35  2  0
M  END
$$$$
