WWL.pdb
     RDKit          3D

 37 40  0  0  1  0  0  0  0  0999 V2000
   10.0277  -17.3403   20.1240 N   0  0  0  0  0  0  0  0  0  0  0  0
   11.1229  -16.4813   20.5228 C   0  0  1  0  0  0  0  0  0  0  0  0
   11.2941  -15.4504   19.3970 C   0  0  0  0  0  0  0  0  0  0  0  0
   10.1706  -14.4731   19.4470 C   0  0  0  0  0  0  0  0  0  0  0  0
   10.2344  -13.1567   19.8710 C   0  0  0  0  0  0  0  0  0  0  0  0
    9.0064  -12.5930   19.7714 N   0  0  0  0  0  0  0  0  0  0  0  0
    8.1305  -13.4904   19.2959 C   0  0  0  0  0  0  0  0  0  0  0  0
    6.7830  -13.4144   19.0178 C   0  0  0  0  0  0  0  0  0  0  0  0
    6.1763  -14.5491   18.5286 C   0  0  0  0  0  0  0  0  0  0  0  0
    6.8771  -15.7291   18.3181 C   0  0  0  0  0  0  0  0  0  0  0  0
    8.2178  -15.7694   18.6058 C   0  0  0  0  0  0  0  0  0  0  0  0
    8.8531  -14.6620   19.0930 C   0  0  0  0  0  0  0  0  0  0  0  0
   10.7796  -15.8122   21.8008 C   0  0  0  0  0  0  0  0  0  0  0  0
   11.5643  -14.9091   22.2449 O   0  0  0  0  0  0  0  0  0  0  0  0
    9.5966  -16.1942   22.4851 N   0  0  0  0  0  0  0  0  0  0  0  0
    9.1816  -15.5502   23.7067 C   0  0  1  0  0  0  0  0  0  0  0  0
    7.7476  -15.8823   23.9716 C   0  0  0  0  0  0  0  0  0  0  0  0
    7.1488  -15.1298   25.0725 C   0  0  0  0  0  0  0  0  0  0  0  0
    6.6520  -15.6948   26.2224 C   0  0  0  0  0  0  0  0  0  0  0  0
    6.1885  -14.7230   27.0002 N   0  0  0  0  0  0  0  0  0  0  0  0
    6.3652  -13.5448   26.3991 C   0  0  0  0  0  0  0  0  0  0  0  0
    6.0505  -12.2416   26.8013 C   0  0  0  0  0  0  0  0  0  0  0  0
    6.3445  -11.1799   25.9779 C   0  0  0  0  0  0  0  0  0  0  0  0
    6.9460  -11.4139   24.7661 C   0  0  0  0  0  0  0  0  0  0  0  0
    7.2707  -12.6912   24.3381 C   0  0  0  0  0  0  0  0  0  0  0  0
    6.9739  -13.7712   25.1708 C   0  0  0  0  0  0  0  0  0  0  0  0
   10.1153  -15.8985   24.7973 C   0  0  0  0  0  0  0  0  0  0  0  0
   11.2707  -15.3903   24.7515 O   0  0  0  0  0  0  0  0  0  0  0  0
   10.1775  -14.3379   29.2373 C   0  0  0  0  0  0  0  0  0  0  0  0
   10.6155  -15.0576   28.0157 C   0  0  1  0  0  0  0  0  0  0  0  0
   11.8575  -14.3565   27.4373 C   0  0  0  0  0  0  0  0  0  0  0  0
   10.7671  -16.5135   28.0513 C   0  0  0  0  0  0  0  0  0  0  0  0
   10.7789  -17.3029   26.8136 C   0  0  2  0  0  0  0  0  0  0  0  0
    9.8030  -16.7395   25.8523 N   0  0  0  0  0  0  0  0  0  0  0  0
   10.5292  -18.7284   26.8295 C   0  0  0  0  0  0  0  0  0  0  0  0
   11.3963  -19.6364   27.3840 O   0  0  0  0  0  0  0  0  0  0  0  0
    9.4863  -19.2131   26.3194 O   0  0  0  0  0  0  0  0  0  0  0  0
  2  1  1  6
  3  2  1  0
  3  4  1  0
  4 12  1  0
  4  5  2  0
  5  6  1  0
  7  6  1  0
  7  8  2  0
  9  8  1  0
 10  9  2  0
 11 10  1  0
 11 12  2  0
 12  7  1  0
 13  2  1  0
 14 13  2  0
 15 13  1  0
 16 17  1  1
 16 15  1  0
 17 18  1  0
 18 19  2  0
 19 20  1  0
 21 20  1  0
 22 21  2  0
 23 22  1  0
 24 25  1  0
 24 23  2  0
 25 26  2  0
 26 18  1  0
 26 21  1  0
 27 16  1  0
 28 27  2  0
 30 29  1  1
 30 31  1  0
 33 32  1  1
 32 30  1  0
 33 34  1  0
 34 27  1  0
 35 36  1  0
 35 33  1  0
 37 35  2  0
M  END
$$$$
