WWL.pdb
     RDKit          3D

 37 40  0  0  1  0  0  0  0  0999 V2000
    9.6005  -21.4823   24.0232 N   0  0  0  0  0  0  0  0  0  0  0  0
    9.2411  -20.2833   24.7509 C   0  0  1  0  0  0  0  0  0  0  0  0
   10.4886  -19.8720   25.5471 C   0  0  0  0  0  0  0  0  0  0  0  0
   10.3391  -20.3132   26.9624 C   0  0  0  0  0  0  0  0  0  0  0  0
   11.1760  -21.1700   27.6570 C   0  0  0  0  0  0  0  0  0  0  0  0
   10.7075  -21.3305   28.9181 N   0  0  0  0  0  0  0  0  0  0  0  0
    9.5887  -20.6096   29.0836 C   0  0  0  0  0  0  0  0  0  0  0  0
    8.7470  -20.4370   30.1609 C   0  0  0  0  0  0  0  0  0  0  0  0
    7.6623  -19.6077   29.9857 C   0  0  0  0  0  0  0  0  0  0  0  0
    7.4115  -18.9641   28.7812 C   0  0  0  0  0  0  0  0  0  0  0  0
    8.2703  -19.1586   27.7292 C   0  0  0  0  0  0  0  0  0  0  0  0
    9.3573  -19.9751   27.8671 C   0  0  0  0  0  0  0  0  0  0  0  0
    8.8584  -19.2227   23.7879 C   0  0  0  0  0  0  0  0  0  0  0  0
    9.3369  -19.2725   22.6060 O   0  0  0  0  0  0  0  0  0  0  0  0
    7.9774  -18.1925   24.2080 N   0  0  0  0  0  0  0  0  0  0  0  0
    7.9676  -16.8950   23.5792 C   0  0  1  0  0  0  0  0  0  0  0  0
    6.6761  -16.2093   23.8929 C   0  0  0  0  0  0  0  0  0  0  0  0
    6.6962  -14.7627   23.6840 C   0  0  0  0  0  0  0  0  0  0  0  0
    6.7738  -14.1545   22.4542 C   0  0  0  0  0  0  0  0  0  0  0  0
    6.7683  -12.8389   22.6365 N   0  0  0  0  0  0  0  0  0  0  0  0
    6.6899  -12.5672   23.9406 C   0  0  0  0  0  0  0  0  0  0  0  0
    6.6524  -11.3523   24.6346 C   0  0  0  0  0  0  0  0  0  0  0  0
    6.5685  -11.3489   26.0074 C   0  0  0  0  0  0  0  0  0  0  0  0
    6.5224  -12.5438   26.6822 C   0  0  0  0  0  0  0  0  0  0  0  0
    6.5575  -13.7635   26.0257 C   0  0  0  0  0  0  0  0  0  0  0  0
    6.6426  -13.7711   24.6327 C   0  0  0  0  0  0  0  0  0  0  0  0
    9.1820  -16.1455   23.9614 C   0  0  0  0  0  0  0  0  0  0  0  0
    9.5508  -15.2141   23.1921 O   0  0  0  0  0  0  0  0  0  0  0  0
    9.9873  -15.0395   29.2101 C   0  0  0  0  0  0  0  0  0  0  0  0
   10.0114  -14.9609   27.7284 C   0  0  1  0  0  0  0  0  0  0  0  0
    9.7072  -13.5152   27.2967 C   0  0  0  0  0  0  0  0  0  0  0  0
   11.1418  -15.5324   26.9939 C   0  0  0  0  0  0  0  0  0  0  0  0
   11.1197  -15.6305   25.5293 C   0  0  2  0  0  0  0  0  0  0  0  0
    9.9307  -16.4013   25.0979 N   0  0  0  0  0  0  0  0  0  0  0  0
   12.2340  -16.1940   24.7975 C   0  0  0  0  0  0  0  0  0  0  0  0
   13.4709  -15.6021   24.7402 O   0  0  0  0  0  0  0  0  0  0  0  0
   12.1167  -17.2726   24.1605 O   0  0  0  0  0  0  0  0  0  0  0  0
  2  1  1  6
  3  2  1  0
  3  4  1  0
  4 12  1  0
  4  5  2  0
  5  6  1  0
  7  6  1  0
  7  8  2  0
  9  8  1  0
 10  9  2  0
 11 10  1  0
 11 12  2  0
 12  7  1  0
 13  2  1  0
 14 13  2  0
 15 13  1  0
 16 17  1  1
 16 15  1  0
 17 18  1  0
 18 19  2  0
 19 20  1  0
 21 20  1  0
 22 21  2  0
 23 22  1  0
 24 25  1  0
 24 23  2  0
 25 26  2  0
 26 18  1  0
 26 21  1  0
 27 16  1  0
 28 27  2  0
 30 29  1  1
 30 31  1  0
 33 32  1  1
 32 30  1  0
 33 34  1  0
 34 27  1  0
 35 36  1  0
 35 33  1  0
 37 35  2  0
M  END
$$$$
