WWL.pdb
     RDKit          3D

 37 40  0  0  1  0  0  0  0  0999 V2000
    9.3436  -18.8124   20.5856 N   0  0  0  0  0  0  0  0  0  0  0  0
    9.3662  -17.3671   20.5010 C   0  0  1  0  0  0  0  0  0  0  0  0
    8.3582  -16.9834   19.4074 C   0  0  0  0  0  0  0  0  0  0  0  0
    8.6112  -15.5810   18.9723 C   0  0  0  0  0  0  0  0  0  0  0  0
    9.1641  -15.1723   17.7706 C   0  0  0  0  0  0  0  0  0  0  0  0
    9.2348  -13.8195   17.7461 N   0  0  0  0  0  0  0  0  0  0  0  0
    8.7478  -13.3172   18.8903 C   0  0  0  0  0  0  0  0  0  0  0  0
    8.6012  -12.0258   19.3485 C   0  0  0  0  0  0  0  0  0  0  0  0
    8.0515  -11.8606   20.5997 C   0  0  0  0  0  0  0  0  0  0  0  0
    7.6560  -12.9381   21.3810 C   0  0  0  0  0  0  0  0  0  0  0  0
    7.8166  -14.2103   20.8935 C   0  0  0  0  0  0  0  0  0  0  0  0
    8.3588  -14.4121   19.6556 C   0  0  0  0  0  0  0  0  0  0  0  0
    8.9666  -16.7941   21.8090 C   0  0  0  0  0  0  0  0  0  0  0  0
    7.9016  -16.0936   21.8667 O   0  0  0  0  0  0  0  0  0  0  0  0
    9.7756  -17.0418   22.9484 N   0  0  0  0  0  0  0  0  0  0  0  0
    9.4092  -16.5684   24.2602 C   0  0  1  0  0  0  0  0  0  0  0  0
    8.1034  -17.1818   24.6542 C   0  0  0  0  0  0  0  0  0  0  0  0
    7.0773  -16.2158   25.0427 C   0  0  0  0  0  0  0  0  0  0  0  0
    5.7392  -16.5059   25.1595 C   0  0  0  0  0  0  0  0  0  0  0  0
    5.1018  -15.4008   25.5293 N   0  0  0  0  0  0  0  0  0  0  0  0
    5.9759  -14.4007   25.6579 C   0  0  0  0  0  0  0  0  0  0  0  0
    5.8049  -13.0599   26.0213 C   0  0  0  0  0  0  0  0  0  0  0  0
    6.8930  -12.2208   26.0789 C   0  0  0  0  0  0  0  0  0  0  0  0
    8.1392  -12.7122   25.7776 C   0  0  0  0  0  0  0  0  0  0  0  0
    8.3429  -14.0339   25.4145 C   0  0  0  0  0  0  0  0  0  0  0  0
    7.2411  -14.8885   25.3548 C   0  0  0  0  0  0  0  0  0  0  0  0
   10.5204  -16.8040   25.2048 C   0  0  0  0  0  0  0  0  0  0  0  0
   11.6054  -17.2352   24.7228 O   0  0  0  0  0  0  0  0  0  0  0  0
   10.0460  -14.3723   30.1502 C   0  0  0  0  0  0  0  0  0  0  0  0
   10.4821  -14.9301   28.8460 C   0  0  1  0  0  0  0  0  0  0  0  0
   11.1675  -13.8207   28.0286 C   0  0  0  0  0  0  0  0  0  0  0  0
   11.2330  -16.1867   28.8137 C   0  0  0  0  0  0  0  0  0  0  0  0
   11.5259  -16.8599   27.5423 C   0  0  2  0  0  0  0  0  0  0  0  0
   10.4432  -16.5841   26.5699 N   0  0  0  0  0  0  0  0  0  0  0  0
   11.7466  -18.2889   27.4826 C   0  0  0  0  0  0  0  0  0  0  0  0
   12.8837  -18.8936   27.9569 O   0  0  0  0  0  0  0  0  0  0  0  0
   10.8909  -19.0599   26.9765 O   0  0  0  0  0  0  0  0  0  0  0  0
  2  1  1  1
  3  2  1  0
  3  4  1  0
  4 12  1  0
  4  5  2  0
  5  6  1  0
  7  6  1  0
  7  8  2  0
  9  8  1  0
 10  9  2  0
 11 10  1  0
 11 12  2  0
 12  7  1  0
 13  2  1  0
 14 13  2  0
 15 13  1  0
 16 17  1  1
 16 15  1  0
 17 18  1  0
 18 19  2  0
 19 20  1  0
 21 20  1  0
 22 21  2  0
 23 22  1  0
 24 25  1  0
 24 23  2  0
 25 26  2  0
 26 18  1  0
 26 21  1  0
 27 16  1  0
 28 27  2  0
 30 29  1  1
 30 31  1  0
 33 32  1  1
 32 30  1  0
 33 34  1  0
 34 27  1  0
 35 36  1  0
 35 33  1  0
 37 35  2  0
M  END
$$$$
