WWL.pdb
     RDKit          3D

 37 40  0  0  1  0  0  0  0  0999 V2000
    8.7124  -21.5468   26.4981 N   0  0  0  0  0  0  0  0  0  0  0  0
    8.7005  -20.1001   26.5565 C   0  0  1  0  0  0  0  0  0  0  0  0
   10.0701  -19.6799   27.1106 C   0  0  0  0  0  0  0  0  0  0  0  0
    9.8773  -18.9016   28.3665 C   0  0  0  0  0  0  0  0  0  0  0  0
    9.4976  -19.3999   29.6012 C   0  0  0  0  0  0  0  0  0  0  0  0
    9.4278  -18.3828   30.4935 N   0  0  0  0  0  0  0  0  0  0  0  0
    9.7481  -17.2272   29.8929 C   0  0  0  0  0  0  0  0  0  0  0  0
    9.8258  -15.9316   30.3556 C   0  0  0  0  0  0  0  0  0  0  0  0
   10.1940  -14.9612   29.4512 C   0  0  0  0  0  0  0  0  0  0  0  0
   10.4785  -15.2576   28.1249 C   0  0  0  0  0  0  0  0  0  0  0  0
   10.3910  -16.5584   27.6981 C   0  0  0  0  0  0  0  0  0  0  0  0
   10.0285  -17.5477   28.5683 C   0  0  0  0  0  0  0  0  0  0  0  0
    8.4962  -19.5570   25.1919 C   0  0  0  0  0  0  0  0  0  0  0  0
    9.0348  -20.1652   24.2079 O   0  0  0  0  0  0  0  0  0  0  0  0
    7.7125  -18.3858   25.0242 N   0  0  0  0  0  0  0  0  0  0  0  0
    7.7302  -17.6265   23.7985 C   0  0  1  0  0  0  0  0  0  0  0  0
    6.4999  -16.7790   23.7307 C   0  0  0  0  0  0  0  0  0  0  0  0
    6.4264  -15.9176   22.5519 C   0  0  0  0  0  0  0  0  0  0  0  0
    6.0233  -16.3352   21.3063 C   0  0  0  0  0  0  0  0  0  0  0  0
    6.0766  -15.2974   20.4791 N   0  0  0  0  0  0  0  0  0  0  0  0
    6.4998  -14.2182   21.1402 C   0  0  0  0  0  0  0  0  0  0  0  0
    6.7199  -12.9009   20.7217 C   0  0  0  0  0  0  0  0  0  0  0  0
    7.1666  -11.9611   21.6211 C   0  0  0  0  0  0  0  0  0  0  0  0
    7.3919  -12.3299   22.9244 C   0  0  0  0  0  0  0  0  0  0  0  0
    7.1840  -13.6250   23.3710 C   0  0  0  0  0  0  0  0  0  0  0  0
    6.7307  -14.5815   22.4613 C   0  0  0  0  0  0  0  0  0  0  0  0
    9.0048  -16.8879   23.6868 C   0  0  0  0  0  0  0  0  0  0  0  0
    9.5785  -16.8946   22.5616 O   0  0  0  0  0  0  0  0  0  0  0  0
    9.2623  -13.0843   27.4327 C   0  0  0  0  0  0  0  0  0  0  0  0
    9.2471  -13.9462   26.2249 C   0  0  1  0  0  0  0  0  0  0  0  0
    7.9850  -13.6347   25.4009 C   0  0  0  0  0  0  0  0  0  0  0  0
   10.4459  -14.0383   25.3891 C   0  0  0  0  0  0  0  0  0  0  0  0
   10.7204  -15.2393   24.5908 C   0  0  2  0  0  0  0  0  0  0  0  0
    9.6004  -16.1986   24.7299 N   0  0  0  0  0  0  0  0  0  0  0  0
   11.9244  -16.0164   24.7929 C   0  0  0  0  0  0  0  0  0  0  0  0
   13.1820  -15.5360   24.5257 O   0  0  0  0  0  0  0  0  0  0  0  0
   11.8734  -17.1964   25.2264 O   0  0  0  0  0  0  0  0  0  0  0  0
  2  1  1  6
  3  2  1  0
  3  4  1  0
  4 12  1  0
  4  5  2  0
  5  6  1  0
  7  6  1  0
  7  8  2  0
  9  8  1  0
 10  9  2  0
 11 10  1  0
 11 12  2  0
 12  7  1  0
 13  2  1  0
 14 13  2  0
 15 13  1  0
 16 17  1  1
 16 15  1  0
 17 18  1  0
 18 19  2  0
 19 20  1  0
 21 20  1  0
 22 21  2  0
 23 22  1  0
 24 25  1  0
 24 23  2  0
 25 26  2  0
 26 18  1  0
 26 21  1  0
 27 16  1  0
 28 27  2  0
 30 29  1  1
 30 31  1  0
 33 32  1  1
 32 30  1  0
 33 34  1  0
 34 27  1  0
 35 36  1  0
 35 33  1  0
 37 35  2  0
M  END
$$$$
