WWL.pdb
     RDKit          3D

 37 40  0  0  1  0  0  0  0  0999 V2000
   10.7166  -18.0272   19.6272 N   0  0  0  0  0  0  0  0  0  0  0  0
   10.5458  -18.3675   21.0242 C   0  0  1  0  0  0  0  0  0  0  0  0
   11.9120  -18.8684   21.5160 C   0  0  0  0  0  0  0  0  0  0  0  0
   12.0941  -20.2892   21.1059 C   0  0  0  0  0  0  0  0  0  0  0  0
   12.8580  -20.7565   20.0500 C   0  0  0  0  0  0  0  0  0  0  0  0
   12.7710  -22.1074   19.9963 N   0  0  0  0  0  0  0  0  0  0  0  0
   11.9756  -22.5521   20.9803 C   0  0  0  0  0  0  0  0  0  0  0  0
   11.5739  -23.8179   21.3481 C   0  0  0  0  0  0  0  0  0  0  0  0
   10.7335  -23.9210   22.4336 C   0  0  0  0  0  0  0  0  0  0  0  0
   10.2989  -22.8072   23.1397 C   0  0  0  0  0  0  0  0  0  0  0  0
   10.7185  -21.5619   22.7458 C   0  0  0  0  0  0  0  0  0  0  0  0
   11.5529  -21.4217   21.6728 C   0  0  0  0  0  0  0  0  0  0  0  0
   10.1275  -17.1588   21.7745 C   0  0  0  0  0  0  0  0  0  0  0  0
   10.7237  -16.0566   21.5339 O   0  0  0  0  0  0  0  0  0  0  0  0
    9.0837  -17.2651   22.7300 N   0  0  0  0  0  0  0  0  0  0  0  0
    8.6721  -16.1429   23.5365 C   0  0  1  0  0  0  0  0  0  0  0  0
    7.3457  -16.4470   24.1569 C   0  0  0  0  0  0  0  0  0  0  0  0
    6.7222  -15.3103   24.8323 C   0  0  0  0  0  0  0  0  0  0  0  0
    5.5417  -15.3728   25.5328 C   0  0  0  0  0  0  0  0  0  0  0  0
    5.2747  -14.1633   26.0123 N   0  0  0  0  0  0  0  0  0  0  0  0
    6.2384  -13.3145   25.6499 C   0  0  0  0  0  0  0  0  0  0  0  0
    6.4149  -11.9490   25.9014 C   0  0  0  0  0  0  0  0  0  0  0  0
    7.5183  -11.2968   25.4026 C   0  0  0  0  0  0  0  0  0  0  0  0
    8.4368  -11.9977   24.6607 C   0  0  0  0  0  0  0  0  0  0  0  0
    8.2920  -13.3496   24.3936 C   0  0  0  0  0  0  0  0  0  0  0  0
    7.1736  -14.0150   24.8980 C   0  0  0  0  0  0  0  0  0  0  0  0
    9.7437  -15.7946   24.4920 C   0  0  0  0  0  0  0  0  0  0  0  0
   10.2227  -14.6280   24.4212 O   0  0  0  0  0  0  0  0  0  0  0  0
    9.1246  -15.3562   29.6042 C   0  0  0  0  0  0  0  0  0  0  0  0
    9.7768  -15.2561   28.2750 C   0  0  1  0  0  0  0  0  0  0  0  0
   10.4640  -13.8842   28.1542 C   0  0  0  0  0  0  0  0  0  0  0  0
   10.6331  -16.3479   27.8074 C   0  0  0  0  0  0  0  0  0  0  0  0
   11.2523  -16.3065   26.4770 C   0  0  2  0  0  0  0  0  0  0  0  0
   10.2483  -16.6609   25.4473 N   0  0  0  0  0  0  0  0  0  0  0  0
   12.4221  -17.1006   26.1680 C   0  0  0  0  0  0  0  0  0  0  0  0
   13.6685  -16.8304   26.6752 O   0  0  0  0  0  0  0  0  0  0  0  0
   12.3512  -18.0933   25.3984 O   0  0  0  0  0  0  0  0  0  0  0  0
  2  1  1  6
  3  2  1  0
  3  4  1  0
  4 12  1  0
  4  5  2  0
  5  6  1  0
  7  6  1  0
  7  8  2  0
  9  8  1  0
 10  9  2  0
 11 10  1  0
 11 12  2  0
 12  7  1  0
 13  2  1  0
 14 13  2  0
 15 13  1  0
 16 17  1  1
 16 15  1  0
 17 18  1  0
 18 19  2  0
 19 20  1  0
 21 20  1  0
 22 21  2  0
 23 22  1  0
 24 25  1  0
 24 23  2  0
 25 26  2  0
 26 18  1  0
 26 21  1  0
 27 16  1  0
 28 27  2  0
 30 29  1  1
 30 31  1  0
 33 32  1  1
 32 30  1  0
 33 34  1  0
 34 27  1  0
 35 36  1  0
 35 33  1  0
 37 35  2  0
M  END
$$$$
