WWL.pdb
     RDKit          3D

 37 40  0  0  1  0  0  0  0  0999 V2000
    8.6525  -16.6645   21.2852 N   0  0  0  0  0  0  0  0  0  0  0  0
    8.0361  -15.4568   21.7931 C   0  0  1  0  0  0  0  0  0  0  0  0
    6.7220  -15.2842   21.0166 C   0  0  0  0  0  0  0  0  0  0  0  0
    7.0176  -14.7483   19.6582 C   0  0  0  0  0  0  0  0  0  0  0  0
    6.4478  -15.1552   18.4638 C   0  0  0  0  0  0  0  0  0  0  0  0
    6.9754  -14.4334   17.4459 N   0  0  0  0  0  0  0  0  0  0  0  0
    7.8756  -13.5619   17.9242 C   0  0  0  0  0  0  0  0  0  0  0  0
    8.6733  -12.6210   17.3100 C   0  0  0  0  0  0  0  0  0  0  0  0
    9.5036  -11.8763   18.1169 C   0  0  0  0  0  0  0  0  0  0  0  0
    9.5483  -12.0524   19.4934 C   0  0  0  0  0  0  0  0  0  0  0  0
    8.7404  -12.9984   20.0718 C   0  0  0  0  0  0  0  0  0  0  0  0
    7.9036  -13.7559   19.3017 C   0  0  0  0  0  0  0  0  0  0  0  0
    7.7729  -15.6146   23.2438 C   0  0  0  0  0  0  0  0  0  0  0  0
    6.8770  -14.8830   23.7829 O   0  0  0  0  0  0  0  0  0  0  0  0
    8.5202  -16.5686   23.9823 N   0  0  0  0  0  0  0  0  0  0  0  0
    9.7343  -16.2145   24.6748 C   0  0  1  0  0  0  0  0  0  0  0  0
    9.4295  -15.1549   25.6853 C   0  0  0  0  0  0  0  0  0  0  0  0
    8.0140  -14.8023   25.7796 C   0  0  0  0  0  0  0  0  0  0  0  0
    6.9812  -15.7073   25.7304 C   0  0  0  0  0  0  0  0  0  0  0  0
    5.8367  -15.0433   25.8464 N   0  0  0  0  0  0  0  0  0  0  0  0
    6.0859  -13.7382   25.9697 C   0  0  0  0  0  0  0  0  0  0  0  0
    5.2306  -12.6403   26.1184 C   0  0  0  0  0  0  0  0  0  0  0  0
    5.7539  -11.3729   26.2263 C   0  0  0  0  0  0  0  0  0  0  0  0
    7.1155  -11.2009   26.1865 C   0  0  0  0  0  0  0  0  0  0  0  0
    7.9897  -12.2661   26.0405 C   0  0  0  0  0  0  0  0  0  0  0  0
    7.4625  -13.5536   25.9306 C   0  0  0  0  0  0  0  0  0  0  0  0
   10.3725  -17.4310   25.2183 C   0  0  0  0  0  0  0  0  0  0  0  0
   11.0537  -18.1316   24.4179 O   0  0  0  0  0  0  0  0  0  0  0  0
   10.8651  -15.1288   29.8314 C   0  0  0  0  0  0  0  0  0  0  0  0
   10.7689  -15.3539   28.3678 C   0  0  1  0  0  0  0  0  0  0  0  0
   10.7288  -13.9923   27.6514 C   0  0  0  0  0  0  0  0  0  0  0  0
   11.6861  -16.2940   27.7205 C   0  0  0  0  0  0  0  0  0  0  0  0
   11.3295  -17.7090   27.5603 C   0  0  2  0  0  0  0  0  0  0  0  0
   10.2681  -17.8440   26.5360 N   0  0  0  0  0  0  0  0  0  0  0  0
   10.8863  -18.5039   28.6855 C   0  0  0  0  0  0  0  0  0  0  0  0
    9.6294  -19.0485   28.7715 O   0  0  0  0  0  0  0  0  0  0  0  0
   11.6465  -18.7326   29.6616 O   0  0  0  0  0  0  0  0  0  0  0  0
  2  1  1  6
  3  2  1  0
  3  4  1  0
  4 12  1  0
  4  5  2  0
  5  6  1  0
  7  6  1  0
  7  8  2  0
  9  8  1  0
 10  9  2  0
 11 10  1  0
 11 12  2  0
 12  7  1  0
 13  2  1  0
 14 13  2  0
 15 13  1  0
 16 17  1  1
 16 15  1  0
 17 18  1  0
 18 19  2  0
 19 20  1  0
 21 20  1  0
 22 21  2  0
 23 22  1  0
 24 25  1  0
 24 23  2  0
 25 26  2  0
 26 18  1  0
 26 21  1  0
 27 16  1  0
 28 27  2  0
 30 29  1  1
 30 31  1  0
 33 32  1  1
 32 30  1  0
 33 34  1  0
 34 27  1  0
 35 36  1  0
 35 33  1  0
 37 35  2  0
M  END
$$$$
