WWL.pdb
     RDKit          3D

 37 40  0  0  1  0  0  0  0  0999 V2000
    8.6798  -16.3286   22.2744 N   0  0  0  0  0  0  0  0  0  0  0  0
    9.9091  -15.5638   22.2505 C   0  0  1  0  0  0  0  0  0  0  0  0
    9.5109  -14.1182   21.9173 C   0  0  0  0  0  0  0  0  0  0  0  0
    8.4103  -14.1279   20.9130 C   0  0  0  0  0  0  0  0  0  0  0  0
    7.0650  -14.3444   21.1587 C   0  0  0  0  0  0  0  0  0  0  0  0
    6.3793  -14.2779   19.9921 N   0  0  0  0  0  0  0  0  0  0  0  0
    7.2236  -14.0247   18.9813 C   0  0  0  0  0  0  0  0  0  0  0  0
    7.0279  -13.8659   17.6265 C   0  0  0  0  0  0  0  0  0  0  0  0
    8.1393  -13.6092   16.8558 C   0  0  0  0  0  0  0  0  0  0  0  0
    9.4113  -13.5111   17.4035 C   0  0  0  0  0  0  0  0  0  0  0  0
    9.5698  -13.6747   18.7563 C   0  0  0  0  0  0  0  0  0  0  0  0
    8.4890  -13.9308   19.5522 C   0  0  0  0  0  0  0  0  0  0  0  0
   10.5569  -15.6372   23.5823 C   0  0  0  0  0  0  0  0  0  0  0  0
   11.7316  -15.1567   23.7149 O   0  0  0  0  0  0  0  0  0  0  0  0
    9.8545  -16.2350   24.6608 N   0  0  0  0  0  0  0  0  0  0  0  0
   10.4198  -16.3193   25.9846 C   0  0  1  0  0  0  0  0  0  0  0  0
    9.8442  -15.2299   26.8323 C   0  0  0  0  0  0  0  0  0  0  0  0
    8.4794  -14.8468   26.4755 C   0  0  0  0  0  0  0  0  0  0  0  0
    7.5462  -15.7005   25.9383 C   0  0  0  0  0  0  0  0  0  0  0  0
    6.4217  -15.0216   25.7413 N   0  0  0  0  0  0  0  0  0  0  0  0
    6.5880  -13.7561   26.1306 C   0  0  0  0  0  0  0  0  0  0  0  0
    5.7149  -12.6621   26.1274 C   0  0  0  0  0  0  0  0  0  0  0  0
    6.1437  -11.4410   26.5929 C   0  0  0  0  0  0  0  0  0  0  0  0
    7.4294  -11.3109   27.0570 C   0  0  0  0  0  0  0  0  0  0  0  0
    8.3186  -12.3735   27.0739 C   0  0  0  0  0  0  0  0  0  0  0  0
    7.8871  -13.6142   26.6023 C   0  0  0  0  0  0  0  0  0  0  0  0
   10.2421  -17.6857   26.5176 C   0  0  0  0  0  0  0  0  0  0  0  0
    9.8519  -17.7916   27.7142 O   0  0  0  0  0  0  0  0  0  0  0  0
   12.8803  -21.2786   23.2796 C   0  0  0  0  0  0  0  0  0  0  0  0
   11.7930  -20.6671   24.0832 C   0  0  1  0  0  0  0  0  0  0  0  0
   10.4386  -21.0008   23.4329 C   0  0  0  0  0  0  0  0  0  0  0  0
   11.7732  -20.8590   25.5347 C   0  0  0  0  0  0  0  0  0  0  0  0
   10.7880  -20.1676   26.3754 C   0  0  2  0  0  0  0  0  0  0  0  0
   10.4764  -18.8420   25.7925 N   0  0  0  0  0  0  0  0  0  0  0  0
   11.0378  -19.9249   27.7801 C   0  0  0  0  0  0  0  0  0  0  0  0
   10.4182  -20.6251   28.7848 O   0  0  0  0  0  0  0  0  0  0  0  0
   11.8472  -19.0374   28.1542 O   0  0  0  0  0  0  0  0  0  0  0  0
  2  1  1  1
  3  2  1  0
  3  4  1  0
  4 12  1  0
  4  5  2  0
  5  6  1  0
  7  6  1  0
  7  8  2  0
  9  8  1  0
 10  9  2  0
 11 10  1  0
 11 12  2  0
 12  7  1  0
 13  2  1  0
 14 13  2  0
 15 13  1  0
 16 17  1  1
 16 15  1  0
 17 18  1  0
 18 19  2  0
 19 20  1  0
 21 20  1  0
 22 21  2  0
 23 22  1  0
 24 25  1  0
 24 23  2  0
 25 26  2  0
 26 18  1  0
 26 21  1  0
 27 16  1  0
 28 27  2  0
 30 29  1  6
 30 31  1  0
 33 32  1  6
 32 30  1  0
 33 34  1  0
 34 27  1  0
 35 36  1  0
 35 33  1  0
 37 35  2  0
M  END
$$$$
