PMG.pdb
     RDKit          3D

 20 20  0  0  1  0  0  0  0  0999 V2000
    7.4504  -14.9402   20.4818 N   0  0  0  0  0  0  0  0  0  0  0  0
    7.0550  -14.4698   19.1694 C   0  0  0  0  0  0  0  0  0  0  0  0
    7.5648  -13.0524   19.0158 C   0  0  0  0  0  0  0  0  0  0  0  0
    7.8809  -12.6993   20.4697 C   0  0  0  0  0  0  0  0  0  0  0  0
    8.4725  -14.0319   20.9026 C   0  0  1  0  0  0  0  0  0  0  0  0
    8.7754  -14.0775   22.3308 C   0  0  0  0  0  0  0  0  0  0  0  0
    9.7065  -13.3670   22.7883 O   0  0  0  0  0  0  0  0  0  0  0  0
    6.2630  -10.8293   26.7423 C   0  0  0  0  0  0  0  0  0  0  0  0
    7.0456  -12.4825   26.7141 S   0  0  0  0  0  0  0  0  0  0  0  0
    6.3403  -13.4055   25.3344 C   0  0  0  0  0  0  0  0  0  0  0  0
    6.8399  -14.8196   25.2802 C   0  0  0  0  0  0  0  0  0  0  0  0
    8.2033  -14.9282   24.6349 C   0  0  2  0  0  0  0  0  0  0  0  0
    8.0465  -14.8992   23.2003 N   0  0  0  0  0  0  0  0  0  0  0  0
    8.7946  -16.2529   25.0137 C   0  0  0  0  0  0  0  0  0  0  0  0
    8.2815  -16.9528   25.9156 O   0  0  0  0  0  0  0  0  0  0  0  0
    9.9501  -16.7707   24.3759 N   0  0  0  0  0  0  0  0  0  0  0  0
   10.5519  -18.0351   24.7540 C   0  0  0  0  0  0  0  0  0  0  0  0
   11.7494  -18.3365   23.9379 C   0  0  0  0  0  0  0  0  0  0  0  0
   12.3883  -19.3747   24.1689 O   0  0  0  0  0  0  0  0  0  0  0  0
   12.2119  -17.5163   22.9112 O   0  0  0  0  0  0  0  0  0  0  0  0
  1  2  1  0
  3  2  1  0
  4  5  1  0
  4  3  1  0
  5  6  1  1
  5  1  1  0
  6  7  2  0
  9  8  1  0
  9 10  1  0
 10 11  1  0
 12 11  1  1
 12 14  1  0
 13 12  1  0
 13  6  1  0
 14 15  2  0
 14 16  1  0
 16 17  1  0
 18 20  1  0
 18 17  1  0
 19 18  2  0
M  END
$$$$
