PMG.pdb
     RDKit          3D

 20 20  0  0  1  0  0  0  0  0999 V2000
    7.2992  -14.8708   20.4538 N   0  0  0  0  0  0  0  0  0  0  0  0
    6.9567  -14.3247   19.1560 C   0  0  0  0  0  0  0  0  0  0  0  0
    7.6574  -12.9894   19.0191 C   0  0  0  0  0  0  0  0  0  0  0  0
    8.0382  -12.7119   20.4740 C   0  0  0  0  0  0  0  0  0  0  0  0
    8.4434  -14.1222   20.8746 C   0  0  1  0  0  0  0  0  0  0  0  0
    8.7551  -14.2370   22.2970 C   0  0  0  0  0  0  0  0  0  0  0  0
    9.8174  -13.7309   22.7399 O   0  0  0  0  0  0  0  0  0  0  0  0
    6.2725  -10.8979   26.7304 C   0  0  0  0  0  0  0  0  0  0  0  0
    7.1452  -12.4927   26.5280 S   0  0  0  0  0  0  0  0  0  0  0  0
    6.2004  -13.4972   25.3655 C   0  0  0  0  0  0  0  0  0  0  0  0
    6.7169  -14.9034   25.2768 C   0  0  0  0  0  0  0  0  0  0  0  0
    8.0703  -14.9826   24.6068 C   0  0  2  0  0  0  0  0  0  0  0  0
    7.8910  -14.9016   23.1768 N   0  0  0  0  0  0  0  0  0  0  0  0
    8.6723  -16.3178   24.9273 C   0  0  0  0  0  0  0  0  0  0  0  0
    8.1321  -17.0856   25.7550 O   0  0  0  0  0  0  0  0  0  0  0  0
    9.8687  -16.7698   24.3154 N   0  0  0  0  0  0  0  0  0  0  0  0
   10.4096  -18.0967   24.5409 C   0  0  0  0  0  0  0  0  0  0  0  0
   11.8495  -18.0496   24.8807 C   0  0  0  0  0  0  0  0  0  0  0  0
   12.1997  -18.2864   26.0471 O   0  0  0  0  0  0  0  0  0  0  0  0
   12.8519  -17.7520   23.9601 O   0  0  0  0  0  0  0  0  0  0  0  0
  1  2  1  0
  3  2  1  0
  4  5  1  0
  4  3  1  0
  5  6  1  1
  5  1  1  0
  6  7  2  0
  9  8  1  0
  9 10  1  0
 10 11  1  0
 12 11  1  1
 12 14  1  0
 13 12  1  0
 13  6  1  0
 14 15  2  0
 14 16  1  0
 16 17  1  0
 18 20  1  0
 18 17  1  0
 19 18  2  0
M  END
$$$$
