PMG.pdb
     RDKit          3D

 20 20  0  0  1  0  0  0  0  0999 V2000
    7.4313  -15.1074   19.9109 N   0  0  0  0  0  0  0  0  0  0  0  0
    7.0396  -14.8057   18.5488 C   0  0  0  0  0  0  0  0  0  0  0  0
    7.7307  -13.5205   18.1451 C   0  0  0  0  0  0  0  0  0  0  0  0
    8.1640  -12.9838   19.5101 C   0  0  0  0  0  0  0  0  0  0  0  0
    8.5879  -14.2989   20.1459 C   0  0  1  0  0  0  0  0  0  0  0  0
    8.9521  -14.1537   21.5530 C   0  0  0  0  0  0  0  0  0  0  0  0
   10.0811  -13.6896   21.8546 O   0  0  0  0  0  0  0  0  0  0  0  0
    7.2104  -11.8371   28.4420 C   0  0  0  0  0  0  0  0  0  0  0  0
    6.8280  -11.9711   26.6582 S   0  0  0  0  0  0  0  0  0  0  0  0
    7.2350  -13.6466   26.1290 C   0  0  0  0  0  0  0  0  0  0  0  0
    7.0651  -13.8341   24.6498 C   0  0  0  0  0  0  0  0  0  0  0  0
    8.3172  -14.3606   23.9848 C   0  0  2  0  0  0  0  0  0  0  0  0
    8.0654  -14.5226   22.5728 N   0  0  0  0  0  0  0  0  0  0  0  0
    8.6204  -15.7102   24.5633 C   0  0  0  0  0  0  0  0  0  0  0  0
    7.7814  -16.6374   24.5087 O   0  0  0  0  0  0  0  0  0  0  0  0
    9.8578  -15.9979   25.1927 N   0  0  0  0  0  0  0  0  0  0  0  0
   10.2753  -17.3489   25.5161 C   0  0  0  0  0  0  0  0  0  0  0  0
   10.1418  -17.6308   26.9631 C   0  0  0  0  0  0  0  0  0  0  0  0
    9.5487  -16.8123   27.6825 O   0  0  0  0  0  0  0  0  0  0  0  0
   10.6471  -18.7742   27.5780 O   0  0  0  0  0  0  0  0  0  0  0  0
  1  2  1  0
  3  2  1  0
  4  5  1  0
  4  3  1  0
  5  6  1  1
  5  1  1  0
  6  7  2  0
  9  8  1  0
  9 10  1  0
 10 11  1  0
 12 11  1  1
 12 14  1  0
 13 12  1  0
 13  6  1  0
 14 15  2  0
 14 16  1  0
 16 17  1  0
 18 20  1  0
 18 17  1  0
 19 18  2  0
M  END
$$$$
