PMG.pdb
     RDKit          3D

 20 20  0  0  1  0  0  0  0  0999 V2000
    7.2180  -14.9940   19.9504 N   0  0  0  0  0  0  0  0  0  0  0  0
    6.9367  -14.6330   18.5755 C   0  0  0  0  0  0  0  0  0  0  0  0
    7.6731  -13.3438   18.2783 C   0  0  0  0  0  0  0  0  0  0  0  0
    8.0061  -12.8680   19.6930 C   0  0  0  0  0  0  0  0  0  0  0  0
    8.3631  -14.2135   20.3059 C   0  0  1  0  0  0  0  0  0  0  0  0
    8.6191  -14.1294   21.7415 C   0  0  0  0  0  0  0  0  0  0  0  0
    9.6733  -13.5794   22.1503 O   0  0  0  0  0  0  0  0  0  0  0  0
    7.4777  -11.8865   28.2192 C   0  0  0  0  0  0  0  0  0  0  0  0
    7.5899  -12.2512   26.4302 S   0  0  0  0  0  0  0  0  0  0  0  0
    6.5039  -13.6482   26.0808 C   0  0  0  0  0  0  0  0  0  0  0  0
    6.4643  -13.9876   24.6195 C   0  0  0  0  0  0  0  0  0  0  0  0
    7.7991  -14.4743   24.1012 C   0  0  2  0  0  0  0  0  0  0  0  0
    7.7105  -14.6511   22.6714 N   0  0  0  0  0  0  0  0  0  0  0  0
    8.0810  -15.8103   24.7206 C   0  0  0  0  0  0  0  0  0  0  0  0
    7.1801  -16.6721   24.8305 O   0  0  0  0  0  0  0  0  0  0  0  0
    9.3669  -16.1577   25.2063 N   0  0  0  0  0  0  0  0  0  0  0  0
    9.6655  -17.4624   25.7656 C   0  0  0  0  0  0  0  0  0  0  0  0
   11.0412  -17.5227   26.3084 C   0  0  0  0  0  0  0  0  0  0  0  0
   11.8729  -16.6821   25.9327 O   0  0  0  0  0  0  0  0  0  0  0  0
   11.4683  -18.4776   27.2285 O   0  0  0  0  0  0  0  0  0  0  0  0
  1  2  1  0
  3  2  1  0
  4  5  1  0
  4  3  1  0
  5  6  1  1
  5  1  1  0
  6  7  2  0
  9  8  1  0
  9 10  1  0
 10 11  1  0
 12 11  1  1
 12 14  1  0
 13 12  1  0
 13  6  1  0
 14 15  2  0
 14 16  1  0
 16 17  1  0
 18 20  1  0
 18 17  1  0
 19 18  2  0
M  END
$$$$
