PMG.pdb
     RDKit          3D

 20 20  0  0  1  0  0  0  0  0999 V2000
    7.2880  -15.6466   20.4327 N   0  0  0  0  0  0  0  0  0  0  0  0
    6.9685  -15.4289   19.0362 C   0  0  0  0  0  0  0  0  0  0  0  0
    7.7254  -14.2006   18.5770 C   0  0  0  0  0  0  0  0  0  0  0  0
    8.1183  -13.5838   19.9200 C   0  0  0  0  0  0  0  0  0  0  0  0
    8.4632  -14.8644   20.6647 C   0  0  1  0  0  0  0  0  0  0  0  0
    8.7704  -14.6324   22.0737 C   0  0  0  0  0  0  0  0  0  0  0  0
    9.8416  -14.0526   22.3856 O   0  0  0  0  0  0  0  0  0  0  0  0
    6.4655  -11.1237   28.2502 C   0  0  0  0  0  0  0  0  0  0  0  0
    5.9448  -11.9205   26.6881 S   0  0  0  0  0  0  0  0  0  0  0  0
    7.1994  -13.1371   26.2421 C   0  0  0  0  0  0  0  0  0  0  0  0
    7.0499  -13.6177   24.8283 C   0  0  0  0  0  0  0  0  0  0  0  0
    8.0301  -14.7163   24.4830 C   0  0  2  0  0  0  0  0  0  0  0  0
    7.8922  -15.0449   23.0843 N   0  0  0  0  0  0  0  0  0  0  0  0
    7.6715  -15.9308   25.2858 C   0  0  0  0  0  0  0  0  0  0  0  0
    6.6259  -16.5755   25.0461 O   0  0  0  0  0  0  0  0  0  0  0  0
    8.4902  -16.4020   26.3431 N   0  0  0  0  0  0  0  0  0  0  0  0
    8.1802  -17.6016   27.0973 C   0  0  0  0  0  0  0  0  0  0  0  0
    9.2353  -18.6290   26.9483 C   0  0  0  0  0  0  0  0  0  0  0  0
    9.4100  -19.1543   25.8378 O   0  0  0  0  0  0  0  0  0  0  0  0
   10.0573  -19.0503   27.9912 O   0  0  0  0  0  0  0  0  0  0  0  0
  1  2  1  0
  3  2  1  0
  4  5  1  0
  4  3  1  0
  5  6  1  1
  5  1  1  0
  6  7  2  0
  9  8  1  0
  9 10  1  0
 10 11  1  0
 12 11  1  1
 12 14  1  0
 13 12  1  0
 13  6  1  0
 14 15  2  0
 14 16  1  0
 16 17  1  0
 18 20  1  0
 18 17  1  0
 19 18  2  0
M  END
$$$$
