PMG.pdb
     RDKit          3D

 20 20  0  0  1  0  0  0  0  0999 V2000
    7.3012  -15.0760   19.9577 N   0  0  0  0  0  0  0  0  0  0  0  0
    6.9001  -14.7951   18.5938 C   0  0  0  0  0  0  0  0  0  0  0  0
    7.5530  -13.4928   18.1811 C   0  0  0  0  0  0  0  0  0  0  0  0
    7.9710  -12.9345   19.5420 C   0  0  0  0  0  0  0  0  0  0  0  0
    8.4337  -14.2323   20.1863 C   0  0  1  0  0  0  0  0  0  0  0  0
    8.7943  -14.0670   21.5922 C   0  0  0  0  0  0  0  0  0  0  0  0
    9.8267  -13.4155   21.8931 O   0  0  0  0  0  0  0  0  0  0  0  0
    6.6301  -10.9617   27.5281 C   0  0  0  0  0  0  0  0  0  0  0  0
    5.8603  -12.4200   26.7364 S   0  0  0  0  0  0  0  0  0  0  0  0
    7.1829  -13.4592   26.0854 C   0  0  0  0  0  0  0  0  0  0  0  0
    7.0279  -13.7252   24.6166 C   0  0  0  0  0  0  0  0  0  0  0  0
    8.2309  -14.4244   24.0242 C   0  0  2  0  0  0  0  0  0  0  0  0
    8.0098  -14.6219   22.6115 N   0  0  0  0  0  0  0  0  0  0  0  0
    8.3529  -15.7716   24.6708 C   0  0  0  0  0  0  0  0  0  0  0  0
    7.3402  -16.4714   24.8969 O   0  0  0  0  0  0  0  0  0  0  0  0
    9.6069  -16.3114   25.0532 N   0  0  0  0  0  0  0  0  0  0  0  0
    9.7482  -17.6439   25.6086 C   0  0  0  0  0  0  0  0  0  0  0  0
   11.1514  -17.9365   25.9777 C   0  0  0  0  0  0  0  0  0  0  0  0
   12.0474  -17.7298   25.1447 O   0  0  0  0  0  0  0  0  0  0  0  0
   11.5362  -18.4366   27.2197 O   0  0  0  0  0  0  0  0  0  0  0  0
  1  2  1  0
  3  2  1  0
  4  5  1  0
  4  3  1  0
  5  6  1  1
  5  1  1  0
  6  7  2  0
  9  8  1  0
  9 10  1  0
 10 11  1  0
 12 11  1  1
 12 14  1  0
 13 12  1  0
 13  6  1  0
 14 15  2  0
 14 16  1  0
 16 17  1  0
 18 20  1  0
 18 17  1  0
 19 18  2  0
M  END
$$$$
