PMG.pdb
     RDKit          3D

 20 20  0  0  1  0  0  0  0  0999 V2000
    7.1985  -15.1575   19.9458 N   0  0  0  0  0  0  0  0  0  0  0  0
    6.7225  -14.8768   18.6062 C   0  0  0  0  0  0  0  0  0  0  0  0
    7.4137  -13.6179   18.1267 C   0  0  0  0  0  0  0  0  0  0  0  0
    7.9502  -13.0617   19.4463 C   0  0  0  0  0  0  0  0  0  0  0  0
    8.3863  -14.3722   20.0834 C   0  0  1  0  0  0  0  0  0  0  0  0
    8.8480  -14.2046   21.4591 C   0  0  0  0  0  0  0  0  0  0  0  0
    9.9314  -13.6056   21.6789 O   0  0  0  0  0  0  0  0  0  0  0  0
    6.8823  -11.3080   28.0056 C   0  0  0  0  0  0  0  0  0  0  0  0
    6.2545  -12.0874   26.4743 S   0  0  0  0  0  0  0  0  0  0  0  0
    7.4386  -13.3512   25.9707 C   0  0  0  0  0  0  0  0  0  0  0  0
    7.1611  -13.8749   24.5920 C   0  0  0  0  0  0  0  0  0  0  0  0
    8.3957  -14.4431   23.9286 C   0  0  2  0  0  0  0  0  0  0  0  0
    8.1046  -14.6998   22.5383 N   0  0  0  0  0  0  0  0  0  0  0  0
    8.7195  -15.7504   24.5873 C   0  0  0  0  0  0  0  0  0  0  0  0
    7.8111  -16.5324   24.9476 O   0  0  0  0  0  0  0  0  0  0  0  0
   10.0550  -16.1592   24.8311 N   0  0  0  0  0  0  0  0  0  0  0  0
   10.5620  -16.4201   26.1649 C   0  0  0  0  0  0  0  0  0  0  0  0
   10.3237  -17.8219   26.5760 C   0  0  0  0  0  0  0  0  0  0  0  0
   10.1104  -18.6764   25.7021 O   0  0  0  0  0  0  0  0  0  0  0  0
   10.3236  -18.2496   27.9019 O   0  0  0  0  0  0  0  0  0  0  0  0
  1  2  1  0
  3  2  1  0
  4  5  1  0
  4  3  1  0
  5  6  1  1
  5  1  1  0
  6  7  2  0
  9  8  1  0
  9 10  1  0
 10 11  1  0
 12 11  1  1
 12 14  1  0
 13 12  1  0
 13  6  1  0
 14 15  2  0
 14 16  1  0
 16 17  1  0
 18 20  1  0
 18 17  1  0
 19 18  2  0
M  END
$$$$
