PMG.pdb
     RDKit          3D

 20 20  0  0  1  0  0  0  0  0999 V2000
    7.3039  -14.9979   19.8577 N   0  0  0  0  0  0  0  0  0  0  0  0
    6.9839  -14.6555   18.4864 C   0  0  0  0  0  0  0  0  0  0  0  0
    7.6766  -13.3481   18.1649 C   0  0  0  0  0  0  0  0  0  0  0  0
    8.0249  -12.8522   19.5689 C   0  0  0  0  0  0  0  0  0  0  0  0
    8.4331  -14.1822   20.1837 C   0  0  1  0  0  0  0  0  0  0  0  0
    8.7162  -14.0798   21.6130 C   0  0  0  0  0  0  0  0  0  0  0  0
    9.8181  -13.6081   21.9927 O   0  0  0  0  0  0  0  0  0  0  0  0
    7.3224  -11.7670   28.3757 C   0  0  0  0  0  0  0  0  0  0  0  0
    6.9243  -11.8303   26.5915 S   0  0  0  0  0  0  0  0  0  0  0  0
    6.8857  -13.5635   26.0939 C   0  0  0  0  0  0  0  0  0  0  0  0
    6.7625  -13.7268   24.6072 C   0  0  0  0  0  0  0  0  0  0  0  0
    7.9656  -14.4111   23.9977 C   0  0  2  0  0  0  0  0  0  0  0  0
    7.7813  -14.4983   22.5688 N   0  0  0  0  0  0  0  0  0  0  0  0
    8.0368  -15.8050   24.5455 C   0  0  0  0  0  0  0  0  0  0  0  0
    7.0089  -16.5124   24.6415 O   0  0  0  0  0  0  0  0  0  0  0  0
    9.2580  -16.3821   24.9763 N   0  0  0  0  0  0  0  0  0  0  0  0
    9.3339  -17.7089   25.5577 C   0  0  0  0  0  0  0  0  0  0  0  0
   10.7085  -18.0344   25.9998 C   0  0  0  0  0  0  0  0  0  0  0  0
   11.2719  -19.0325   25.5248 O   0  0  0  0  0  0  0  0  0  0  0  0
   11.4209  -17.2798   26.9292 O   0  0  0  0  0  0  0  0  0  0  0  0
  1  2  1  0
  3  2  1  0
  4  5  1  0
  4  3  1  0
  5  6  1  1
  5  1  1  0
  6  7  2  0
  9  8  1  0
  9 10  1  0
 10 11  1  0
 12 11  1  1
 12 14  1  0
 13 12  1  0
 13  6  1  0
 14 15  2  0
 14 16  1  0
 16 17  1  0
 18 20  1  0
 18 17  1  0
 19 18  2  0
M  END
$$$$
