PMG.pdb
     RDKit          3D

 20 20  0  0  1  0  0  0  0  0999 V2000
    7.3098  -15.1475   19.9675 N   0  0  0  0  0  0  0  0  0  0  0  0
    6.9665  -14.8516   18.5911 C   0  0  0  0  0  0  0  0  0  0  0  0
    7.6896  -13.5802   18.1996 C   0  0  0  0  0  0  0  0  0  0  0  0
    8.0869  -13.0385   19.5734 C   0  0  0  0  0  0  0  0  0  0  0  0
    8.4704  -14.3542   20.2330 C   0  0  1  0  0  0  0  0  0  0  0  0
    8.7915  -14.2025   21.6499 C   0  0  0  0  0  0  0  0  0  0  0  0
    9.8832  -13.6755   21.9833 O   0  0  0  0  0  0  0  0  0  0  0  0
    7.0173  -11.2212   28.1102 C   0  0  0  0  0  0  0  0  0  0  0  0
    6.2927  -11.7878   26.5291 S   0  0  0  0  0  0  0  0  0  0  0  0
    7.0991  -13.3354   26.0736 C   0  0  0  0  0  0  0  0  0  0  0  0
    6.9340  -13.6567   24.6170 C   0  0  0  0  0  0  0  0  0  0  0  0
    8.0981  -14.4467   24.0622 C   0  0  2  0  0  0  0  0  0  0  0  0
    7.9041  -14.6342   22.6443 N   0  0  0  0  0  0  0  0  0  0  0  0
    8.1001  -15.7960   24.7160 C   0  0  0  0  0  0  0  0  0  0  0  0
    7.0613  -16.4928   24.7578 O   0  0  0  0  0  0  0  0  0  0  0  0
    9.2654  -16.3414   25.3115 N   0  0  0  0  0  0  0  0  0  0  0  0
    9.3268  -17.7036   25.8061 C   0  0  0  0  0  0  0  0  0  0  0  0
   10.6623  -18.0257   26.3569 C   0  0  0  0  0  0  0  0  0  0  0  0
   11.6031  -18.2263   25.5732 O   0  0  0  0  0  0  0  0  0  0  0  0
   10.9346  -18.1194   27.7200 O   0  0  0  0  0  0  0  0  0  0  0  0
  1  2  1  0
  3  2  1  0
  4  5  1  0
  4  3  1  0
  5  6  1  1
  5  1  1  0
  6  7  2  0
  9  8  1  0
  9 10  1  0
 10 11  1  0
 12 11  1  1
 12 14  1  0
 13 12  1  0
 13  6  1  0
 14 15  2  0
 14 16  1  0
 16 17  1  0
 18 20  1  0
 18 17  1  0
 19 18  2  0
M  END
$$$$
