PMG.pdb
     RDKit          3D

 20 20  0  0  1  0  0  0  0  0999 V2000
    7.3236  -15.0067   20.3131 N   0  0  0  0  0  0  0  0  0  0  0  0
    7.0158  -14.5293   18.9800 C   0  0  0  0  0  0  0  0  0  0  0  0
    7.7548  -13.2235   18.7767 C   0  0  0  0  0  0  0  0  0  0  0  0
    8.1210  -12.8707   20.2189 C   0  0  0  0  0  0  0  0  0  0  0  0
    8.4813  -14.2650   20.7083 C   0  0  1  0  0  0  0  0  0  0  0  0
    8.7683  -14.3038   22.1400 C   0  0  0  0  0  0  0  0  0  0  0  0
    9.8307  -13.7883   22.5717 O   0  0  0  0  0  0  0  0  0  0  0  0
    6.3479  -10.4173   27.0116 C   0  0  0  0  0  0  0  0  0  0  0  0
    5.8557  -12.1222   26.5676 S   0  0  0  0  0  0  0  0  0  0  0  0
    7.1653  -12.8288   25.5484 C   0  0  0  0  0  0  0  0  0  0  0  0
    6.8519  -14.2289   25.1081 C   0  0  0  0  0  0  0  0  0  0  0  0
    8.0407  -14.9172   24.4754 C   0  0  2  0  0  0  0  0  0  0  0  0
    7.8803  -14.9056   23.0410 N   0  0  0  0  0  0  0  0  0  0  0  0
    8.0511  -16.3449   24.9330 C   0  0  0  0  0  0  0  0  0  0  0  0
    7.0153  -17.0455   24.8802 O   0  0  0  0  0  0  0  0  0  0  0  0
    9.2212  -16.9631   25.4417 N   0  0  0  0  0  0  0  0  0  0  0  0
    9.2246  -18.3124   25.9741 C   0  0  0  0  0  0  0  0  0  0  0  0
   10.5886  -18.7494   26.3474 C   0  0  0  0  0  0  0  0  0  0  0  0
   10.7437  -19.8753   26.8451 O   0  0  0  0  0  0  0  0  0  0  0  0
   11.7268  -17.9653   26.1727 O   0  0  0  0  0  0  0  0  0  0  0  0
  1  2  1  0
  3  2  1  0
  4  5  1  0
  4  3  1  0
  5  6  1  1
  5  1  1  0
  6  7  2  0
  9  8  1  0
  9 10  1  0
 10 11  1  0
 12 11  1  1
 12 14  1  0
 13 12  1  0
 13  6  1  0
 14 15  2  0
 14 16  1  0
 16 17  1  0
 18 20  1  0
 18 17  1  0
 19 18  2  0
M  END
$$$$
