PKS.pdb
     RDKit          3D

 23 23  0  0  1  0  0  0  0  0999 V2000
    7.5252  -15.1828   19.5202 N   0  0  0  0  0  0  0  0  0  0  0  0
    7.2628  -14.8217   18.1185 C   0  0  0  0  0  0  0  0  0  0  0  0
    7.4707  -13.3125   18.0547 C   0  0  0  0  0  0  0  0  0  0  0  0
    8.1763  -12.9866   19.3537 C   0  0  0  0  0  0  0  0  0  0  0  0
    8.6817  -14.3413   19.7932 C   0  0  1  0  0  0  0  0  0  0  0  0
    9.0432  -14.3601   21.2291 C   0  0  0  0  0  0  0  0  0  0  0  0
   10.2505  -14.2390   21.5249 O   0  0  0  0  0  0  0  0  0  0  0  0
    8.1138  -14.5057   22.2819 N   0  0  0  0  0  0  0  0  0  0  0  0
    8.4813  -14.3237   23.6828 C   0  0  1  0  0  0  0  0  0  0  0  0
    7.3441  -13.5583   24.3257 C   0  0  0  0  0  0  0  0  0  0  0  0
    7.5611  -13.3277   25.7861 C   0  0  0  0  0  0  0  0  0  0  0  0
    6.4093  -12.5358   26.3292 C   0  0  0  0  0  0  0  0  0  0  0  0
    6.5556  -12.2457   27.8073 C   0  0  0  0  0  0  0  0  0  0  0  0
    5.3620  -11.4953   28.2017 N   0  0  0  0  0  0  0  0  0  0  0  0
    8.6396  -15.6599   24.3129 C   0  0  0  0  0  0  0  0  0  0  0  0
    7.6488  -16.4663   24.3664 O   0  0  0  0  0  0  0  0  0  0  0  0
   12.2753  -17.4813   24.6402 O   0  0  0  0  0  0  0  0  0  0  0  0
   11.0480  -18.1290   24.6405 C   0  0  0  0  0  0  0  0  0  0  0  0
   10.0124  -17.3586   25.4383 C   0  0  2  0  0  0  0  0  0  0  0  0
    9.8847  -16.0607   24.8622 N   0  0  0  0  0  0  0  0  0  0  0  0
   10.3107  -17.3625   26.8678 C   0  0  0  0  0  0  0  0  0  0  0  0
   10.4170  -18.5527   27.5532 O   0  0  0  0  0  0  0  0  0  0  0  0
   10.4713  -16.2867   27.4783 O   0  0  0  0  0  0  0  0  0  0  0  0
  1  5  1  0
  1  2  1  0
  2  3  1  0
  4  3  1  0
  5  4  1  0
  5  6  1  1
  7  6  2  0
  8  6  1  0
  9  8  1  0
 10 11  1  0
  9 10  1  1
 11 12  1  0
 12 13  1  0
 13 14  1  0
 15  9  1  0
 15 16  2  0
 18 17  1  0
 19 18  1  6
 19 20  1  0
 20 15  1  0
 21 19  1  0
 22 21  1  0
 23 21  2  0
M  END
$$$$
