PKS.pdb
     RDKit          3D

 23 23  0  0  1  0  0  0  0  0999 V2000
    8.4495  -14.8542   19.2577 N   0  0  0  0  0  0  0  0  0  0  0  0
    8.6426  -13.7977   18.2524 C   0  0  0  0  0  0  0  0  0  0  0  0
    7.8168  -12.6189   18.7558 C   0  0  0  0  0  0  0  0  0  0  0  0
    7.4984  -12.9831   20.1902 C   0  0  0  0  0  0  0  0  0  0  0  0
    8.5132  -14.0648   20.4796 C   0  0  1  0  0  0  0  0  0  0  0  0
    8.1450  -14.8683   21.6678 C   0  0  0  0  0  0  0  0  0  0  0  0
    8.1866  -14.3074   22.7828 O   0  0  0  0  0  0  0  0  0  0  0  0
    7.7511  -16.2233   21.6213 N   0  0  0  0  0  0  0  0  0  0  0  0
    7.3666  -16.9694   22.8156 C   0  0  1  0  0  0  0  0  0  0  0  0
    6.7606  -18.2689   22.3296 C   0  0  0  0  0  0  0  0  0  0  0  0
    6.3256  -19.1543   23.4520 C   0  0  0  0  0  0  0  0  0  0  0  0
    5.7274  -20.4049   22.8803 C   0  0  0  0  0  0  0  0  0  0  0  0
    5.2434  -21.3552   23.9542 C   0  0  0  0  0  0  0  0  0  0  0  0
    4.5478  -22.4417   23.2622 N   0  0  0  0  0  0  0  0  0  0  0  0
    8.5822  -17.2272   23.6300 C   0  0  0  0  0  0  0  0  0  0  0  0
    9.7162  -17.3833   23.0601 O   0  0  0  0  0  0  0  0  0  0  0  0
    9.0225  -16.0242   27.4660 O   0  0  0  0  0  0  0  0  0  0  0  0
   10.0531  -16.4045   26.6182 C   0  0  0  0  0  0  0  0  0  0  0  0
    9.6759  -17.6217   25.7945 C   0  0  2  0  0  0  0  0  0  0  0  0
    8.5057  -17.3040   25.0445 N   0  0  0  0  0  0  0  0  0  0  0  0
    9.5635  -18.8236   26.6163 C   0  0  0  0  0  0  0  0  0  0  0  0
    8.3736  -19.5145   26.6797 O   0  0  0  0  0  0  0  0  0  0  0  0
   10.5459  -19.2329   27.2671 O   0  0  0  0  0  0  0  0  0  0  0  0
  1  5  1  0
  1  2  1  0
  2  3  1  0
  4  3  1  0
  5  4  1  0
  5  6  1  1
  7  6  2  0
  8  6  1  0
  9  8  1  0
 10 11  1  0
  9 10  1  6
 11 12  1  0
 12 13  1  0
 13 14  1  0
 15  9  1  0
 15 16  2  0
 18 17  1  0
 19 18  1  1
 19 20  1  0
 20 15  1  0
 21 19  1  0
 22 21  1  0
 23 21  2  0
M  END
$$$$
