PKS.pdb
     RDKit          3D

 23 23  0  0  1  0  0  0  0  0999 V2000
    8.7412  -14.1448   17.9028 N   0  0  0  0  0  0  0  0  0  0  0  0
    8.1265  -12.9406   17.3231 C   0  0  0  0  0  0  0  0  0  0  0  0
    6.9470  -12.6221   18.2352 C   0  0  0  0  0  0  0  0  0  0  0  0
    7.1956  -13.4722   19.4628 C   0  0  0  0  0  0  0  0  0  0  0  0
    8.6588  -13.8218   19.3202 C   0  0  1  0  0  0  0  0  0  0  0  0
    9.0389  -14.9766   20.1658 C   0  0  0  0  0  0  0  0  0  0  0  0
    8.7099  -14.9469   21.3701 O   0  0  0  0  0  0  0  0  0  0  0  0
    9.7471  -16.1055   19.6994 N   0  0  0  0  0  0  0  0  0  0  0  0
   10.0508  -17.2487   20.5547 C   0  0  1  0  0  0  0  0  0  0  0  0
   10.6826  -18.2943   19.6603 C   0  0  0  0  0  0  0  0  0  0  0  0
    9.6855  -18.9734   18.7786 C   0  0  0  0  0  0  0  0  0  0  0  0
   10.3990  -19.9733   17.9186 C   0  0  0  0  0  0  0  0  0  0  0  0
    9.4441  -20.8131   17.0979 C   0  0  0  0  0  0  0  0  0  0  0  0
   10.2648  -21.7894   16.3791 N   0  0  0  0  0  0  0  0  0  0  0  0
   11.0012  -16.8158   21.6115 C   0  0  0  0  0  0  0  0  0  0  0  0
   11.9416  -15.9953   21.3329 O   0  0  0  0  0  0  0  0  0  0  0  0
   10.0160  -16.9991   25.5852 O   0  0  0  0  0  0  0  0  0  0  0  0
   10.9291  -16.1259   25.0111 C   0  0  0  0  0  0  0  0  0  0  0  0
   11.7639  -16.8140   23.9471 C   0  0  2  0  0  0  0  0  0  0  0  0
   10.8820  -17.3022   22.9388 N   0  0  0  0  0  0  0  0  0  0  0  0
   12.6525  -17.8225   24.5179 C   0  0  0  0  0  0  0  0  0  0  0  0
   13.6517  -17.4550   25.3920 O   0  0  0  0  0  0  0  0  0  0  0  0
   12.5122  -19.0250   24.2172 O   0  0  0  0  0  0  0  0  0  0  0  0
  1  5  1  0
  1  2  1  0
  2  3  1  0
  4  3  1  0
  5  4  1  0
  5  6  1  1
  7  6  2  0
  8  6  1  0
  9  8  1  0
 10 11  1  0
  9 10  1  6
 11 12  1  0
 12 13  1  0
 13 14  1  0
 15  9  1  0
 15 16  2  0
 18 17  1  0
 19 18  1  1
 19 20  1  0
 20 15  1  0
 21 19  1  0
 22 21  1  0
 23 21  2  0
M  END
$$$$
