PKS.pdb
     RDKit          3D

 23 23  0  0  1  0  0  0  0  0999 V2000
    8.6546  -14.7266   18.2908 N   0  0  0  0  0  0  0  0  0  0  0  0
    8.3805  -13.5216   17.4927 C   0  0  0  0  0  0  0  0  0  0  0  0
    7.2166  -12.8365   18.2003 C   0  0  0  0  0  0  0  0  0  0  0  0
    7.1500  -13.5277   19.5454 C   0  0  0  0  0  0  0  0  0  0  0  0
    8.5069  -14.1869   19.6351 C   0  0  1  0  0  0  0  0  0  0  0  0
    8.5381  -15.2565   20.6588 C   0  0  0  0  0  0  0  0  0  0  0  0
    8.2869  -14.9369   21.8396 O   0  0  0  0  0  0  0  0  0  0  0  0
    8.8327  -16.6102   20.3865 N   0  0  0  0  0  0  0  0  0  0  0  0
    8.7115  -17.6573   21.3963 C   0  0  1  0  0  0  0  0  0  0  0  0
    8.7674  -18.9750   20.6528 C   0  0  0  0  0  0  0  0  0  0  0  0
    7.5149  -19.2558   19.8878 C   0  0  0  0  0  0  0  0  0  0  0  0
    7.7101  -20.5018   19.0766 C   0  0  0  0  0  0  0  0  0  0  0  0
    6.5244  -20.8003   18.1847 C   0  0  0  0  0  0  0  0  0  0  0  0
    5.4327  -21.2084   19.0707 N   0  0  0  0  0  0  0  0  0  0  0  0
    9.8483  -17.5396   22.3458 C   0  0  0  0  0  0  0  0  0  0  0  0
   11.0235  -17.2829   21.9121 O   0  0  0  0  0  0  0  0  0  0  0  0
   10.1988  -15.3011   24.9324 O   0  0  0  0  0  0  0  0  0  0  0  0
   10.5023  -16.4811   25.5967 C   0  0  0  0  0  0  0  0  0  0  0  0
   10.7651  -17.6156   24.6240 C   0  0  2  0  0  0  0  0  0  0  0  0
    9.6501  -17.7089   23.7403 N   0  0  0  0  0  0  0  0  0  0  0  0
   11.1004  -18.8587   25.3129 C   0  0  0  0  0  0  0  0  0  0  0  0
   12.2261  -18.9346   26.1032 O   0  0  0  0  0  0  0  0  0  0  0  0
   10.3686  -19.8615   25.1899 O   0  0  0  0  0  0  0  0  0  0  0  0
  1  5  1  0
  1  2  1  0
  2  3  1  0
  4  3  1  0
  5  4  1  0
  5  6  1  1
  7  6  2  0
  8  6  1  0
  9  8  1  0
 10 11  1  0
  9 10  1  6
 11 12  1  0
 12 13  1  0
 13 14  1  0
 15  9  1  0
 15 16  2  0
 18 17  1  0
 19 18  1  1
 19 20  1  0
 20 15  1  0
 21 19  1  0
 22 21  1  0
 23 21  2  0
M  END
$$$$
