PKS.pdb
     RDKit          3D

 23 23  0  0  1  0  0  0  0  0999 V2000
    8.3604  -14.8155   18.8583 N   0  0  0  0  0  0  0  0  0  0  0  0
    8.3786  -13.8480   17.7504 C   0  0  0  0  0  0  0  0  0  0  0  0
    7.5618  -12.6613   18.2498 C   0  0  0  0  0  0  0  0  0  0  0  0
    7.4365  -12.9058   19.7384 C   0  0  0  0  0  0  0  0  0  0  0  0
    8.5311  -13.9166   19.9910 C   0  0  1  0  0  0  0  0  0  0  0  0
    8.3487  -14.6225   21.2799 C   0  0  0  0  0  0  0  0  0  0  0  0
    8.2948  -13.9302   22.3179 O   0  0  0  0  0  0  0  0  0  0  0  0
    8.2320  -16.0235   21.4104 N   0  0  0  0  0  0  0  0  0  0  0  0
    7.9387  -16.6703   22.6857 C   0  0  1  0  0  0  0  0  0  0  0  0
    7.3984  -18.0448   22.3521 C   0  0  0  0  0  0  0  0  0  0  0  0
    5.9191  -18.0442   22.1414 C   0  0  0  0  0  0  0  0  0  0  0  0
    5.4962  -19.4006   21.6618 C   0  0  0  0  0  0  0  0  0  0  0  0
    3.9942  -19.5183   21.5175 C   0  0  0  0  0  0  0  0  0  0  0  0
    3.7272  -20.8887   21.0769 N   0  0  0  0  0  0  0  0  0  0  0  0
    9.1967  -16.7747   23.4692 C   0  0  0  0  0  0  0  0  0  0  0  0
   10.3138  -16.9456   22.8709 O   0  0  0  0  0  0  0  0  0  0  0  0
   11.2979  -16.5157   27.8147 O   0  0  0  0  0  0  0  0  0  0  0  0
   10.1437  -16.4279   27.0492 C   0  0  0  0  0  0  0  0  0  0  0  0
   10.3954  -16.8469   25.6127 C   0  0  2  0  0  0  0  0  0  0  0  0
    9.1798  -16.6871   24.8851 N   0  0  0  0  0  0  0  0  0  0  0  0
   10.9837  -18.1807   25.5281 C   0  0  0  0  0  0  0  0  0  0  0  0
   12.3504  -18.3434   25.5854 O   0  0  0  0  0  0  0  0  0  0  0  0
   10.2515  -19.1829   25.4033 O   0  0  0  0  0  0  0  0  0  0  0  0
  1  5  1  0
  1  2  1  0
  2  3  1  0
  4  3  1  0
  5  4  1  0
  5  6  1  1
  7  6  2  0
  8  6  1  0
  9  8  1  0
 10 11  1  0
  9 10  1  6
 11 12  1  0
 12 13  1  0
 13 14  1  0
 15  9  1  0
 15 16  2  0
 18 17  1  0
 19 18  1  1
 19 20  1  0
 20 15  1  0
 21 19  1  0
 22 21  1  0
 23 21  2  0
M  END
$$$$
