PKS.pdb
     RDKit          3D

 23 23  0  0  1  0  0  0  0  0999 V2000
    7.3821  -14.9954   19.4644 N   0  0  0  0  0  0  0  0  0  0  0  0
    7.2620  -14.6682   18.0352 C   0  0  0  0  0  0  0  0  0  0  0  0
    7.7810  -13.2398   17.9129 C   0  0  0  0  0  0  0  0  0  0  0  0
    8.4814  -12.9923   19.2320 C   0  0  0  0  0  0  0  0  0  0  0  0
    8.6749  -14.3946   19.7608 C   0  0  1  0  0  0  0  0  0  0  0  0
    8.9614  -14.4057   21.2136 C   0  0  0  0  0  0  0  0  0  0  0  0
   10.1586  -14.4016   21.5688 O   0  0  0  0  0  0  0  0  0  0  0  0
    7.9711  -14.4206   22.2199 N   0  0  0  0  0  0  0  0  0  0  0  0
    8.2908  -14.2733   23.6366 C   0  0  1  0  0  0  0  0  0  0  0  0
    7.1716  -13.4535   24.2430 C   0  0  0  0  0  0  0  0  0  0  0  0
    7.3594  -13.2204   25.7070 C   0  0  0  0  0  0  0  0  0  0  0  0
    6.2156  -12.3964   26.2184 C   0  0  0  0  0  0  0  0  0  0  0  0
    6.2998  -12.1568   27.7104 C   0  0  0  0  0  0  0  0  0  0  0  0
    5.1622  -11.3030   28.0570 N   0  0  0  0  0  0  0  0  0  0  0  0
    8.3507  -15.6225   24.2558 C   0  0  0  0  0  0  0  0  0  0  0  0
    7.5257  -16.5312   23.8970 O   0  0  0  0  0  0  0  0  0  0  0  0
   11.0331  -18.8608   24.0176 O   0  0  0  0  0  0  0  0  0  0  0  0
   10.4076  -17.6226   23.9826 C   0  0  0  0  0  0  0  0  0  0  0  0
    9.8433  -17.2455   25.3396 C   0  0  2  0  0  0  0  0  0  0  0  0
    9.3178  -15.9232   25.2492 N   0  0  0  0  0  0  0  0  0  0  0  0
   10.8177  -17.4405   26.4096 C   0  0  0  0  0  0  0  0  0  0  0  0
   11.1853  -16.3865   27.2168 O   0  0  0  0  0  0  0  0  0  0  0  0
   11.3244  -18.5644   26.5998 O   0  0  0  0  0  0  0  0  0  0  0  0
  1  5  1  0
  1  2  1  0
  2  3  1  0
  4  3  1  0
  5  4  1  0
  5  6  1  1
  7  6  2  0
  8  6  1  0
  9  8  1  0
 10 11  1  0
  9 10  1  1
 11 12  1  0
 12 13  1  0
 13 14  1  0
 15  9  1  0
 15 16  2  0
 18 17  1  0
 19 18  1  6
 19 20  1  0
 20 15  1  0
 21 19  1  0
 22 21  1  0
 23 21  2  0
M  END
$$$$
