PKS.pdb
     RDKit          3D

 23 23  0  0  1  0  0  0  0  0999 V2000
    8.3642  -14.9137   19.5821 N   0  0  0  0  0  0  0  0  0  0  0  0
    8.5387  -14.2069   18.3038 C   0  0  0  0  0  0  0  0  0  0  0  0
    7.7123  -12.9330   18.4418 C   0  0  0  0  0  0  0  0  0  0  0  0
    7.4137  -12.8509   19.9236 C   0  0  0  0  0  0  0  0  0  0  0  0
    8.4384  -13.7942   20.5102 C   0  0  1  0  0  0  0  0  0  0  0  0
    8.0896  -14.2051   21.8895 C   0  0  0  0  0  0  0  0  0  0  0  0
    7.8957  -13.3037   22.7317 O   0  0  0  0  0  0  0  0  0  0  0  0
    7.9625  -15.5462   22.3122 N   0  0  0  0  0  0  0  0  0  0  0  0
    7.5263  -15.9060   23.6579 C   0  0  1  0  0  0  0  0  0  0  0  0
    7.2326  -17.3910   23.6280 C   0  0  0  0  0  0  0  0  0  0  0  0
    5.9939  -17.7154   22.8577 C   0  0  0  0  0  0  0  0  0  0  0  0
    5.8271  -19.2049   22.8111 C   0  0  0  0  0  0  0  0  0  0  0  0
    4.5796  -19.6219   22.0625 C   0  0  0  0  0  0  0  0  0  0  0  0
    4.5272  -21.0835   22.1276 N   0  0  0  0  0  0  0  0  0  0  0  0
    8.6243  -15.6054   24.6127 C   0  0  0  0  0  0  0  0  0  0  0  0
    9.8400  -15.8261   24.2837 O   0  0  0  0  0  0  0  0  0  0  0  0
    7.7987  -12.9870   27.1267 O   0  0  0  0  0  0  0  0  0  0  0  0
    9.1057  -13.3744   27.3864 C   0  0  0  0  0  0  0  0  0  0  0  0
    9.4220  -14.7204   26.7614 C   0  0  2  0  0  0  0  0  0  0  0  0
    8.3440  -15.0718   25.8969 N   0  0  0  0  0  0  0  0  0  0  0  0
    9.7468  -15.7270   27.7682 C   0  0  0  0  0  0  0  0  0  0  0  0
   10.7234  -15.4814   28.7081 O   0  0  0  0  0  0  0  0  0  0  0  0
    9.1412  -16.8175   27.7836 O   0  0  0  0  0  0  0  0  0  0  0  0
  1  5  1  0
  1  2  1  0
  2  3  1  0
  4  3  1  0
  5  4  1  0
  5  6  1  1
  7  6  2  0
  8  6  1  0
  9  8  1  0
 10 11  1  0
  9 10  1  6
 11 12  1  0
 12 13  1  0
 13 14  1  0
 15  9  1  0
 15 16  2  0
 18 17  1  0
 19 18  1  1
 19 20  1  0
 20 15  1  0
 21 19  1  0
 22 21  1  0
 23 21  2  0
M  END
$$$$
