PKS.pdb
     RDKit          3D

 23 23  0  0  1  0  0  0  0  0999 V2000
    7.1695  -14.9761   19.4755 N   0  0  0  0  0  0  0  0  0  0  0  0
    6.9596  -14.6675   18.0526 C   0  0  0  0  0  0  0  0  0  0  0  0
    7.5246  -13.2637   17.8662 C   0  0  0  0  0  0  0  0  0  0  0  0
    8.3276  -13.0236   19.1268 C   0  0  0  0  0  0  0  0  0  0  0  0
    8.5031  -14.4239   19.6671 C   0  0  1  0  0  0  0  0  0  0  0  0
    8.8931  -14.4231   21.0957 C   0  0  0  0  0  0  0  0  0  0  0  0
   10.1044  -14.2842   21.3662 O   0  0  0  0  0  0  0  0  0  0  0  0
    7.9866  -14.5689   22.1682 N   0  0  0  0  0  0  0  0  0  0  0  0
    8.3827  -14.3810   23.5605 C   0  0  1  0  0  0  0  0  0  0  0  0
    7.2428  -13.6448   24.2323 C   0  0  0  0  0  0  0  0  0  0  0  0
    7.4945  -13.4004   25.6848 C   0  0  0  0  0  0  0  0  0  0  0  0
    6.3556  -12.6038   26.2478 C   0  0  0  0  0  0  0  0  0  0  0  0
    6.5231  -12.3242   27.7257 C   0  0  0  0  0  0  0  0  0  0  0  0
    5.3548  -11.5420   28.1337 N   0  0  0  0  0  0  0  0  0  0  0  0
    8.5881  -15.7143   24.1831 C   0  0  0  0  0  0  0  0  0  0  0  0
    7.6250  -16.5536   24.2364 O   0  0  0  0  0  0  0  0  0  0  0  0
   12.2069  -17.6020   24.3729 O   0  0  0  0  0  0  0  0  0  0  0  0
   10.9442  -18.1733   24.4420 C   0  0  0  0  0  0  0  0  0  0  0  0
   10.0129  -17.3604   25.3219 C   0  0  2  0  0  0  0  0  0  0  0  0
    9.8482  -16.0760   24.7253 N   0  0  0  0  0  0  0  0  0  0  0  0
   10.4608  -17.3323   26.7115 C   0  0  0  0  0  0  0  0  0  0  0  0
   10.6303  -18.5062   27.4120 O   0  0  0  0  0  0  0  0  0  0  0  0
   10.6933  -16.2434   27.2741 O   0  0  0  0  0  0  0  0  0  0  0  0
  1  5  1  0
  1  2  1  0
  2  3  1  0
  4  3  1  0
  5  4  1  0
  5  6  1  1
  7  6  2  0
  8  6  1  0
  9  8  1  0
 10 11  1  0
  9 10  1  1
 11 12  1  0
 12 13  1  0
 13 14  1  0
 15  9  1  0
 15 16  2  0
 18 17  1  0
 19 18  1  6
 19 20  1  0
 20 15  1  0
 21 19  1  0
 22 21  1  0
 23 21  2  0
M  END
$$$$
