PKS.pdb
     RDKit          3D

 23 23  0  0  1  0  0  0  0  0999 V2000
    8.6112  -14.7252   19.5891 N   0  0  0  0  0  0  0  0  0  0  0  0
    8.8571  -13.6110   18.6606 C   0  0  0  0  0  0  0  0  0  0  0  0
    7.8896  -12.5153   19.0947 C   0  0  0  0  0  0  0  0  0  0  0  0
    7.4138  -12.9686   20.4584 C   0  0  0  0  0  0  0  0  0  0  0  0
    8.4576  -13.9931   20.8384 C   0  0  1  0  0  0  0  0  0  0  0  0
    7.9964  -14.8756   21.9346 C   0  0  0  0  0  0  0  0  0  0  0  0
    7.7849  -14.3538   23.0493 O   0  0  0  0  0  0  0  0  0  0  0  0
    7.7811  -16.2645   21.8009 N   0  0  0  0  0  0  0  0  0  0  0  0
    7.2831  -17.0897   22.8972 C   0  0  1  0  0  0  0  0  0  0  0  0
    6.8783  -18.4137   22.2842 C   0  0  0  0  0  0  0  0  0  0  0  0
    6.3436  -19.3747   23.2959 C   0  0  0  0  0  0  0  0  0  0  0  0
    5.9846  -20.6567   22.6058 C   0  0  0  0  0  0  0  0  0  0  0  0
    5.3491  -21.6586   23.5454 C   0  0  0  0  0  0  0  0  0  0  0  0
    5.0350  -22.8398   22.7397 N   0  0  0  0  0  0  0  0  0  0  0  0
    8.3750  -17.2794   23.8868 C   0  0  0  0  0  0  0  0  0  0  0  0
    9.5846  -17.4068   23.4923 O   0  0  0  0  0  0  0  0  0  0  0  0
    7.4919  -17.6799   27.9252 O   0  0  0  0  0  0  0  0  0  0  0  0
    8.6971  -17.0900   27.5714 C   0  0  0  0  0  0  0  0  0  0  0  0
    9.1588  -17.5465   26.2000 C   0  0  2  0  0  0  0  0  0  0  0  0
    8.0956  -17.3220   25.2770 N   0  0  0  0  0  0  0  0  0  0  0  0
    9.6655  -18.9158   26.2223 C   0  0  0  0  0  0  0  0  0  0  0  0
    9.0434  -19.9001   25.4863 O   0  0  0  0  0  0  0  0  0  0  0  0
   10.6663  -19.2036   26.9090 O   0  0  0  0  0  0  0  0  0  0  0  0
  1  5  1  0
  1  2  1  0
  2  3  1  0
  4  3  1  0
  5  4  1  0
  5  6  1  1
  7  6  2  0
  8  6  1  0
  9  8  1  0
 10 11  1  0
  9 10  1  6
 11 12  1  0
 12 13  1  0
 13 14  1  0
 15  9  1  0
 15 16  2  0
 18 17  1  0
 19 18  1  1
 19 20  1  0
 20 15  1  0
 21 19  1  0
 22 21  1  0
 23 21  2  0
M  END
$$$$
