PKS.pdb
     RDKit          3D

 23 23  0  0  1  0  0  0  0  0999 V2000
    8.5697  -14.4984   19.1533 N   0  0  0  0  0  0  0  0  0  0  0  0
    8.8999  -13.4101   18.2203 C   0  0  0  0  0  0  0  0  0  0  0  0
    8.1166  -12.2044   18.7279 C   0  0  0  0  0  0  0  0  0  0  0  0
    7.6751  -12.6150   20.1164 C   0  0  0  0  0  0  0  0  0  0  0  0
    8.5964  -13.7746   20.4165 C   0  0  1  0  0  0  0  0  0  0  0  0
    8.0950  -14.6078   21.5333 C   0  0  0  0  0  0  0  0  0  0  0  0
    8.1052  -14.1098   22.6785 O   0  0  0  0  0  0  0  0  0  0  0  0
    7.6075  -15.9247   21.3871 N   0  0  0  0  0  0  0  0  0  0  0  0
    7.0514  -16.6833   22.5034 C   0  0  1  0  0  0  0  0  0  0  0  0
    6.2729  -17.8298   21.8938 C   0  0  0  0  0  0  0  0  0  0  0  0
    5.6446  -18.7095   22.9255 C   0  0  0  0  0  0  0  0  0  0  0  0
    4.9422  -19.8411   22.2365 C   0  0  0  0  0  0  0  0  0  0  0  0
    4.1537  -20.7017   23.1999 C   0  0  0  0  0  0  0  0  0  0  0  0
    3.3968  -21.6512   22.3820 N   0  0  0  0  0  0  0  0  0  0  0  0
    8.1692  -17.1915   23.3399 C   0  0  0  0  0  0  0  0  0  0  0  0
    9.3762  -17.0887   22.9305 O   0  0  0  0  0  0  0  0  0  0  0  0
   10.0914  -15.9767   26.8500 O   0  0  0  0  0  0  0  0  0  0  0  0
    9.1673  -16.1869   25.8364 C   0  0  0  0  0  0  0  0  0  0  0  0
    8.8779  -17.6640   25.6445 C   0  0  2  0  0  0  0  0  0  0  0  0
    7.9177  -17.7953   24.5988 N   0  0  0  0  0  0  0  0  0  0  0  0
    8.5050  -18.3146   26.8975 C   0  0  0  0  0  0  0  0  0  0  0  0
    9.4662  -18.6220   27.8351 O   0  0  0  0  0  0  0  0  0  0  0  0
    7.3117  -18.5966   27.1273 O   0  0  0  0  0  0  0  0  0  0  0  0
  1  5  1  0
  1  2  1  0
  2  3  1  0
  4  3  1  0
  5  4  1  0
  5  6  1  1
  7  6  2  0
  8  6  1  0
  9  8  1  0
 10 11  1  0
  9 10  1  6
 11 12  1  0
 12 13  1  0
 13 14  1  0
 15  9  1  0
 15 16  2  0
 18 17  1  0
 19 18  1  1
 19 20  1  0
 20 15  1  0
 21 19  1  0
 22 21  1  0
 23 21  2  0
M  END
$$$$
