PKS.pdb
     RDKit          3D

 23 23  0  0  1  0  0  0  0  0999 V2000
    7.3694  -15.0780   19.7643 N   0  0  0  0  0  0  0  0  0  0  0  0
    6.8511  -14.3605   18.5893 C   0  0  0  0  0  0  0  0  0  0  0  0
    7.1672  -12.8924   18.8529 C   0  0  0  0  0  0  0  0  0  0  0  0
    8.1537  -12.9323   20.0005 C   0  0  0  0  0  0  0  0  0  0  0  0
    8.6240  -14.3681   19.9697 C   0  0  1  0  0  0  0  0  0  0  0  0
    9.2749  -14.7667   21.2387 C   0  0  0  0  0  0  0  0  0  0  0  0
   10.4346  -14.3545   21.4502 O   0  0  0  0  0  0  0  0  0  0  0  0
    8.6705  -15.5801   22.2218 N   0  0  0  0  0  0  0  0  0  0  0  0
    9.3170  -15.8819   23.4953 C   0  0  1  0  0  0  0  0  0  0  0  0
    8.2767  -16.5784   24.3468 C   0  0  0  0  0  0  0  0  0  0  0  0
    8.8598  -17.1898   25.5793 C   0  0  0  0  0  0  0  0  0  0  0  0
    7.7667  -17.8703   26.3479 C   0  0  0  0  0  0  0  0  0  0  0  0
    8.2762  -18.5344   27.6088 C   0  0  0  0  0  0  0  0  0  0  0  0
    7.1214  -19.1876   28.2278 N   0  0  0  0  0  0  0  0  0  0  0  0
   10.4760  -16.7766   23.2428 C   0  0  0  0  0  0  0  0  0  0  0  0
   10.3366  -17.8183   22.5144 O   0  0  0  0  0  0  0  0  0  0  0  0
   14.4505  -15.6547   23.5390 O   0  0  0  0  0  0  0  0  0  0  0  0
   13.9128  -16.7202   22.8308 C   0  0  0  0  0  0  0  0  0  0  0  0
   12.8183  -17.4161   23.6182 C   0  0  2  0  0  0  0  0  0  0  0  0
   11.7483  -16.4919   23.8019 N   0  0  0  0  0  0  0  0  0  0  0  0
   13.3266  -18.0105   24.8514 C   0  0  0  0  0  0  0  0  0  0  0  0
   12.7765  -17.6684   26.0671 O   0  0  0  0  0  0  0  0  0  0  0  0
   14.2635  -18.8332   24.8119 O   0  0  0  0  0  0  0  0  0  0  0  0
  1  5  1  0
  1  2  1  0
  2  3  1  0
  4  3  1  0
  5  4  1  0
  5  6  1  1
  7  6  2  0
  8  6  1  0
  9  8  1  0
 10 11  1  0
  9 10  1  1
 11 12  1  0
 12 13  1  0
 13 14  1  0
 15  9  1  0
 15 16  2  0
 18 17  1  0
 19 18  1  1
 19 20  1  0
 20 15  1  0
 21 19  1  0
 22 21  1  0
 23 21  2  0
M  END
$$$$
