CPC.pdb
     RDKit          3D

 20 20  0  0  1  0  0  0  0  0999 V2000
   19.9855  -14.1310  -17.1529 N   0  0  0  0  0  0  0  0  0  0  0  0
   19.7416  -12.8124  -17.5164 C   0  0  1  0  0  0  0  0  0  0  0  0
   18.2481  -12.5168  -17.3117 C   0  0  0  0  0  0  0  0  0  0  0  0
   17.2351  -13.5535  -18.4129 S   0  0  0  0  0  0  0  0  0  0  0  0
   20.4775  -11.7384  -16.8532 C   0  0  0  0  0  0  0  0  0  0  0  0
   21.0871  -12.0978  -15.7852 O   0  0  0  0  0  0  0  0  0  0  0  0
   20.5850  -10.3962  -17.2483 N   0  0  0  0  0  0  0  0  0  0  0  0
   19.9372   -9.6549  -18.2988 C   0  0  0  0  0  0  0  0  0  0  0  0
   21.0463   -8.7821  -18.8271 C   0  0  0  0  0  0  0  0  0  0  0  0
   22.1360   -8.7837  -17.7950 C   0  0  0  0  0  0  0  0  0  0  0  0
   21.4560   -9.4140  -16.6000 C   0  0  1  0  0  0  0  0  0  0  0  0
   20.6956   -8.4496  -15.7842 C   0  0  0  0  0  0  0  0  0  0  0  0
   19.5894   -8.0380  -16.1766 O   0  0  0  0  0  0  0  0  0  0  0  0
   21.2246   -7.9951  -14.5592 N   0  0  0  0  0  0  0  0  0  0  0  0
   20.4237   -7.1855  -13.6504 C   0  0  1  0  0  0  0  0  0  0  0  0
   20.8837   -7.5393  -12.2445 C   0  0  0  0  0  0  0  0  0  0  0  0
   20.2215   -9.1405  -11.7730 S   0  0  0  0  0  0  0  0  0  0  0  0
   20.7083   -5.7437  -13.9229 C   0  0  0  0  0  0  0  0  0  0  0  0
   21.7220   -5.3817  -14.5730 O   0  0  0  0  0  0  0  0  0  0  0  0
   19.8629   -4.7661  -13.4668 O   0  0  0  0  0  0  0  0  0  0  0  0
  2  1  1  1
  2  3  1  0
  4  3  1  0
  5  2  1  0
  5  6  2  0
  7  5  1  0
  8  7  1  0
  9  8  1  0
 10  9  1  0
 10 11  1  0
 11  7  1  0
 11 12  1  6
 12 13  2  0
 14 12  1  0
 14 15  1  0
 15 16  1  1
 16 17  1  0
 18 15  1  0
 18 20  1  0
 19 18  2  0
M  END
$$$$
