CPC.pdb
     RDKit          3D

 20 20  0  0  1  0  0  0  0  0999 V2000
   16.7988  -11.8409  -15.3424 N   0  0  0  0  0  0  0  0  0  0  0  0
   16.8538  -10.5421  -15.8326 C   0  0  1  0  0  0  0  0  0  0  0  0
   15.8535   -9.6801  -15.0476 C   0  0  0  0  0  0  0  0  0  0  0  0
   14.1694  -10.3527  -15.2054 S   0  0  0  0  0  0  0  0  0  0  0  0
   18.1267   -9.8250  -15.8207 C   0  0  0  0  0  0  0  0  0  0  0  0
   19.0575  -10.4131  -15.1657 O   0  0  0  0  0  0  0  0  0  0  0  0
   18.4301   -8.5984  -16.4311 N   0  0  0  0  0  0  0  0  0  0  0  0
   17.6190   -7.6828  -17.1905 C   0  0  0  0  0  0  0  0  0  0  0  0
   18.5524   -7.2365  -18.2861 C   0  0  0  0  0  0  0  0  0  0  0  0
   19.9424   -7.6053  -17.8564 C   0  0  0  0  0  0  0  0  0  0  0  0
   19.7511   -7.9676  -16.4004 C   0  0  1  0  0  0  0  0  0  0  0  0
   19.7898   -6.8023  -15.4982 C   0  0  0  0  0  0  0  0  0  0  0  0
   18.7735   -6.1027  -15.3408 O   0  0  0  0  0  0  0  0  0  0  0  0
   20.9804   -6.4827  -14.8144 N   0  0  0  0  0  0  0  0  0  0  0  0
   20.9772   -5.5416  -13.7022 C   0  0  1  0  0  0  0  0  0  0  0  0
   21.7016   -6.2315  -12.5565 C   0  0  0  0  0  0  0  0  0  0  0  0
   20.6315   -7.4706  -11.8188 S   0  0  0  0  0  0  0  0  0  0  0  0
   21.7356   -4.3204  -14.1115 C   0  0  0  0  0  0  0  0  0  0  0  0
   22.5098   -4.3245  -15.1024 O   0  0  0  0  0  0  0  0  0  0  0  0
   21.6065   -3.1498  -13.4104 O   0  0  0  0  0  0  0  0  0  0  0  0
  2  1  1  1
  2  3  1  0
  4  3  1  0
  5  2  1  0
  5  6  2  0
  7  5  1  0
  8  7  1  0
  9  8  1  0
 10  9  1  0
 10 11  1  0
 11  7  1  0
 11 12  1  1
 12 13  2  0
 14 12  1  0
 14 15  1  0
 15 16  1  1
 16 17  1  0
 18 15  1  0
 18 20  1  0
 19 18  2  0
M  END
$$$$
