CPC.pdb
     RDKit          3D

 20 20  0  0  1  0  0  0  0  0999 V2000
   18.7631  -14.4825  -15.5875 N   0  0  0  0  0  0  0  0  0  0  0  0
   18.7279  -13.5761  -16.6399 C   0  0  1  0  0  0  0  0  0  0  0  0
   17.2766  -13.4483  -17.1270 C   0  0  0  0  0  0  0  0  0  0  0  0
   16.6477  -15.0610  -17.6901 S   0  0  0  0  0  0  0  0  0  0  0  0
   19.2228  -12.2173  -16.4322 C   0  0  0  0  0  0  0  0  0  0  0  0
   19.2428  -11.8446  -15.2066 O   0  0  0  0  0  0  0  0  0  0  0  0
   19.6652  -11.3041  -17.4015 N   0  0  0  0  0  0  0  0  0  0  0  0
   19.7263  -11.3899  -18.8374 C   0  0  0  0  0  0  0  0  0  0  0  0
   21.0398  -10.7246  -19.1581 C   0  0  0  0  0  0  0  0  0  0  0  0
   21.4489   -9.9499  -17.9394 C   0  0  0  0  0  0  0  0  0  0  0  0
   20.1918   -9.9719  -17.0986 C   0  0  1  0  0  0  0  0  0  0  0  0
   19.2368   -8.9042  -17.4471 C   0  0  0  0  0  0  0  0  0  0  0  0
   18.4276   -9.0717  -18.3767 O   0  0  0  0  0  0  0  0  0  0  0  0
   19.2425   -7.6936  -16.7249 N   0  0  0  0  0  0  0  0  0  0  0  0
   18.2299   -6.6734  -16.9627 C   0  0  1  0  0  0  0  0  0  0  0  0
   17.4645   -6.5183  -15.6576 C   0  0  0  0  0  0  0  0  0  0  0  0
   16.4296   -5.0526  -15.7302 S   0  0  0  0  0  0  0  0  0  0  0  0
   18.9188   -5.3893  -17.2953 C   0  0  0  0  0  0  0  0  0  0  0  0
   18.3898   -4.5309  -18.0468 O   0  0  0  0  0  0  0  0  0  0  0  0
   20.1595   -5.1091  -16.7847 O   0  0  0  0  0  0  0  0  0  0  0  0
  2  1  1  1
  2  3  1  0
  4  3  1  0
  5  2  1  0
  5  6  2  0
  7  5  1  0
  8  7  1  0
  9  8  1  0
 10  9  1  0
 10 11  1  0
 11  7  1  0
 11 12  1  6
 12 13  2  0
 14 12  1  0
 14 15  1  0
 15 16  1  1
 16 17  1  0
 18 15  1  0
 18 20  1  0
 19 18  2  0
M  END
$$$$
