CPC.pdb
     RDKit          3D

 20 20  0  0  1  0  0  0  0  0999 V2000
   17.9813  -12.3917  -16.3013 N   0  0  0  0  0  0  0  0  0  0  0  0
   18.9245  -11.5281  -16.8443 C   0  0  1  0  0  0  0  0  0  0  0  0
   18.2158  -10.5868  -17.8299 C   0  0  0  0  0  0  0  0  0  0  0  0
   17.4845  -11.5325  -19.2027 S   0  0  0  0  0  0  0  0  0  0  0  0
   19.7196  -10.6846  -15.9551 C   0  0  0  0  0  0  0  0  0  0  0  0
   19.2374  -10.5605  -14.7747 O   0  0  0  0  0  0  0  0  0  0  0  0
   20.9185  -10.0158  -16.2462 N   0  0  0  0  0  0  0  0  0  0  0  0
   21.7098   -9.9527  -17.4474 C   0  0  0  0  0  0  0  0  0  0  0  0
   23.1213  -10.0128  -16.9232 C   0  0  0  0  0  0  0  0  0  0  0  0
   23.0589   -9.7003  -15.4565 C   0  0  0  0  0  0  0  0  0  0  0  0
   21.6483   -9.1800  -15.2910 C   0  0  1  0  0  0  0  0  0  0  0  0
   21.5159   -7.7434  -15.5946 C   0  0  0  0  0  0  0  0  0  0  0  0
   21.4424   -7.3609  -16.7759 O   0  0  0  0  0  0  0  0  0  0  0  0
   21.4727   -6.8046  -14.5440 N   0  0  0  0  0  0  0  0  0  0  0  0
   21.1157   -5.4144  -14.7943 C   0  0  1  0  0  0  0  0  0  0  0  0
   19.7749   -5.1880  -14.1130 C   0  0  0  0  0  0  0  0  0  0  0  0
   19.3378   -3.4482  -14.1941 S   0  0  0  0  0  0  0  0  0  0  0  0
   22.1511   -4.5380  -14.1666 C   0  0  0  0  0  0  0  0  0  0  0  0
   22.6959   -4.8376  -13.0736 O   0  0  0  0  0  0  0  0  0  0  0  0
   22.5392   -3.3711  -14.7718 O   0  0  0  0  0  0  0  0  0  0  0  0
  2  1  1  1
  2  3  1  0
  4  3  1  0
  5  2  1  0
  5  6  2  0
  7  5  1  0
  8  7  1  0
  9  8  1  0
 10  9  1  0
 10 11  1  0
 11  7  1  0
 11 12  1  6
 12 13  2  0
 14 12  1  0
 14 15  1  0
 15 16  1  1
 16 17  1  0
 18 15  1  0
 18 20  1  0
 19 18  2  0
M  END
$$$$
