CPC.pdb
     RDKit          3D

 20 20  0  0  1  0  0  0  0  0999 V2000
   19.7303  -14.8716  -17.5817 N   0  0  0  0  0  0  0  0  0  0  0  0
   19.1172  -13.6448  -17.8041 C   0  0  1  0  0  0  0  0  0  0  0  0
   17.8984  -13.5317  -16.8759 C   0  0  0  0  0  0  0  0  0  0  0  0
   16.7866  -14.9546  -17.1055 S   0  0  0  0  0  0  0  0  0  0  0  0
   19.8900  -12.4165  -17.6349 C   0  0  0  0  0  0  0  0  0  0  0  0
   21.0708  -12.5956  -17.1714 O   0  0  0  0  0  0  0  0  0  0  0  0
   19.4898  -11.1013  -17.9168 N   0  0  0  0  0  0  0  0  0  0  0  0
   18.2462  -10.5652  -18.4056 C   0  0  0  0  0  0  0  0  0  0  0  0
   18.6963   -9.4938  -19.3649 C   0  0  0  0  0  0  0  0  0  0  0  0
   20.1397   -9.2128  -19.0639 C   0  0  0  0  0  0  0  0  0  0  0  0
   20.3453   -9.9255  -17.7458 C   0  0  1  0  0  0  0  0  0  0  0  0
   19.9525   -9.1175  -16.5769 C   0  0  0  0  0  0  0  0  0  0  0  0
   18.7560   -9.0434  -16.2449 O   0  0  0  0  0  0  0  0  0  0  0  0
   20.9350   -8.4293  -15.8365 N   0  0  0  0  0  0  0  0  0  0  0  0
   20.6183   -7.8258  -14.5488 C   0  0  1  0  0  0  0  0  0  0  0  0
   21.2107   -8.7427  -13.4897 C   0  0  0  0  0  0  0  0  0  0  0  0
   20.9535   -8.0345  -11.8597 S   0  0  0  0  0  0  0  0  0  0  0  0
   21.2774   -6.4862  -14.4775 C   0  0  0  0  0  0  0  0  0  0  0  0
   20.8121   -5.5577  -13.7684 O   0  0  0  0  0  0  0  0  0  0  0  0
   22.4195   -6.2304  -15.1906 O   0  0  0  0  0  0  0  0  0  0  0  0
  2  1  1  1
  2  3  1  0
  4  3  1  0
  5  2  1  0
  5  6  2  0
  7  5  1  0
  8  7  1  0
  9  8  1  0
 10  9  1  0
 10 11  1  0
 11  7  1  0
 11 12  1  1
 12 13  2  0
 14 12  1  0
 14 15  1  0
 15 16  1  1
 16 17  1  0
 18 15  1  0
 18 20  1  0
 19 18  2  0
M  END
$$$$
