CPC.pdb
     RDKit          3D

 20 20  0  0  1  0  0  0  0  0999 V2000
   22.3707  -21.7767  -13.2621 N   0  0  0  0  0  0  0  0  0  0  0  0
   23.3534  -20.8952  -12.8292 C   0  0  1  0  0  0  0  0  0  0  0  0
   22.6846  -19.5659  -12.4478 C   0  0  0  0  0  0  0  0  0  0  0  0
   21.5625  -19.0131  -13.7702 S   0  0  0  0  0  0  0  0  0  0  0  0
   24.2101  -21.2718  -11.7073 C   0  0  0  0  0  0  0  0  0  0  0  0
   23.6580  -22.0626  -10.8640 O   0  0  0  0  0  0  0  0  0  0  0  0
   25.5328  -20.8725  -11.4614 N   0  0  0  0  0  0  0  0  0  0  0  0
   26.3660  -19.8846  -12.0960 C   0  0  0  0  0  0  0  0  0  0  0  0
   27.7122  -20.5602  -12.1422 C   0  0  0  0  0  0  0  0  0  0  0  0
   27.6594  -21.7111  -11.1802 C   0  0  0  0  0  0  0  0  0  0  0  0
   26.3836  -21.4408  -10.4141 C   0  0  1  0  0  0  0  0  0  0  0  0
   26.5665  -20.5136   -9.2826 C   0  0  0  0  0  0  0  0  0  0  0  0
   26.4192  -19.2899   -9.4502 O   0  0  0  0  0  0  0  0  0  0  0  0
   26.9086  -21.0163   -8.0108 N   0  0  0  0  0  0  0  0  0  0  0  0
   27.0066  -20.1329   -6.8564 C   0  0  1  0  0  0  0  0  0  0  0  0
   26.8647  -21.0178   -5.6276 C   0  0  0  0  0  0  0  0  0  0  0  0
   27.2863  -20.0833   -4.1533 S   0  0  0  0  0  0  0  0  0  0  0  0
   28.3581  -19.4944   -6.8607 C   0  0  0  0  0  0  0  0  0  0  0  0
   29.3475  -20.0454   -7.4072 O   0  0  0  0  0  0  0  0  0  0  0  0
   28.5581  -18.2775   -6.2626 O   0  0  0  0  0  0  0  0  0  0  0  0
  2  1  1  1
  2  3  1  0
  4  3  1  0
  5  2  1  0
  5  6  2  0
  7  5  1  0
  8  7  1  0
  9  8  1  0
 10  9  1  0
 10 11  1  0
 11  7  1  0
 11 12  1  1
 12 13  2  0
 14 12  1  0
 14 15  1  0
 15 16  1  1
 16 17  1  0
 18 15  1  0
 18 20  1  0
 19 18  2  0
M  END
$$$$
