CPC.pdb
     RDKit          3D

 20 20  0  0  1  0  0  0  0  0999 V2000
   25.1440  -11.6612  -17.7972 N   0  0  0  0  0  0  0  0  0  0  0  0
   24.8136  -11.0307  -16.6041 C   0  0  1  0  0  0  0  0  0  0  0  0
   26.0815  -10.3861  -16.0239 C   0  0  0  0  0  0  0  0  0  0  0  0
   27.2992  -11.6628  -15.5758 S   0  0  0  0  0  0  0  0  0  0  0  0
   23.7786   -9.9995  -16.6013 C   0  0  0  0  0  0  0  0  0  0  0  0
   23.5928   -9.4354  -17.7364 O   0  0  0  0  0  0  0  0  0  0  0  0
   22.9903   -9.5732  -15.5214 N   0  0  0  0  0  0  0  0  0  0  0  0
   23.0395   -9.8919  -14.1183 C   0  0  0  0  0  0  0  0  0  0  0  0
   21.5832  -10.0053  -13.7483 C   0  0  0  0  0  0  0  0  0  0  0  0
   20.7981   -9.3544  -14.8496 C   0  0  0  0  0  0  0  0  0  0  0  0
   21.8710   -8.6366  -15.6380 C   0  0  1  0  0  0  0  0  0  0  0  0
   22.2016   -7.3054  -15.0975 C   0  0  0  0  0  0  0  0  0  0  0  0
   23.1365   -7.1770  -14.2871 O   0  0  0  0  0  0  0  0  0  0  0  0
   21.4564   -6.1788  -15.5007 N   0  0  0  0  0  0  0  0  0  0  0  0
   21.9418   -4.8285  -15.2478 C   0  0  1  0  0  0  0  0  0  0  0  0
   22.6961   -4.4042  -16.4985 C   0  0  0  0  0  0  0  0  0  0  0  0
   23.2688   -2.7118  -16.3183 S   0  0  0  0  0  0  0  0  0  0  0  0
   20.7640   -3.9311  -15.0443 C   0  0  0  0  0  0  0  0  0  0  0  0
   19.6770   -4.1202  -15.6477 O   0  0  0  0  0  0  0  0  0  0  0  0
   20.8372   -2.8658  -14.1851 O   0  0  0  0  0  0  0  0  0  0  0  0
  2  1  1  6
  2  3  1  0
  4  3  1  0
  5  2  1  0
  5  6  2  0
  7  5  1  0
  8  7  1  0
  9  8  1  0
 10  9  1  0
 10 11  1  0
 11  7  1  0
 11 12  1  1
 12 13  2  0
 14 12  1  0
 14 15  1  0
 15 16  1  6
 16 17  1  0
 18 15  1  0
 18 20  1  0
 19 18  2  0
M  END
$$$$
