CPC.pdb
     RDKit          3D

 20 20  0  0  1  0  0  0  0  0999 V2000
   21.4471  -10.2973  -15.2917 N   0  0  0  0  0  0  0  0  0  0  0  0
   20.7757   -9.0956  -15.4802 C   0  0  1  0  0  0  0  0  0  0  0  0
   19.2852   -9.3969  -15.6978 C   0  0  0  0  0  0  0  0  0  0  0  0
   19.0306  -10.2442  -17.2887 S   0  0  0  0  0  0  0  0  0  0  0  0
   20.8497   -8.0640  -14.4483 C   0  0  0  0  0  0  0  0  0  0  0  0
   21.0606   -8.5132  -13.2672 O   0  0  0  0  0  0  0  0  0  0  0  0
   20.7186   -6.6758  -14.6070 N   0  0  0  0  0  0  0  0  0  0  0  0
   20.3714   -5.8738  -15.7511 C   0  0  0  0  0  0  0  0  0  0  0  0
   21.2977   -4.6918  -15.6263 C   0  0  0  0  0  0  0  0  0  0  0  0
   21.8235   -4.6923  -14.2205 C   0  0  0  0  0  0  0  0  0  0  0  0
   20.9284   -5.7008  -13.5352 C   0  0  1  0  0  0  0  0  0  0  0  0
   19.6605   -5.1240  -13.0523 C   0  0  0  0  0  0  0  0  0  0  0  0
   18.6987   -4.9954  -13.8305 O   0  0  0  0  0  0  0  0  0  0  0  0
   19.5404   -4.7185  -11.7076 N   0  0  0  0  0  0  0  0  0  0  0  0
   18.2320   -4.5397  -11.0920 C   0  0  1  0  0  0  0  0  0  0  0  0
   18.4362   -4.7158   -9.5951 C   0  0  0  0  0  0  0  0  0  0  0  0
   18.6698   -6.4549   -9.2138 S   0  0  0  0  0  0  0  0  0  0  0  0
   17.7611   -3.1493  -11.3733 C   0  0  0  0  0  0  0  0  0  0  0  0
   18.5217   -2.2830  -11.8755 O   0  0  0  0  0  0  0  0  0  0  0  0
   16.4733   -2.7765  -11.0886 O   0  0  0  0  0  0  0  0  0  0  0  0
  2  1  1  1
  2  3  1  0
  4  3  1  0
  5  2  1  0
  5  6  2  0
  7  5  1  0
  8  7  1  0
  9  8  1  0
 10  9  1  0
 10 11  1  0
 11  7  1  0
 11 12  1  6
 12 13  2  0
 14 12  1  0
 14 15  1  0
 15 16  1  1
 16 17  1  0
 18 15  1  0
 18 20  1  0
 19 18  2  0
M  END
$$$$
