CPC.pdb
     RDKit          3D

 20 20  0  0  1  0  0  0  0  0999 V2000
   18.1278  -12.9287  -15.8537 N   0  0  0  0  0  0  0  0  0  0  0  0
   17.6054  -11.6448  -15.9481 C   0  0  1  0  0  0  0  0  0  0  0  0
   16.8369  -11.3330  -14.6550 C   0  0  0  0  0  0  0  0  0  0  0  0
   15.5908  -12.6188  -14.3270 S   0  0  0  0  0  0  0  0  0  0  0  0
   18.5073  -10.5196  -16.1828 C   0  0  0  0  0  0  0  0  0  0  0  0
   19.7514  -10.8171  -16.1125 O   0  0  0  0  0  0  0  0  0  0  0  0
   18.1676   -9.1883  -16.4683 N   0  0  0  0  0  0  0  0  0  0  0  0
   16.8962   -8.5136  -16.5048 C   0  0  0  0  0  0  0  0  0  0  0  0
   17.0296   -7.6104  -17.7035 C   0  0  0  0  0  0  0  0  0  0  0  0
   18.4921   -7.5272  -18.0304 C   0  0  0  0  0  0  0  0  0  0  0  0
   19.1373   -8.1460  -16.8102 C   0  0  1  0  0  0  0  0  0  0  0  0
   19.3376   -7.1894  -15.7065 C   0  0  0  0  0  0  0  0  0  0  0  0
   18.4106   -6.9529  -14.9115 O   0  0  0  0  0  0  0  0  0  0  0  0
   20.5812   -6.5435  -15.5538 N   0  0  0  0  0  0  0  0  0  0  0  0
   20.8640   -5.7281  -14.3800 C   0  0  1  0  0  0  0  0  0  0  0  0
   22.2110   -6.1946  -13.8497 C   0  0  0  0  0  0  0  0  0  0  0  0
   22.7146   -5.1576  -12.4729 S   0  0  0  0  0  0  0  0  0  0  0  0
   20.9613   -4.2990  -14.8071 C   0  0  0  0  0  0  0  0  0  0  0  0
   20.5632   -3.3607  -14.0705 O   0  0  0  0  0  0  0  0  0  0  0  0
   21.4928   -3.9686  -16.0264 O   0  0  0  0  0  0  0  0  0  0  0  0
  2  1  1  1
  2  3  1  0
  4  3  1  0
  5  2  1  0
  5  6  2  0
  7  5  1  0
  8  7  1  0
  9  8  1  0
 10  9  1  0
 10 11  1  0
 11  7  1  0
 11 12  1  1
 12 13  2  0
 14 12  1  0
 14 15  1  0
 15 16  1  6
 16 17  1  0
 18 15  1  0
 18 20  1  0
 19 18  2  0
M  END
$$$$
