CPC.pdb
     RDKit          3D

 20 20  0  0  1  0  0  0  0  0999 V2000
   24.6427  -21.0472  -16.6308 N   0  0  0  0  0  0  0  0  0  0  0  0
   25.1009  -20.1877  -15.6400 C   0  0  1  0  0  0  0  0  0  0  0  0
   24.0558  -19.0816  -15.4304 C   0  0  0  0  0  0  0  0  0  0  0  0
   24.7649  -17.7065  -14.4712 S   0  0  0  0  0  0  0  0  0  0  0  0
   25.4179  -20.7225  -14.3179 C   0  0  0  0  0  0  0  0  0  0  0  0
   24.6270  -21.6484  -13.9196 O   0  0  0  0  0  0  0  0  0  0  0  0
   26.4640  -20.3425  -13.4631 N   0  0  0  0  0  0  0  0  0  0  0  0
   27.3914  -19.2427  -13.5187 C   0  0  0  0  0  0  0  0  0  0  0  0
   28.6849  -19.8709  -13.0682 C   0  0  0  0  0  0  0  0  0  0  0  0
   28.3342  -21.1703  -12.4039 C   0  0  0  0  0  0  0  0  0  0  0  0
   26.8340  -21.0630  -12.2434 C   0  0  1  0  0  0  0  0  0  0  0  0
   26.4268  -20.3394  -11.0251 C   0  0  0  0  0  0  0  0  0  0  0  0
   26.4689  -19.0966  -10.9957 O   0  0  0  0  0  0  0  0  0  0  0  0
   25.9899  -21.0585   -9.8941 N   0  0  0  0  0  0  0  0  0  0  0  0
   25.5457  -20.3670   -8.6911 C   0  0  1  0  0  0  0  0  0  0  0  0
   24.9098  -21.4236   -7.8009 C   0  0  0  0  0  0  0  0  0  0  0  0
   24.4216  -20.6877   -6.2374 S   0  0  0  0  0  0  0  0  0  0  0  0
   26.7421  -19.7890   -8.0066 C   0  0  0  0  0  0  0  0  0  0  0  0
   27.8631  -20.3578   -8.0428 O   0  0  0  0  0  0  0  0  0  0  0  0
   26.6492  -18.6105   -7.3132 O   0  0  0  0  0  0  0  0  0  0  0  0
  2  1  1  6
  2  3  1  0
  4  3  1  0
  5  2  1  0
  5  6  2  0
  7  5  1  0
  8  7  1  0
  9  8  1  0
 10  9  1  0
 10 11  1  0
 11  7  1  0
 11 12  1  1
 12 13  2  0
 14 12  1  0
 14 15  1  0
 15 16  1  1
 16 17  1  0
 18 15  1  0
 18 20  1  0
 19 18  2  0
M  END
$$$$
