CPC.pdb
     RDKit          3D

 20 20  0  0  1  0  0  0  0  0999 V2000
   22.9518  -21.9826  -13.1171 N   0  0  0  0  0  0  0  0  0  0  0  0
   23.7338  -21.0074  -12.5108 C   0  0  1  0  0  0  0  0  0  0  0  0
   22.8061  -19.9911  -11.8281 C   0  0  0  0  0  0  0  0  0  0  0  0
   21.7917  -19.1213  -13.0642 S   0  0  0  0  0  0  0  0  0  0  0  0
   24.7288  -21.4026  -11.5166 C   0  0  0  0  0  0  0  0  0  0  0  0
   24.4047  -22.4317  -10.8259 O   0  0  0  0  0  0  0  0  0  0  0  0
   25.9639  -20.7943  -11.2450 N   0  0  0  0  0  0  0  0  0  0  0  0
   26.5759  -19.6001  -11.7668 C   0  0  0  0  0  0  0  0  0  0  0  0
   28.0205  -20.0013  -11.9175 C   0  0  0  0  0  0  0  0  0  0  0  0
   28.2178  -21.2468  -11.1035 C   0  0  0  0  0  0  0  0  0  0  0  0
   26.9447  -21.3124  -10.2893 C   0  0  1  0  0  0  0  0  0  0  0  0
   26.9978  -20.5070   -9.0556 C   0  0  0  0  0  0  0  0  0  0  0  0
   26.5745  -19.3374   -9.0569 O   0  0  0  0  0  0  0  0  0  0  0  0
   27.5289  -21.0649   -7.8750 N   0  0  0  0  0  0  0  0  0  0  0  0
   27.2859  -20.4471   -6.5781 C   0  0  1  0  0  0  0  0  0  0  0  0
   27.9945  -21.3167   -5.5509 C   0  0  0  0  0  0  0  0  0  0  0  0
   27.8929  -20.5491   -3.9307 S   0  0  0  0  0  0  0  0  0  0  0  0
   27.8923  -19.0810   -6.5819 C   0  0  0  0  0  0  0  0  0  0  0  0
   28.9369  -18.8236   -7.2330 O   0  0  0  0  0  0  0  0  0  0  0  0
   27.3203  -18.0604   -5.8681 O   0  0  0  0  0  0  0  0  0  0  0  0
  2  1  1  1
  2  3  1  0
  4  3  1  0
  5  2  1  0
  5  6  2  0
  7  5  1  0
  8  7  1  0
  9  8  1  0
 10  9  1  0
 10 11  1  0
 11  7  1  0
 11 12  1  1
 12 13  2  0
 14 12  1  0
 14 15  1  0
 15 16  1  1
 16 17  1  0
 18 15  1  0
 18 20  1  0
 19 18  2  0
M  END
$$$$
