CPC.pdb
     RDKit          3D

 20 20  0  0  1  0  0  0  0  0999 V2000
   17.4530  -10.0542  -10.2486 N   0  0  0  0  0  0  0  0  0  0  0  0
   17.7243   -9.1463  -11.2647 C   0  0  1  0  0  0  0  0  0  0  0  0
   16.3946   -8.7079  -11.8968 C   0  0  0  0  0  0  0  0  0  0  0  0
   15.6160  -10.0989  -12.7757 S   0  0  0  0  0  0  0  0  0  0  0  0
   18.4657   -7.9258  -10.9559 C   0  0  0  0  0  0  0  0  0  0  0  0
   18.5518   -7.6629   -9.7051 O   0  0  0  0  0  0  0  0  0  0  0  0
   19.0750   -7.0373  -11.8552 N   0  0  0  0  0  0  0  0  0  0  0  0
   19.1590   -7.0408  -13.2924 C   0  0  0  0  0  0  0  0  0  0  0  0
   20.5707   -6.5796  -13.5476 C   0  0  0  0  0  0  0  0  0  0  0  0
   21.0676   -5.9607  -12.2736 C   0  0  0  0  0  0  0  0  0  0  0  0
   19.8019   -5.8307  -11.4558 C   0  0  1  0  0  0  0  0  0  0  0  0
   19.0415   -4.6017  -11.7470 C   0  0  0  0  0  0  0  0  0  0  0  0
   18.3451   -4.5293  -12.7751 O   0  0  0  0  0  0  0  0  0  0  0  0
   19.1051   -3.5093  -10.8583 N   0  0  0  0  0  0  0  0  0  0  0  0
   18.0452   -2.5103  -10.8204 C   0  0  1  0  0  0  0  0  0  0  0  0
   17.8342   -2.1665   -9.3540 C   0  0  0  0  0  0  0  0  0  0  0  0
   16.9808   -3.5147   -8.5301 S   0  0  0  0  0  0  0  0  0  0  0  0
   18.5106   -1.2964  -11.5578 C   0  0  0  0  0  0  0  0  0  0  0  0
   19.6949   -1.1844  -11.9656 O   0  0  0  0  0  0  0  0  0  0  0  0
   17.6498   -0.2606  -11.8126 O   0  0  0  0  0  0  0  0  0  0  0  0
  2  1  1  1
  2  3  1  0
  4  3  1  0
  5  2  1  0
  5  6  2  0
  7  5  1  0
  8  7  1  0
  9  8  1  0
 10  9  1  0
 10 11  1  0
 11  7  1  0
 11 12  1  6
 12 13  2  0
 14 12  1  0
 14 15  1  0
 15 16  1  1
 16 17  1  0
 18 15  1  0
 18 20  1  0
 19 18  2  0
M  END
$$$$
