CPC.pdb
     RDKit          3D

 20 20  0  0  1  0  0  0  0  0999 V2000
   15.6231  -11.8853  -11.6796 N   0  0  0  0  0  0  0  0  0  0  0  0
   15.6404  -10.5680  -12.1209 C   0  0  1  0  0  0  0  0  0  0  0  0
   14.2025  -10.1466  -12.4595 C   0  0  0  0  0  0  0  0  0  0  0  0
   13.5248  -11.1953  -13.7840 S   0  0  0  0  0  0  0  0  0  0  0  0
   16.1898   -9.5288  -11.2533 C   0  0  0  0  0  0  0  0  0  0  0  0
   16.4540   -9.9208  -10.0625 O   0  0  0  0  0  0  0  0  0  0  0  0
   16.4513   -8.1880  -11.5743 N   0  0  0  0  0  0  0  0  0  0  0  0
   16.2899   -7.4502  -12.8001 C   0  0  0  0  0  0  0  0  0  0  0  0
   17.5193   -6.5794  -12.8323 C   0  0  0  0  0  0  0  0  0  0  0  0
   18.0928   -6.5776  -11.4453 C   0  0  0  0  0  0  0  0  0  0  0  0
   16.9833   -7.2036  -10.6300 C   0  0  1  0  0  0  0  0  0  0  0  0
   15.9577   -6.2363  -10.1987 C   0  0  0  0  0  0  0  0  0  0  0  0
   15.1198   -5.8120  -11.0142 O   0  0  0  0  0  0  0  0  0  0  0  0
   15.9285   -5.7934   -8.8607 N   0  0  0  0  0  0  0  0  0  0  0  0
   14.7705   -5.0865   -8.3296 C   0  0  1  0  0  0  0  0  0  0  0  0
   14.5383   -5.6367   -6.9308 C   0  0  0  0  0  0  0  0  0  0  0  0
   13.2123   -4.7268   -6.1319 S   0  0  0  0  0  0  0  0  0  0  0  0
   15.0997   -3.6309   -8.2473 C   0  0  0  0  0  0  0  0  0  0  0  0
   16.2514   -3.2302   -7.9403 O   0  0  0  0  0  0  0  0  0  0  0  0
   14.1448   -2.6826   -8.5069 O   0  0  0  0  0  0  0  0  0  0  0  0
  2  1  1  1
  2  3  1  0
  4  3  1  0
  5  2  1  0
  5  6  2  0
  7  5  1  0
  8  7  1  0
  9  8  1  0
 10  9  1  0
 10 11  1  0
 11  7  1  0
 11 12  1  6
 12 13  2  0
 14 12  1  0
 14 15  1  0
 15 16  1  1
 16 17  1  0
 18 15  1  0
 18 20  1  0
 19 18  2  0
M  END
$$$$
