SGG.pdb
     RDKit          3D

 15 14  0  0  1  0  0  0  0  0999 V2000
   18.2195  -13.1426  -17.4530 O   0  0  0  0  0  0  0  0  0  0  0  0
   17.9291  -11.8504  -17.0593 C   0  0  0  0  0  0  0  0  0  0  0  0
   19.1198  -10.9282  -17.2795 C   0  0  2  0  0  0  0  0  0  0  0  0
   20.3095  -11.5140  -16.7099 N   0  0  0  0  0  0  0  0  0  0  0  0
   18.8570   -9.5686  -16.7758 C   0  0  0  0  0  0  0  0  0  0  0  0
   17.8688   -8.9265  -17.2130 O   0  0  0  0  0  0  0  0  0  0  0  0
   19.6683   -8.9129  -15.8002 N   0  0  0  0  0  0  0  0  0  0  0  0
   19.2810   -7.6438  -15.2268 C   0  0  0  0  0  0  0  0  0  0  0  0
   20.3899   -7.0905  -14.3903 C   0  0  0  0  0  0  0  0  0  0  0  0
   21.2841   -7.8036  -13.8789 O   0  0  0  0  0  0  0  0  0  0  0  0
   20.4421   -5.6921  -14.1576 N   0  0  0  0  0  0  0  0  0  0  0  0
   21.5424   -5.1366  -13.4027 C   0  0  0  0  0  0  0  0  0  0  0  0
   22.5781   -4.5854  -14.3082 C   0  0  0  0  0  0  0  0  0  0  0  0
   22.9615   -3.2561  -14.3250 O   0  0  0  0  0  0  0  0  0  0  0  0
   23.1418   -5.3702  -15.1081 O   0  0  0  0  0  0  0  0  0  0  0  0
  2  1  1  0
  3  4  1  1
  3  2  1  0
  5  3  1  0
  6  5  2  0
  7  5  1  0
  8  7  1  0
  9 11  1  0
  9  8  1  0
 10  9  2  0
 12 13  1  0
 12 11  1  0
 13 14  1  0
 15 13  2  0
M  END
$$$$
