SGG.pdb
     RDKit          3D

 15 14  0  0  1  0  0  0  0  0999 V2000
   27.7227  -19.3710  -17.7861 O   0  0  0  0  0  0  0  0  0  0  0  0
   26.6699  -19.8982  -17.0633 C   0  0  0  0  0  0  0  0  0  0  0  0
   27.1576  -20.5469  -15.7756 C   0  0  2  0  0  0  0  0  0  0  0  0
   28.1072  -21.5909  -16.0780 N   0  0  0  0  0  0  0  0  0  0  0  0
   26.0365  -21.0198  -14.9446 C   0  0  0  0  0  0  0  0  0  0  0  0
   26.2050  -22.0013  -14.1776 O   0  0  0  0  0  0  0  0  0  0  0  0
   24.7381  -20.4248  -14.9503 N   0  0  0  0  0  0  0  0  0  0  0  0
   23.8561  -20.5277  -13.8097 C   0  0  0  0  0  0  0  0  0  0  0  0
   22.5795  -19.7946  -14.0710 C   0  0  0  0  0  0  0  0  0  0  0  0
   22.5394  -18.6345  -14.5424 O   0  0  0  0  0  0  0  0  0  0  0  0
   21.3480  -20.4336  -13.7748 N   0  0  0  0  0  0  0  0  0  0  0  0
   20.1087  -19.7155  -13.9687 C   0  0  0  0  0  0  0  0  0  0  0  0
   18.9578  -20.5067  -13.4730 C   0  0  0  0  0  0  0  0  0  0  0  0
   17.6397  -20.0966  -13.5686 O   0  0  0  0  0  0  0  0  0  0  0  0
   19.1911  -21.6152  -12.9342 O   0  0  0  0  0  0  0  0  0  0  0  0
  2  1  1  0
  3  4  1  6
  3  2  1  0
  5  3  1  0
  6  5  2  0
  7  5  1  0
  8  7  1  0
  9 11  1  0
  9  8  1  0
 10  9  2  0
 12 13  1  0
 12 11  1  0
 13 14  1  0
 15 13  2  0
M  END
$$$$
