SGG.pdb
     RDKit          3D

 15 14  0  0  1  0  0  0  0  0999 V2000
   30.2458  -21.8901  -10.5974 O   0  0  0  0  0  0  0  0  0  0  0  0
   29.0785  -21.1511  -10.6133 C   0  0  0  0  0  0  0  0  0  0  0  0
   28.5737  -20.9516  -12.0353 C   0  0  2  0  0  0  0  0  0  0  0  0
   29.5537  -20.2286  -12.8098 N   0  0  0  0  0  0  0  0  0  0  0  0
   27.2458  -20.3133  -12.0581 C   0  0  0  0  0  0  0  0  0  0  0  0
   27.1432  -19.0877  -11.7988 O   0  0  0  0  0  0  0  0  0  0  0  0
   26.0360  -21.0088  -12.3624 N   0  0  0  0  0  0  0  0  0  0  0  0
   24.7635  -20.3247  -12.4073 C   0  0  0  0  0  0  0  0  0  0  0  0
   23.6917  -21.2499  -12.8876 C   0  0  0  0  0  0  0  0  0  0  0  0
   23.9123  -22.4339  -13.2327 O   0  0  0  0  0  0  0  0  0  0  0  0
   22.3569  -20.7751  -12.9602 N   0  0  0  0  0  0  0  0  0  0  0  0
   21.3166  -21.6484  -13.4545 C   0  0  0  0  0  0  0  0  0  0  0  0
   19.9999  -20.9687  -13.4262 C   0  0  0  0  0  0  0  0  0  0  0  0
   18.8257  -21.5396  -13.8845 O   0  0  0  0  0  0  0  0  0  0  0  0
   19.9453  -19.8059  -12.9590 O   0  0  0  0  0  0  0  0  0  0  0  0
  2  1  1  0
  3  4  1  6
  3  2  1  0
  5  3  1  0
  6  5  2  0
  7  5  1  0
  8  7  1  0
  9 11  1  0
  9  8  1  0
 10  9  2  0
 12 13  1  0
 12 11  1  0
 13 14  1  0
 15 13  2  0
M  END
$$$$
