SGG.pdb
     RDKit          3D

 15 14  0  0  1  0  0  0  0  0999 V2000
   20.7029  -10.8748  -19.9410 O   0  0  0  0  0  0  0  0  0  0  0  0
   21.9436  -10.3721  -20.2827 C   0  0  0  0  0  0  0  0  0  0  0  0
   22.8596  -10.2978  -19.0693 C   0  0  2  0  0  0  0  0  0  0  0  0
   22.0817  -10.3933  -17.8574 N   0  0  0  0  0  0  0  0  0  0  0  0
   23.7148   -9.0984  -19.1043 C   0  0  0  0  0  0  0  0  0  0  0  0
   24.3857   -8.8461  -20.1369 O   0  0  0  0  0  0  0  0  0  0  0  0
   23.8375   -8.1791  -18.0182 N   0  0  0  0  0  0  0  0  0  0  0  0
   24.6923   -7.0168  -18.1066 C   0  0  0  0  0  0  0  0  0  0  0  0
   24.5273   -6.1558  -16.8955 C   0  0  0  0  0  0  0  0  0  0  0  0
   25.1558   -5.0855  -16.7245 O   0  0  0  0  0  0  0  0  0  0  0  0
   23.6181   -6.5603  -15.8844 N   0  0  0  0  0  0  0  0  0  0  0  0
   23.2859   -5.6436  -14.8175 C   0  0  0  0  0  0  0  0  0  0  0  0
   21.9706   -5.0054  -15.0611 C   0  0  0  0  0  0  0  0  0  0  0  0
   21.2797   -4.2729  -14.1121 O   0  0  0  0  0  0  0  0  0  0  0  0
   21.4514   -5.1365  -16.1954 O   0  0  0  0  0  0  0  0  0  0  0  0
  2  1  1  0
  3  4  1  1
  3  2  1  0
  5  3  1  0
  6  5  2  0
  7  5  1  0
  8  7  1  0
  9 11  1  0
  9  8  1  0
 10  9  2  0
 12 13  1  0
 12 11  1  0
 13 14  1  0
 15 13  2  0
M  END
$$$$
