SGG.pdb
     RDKit          3D

 15 14  0  0  1  0  0  0  0  0999 V2000
   18.3565   -8.9614  -11.9409 O   0  0  0  0  0  0  0  0  0  0  0  0
   19.5311   -8.3576  -12.3464 C   0  0  0  0  0  0  0  0  0  0  0  0
   19.6312   -8.3143  -13.8646 C   0  0  2  0  0  0  0  0  0  0  0  0
   19.4610   -9.6403  -14.4083 N   0  0  0  0  0  0  0  0  0  0  0  0
   20.8798   -7.6716  -14.3107 C   0  0  0  0  0  0  0  0  0  0  0  0
   21.7782   -8.3687  -14.8463 O   0  0  0  0  0  0  0  0  0  0  0  0
   21.1468   -6.2752  -14.1733 N   0  0  0  0  0  0  0  0  0  0  0  0
   22.3677   -5.6875  -14.6767 C   0  0  0  0  0  0  0  0  0  0  0  0
   22.4101   -4.2263  -14.3630 C   0  0  0  0  0  0  0  0  0  0  0  0
   23.3662   -3.4835  -14.6851 O   0  0  0  0  0  0  0  0  0  0  0  0
   21.3207   -3.6418  -13.6673 N   0  0  0  0  0  0  0  0  0  0  0  0
   21.3619   -2.2365  -13.3318 C   0  0  0  0  0  0  0  0  0  0  0  0
   20.4474   -1.4596  -14.2016 C   0  0  0  0  0  0  0  0  0  0  0  0
   19.9765   -0.1955  -13.8939 O   0  0  0  0  0  0  0  0  0  0  0  0
   20.0771   -1.9782  -15.2821 O   0  0  0  0  0  0  0  0  0  0  0  0
  2  1  1  0
  3  4  1  1
  3  2  1  0
  5  3  1  0
  6  5  2  0
  7  5  1  0
  8  7  1  0
  9 11  1  0
  9  8  1  0
 10  9  2  0
 12 13  1  0
 12 11  1  0
 13 14  1  0
 15 13  2  0
M  END
$$$$
