SGG.pdb
     RDKit          3D

 15 14  0  0  1  0  0  0  0  0999 V2000
   16.4440   -9.1366  -15.8192 O   0  0  0  0  0  0  0  0  0  0  0  0
   17.8140   -8.9636  -15.7761 C   0  0  0  0  0  0  0  0  0  0  0  0
   18.5105   -9.8314  -16.8147 C   0  0  2  0  0  0  0  0  0  0  0  0
   18.2174  -11.2234  -16.5712 N   0  0  0  0  0  0  0  0  0  0  0  0
   19.9567   -9.5556  -16.8745 C   0  0  0  0  0  0  0  0  0  0  0  0
   20.6846  -10.2311  -17.6451 O   0  0  0  0  0  0  0  0  0  0  0  0
   20.6055   -8.5481  -16.0974 N   0  0  0  0  0  0  0  0  0  0  0  0
   22.0073   -8.2440  -16.2755 C   0  0  0  0  0  0  0  0  0  0  0  0
   22.4450   -7.2093  -15.2890 C   0  0  0  0  0  0  0  0  0  0  0  0
   23.6212   -6.7836  -15.2185 O   0  0  0  0  0  0  0  0  0  0  0  0
   21.4911   -6.6766  -14.3842 N   0  0  0  0  0  0  0  0  0  0  0  0
   21.8814   -5.6196  -13.4788 C   0  0  0  0  0  0  0  0  0  0  0  0
   21.6556   -4.2896  -14.0924 C   0  0  0  0  0  0  0  0  0  0  0  0
   20.4308   -3.6462  -14.1132 O   0  0  0  0  0  0  0  0  0  0  0  0
   22.6328   -3.7112  -14.6252 O   0  0  0  0  0  0  0  0  0  0  0  0
  2  1  1  0
  3  4  1  1
  3  2  1  0
  5  3  1  0
  6  5  2  0
  7  5  1  0
  8  7  1  0
  9 11  1  0
  9  8  1  0
 10  9  2  0
 12 13  1  0
 12 11  1  0
 13 14  1  0
 15 13  2  0
M  END
$$$$
