SGG.pdb
     RDKit          3D

 15 14  0  0  1  0  0  0  0  0999 V2000
   18.6222  -27.5204   -1.2301 O   0  0  0  0  0  0  0  0  0  0  0  0
   18.4987  -26.8290   -2.4199 C   0  0  0  0  0  0  0  0  0  0  0  0
   17.4089  -27.4316   -3.2951 C   0  0  2  0  0  0  0  0  0  0  0  0
   17.8595  -28.6848   -3.8513 N   0  0  0  0  0  0  0  0  0  0  0  0
   16.9501  -26.4832   -4.3253 C   0  0  0  0  0  0  0  0  0  0  0  0
   17.3747  -26.5949   -5.5031 O   0  0  0  0  0  0  0  0  0  0  0  0
   16.0326  -25.4183   -4.0717 N   0  0  0  0  0  0  0  0  0  0  0  0
   15.6255  -24.5081   -5.1182 C   0  0  0  0  0  0  0  0  0  0  0  0
   14.6381  -23.5169   -4.5910 C   0  0  0  0  0  0  0  0  0  0  0  0
   14.1937  -23.5486   -3.4200 O   0  0  0  0  0  0  0  0  0  0  0  0
   14.1749  -22.4864   -5.4489 N   0  0  0  0  0  0  0  0  0  0  0  0
   13.2738  -21.4813   -4.9324 C   0  0  0  0  0  0  0  0  0  0  0  0
   11.8911  -22.0076   -4.8452 C   0  0  0  0  0  0  0  0  0  0  0  0
   10.8089  -21.2669   -4.4036 O   0  0  0  0  0  0  0  0  0  0  0  0
   11.6882  -23.1958   -5.1921 O   0  0  0  0  0  0  0  0  0  0  0  0
  2  1  1  0
  3  4  1  6
  3  2  1  0
  5  3  1  0
  6  5  2  0
  7  5  1  0
  8  7  1  0
  9 11  1  0
  9  8  1  0
 10  9  2  0
 12 13  1  0
 12 11  1  0
 13 14  1  0
 15 13  2  0
M  END
$$$$
