SGG.pdb
     RDKit          3D

 15 14  0  0  1  0  0  0  0  0999 V2000
   12.6215   -8.4527  -13.4104 O   0  0  0  0  0  0  0  0  0  0  0  0
   13.9896   -8.2608  -13.4276 C   0  0  0  0  0  0  0  0  0  0  0  0
   14.6314   -8.9850  -14.6024 C   0  0  2  0  0  0  0  0  0  0  0  0
   14.1883  -10.3581  -14.6372 N   0  0  0  0  0  0  0  0  0  0  0  0
   16.0995   -8.8605  -14.5836 C   0  0  0  0  0  0  0  0  0  0  0  0
   16.8072   -9.8925  -14.4644 O   0  0  0  0  0  0  0  0  0  0  0  0
   16.7921   -7.6163  -14.6944 N   0  0  0  0  0  0  0  0  0  0  0  0
   18.2357   -7.5577  -14.7371 C   0  0  0  0  0  0  0  0  0  0  0  0
   18.7396   -6.4735  -13.8393 C   0  0  0  0  0  0  0  0  0  0  0  0
   17.9967   -5.8189  -13.0715 O   0  0  0  0  0  0  0  0  0  0  0  0
   20.1236   -6.1624  -13.8485 N   0  0  0  0  0  0  0  0  0  0  0  0
   20.6133   -5.0705  -13.0378 C   0  0  0  0  0  0  0  0  0  0  0  0
   22.0369   -4.7882  -13.3380 C   0  0  0  0  0  0  0  0  0  0  0  0
   23.0979   -5.4298  -12.7241 O   0  0  0  0  0  0  0  0  0  0  0  0
   22.2969   -3.9151  -14.2003 O   0  0  0  0  0  0  0  0  0  0  0  0
  2  1  1  0
  3  4  1  1
  3  2  1  0
  5  3  1  0
  6  5  2  0
  7  5  1  0
  8  7  1  0
  9 11  1  0
  9  8  1  0
 10  9  2  0
 12 13  1  0
 12 11  1  0
 13 14  1  0
 15 13  2  0
M  END
$$$$
