SGG.pdb
     RDKit          3D

 15 14  0  0  1  0  0  0  0  0999 V2000
   21.1182  -12.2143  -18.9261 O   0  0  0  0  0  0  0  0  0  0  0  0
   20.2690  -11.5330  -18.0756 C   0  0  0  0  0  0  0  0  0  0  0  0
   20.3544  -10.0301  -18.3014 C   0  0  2  0  0  0  0  0  0  0  0  0
   21.7209   -9.5872  -18.1622 N   0  0  0  0  0  0  0  0  0  0  0  0
   19.4248   -9.2935  -17.4271 C   0  0  0  0  0  0  0  0  0  0  0  0
   18.2937   -9.7806  -17.1756 O   0  0  0  0  0  0  0  0  0  0  0  0
   19.7278   -8.0319  -16.8301 N   0  0  0  0  0  0  0  0  0  0  0  0
   18.8609   -7.4398  -15.8364 C   0  0  0  0  0  0  0  0  0  0  0  0
   19.6685   -6.8638  -14.7178 C   0  0  0  0  0  0  0  0  0  0  0  0
   19.1590   -6.2658  -13.7418 O   0  0  0  0  0  0  0  0  0  0  0  0
   21.0806   -6.9947  -14.7524 N   0  0  0  0  0  0  0  0  0  0  0  0
   21.8782   -6.3803  -13.7153 C   0  0  0  0  0  0  0  0  0  0  0  0
   21.9651   -4.9145  -13.9156 C   0  0  0  0  0  0  0  0  0  0  0  0
   21.2581   -4.2237  -14.8838 O   0  0  0  0  0  0  0  0  0  0  0  0
   22.7250   -4.2594  -13.1627 O   0  0  0  0  0  0  0  0  0  0  0  0
  2  1  1  0
  3  4  1  1
  3  2  1  0
  5  3  1  0
  6  5  2  0
  7  5  1  0
  8  7  1  0
  9 11  1  0
  9  8  1  0
 10  9  2  0
 12 13  1  0
 12 11  1  0
 13 14  1  0
 15 13  2  0
M  END
$$$$
