SGG.pdb
     RDKit          3D

 15 14  0  0  1  0  0  0  0  0999 V2000
   19.6718  -14.4164  -17.0790 O   0  0  0  0  0  0  0  0  0  0  0  0
   18.9968  -13.2374  -16.8274 C   0  0  0  0  0  0  0  0  0  0  0  0
   19.8142  -12.0314  -17.2682 C   0  0  2  0  0  0  0  0  0  0  0  0
   21.2110  -12.2492  -16.9777 N   0  0  0  0  0  0  0  0  0  0  0  0
   19.2991  -10.7805  -16.6842 C   0  0  0  0  0  0  0  0  0  0  0  0
   18.0578  -10.6047  -16.5929 O   0  0  0  0  0  0  0  0  0  0  0  0
   20.1340   -9.7268  -16.2021 N   0  0  0  0  0  0  0  0  0  0  0  0
   19.5773   -8.5536  -15.5672 C   0  0  0  0  0  0  0  0  0  0  0  0
   20.4824   -8.0714  -14.4793 C   0  0  0  0  0  0  0  0  0  0  0  0
   20.9922   -8.8321  -13.6242 O   0  0  0  0  0  0  0  0  0  0  0  0
   20.7857   -6.6877  -14.4015 N   0  0  0  0  0  0  0  0  0  0  0  0
   21.8150   -6.2345  -13.4937 C   0  0  0  0  0  0  0  0  0  0  0  0
   22.0318   -4.7746  -13.6288 C   0  0  0  0  0  0  0  0  0  0  0  0
   21.2986   -3.9595  -14.4731 O   0  0  0  0  0  0  0  0  0  0  0  0
   22.9339   -4.2447  -12.9368 O   0  0  0  0  0  0  0  0  0  0  0  0
  2  1  1  0
  3  4  1  1
  3  2  1  0
  5  3  1  0
  6  5  2  0
  7  5  1  0
  8  7  1  0
  9 11  1  0
  9  8  1  0
 10  9  2  0
 12 13  1  0
 12 11  1  0
 13 14  1  0
 15 13  2  0
M  END
$$$$
