SGG.pdb
     RDKit          3D

 15 14  0  0  1  0  0  0  0  0999 V2000
   17.2123  -10.9001  -13.8987 O   0  0  0  0  0  0  0  0  0  0  0  0
   17.0507  -11.8550  -14.8840 C   0  0  0  0  0  0  0  0  0  0  0  0
   17.4479  -11.3095  -16.2484 C   0  0  2  0  0  0  0  0  0  0  0  0
   17.1701  -12.2890  -17.2713 N   0  0  0  0  0  0  0  0  0  0  0  0
   18.8476  -10.8494  -16.2653 C   0  0  0  0  0  0  0  0  0  0  0  0
   19.7775  -11.6951  -16.2751 O   0  0  0  0  0  0  0  0  0  0  0  0
   19.2309   -9.4735  -16.2715 N   0  0  0  0  0  0  0  0  0  0  0  0
   20.6136   -9.0750  -16.1348 C   0  0  0  0  0  0  0  0  0  0  0  0
   20.7708   -8.1243  -14.9917 C   0  0  0  0  0  0  0  0  0  0  0  0
   19.8024   -7.6729  -14.3374 O   0  0  0  0  0  0  0  0  0  0  0  0
   22.0748   -7.7062  -14.6209 N   0  0  0  0  0  0  0  0  0  0  0  0
   22.2397   -6.7728  -13.5298 C   0  0  0  0  0  0  0  0  0  0  0  0
   21.8587   -5.4024  -13.9461 C   0  0  0  0  0  0  0  0  0  0  0  0
   21.2802   -5.0981  -15.1656 O   0  0  0  0  0  0  0  0  0  0  0  0
   22.0730   -4.4607  -13.1456 O   0  0  0  0  0  0  0  0  0  0  0  0
  2  1  1  0
  3  4  1  6
  3  2  1  0
  5  3  1  0
  6  5  2  0
  7  5  1  0
  8  7  1  0
  9 11  1  0
  9  8  1  0
 10  9  2  0
 12 13  1  0
 12 11  1  0
 13 14  1  0
 15 13  2  0
M  END
$$$$
