SGG.pdb
     RDKit          3D

 15 14  0  0  1  0  0  0  0  0999 V2000
   22.7222  -13.4474  -19.6905 O   0  0  0  0  0  0  0  0  0  0  0  0
   22.4314  -12.1037  -19.8269 C   0  0  0  0  0  0  0  0  0  0  0  0
   21.9147  -11.5178  -18.5206 C   0  0  2  0  0  0  0  0  0  0  0  0
   20.7024  -12.1923  -18.1228 N   0  0  0  0  0  0  0  0  0  0  0  0
   21.7516  -10.0558  -18.6054 C   0  0  0  0  0  0  0  0  0  0  0  0
   21.8027   -9.4909  -19.7271 O   0  0  0  0  0  0  0  0  0  0  0  0
   21.5339   -9.2144  -17.4720 N   0  0  0  0  0  0  0  0  0  0  0  0
   21.4586   -7.7768  -17.6031 C   0  0  0  0  0  0  0  0  0  0  0  0
   21.3366   -7.1370  -16.2573 C   0  0  0  0  0  0  0  0  0  0  0  0
   21.1510   -7.7881  -15.2031 O   0  0  0  0  0  0  0  0  0  0  0  0
   21.4342   -5.7253  -16.1570 N   0  0  0  0  0  0  0  0  0  0  0  0
   21.1996   -5.0843  -14.8829 C   0  0  0  0  0  0  0  0  0  0  0  0
   22.4019   -5.1693  -14.0206 C   0  0  0  0  0  0  0  0  0  0  0  0
   22.4785   -4.6344  -12.7468 O   0  0  0  0  0  0  0  0  0  0  0  0
   23.4116   -5.7616  -14.4714 O   0  0  0  0  0  0  0  0  0  0  0  0
  2  1  1  0
  3  4  1  6
  3  2  1  0
  5  3  1  0
  6  5  2  0
  7  5  1  0
  8  7  1  0
  9 11  1  0
  9  8  1  0
 10  9  2  0
 12 13  1  0
 12 11  1  0
 13 14  1  0
 15 13  2  0
M  END
$$$$
