EGA.pdb
     RDKit          3D

 19 18  0  0  1  0  0  0  0  0999 V2000
   12.1744  -17.8569   21.7388 N   0  0  0  0  0  0  0  0  0  0  0  0
   11.4645  -16.7214   21.1205 C   0  0  1  0  0  0  0  0  0  0  0  0
   10.6156  -17.2457   19.9686 C   0  0  0  0  0  0  0  0  0  0  0  0
   10.8224  -18.6792   19.6402 C   0  0  0  0  0  0  0  0  0  0  0  0
    9.8912  -18.9839   18.4896 C   0  0  0  0  0  0  0  0  0  0  0  0
   10.3502  -19.4420   17.4002 O   0  0  0  0  0  0  0  0  0  0  0  0
   10.4522  -16.2479   22.1224 C   0  0  0  0  0  0  0  0  0  0  0  0
    9.7379  -15.2684   21.8068 O   0  0  0  0  0  0  0  0  0  0  0  0
    8.5301  -18.7796   18.5754 O   0  0  0  0  0  0  0  0  0  0  0  0
   10.2472  -16.8193   23.3851 N   0  0  0  0  0  0  0  0  0  0  0  0
    9.2328  -16.3923   24.3151 C   0  0  0  0  0  0  0  0  0  0  0  0
    9.8822  -15.7216   25.4629 C   0  0  0  0  0  0  0  0  0  0  0  0
   11.1647  -15.7321   25.5503 O   0  0  0  0  0  0  0  0  0  0  0  0
    8.9663  -13.2558   28.1355 C   0  0  0  0  0  0  0  0  0  0  0  0
    9.8528  -14.3139   27.5267 C   0  0  2  0  0  0  0  0  0  0  0  0
    9.2070  -15.0571   26.4872 N   0  0  0  0  0  0  0  0  0  0  0  0
   10.3240  -15.2160   28.5911 C   0  0  0  0  0  0  0  0  0  0  0  0
   11.0336  -14.7627   29.5135 O   0  0  0  0  0  0  0  0  0  0  0  0
   10.0107  -16.5562   28.6086 O   0  0  0  0  0  0  0  0  0  0  0  0
  2  1  1  1
  2  7  1  0
  3  2  1  0
  4  3  1  0
  5  4  1  0
  5  6  2  0
  7  8  2  0
  9  5  1  0
 10 11  1  0
 10  7  1  0
 12 13  2  0
 12 11  1  0
 15 14  1  1
 15 16  1  0
 15 17  1  0
 16 12  1  0
 17 19  1  0
 18 17  2  0
M  END
$$$$
