EGA.pdb
     RDKit          3D

 19 18  0  0  1  0  0  0  0  0999 V2000
    7.9529  -12.6405   19.9005 N   0  0  0  0  0  0  0  0  0  0  0  0
    7.0946  -13.8191   19.6766 C   0  0  1  0  0  0  0  0  0  0  0  0
    7.7252  -14.6824   18.5905 C   0  0  0  0  0  0  0  0  0  0  0  0
    8.4631  -13.9313   17.5432 C   0  0  0  0  0  0  0  0  0  0  0  0
    9.0418  -14.9709   16.6114 C   0  0  0  0  0  0  0  0  0  0  0  0
    9.4204  -16.0936   17.0628 O   0  0  0  0  0  0  0  0  0  0  0  0
    7.1961  -14.6679   20.9102 C   0  0  0  0  0  0  0  0  0  0  0  0
    6.5734  -15.7548   20.9194 O   0  0  0  0  0  0  0  0  0  0  0  0
    9.1798  -14.7453   15.2580 O   0  0  0  0  0  0  0  0  0  0  0  0
    7.9348  -14.3345   22.0531 N   0  0  0  0  0  0  0  0  0  0  0  0
    7.9935  -15.1404   23.2461 C   0  0  0  0  0  0  0  0  0  0  0  0
    8.5094  -14.3154   24.3607 C   0  0  0  0  0  0  0  0  0  0  0  0
    8.6065  -13.0430   24.2048 O   0  0  0  0  0  0  0  0  0  0  0  0
    8.5472  -12.8804   27.0753 C   0  0  0  0  0  0  0  0  0  0  0  0
    9.4605  -14.0034   26.6498 C   0  0  2  0  0  0  0  0  0  0  0  0
    8.9089  -14.8094   25.6028 N   0  0  0  0  0  0  0  0  0  0  0  0
    9.7830  -14.8312   27.8244 C   0  0  0  0  0  0  0  0  0  0  0  0
   10.3117  -14.3020   28.8245 O   0  0  0  0  0  0  0  0  0  0  0  0
    9.5229  -16.1823   27.8630 O   0  0  0  0  0  0  0  0  0  0  0  0
  2  1  1  1
  2  7  1  0
  3  2  1  0
  4  3  1  0
  5  4  1  0
  5  6  2  0
  7  8  2  0
  9  5  1  0
 10 11  1  0
 10  7  1  0
 12 13  2  0
 12 11  1  0
 15 14  1  1
 15 16  1  0
 15 17  1  0
 16 12  1  0
 17 19  1  0
 18 17  2  0
M  END
$$$$
