EGA.pdb
     RDKit          3D

 19 18  0  0  1  0  0  0  0  0999 V2000
    8.6008  -18.2106   21.5820 N   0  0  0  0  0  0  0  0  0  0  0  0
    9.1420  -18.7513   22.8432 C   0  0  1  0  0  0  0  0  0  0  0  0
   10.5426  -18.1888   23.0537 C   0  0  0  0  0  0  0  0  0  0  0  0
   11.1995  -17.6689   21.8274 C   0  0  0  0  0  0  0  0  0  0  0  0
   12.5343  -17.1154   22.2698 C   0  0  0  0  0  0  0  0  0  0  0  0
   12.8400  -15.9101   22.0223 O   0  0  0  0  0  0  0  0  0  0  0  0
    8.3411  -18.1382   23.9547 C   0  0  0  0  0  0  0  0  0  0  0  0
    8.7541  -18.3020   25.1259 O   0  0  0  0  0  0  0  0  0  0  0  0
   13.4574  -17.8839   22.9474 O   0  0  0  0  0  0  0  0  0  0  0  0
    7.1649  -17.3973   23.7799 N   0  0  0  0  0  0  0  0  0  0  0  0
    6.4426  -16.7556   24.8489 C   0  0  0  0  0  0  0  0  0  0  0  0
    6.9675  -15.3844   25.0308 C   0  0  0  0  0  0  0  0  0  0  0  0
    7.9473  -14.9871   24.2995 O   0  0  0  0  0  0  0  0  0  0  0  0
    5.8182  -12.1495   26.4636 C   0  0  0  0  0  0  0  0  0  0  0  0
    6.9107  -13.0935   26.0262 C   0  0  2  0  0  0  0  0  0  0  0  0
    6.4779  -14.4563   25.9503 N   0  0  0  0  0  0  0  0  0  0  0  0
    8.0535  -12.9644   26.9461 C   0  0  0  0  0  0  0  0  0  0  0  0
    8.3223  -13.8991   27.7296 O   0  0  0  0  0  0  0  0  0  0  0  0
    8.8458  -11.8393   26.9779 O   0  0  0  0  0  0  0  0  0  0  0  0
  2  1  1  6
  2  7  1  0
  3  2  1  0
  4  3  1  0
  5  4  1  0
  5  6  2  0
  7  8  2  0
  9  5  1  0
 10 11  1  0
 10  7  1  0
 12 13  2  0
 12 11  1  0
 15 14  1  1
 15 16  1  0
 15 17  1  0
 16 12  1  0
 17 19  1  0
 18 17  2  0
M  END
$$$$
