EGA.pdb
     RDKit          3D

 19 18  0  0  1  0  0  0  0  0999 V2000
   11.6511  -14.8425   19.7047 N   0  0  0  0  0  0  0  0  0  0  0  0
   11.9332  -15.8079   20.7837 C   0  0  1  0  0  0  0  0  0  0  0  0
   13.1075  -15.2908   21.6061 C   0  0  0  0  0  0  0  0  0  0  0  0
   14.4479  -15.6681   21.0899 C   0  0  0  0  0  0  0  0  0  0  0  0
   15.4462  -15.1545   22.1015 C   0  0  0  0  0  0  0  0  0  0  0  0
   15.4011  -15.5546   23.3037 O   0  0  0  0  0  0  0  0  0  0  0  0
   10.7749  -15.7420   21.7359 C   0  0  0  0  0  0  0  0  0  0  0  0
   10.5182  -14.6341   22.2612 O   0  0  0  0  0  0  0  0  0  0  0  0
   16.4280  -14.2463   21.7653 O   0  0  0  0  0  0  0  0  0  0  0  0
    9.9599  -16.8277   22.0820 N   0  0  0  0  0  0  0  0  0  0  0  0
    8.8641  -16.7561   23.0148 C   0  0  0  0  0  0  0  0  0  0  0  0
    9.2909  -17.3384   24.3062 C   0  0  0  0  0  0  0  0  0  0  0  0
    8.4390  -17.4275   25.2647 O   0  0  0  0  0  0  0  0  0  0  0  0
   12.3118  -19.0828   25.7617 C   0  0  0  0  0  0  0  0  0  0  0  0
   10.9510  -18.4338   25.8182 C   0  0  2  0  0  0  0  0  0  0  0  0
   10.5723  -17.8157   24.5835 N   0  0  0  0  0  0  0  0  0  0  0  0
   10.9329  -17.4513   26.9152 C   0  0  0  0  0  0  0  0  0  0  0  0
   10.9371  -17.8496   28.0989 O   0  0  0  0  0  0  0  0  0  0  0  0
   10.9093  -16.0946   26.6843 O   0  0  0  0  0  0  0  0  0  0  0  0
  2  1  1  6
  2  7  1  0
  3  2  1  0
  4  3  1  0
  5  4  1  0
  5  6  2  0
  7  8  2  0
  9  5  1  0
 10 11  1  0
 10  7  1  0
 12 13  2  0
 12 11  1  0
 15 14  1  6
 15 16  1  0
 15 17  1  0
 16 12  1  0
 17 19  1  0
 18 17  2  0
M  END
$$$$
