EGA.pdb
     RDKit          3D

 19 18  0  0  1  0  0  0  0  0999 V2000
    9.5487  -18.0951   22.3367 N   0  0  0  0  0  0  0  0  0  0  0  0
   10.3318  -16.9065   21.9495 C   0  0  1  0  0  0  0  0  0  0  0  0
   10.5443  -16.9328   20.4406 C   0  0  0  0  0  0  0  0  0  0  0  0
    9.5133  -17.6796   19.6759 C   0  0  0  0  0  0  0  0  0  0  0  0
   10.2650  -18.6651   18.8114 C   0  0  0  0  0  0  0  0  0  0  0  0
   11.3002  -18.2993   18.1774 O   0  0  0  0  0  0  0  0  0  0  0  0
    9.4437  -15.7157   22.1635 C   0  0  0  0  0  0  0  0  0  0  0  0
    9.8933  -14.5915   21.8424 O   0  0  0  0  0  0  0  0  0  0  0  0
    9.8633  -19.9777   18.6785 O   0  0  0  0  0  0  0  0  0  0  0  0
    8.1493  -15.7678   22.6970 N   0  0  0  0  0  0  0  0  0  0  0  0
    7.3112  -14.6151   22.9096 C   0  0  0  0  0  0  0  0  0  0  0  0
    7.6850  -13.9765   24.1908 C   0  0  0  0  0  0  0  0  0  0  0  0
    8.6826  -14.4420   24.8546 O   0  0  0  0  0  0  0  0  0  0  0  0
    6.5147  -11.1254   26.3918 C   0  0  0  0  0  0  0  0  0  0  0  0
    7.3776  -12.3070   26.0239 C   0  0  2  0  0  0  0  0  0  0  0  0
    7.0339  -12.8805   24.7578 N   0  0  0  0  0  0  0  0  0  0  0  0
    7.2875  -13.3180   27.0910 C   0  0  0  0  0  0  0  0  0  0  0  0
    7.8753  -13.1229   28.1756 O   0  0  0  0  0  0  0  0  0  0  0  0
    6.5735  -14.4847   26.9375 O   0  0  0  0  0  0  0  0  0  0  0  0
  2  1  1  6
  2  7  1  0
  3  2  1  0
  4  3  1  0
  5  4  1  0
  5  6  2  0
  7  8  2  0
  9  5  1  0
 10 11  1  0
 10  7  1  0
 12 13  2  0
 12 11  1  0
 15 14  1  1
 15 16  1  0
 15 17  1  0
 16 12  1  0
 17 19  1  0
 18 17  2  0
M  END
$$$$
