EGA.pdb
     RDKit          3D

 19 18  0  0  1  0  0  0  0  0999 V2000
    9.8613  -13.9191   20.2068 N   0  0  0  0  0  0  0  0  0  0  0  0
    8.4570  -13.5024   20.0329 C   0  0  1  0  0  0  0  0  0  0  0  0
    7.9869  -13.9375   18.6501 C   0  0  0  0  0  0  0  0  0  0  0  0
    8.6475  -13.2419   17.5164 C   0  0  0  0  0  0  0  0  0  0  0  0
    8.3091  -14.0418   16.2797 C   0  0  0  0  0  0  0  0  0  0  0  0
    7.3323  -13.7020   15.5463 O   0  0  0  0  0  0  0  0  0  0  0  0
    7.6382  -14.3432   20.9685 C   0  0  0  0  0  0  0  0  0  0  0  0
    6.7341  -15.0527   20.4702 O   0  0  0  0  0  0  0  0  0  0  0  0
    9.0345  -15.1533   15.9054 O   0  0  0  0  0  0  0  0  0  0  0  0
    7.8090  -14.3926   22.3582 N   0  0  0  0  0  0  0  0  0  0  0  0
    8.8129  -15.1818   23.0258 C   0  0  0  0  0  0  0  0  0  0  0  0
    8.7689  -14.8921   24.4759 C   0  0  0  0  0  0  0  0  0  0  0  0
    9.5702  -15.5166   25.2636 O   0  0  0  0  0  0  0  0  0  0  0  0
    7.2654  -12.1126   26.5454 C   0  0  0  0  0  0  0  0  0  0  0  0
    8.2275  -13.2421   26.2723 C   0  0  2  0  0  0  0  0  0  0  0  0
    7.9121  -13.9727   25.0819 N   0  0  0  0  0  0  0  0  0  0  0  0
    8.2561  -14.1411   27.4384 C   0  0  0  0  0  0  0  0  0  0  0  0
    7.7300  -15.2710   27.3582 O   0  0  0  0  0  0  0  0  0  0  0  0
    8.8456  -13.7799   28.6286 O   0  0  0  0  0  0  0  0  0  0  0  0
  2  1  1  6
  2  7  1  0
  3  2  1  0
  4  3  1  0
  5  4  1  0
  5  6  2  0
  7  8  2  0
  9  5  1  0
 10 11  1  0
 10  7  1  0
 12 13  2  0
 12 11  1  0
 15 14  1  1
 15 16  1  0
 15 17  1  0
 16 12  1  0
 17 19  1  0
 18 17  2  0
M  END
$$$$
