EGA.pdb
     RDKit          3D

 19 18  0  0  1  0  0  0  0  0999 V2000
    8.7384  -17.1125   20.8079 N   0  0  0  0  0  0  0  0  0  0  0  0
    8.6949  -15.6978   21.2233 C   0  0  1  0  0  0  0  0  0  0  0  0
    8.0474  -14.8824   20.1105 C   0  0  0  0  0  0  0  0  0  0  0  0
    8.7208  -14.9790   18.7903 C   0  0  0  0  0  0  0  0  0  0  0  0
    7.8921  -14.1506   17.8359 C   0  0  0  0  0  0  0  0  0  0  0  0
    8.3032  -13.9324   16.6565 O   0  0  0  0  0  0  0  0  0  0  0  0
    7.7080  -15.6090   22.3506 C   0  0  0  0  0  0  0  0  0  0  0  0
    7.6486  -14.5309   22.9858 O   0  0  0  0  0  0  0  0  0  0  0  0
    6.6783  -13.6078   18.2015 O   0  0  0  0  0  0  0  0  0  0  0  0
    6.8490  -16.6425   22.7462 N   0  0  0  0  0  0  0  0  0  0  0  0
    5.9757  -16.5799   23.8907 C   0  0  0  0  0  0  0  0  0  0  0  0
    6.5720  -17.3622   24.9958 C   0  0  0  0  0  0  0  0  0  0  0  0
    5.9606  -17.4160   26.1254 O   0  0  0  0  0  0  0  0  0  0  0  0
    9.0363  -20.0672   25.5741 C   0  0  0  0  0  0  0  0  0  0  0  0
    8.3502  -18.7956   26.0083 C   0  0  2  0  0  0  0  0  0  0  0  0
    7.7721  -18.0694   24.9181 N   0  0  0  0  0  0  0  0  0  0  0  0
    9.3148  -17.9542   26.7366 C   0  0  0  0  0  0  0  0  0  0  0  0
    9.6227  -16.8334   26.2794 O   0  0  0  0  0  0  0  0  0  0  0  0
    9.8989  -18.3601   27.9150 O   0  0  0  0  0  0  0  0  0  0  0  0
  2  1  1  6
  2  7  1  0
  3  2  1  0
  4  3  1  0
  5  4  1  0
  5  6  2  0
  7  8  2  0
  9  5  1  0
 10 11  1  0
 10  7  1  0
 12 13  2  0
 12 11  1  0
 15 14  1  6
 15 16  1  0
 15 17  1  0
 16 12  1  0
 17 19  1  0
 18 17  2  0
M  END
$$$$
