EGA.pdb
     RDKit          3D

 19 18  0  0  1  0  0  0  0  0999 V2000
    9.8444  -19.7181   17.6330 N   0  0  0  0  0  0  0  0  0  0  0  0
   11.2246  -19.1988   17.6652 C   0  0  1  0  0  0  0  0  0  0  0  0
   11.5525  -18.6003   16.3025 C   0  0  0  0  0  0  0  0  0  0  0  0
   10.5577  -18.8858   15.2375 C   0  0  0  0  0  0  0  0  0  0  0  0
   11.3330  -18.9300   13.9411 C   0  0  0  0  0  0  0  0  0  0  0  0
   12.3176  -19.7182   13.8119 O   0  0  0  0  0  0  0  0  0  0  0  0
   11.2179  -18.0116   18.5835 C   0  0  0  0  0  0  0  0  0  0  0  0
   12.3094  -17.4333   18.7919 O   0  0  0  0  0  0  0  0  0  0  0  0
   11.0081  -18.1297   12.8660 O   0  0  0  0  0  0  0  0  0  0  0  0
   10.0818  -17.5026   19.2261 N   0  0  0  0  0  0  0  0  0  0  0  0
   10.1104  -16.4673   20.2279 C   0  0  0  0  0  0  0  0  0  0  0  0
   10.4948  -17.0631   21.5264 C   0  0  0  0  0  0  0  0  0  0  0  0
   10.7633  -18.3189   21.5840 O   0  0  0  0  0  0  0  0  0  0  0  0
   11.2254  -15.9439   25.0631 C   0  0  0  0  0  0  0  0  0  0  0  0
   10.9575  -16.9587   23.9794 C   0  0  2  0  0  0  0  0  0  0  0  0
   10.5976  -16.3623   22.7285 N   0  0  0  0  0  0  0  0  0  0  0  0
    9.9033  -17.8806   24.4350 C   0  0  0  0  0  0  0  0  0  0  0  0
    8.7613  -17.8059   23.9350 O   0  0  0  0  0  0  0  0  0  0  0  0
   10.1295  -18.8321   25.4036 O   0  0  0  0  0  0  0  0  0  0  0  0
  2  1  1  6
  2  7  1  0
  3  2  1  0
  4  3  1  0
  5  4  1  0
  5  6  2  0
  7  8  2  0
  9  5  1  0
 10 11  1  0
 10  7  1  0
 12 13  2  0
 12 11  1  0
 15 14  1  1
 15 16  1  0
 15 17  1  0
 16 12  1  0
 17 19  1  0
 18 17  2  0
M  END
$$$$
