EGA.pdb
     RDKit          3D

 19 18  0  0  1  0  0  0  0  0999 V2000
   10.5895  -13.0978   19.1348 N   0  0  0  0  0  0  0  0  0  0  0  0
    9.5800  -13.2357   20.2016 C   0  0  1  0  0  0  0  0  0  0  0  0
    8.2191  -13.4715   19.5576 C   0  0  0  0  0  0  0  0  0  0  0  0
    8.1127  -13.0376   18.1413 C   0  0  0  0  0  0  0  0  0  0  0  0
    7.9393  -14.2998   17.3285 C   0  0  0  0  0  0  0  0  0  0  0  0
    7.8571  -15.4255   17.9059 O   0  0  0  0  0  0  0  0  0  0  0  0
    9.8700  -14.5289   20.9059 C   0  0  0  0  0  0  0  0  0  0  0  0
   10.1136  -15.5331   20.1978 O   0  0  0  0  0  0  0  0  0  0  0  0
    7.8652  -14.2795   15.9516 O   0  0  0  0  0  0  0  0  0  0  0  0
    9.8872  -14.6970   22.2967 N   0  0  0  0  0  0  0  0  0  0  0  0
   10.3930  -15.8678   22.9673 C   0  0  0  0  0  0  0  0  0  0  0  0
    9.7565  -15.9738   24.2987 C   0  0  0  0  0  0  0  0  0  0  0  0
   10.0901  -15.1416   25.2200 O   0  0  0  0  0  0  0  0  0  0  0  0
    7.0561  -17.9722   26.0269 C   0  0  0  0  0  0  0  0  0  0  0  0
    8.2736  -17.0828   25.9760 C   0  0  2  0  0  0  0  0  0  0  0  0
    8.7967  -16.9225   24.6528 N   0  0  0  0  0  0  0  0  0  0  0  0
    9.3037  -17.6269   26.8769 C   0  0  0  0  0  0  0  0  0  0  0  0
    9.0606  -17.7339   28.0973 O   0  0  0  0  0  0  0  0  0  0  0  0
   10.5400  -18.0256   26.4214 O   0  0  0  0  0  0  0  0  0  0  0  0
  2  1  1  6
  2  7  1  0
  3  2  1  0
  4  3  1  0
  5  4  1  0
  5  6  2  0
  7  8  2  0
  9  5  1  0
 10 11  1  0
 10  7  1  0
 12 13  2  0
 12 11  1  0
 15 14  1  6
 15 16  1  0
 15 17  1  0
 16 12  1  0
 17 19  1  0
 18 17  2  0
M  END
$$$$
