EGA.pdb
     RDKit          3D

 19 18  0  0  1  0  0  0  0  0999 V2000
   10.2179  -17.6534   20.1526 N   0  0  0  0  0  0  0  0  0  0  0  0
   10.0799  -18.1190   21.5455 C   0  0  1  0  0  0  0  0  0  0  0  0
   11.4618  -18.1538   22.1872 C   0  0  0  0  0  0  0  0  0  0  0  0
   12.1941  -16.8620   22.1673 C   0  0  0  0  0  0  0  0  0  0  0  0
   13.4846  -17.1005   22.9167 C   0  0  0  0  0  0  0  0  0  0  0  0
   14.0580  -16.1453   23.5219 O   0  0  0  0  0  0  0  0  0  0  0  0
    9.3660  -17.0324   22.2953 C   0  0  0  0  0  0  0  0  0  0  0  0
    9.4559  -15.8650   21.8501 O   0  0  0  0  0  0  0  0  0  0  0  0
   14.0805  -18.3430   22.9716 O   0  0  0  0  0  0  0  0  0  0  0  0
    8.6073  -17.2264   23.4570 N   0  0  0  0  0  0  0  0  0  0  0  0
    7.7630  -16.2223   24.0530 C   0  0  0  0  0  0  0  0  0  0  0  0
    8.5596  -15.4330   25.0182 C   0  0  0  0  0  0  0  0  0  0  0  0
    9.7946  -15.7362   25.2063 O   0  0  0  0  0  0  0  0  0  0  0  0
    8.2315  -12.3085   27.1047 C   0  0  0  0  0  0  0  0  0  0  0  0
    8.8501  -13.6307   26.7238 C   0  0  2  0  0  0  0  0  0  0  0  0
    8.0763  -14.3560   25.7619 N   0  0  0  0  0  0  0  0  0  0  0  0
    9.0490  -14.4360   27.9407 C   0  0  0  0  0  0  0  0  0  0  0  0
    8.3592  -15.4617   28.1202 O   0  0  0  0  0  0  0  0  0  0  0  0
    9.9754  -14.0976   28.9008 O   0  0  0  0  0  0  0  0  0  0  0  0
  2  1  1  6
  2  7  1  0
  3  2  1  0
  4  3  1  0
  5  4  1  0
  5  6  2  0
  7  8  2  0
  9  5  1  0
 10 11  1  0
 10  7  1  0
 12 13  2  0
 12 11  1  0
 15 14  1  1
 15 16  1  0
 15 17  1  0
 16 12  1  0
 17 19  1  0
 18 17  2  0
M  END
$$$$
