EGA.pdb
     RDKit          3D

 19 18  0  0  1  0  0  0  0  0999 V2000
   10.6067  -19.0112   22.2974 N   0  0  0  0  0  0  0  0  0  0  0  0
   10.9457  -17.6857   21.7460 C   0  0  1  0  0  0  0  0  0  0  0  0
   10.2827  -17.5409   20.3815 C   0  0  0  0  0  0  0  0  0  0  0  0
    9.0508  -18.3490   20.1950 C   0  0  0  0  0  0  0  0  0  0  0  0
    8.5257  -18.0013   18.8212 C   0  0  0  0  0  0  0  0  0  0  0  0
    7.8960  -18.8656   18.1401 O   0  0  0  0  0  0  0  0  0  0  0  0
   10.2379  -16.6708   22.5956 C   0  0  0  0  0  0  0  0  0  0  0  0
   10.4929  -15.4619   22.3887 O   0  0  0  0  0  0  0  0  0  0  0  0
    8.7070  -16.7537   18.2623 O   0  0  0  0  0  0  0  0  0  0  0  0
    9.3139  -16.9749   23.6038 N   0  0  0  0  0  0  0  0  0  0  0  0
    8.6602  -15.9919   24.4301 C   0  0  0  0  0  0  0  0  0  0  0  0
    9.5389  -15.6618   25.5738 C   0  0  0  0  0  0  0  0  0  0  0  0
   10.6818  -16.2419   25.6729 O   0  0  0  0  0  0  0  0  0  0  0  0
    9.6439  -13.2374   28.4702 C   0  0  0  0  0  0  0  0  0  0  0  0
   10.0901  -14.4465   27.6860 C   0  0  2  0  0  0  0  0  0  0  0  0
    9.2296  -14.7484   26.5821 N   0  0  0  0  0  0  0  0  0  0  0  0
   10.1873  -15.6001   28.5963 C   0  0  0  0  0  0  0  0  0  0  0  0
    9.3619  -16.5325   28.4996 O   0  0  0  0  0  0  0  0  0  0  0  0
   11.1632  -15.6915   29.5627 O   0  0  0  0  0  0  0  0  0  0  0  0
  2  1  1  1
  2  7  1  0
  3  2  1  0
  4  3  1  0
  5  4  1  0
  5  6  2  0
  7  8  2  0
  9  5  1  0
 10 11  1  0
 10  7  1  0
 12 13  2  0
 12 11  1  0
 15 14  1  1
 15 16  1  0
 15 17  1  0
 16 12  1  0
 17 19  1  0
 18 17  2  0
M  END
$$$$
