RSI.pdb
     RDKit          3D

 26 25  0  0  1  0  0  0  0  0999 V2000
   26.4900  -21.8239  -11.1979 N   0  0  0  0  0  0  0  0  0  0  0  0
   25.0735  -21.8376  -11.2308 C   0  0  0  0  0  0  0  0  0  0  0  0
   24.3795  -21.1364  -10.3705 N   0  0  0  0  0  0  0  0  0  0  0  0
   24.3676  -22.6138  -12.2011 N   0  0  0  0  0  0  0  0  0  0  0  0
   25.0590  -23.4825  -13.1241 C   0  0  0  0  0  0  0  0  0  0  0  0
   24.6496  -23.1513  -14.5421 C   0  0  0  0  0  0  0  0  0  0  0  0
   25.8715  -22.6658  -15.3033 C   0  0  0  0  0  0  0  0  0  0  0  0
   26.1543  -21.2487  -14.8487 C   0  0  2  0  0  0  0  0  0  0  0  0
   25.8180  -21.1370  -13.4213 N   0  0  0  0  0  0  0  0  0  0  0  0
   25.2590  -20.3632  -15.6298 C   0  0  0  0  0  0  0  0  0  0  0  0
   25.4847  -20.1649  -16.8436 O   0  0  0  0  0  0  0  0  0  0  0  0
   23.3372  -21.1952  -10.3898 O   0  0  0  0  0  0  0  0  0  0  0  0
   21.9082  -18.9916  -13.8862 C   0  0  0  0  0  0  0  0  0  0  0  0
   21.8680  -18.7979  -15.2881 C   0  0  1  0  0  0  0  0  0  0  0  0
   23.3103  -18.7539  -15.7302 N   0  0  0  0  0  0  0  0  0  0  0  0
   24.1393  -19.7230  -15.0415 C   0  0  0  0  0  0  0  0  0  0  0  0
   23.8119  -17.3688  -15.5073 O   0  0  0  0  0  0  0  0  0  0  0  0
   24.0661  -16.9758  -14.3401 C   0  0  0  0  0  0  0  0  0  0  0  0
   28.2345  -15.9109  -17.0683 C   0  0  0  0  0  0  0  0  0  0  0  0
   26.8836  -15.9267  -16.3810 C   0  0  2  0  0  0  0  0  0  0  0  0
   25.9197  -14.9838  -17.0090 C   0  0  0  0  0  0  0  0  0  0  0  0
   26.4723  -13.5730  -16.9263 C   0  0  2  0  0  0  0  0  0  0  0  0
   24.5674  -15.0937  -16.3610 N   0  0  0  0  0  0  0  0  0  0  0  0
   24.0222  -16.4502  -16.5560 C   0  0  0  0  0  0  0  0  0  0  0  0
   23.5492  -14.1789  -16.9067 O   0  0  0  0  0  0  0  0  0  0  0  0
   23.1316  -13.0879  -16.1854 O   0  0  0  0  0  0  0  0  0  0  0  0
  2  1  1  0
  3  2  2  0
  4  2  1  0
  5  6  1  0
  5  4  1  0
  6  7  1  0
  7  8  1  0
  8  9  1  1
 10  8  1  0
 11 10  2  0
 12 13  1  0
 14 13  1  6
 14 16  1  0
 14 15  1  0
 15 10  1  0
 16 17  2  0
 19 18  1  0
 19 20  1  0
 20 21  1  6
 22 20  1  0
 22 23  1  1
 23 16  1  0
 24 25  1  0
 24 22  1  0
 26 24  2  0
M  END
$$$$
