RSI.pdb
     RDKit          3D

 26 25  0  0  1  0  0  0  0  0999 V2000
   28.5056  -22.7090  -18.7317 N   0  0  0  0  0  0  0  0  0  0  0  0
   29.3605  -23.1758  -17.7027 C   0  0  0  0  0  0  0  0  0  0  0  0
   30.5353  -23.6776  -17.9880 N   0  0  0  0  0  0  0  0  0  0  0  0
   28.9645  -23.1106  -16.3311 N   0  0  0  0  0  0  0  0  0  0  0  0
   27.6980  -22.5417  -15.9351 C   0  0  0  0  0  0  0  0  0  0  0  0
   27.9103  -21.1412  -15.4045 C   0  0  0  0  0  0  0  0  0  0  0  0
   27.6258  -21.1351  -13.9120 C   0  0  0  0  0  0  0  0  0  0  0  0
   26.1352  -20.9298  -13.7364 C   0  0  2  0  0  0  0  0  0  0  0  0
   25.6352  -20.1274  -14.8629 N   0  0  0  0  0  0  0  0  0  0  0  0
   25.9547  -20.1673  -12.4786 C   0  0  0  0  0  0  0  0  0  0  0  0
   26.3063  -18.9687  -12.4221 O   0  0  0  0  0  0  0  0  0  0  0  0
   31.1244  -24.0630  -17.2168 O   0  0  0  0  0  0  0  0  0  0  0  0
   23.1302  -21.1584  -10.0239 C   0  0  0  0  0  0  0  0  0  0  0  0
   23.7134  -19.9029   -9.7274 C   0  0  1  0  0  0  0  0  0  0  0  0
   25.1750  -20.0452  -10.0757 N   0  0  0  0  0  0  0  0  0  0  0  0
   25.3897  -20.7569  -11.3199 C   0  0  0  0  0  0  0  0  0  0  0  0
   25.8469  -20.7393   -8.9414 O   0  0  0  0  0  0  0  0  0  0  0  0
   26.0918  -21.9704   -9.0181 C   0  0  0  0  0  0  0  0  0  0  0  0
   29.3206  -18.1817   -5.4862 C   0  0  0  0  0  0  0  0  0  0  0  0
   28.6393  -19.2484   -6.3202 C   0  0  2  0  0  0  0  0  0  0  0  0
   27.4333  -19.8042   -5.6502 C   0  0  0  0  0  0  0  0  0  0  0  0
   27.8410  -20.4482   -4.3379 C   0  0  2  0  0  0  0  0  0  0  0  0
   26.7219  -20.7744   -6.5521 N   0  0  0  0  0  0  0  0  0  0  0  0
   26.2324  -20.0787   -7.7570 C   0  0  0  0  0  0  0  0  0  0  0  0
   25.5338  -21.4094   -5.9551 O   0  0  0  0  0  0  0  0  0  0  0  0
   25.6533  -22.5617   -5.2182 O   0  0  0  0  0  0  0  0  0  0  0  0
  2  1  1  0
  3  2  2  0
  4  2  1  0
  5  6  1  0
  5  4  1  0
  6  7  1  0
  7  8  1  0
  8  9  1  6
 10  8  1  0
 11 10  2  0
 12 13  1  0
 14 13  1  6
 14 16  1  0
 14 15  1  0
 15 10  1  0
 16 17  2  0
 19 18  1  0
 19 20  1  0
 20 21  1  6
 22 20  1  0
 22 23  1  6
 23 16  1  0
 24 25  1  0
 24 22  1  0
 26 24  2  0
M  END
$$$$
