RSI.pdb
     RDKit          3D

 26 25  0  0  1  0  0  0  0  0999 V2000
   26.1751  -34.0679  -13.2032 N   0  0  0  0  0  0  0  0  0  0  0  0
   25.5764  -32.8268  -13.5334 C   0  0  0  0  0  0  0  0  0  0  0  0
   25.6246  -32.3680  -14.7584 N   0  0  0  0  0  0  0  0  0  0  0  0
   24.9058  -32.0466  -12.5416 N   0  0  0  0  0  0  0  0  0  0  0  0
   24.9625  -32.3918  -11.1409 C   0  0  0  0  0  0  0  0  0  0  0  0
   23.6944  -33.1126  -10.7403 C   0  0  0  0  0  0  0  0  0  0  0  0
   23.8216  -33.5592   -9.2937 C   0  0  0  0  0  0  0  0  0  0  0  0
   24.4269  -34.9478   -9.3004 C   0  0  2  0  0  0  0  0  0  0  0  0
   23.3990  -35.9066   -9.7329 N   0  0  0  0  0  0  0  0  0  0  0  0
   24.8167  -35.2503   -7.9032 C   0  0  0  0  0  0  0  0  0  0  0  0
   23.9543  -35.6453   -7.0885 O   0  0  0  0  0  0  0  0  0  0  0  0
   25.2030  -31.4363  -14.9693 O   0  0  0  0  0  0  0  0  0  0  0  0
   28.3291  -36.9323   -6.2637 C   0  0  0  0  0  0  0  0  0  0  0  0
   28.0773  -35.5678   -5.9820 C   0  0  2  0  0  0  0  0  0  0  0  0
   26.5817  -35.4018   -6.0979 N   0  0  0  0  0  0  0  0  0  0  0  0
   26.1521  -35.1053   -7.4500 C   0  0  0  0  0  0  0  0  0  0  0  0
   26.1704  -34.3209   -5.1585 O   0  0  0  0  0  0  0  0  0  0  0  0
   26.3499  -33.1167   -5.4733 C   0  0  0  0  0  0  0  0  0  0  0  0
   21.4217  -34.2811   -2.8132 C   0  0  0  0  0  0  0  0  0  0  0  0
   22.7752  -33.9164   -3.3898 C   0  0  2  0  0  0  0  0  0  0  0  0
   23.8371  -33.8661   -2.3495 C   0  0  0  0  0  0  0  0  0  0  0  0
   23.4371  -32.8746   -1.2725 C   0  0  2  0  0  0  0  0  0  0  0  0
   25.1667  -33.5215   -2.9611 N   0  0  0  0  0  0  0  0  0  0  0  0
   25.5776  -34.5774   -3.9053 C   0  0  0  0  0  0  0  0  0  0  0  0
   26.2742  -33.4045   -1.9962 O   0  0  0  0  0  0  0  0  0  0  0  0
   26.5626  -32.1989   -1.4061 O   0  0  0  0  0  0  0  0  0  0  0  0
  2  1  1  0
  3  2  2  0
  4  2  1  0
  5  6  1  0
  5  4  1  0
  6  7  1  0
  7  8  1  0
  8  9  1  1
 10  8  1  0
 11 10  2  0
 12 13  1  0
 14 13  1  6
 14 16  1  0
 14 15  1  0
 15 10  1  0
 16 17  2  0
 19 18  1  0
 19 20  1  0
 20 21  1  1
 22 20  1  0
 22 23  1  6
 23 16  1  0
 24 25  1  0
 24 22  1  0
 26 24  2  0
M  END
$$$$
