RSI.pdb
     RDKit          3D

 26 25  0  0  1  0  0  0  0  0999 V2000
   15.1914  -16.2582  -19.4328 N   0  0  0  0  0  0  0  0  0  0  0  0
   16.1881  -16.6096  -20.3766 C   0  0  0  0  0  0  0  0  0  0  0  0
   15.8941  -17.3570  -21.4102 N   0  0  0  0  0  0  0  0  0  0  0  0
   17.5356  -16.1580  -20.2261 N   0  0  0  0  0  0  0  0  0  0  0  0
   17.9246  -15.2830  -19.1456 C   0  0  0  0  0  0  0  0  0  0  0  0
   19.4246  -15.0889  -19.1597 C   0  0  0  0  0  0  0  0  0  0  0  0
   19.8119  -14.1857  -18.0010 C   0  0  0  0  0  0  0  0  0  0  0  0
   21.3210  -14.0538  -18.0150 C   0  0  2  0  0  0  0  0  0  0  0  0
   21.9090  -15.3395  -17.6099 N   0  0  0  0  0  0  0  0  0  0  0  0
   21.6686  -13.0220  -17.0098 C   0  0  0  0  0  0  0  0  0  0  0  0
   21.0833  -13.0081  -15.9049 O   0  0  0  0  0  0  0  0  0  0  0  0
   16.6392  -17.5750  -22.1084 O   0  0  0  0  0  0  0  0  0  0  0  0
   24.5054   -9.3703  -15.6009 C   0  0  0  0  0  0  0  0  0  0  0  0
   24.2954  -10.3003  -16.6474 C   0  0  2  0  0  0  0  0  0  0  0  0
   22.9752  -10.9632  -16.3384 N   0  0  0  0  0  0  0  0  0  0  0  0
   22.6551  -12.0352  -17.2598 C   0  0  0  0  0  0  0  0  0  0  0  0
   21.9219   -9.9096  -16.3594 O   0  0  0  0  0  0  0  0  0  0  0  0
   21.4576   -9.5111  -17.4580 C   0  0  0  0  0  0  0  0  0  0  0  0
   17.1131  -10.0595  -15.2789 C   0  0  0  0  0  0  0  0  0  0  0  0
   18.4096   -9.4478  -15.7713 C   0  0  2  0  0  0  0  0  0  0  0  0
   19.1013   -8.6636  -14.7136 C   0  0  0  0  0  0  0  0  0  0  0  0
   18.2181   -7.5044  -14.2904 C   0  0  2  0  0  0  0  0  0  0  0  0
   20.4478   -8.1953  -15.1916 N   0  0  0  0  0  0  0  0  0  0  0  0
   21.4038   -9.3185  -15.1890 C   0  0  0  0  0  0  0  0  0  0  0  0
   21.0665   -7.1509  -14.3564 O   0  0  0  0  0  0  0  0  0  0  0  0
   20.7698   -5.8260  -14.5605 O   0  0  0  0  0  0  0  0  0  0  0  0
  2  1  1  0
  3  2  2  0
  4  2  1  0
  5  6  1  0
  5  4  1  0
  6  7  1  0
  7  8  1  0
  8  9  1  1
 10  8  1  0
 11 10  2  0
 12 13  1  0
 14 13  1  1
 14 16  1  0
 14 15  1  0
 15 10  1  0
 16 17  2  0
 19 18  1  0
 19 20  1  0
 20 21  1  1
 22 20  1  0
 22 23  1  6
 23 16  1  0
 24 25  1  0
 24 22  1  0
 26 24  2  0
M  END
$$$$
