RSI.pdb
     RDKit          3D

 26 25  0  0  1  0  0  0  0  0999 V2000
   23.2307  -20.6519  -16.9987 N   0  0  0  0  0  0  0  0  0  0  0  0
   22.7287  -19.3794  -16.6290 C   0  0  0  0  0  0  0  0  0  0  0  0
   21.4438  -19.1911  -16.4656 N   0  0  0  0  0  0  0  0  0  0  0  0
   23.6090  -18.2724  -16.4244 N   0  0  0  0  0  0  0  0  0  0  0  0
   25.0090  -18.3446  -16.7697 C   0  0  0  0  0  0  0  0  0  0  0  0
   25.7463  -19.1770  -15.7442 C   0  0  0  0  0  0  0  0  0  0  0  0
   25.5754  -18.5343  -14.3781 C   0  0  0  0  0  0  0  0  0  0  0  0
   26.7996  -18.8843  -13.5572 C   0  0  2  0  0  0  0  0  0  0  0  0
   27.3741  -20.1335  -14.0790 N   0  0  0  0  0  0  0  0  0  0  0  0
   26.3329  -19.1067  -12.1685 C   0  0  0  0  0  0  0  0  0  0  0  0
   25.9936  -18.1318  -11.4628 O   0  0  0  0  0  0  0  0  0  0  0  0
   21.1034  -18.2570  -16.1463 O   0  0  0  0  0  0  0  0  0  0  0  0
   26.0433  -22.9139  -10.8226 C   0  0  0  0  0  0  0  0  0  0  0  0
   25.2053  -22.0403  -10.0884 C   0  0  1  0  0  0  0  0  0  0  0  0
   25.8144  -20.6688  -10.2481 N   0  0  0  0  0  0  0  0  0  0  0  0
   26.2567  -20.4043  -11.6028 C   0  0  0  0  0  0  0  0  0  0  0  0
   26.9473  -20.5600   -9.2865 O   0  0  0  0  0  0  0  0  0  0  0  0
   28.1189  -20.8096   -9.6692 C   0  0  0  0  0  0  0  0  0  0  0  0
   29.7370  -18.0808   -4.5997 C   0  0  0  0  0  0  0  0  0  0  0  0
   29.2787  -19.3701   -5.2517 C   0  0  2  0  0  0  0  0  0  0  0  0
   28.2827  -19.1339   -6.3309 C   0  0  0  0  0  0  0  0  0  0  0  0
   27.1548  -18.2732   -5.7926 C   0  0  2  0  0  0  0  0  0  0  0  0
   27.7766  -20.4374   -6.8838 N   0  0  0  0  0  0  0  0  0  0  0  0
   26.7766  -20.1850   -7.9381 C   0  0  0  0  0  0  0  0  0  0  0  0
   27.1003  -21.3003   -5.8993 O   0  0  0  0  0  0  0  0  0  0  0  0
   27.8161  -21.9204   -4.9053 O   0  0  0  0  0  0  0  0  0  0  0  0
  2  1  1  0
  3  2  2  0
  4  2  1  0
  5  6  1  0
  5  4  1  0
  6  7  1  0
  7  8  1  0
  8  9  1  6
 10  8  1  0
 11 10  2  0
 12 13  1  0
 14 13  1  6
 14 16  1  0
 14 15  1  0
 15 10  1  0
 16 17  2  0
 19 18  1  0
 19 20  1  0
 20 21  1  6
 22 20  1  0
 22 23  1  1
 23 16  1  0
 24 25  1  0
 24 22  1  0
 26 24  2  0
M  END
$$$$
