RSI.pdb
     RDKit          3D

 26 25  0  0  1  0  0  0  0  0999 V2000
  456.0627 -562.6246  152.8778 N   0  0  0  0  0  0  0  0  0  0  0  0
  456.9870 -561.8869  152.0976 C   0  0  0  0  0  0  0  0  0  0  0  0
  457.6502 -562.4626  151.1272 N   0  0  0  0  0  0  0  0  0  0  0  0
  457.2181 -560.4987  152.3478 N   0  0  0  0  0  0  0  0  0  0  0  0
  456.6658 -559.4733  151.4948 C   0  0  0  0  0  0  0  0  0  0  0  0
  455.2122 -559.2452  151.8450 C   0  0  0  0  0  0  0  0  0  0  0  0
  454.3975 -559.2223  150.5628 C   0  0  0  0  0  0  0  0  0  0  0  0
  453.0470 -558.6224  150.8953 C   0  0  2  0  0  0  0  0  0  0  0  0
  453.0273 -558.2710  152.3233 N   0  0  0  0  0  0  0  0  0  0  0  0
  452.0370 -559.6761  150.6401 C   0  0  0  0  0  0  0  0  0  0  0  0
  450.9020 -559.5885  151.1574 O   0  0  0  0  0  0  0  0  0  0  0  0
  457.1216 -562.9065  150.3436 O   0  0  0  0  0  0  0  0  0  0  0  0
  451.8309 -563.8126  148.8213 C   0  0  0  0  0  0  0  0  0  0  0  0
  451.1288 -562.9545  149.7018 C   0  0  2  0  0  0  0  0  0  0  0  0
  451.2976 -561.5672  149.1319 N   0  0  0  0  0  0  0  0  0  0  0  0
  452.3157 -560.7975  149.8185 C   0  0  0  0  0  0  0  0  0  0  0  0
  449.9756 -560.8839  149.2005 O   0  0  0  0  0  0  0  0  0  0  0  0
  448.9174 -561.5585  149.1181 C   0  0  0  0  0  0  0  0  0  0  0  0
  450.4756 -556.4039  151.8861 C   0  0  0  0  0  0  0  0  0  0  0  0
  450.1991 -557.6685  151.0977 C   0  0  2  0  0  0  0  0  0  0  0  0
  448.7548 -557.8328  150.7829 C   0  0  0  0  0  0  0  0  0  0  0  0
  448.0125 -558.2515  152.0387 C   0  0  1  0  0  0  0  0  0  0  0  0
  448.5619 -558.8193  149.6646 N   0  0  0  0  0  0  0  0  0  0  0  0
  449.8391 -559.4891  149.3555 C   0  0  0  0  0  0  0  0  0  0  0  0
  448.1123 -558.2253  148.3931 O   0  0  0  0  0  0  0  0  0  0  0  0
  448.6996 -558.5876  147.2062 O   0  0  0  0  0  0  0  0  0  0  0  0
  2  1  1  0
  3  2  2  0
  4  2  1  0
  5  6  1  0
  5  4  1  0
  6  7  1  0
  7  8  1  0
  8  9  1  1
 10  8  1  0
 11 10  2  0
 12 13  1  0
 14 13  1  6
 14 16  1  0
 14 15  1  0
 15 10  1  0
 16 17  2  0
 19 18  1  0
 19 20  1  0
 20 21  1  6
 22 20  1  0
 22 23  1  1
 23 16  1  0
 24 25  1  0
 24 22  1  0
 26 24  2  0
M  END
$$$$
