RSI.pdb
     RDKit          3D

 26 25  0  0  1  0  0  0  0  0999 V2000
   25.4879  -25.5020  -19.0472 N   0  0  0  0  0  0  0  0  0  0  0  0
   26.5220  -25.0828  -19.9205 C   0  0  0  0  0  0  0  0  0  0  0  0
   27.0885  -25.9323  -20.7396 N   0  0  0  0  0  0  0  0  0  0  0  0
   26.9715  -23.7263  -19.9306 N   0  0  0  0  0  0  0  0  0  0  0  0
   26.4215  -22.7398  -19.0314 C   0  0  0  0  0  0  0  0  0  0  0  0
   26.8565  -23.0408  -17.6143 C   0  0  0  0  0  0  0  0  0  0  0  0
   27.3169  -21.7496  -16.9592 C   0  0  0  0  0  0  0  0  0  0  0  0
   27.7338  -22.0850  -15.5419 C   0  0  2  0  0  0  0  0  0  0  0  0
   28.5361  -23.3173  -15.5670 N   0  0  0  0  0  0  0  0  0  0  0  0
   26.4883  -22.3312  -14.7777 C   0  0  0  0  0  0  0  0  0  0  0  0
   25.6100  -23.0874  -15.2469 O   0  0  0  0  0  0  0  0  0  0  0  0
   27.8247  -25.5910  -21.3966 O   0  0  0  0  0  0  0  0  0  0  0  0
   25.6863  -20.1761  -11.3615 C   0  0  0  0  0  0  0  0  0  0  0  0
   25.2149  -21.5092  -11.2908 C   0  0  1  0  0  0  0  0  0  0  0  0
   25.0609  -21.9587  -12.7233 N   0  0  0  0  0  0  0  0  0  0  0  0
   26.2533  -21.7309  -13.5152 C   0  0  0  0  0  0  0  0  0  0  0  0
   23.8911  -21.2398  -13.3018 O   0  0  0  0  0  0  0  0  0  0  0  0
   24.0448  -20.0971  -13.8038 C   0  0  0  0  0  0  0  0  0  0  0  0
   21.2693  -22.4594  -17.3878 C   0  0  0  0  0  0  0  0  0  0  0  0
   21.7997  -21.7363  -16.1658 C   0  0  2  0  0  0  0  0  0  0  0  0
   20.8454  -21.7796  -15.0257 C   0  0  0  0  0  0  0  0  0  0  0  0
   19.5157  -21.1933  -15.4624 C   0  0  2  0  0  0  0  0  0  0  0  0
   21.4086  -21.0603  -13.8314 N   0  0  0  0  0  0  0  0  0  0  0  0
   22.5891  -21.7803  -13.3181 C   0  0  0  0  0  0  0  0  0  0  0  0
   20.4856  -20.9535  -12.6878 O   0  0  0  0  0  0  0  0  0  0  0  0
   19.6250  -19.8890  -12.5815 O   0  0  0  0  0  0  0  0  0  0  0  0
  2  1  1  0
  3  2  2  0
  4  2  1  0
  5  6  1  0
  5  4  1  0
  6  7  1  0
  7  8  1  0
  8  9  1  6
 10  8  1  0
 11 10  2  0
 12 13  1  0
 14 13  1  1
 14 16  1  0
 14 15  1  0
 15 10  1  0
 16 17  2  0
 19 18  1  0
 19 20  1  0
 20 21  1  1
 22 20  1  0
 22 23  1  6
 23 16  1  0
 24 25  1  0
 24 22  1  0
 26 24  2  0
M  END
$$$$
