RSI.pdb
     RDKit          3D

 26 25  0  0  1  0  0  0  0  0999 V2000
   22.8869  -18.9255  -17.2039 N   0  0  0  0  0  0  0  0  0  0  0  0
   21.5315  -18.8679  -16.7950 C   0  0  0  0  0  0  0  0  0  0  0  0
   20.5807  -19.3223  -17.5714 N   0  0  0  0  0  0  0  0  0  0  0  0
   21.1681  -18.3151  -15.5283 N   0  0  0  0  0  0  0  0  0  0  0  0
   22.0066  -18.4750  -14.3639 C   0  0  0  0  0  0  0  0  0  0  0  0
   21.4777  -19.6012  -13.5037 C   0  0  0  0  0  0  0  0  0  0  0  0
   22.4014  -19.7810  -12.3109 C   0  0  0  0  0  0  0  0  0  0  0  0
   23.5994  -20.5792  -12.7826 C   0  0  2  0  0  0  0  0  0  0  0  0
   23.1183  -21.7782  -13.4853 N   0  0  0  0  0  0  0  0  0  0  0  0
   24.3418  -20.9924  -11.5685 C   0  0  0  0  0  0  0  0  0  0  0  0
   23.7323  -21.5358  -10.6216 O   0  0  0  0  0  0  0  0  0  0  0  0
   19.5890  -19.2599  -17.2507 O   0  0  0  0  0  0  0  0  0  0  0  0
   28.3946  -20.4060  -11.4080 C   0  0  0  0  0  0  0  0  0  0  0  0
   27.9649  -21.5667  -10.7205 C   0  0  1  0  0  0  0  0  0  0  0  0
   26.5297  -21.2999  -10.3375 N   0  0  0  0  0  0  0  0  0  0  0  0
   25.7390  -20.7901  -11.4400 C   0  0  0  0  0  0  0  0  0  0  0  0
   26.5346  -20.3415   -9.1967 O   0  0  0  0  0  0  0  0  0  0  0  0
   26.0290  -19.1987   -9.3376 C   0  0  0  0  0  0  0  0  0  0  0  0
   27.1792  -19.3600   -3.1800 C   0  0  0  0  0  0  0  0  0  0  0  0
   27.5047  -18.9580   -4.6047 C   0  0  2  0  0  0  0  0  0  0  0  0
   27.0355  -19.9628   -5.5960 C   0  0  0  0  0  0  0  0  0  0  0  0
   27.4688  -21.3471   -5.1500 C   0  0  2  0  0  0  0  0  0  0  0  0
   27.5456  -19.6332   -6.9715 N   0  0  0  0  0  0  0  0  0  0  0  0
   27.0882  -20.6498   -7.9372 C   0  0  0  0  0  0  0  0  0  0  0  0
   29.0140  -19.6092   -7.0921 O   0  0  0  0  0  0  0  0  0  0  0  0
   29.6752  -20.5996   -7.7755 O   0  0  0  0  0  0  0  0  0  0  0  0
  2  1  1  0
  3  2  2  0
  4  2  1  0
  5  6  1  0
  5  4  1  0
  6  7  1  0
  7  8  1  0
  8  9  1  1
 10  8  1  0
 11 10  2  0
 12 13  1  0
 14 13  1  6
 14 16  1  0
 14 15  1  0
 15 10  1  0
 16 17  2  0
 19 18  1  0
 19 20  1  0
 20 21  1  6
 22 20  1  0
 22 23  1  6
 23 16  1  0
 24 25  1  0
 24 22  1  0
 26 24  2  0
M  END
$$$$
