RSI.pdb
     RDKit          3D

 26 25  0  0  1  0  0  0  0  0999 V2000
   18.9323  -19.6211  -13.8381 N   0  0  0  0  0  0  0  0  0  0  0  0
   19.4968  -18.9429  -14.9467 C   0  0  0  0  0  0  0  0  0  0  0  0
   19.0371  -17.7752  -15.3190 N   0  0  0  0  0  0  0  0  0  0  0  0
   20.5797  -19.5132  -15.6844 N   0  0  0  0  0  0  0  0  0  0  0  0
   21.7019  -20.1355  -15.0226 C   0  0  0  0  0  0  0  0  0  0  0  0
   22.6492  -19.0719  -14.5134 C   0  0  0  0  0  0  0  0  0  0  0  0
   22.7096  -19.1556  -12.9976 C   0  0  0  0  0  0  0  0  0  0  0  0
   23.9826  -19.8926  -12.6356 C   0  0  2  0  0  0  0  0  0  0  0  0
   24.4406  -20.6461  -13.8126 N   0  0  0  0  0  0  0  0  0  0  0  0
   23.6323  -20.8444  -11.5552 C   0  0  0  0  0  0  0  0  0  0  0  0
   23.1083  -21.9433  -11.8403 O   0  0  0  0  0  0  0  0  0  0  0  0
   19.4284  -17.3243  -16.1756 O   0  0  0  0  0  0  0  0  0  0  0  0
   24.5306  -19.8486   -7.7217 C   0  0  0  0  0  0  0  0  0  0  0  0
   24.4461  -21.2509   -7.8975 C   0  0  1  0  0  0  0  0  0  0  0  0
   23.5589  -21.4533   -9.1015 N   0  0  0  0  0  0  0  0  0  0  0  0
   23.8731  -20.5491  -10.1898 C   0  0  0  0  0  0  0  0  0  0  0  0
   22.1464  -21.2843   -8.6586 O   0  0  0  0  0  0  0  0  0  0  0  0
   21.5483  -20.1995   -8.8756 C   0  0  0  0  0  0  0  0  0  0  0  0
   16.8209  -23.0781   -9.5863 C   0  0  0  0  0  0  0  0  0  0  0  0
   17.7076  -22.6410   -8.4373 C   0  0  2  0  0  0  0  0  0  0  0  0
   19.1488  -22.6403   -8.8051 C   0  0  0  0  0  0  0  0  0  0  0  0
   19.5436  -24.0237   -9.2879 C   0  0  2  0  0  0  0  0  0  0  0  0
   19.9945  -22.1898   -7.6463 N   0  0  0  0  0  0  0  0  0  0  0  0
   21.4242  -22.2956   -7.9927 C   0  0  0  0  0  0  0  0  0  0  0  0
   19.8277  -22.9871   -6.4184 O   0  0  0  0  0  0  0  0  0  0  0  0
   18.7042  -22.8474   -5.6417 O   0  0  0  0  0  0  0  0  0  0  0  0
  2  1  1  0
  3  2  2  0
  4  2  1  0
  5  6  1  0
  5  4  1  0
  6  7  1  0
  7  8  1  0
  8  9  1  6
 10  8  1  0
 11 10  2  0
 12 13  1  0
 14 13  1  6
 14 16  1  0
 14 15  1  0
 15 10  1  0
 16 17  2  0
 19 18  1  0
 19 20  1  0
 20 21  1  6
 22 20  1  0
 22 23  1  1
 23 16  1  0
 24 25  1  0
 24 22  1  0
 26 24  2  0
M  END
$$$$
