RSI.pdb
     RDKit          3D

 26 25  0  0  1  0  0  0  0  0999 V2000
   18.9929  -26.1963  -15.7410 N   0  0  0  0  0  0  0  0  0  0  0  0
   17.5986  -26.1837  -15.9927 C   0  0  0  0  0  0  0  0  0  0  0  0
   17.1417  -26.2260  -17.2186 N   0  0  0  0  0  0  0  0  0  0  0  0
   16.6577  -26.1256  -14.9186 N   0  0  0  0  0  0  0  0  0  0  0  0
   17.0834  -26.1110  -13.5392 C   0  0  0  0  0  0  0  0  0  0  0  0
   17.5839  -27.4826  -13.1440 C   0  0  0  0  0  0  0  0  0  0  0  0
   17.9129  -27.4747  -11.6607 C   0  0  0  0  0  0  0  0  0  0  0  0
   19.2050  -26.7030  -11.4880 C   0  0  2  0  0  0  0  0  0  0  0  0
   20.3272  -27.5734  -11.8699 N   0  0  0  0  0  0  0  0  0  0  0  0
   19.3150  -26.3718  -10.0478 C   0  0  0  0  0  0  0  0  0  0  0  0
   19.6132  -27.2651   -9.2252 O   0  0  0  0  0  0  0  0  0  0  0  0
   16.1117  -26.1661  -17.3796 O   0  0  0  0  0  0  0  0  0  0  0  0
   18.4162  -22.6549   -9.0001 C   0  0  0  0  0  0  0  0  0  0  0  0
   19.1901  -23.1996   -7.9471 C   0  0  1  0  0  0  0  0  0  0  0  0
   19.1677  -24.6933   -8.1616 N   0  0  0  0  0  0  0  0  0  0  0  0
   19.0905  -25.0591   -9.5619 C   0  0  0  0  0  0  0  0  0  0  0  0
   18.0102  -25.2440   -7.4020 O   0  0  0  0  0  0  0  0  0  0  0  0
   16.9816  -25.6239   -8.0177 C   0  0  0  0  0  0  0  0  0  0  0  0
   16.6613  -28.2254   -2.2083 C   0  0  0  0  0  0  0  0  0  0  0  0
   16.2028  -27.3653   -3.3691 C   0  0  2  0  0  0  0  0  0  0  0  0
   17.3429  -26.8376   -4.1655 C   0  0  0  0  0  0  0  0  0  0  0  0
   18.3430  -26.1788   -3.2336 C   0  0  2  0  0  0  0  0  0  0  0  0
   16.8581  -25.8890   -5.2266 N   0  0  0  0  0  0  0  0  0  0  0  0
   18.0015  -25.3657   -5.9974 C   0  0  0  0  0  0  0  0  0  0  0  0
   16.1541  -24.7010   -4.7126 O   0  0  0  0  0  0  0  0  0  0  0  0
   14.8797  -24.8058   -4.2127 O   0  0  0  0  0  0  0  0  0  0  0  0
  2  1  1  0
  3  2  2  0
  4  2  1  0
  5  6  1  0
  5  4  1  0
  6  7  1  0
  7  8  1  0
  8  9  1  1
 10  8  1  0
 11 10  2  0
 12 13  1  0
 14 13  1  6
 14 16  1  0
 14 15  1  0
 15 10  1  0
 16 17  2  0
 19 18  1  0
 19 20  1  0
 20 21  1  6
 22 20  1  0
 22 23  1  1
 23 16  1  0
 24 25  1  0
 24 22  1  0
 26 24  2  0
M  END
$$$$
