CGY.pdb
     RDKit          3D

 23 23  0  0  1  0  0  0  0  0999 V2000
   28.3696  -21.8581  -16.4523 N   0  0  0  0  0  0  0  0  0  0  0  0
   27.1562  -21.0959  -16.6530 C   0  0  1  0  0  0  0  0  0  0  0  0
   26.5290  -21.4125  -18.0072 C   0  0  0  0  0  0  0  0  0  0  0  0
   27.4850  -22.7191  -18.7953 S   0  0  0  0  0  0  0  0  0  0  0  0
   26.1728  -21.4842  -15.6216 C   0  0  0  0  0  0  0  0  0  0  0  0
   25.7236  -22.6360  -15.5856 O   0  0  0  0  0  0  0  0  0  0  0  0
   25.7137  -20.5516  -14.6430 N   0  0  0  0  0  0  0  0  0  0  0  0
   24.8332  -20.8967  -13.5693 C   0  0  0  0  0  0  0  0  0  0  0  0
   25.5311  -21.2071  -12.3162 C   0  0  0  0  0  0  0  0  0  0  0  0
   26.1712  -22.2781  -12.2216 O   0  0  0  0  0  0  0  0  0  0  0  0
   29.2202  -20.2050   -4.3773 O   0  0  0  0  0  0  0  0  0  0  0  0
   28.6793  -20.0575   -5.6492 C   0  0  0  0  0  0  0  0  0  0  0  0
   27.6321  -19.1888   -5.8730 C   0  0  0  0  0  0  0  0  0  0  0  0
   27.1064  -19.0535   -7.1401 C   0  0  0  0  0  0  0  0  0  0  0  0
   27.6219  -19.7850   -8.1968 C   0  0  0  0  0  0  0  0  0  0  0  0
   27.0693  -19.6468   -9.5423 C   0  0  0  0  0  0  0  0  0  0  0  0
   26.0413  -20.6901   -9.8987 C   0  0  2  0  0  0  0  0  0  0  0  0
   25.5099  -20.3377  -11.2008 N   0  0  0  0  0  0  0  0  0  0  0  0
   24.9869  -20.8579   -8.9026 C   0  0  0  0  0  0  0  0  0  0  0  0
   25.0743  -21.5933   -7.7552 O   0  0  0  0  0  0  0  0  0  0  0  0
   28.6729  -20.6517   -7.9529 C   0  0  0  0  0  0  0  0  0  0  0  0
   29.2101  -20.7974   -6.6865 C   0  0  0  0  0  0  0  0  0  0  0  0
   23.8787  -20.2668   -9.1154 O   0  0  0  0  0  0  0  0  0  0  0  0
  2  5  1  0
  2  1  1  1
  3  2  1  0
  4  3  1  0
  5  6  2  0
  7  8  1  0
  7  5  1  0
  9 10  2  0
  9  8  1  0
 11 12  1  0
 12 22  2  0
 13 14  2  0
 13 12  1  0
 14 15  1  0
 15 16  1  0
 15 21  2  0
 17 18  1  0
 17 16  1  1
 18  9  1  0
 19 17  1  0
 20 19  1  0
 22 21  1  0
 23 19  2  0
M  END
$$$$
