CGY.pdb
     RDKit          3D

 23 23  0  0  1  0  0  0  0  0999 V2000
   26.9999  -16.9367  -17.3285 N   0  0  0  0  0  0  0  0  0  0  0  0
   27.1646  -17.0960  -15.8998 C   0  0  1  0  0  0  0  0  0  0  0  0
   26.1598  -16.2401  -15.1346 C   0  0  0  0  0  0  0  0  0  0  0  0
   26.8348  -14.5806  -14.9528 S   0  0  0  0  0  0  0  0  0  0  0  0
   26.8923  -18.5029  -15.5420 C   0  0  0  0  0  0  0  0  0  0  0  0
   25.8732  -19.0690  -15.9551 O   0  0  0  0  0  0  0  0  0  0  0  0
   27.7881  -19.2470  -14.7160 N   0  0  0  0  0  0  0  0  0  0  0  0
   27.6570  -19.3501  -13.2950 C   0  0  0  0  0  0  0  0  0  0  0  0
   26.6509  -20.3300  -12.8692 C   0  0  0  0  0  0  0  0  0  0  0  0
   26.7525  -21.5169  -13.2520 O   0  0  0  0  0  0  0  0  0  0  0  0
   29.6084  -20.3776   -7.4933 O   0  0  0  0  0  0  0  0  0  0  0  0
   28.3604  -20.4435   -8.1017 C   0  0  0  0  0  0  0  0  0  0  0  0
   27.3472  -19.5871   -7.7255 C   0  0  0  0  0  0  0  0  0  0  0  0
   26.1148  -19.6648   -8.3383 C   0  0  0  0  0  0  0  0  0  0  0  0
   25.8822  -20.5992   -9.3334 C   0  0  0  0  0  0  0  0  0  0  0  0
   24.5783  -20.6873   -9.9868 C   0  0  0  0  0  0  0  0  0  0  0  0
   24.6462  -20.9559  -11.4686 C   0  0  2  0  0  0  0  0  0  0  0  0
   25.5610  -19.9849  -12.0364 N   0  0  0  0  0  0  0  0  0  0  0  0
   23.3495  -20.9465  -12.1398 C   0  0  0  0  0  0  0  0  0  0  0  0
   22.3366  -21.8415  -11.9449 O   0  0  0  0  0  0  0  0  0  0  0  0
   26.9112  -21.4501   -9.6975 C   0  0  0  0  0  0  0  0  0  0  0  0
   28.1527  -21.3832   -9.0910 C   0  0  0  0  0  0  0  0  0  0  0  0
   23.1341  -20.0208  -12.9880 O   0  0  0  0  0  0  0  0  0  0  0  0
  2  5  1  0
  2  1  1  6
  3  2  1  0
  4  3  1  0
  5  6  2  0
  7  8  1  0
  7  5  1  0
  9 10  2  0
  9  8  1  0
 11 12  1  0
 12 22  2  0
 13 14  2  0
 13 12  1  0
 14 15  1  0
 15 16  1  0
 15 21  2  0
 17 18  1  0
 17 16  1  1
 18  9  1  0
 19 17  1  0
 20 19  1  0
 22 21  1  0
 23 19  2  0
M  END
$$$$
