CGY.pdb
     RDKit          3D

 23 23  0  0  1  0  0  0  0  0999 V2000
   22.4481  -20.6957  -15.9638 N   0  0  0  0  0  0  0  0  0  0  0  0
   22.6959  -21.1506  -14.6127 C   0  0  1  0  0  0  0  0  0  0  0  0
   21.9867  -22.4741  -14.3426 C   0  0  0  0  0  0  0  0  0  0  0  0
   20.2393  -22.1455  -14.0581 S   0  0  0  0  0  0  0  0  0  0  0  0
   24.1432  -21.3966  -14.4500 C   0  0  0  0  0  0  0  0  0  0  0  0
   24.7093  -22.2715  -15.1160 O   0  0  0  0  0  0  0  0  0  0  0  0
   24.9271  -20.6395  -13.5277 N   0  0  0  0  0  0  0  0  0  0  0  0
   26.2752  -20.9663  -13.1768 C   0  0  0  0  0  0  0  0  0  0  0  0
   26.4505  -21.2793  -11.7537 C   0  0  0  0  0  0  0  0  0  0  0  0
   26.2120  -22.4388  -11.3484 O   0  0  0  0  0  0  0  0  0  0  0  0
   28.8820  -19.8868   -3.3204 O   0  0  0  0  0  0  0  0  0  0  0  0
   28.6992  -19.8303   -4.6971 C   0  0  0  0  0  0  0  0  0  0  0  0
   29.6650  -20.3105   -5.5563 C   0  0  0  0  0  0  0  0  0  0  0  0
   29.4691  -20.2474   -6.9193 C   0  0  0  0  0  0  0  0  0  0  0  0
   28.3061  -19.7036   -7.4379 C   0  0  0  0  0  0  0  0  0  0  0  0
   28.0921  -19.6332   -8.8816 C   0  0  0  0  0  0  0  0  0  0  0  0
   27.0521  -20.5933   -9.4000 C   0  0  2  0  0  0  0  0  0  0  0  0
   26.8818  -20.3154  -10.8128 N   0  0  0  0  0  0  0  0  0  0  0  0
   25.7848  -20.5531   -8.6760 C   0  0  0  0  0  0  0  0  0  0  0  0
   25.4614  -21.2991   -7.5788 O   0  0  0  0  0  0  0  0  0  0  0  0
   27.3483  -19.2267   -6.5601 C   0  0  0  0  0  0  0  0  0  0  0  0
   27.5316  -19.2838   -5.1902 C   0  0  0  0  0  0  0  0  0  0  0  0
   24.8914  -19.7501   -9.1003 O   0  0  0  0  0  0  0  0  0  0  0  0
  2  5  1  0
  2  1  1  6
  3  2  1  0
  4  3  1  0
  5  6  2  0
  7  8  1  0
  7  5  1  0
  9 10  2  0
  9  8  1  0
 11 12  1  0
 12 22  2  0
 13 14  2  0
 13 12  1  0
 14 15  1  0
 15 16  1  0
 15 21  2  0
 17 18  1  0
 17 16  1  1
 18  9  1  0
 19 17  1  0
 20 19  1  0
 22 21  1  0
 23 19  2  0
M  END
$$$$
