CGY.pdb
     RDKit          3D

 23 23  0  0  1  0  0  0  0  0999 V2000
   18.1559  -11.6790  -16.6280 N   0  0  0  0  0  0  0  0  0  0  0  0
   18.5599  -11.6657  -18.0174 C   0  0  1  0  0  0  0  0  0  0  0  0
   17.3598  -11.4475  -18.9338 C   0  0  0  0  0  0  0  0  0  0  0  0
   17.7749  -12.0446  -20.5812 S   0  0  0  0  0  0  0  0  0  0  0  0
   19.4804  -10.5315  -18.2358 C   0  0  0  0  0  0  0  0  0  0  0  0
   20.1336  -10.4467  -19.2826 O   0  0  0  0  0  0  0  0  0  0  0  0
   19.6438   -9.5069  -17.2552 N   0  0  0  0  0  0  0  0  0  0  0  0
   20.4073   -8.3162  -17.4712 C   0  0  0  0  0  0  0  0  0  0  0  0
   20.3803   -7.3888  -16.3341 C   0  0  0  0  0  0  0  0  0  0  0  0
   19.4077   -7.4137  -15.5473 O   0  0  0  0  0  0  0  0  0  0  0  0
   25.6252  -10.3512  -15.5481 O   0  0  0  0  0  0  0  0  0  0  0  0
   24.7776   -9.3303  -15.1341 C   0  0  0  0  0  0  0  0  0  0  0  0
   24.9345   -8.0467  -15.6129 C   0  0  0  0  0  0  0  0  0  0  0  0
   24.0859   -7.0449  -15.1928 C   0  0  0  0  0  0  0  0  0  0  0  0
   23.0716   -7.3155  -14.2898 C   0  0  0  0  0  0  0  0  0  0  0  0
   22.1688   -6.2584  -13.8400 C   0  0  0  0  0  0  0  0  0  0  0  0
   21.4347   -5.5568  -14.9541 C   0  0  2  0  0  0  0  0  0  0  0  0
   21.4179   -6.4596  -16.0885 N   0  0  0  0  0  0  0  0  0  0  0  0
   21.9815   -4.2483  -15.3018 C   0  0  0  0  0  0  0  0  0  0  0  0
   22.5840   -3.9162  -16.4815 O   0  0  0  0  0  0  0  0  0  0  0  0
   22.9297   -8.6097  -13.8203 C   0  0  0  0  0  0  0  0  0  0  0  0
   23.7741   -9.6246  -14.2334 C   0  0  0  0  0  0  0  0  0  0  0  0
   21.8928   -3.3242  -14.4295 O   0  0  0  0  0  0  0  0  0  0  0  0
  2  5  1  0
  2  1  1  1
  3  2  1  0
  4  3  1  0
  5  6  2  0
  7  8  1  0
  7  5  1  0
  9 10  2  0
  9  8  1  0
 11 12  1  0
 12 22  2  0
 13 14  2  0
 13 12  1  0
 14 15  1  0
 15 16  1  0
 15 21  2  0
 17 18  1  0
 17 16  1  1
 18  9  1  0
 19 17  1  0
 20 19  1  0
 22 21  1  0
 23 19  2  0
M  END
$$$$
