CGY.pdb
     RDKit          3D

 23 23  0  0  1  0  0  0  0  0999 V2000
   26.9671  -17.8663  -17.8259 N   0  0  0  0  0  0  0  0  0  0  0  0
   27.2332  -16.8840  -16.7973 C   0  0  1  0  0  0  0  0  0  0  0  0
   26.5843  -15.5460  -17.1378 C   0  0  0  0  0  0  0  0  0  0  0  0
   26.9560  -14.3726  -15.8234 S   0  0  0  0  0  0  0  0  0  0  0  0
   26.6302  -17.3449  -15.5302 C   0  0  0  0  0  0  0  0  0  0  0  0
   25.4229  -17.6063  -15.4688 O   0  0  0  0  0  0  0  0  0  0  0  0
   27.4141  -17.5018  -14.3473 N   0  0  0  0  0  0  0  0  0  0  0  0
   26.8629  -17.8238  -13.0668 C   0  0  0  0  0  0  0  0  0  0  0  0
   26.4597  -19.2291  -12.9393 C   0  0  0  0  0  0  0  0  0  0  0  0
   26.5958  -19.9958  -13.9187 O   0  0  0  0  0  0  0  0  0  0  0  0
   29.3822  -19.6398   -6.7347 O   0  0  0  0  0  0  0  0  0  0  0  0
   28.3492  -20.0565   -7.5661 C   0  0  0  0  0  0  0  0  0  0  0  0
   27.0835  -19.5243   -7.4381 C   0  0  0  0  0  0  0  0  0  0  0  0
   26.0694  -19.9478   -8.2701 C   0  0  0  0  0  0  0  0  0  0  0  0
   26.3095  -20.9077   -9.2388 C   0  0  0  0  0  0  0  0  0  0  0  0
   25.2391  -21.3615  -10.1238 C   0  0  0  0  0  0  0  0  0  0  0  0
   25.5136  -21.1410  -11.5896 C   0  0  2  0  0  0  0  0  0  0  0  0
   25.9186  -19.7574  -11.7441 N   0  0  0  0  0  0  0  0  0  0  0  0
   24.3995  -21.4882  -12.4672 C   0  0  0  0  0  0  0  0  0  0  0  0
   23.4088  -20.6444  -12.8813 O   0  0  0  0  0  0  0  0  0  0  0  0
   27.5860  -21.4303   -9.3523 C   0  0  0  0  0  0  0  0  0  0  0  0
   28.6130  -21.0145   -8.5241 C   0  0  0  0  0  0  0  0  0  0  0  0
   24.3377  -22.6880  -12.8910 O   0  0  0  0  0  0  0  0  0  0  0  0
  2  5  1  0
  2  1  1  6
  3  2  1  0
  4  3  1  0
  5  6  2  0
  7  8  1  0
  7  5  1  0
  9 10  2  0
  9  8  1  0
 11 12  1  0
 12 22  2  0
 13 14  2  0
 13 12  1  0
 14 15  1  0
 15 16  1  0
 15 21  2  0
 17 18  1  0
 17 16  1  1
 18  9  1  0
 19 17  1  0
 20 19  1  0
 22 21  1  0
 23 19  2  0
M  END
$$$$
