CGY.pdb
     RDKit          3D

 23 23  0  0  1  0  0  0  0  0999 V2000
   26.9294  -20.3356  -16.0676 N   0  0  0  0  0  0  0  0  0  0  0  0
   26.7727  -21.7243  -15.6922 C   0  0  1  0  0  0  0  0  0  0  0  0
   28.1165  -22.3468  -15.3259 C   0  0  0  0  0  0  0  0  0  0  0  0
   29.3253  -21.8911  -16.5803 S   0  0  0  0  0  0  0  0  0  0  0  0
   25.9207  -21.7998  -14.4881 C   0  0  0  0  0  0  0  0  0  0  0  0
   25.6660  -22.8924  -13.9676 O   0  0  0  0  0  0  0  0  0  0  0  0
   25.3692  -20.6253  -13.8924 N   0  0  0  0  0  0  0  0  0  0  0  0
   24.5667  -20.6382  -12.7079 C   0  0  0  0  0  0  0  0  0  0  0  0
   25.3032  -21.0461  -11.5059 C   0  0  0  0  0  0  0  0  0  0  0  0
   25.5551  -22.2583  -11.3246 O   0  0  0  0  0  0  0  0  0  0  0  0
   29.4700  -19.9378   -3.7247 O   0  0  0  0  0  0  0  0  0  0  0  0
   28.9457  -19.8176   -5.0064 C   0  0  0  0  0  0  0  0  0  0  0  0
   29.4547  -20.5635   -6.0486 C   0  0  0  0  0  0  0  0  0  0  0  0
   28.9241  -20.4331   -7.3141 C   0  0  0  0  0  0  0  0  0  0  0  0
   27.8793  -19.5560   -7.5514 C   0  0  0  0  0  0  0  0  0  0  0  0
   27.3124  -19.4126   -8.8904 C   0  0  0  0  0  0  0  0  0  0  0  0
   26.3405  -20.5005   -9.2701 C   0  0  2  0  0  0  0  0  0  0  0  0
   25.7441  -20.1170  -10.5348 N   0  0  0  0  0  0  0  0  0  0  0  0
   25.3331  -20.7867   -8.2525 C   0  0  0  0  0  0  0  0  0  0  0  0
   24.0361  -20.3594   -8.2625 O   0  0  0  0  0  0  0  0  0  0  0  0
   27.3816  -18.8159   -6.4931 C   0  0  0  0  0  0  0  0  0  0  0  0
   27.9045  -18.9367   -5.2181 C   0  0  0  0  0  0  0  0  0  0  0  0
   25.6883  -21.5008   -7.2592 O   0  0  0  0  0  0  0  0  0  0  0  0
  2  5  1  0
  2  1  1  1
  3  2  1  0
  4  3  1  0
  5  6  2  0
  7  8  1  0
  7  5  1  0
  9 10  2  0
  9  8  1  0
 11 12  1  0
 12 22  2  0
 13 14  2  0
 13 12  1  0
 14 15  1  0
 15 16  1  0
 15 21  2  0
 17 18  1  0
 17 16  1  1
 18  9  1  0
 19 17  1  0
 20 19  1  0
 22 21  1  0
 23 19  2  0
M  END
$$$$
