CGY.pdb
     RDKit          3D

 23 23  0  0  1  0  0  0  0  0999 V2000
   24.7850  -27.5389  -18.2572 N   0  0  0  0  0  0  0  0  0  0  0  0
   25.6327  -27.4011  -17.0927 C   0  0  1  0  0  0  0  0  0  0  0  0
   27.0049  -28.0209  -17.3387 C   0  0  0  0  0  0  0  0  0  0  0  0
   26.9338  -29.7690  -16.9126 S   0  0  0  0  0  0  0  0  0  0  0  0
   25.8504  -25.9643  -16.8283 C   0  0  0  0  0  0  0  0  0  0  0  0
   26.0361  -25.1759  -17.7629 O   0  0  0  0  0  0  0  0  0  0  0  0
   25.8534  -25.4450  -15.4985 N   0  0  0  0  0  0  0  0  0  0  0  0
   26.1479  -24.0816  -15.1796 C   0  0  0  0  0  0  0  0  0  0  0  0
   24.9553  -23.2315  -15.0850 C   0  0  0  0  0  0  0  0  0  0  0  0
   23.8243  -23.7455  -15.2340 O   0  0  0  0  0  0  0  0  0  0  0  0
   25.0628  -21.1986   -8.3629 O   0  0  0  0  0  0  0  0  0  0  0  0
   24.8605  -20.8627   -9.6964 C   0  0  0  0  0  0  0  0  0  0  0  0
   23.5924  -20.6061  -10.1736 C   0  0  0  0  0  0  0  0  0  0  0  0
   23.4079  -20.2741  -11.4987 C   0  0  0  0  0  0  0  0  0  0  0  0
   24.4887  -20.1951  -12.3608 C   0  0  0  0  0  0  0  0  0  0  0  0
   24.3002  -19.8442  -13.7665 C   0  0  0  0  0  0  0  0  0  0  0  0
   23.8709  -20.9960  -14.6391 C   0  0  2  0  0  0  0  0  0  0  0  0
   25.0324  -21.8424  -14.8300 N   0  0  0  0  0  0  0  0  0  0  0  0
   23.2690  -20.5955  -15.9078 C   0  0  0  0  0  0  0  0  0  0  0  0
   21.9711  -20.2157  -16.0977 O   0  0  0  0  0  0  0  0  0  0  0  0
   25.7536  -20.4561  -11.8636 C   0  0  0  0  0  0  0  0  0  0  0  0
   25.9533  -20.7903  -10.5362 C   0  0  0  0  0  0  0  0  0  0  0  0
   24.0170  -20.5974  -16.9390 O   0  0  0  0  0  0  0  0  0  0  0  0
  2  5  1  0
  2  1  1  6
  3  2  1  0
  4  3  1  0
  5  6  2  0
  7  8  1  0
  7  5  1  0
  9 10  2  0
  9  8  1  0
 11 12  1  0
 12 22  2  0
 13 14  2  0
 13 12  1  0
 14 15  1  0
 15 16  1  0
 15 21  2  0
 17 18  1  0
 17 16  1  6
 18  9  1  0
 19 17  1  0
 20 19  1  0
 22 21  1  0
 23 19  2  0
M  END
$$$$
