CGY.pdb
     RDKit          3D

 23 23  0  0  1  0  0  0  0  0999 V2000
   27.7380  -17.8064  -15.9721 N   0  0  0  0  0  0  0  0  0  0  0  0
   26.7194  -16.8510  -15.5936 C   0  0  1  0  0  0  0  0  0  0  0  0
   26.8022  -15.5937  -16.4537 C   0  0  0  0  0  0  0  0  0  0  0  0
   27.9193  -14.4245  -15.6616 S   0  0  0  0  0  0  0  0  0  0  0  0
   25.3908  -17.4500  -15.8334 C   0  0  0  0  0  0  0  0  0  0  0  0
   24.9695  -17.6003  -16.9864 O   0  0  0  0  0  0  0  0  0  0  0  0
   24.5585  -17.8704  -14.7522 N   0  0  0  0  0  0  0  0  0  0  0  0
   23.2332  -18.3819  -14.9234 C   0  0  0  0  0  0  0  0  0  0  0  0
   23.1656  -19.8479  -14.9148 C   0  0  0  0  0  0  0  0  0  0  0  0
   23.9552  -20.5009  -15.6329 O   0  0  0  0  0  0  0  0  0  0  0  0
   26.8643  -20.2951  -10.0157 O   0  0  0  0  0  0  0  0  0  0  0  0
   25.7462  -20.8152  -10.6570 C   0  0  0  0  0  0  0  0  0  0  0  0
   25.8829  -21.7249  -11.6844 C   0  0  0  0  0  0  0  0  0  0  0  0
   24.7644  -22.2317  -12.3107 C   0  0  0  0  0  0  0  0  0  0  0  0
   23.4976  -21.8348  -11.9169 C   0  0  0  0  0  0  0  0  0  0  0  0
   22.3078  -22.3677  -12.5766 C   0  0  0  0  0  0  0  0  0  0  0  0
   22.1959  -22.0064  -14.0358 C   0  0  2  0  0  0  0  0  0  0  0  0
   22.2361  -20.5596  -14.1211 N   0  0  0  0  0  0  0  0  0  0  0  0
   21.0226  -22.5633  -14.7032 C   0  0  0  0  0  0  0  0  0  0  0  0
   20.8721  -23.8549  -15.1202 O   0  0  0  0  0  0  0  0  0  0  0  0
   23.3803  -20.9211  -10.8840 C   0  0  0  0  0  0  0  0  0  0  0  0
   24.4941  -20.4043  -10.2467 C   0  0  0  0  0  0  0  0  0  0  0  0
   20.0432  -21.7783  -14.9209 O   0  0  0  0  0  0  0  0  0  0  0  0
  2  5  1  0
  2  1  1  6
  3  2  1  0
  4  3  1  0
  5  6  2  0
  7  8  1  0
  7  5  1  0
  9 10  2  0
  9  8  1  0
 11 12  1  0
 12 22  2  0
 13 14  2  0
 13 12  1  0
 14 15  1  0
 15 16  1  0
 15 21  2  0
 17 18  1  0
 17 16  1  1
 18  9  1  0
 19 17  1  0
 20 19  1  0
 22 21  1  0
 23 19  2  0
M  END
$$$$
