CGY.pdb
     RDKit          3D

 23 23  0  0  1  0  0  0  0  0999 V2000
   26.1068  -21.8561  -18.1853 N   0  0  0  0  0  0  0  0  0  0  0  0
   25.1346  -20.8672  -17.7723 C   0  0  1  0  0  0  0  0  0  0  0  0
   23.7198  -21.4356  -17.8259 C   0  0  0  0  0  0  0  0  0  0  0  0
   23.4617  -22.1913  -19.4398 S   0  0  0  0  0  0  0  0  0  0  0  0
   25.3972  -20.4980  -16.3665 C   0  0  0  0  0  0  0  0  0  0  0  0
   26.2157  -21.1355  -15.6931 O   0  0  0  0  0  0  0  0  0  0  0  0
   24.7212  -19.4042  -15.7461 N   0  0  0  0  0  0  0  0  0  0  0  0
   25.0340  -18.9172  -14.4376 C   0  0  0  0  0  0  0  0  0  0  0  0
   24.9137  -19.9368  -13.3889 C   0  0  0  0  0  0  0  0  0  0  0  0
   23.9142  -20.6895  -13.3794 O   0  0  0  0  0  0  0  0  0  0  0  0
   27.3462  -18.7099   -5.5946 O   0  0  0  0  0  0  0  0  0  0  0  0
   27.2965  -19.3290   -6.8381 C   0  0  0  0  0  0  0  0  0  0  0  0
   27.5502  -20.6786   -6.9638 C   0  0  0  0  0  0  0  0  0  0  0  0
   27.4971  -21.2782   -8.2038 C   0  0  0  0  0  0  0  0  0  0  0  0
   27.1898  -20.5353   -9.3313 C   0  0  0  0  0  0  0  0  0  0  0  0
   27.1322  -21.1643  -10.6488 C   0  0  0  0  0  0  0  0  0  0  0  0
   25.7820  -21.0830  -11.3142 C   0  0  2  0  0  0  0  0  0  0  0  0
   25.8898  -20.1052  -12.3793 N   0  0  0  0  0  0  0  0  0  0  0  0
   24.6813  -20.7829  -10.4028 C   0  0  0  0  0  0  0  0  0  0  0  0
   24.1360  -21.6405   -9.4906 O   0  0  0  0  0  0  0  0  0  0  0  0
   26.9383  -19.1822   -9.1855 C   0  0  0  0  0  0  0  0  0  0  0  0
   26.9881  -18.5676   -7.9472 C   0  0  0  0  0  0  0  0  0  0  0  0
   24.1765  -19.6145  -10.4566 O   0  0  0  0  0  0  0  0  0  0  0  0
  2  5  1  0
  2  1  1  1
  3  2  1  0
  4  3  1  0
  5  6  2  0
  7  8  1  0
  7  5  1  0
  9 10  2  0
  9  8  1  0
 11 12  1  0
 12 22  2  0
 13 14  2  0
 13 12  1  0
 14 15  1  0
 15 16  1  0
 15 21  2  0
 17 18  1  0
 17 16  1  1
 18  9  1  0
 19 17  1  0
 20 19  1  0
 22 21  1  0
 23 19  2  0
M  END
$$$$
