CGY.pdb
     RDKit          3D

 23 23  0  0  1  0  0  0  0  0999 V2000
   20.4057  -23.0807  -17.1829 N   0  0  0  0  0  0  0  0  0  0  0  0
   20.7105  -22.8811  -15.7826 C   0  0  1  0  0  0  0  0  0  0  0  0
   21.2333  -21.4698  -15.5324 C   0  0  0  0  0  0  0  0  0  0  0  0
   22.9440  -21.3807  -16.0876 S   0  0  0  0  0  0  0  0  0  0  0  0
   19.4671  -23.0249  -14.9985 C   0  0  0  0  0  0  0  0  0  0  0  0
   18.5446  -22.2119  -15.1311 O   0  0  0  0  0  0  0  0  0  0  0  0
   19.2923  -24.0965  -14.0715 N   0  0  0  0  0  0  0  0  0  0  0  0
   18.2596  -24.1290  -13.0816 C   0  0  0  0  0  0  0  0  0  0  0  0
   18.7232  -24.5865  -11.7665 C   0  0  0  0  0  0  0  0  0  0  0  0
   19.8378  -25.1470  -11.6717 O   0  0  0  0  0  0  0  0  0  0  0  0
   22.1247  -19.6745  -10.8411 O   0  0  0  0  0  0  0  0  0  0  0  0
   21.2257  -20.5764  -10.2839 C   0  0  0  0  0  0  0  0  0  0  0  0
   19.9419  -20.6859  -10.7750 C   0  0  0  0  0  0  0  0  0  0  0  0
   19.0619  -21.5851  -10.2118 C   0  0  0  0  0  0  0  0  0  0  0  0
   19.4558  -22.3843   -9.1517 C   0  0  0  0  0  0  0  0  0  0  0  0
   18.5282  -23.3391   -8.5497 C   0  0  0  0  0  0  0  0  0  0  0  0
   18.4643  -24.6689   -9.2568 C   0  0  2  0  0  0  0  0  0  0  0  0
   17.9549  -24.4184  -10.5909 N   0  0  0  0  0  0  0  0  0  0  0  0
   17.6863  -25.6852   -8.5539 C   0  0  0  0  0  0  0  0  0  0  0  0
   18.1238  -26.4580   -7.5164 O   0  0  0  0  0  0  0  0  0  0  0  0
   20.7482  -22.2602   -8.6724 C   0  0  0  0  0  0  0  0  0  0  0  0
   21.6416  -21.3620   -9.2280 C   0  0  0  0  0  0  0  0  0  0  0  0
   16.4865  -25.8756   -8.9375 O   0  0  0  0  0  0  0  0  0  0  0  0
  2  5  1  0
  2  1  1  6
  3  2  1  0
  4  3  1  0
  5  6  2  0
  7  8  1  0
  7  5  1  0
  9 10  2  0
  9  8  1  0
 11 12  1  0
 12 22  2  0
 13 14  2  0
 13 12  1  0
 14 15  1  0
 15 16  1  0
 15 21  2  0
 17 18  1  0
 17 16  1  1
 18  9  1  0
 19 17  1  0
 20 19  1  0
 22 21  1  0
 23 19  2  0
M  END
$$$$
