CGY.pdb
     RDKit          3D

 23 23  0  0  1  0  0  0  0  0999 V2000
   20.2014  -17.3514  -16.8501 N   0  0  0  0  0  0  0  0  0  0  0  0
   19.0688  -16.4555  -16.9405 C   0  0  1  0  0  0  0  0  0  0  0  0
   17.8742  -17.0041  -16.1662 C   0  0  0  0  0  0  0  0  0  0  0  0
   17.5133  -18.6647  -16.7616 S   0  0  0  0  0  0  0  0  0  0  0  0
   19.4299  -15.1657  -16.3179 C   0  0  0  0  0  0  0  0  0  0  0  0
   19.8835  -15.1297  -15.1679 O   0  0  0  0  0  0  0  0  0  0  0  0
   19.2683  -13.9314  -17.0170 N   0  0  0  0  0  0  0  0  0  0  0  0
   19.7239  -12.6706  -16.5170 C   0  0  0  0  0  0  0  0  0  0  0  0
   19.5327  -11.5627  -17.4603 C   0  0  0  0  0  0  0  0  0  0  0  0
   19.6919  -11.7671  -18.6844 O   0  0  0  0  0  0  0  0  0  0  0  0
   15.9780   -4.5849  -21.2778 O   0  0  0  0  0  0  0  0  0  0  0  0
   16.3569   -5.6127  -20.4221 C   0  0  0  0  0  0  0  0  0  0  0  0
   16.7624   -5.3421  -19.1322 C   0  0  0  0  0  0  0  0  0  0  0  0
   17.1351   -6.3722  -18.2956 C   0  0  0  0  0  0  0  0  0  0  0  0
   17.1066   -7.6836  -18.7392 C   0  0  0  0  0  0  0  0  0  0  0  0
   17.5007   -8.7803  -17.8579 C   0  0  0  0  0  0  0  0  0  0  0  0
   18.9582   -9.1538  -17.9495 C   0  0  2  0  0  0  0  0  0  0  0  0
   19.1726  -10.2615  -17.0389 N   0  0  0  0  0  0  0  0  0  0  0  0
   19.8778   -8.0484  -17.6953 C   0  0  0  0  0  0  0  0  0  0  0  0
   20.5550   -7.8169  -16.5322 O   0  0  0  0  0  0  0  0  0  0  0  0
   16.6968   -7.9357  -20.0369 C   0  0  0  0  0  0  0  0  0  0  0  0
   16.3200   -6.9117  -20.8873 C   0  0  0  0  0  0  0  0  0  0  0  0
   20.0726   -7.2174  -18.6410 O   0  0  0  0  0  0  0  0  0  0  0  0
  2  5  1  0
  2  1  1  1
  3  2  1  0
  4  3  1  0
  5  6  2  0
  7  8  1  0
  7  5  1  0
  9 10  2  0
  9  8  1  0
 11 12  1  0
 12 22  2  0
 13 14  2  0
 13 12  1  0
 14 15  1  0
 15 16  1  0
 15 21  2  0
 17 18  1  0
 17 16  1  1
 18  9  1  0
 19 17  1  0
 20 19  1  0
 22 21  1  0
 23 19  2  0
M  END
$$$$
