CGY.pdb
     RDKit          3D

 23 23  0  0  1  0  0  0  0  0999 V2000
   22.8589  -23.8456  -16.3569 N   0  0  0  0  0  0  0  0  0  0  0  0
   24.0860  -24.0932  -15.6310 C   0  0  1  0  0  0  0  0  0  0  0  0
   25.1492  -24.6963  -16.5439 C   0  0  0  0  0  0  0  0  0  0  0  0
   24.8534  -26.4670  -16.6837 S   0  0  0  0  0  0  0  0  0  0  0  0
   24.6188  -22.8055  -15.1415 C   0  0  0  0  0  0  0  0  0  0  0  0
   24.3075  -21.7458  -15.6981 O   0  0  0  0  0  0  0  0  0  0  0  0
   25.5016  -22.7437  -14.0212 N   0  0  0  0  0  0  0  0  0  0  0  0
   25.8470  -21.5287  -13.3491 C   0  0  0  0  0  0  0  0  0  0  0  0
   25.8166  -21.6398  -11.8860 C   0  0  0  0  0  0  0  0  0  0  0  0
   25.2321  -22.6122  -11.3583 O   0  0  0  0  0  0  0  0  0  0  0  0
   28.2453  -19.9990   -3.5160 O   0  0  0  0  0  0  0  0  0  0  0  0
   28.0463  -19.9644   -4.8912 C   0  0  0  0  0  0  0  0  0  0  0  0
   27.9305  -21.1319   -5.6158 C   0  0  0  0  0  0  0  0  0  0  0  0
   27.7334  -21.0813   -6.9792 C   0  0  0  0  0  0  0  0  0  0  0  0
   27.6500  -19.8633   -7.6327 C   0  0  0  0  0  0  0  0  0  0  0  0
   27.4415  -19.8023   -9.0775 C   0  0  0  0  0  0  0  0  0  0  0  0
   26.3970  -20.7595   -9.5924 C   0  0  2  0  0  0  0  0  0  0  0  0
   26.4265  -20.6843  -11.0401 N   0  0  0  0  0  0  0  0  0  0  0  0
   25.0577  -20.5299   -9.0580 C   0  0  0  0  0  0  0  0  0  0  0  0
   24.5106  -21.1445   -7.9681 O   0  0  0  0  0  0  0  0  0  0  0  0
   27.7686  -18.7023   -6.8887 C   0  0  0  0  0  0  0  0  0  0  0  0
   27.9666  -18.7384   -5.5201 C   0  0  0  0  0  0  0  0  0  0  0  0
   24.3240  -19.6787   -9.6580 O   0  0  0  0  0  0  0  0  0  0  0  0
  2  5  1  0
  2  1  1  6
  3  2  1  0
  4  3  1  0
  5  6  2  0
  7  8  1  0
  7  5  1  0
  9 10  2  0
  9  8  1  0
 11 12  1  0
 12 22  2  0
 13 14  2  0
 13 12  1  0
 14 15  1  0
 15 16  1  0
 15 21  2  0
 17 18  1  0
 17 16  1  1
 18  9  1  0
 19 17  1  0
 20 19  1  0
 22 21  1  0
 23 19  2  0
M  END
$$$$
