CGY.pdb
     RDKit          3D

 23 23  0  0  1  0  0  0  0  0999 V2000
   26.1125  -22.3724  -17.5638 N   0  0  0  0  0  0  0  0  0  0  0  0
   27.3118  -22.3324  -16.7553 C   0  0  1  0  0  0  0  0  0  0  0  0
   28.5425  -22.0617  -17.6154 C   0  0  0  0  0  0  0  0  0  0  0  0
   29.0382  -23.5975  -18.4141 S   0  0  0  0  0  0  0  0  0  0  0  0
   27.2031  -21.2150  -15.7955 C   0  0  0  0  0  0  0  0  0  0  0  0
   27.6799  -20.1066  -16.0670 O   0  0  0  0  0  0  0  0  0  0  0  0
   26.5506  -21.3772  -14.5361 N   0  0  0  0  0  0  0  0  0  0  0  0
   26.4339  -20.3351  -13.5627 C   0  0  0  0  0  0  0  0  0  0  0  0
   26.6157  -20.7997  -12.1825 C   0  0  0  0  0  0  0  0  0  0  0  0
   26.8511  -22.0102  -11.9706 O   0  0  0  0  0  0  0  0  0  0  0  0
   29.0083  -20.5541   -3.7439 O   0  0  0  0  0  0  0  0  0  0  0  0
   28.5941  -20.2176   -5.0273 C   0  0  0  0  0  0  0  0  0  0  0  0
   27.5755  -19.3090   -5.2233 C   0  0  0  0  0  0  0  0  0  0  0  0
   27.1760  -18.9855   -6.5023 C   0  0  0  0  0  0  0  0  0  0  0  0
   27.7902  -19.5667   -7.5989 C   0  0  0  0  0  0  0  0  0  0  0  0
   27.3714  -19.2287   -8.9573 C   0  0  0  0  0  0  0  0  0  0  0  0
   26.7054  -20.3598   -9.6984 C   0  0  2  0  0  0  0  0  0  0  0  0
   26.5350  -19.9277  -11.0719 N   0  0  0  0  0  0  0  0  0  0  0  0
   25.4494  -20.8088   -9.1043 C   0  0  0  0  0  0  0  0  0  0  0  0
   25.3111  -21.7805   -8.1548 O   0  0  0  0  0  0  0  0  0  0  0  0
   28.8105  -20.4764   -7.3824 C   0  0  0  0  0  0  0  0  0  0  0  0
   29.2216  -20.8102   -6.1044 C   0  0  0  0  0  0  0  0  0  0  0  0
   24.3776  -20.2474   -9.5029 O   0  0  0  0  0  0  0  0  0  0  0  0
  2  5  1  0
  2  1  1  6
  3  2  1  0
  4  3  1  0
  5  6  2  0
  7  8  1  0
  7  5  1  0
  9 10  2  0
  9  8  1  0
 11 12  1  0
 12 22  2  0
 13 14  2  0
 13 12  1  0
 14 15  1  0
 15 16  1  0
 15 21  2  0
 17 18  1  0
 17 16  1  1
 18  9  1  0
 19 17  1  0
 20 19  1  0
 22 21  1  0
 23 19  2  0
M  END
$$$$
