CGY.pdb
     RDKit          3D

 23 23  0  0  1  0  0  0  0  0999 V2000
   28.4768  -23.1293  -16.1866 N   0  0  0  0  0  0  0  0  0  0  0  0
   28.8111  -21.8994  -16.8717 C   0  0  1  0  0  0  0  0  0  0  0  0
   28.3297  -21.9313  -18.3190 C   0  0  0  0  0  0  0  0  0  0  0  0
   29.1975  -23.2485  -19.1875 S   0  0  0  0  0  0  0  0  0  0  0  0
   28.1117  -20.7794  -16.2099 C   0  0  0  0  0  0  0  0  0  0  0  0
   27.6175  -19.8650  -16.8802 O   0  0  0  0  0  0  0  0  0  0  0  0
   27.9850  -20.7172  -14.7892 N   0  0  0  0  0  0  0  0  0  0  0  0
   27.0333  -19.8902  -14.1128 C   0  0  0  0  0  0  0  0  0  0  0  0
   26.0569  -20.6478  -13.3214 C   0  0  0  0  0  0  0  0  0  0  0  0
   25.7585  -21.8120  -13.6696 O   0  0  0  0  0  0  0  0  0  0  0  0
   29.6160  -20.8558   -7.5879 O   0  0  0  0  0  0  0  0  0  0  0  0
   28.3675  -20.7287   -8.1855 C   0  0  0  0  0  0  0  0  0  0  0  0
   28.0123  -21.5275   -9.2519 C   0  0  0  0  0  0  0  0  0  0  0  0
   26.7704  -21.3896   -9.8339 C   0  0  0  0  0  0  0  0  0  0  0  0
   25.8704  -20.4519   -9.3563 C   0  0  0  0  0  0  0  0  0  0  0  0
   24.5526  -20.3001   -9.9688 C   0  0  0  0  0  0  0  0  0  0  0  0
   24.4595  -20.8335  -11.3756 C   0  0  2  0  0  0  0  0  0  0  0  0
   25.4335  -20.1114  -12.1707 N   0  0  0  0  0  0  0  0  0  0  0  0
   23.1206  -20.7674  -11.9546 C   0  0  0  0  0  0  0  0  0  0  0  0
   22.0598  -21.5595  -11.6199 O   0  0  0  0  0  0  0  0  0  0  0  0
   26.2447  -19.6592   -8.2853 C   0  0  0  0  0  0  0  0  0  0  0  0
   27.4876  -19.7869   -7.6917 C   0  0  0  0  0  0  0  0  0  0  0  0
   22.9137  -19.8923  -12.8570 O   0  0  0  0  0  0  0  0  0  0  0  0
  2  5  1  0
  2  1  1  1
  3  2  1  0
  4  3  1  0
  5  6  2  0
  7  8  1  0
  7  5  1  0
  9 10  2  0
  9  8  1  0
 11 12  1  0
 12 22  2  0
 13 14  2  0
 13 12  1  0
 14 15  1  0
 15 16  1  0
 15 21  2  0
 17 18  1  0
 17 16  1  1
 18  9  1  0
 19 17  1  0
 20 19  1  0
 22 21  1  0
 23 19  2  0
M  END
$$$$
