FQD.pdb
     RDKit          3D

 29 29  0  0  1  0  0  0  0  0999 V2000
   28.4239  -20.9111   -8.9157 N   0  0  0  0  0  0  0  0  0  0  0  0
   26.9878  -20.7222   -8.6847 C   0  0  1  0  0  0  0  0  0  0  0  0
   26.8433  -19.5409   -7.7539 C   0  0  0  0  0  0  0  0  0  0  0  0
   27.5629  -19.7478   -6.4748 C   0  0  0  0  0  0  0  0  0  0  0  0
   28.6447  -18.9395   -6.1587 C   0  0  0  0  0  0  0  0  0  0  0  0
   29.3238  -19.1202   -4.9716 C   0  0  0  0  0  0  0  0  0  0  0  0
   28.9335  -20.1096   -4.0837 C   0  0  0  0  0  0  0  0  0  0  0  0
   27.8568  -20.9150   -4.3972 C   0  0  0  0  0  0  0  0  0  0  0  0
   27.1852  -20.7201   -5.5941 C   0  0  0  0  0  0  0  0  0  0  0  0
   26.2989  -20.3720   -9.9611 C   0  0  0  0  0  0  0  0  0  0  0  0
   26.5976  -19.2659  -10.4991 O   0  0  0  0  0  0  0  0  0  0  0  0
   25.8657  -23.9902  -14.6673 N   0  0  0  0  0  0  0  0  0  0  0  0
   26.6884  -22.8573  -14.4878 C   0  0  0  0  0  0  0  0  0  0  0  0
   27.7343  -22.7689  -15.1658 O   0  0  0  0  0  0  0  0  0  0  0  0
   26.3340  -21.7952  -13.5279 C   0  0  0  0  0  0  0  0  0  0  0  0
   25.0056  -21.9376  -12.8825 C   0  0  0  0  0  0  0  0  0  0  0  0
   24.6961  -20.9273  -11.8085 C   0  0  2  0  0  0  0  0  0  0  0  0
   25.3459  -21.2297  -10.5638 N   0  0  0  0  0  0  0  0  0  0  0  0
   23.2217  -20.9309  -11.6403 C   0  0  0  0  0  0  0  0  0  0  0  0
   22.7386  -20.6169  -10.5374 O   0  0  0  0  0  0  0  0  0  0  0  0
   22.3780  -21.2839  -12.7092 N   0  0  0  0  0  0  0  0  0  0  0  0
   20.9313  -21.0877  -12.6088 C   0  0  1  0  0  0  0  0  0  0  0  0
   20.6236  -19.6558  -12.3453 C   0  0  0  0  0  0  0  0  0  0  0  0
   19.2057  -19.3563  -12.1965 C   0  0  0  0  0  0  0  0  0  0  0  0
   18.8671  -18.1153  -12.2382 O   0  0  0  0  0  0  0  0  0  0  0  0
   20.3241  -21.6287  -13.8412 C   0  0  0  0  0  0  0  0  0  0  0  0
   19.5152  -22.6087  -13.7248 O   0  0  0  0  0  0  0  0  0  0  0  0
   18.1680  -20.2283  -12.0143 O   0  0  0  0  0  0  0  0  0  0  0  0
   20.5419  -21.1804  -15.1206 O   0  0  0  0  0  0  0  0  0  0  0  0
  2  1  1  6
  2  3  1  0
  3  4  1  0
  4  9  2  0
  5  6  2  0
  5  4  1  0
  6  7  1  0
  7  8  2  0
  9  8  1  0
 10 11  2  0
 10  2  1  0
 12 13  1  0
 13 14  2  0
 15 13  1  0
 15 16  1  0
 17 16  1  6
 17 18  1  0
 18 10  1  0
 19 17  1  0
 19 21  1  0
 20 19  2  0
 22 21  1  0
 22 26  1  0
 23 24  1  0
 22 23  1  6
 24 25  2  0
 26 29  1  0
 27 26  2  0
 28 24  1  0
M  END
$$$$
