FQD.pdb
     RDKit          3D

 29 29  0  0  1  0  0  0  0  0999 V2000
   27.9345  -20.3135  -17.7651 N   0  0  0  0  0  0  0  0  0  0  0  0
   27.3665  -19.2836  -16.8887 C   0  0  1  0  0  0  0  0  0  0  0  0
   26.3941  -18.4829  -17.7230 C   0  0  0  0  0  0  0  0  0  0  0  0
   27.0866  -17.5699  -18.6630 C   0  0  0  0  0  0  0  0  0  0  0  0
   27.7159  -16.4338  -18.1764 C   0  0  0  0  0  0  0  0  0  0  0  0
   28.3647  -15.5751  -19.0393 C   0  0  0  0  0  0  0  0  0  0  0  0
   28.3948  -15.8376  -20.3993 C   0  0  0  0  0  0  0  0  0  0  0  0
   27.7687  -16.9682  -20.8852 C   0  0  0  0  0  0  0  0  0  0  0  0
   27.1213  -17.8208  -20.0045 C   0  0  0  0  0  0  0  0  0  0  0  0
   26.5905  -19.9151  -15.7817 C   0  0  0  0  0  0  0  0  0  0  0  0
   25.9849  -20.9966  -16.0387 O   0  0  0  0  0  0  0  0  0  0  0  0
   27.0781  -21.9176  -11.0616 N   0  0  0  0  0  0  0  0  0  0  0  0
   25.9247  -21.3345  -10.4942 C   0  0  0  0  0  0  0  0  0  0  0  0
   25.3011  -21.9774   -9.6228 O   0  0  0  0  0  0  0  0  0  0  0  0
   25.4557  -19.9993  -10.9091 C   0  0  0  0  0  0  0  0  0  0  0  0
   26.1706  -19.4041  -12.0651 C   0  0  0  0  0  0  0  0  0  0  0  0
   25.7495  -19.9139  -13.4188 C   0  0  2  0  0  0  0  0  0  0  0  0
   26.5221  -19.3438  -14.4870 N   0  0  0  0  0  0  0  0  0  0  0  0
   24.3148  -19.5664  -13.5712 C   0  0  0  0  0  0  0  0  0  0  0  0
   24.0042  -18.5568  -14.2289 O   0  0  0  0  0  0  0  0  0  0  0  0
   23.3165  -20.3635  -12.9821 N   0  0  0  0  0  0  0  0  0  0  0  0
   21.9037  -20.1217  -13.2769 C   0  0  1  0  0  0  0  0  0  0  0  0
   21.6780  -20.1214  -14.7478 C   0  0  0  0  0  0  0  0  0  0  0  0
   20.2803  -20.0286  -15.1481 C   0  0  0  0  0  0  0  0  0  0  0  0
   19.7573  -18.8527  -15.1615 O   0  0  0  0  0  0  0  0  0  0  0  0
   21.1178  -21.1285  -12.5360 C   0  0  0  0  0  0  0  0  0  0  0  0
   19.8455  -21.0480  -12.5914 O   0  0  0  0  0  0  0  0  0  0  0  0
   19.4335  -21.0374  -15.5165 O   0  0  0  0  0  0  0  0  0  0  0  0
   21.6205  -22.1595  -11.7814 O   0  0  0  0  0  0  0  0  0  0  0  0
  2  1  1  6
  2  3  1  0
  3  4  1  0
  4  9  2  0
  5  6  2  0
  5  4  1  0
  6  7  1  0
  7  8  2  0
  9  8  1  0
 10 11  2  0
 10  2  1  0
 12 13  1  0
 13 14  2  0
 15 13  1  0
 15 16  1  0
 17 16  1  1
 17 18  1  0
 18 10  1  0
 19 17  1  0
 19 21  1  0
 20 19  2  0
 22 21  1  0
 22 26  1  0
 23 24  1  0
 22 23  1  6
 24 25  2  0
 26 29  1  0
 27 26  2  0
 28 24  1  0
M  END
$$$$
