FQD.pdb
     RDKit          3D

 29 29  0  0  1  0  0  0  0  0999 V2000
   28.3565  -21.4852   -9.3099 N   0  0  0  0  0  0  0  0  0  0  0  0
   27.0544  -20.8550   -9.0673 C   0  0  1  0  0  0  0  0  0  0  0  0
   27.3227  -19.5506   -8.3536 C   0  0  0  0  0  0  0  0  0  0  0  0
   27.7577  -19.7612   -6.9525 C   0  0  0  0  0  0  0  0  0  0  0  0
   26.8185  -20.0850   -5.9847 C   0  0  0  0  0  0  0  0  0  0  0  0
   27.2087  -20.2843   -4.6767 C   0  0  0  0  0  0  0  0  0  0  0  0
   28.5409  -20.1634   -4.3159 C   0  0  0  0  0  0  0  0  0  0  0  0
   29.4770  -19.8410   -5.2782 C   0  0  0  0  0  0  0  0  0  0  0  0
   29.0681  -19.6442   -6.5881 C   0  0  0  0  0  0  0  0  0  0  0  0
   26.3878  -20.5271  -10.3614 C   0  0  0  0  0  0  0  0  0  0  0  0
   27.0837  -19.9432  -11.2429 O   0  0  0  0  0  0  0  0  0  0  0  0
   24.9404  -24.7510  -13.9339 N   0  0  0  0  0  0  0  0  0  0  0  0
   25.8408  -23.7024  -14.2205 C   0  0  0  0  0  0  0  0  0  0  0  0
   26.7339  -23.9018  -15.0714 O   0  0  0  0  0  0  0  0  0  0  0  0
   25.7412  -22.3973  -13.5409 C   0  0  0  0  0  0  0  0  0  0  0  0
   24.6299  -22.2702  -12.5660 C   0  0  0  0  0  0  0  0  0  0  0  0
   24.4737  -20.9106  -11.9361 C   0  0  2  0  0  0  0  0  0  0  0  0
   25.0313  -20.8486  -10.6139 N   0  0  0  0  0  0  0  0  0  0  0  0
   23.0172  -20.6285  -11.9004 C   0  0  0  0  0  0  0  0  0  0  0  0
   22.3241  -21.1419  -11.0035 O   0  0  0  0  0  0  0  0  0  0  0  0
   22.4238  -19.7937  -12.8647 N   0  0  0  0  0  0  0  0  0  0  0  0
   20.9842  -19.5324  -12.8352 C   0  0  1  0  0  0  0  0  0  0  0  0
   20.6294  -18.4934  -13.8397 C   0  0  0  0  0  0  0  0  0  0  0  0
   19.3810  -17.7915  -13.5730 C   0  0  0  0  0  0  0  0  0  0  0  0
   19.0524  -16.8585  -14.3964 O   0  0  0  0  0  0  0  0  0  0  0  0
   20.2953  -20.8252  -13.0205 C   0  0  0  0  0  0  0  0  0  0  0  0
   20.7485  -21.6180  -13.9118 O   0  0  0  0  0  0  0  0  0  0  0  0
   18.4963  -17.9912  -12.5494 O   0  0  0  0  0  0  0  0  0  0  0  0
   19.2001  -21.2714  -12.3229 O   0  0  0  0  0  0  0  0  0  0  0  0
  2  1  1  6
  2  3  1  0
  3  4  1  0
  4  9  2  0
  5  6  2  0
  5  4  1  0
  6  7  1  0
  7  8  2  0
  9  8  1  0
 10 11  2  0
 10  2  1  0
 12 13  1  0
 13 14  2  0
 15 13  1  0
 15 16  1  0
 17 16  1  1
 17 18  1  0
 18 10  1  0
 19 17  1  0
 19 21  1  0
 20 19  2  0
 22 21  1  0
 22 26  1  0
 23 24  1  0
 22 23  1  6
 24 25  2  0
 26 29  1  0
 27 26  2  0
 28 24  1  0
M  END
$$$$
