FQD.pdb
     RDKit          3D

 29 29  0  0  1  0  0  0  0  0999 V2000
   25.5680  -19.1289   -7.9422 N   0  0  0  0  0  0  0  0  0  0  0  0
   26.6289  -19.7552   -8.7382 C   0  0  1  0  0  0  0  0  0  0  0  0
   27.0797  -20.9834   -7.9824 C   0  0  0  0  0  0  0  0  0  0  0  0
   27.8458  -20.6367   -6.7619 C   0  0  0  0  0  0  0  0  0  0  0  0
   29.1790  -20.2703   -6.8708 C   0  0  0  0  0  0  0  0  0  0  0  0
   29.9045  -19.9446   -5.7436 C   0  0  0  0  0  0  0  0  0  0  0  0
   29.3104  -19.9800   -4.4925 C   0  0  0  0  0  0  0  0  0  0  0  0
   27.9833  -20.3447   -4.3826 C   0  0  0  0  0  0  0  0  0  0  0  0
   27.2685  -20.6689   -5.5252 C   0  0  0  0  0  0  0  0  0  0  0  0
   26.0900  -20.2124  -10.0524 C   0  0  0  0  0  0  0  0  0  0  0  0
   24.8335  -20.1925  -10.2048 O   0  0  0  0  0  0  0  0  0  0  0  0
   27.9975  -18.1387  -14.4527 N   0  0  0  0  0  0  0  0  0  0  0  0
   27.6900  -19.2030  -15.3274 C   0  0  0  0  0  0  0  0  0  0  0  0
   27.5208  -18.9470  -16.5387 O   0  0  0  0  0  0  0  0  0  0  0  0
   27.5693  -20.5890  -14.8379 C   0  0  0  0  0  0  0  0  0  0  0  0
   27.8072  -20.7740  -13.3850 C   0  0  0  0  0  0  0  0  0  0  0  0
   26.6518  -20.4116  -12.4885 C   0  0  2  0  0  0  0  0  0  0  0  0
   26.9337  -20.6541  -11.1012 N   0  0  0  0  0  0  0  0  0  0  0  0
   25.4989  -21.2315  -12.9364 C   0  0  0  0  0  0  0  0  0  0  0  0
   25.5478  -22.4675  -12.8018 O   0  0  0  0  0  0  0  0  0  0  0  0
   24.3647  -20.6247  -13.5061 N   0  0  0  0  0  0  0  0  0  0  0  0
   23.1987  -21.4289  -13.8738 C   0  0  1  0  0  0  0  0  0  0  0  0
   21.9490  -20.6485  -13.6647 C   0  0  0  0  0  0  0  0  0  0  0  0
   21.3578  -20.7911  -12.3409 C   0  0  0  0  0  0  0  0  0  0  0  0
   21.7717  -21.7762  -11.6234 O   0  0  0  0  0  0  0  0  0  0  0  0
   23.4035  -21.8994  -15.2583 C   0  0  0  0  0  0  0  0  0  0  0  0
   24.1708  -21.2129  -16.0121 O   0  0  0  0  0  0  0  0  0  0  0  0
   20.4061  -20.0088  -11.7469 O   0  0  0  0  0  0  0  0  0  0  0  0
   22.8460  -23.0167  -15.8293 O   0  0  0  0  0  0  0  0  0  0  0  0
  2  1  1  1
  2  3  1  0
  3  4  1  0
  4  9  2  0
  5  6  2  0
  5  4  1  0
  6  7  1  0
  7  8  2  0
  9  8  1  0
 10 11  2  0
 10  2  1  0
 12 13  1  0
 13 14  2  0
 15 13  1  0
 15 16  1  0
 17 16  1  6
 17 18  1  0
 18 10  1  0
 19 17  1  0
 19 21  1  0
 20 19  2  0
 22 21  1  0
 22 26  1  0
 23 24  1  0
 22 23  1  6
 24 25  2  0
 26 29  1  0
 27 26  2  0
 28 24  1  0
M  END
$$$$
