FQD.pdb
     RDKit          3D

 29 29  0  0  1  0  0  0  0  0999 V2000
   26.8032  -22.0649  -13.9901 N   0  0  0  0  0  0  0  0  0  0  0  0
   26.2079  -21.3822  -12.8365 C   0  0  1  0  0  0  0  0  0  0  0  0
   26.9963  -20.1114  -12.6219 C   0  0  0  0  0  0  0  0  0  0  0  0
   28.3146  -20.3721  -11.9968 C   0  0  0  0  0  0  0  0  0  0  0  0
   28.3750  -20.8095  -10.6820 C   0  0  0  0  0  0  0  0  0  0  0  0
   29.5949  -21.0566  -10.0872 C   0  0  0  0  0  0  0  0  0  0  0  0
   30.7711  -20.8710  -10.7954 C   0  0  0  0  0  0  0  0  0  0  0  0
   30.7125  -20.4356  -12.1043 C   0  0  0  0  0  0  0  0  0  0  0  0
   29.4785  -20.1920  -12.6871 C   0  0  0  0  0  0  0  0  0  0  0  0
   24.8000  -20.9892  -13.1363 C   0  0  0  0  0  0  0  0  0  0  0  0
   24.4429  -20.9852  -14.3507 O   0  0  0  0  0  0  0  0  0  0  0  0
   20.1174  -20.6623   -8.6515 N   0  0  0  0  0  0  0  0  0  0  0  0
   19.4599  -20.7062   -9.8998 C   0  0  0  0  0  0  0  0  0  0  0  0
   18.2121  -20.7711   -9.9124 O   0  0  0  0  0  0  0  0  0  0  0  0
   20.2144  -20.6759  -11.1666 C   0  0  0  0  0  0  0  0  0  0  0  0
   21.6910  -20.6314  -11.0273 C   0  0  0  0  0  0  0  0  0  0  0  0
   22.4622  -20.5891  -12.3210 C   0  0  2  0  0  0  0  0  0  0  0  0
   23.8832  -20.6320  -12.1169 N   0  0  0  0  0  0  0  0  0  0  0  0
   22.0719  -19.3298  -13.0021 C   0  0  0  0  0  0  0  0  0  0  0  0
   22.8059  -18.3311  -12.8926 O   0  0  0  0  0  0  0  0  0  0  0  0
   20.8897  -19.2609  -13.7616 N   0  0  0  0  0  0  0  0  0  0  0  0
   20.7868  -18.3376  -14.8922 C   0  0  1  0  0  0  0  0  0  0  0  0
   21.9896  -18.4522  -15.7609 C   0  0  0  0  0  0  0  0  0  0  0  0
   22.5679  -17.1789  -16.1692 C   0  0  0  0  0  0  0  0  0  0  0  0
   22.0066  -16.1139  -15.7139 O   0  0  0  0  0  0  0  0  0  0  0  0
   19.5078  -18.6150  -15.5759 C   0  0  0  0  0  0  0  0  0  0  0  0
   19.1014  -19.8241  -15.6089 O   0  0  0  0  0  0  0  0  0  0  0  0
   23.6430  -16.9569  -16.9849 O   0  0  0  0  0  0  0  0  0  0  0  0
   18.6963  -17.6932  -16.1899 O   0  0  0  0  0  0  0  0  0  0  0  0
  2  1  1  6
  2  3  1  0
  3  4  1  0
  4  9  2  0
  5  6  2  0
  5  4  1  0
  6  7  1  0
  7  8  2  0
  9  8  1  0
 10 11  2  0
 10  2  1  0
 12 13  1  0
 13 14  2  0
 15 13  1  0
 15 16  1  0
 17 16  1  1
 17 18  1  0
 18 10  1  0
 19 17  1  0
 19 21  1  0
 20 19  2  0
 22 21  1  0
 22 26  1  0
 23 24  1  0
 22 23  1  6
 24 25  2  0
 26 29  1  0
 27 26  2  0
 28 24  1  0
M  END
$$$$
