FQD.pdb
     RDKit          3D

 29 29  0  0  1  0  0  0  0  0999 V2000
   16.2016  -14.0248    4.1340 N   0  0  0  0  0  0  0  0  0  0  0  0
   16.9134  -15.0496    3.3629 C   0  0  1  0  0  0  0  0  0  0  0  0
   18.3682  -14.6430    3.3280 C   0  0  0  0  0  0  0  0  0  0  0  0
   19.1917  -15.5867    2.5356 C   0  0  0  0  0  0  0  0  0  0  0  0
   20.2865  -16.2019    3.1244 C   0  0  0  0  0  0  0  0  0  0  0  0
   21.0618  -17.0828    2.3994 C   0  0  0  0  0  0  0  0  0  0  0  0
   20.7562  -17.3621    1.0772 C   0  0  0  0  0  0  0  0  0  0  0  0
   19.6668  -16.7504    0.4898 C   0  0  0  0  0  0  0  0  0  0  0  0
   18.8979  -15.8678    1.2325 C   0  0  0  0  0  0  0  0  0  0  0  0
   16.8348  -16.3683    4.0565 C   0  0  0  0  0  0  0  0  0  0  0  0
   16.8576  -16.3626    5.3221 O   0  0  0  0  0  0  0  0  0  0  0  0
   15.6899  -22.1778    1.3239 N   0  0  0  0  0  0  0  0  0  0  0  0
   15.6528  -22.3780    2.7206 C   0  0  0  0  0  0  0  0  0  0  0  0
   15.3372  -23.5079    3.1509 O   0  0  0  0  0  0  0  0  0  0  0  0
   15.9774  -21.2896    3.6614 C   0  0  0  0  0  0  0  0  0  0  0  0
   16.2070  -19.9606    3.0427 C   0  0  0  0  0  0  0  0  0  0  0  0
   16.6171  -18.8662    3.9934 C   0  0  2  0  0  0  0  0  0  0  0  0
   16.7372  -17.5899    3.3456 N   0  0  0  0  0  0  0  0  0  0  0  0
   17.9187  -19.2796    4.5741 C   0  0  0  0  0  0  0  0  0  0  0  0
   18.9644  -18.7601    4.1442 O   0  0  0  0  0  0  0  0  0  0  0  0
   17.9747  -20.2449    5.5959 N   0  0  0  0  0  0  0  0  0  0  0  0
   19.2452  -20.5601    6.2501 C   0  0  1  0  0  0  0  0  0  0  0  0
   19.8574  -19.3235    6.8074 C   0  0  0  0  0  0  0  0  0  0  0  0
   21.0226  -19.5498    7.6521 C   0  0  0  0  0  0  0  0  0  0  0  0
   21.4534  -20.7598    7.7348 O   0  0  0  0  0  0  0  0  0  0  0  0
   18.9801  -21.6164    7.2473 C   0  0  0  0  0  0  0  0  0  0  0  0
   19.9180  -22.4435    7.5008 O   0  0  0  0  0  0  0  0  0  0  0  0
   21.7323  -18.6369    8.3825 O   0  0  0  0  0  0  0  0  0  0  0  0
   17.8109  -21.8049    7.9421 O   0  0  0  0  0  0  0  0  0  0  0  0
  2  1  1  1
  2  3  1  0
  3  4  1  0
  4  9  2  0
  5  6  2  0
  5  4  1  0
  6  7  1  0
  7  8  2  0
  9  8  1  0
 10 11  2  0
 10  2  1  0
 12 13  1  0
 13 14  2  0
 15 13  1  0
 15 16  1  0
 17 16  1  6
 17 18  1  0
 18 10  1  0
 19 17  1  0
 19 21  1  0
 20 19  2  0
 22 21  1  0
 22 26  1  0
 23 24  1  0
 22 23  1  1
 24 25  2  0
 26 29  1  0
 27 26  2  0
 28 24  1  0
M  END
$$$$
