FQD.pdb
     RDKit          3D

 29 29  0  0  1  0  0  0  0  0999 V2000
   24.0420  -11.3778  -17.4608 N   0  0  0  0  0  0  0  0  0  0  0  0
   23.9807  -10.3720  -16.3950 C   0  0  1  0  0  0  0  0  0  0  0  0
   25.1716   -9.4610  -16.5804 C   0  0  0  0  0  0  0  0  0  0  0  0
   26.4559  -10.1808  -16.4096 C   0  0  0  0  0  0  0  0  0  0  0  0
   26.8262  -10.6327  -15.1517 C   0  0  0  0  0  0  0  0  0  0  0  0
   28.0183  -11.3045  -14.9777 C   0  0  0  0  0  0  0  0  0  0  0  0
   28.8576  -11.5348  -16.0557 C   0  0  0  0  0  0  0  0  0  0  0  0
   28.4903  -11.0855  -17.3085 C   0  0  0  0  0  0  0  0  0  0  0  0
   27.2888  -10.4122  -17.4661 C   0  0  0  0  0  0  0  0  0  0  0  0
   22.7527   -9.5369  -16.5401 C   0  0  0  0  0  0  0  0  0  0  0  0
   22.1621   -9.5599  -17.6595 O   0  0  0  0  0  0  0  0  0  0  0  0
   18.4920   -8.7068  -12.0465 N   0  0  0  0  0  0  0  0  0  0  0  0
   18.4058   -9.5829  -13.1498 C   0  0  0  0  0  0  0  0  0  0  0  0
   17.6634  -10.5838  -13.0573 O   0  0  0  0  0  0  0  0  0  0  0  0
   19.1668   -9.3352  -14.3885 C   0  0  0  0  0  0  0  0  0  0  0  0
   20.1570   -8.2324  -14.3177 C   0  0  0  0  0  0  0  0  0  0  0  0
   21.0005   -8.0395  -15.5511 C   0  0  2  0  0  0  0  0  0  0  0  0
   22.2505   -8.7433  -15.4793 N   0  0  0  0  0  0  0  0  0  0  0  0
   21.2320   -6.5792  -15.6780 C   0  0  0  0  0  0  0  0  0  0  0  0
   22.2331   -6.0768  -15.1362 O   0  0  0  0  0  0  0  0  0  0  0  0
   20.3351   -5.7702  -16.3992 N   0  0  0  0  0  0  0  0  0  0  0  0
   20.6286   -4.3541  -16.6232 C   0  0  1  0  0  0  0  0  0  0  0  0
   21.9320   -4.2039  -17.3253 C   0  0  0  0  0  0  0  0  0  0  0  0
   22.2461   -2.8428  -17.7389 C   0  0  0  0  0  0  0  0  0  0  0  0
   22.0309   -2.5468  -18.9728 O   0  0  0  0  0  0  0  0  0  0  0  0
   19.4760   -3.7703  -17.3380 C   0  0  0  0  0  0  0  0  0  0  0  0
   19.4250   -2.5000  -17.4463 O   0  0  0  0  0  0  0  0  0  0  0  0
   22.7480   -1.8197  -16.9827 O   0  0  0  0  0  0  0  0  0  0  0  0
   18.4362   -4.4624  -17.9081 O   0  0  0  0  0  0  0  0  0  0  0  0
  2  1  1  6
  2  3  1  0
  3  4  1  0
  4  9  2  0
  5  6  2  0
  5  4  1  0
  6  7  1  0
  7  8  2  0
  9  8  1  0
 10 11  2  0
 10  2  1  0
 12 13  1  0
 13 14  2  0
 15 13  1  0
 15 16  1  0
 17 16  1  1
 17 18  1  0
 18 10  1  0
 19 17  1  0
 19 21  1  0
 20 19  2  0
 22 21  1  0
 22 26  1  0
 23 24  1  0
 22 23  1  6
 24 25  2  0
 26 29  1  0
 27 26  2  0
 28 24  1  0
M  END
$$$$
