FQD.pdb
     RDKit          3D

 29 29  0  0  1  0  0  0  0  0999 V2000
   28.6772  -21.8575   -9.4829 N   0  0  0  0  0  0  0  0  0  0  0  0
   27.3762  -21.2934   -9.1078 C   0  0  1  0  0  0  0  0  0  0  0  0
   27.6264  -19.8748   -8.6518 C   0  0  0  0  0  0  0  0  0  0  0  0
   27.9982  -19.8075   -7.2186 C   0  0  0  0  0  0  0  0  0  0  0  0
   29.3267  -19.9537   -6.8478 C   0  0  0  0  0  0  0  0  0  0  0  0
   29.6876  -19.8929   -5.5178 C   0  0  0  0  0  0  0  0  0  0  0  0
   28.7288  -19.6856   -4.5394 C   0  0  0  0  0  0  0  0  0  0  0  0
   27.4060  -19.5400   -4.9071 C   0  0  0  0  0  0  0  0  0  0  0  0
   27.0601  -19.6035   -6.2480 C   0  0  0  0  0  0  0  0  0  0  0  0
   26.4770  -21.2283  -10.2967 C   0  0  0  0  0  0  0  0  0  0  0  0
   27.0208  -21.2496  -11.4396 O   0  0  0  0  0  0  0  0  0  0  0  0
   20.8373  -19.1439  -11.8455 N   0  0  0  0  0  0  0  0  0  0  0  0
   20.8818  -20.4167  -12.4542 C   0  0  0  0  0  0  0  0  0  0  0  0
   20.1553  -20.6254  -13.4492 O   0  0  0  0  0  0  0  0  0  0  0  0
   21.7604  -21.4837  -11.9398 C   0  0  0  0  0  0  0  0  0  0  0  0
   22.7319  -21.0626  -10.9003 C   0  0  0  0  0  0  0  0  0  0  0  0
   24.1819  -21.1317  -11.3036 C   0  0  2  0  0  0  0  0  0  0  0  0
   25.0680  -21.1464  -10.1733 N   0  0  0  0  0  0  0  0  0  0  0  0
   24.4397  -19.9413  -12.1515 C   0  0  0  0  0  0  0  0  0  0  0  0
   25.3160  -19.1296  -11.8031 O   0  0  0  0  0  0  0  0  0  0  0  0
   23.7060  -19.7290  -13.3329 N   0  0  0  0  0  0  0  0  0  0  0  0
   24.3945  -19.4536  -14.5945 C   0  0  1  0  0  0  0  0  0  0  0  0
   25.7734  -20.0120  -14.5605 C   0  0  0  0  0  0  0  0  0  0  0  0
   26.5538  -19.7779  -15.7682 C   0  0  0  0  0  0  0  0  0  0  0  0
   27.1874  -20.7871  -16.2545 O   0  0  0  0  0  0  0  0  0  0  0  0
   23.5476  -19.9770  -15.6850 C   0  0  0  0  0  0  0  0  0  0  0  0
   23.3845  -21.2405  -15.7568 O   0  0  0  0  0  0  0  0  0  0  0  0
   26.7088  -18.6123  -16.4667 O   0  0  0  0  0  0  0  0  0  0  0  0
   22.9065  -19.2346  -16.6457 O   0  0  0  0  0  0  0  0  0  0  0  0
  2  1  1  6
  2  3  1  0
  3  4  1  0
  4  9  2  0
  5  6  2  0
  5  4  1  0
  6  7  1  0
  7  8  2  0
  9  8  1  0
 10 11  2  0
 10  2  1  0
 12 13  1  0
 13 14  2  0
 15 13  1  0
 15 16  1  0
 17 16  1  1
 17 18  1  0
 18 10  1  0
 19 17  1  0
 19 21  1  0
 20 19  2  0
 22 21  1  0
 22 26  1  0
 23 24  1  0
 22 23  1  1
 24 25  2  0
 26 29  1  0
 27 26  2  0
 28 24  1  0
M  END
$$$$
