FQD.pdb
     RDKit          3D

 29 29  0  0  1  0  0  0  0  0999 V2000
   15.2913  -21.7893   -1.4861 N   0  0  0  0  0  0  0  0  0  0  0  0
   14.6072  -21.7590   -0.1890 C   0  0  1  0  0  0  0  0  0  0  0  0
   14.4951  -23.1898    0.2832 C   0  0  0  0  0  0  0  0  0  0  0  0
   13.5679  -23.9832   -0.5579 C   0  0  0  0  0  0  0  0  0  0  0  0
   12.1985  -23.8357   -0.3949 C   0  0  0  0  0  0  0  0  0  0  0  0
   11.3235  -24.5672   -1.1708 C   0  0  0  0  0  0  0  0  0  0  0  0
   11.8021  -25.4558   -2.1199 C   0  0  0  0  0  0  0  0  0  0  0  0
   13.1651  -25.6037   -2.2833 C   0  0  0  0  0  0  0  0  0  0  0  0
   14.0307  -24.8610   -1.4955 C   0  0  0  0  0  0  0  0  0  0  0  0
   15.4295  -21.0209    0.8138 C   0  0  0  0  0  0  0  0  0  0  0  0
   16.6876  -21.0668    0.6819 O   0  0  0  0  0  0  0  0  0  0  0  0
   13.5477  -15.7971    3.8948 N   0  0  0  0  0  0  0  0  0  0  0  0
   14.9169  -15.7520    3.5548 C   0  0  0  0  0  0  0  0  0  0  0  0
   15.4994  -14.6467    3.5799 O   0  0  0  0  0  0  0  0  0  0  0  0
   15.6553  -16.9717    3.1781 C   0  0  0  0  0  0  0  0  0  0  0  0
   14.8626  -18.2260    3.1930 C   0  0  0  0  0  0  0  0  0  0  0  0
   15.6071  -19.4672    2.7747 C   0  0  2  0  0  0  0  0  0  0  0  0
   14.8451  -20.2909    1.8781 N   0  0  0  0  0  0  0  0  0  0  0  0
   15.9227  -20.2083    4.0211 C   0  0  0  0  0  0  0  0  0  0  0  0
   16.6387  -19.6656    4.8819 O   0  0  0  0  0  0  0  0  0  0  0  0
   15.4222  -21.5062    4.2308 N   0  0  0  0  0  0  0  0  0  0  0  0
   15.7473  -22.2380    5.4557 C   0  0  1  0  0  0  0  0  0  0  0  0
   14.5816  -23.0533    5.8925 C   0  0  0  0  0  0  0  0  0  0  0  0
   14.8351  -23.9073    7.0452 C   0  0  0  0  0  0  0  0  0  0  0  0
   15.9523  -23.7352    7.6606 O   0  0  0  0  0  0  0  0  0  0  0  0
   16.9758  -23.0146    5.1951 C   0  0  0  0  0  0  0  0  0  0  0  0
   17.1687  -23.4415    4.0082 O   0  0  0  0  0  0  0  0  0  0  0  0
   14.0351  -24.8842    7.5708 O   0  0  0  0  0  0  0  0  0  0  0  0
   17.9486  -23.3309    6.1110 O   0  0  0  0  0  0  0  0  0  0  0  0
  2  1  1  6
  2  3  1  0
  3  4  1  0
  4  9  2  0
  5  6  2  0
  5  4  1  0
  6  7  1  0
  7  8  2  0
  9  8  1  0
 10 11  2  0
 10  2  1  0
 12 13  1  0
 13 14  2  0
 15 13  1  0
 15 16  1  0
 17 16  1  1
 17 18  1  0
 18 10  1  0
 19 17  1  0
 19 21  1  0
 20 19  2  0
 22 21  1  0
 22 26  1  0
 23 24  1  0
 22 23  1  6
 24 25  2  0
 26 29  1  0
 27 26  2  0
 28 24  1  0
M  END
$$$$
