FQD.pdb
     RDKit          3D

 29 29  0  0  1  0  0  0  0  0999 V2000
   24.6703  -12.9383  -17.7597 N   0  0  0  0  0  0  0  0  0  0  0  0
   24.4684  -12.0040  -16.6471 C   0  0  1  0  0  0  0  0  0  0  0  0
   25.7342  -11.1888  -16.5216 C   0  0  0  0  0  0  0  0  0  0  0  0
   26.9368  -12.0443  -16.3852 C   0  0  0  0  0  0  0  0  0  0  0  0
   27.8774  -12.0718  -17.4041 C   0  0  0  0  0  0  0  0  0  0  0  0
   29.0017  -12.8629  -17.2910 C   0  0  0  0  0  0  0  0  0  0  0  0
   29.2035  -13.6376  -16.1602 C   0  0  0  0  0  0  0  0  0  0  0  0
   28.2680  -13.6114  -15.1451 C   0  0  0  0  0  0  0  0  0  0  0  0
   27.1437  -12.8108  -15.2746 C   0  0  0  0  0  0  0  0  0  0  0  0
   23.3573  -11.0583  -16.9593 C   0  0  0  0  0  0  0  0  0  0  0  0
   22.8370  -11.1315  -18.1110 O   0  0  0  0  0  0  0  0  0  0  0  0
   18.0997  -11.8988  -15.8299 N   0  0  0  0  0  0  0  0  0  0  0  0
   17.9572  -10.5151  -16.0692 C   0  0  0  0  0  0  0  0  0  0  0  0
   16.8055  -10.0526  -16.2148 O   0  0  0  0  0  0  0  0  0  0  0  0
   19.1300   -9.6243  -16.1470 C   0  0  0  0  0  0  0  0  0  0  0  0
   20.4466  -10.2897  -15.9867 C   0  0  0  0  0  0  0  0  0  0  0  0
   21.6482   -9.4000  -16.1721 C   0  0  2  0  0  0  0  0  0  0  0  0
   22.8878  -10.1091  -16.0182 N   0  0  0  0  0  0  0  0  0  0  0  0
   21.5350   -8.3235  -15.1569 C   0  0  0  0  0  0  0  0  0  0  0  0
   22.1662   -8.4303  -14.0900 O   0  0  0  0  0  0  0  0  0  0  0  0
   20.7264   -7.1967  -15.3927 N   0  0  0  0  0  0  0  0  0  0  0  0
   20.9440   -5.9577  -14.6449 C   0  0  1  0  0  0  0  0  0  0  0  0
   22.3839   -5.5835  -14.6776 C   0  0  0  0  0  0  0  0  0  0  0  0
   22.6879   -4.2854  -14.0902 C   0  0  0  0  0  0  0  0  0  0  0  0
   22.3358   -4.1058  -12.8653 O   0  0  0  0  0  0  0  0  0  0  0  0
   20.0326   -4.9381  -15.2018 C   0  0  0  0  0  0  0  0  0  0  0  0
   20.0191   -3.7878  -14.6498 O   0  0  0  0  0  0  0  0  0  0  0  0
   23.3055   -3.2132  -14.6727 O   0  0  0  0  0  0  0  0  0  0  0  0
   19.1841   -5.1006  -16.2690 O   0  0  0  0  0  0  0  0  0  0  0  0
  2  1  1  6
  2  3  1  0
  3  4  1  0
  4  9  2  0
  5  6  2  0
  5  4  1  0
  6  7  1  0
  7  8  2  0
  9  8  1  0
 10 11  2  0
 10  2  1  0
 12 13  1  0
 13 14  2  0
 15 13  1  0
 15 16  1  0
 17 16  1  1
 17 18  1  0
 18 10  1  0
 19 17  1  0
 19 21  1  0
 20 19  2  0
 22 21  1  0
 22 26  1  0
 23 24  1  0
 22 23  1  6
 24 25  2  0
 26 29  1  0
 27 26  2  0
 28 24  1  0
M  END
$$$$
