FQD.pdb
     RDKit          3D

 29 29  0  0  1  0  0  0  0  0999 V2000
   29.7391  -19.6121  -12.6738 N   0  0  0  0  0  0  0  0  0  0  0  0
   28.6260  -20.5569  -12.5334 C   0  0  1  0  0  0  0  0  0  0  0  0
   28.5013  -20.8747  -11.0616 C   0  0  0  0  0  0  0  0  0  0  0  0
   29.7538  -21.4388  -10.5051 C   0  0  0  0  0  0  0  0  0  0  0  0
   30.1275  -21.1280   -9.2061 C   0  0  0  0  0  0  0  0  0  0  0  0
   31.2903  -21.6459   -8.6746 C   0  0  0  0  0  0  0  0  0  0  0  0
   32.0965  -22.4808   -9.4314 C   0  0  0  0  0  0  0  0  0  0  0  0
   31.7258  -22.7910  -10.7247 C   0  0  0  0  0  0  0  0  0  0  0  0
   30.5541  -22.2622  -11.2435 C   0  0  0  0  0  0  0  0  0  0  0  0
   27.3472  -19.9191  -12.9625 C   0  0  0  0  0  0  0  0  0  0  0  0
   27.1679  -18.7060  -12.6486 O   0  0  0  0  0  0  0  0  0  0  0  0
   24.9781  -20.2619  -18.6126 N   0  0  0  0  0  0  0  0  0  0  0  0
   24.0904  -19.4108  -17.9196 C   0  0  0  0  0  0  0  0  0  0  0  0
   23.2635  -18.7483  -18.5820 O   0  0  0  0  0  0  0  0  0  0  0  0
   24.1258  -19.2971  -16.4496 C   0  0  0  0  0  0  0  0  0  0  0  0
   25.2101  -20.0554  -15.7782 C   0  0  0  0  0  0  0  0  0  0  0  0
   25.2099  -19.9895  -14.2731 C   0  0  2  0  0  0  0  0  0  0  0  0
   26.3602  -20.6252  -13.6936 N   0  0  0  0  0  0  0  0  0  0  0  0
   23.9639  -20.6583  -13.8231 C   0  0  0  0  0  0  0  0  0  0  0  0
   23.9640  -21.8924  -13.6642 O   0  0  0  0  0  0  0  0  0  0  0  0
   22.7966  -19.9121  -13.5789 N   0  0  0  0  0  0  0  0  0  0  0  0
   21.5952  -20.5637  -13.0558 C   0  0  1  0  0  0  0  0  0  0  0  0
   20.8425  -19.6266  -12.1785 C   0  0  0  0  0  0  0  0  0  0  0  0
   19.5688  -20.1400  -11.6921 C   0  0  0  0  0  0  0  0  0  0  0  0
   19.6176  -21.0164  -10.7508 O   0  0  0  0  0  0  0  0  0  0  0  0
   20.8284  -21.0723  -14.2106 C   0  0  0  0  0  0  0  0  0  0  0  0
   19.9439  -21.9652  -13.9902 O   0  0  0  0  0  0  0  0  0  0  0  0
   18.3072  -19.8133  -12.1070 O   0  0  0  0  0  0  0  0  0  0  0  0
   20.9695  -20.6787  -15.5184 O   0  0  0  0  0  0  0  0  0  0  0  0
  2  1  1  1
  2  3  1  0
  3  4  1  0
  4  9  2  0
  5  6  2  0
  5  4  1  0
  6  7  1  0
  7  8  2  0
  9  8  1  0
 10 11  2  0
 10  2  1  0
 12 13  1  0
 13 14  2  0
 15 13  1  0
 15 16  1  0
 17 16  1  6
 17 18  1  0
 18 10  1  0
 19 17  1  0
 19 21  1  0
 20 19  2  0
 22 21  1  0
 22 26  1  0
 23 24  1  0
 22 23  1  6
 24 25  2  0
 26 29  1  0
 27 26  2  0
 28 24  1  0
M  END
$$$$
