FGH.pdb
     RDKit          3D

 26 27  0  0  1  0  0  0  0  0999 V2000
   27.5406  -21.3253   -9.1804 N   0  0  0  0  0  0  0  0  0  0  0  0
   26.8670  -20.0650   -9.3588 C   0  0  1  0  0  0  0  0  0  0  0  0
   27.5958  -18.9729   -8.6082 C   0  0  0  0  0  0  0  0  0  0  0  0
   27.7126  -19.3257   -7.1749 C   0  0  0  0  0  0  0  0  0  0  0  0
   28.9552  -19.2762   -6.5676 C   0  0  0  0  0  0  0  0  0  0  0  0
   29.0269  -19.6119   -5.2286 C   0  0  0  0  0  0  0  0  0  0  0  0
   27.9165  -19.9852   -4.5041 C   0  0  0  0  0  0  0  0  0  0  0  0
   26.7014  -20.0190   -5.1537 C   0  0  0  0  0  0  0  0  0  0  0  0
   26.5642  -19.6955   -6.4877 C   0  0  0  0  0  0  0  0  0  0  0  0
   26.7014  -19.7252  -10.7890 C   0  0  0  0  0  0  0  0  0  0  0  0
   25.6769  -19.1035  -11.1444 O   0  0  0  0  0  0  0  0  0  0  0  0
   27.6576  -20.0742  -11.7837 N   0  0  0  0  0  0  0  0  0  0  0  0
   27.5564  -19.6453  -13.1466 C   0  0  0  0  0  0  0  0  0  0  0  0
   26.7470  -20.4977  -14.0279 C   0  0  0  0  0  0  0  0  0  0  0  0
   27.3935  -21.2544  -14.8475 O   0  0  0  0  0  0  0  0  0  0  0  0
   25.3383  -20.5442  -14.0387 N   0  0  0  0  0  0  0  0  0  0  0  0
   24.6990  -21.7569  -14.5372 C   0  0  1  0  0  0  0  0  0  0  0  0
   24.7052  -22.8401  -13.5054 C   0  0  0  0  0  0  0  0  0  0  0  0
   24.0218  -24.0328  -14.0192 C   0  0  0  0  0  0  0  0  0  0  0  0
   24.6185  -25.2049  -14.4994 C   0  0  0  0  0  0  0  0  0  0  0  0
   23.6747  -26.0669  -14.8794 N   0  0  0  0  0  0  0  0  0  0  0  0
   22.4894  -25.4964  -14.6631 C   0  0  0  0  0  0  0  0  0  0  0  0
   22.7063  -24.2553  -14.1382 N   0  0  0  0  0  0  0  0  0  0  0  0
   23.3132  -21.3965  -14.8728 C   0  0  0  0  0  0  0  0  0  0  0  0
   22.4894  -22.2849  -15.5099 O   0  0  0  0  0  0  0  0  0  0  0  0
   22.8572  -20.2641  -14.5834 O   0  0  0  0  0  0  0  0  0  0  0  0
  2 10  1  0
  2  1  1  6
  3  2  1  0
  4  3  1  0
  5  4  2  0
  6  5  1  0
  7  8  1  0
  7  6  2  0
  8  9  2  0
  9  4  1  0
 10 12  1  0
 11 10  2  0
 12 13  1  0
 14 15  2  0
 14 13  1  0
 16 14  1  0
 17 16  1  0
 17 24  1  0
 17 18  1  1
 19 18  1  0
 20 19  2  0
 21 20  1  0
 22 21  1  0
 22 23  2  0
 23 19  1  0
 24 25  1  0
 26 24  2  0
M  END
$$$$
