FGH.pdb
     RDKit          3D

 26 27  0  0  1  0  0  0  0  0999 V2000
   24.8901  -11.0439  -16.8612 N   0  0  0  0  0  0  0  0  0  0  0  0
   25.0391  -10.7783  -15.4537 C   0  0  1  0  0  0  0  0  0  0  0  0
   26.2684   -9.9320  -15.2095 C   0  0  0  0  0  0  0  0  0  0  0  0
   27.4328  -10.4997  -15.9269 C   0  0  0  0  0  0  0  0  0  0  0  0
   27.9896  -11.6841  -15.4770 C   0  0  0  0  0  0  0  0  0  0  0  0
   29.0753  -12.1849  -16.1708 C   0  0  0  0  0  0  0  0  0  0  0  0
   29.6015  -11.5468  -17.2722 C   0  0  0  0  0  0  0  0  0  0  0  0
   29.0118  -10.3701  -17.6813 C   0  0  0  0  0  0  0  0  0  0  0  0
   27.9267   -9.8192  -17.0317 C   0  0  0  0  0  0  0  0  0  0  0  0
   23.8268  -10.1559  -14.8780 C   0  0  0  0  0  0  0  0  0  0  0  0
   23.8301   -9.8389  -13.6689 O   0  0  0  0  0  0  0  0  0  0  0  0
   22.6518   -9.8998  -15.6392 N   0  0  0  0  0  0  0  0  0  0  0  0
   21.5034   -9.2348  -15.1000 C   0  0  0  0  0  0  0  0  0  0  0  0
   21.2560   -7.8761  -15.6011 C   0  0  0  0  0  0  0  0  0  0  0  0
   22.1892   -7.0100  -15.3980 O   0  0  0  0  0  0  0  0  0  0  0  0
   20.0899   -7.4622  -16.2762 N   0  0  0  0  0  0  0  0  0  0  0  0
   20.0036   -6.0683  -16.6978 C   0  0  1  0  0  0  0  0  0  0  0  0
   19.4720   -5.9521  -18.0912 C   0  0  0  0  0  0  0  0  0  0  0  0
   20.3504   -6.6608  -19.0292 C   0  0  0  0  0  0  0  0  0  0  0  0
   21.4927   -6.1545  -19.6608 C   0  0  0  0  0  0  0  0  0  0  0  0
   22.0285   -7.0934  -20.4415 N   0  0  0  0  0  0  0  0  0  0  0  0
   21.2755   -8.1887  -20.3387 C   0  0  0  0  0  0  0  0  0  0  0  0
   20.2526   -7.9199  -19.4757 N   0  0  0  0  0  0  0  0  0  0  0  0
   19.0908   -5.3988  -15.7588 C   0  0  0  0  0  0  0  0  0  0  0  0
   18.4100   -6.1124  -14.8095 O   0  0  0  0  0  0  0  0  0  0  0  0
   18.9151   -4.1577  -15.8103 O   0  0  0  0  0  0  0  0  0  0  0  0
  2 10  1  0
  2  1  1  6
  3  2  1  0
  4  3  1  0
  5  4  2  0
  6  5  1  0
  7  8  1  0
  7  6  2  0
  8  9  2  0
  9  4  1  0
 10 12  1  0
 11 10  2  0
 12 13  1  0
 14 15  2  0
 14 13  1  0
 16 14  1  0
 17 16  1  0
 17 24  1  0
 17 18  1  6
 19 18  1  0
 20 19  2  0
 21 20  1  0
 22 21  1  0
 22 23  2  0
 23 19  1  0
 24 25  1  0
 26 24  2  0
M  END
$$$$
