FGH.pdb
     RDKit          3D

 26 27  0  0  1  0  0  0  0  0999 V2000
   32.8660  -29.8246    7.7033 N   0  0  0  0  0  0  0  0  0  0  0  0
   32.9440  -30.4924    6.4298 C   0  0  1  0  0  0  0  0  0  0  0  0
   32.2313  -29.6814    5.3708 C   0  0  0  0  0  0  0  0  0  0  0  0
   30.8691  -30.2164    5.1453 C   0  0  0  0  0  0  0  0  0  0  0  0
   30.6626  -31.1246    4.1217 C   0  0  0  0  0  0  0  0  0  0  0  0
   29.3785  -31.6031    3.9402 C   0  0  0  0  0  0  0  0  0  0  0  0
   28.3268  -31.2055    4.7358 C   0  0  0  0  0  0  0  0  0  0  0  0
   28.5832  -30.2991    5.7420 C   0  0  0  0  0  0  0  0  0  0  0  0
   29.8421  -29.7849    5.9740 C   0  0  0  0  0  0  0  0  0  0  0  0
   34.3421  -30.7829    6.0435 C   0  0  0  0  0  0  0  0  0  0  0  0
   35.2384  -29.9795    6.3809 O   0  0  0  0  0  0  0  0  0  0  0  0
   34.7166  -31.9389    5.3027 N   0  0  0  0  0  0  0  0  0  0  0  0
   36.0631  -32.1958    4.8869 C   0  0  0  0  0  0  0  0  0  0  0  0
   36.2723  -33.4325    4.1219 C   0  0  0  0  0  0  0  0  0  0  0  0
   35.2270  -34.1530    3.8973 O   0  0  0  0  0  0  0  0  0  0  0  0
   37.5144  -33.8771    3.6256 N   0  0  0  0  0  0  0  0  0  0  0  0
   37.5464  -35.1419    2.8995 C   0  0  1  0  0  0  0  0  0  0  0  0
   38.4436  -35.0624    1.7052 C   0  0  0  0  0  0  0  0  0  0  0  0
   37.9689  -34.0239    0.7834 C   0  0  0  0  0  0  0  0  0  0  0  0
   38.5728  -32.7878    0.5231 C   0  0  0  0  0  0  0  0  0  0  0  0
   37.8500  -32.1138   -0.3722 N   0  0  0  0  0  0  0  0  0  0  0  0
   36.8008  -32.8676   -0.7010 C   0  0  0  0  0  0  0  0  0  0  0  0
   36.8776  -34.0322    0.0067 N   0  0  0  0  0  0  0  0  0  0  0  0
   38.0540  -36.1546    3.8375 C   0  0  0  0  0  0  0  0  0  0  0  0
   38.0868  -37.4791    3.4932 O   0  0  0  0  0  0  0  0  0  0  0  0
   38.4662  -35.8250    4.9756 O   0  0  0  0  0  0  0  0  0  0  0  0
  2 10  1  0
  2  1  1  1
  3  2  1  0
  4  3  1  0
  5  4  2  0
  6  5  1  0
  7  8  1  0
  7  6  2  0
  8  9  2  0
  9  4  1  0
 10 12  1  0
 11 10  2  0
 12 13  1  0
 14 15  2  0
 14 13  1  0
 16 14  1  0
 17 16  1  0
 17 24  1  0
 17 18  1  6
 19 18  1  0
 20 19  2  0
 21 20  1  0
 22 21  1  0
 22 23  2  0
 23 19  1  0
 24 25  1  0
 26 24  2  0
M  END
$$$$
