FGH.pdb
     RDKit          3D

 26 27  0  0  1  0  0  0  0  0999 V2000
   25.3953  -20.8590   -7.4122 N   0  0  0  0  0  0  0  0  0  0  0  0
   26.4196  -20.3514   -8.2879 C   0  0  1  0  0  0  0  0  0  0  0  0
   27.7885  -20.6769   -7.7336 C   0  0  0  0  0  0  0  0  0  0  0  0
   28.0301  -19.9181   -6.4852 C   0  0  0  0  0  0  0  0  0  0  0  0
   28.3169  -20.6094   -5.3210 C   0  0  0  0  0  0  0  0  0  0  0  0
   28.5368  -19.8688   -4.1748 C   0  0  0  0  0  0  0  0  0  0  0  0
   28.4782  -18.4927   -4.1664 C   0  0  0  0  0  0  0  0  0  0  0  0
   28.1890  -17.8502   -5.3510 C   0  0  0  0  0  0  0  0  0  0  0  0
   27.9598  -18.5322   -6.5280 C   0  0  0  0  0  0  0  0  0  0  0  0
   26.2601  -20.8502   -9.6714 C   0  0  0  0  0  0  0  0  0  0  0  0
   25.6428  -21.9212   -9.8570 O   0  0  0  0  0  0  0  0  0  0  0  0
   26.7784  -20.1652  -10.8062 N   0  0  0  0  0  0  0  0  0  0  0  0
   26.5525  -20.6031  -12.1512 C   0  0  0  0  0  0  0  0  0  0  0  0
   25.3609  -20.0539  -12.8120 C   0  0  0  0  0  0  0  0  0  0  0  0
   24.5810  -19.3315  -12.0826 O   0  0  0  0  0  0  0  0  0  0  0  0
   25.0180  -20.2588  -14.1638 N   0  0  0  0  0  0  0  0  0  0  0  0
   23.9358  -19.4562  -14.7229 C   0  0  1  0  0  0  0  0  0  0  0  0
   24.3192  -18.8685  -16.0440 C   0  0  0  0  0  0  0  0  0  0  0  0
   25.4821  -17.9871  -15.8878 C   0  0  0  0  0  0  0  0  0  0  0  0
   25.4825  -16.6667  -15.4222 C   0  0  0  0  0  0  0  0  0  0  0  0
   26.7282  -16.1909  -15.4201 N   0  0  0  0  0  0  0  0  0  0  0  0
   27.5341  -17.1542  -15.8670 C   0  0  0  0  0  0  0  0  0  0  0  0
   26.7692  -18.2484  -16.1512 N   0  0  0  0  0  0  0  0  0  0  0  0
   22.7861  -20.3575  -14.8933 C   0  0  0  0  0  0  0  0  0  0  0  0
   21.5417  -19.8644  -15.1797 O   0  0  0  0  0  0  0  0  0  0  0  0
   22.9223  -21.5992  -14.7773 O   0  0  0  0  0  0  0  0  0  0  0  0
  2 10  1  0
  2  1  1  1
  3  2  1  0
  4  3  1  0
  5  4  2  0
  6  5  1  0
  7  8  1  0
  7  6  2  0
  8  9  2  0
  9  4  1  0
 10 12  1  0
 11 10  2  0
 12 13  1  0
 14 15  2  0
 14 13  1  0
 16 14  1  0
 17 16  1  0
 17 24  1  0
 17 18  1  6
 19 18  1  0
 20 19  2  0
 21 20  1  0
 22 21  1  0
 22 23  2  0
 23 19  1  0
 24 25  1  0
 26 24  2  0
M  END
$$$$
