FGH.pdb
     RDKit          3D

 26 27  0  0  1  0  0  0  0  0999 V2000
  -24.9440  -91.1704   26.9469 N   0  0  0  0  0  0  0  0  0  0  0  0
  -24.6534  -89.9164   27.5926 C   0  0  1  0  0  0  0  0  0  0  0  0
  -25.7909  -88.9431   27.3784 C   0  0  0  0  0  0  0  0  0  0  0  0
  -25.7065  -88.3450   26.0265 C   0  0  0  0  0  0  0  0  0  0  0  0
  -26.7958  -87.6531   25.5264 C   0  0  0  0  0  0  0  0  0  0  0  0
  -26.6816  -87.1080   24.2612 C   0  0  0  0  0  0  0  0  0  0  0  0
  -25.5363  -87.2352   23.5068 C   0  0  0  0  0  0  0  0  0  0  0  0
  -24.4787  -87.9335   24.0488 C   0  0  0  0  0  0  0  0  0  0  0  0
  -24.5304  -88.5007   25.3052 C   0  0  0  0  0  0  0  0  0  0  0  0
  -24.3512  -90.0926   29.0300 C   0  0  0  0  0  0  0  0  0  0  0  0
  -25.0394  -90.8969   29.6948 O   0  0  0  0  0  0  0  0  0  0  0  0
  -23.3094  -89.3866   29.6946 N   0  0  0  0  0  0  0  0  0  0  0  0
  -23.1109  -87.9750   29.5530 C   0  0  0  0  0  0  0  0  0  0  0  0
  -24.3289  -87.1535   29.5557 C   0  0  0  0  0  0  0  0  0  0  0  0
  -24.6536  -86.6037   28.4356 O   0  0  0  0  0  0  0  0  0  0  0  0
  -25.1517  -86.9294   30.6780 N   0  0  0  0  0  0  0  0  0  0  0  0
  -25.7313  -88.0914   31.3426 C   0  0  1  0  0  0  0  0  0  0  0  0
  -27.0851  -88.4142   30.7943 C   0  0  0  0  0  0  0  0  0  0  0  0
  -26.9580  -89.1101   29.5085 C   0  0  0  0  0  0  0  0  0  0  0  0
  -26.6358  -88.5413   28.2705 C   0  0  0  0  0  0  0  0  0  0  0  0
  -26.6138  -89.4887   27.3323 N   0  0  0  0  0  0  0  0  0  0  0  0
  -26.9100  -90.6496   27.9171 C   0  0  0  0  0  0  0  0  0  0  0  0
  -27.1192  -90.4136   29.2451 N   0  0  0  0  0  0  0  0  0  0  0  0
  -24.8150  -89.2163   31.1018 C   0  0  0  0  0  0  0  0  0  0  0  0
  -24.8197  -89.8845   29.9070 O   0  0  0  0  0  0  0  0  0  0  0  0
  -24.0102  -89.5889   31.9890 O   0  0  0  0  0  0  0  0  0  0  0  0
  2 10  1  0
  2  1  1  1
  3  2  1  0
  4  3  1  0
  5  4  2  0
  6  5  1  0
  7  8  1  0
  7  6  2  0
  8  9  2  0
  9  4  1  0
 10 12  1  0
 11 10  2  0
 12 13  1  0
 14 15  2  0
 14 13  1  0
 16 14  1  0
 17 16  1  0
 17 24  1  0
 17 18  1  6
 19 18  1  0
 20 19  2  0
 21 20  1  0
 22 21  1  0
 22 23  2  0
 23 19  1  0
 24 25  1  0
 26 24  2  0
M  END
$$$$
