FGH.pdb
     RDKit          3D

 26 27  0  0  1  0  0  0  0  0999 V2000
   25.6251  -20.5804   -7.3721 N   0  0  0  0  0  0  0  0  0  0  0  0
   26.6830  -20.3378   -8.3186 C   0  0  1  0  0  0  0  0  0  0  0  0
   27.9886  -20.8939   -7.7959 C   0  0  0  0  0  0  0  0  0  0  0  0
   28.3019  -20.3091   -6.4721 C   0  0  0  0  0  0  0  0  0  0  0  0
   28.6160  -18.9640   -6.3866 C   0  0  0  0  0  0  0  0  0  0  0  0
   28.9029  -18.4522   -5.1350 C   0  0  0  0  0  0  0  0  0  0  0  0
   28.8834  -19.2321   -3.9999 C   0  0  0  0  0  0  0  0  0  0  0  0
   28.5648  -20.5661   -4.1369 C   0  0  0  0  0  0  0  0  0  0  0  0
   28.2690  -21.1365   -5.3576 C   0  0  0  0  0  0  0  0  0  0  0  0
   26.3596  -20.8760   -9.6580 C   0  0  0  0  0  0  0  0  0  0  0  0
   25.6743  -21.9184   -9.7376 O   0  0  0  0  0  0  0  0  0  0  0  0
   26.7937  -20.2604  -10.8655 N   0  0  0  0  0  0  0  0  0  0  0  0
   26.5723  -20.8373  -12.1578 C   0  0  0  0  0  0  0  0  0  0  0  0
   25.1739  -20.8879  -12.6056 C   0  0  0  0  0  0  0  0  0  0  0  0
   24.9576  -21.4343  -13.7532 O   0  0  0  0  0  0  0  0  0  0  0  0
   24.0731  -20.3893  -11.8802 N   0  0  0  0  0  0  0  0  0  0  0  0
   22.7369  -20.6385  -12.4100 C   0  0  1  0  0  0  0  0  0  0  0  0
   21.6787  -20.2252  -11.4369 C   0  0  0  0  0  0  0  0  0  0  0  0
   20.3471  -20.4923  -11.9930 C   0  0  0  0  0  0  0  0  0  0  0  0
   20.0522  -21.0617  -13.2376 C   0  0  0  0  0  0  0  0  0  0  0  0
   18.7303  -21.1459  -13.3918 N   0  0  0  0  0  0  0  0  0  0  0  0
   18.1587  -20.6520  -12.2933 C   0  0  0  0  0  0  0  0  0  0  0  0
   19.1493  -20.2545  -11.4426 N   0  0  0  0  0  0  0  0  0  0  0  0
   22.6170  -19.8457  -13.6430 C   0  0  0  0  0  0  0  0  0  0  0  0
   22.1203  -20.4011  -14.7913 O   0  0  0  0  0  0  0  0  0  0  0  0
   22.9702  -18.6421  -13.6682 O   0  0  0  0  0  0  0  0  0  0  0  0
  2 10  1  0
  2  1  1  1
  3  2  1  0
  4  3  1  0
  5  4  2  0
  6  5  1  0
  7  8  1  0
  7  6  2  0
  8  9  2  0
  9  4  1  0
 10 12  1  0
 11 10  2  0
 12 13  1  0
 14 15  2  0
 14 13  1  0
 16 14  1  0
 17 16  1  0
 17 24  1  0
 17 18  1  1
 19 18  1  0
 20 19  2  0
 21 20  1  0
 22 21  1  0
 22 23  2  0
 23 19  1  0
 24 25  1  0
 26 24  2  0
M  END
$$$$
