FGH.pdb
     RDKit          3D

 26 27  0  0  1  0  0  0  0  0999 V2000
   22.7025   -9.8945  -14.0707 N   0  0  0  0  0  0  0  0  0  0  0  0
   21.6695   -8.9445  -14.3939 C   0  0  1  0  0  0  0  0  0  0  0  0
   22.2088   -7.8851  -15.3288 C   0  0  0  0  0  0  0  0  0  0  0  0
   21.6504   -6.5592  -14.9784 C   0  0  0  0  0  0  0  0  0  0  0  0
   22.4701   -5.6201  -14.3773 C   0  0  0  0  0  0  0  0  0  0  0  0
   21.9153   -4.3933  -14.0642 C   0  0  0  0  0  0  0  0  0  0  0  0
   20.5977   -4.0931  -14.3308 C   0  0  0  0  0  0  0  0  0  0  0  0
   19.8219   -5.0617  -14.9305 C   0  0  0  0  0  0  0  0  0  0  0  0
   20.3165   -6.3047  -15.2674 C   0  0  0  0  0  0  0  0  0  0  0  0
   20.4688   -9.6033  -14.9527 C   0  0  0  0  0  0  0  0  0  0  0  0
   20.2818  -10.8157  -14.7130 O   0  0  0  0  0  0  0  0  0  0  0  0
   19.5120   -8.9188  -15.7538 N   0  0  0  0  0  0  0  0  0  0  0  0
   18.1384   -9.3163  -15.8376 C   0  0  0  0  0  0  0  0  0  0  0  0
   17.3056   -8.9926  -14.6714 C   0  0  0  0  0  0  0  0  0  0  0  0
   16.0381   -9.1920  -14.7975 O   0  0  0  0  0  0  0  0  0  0  0  0
   17.7883   -8.4884  -13.4469 N   0  0  0  0  0  0  0  0  0  0  0  0
   16.8111   -8.0574  -12.4533 C   0  0  1  0  0  0  0  0  0  0  0  0
   17.0281   -8.7434  -11.1417 C   0  0  0  0  0  0  0  0  0  0  0  0
   16.0856   -8.2311  -10.1403 C   0  0  0  0  0  0  0  0  0  0  0  0
   14.8631   -8.8005   -9.7643 C   0  0  0  0  0  0  0  0  0  0  0  0
   14.2872   -8.0497   -8.8248 N   0  0  0  0  0  0  0  0  0  0  0  0
   15.0915   -7.0155   -8.5786 C   0  0  0  0  0  0  0  0  0  0  0  0
   16.1877   -7.1304   -9.3837 N   0  0  0  0  0  0  0  0  0  0  0  0
   16.9856   -6.6060  -12.2913 C   0  0  0  0  0  0  0  0  0  0  0  0
   15.9694   -5.8243  -11.8116 O   0  0  0  0  0  0  0  0  0  0  0  0
   18.0708   -6.0532  -12.5921 O   0  0  0  0  0  0  0  0  0  0  0  0
  2 10  1  0
  2  1  1  6
  3  2  1  0
  4  3  1  0
  5  4  2  0
  6  5  1  0
  7  8  1  0
  7  6  2  0
  8  9  2  0
  9  4  1  0
 10 12  1  0
 11 10  2  0
 12 13  1  0
 14 15  2  0
 14 13  1  0
 16 14  1  0
 17 16  1  0
 17 24  1  0
 17 18  1  1
 19 18  1  0
 20 19  2  0
 21 20  1  0
 22 21  1  0
 22 23  2  0
 23 19  1  0
 24 25  1  0
 26 24  2  0
M  END
$$$$
