FGH.pdb
     RDKit          3D

 26 27  0  0  1  0  0  0  0  0999 V2000
   29.4748    2.8587    0.3863 N   0  0  0  0  0  0  0  0  0  0  0  0
   28.4286    3.2954   -0.5017 C   0  0  1  0  0  0  0  0  0  0  0  0
   28.2771    4.7984   -0.4304 C   0  0  0  0  0  0  0  0  0  0  0  0
   27.0081    5.2169   -1.0685 C   0  0  0  0  0  0  0  0  0  0  0  0
   27.0200    5.6187   -2.3928 C   0  0  0  0  0  0  0  0  0  0  0  0
   25.8173    6.0025   -2.9558 C   0  0  0  0  0  0  0  0  0  0  0  0
   24.6373    5.9940   -2.2453 C   0  0  0  0  0  0  0  0  0  0  0  0
   24.6772    5.5857   -0.9295 C   0  0  0  0  0  0  0  0  0  0  0  0
   25.8452    5.1909   -0.3105 C   0  0  0  0  0  0  0  0  0  0  0  0
   28.6553    2.8365   -1.8896 C   0  0  0  0  0  0  0  0  0  0  0  0
   29.7977    2.9549   -2.3830 O   0  0  0  0  0  0  0  0  0  0  0  0
   27.6296    2.2641   -2.6933 N   0  0  0  0  0  0  0  0  0  0  0  0
   27.8642    1.7587   -4.0129 C   0  0  0  0  0  0  0  0  0  0  0  0
   26.6902    1.2142   -4.7084 C   0  0  0  0  0  0  0  0  0  0  0  0
   25.7203    0.8048   -3.9641 O   0  0  0  0  0  0  0  0  0  0  0  0
   26.5540    1.1105   -6.1074 N   0  0  0  0  0  0  0  0  0  0  0  0
   25.3000    0.5831   -6.6341 C   0  0  1  0  0  0  0  0  0  0  0  0
   24.1528    1.4910   -6.3221 C   0  0  0  0  0  0  0  0  0  0  0  0
   24.3778    2.8139   -6.9160 C   0  0  0  0  0  0  0  0  0  0  0  0
   25.5030    3.2346   -7.6351 C   0  0  0  0  0  0  0  0  0  0  0  0
   25.3449    4.5026   -8.0164 N   0  0  0  0  0  0  0  0  0  0  0  0
   24.1591    4.9183   -7.5708 C   0  0  0  0  0  0  0  0  0  0  0  0
   23.5727    3.8843   -6.9000 N   0  0  0  0  0  0  0  0  0  0  0  0
   25.4667    0.4737   -8.0913 C   0  0  0  0  0  0  0  0  0  0  0  0
   24.4402    0.0404   -8.8865 O   0  0  0  0  0  0  0  0  0  0  0  0
   26.5562    0.7737   -8.6362 O   0  0  0  0  0  0  0  0  0  0  0  0
  2 10  1  0
  2  1  1  1
  3  2  1  0
  4  3  1  0
  5  4  2  0
  6  5  1  0
  7  8  1  0
  7  6  2  0
  8  9  2  0
  9  4  1  0
 10 12  1  0
 11 10  2  0
 12 13  1  0
 14 15  2  0
 14 13  1  0
 16 14  1  0
 17 16  1  0
 17 24  1  0
 17 18  1  6
 19 18  1  0
 20 19  2  0
 21 20  1  0
 22 21  1  0
 22 23  2  0
 23 19  1  0
 24 25  1  0
 26 24  2  0
M  END
$$$$
