FGH.pdb
     RDKit          3D

 26 27  0  0  1  0  0  0  0  0999 V2000
   25.5356  -10.3133  -19.4524 N   0  0  0  0  0  0  0  0  0  0  0  0
   24.7606   -9.5284  -18.5265 C   0  0  1  0  0  0  0  0  0  0  0  0
   25.6525   -8.5454  -17.8017 C   0  0  0  0  0  0  0  0  0  0  0  0
   26.8220   -9.2447  -17.2221 C   0  0  0  0  0  0  0  0  0  0  0  0
   28.0810   -8.9961  -17.7401 C   0  0  0  0  0  0  0  0  0  0  0  0
   29.1494   -9.6664  -17.1747 C   0  0  0  0  0  0  0  0  0  0  0  0
   28.9922  -10.5540  -16.1332 C   0  0  0  0  0  0  0  0  0  0  0  0
   27.7184  -10.7678  -15.6520 C   0  0  0  0  0  0  0  0  0  0  0  0
   26.6118  -10.1300  -16.1733 C   0  0  0  0  0  0  0  0  0  0  0  0
   23.6287   -8.8475  -19.1924 C   0  0  0  0  0  0  0  0  0  0  0  0
   23.5506   -8.8907  -20.4392 O   0  0  0  0  0  0  0  0  0  0  0  0
   22.6200   -8.1426  -18.4775 N   0  0  0  0  0  0  0  0  0  0  0  0
   21.4753   -7.5621  -19.1134 C   0  0  0  0  0  0  0  0  0  0  0  0
   20.5050   -6.9158  -18.2194 C   0  0  0  0  0  0  0  0  0  0  0  0
   20.6934   -7.0769  -16.9542 O   0  0  0  0  0  0  0  0  0  0  0  0
   19.4025   -6.1459  -18.6422 N   0  0  0  0  0  0  0  0  0  0  0  0
   18.4971   -5.6316  -17.6207 C   0  0  1  0  0  0  0  0  0  0  0  0
   17.6111   -4.5577  -18.1681 C   0  0  0  0  0  0  0  0  0  0  0  0
   16.6807   -4.0922  -17.1330 C   0  0  0  0  0  0  0  0  0  0  0  0
   16.9968   -3.3563  -15.9847 C   0  0  0  0  0  0  0  0  0  0  0  0
   15.8878   -3.1187  -15.2833 N   0  0  0  0  0  0  0  0  0  0  0  0
   14.8657   -3.6736  -15.9350 C   0  0  0  0  0  0  0  0  0  0  0  0
   15.3544   -4.2665  -17.0631 N   0  0  0  0  0  0  0  0  0  0  0  0
   17.6808   -6.7685  -17.1686 C   0  0  0  0  0  0  0  0  0  0  0  0
   17.6427   -7.9356  -17.8830 O   0  0  0  0  0  0  0  0  0  0  0  0
   16.9997   -6.6911  -16.1180 O   0  0  0  0  0  0  0  0  0  0  0  0
  2 10  1  0
  2  1  1  6
  3  2  1  0
  4  3  1  0
  5  4  2  0
  6  5  1  0
  7  8  1  0
  7  6  2  0
  8  9  2  0
  9  4  1  0
 10 12  1  0
 11 10  2  0
 12 13  1  0
 14 15  2  0
 14 13  1  0
 16 14  1  0
 17 16  1  0
 17 24  1  0
 17 18  1  6
 19 18  1  0
 20 19  2  0
 21 20  1  0
 22 21  1  0
 22 23  2  0
 23 19  1  0
 24 25  1  0
 26 24  2  0
M  END
$$$$
