FGH.pdb
     RDKit          3D

 26 27  0  0  1  0  0  0  0  0999 V2000
   26.1527  -14.3042  -15.3908 N   0  0  0  0  0  0  0  0  0  0  0  0
   26.7506  -13.0717  -15.8352 C   0  0  1  0  0  0  0  0  0  0  0  0
   28.1448  -13.3282  -16.3619 C   0  0  0  0  0  0  0  0  0  0  0  0
   28.6903  -12.1021  -16.9877 C   0  0  0  0  0  0  0  0  0  0  0  0
   28.6611  -11.9785  -18.3659 C   0  0  0  0  0  0  0  0  0  0  0  0
   29.1788  -10.8207  -18.9155 C   0  0  0  0  0  0  0  0  0  0  0  0
   29.7098   -9.8130  -18.1410 C   0  0  0  0  0  0  0  0  0  0  0  0
   29.7161   -9.9831  -16.7733 C   0  0  0  0  0  0  0  0  0  0  0  0
   29.2146  -11.1148  -16.1643 C   0  0  0  0  0  0  0  0  0  0  0  0
   25.9095  -12.3795  -16.8360 C   0  0  0  0  0  0  0  0  0  0  0  0
   25.2723  -13.0659  -17.6639 O   0  0  0  0  0  0  0  0  0  0  0  0
   25.7910  -10.9627  -16.9011 N   0  0  0  0  0  0  0  0  0  0  0  0
   24.9474  -10.2938  -17.8459 C   0  0  0  0  0  0  0  0  0  0  0  0
   23.9907   -9.3320  -17.2819 C   0  0  0  0  0  0  0  0  0  0  0  0
   24.3594   -8.7156  -16.2112 O   0  0  0  0  0  0  0  0  0  0  0  0
   22.7210   -9.0423  -17.8209 N   0  0  0  0  0  0  0  0  0  0  0  0
   21.9048   -8.0399  -17.1448 C   0  0  1  0  0  0  0  0  0  0  0  0
   20.7168   -7.6575  -17.9695 C   0  0  0  0  0  0  0  0  0  0  0  0
   19.9503   -6.6033  -17.2951 C   0  0  0  0  0  0  0  0  0  0  0  0
   20.3633   -5.8263  -16.2061 C   0  0  0  0  0  0  0  0  0  0  0  0
   19.3957   -4.9725  -15.8701 N   0  0  0  0  0  0  0  0  0  0  0  0
   18.3717   -5.1680  -16.7011 C   0  0  0  0  0  0  0  0  0  0  0  0
   18.7148   -6.1641  -17.5689 N   0  0  0  0  0  0  0  0  0  0  0  0
   21.4596   -8.6418  -15.8788 C   0  0  0  0  0  0  0  0  0  0  0  0
   21.2626   -7.8717  -14.7644 O   0  0  0  0  0  0  0  0  0  0  0  0
   21.2529   -9.8762  -15.7936 O   0  0  0  0  0  0  0  0  0  0  0  0
  2 10  1  0
  2  1  1  6
  3  2  1  0
  4  3  1  0
  5  4  2  0
  6  5  1  0
  7  8  1  0
  7  6  2  0
  8  9  2  0
  9  4  1  0
 10 12  1  0
 11 10  2  0
 12 13  1  0
 14 15  2  0
 14 13  1  0
 16 14  1  0
 17 16  1  0
 17 24  1  0
 17 18  1  6
 19 18  1  0
 20 19  2  0
 21 20  1  0
 22 21  1  0
 22 23  2  0
 23 19  1  0
 24 25  1  0
 26 24  2  0
M  END
$$$$
