FGH.pdb
     RDKit          3D

 26 27  0  0  1  0  0  0  0  0999 V2000
   25.9390   -7.0314  -17.9891 N   0  0  0  0  0  0  0  0  0  0  0  0
   25.0468   -6.0840  -18.6059 C   0  0  1  0  0  0  0  0  0  0  0  0
   25.6742   -5.5158  -19.8591 C   0  0  0  0  0  0  0  0  0  0  0  0
   26.9223   -4.7922  -19.5252 C   0  0  0  0  0  0  0  0  0  0  0  0
   28.1089   -5.4992  -19.4394 C   0  0  0  0  0  0  0  0  0  0  0  0
   29.2542   -4.7914  -19.1258 C   0  0  0  0  0  0  0  0  0  0  0  0
   29.2402   -3.4323  -18.9025 C   0  0  0  0  0  0  0  0  0  0  0  0
   28.0337   -2.7731  -18.9996 C   0  0  0  0  0  0  0  0  0  0  0  0
   26.8564   -3.4223  -19.3090 C   0  0  0  0  0  0  0  0  0  0  0  0
   23.7191   -6.6749  -18.8818 C   0  0  0  0  0  0  0  0  0  0  0  0
   23.6289   -7.9143  -19.0168 O   0  0  0  0  0  0  0  0  0  0  0  0
   22.5342   -5.8955  -19.0013 N   0  0  0  0  0  0  0  0  0  0  0  0
   21.2345   -6.4738  -19.1690 C   0  0  0  0  0  0  0  0  0  0  0  0
   20.6051   -6.9992  -17.9499 C   0  0  0  0  0  0  0  0  0  0  0  0
   19.3520   -7.2918  -18.0305 O   0  0  0  0  0  0  0  0  0  0  0  0
   21.2649   -7.2015  -16.7208 N   0  0  0  0  0  0  0  0  0  0  0  0
   20.4682   -7.6494  -15.5839 C   0  0  1  0  0  0  0  0  0  0  0  0
   20.6809   -9.1042  -15.3082 C   0  0  0  0  0  0  0  0  0  0  0  0
   22.1162   -9.4078  -15.2703 C   0  0  0  0  0  0  0  0  0  0  0  0
   23.1732   -8.5079  -15.4523 C   0  0  0  0  0  0  0  0  0  0  0  0
   24.3358   -9.1525  -15.3471 N   0  0  0  0  0  0  0  0  0  0  0  0
   24.0706  -10.4361  -15.1038 C   0  0  0  0  0  0  0  0  0  0  0  0
   22.7148  -10.5871  -15.0578 N   0  0  0  0  0  0  0  0  0  0  0  0
   20.9016   -6.8541  -14.4250 C   0  0  0  0  0  0  0  0  0  0  0  0
   20.2908   -6.9932  -13.2079 O   0  0  0  0  0  0  0  0  0  0  0  0
   21.8407   -6.0287  -14.5290 O   0  0  0  0  0  0  0  0  0  0  0  0
  2 10  1  0
  2  1  1  6
  3  2  1  0
  4  3  1  0
  5  4  2  0
  6  5  1  0
  7  8  1  0
  7  6  2  0
  8  9  2  0
  9  4  1  0
 10 12  1  0
 11 10  2  0
 12 13  1  0
 14 15  2  0
 14 13  1  0
 16 14  1  0
 17 16  1  0
 17 24  1  0
 17 18  1  1
 19 18  1  0
 20 19  2  0
 21 20  1  0
 22 21  1  0
 22 23  2  0
 23 19  1  0
 24 25  1  0
 26 24  2  0
M  END
$$$$
