NNL.pdb
     RDKit          3D

 25 24  0  0  1  0  0  0  0  0999 V2000
   16.6068  -12.9654  -19.6993 N   0  0  0  0  0  0  0  0  0  0  0  0
   16.4042  -11.8873  -20.5905 C   0  0  0  0  0  0  0  0  0  0  0  0
   16.0192  -12.1567  -21.7512 O   0  0  0  0  0  0  0  0  0  0  0  0
   16.6271  -10.4908  -20.2029 C   0  0  0  0  0  0  0  0  0  0  0  0
   17.0549  -10.4027  -18.7606 C   0  0  2  0  0  0  0  0  0  0  0  0
   15.9917  -10.8301  -17.8816 N   0  0  0  0  0  0  0  0  0  0  0  0
   17.5073   -9.0406  -18.4033 C   0  0  0  0  0  0  0  0  0  0  0  0
   18.4225   -8.4401  -19.0313 O   0  0  0  0  0  0  0  0  0  0  0  0
   17.7606   -4.4404  -16.1465 N   0  0  0  0  0  0  0  0  0  0  0  0
   16.5082   -4.9709  -15.7802 C   0  0  0  0  0  0  0  0  0  0  0  0
   15.6664   -4.2576  -15.1742 O   0  0  0  0  0  0  0  0  0  0  0  0
   16.1737   -6.3739  -16.1065 C   0  0  0  0  0  0  0  0  0  0  0  0
   17.2958   -7.0684  -16.8571 C   0  0  2  0  0  0  0  0  0  0  0  0
   16.8898   -8.3804  -17.3115 N   0  0  0  0  0  0  0  0  0  0  0  0
   18.3952   -7.2478  -15.8640 C   0  0  0  0  0  0  0  0  0  0  0  0
   18.2764   -6.6618  -14.7583 O   0  0  0  0  0  0  0  0  0  0  0  0
   23.4088   -9.6447  -15.2303 C   0  0  0  0  0  0  0  0  0  0  0  0
   22.1274  -10.1728  -14.5026 C   0  0  1  0  0  0  0  0  0  0  0  0
   22.3048   -9.7436  -13.0906 C   0  0  0  0  0  0  0  0  0  0  0  0
   21.0054   -9.6276  -15.2752 C   0  0  0  0  0  0  0  0  0  0  0  0
   20.5317   -8.2393  -15.0902 C   0  0  2  0  0  0  0  0  0  0  0  0
   19.5223   -8.0490  -16.1672 N   0  0  0  0  0  0  0  0  0  0  0  0
   21.5904   -7.2514  -15.3207 C   0  0  0  0  0  0  0  0  0  0  0  0
   22.2808   -6.7535  -14.1912 O   0  0  0  0  0  0  0  0  0  0  0  0
   21.9654   -6.7850  -16.4159 O   0  0  0  0  0  0  0  0  0  0  0  0
  1  2  1  0
  2  3  2  0
  4  2  1  0
  5  4  1  0
  5  6  1  1
  7  8  2  0
  7  5  1  0
 10  9  1  0
 10 12  1  0
 11 10  2  0
 13 12  1  1
 13 14  1  0
 14  7  1  0
 15 22  1  0
 15 13  1  0
 16 15  2  0
 18 19  1  1
 18 17  1  0
 20 18  1  0
 21 20  1  6
 21 22  1  0
 23 21  1  0
 24 23  1  0
 25 23  2  0
M  END
$$$$
