NNL.pdb
     RDKit          3D

 25 24  0  0  1  0  0  0  0  0999 V2000
   35.6296  -31.9648  -20.1640 N   0  0  0  0  0  0  0  0  0  0  0  0
   34.2503  -32.2468  -20.2883 C   0  0  0  0  0  0  0  0  0  0  0  0
   33.8564  -32.7632  -21.3589 O   0  0  0  0  0  0  0  0  0  0  0  0
   33.2868  -31.9581  -19.2214 C   0  0  0  0  0  0  0  0  0  0  0  0
   33.9847  -31.3732  -18.0206 C   0  0  2  0  0  0  0  0  0  0  0  0
   34.4585  -32.4168  -17.1420 N   0  0  0  0  0  0  0  0  0  0  0  0
   33.1152  -30.4301  -17.2842 C   0  0  0  0  0  0  0  0  0  0  0  0
   32.3261  -30.8016  -16.3721 O   0  0  0  0  0  0  0  0  0  0  0  0
   31.5216  -26.1303  -15.1691 N   0  0  0  0  0  0  0  0  0  0  0  0
   32.4286  -25.7134  -16.1629 C   0  0  0  0  0  0  0  0  0  0  0  0
   32.8793  -24.5380  -16.1620 O   0  0  0  0  0  0  0  0  0  0  0  0
   32.8584  -26.6575  -17.2169 C   0  0  0  0  0  0  0  0  0  0  0  0
   32.3311  -28.0605  -16.9757 C   0  0  2  0  0  0  0  0  0  0  0  0
   33.1683  -29.0527  -17.6141 N   0  0  0  0  0  0  0  0  0  0  0  0
   30.9896  -28.1054  -17.6281 C   0  0  0  0  0  0  0  0  0  0  0  0
   30.8427  -28.8973  -18.5932 O   0  0  0  0  0  0  0  0  0  0  0  0
   28.3025  -31.3130  -15.8003 C   0  0  0  0  0  0  0  0  0  0  0  0
   28.4615  -30.3648  -17.0357 C   0  0  1  0  0  0  0  0  0  0  0  0
   27.3252  -30.7258  -17.9233 C   0  0  0  0  0  0  0  0  0  0  0  0
   28.5172  -29.0134  -16.4669 C   0  0  0  0  0  0  0  0  0  0  0  0
   28.5476  -27.8073  -17.3216 C   0  0  2  0  0  0  0  0  0  0  0  0
   29.9324  -27.2836  -17.1688 N   0  0  0  0  0  0  0  0  0  0  0  0
   27.6415  -26.7588  -16.8424 C   0  0  0  0  0  0  0  0  0  0  0  0
   26.3874  -26.6315  -17.4836 O   0  0  0  0  0  0  0  0  0  0  0  0
   27.8458  -25.9463  -15.9174 O   0  0  0  0  0  0  0  0  0  0  0  0
  1  2  1  0
  2  3  2  0
  4  2  1  0
  5  4  1  0
  5  6  1  1
  7  8  2  0
  7  5  1  0
 10  9  1  0
 10 12  1  0
 11 10  2  0
 13 12  1  6
 13 14  1  0
 14  7  1  0
 15 22  1  0
 15 13  1  0
 16 15  2  0
 18 19  1  6
 18 17  1  0
 20 18  1  0
 21 20  1  1
 21 22  1  0
 23 21  1  0
 24 23  1  0
 25 23  2  0
M  END
$$$$
