NNL.pdb
     RDKit          3D

 25 24  0  0  1  0  0  0  0  0999 V2000
   29.6236  -20.8853  -18.0418 N   0  0  0  0  0  0  0  0  0  0  0  0
   29.4282  -22.1901  -17.5352 C   0  0  0  0  0  0  0  0  0  0  0  0
   30.1622  -23.1023  -17.9790 O   0  0  0  0  0  0  0  0  0  0  0  0
   28.4111  -22.5002  -16.5254 C   0  0  0  0  0  0  0  0  0  0  0  0
   27.5959  -21.2751  -16.2003 C   0  0  2  0  0  0  0  0  0  0  0  0
   28.4523  -20.1587  -15.8750 N   0  0  0  0  0  0  0  0  0  0  0  0
   26.6351  -21.5285  -15.1047 C   0  0  0  0  0  0  0  0  0  0  0  0
   25.7778  -22.4533  -15.1508 O   0  0  0  0  0  0  0  0  0  0  0  0
   24.4283  -21.3611  -10.4669 N   0  0  0  0  0  0  0  0  0  0  0  0
   25.6028  -20.5913  -10.3568 C   0  0  0  0  0  0  0  0  0  0  0  0
   25.9958  -20.1855   -9.2318 O   0  0  0  0  0  0  0  0  0  0  0  0
   26.3840  -20.2542  -11.5663 C   0  0  0  0  0  0  0  0  0  0  0  0
   25.8079  -20.8971  -12.8151 C   0  0  2  0  0  0  0  0  0  0  0  0
   26.6766  -20.7005  -13.9550 N   0  0  0  0  0  0  0  0  0  0  0  0
   24.5282  -20.1786  -13.0856 C   0  0  0  0  0  0  0  0  0  0  0  0
   24.6060  -19.0313  -13.5933 O   0  0  0  0  0  0  0  0  0  0  0  0
   21.3261  -20.2293  -17.0671 C   0  0  0  0  0  0  0  0  0  0  0  0
   22.0696  -19.4800  -15.9112 C   0  0  1  0  0  0  0  0  0  0  0  0
   21.1942  -18.3185  -15.6047 C   0  0  0  0  0  0  0  0  0  0  0  0
   22.2832  -20.5006  -14.8788 C   0  0  0  0  0  0  0  0  0  0  0  0
   22.0752  -20.2143  -13.4432 C   0  0  2  0  0  0  0  0  0  0  0  0
   23.2823  -20.7762  -12.7780 N   0  0  0  0  0  0  0  0  0  0  0  0
   20.9170  -20.9254  -12.8928 C   0  0  0  0  0  0  0  0  0  0  0  0
   19.7590  -20.1674  -12.6016 O   0  0  0  0  0  0  0  0  0  0  0  0
   20.8256  -22.1449  -12.6438 O   0  0  0  0  0  0  0  0  0  0  0  0
  1  2  1  0
  2  3  2  0
  4  2  1  0
  5  4  1  0
  5  6  1  1
  7  8  2  0
  7  5  1  0
 10  9  1  0
 10 12  1  0
 11 10  2  0
 13 12  1  1
 13 14  1  0
 14  7  1  0
 15 22  1  0
 15 13  1  0
 16 15  2  0
 18 19  1  1
 18 17  1  0
 20 18  1  0
 21 20  1  6
 21 22  1  0
 23 21  1  0
 24 23  1  0
 25 23  2  0
M  END
$$$$
