NNL.pdb
     RDKit          3D

 25 24  0  0  1  0  0  0  0  0999 V2000
   18.5387  -14.7656  -17.1671 N   0  0  0  0  0  0  0  0  0  0  0  0
   17.7842  -14.0509  -18.1249 C   0  0  0  0  0  0  0  0  0  0  0  0
   17.3945  -14.6723  -19.1398 O   0  0  0  0  0  0  0  0  0  0  0  0
   17.4515  -12.6315  -17.9677 C   0  0  0  0  0  0  0  0  0  0  0  0
   18.2160  -12.0321  -16.8156 C   0  0  2  0  0  0  0  0  0  0  0  0
   17.4834  -12.1797  -15.5798 N   0  0  0  0  0  0  0  0  0  0  0  0
   18.5476  -10.6108  -17.0555 C   0  0  0  0  0  0  0  0  0  0  0  0
   19.2273  -10.2280  -18.0474 O   0  0  0  0  0  0  0  0  0  0  0  0
   18.5163   -5.5291  -16.8737 N   0  0  0  0  0  0  0  0  0  0  0  0
   17.3089   -5.9658  -16.2944 C   0  0  0  0  0  0  0  0  0  0  0  0
   16.3809   -5.1475  -16.0619 O   0  0  0  0  0  0  0  0  0  0  0  0
   17.1237   -7.3930  -15.9547 C   0  0  0  0  0  0  0  0  0  0  0  0
   18.3496   -8.2232  -16.2904 C   0  0  2  0  0  0  0  0  0  0  0  0
   18.0844   -9.6369  -16.1357 N   0  0  0  0  0  0  0  0  0  0  0  0
   19.3847   -7.8391  -15.2863 C   0  0  0  0  0  0  0  0  0  0  0  0
   19.0831   -7.9568  -14.0717 O   0  0  0  0  0  0  0  0  0  0  0  0
   24.3189   -9.6930  -15.3797 C   0  0  0  0  0  0  0  0  0  0  0  0
   22.9363   -9.2771  -14.7747 C   0  0  1  0  0  0  0  0  0  0  0  0
   22.9840   -9.7752  -13.3751 C   0  0  0  0  0  0  0  0  0  0  0  0
   22.8423   -7.8321  -15.0118 C   0  0  0  0  0  0  0  0  0  0  0  0
   21.6435   -7.0550  -14.6311 C   0  0  2  0  0  0  0  0  0  0  0  0
   20.6524   -7.3624  -15.6982 N   0  0  0  0  0  0  0  0  0  0  0  0
   21.8779   -5.6081  -14.6732 C   0  0  0  0  0  0  0  0  0  0  0  0
   22.4894   -5.0093  -13.5473 O   0  0  0  0  0  0  0  0  0  0  0  0
   21.5974   -4.8223  -15.6013 O   0  0  0  0  0  0  0  0  0  0  0  0
  1  2  1  0
  2  3  2  0
  4  2  1  0
  5  4  1  0
  5  6  1  1
  7  8  2  0
  7  5  1  0
 10  9  1  0
 10 12  1  0
 11 10  2  0
 13 12  1  1
 13 14  1  0
 14  7  1  0
 15 22  1  0
 15 13  1  0
 16 15  2  0
 18 19  1  1
 18 17  1  0
 20 18  1  0
 21 20  1  6
 21 22  1  0
 23 21  1  0
 24 23  1  0
 25 23  2  0
M  END
$$$$
