NNL.pdb
     RDKit          3D

 25 24  0  0  1  0  0  0  0  0999 V2000
   16.7666  -20.2747  -14.7498 N   0  0  0  0  0  0  0  0  0  0  0  0
   16.9412  -21.2278  -13.7208 C   0  0  0  0  0  0  0  0  0  0  0  0
   15.9558  -21.4839  -12.9920 O   0  0  0  0  0  0  0  0  0  0  0  0
   18.2171  -21.9115  -13.4871 C   0  0  0  0  0  0  0  0  0  0  0  0
   19.3709  -20.9610  -13.6786 C   0  0  2  0  0  0  0  0  0  0  0  0
   19.4291  -20.4909  -15.0428 N   0  0  0  0  0  0  0  0  0  0  0  0
   20.6588  -21.5729  -13.2853 C   0  0  0  0  0  0  0  0  0  0  0  0
   20.8411  -22.1116  -12.1588 O   0  0  0  0  0  0  0  0  0  0  0  0
   25.0715  -24.4752  -14.4752 N   0  0  0  0  0  0  0  0  0  0  0  0
   25.0323  -23.1732  -15.0113 C   0  0  0  0  0  0  0  0  0  0  0  0
   26.0993  -22.5664  -15.2903 O   0  0  0  0  0  0  0  0  0  0  0  0
   23.7328  -22.5091  -15.2502 C   0  0  0  0  0  0  0  0  0  0  0  0
   22.9965  -22.2135  -13.9559 C   0  0  2  0  0  0  0  0  0  0  0  0
   21.7335  -21.5551  -14.2092 N   0  0  0  0  0  0  0  0  0  0  0  0
   23.8664  -21.2616  -13.2048 C   0  0  0  0  0  0  0  0  0  0  0  0
   23.7969  -20.0460  -13.5170 O   0  0  0  0  0  0  0  0  0  0  0  0
   26.1185  -19.5442   -8.5816 C   0  0  0  0  0  0  0  0  0  0  0  0
   26.9691  -20.5766   -9.3947 C   0  0  1  0  0  0  0  0  0  0  0  0
   27.6684  -21.3753   -8.3543 C   0  0  0  0  0  0  0  0  0  0  0  0
   26.0054  -21.2458  -10.2758 C   0  0  0  0  0  0  0  0  0  0  0  0
   25.7198  -20.7508  -11.6393 C   0  0  2  0  0  0  0  0  0  0  0  0
   24.7316  -21.7219  -12.1832 N   0  0  0  0  0  0  0  0  0  0  0  0
   26.8960  -20.8073  -12.5130 C   0  0  0  0  0  0  0  0  0  0  0  0
   27.4480  -19.5810  -12.9508 O   0  0  0  0  0  0  0  0  0  0  0  0
   27.4830  -21.8277  -12.9274 O   0  0  0  0  0  0  0  0  0  0  0  0
  1  2  1  0
  2  3  2  0
  4  2  1  0
  5  4  1  0
  5  6  1  6
  7  8  2  0
  7  5  1  0
 10  9  1  0
 10 12  1  0
 11 10  2  0
 13 12  1  6
 13 14  1  0
 14  7  1  0
 15 22  1  0
 15 13  1  0
 16 15  2  0
 18 19  1  1
 18 17  1  0
 20 18  1  0
 21 20  1  1
 21 22  1  0
 23 21  1  0
 24 23  1  0
 25 23  2  0
M  END
$$$$
