NNL.pdb
     RDKit          3D

 25 24  0  0  1  0  0  0  0  0999 V2000
   29.7993  -19.1740  -18.6067 N   0  0  0  0  0  0  0  0  0  0  0  0
   28.5651  -19.8056  -18.3320 C   0  0  0  0  0  0  0  0  0  0  0  0
   28.2040  -20.7323  -19.0928 O   0  0  0  0  0  0  0  0  0  0  0  0
   27.7127  -19.4150  -17.2047 C   0  0  0  0  0  0  0  0  0  0  0  0
   27.9531  -20.3162  -16.0210 C   0  0  2  0  0  0  0  0  0  0  0  0
   27.6331  -21.6868  -16.3445 N   0  0  0  0  0  0  0  0  0  0  0  0
   27.1955  -19.8739  -14.8301 C   0  0  0  0  0  0  0  0  0  0  0  0
   27.2602  -18.6967  -14.3801 O   0  0  0  0  0  0  0  0  0  0  0  0
   21.9930  -21.5454  -12.0923 N   0  0  0  0  0  0  0  0  0  0  0  0
   23.0103  -20.6463  -12.4678 C   0  0  0  0  0  0  0  0  0  0  0  0
   23.0570  -19.4919  -11.9679 O   0  0  0  0  0  0  0  0  0  0  0  0
   24.0329  -21.0546  -13.4548 C   0  0  0  0  0  0  0  0  0  0  0  0
   25.3827  -20.4189  -13.1743 C   0  0  2  0  0  0  0  0  0  0  0  0
   26.3621  -20.8080  -14.1652 N   0  0  0  0  0  0  0  0  0  0  0  0
   25.8213  -20.9669  -11.8573 C   0  0  0  0  0  0  0  0  0  0  0  0
   26.1457  -22.1807  -11.8158 O   0  0  0  0  0  0  0  0  0  0  0  0
   28.6881  -20.9629   -7.3332 C   0  0  0  0  0  0  0  0  0  0  0  0
   27.3796  -20.1056   -7.2758 C   0  0  1  0  0  0  0  0  0  0  0  0
   27.7462  -18.9330   -6.4393 C   0  0  0  0  0  0  0  0  0  0  0  0
   27.0107  -19.8895   -8.6795 C   0  0  0  0  0  0  0  0  0  0  0  0
   26.1057  -20.8107   -9.3995 C   0  0  2  0  0  0  0  0  0  0  0  0
   25.8659  -20.1423  -10.7076 N   0  0  0  0  0  0  0  0  0  0  0  0
   24.8009  -20.9400   -8.7431 C   0  0  0  0  0  0  0  0  0  0  0  0
   24.6881  -21.8713   -7.6846 O   0  0  0  0  0  0  0  0  0  0  0  0
   23.7539  -20.3154   -9.0099 O   0  0  0  0  0  0  0  0  0  0  0  0
  1  2  1  0
  2  3  2  0
  4  2  1  0
  5  4  1  0
  5  6  1  6
  7  8  2  0
  7  5  1  0
 10  9  1  0
 10 12  1  0
 11 10  2  0
 13 12  1  6
 13 14  1  0
 14  7  1  0
 15 22  1  0
 15 13  1  0
 16 15  2  0
 18 19  1  6
 18 17  1  0
 20 18  1  0
 21 20  1  1
 21 22  1  0
 23 21  1  0
 24 23  1  0
 25 23  2  0
M  END
$$$$
