NNL.pdb
     RDKit          3D

 25 24  0  0  1  0  0  0  0  0999 V2000
   25.1605  -18.9821  -19.2519 N   0  0  0  0  0  0  0  0  0  0  0  0
   24.0625  -18.4366  -18.5488 C   0  0  0  0  0  0  0  0  0  0  0  0
   23.6020  -17.3426  -18.9476 O   0  0  0  0  0  0  0  0  0  0  0  0
   23.4594  -19.1013  -17.3892 C   0  0  0  0  0  0  0  0  0  0  0  0
   24.5271  -19.6400  -16.4722 C   0  0  2  0  0  0  0  0  0  0  0  0
   24.6608  -21.0701  -16.6225 N   0  0  0  0  0  0  0  0  0  0  0  0
   24.2669  -19.2891  -15.0591 C   0  0  0  0  0  0  0  0  0  0  0  0
   24.1834  -18.0955  -14.6579 O   0  0  0  0  0  0  0  0  0  0  0  0
   20.7314  -21.2646  -14.4171 N   0  0  0  0  0  0  0  0  0  0  0  0
   21.2093  -20.4486  -13.3732 C   0  0  0  0  0  0  0  0  0  0  0  0
   20.6866  -19.3249  -13.1522 O   0  0  0  0  0  0  0  0  0  0  0  0
   22.3319  -20.9086  -12.5277 C   0  0  0  0  0  0  0  0  0  0  0  0
   23.5990  -20.1106  -12.7778 C   0  0  2  0  0  0  0  0  0  0  0  0
   24.1042  -20.3336  -14.1149 N   0  0  0  0  0  0  0  0  0  0  0  0
   24.6070  -20.6405  -11.8133 C   0  0  0  0  0  0  0  0  0  0  0  0
   25.2181  -21.6907  -12.1351 O   0  0  0  0  0  0  0  0  0  0  0  0
   27.7934  -18.3763   -7.3481 C   0  0  0  0  0  0  0  0  0  0  0  0
   27.4232  -19.8085   -7.8603 C   0  0  1  0  0  0  0  0  0  0  0  0
   26.8769  -20.4965   -6.6613 C   0  0  0  0  0  0  0  0  0  0  0  0
   26.5422  -19.5794   -9.0110 C   0  0  0  0  0  0  0  0  0  0  0  0
   25.7381  -20.6674   -9.6074 C   0  0  2  0  0  0  0  0  0  0  0  0
   24.8559  -19.9774  -10.5876 N   0  0  0  0  0  0  0  0  0  0  0  0
   24.8599  -21.3155   -8.6282 C   0  0  0  0  0  0  0  0  0  0  0  0
   25.3666  -22.4389   -7.9343 O   0  0  0  0  0  0  0  0  0  0  0  0
   23.6937  -20.9905   -8.3252 O   0  0  0  0  0  0  0  0  0  0  0  0
  1  2  1  0
  2  3  2  0
  4  2  1  0
  5  4  1  0
  5  6  1  1
  7  8  2  0
  7  5  1  0
 10  9  1  0
 10 12  1  0
 11 10  2  0
 13 12  1  6
 13 14  1  0
 14  7  1  0
 15 22  1  0
 15 13  1  0
 16 15  2  0
 18 19  1  1
 18 17  1  0
 20 18  1  0
 21 20  1  1
 21 22  1  0
 23 21  1  0
 24 23  1  0
 25 23  2  0
M  END
$$$$
