NNL.pdb
     RDKit          3D

 25 24  0  0  1  0  0  0  0  0999 V2000
   27.6928  -28.8435  -16.2738 N   0  0  0  0  0  0  0  0  0  0  0  0
   27.3697  -29.8746  -17.1849 C   0  0  0  0  0  0  0  0  0  0  0  0
   26.9311  -29.5409  -18.3093 O   0  0  0  0  0  0  0  0  0  0  0  0
   27.5299  -31.2950  -16.8580 C   0  0  0  0  0  0  0  0  0  0  0  0
   28.1063  -31.4591  -15.4752 C   0  0  2  0  0  0  0  0  0  0  0  0
   29.5328  -31.6766  -15.5349 N   0  0  0  0  0  0  0  0  0  0  0  0
   27.4456  -32.5527  -14.7301 C   0  0  0  0  0  0  0  0  0  0  0  0
   26.8508  -33.5060  -15.3045 O   0  0  0  0  0  0  0  0  0  0  0  0
   26.3756  -35.7194  -10.8176 N   0  0  0  0  0  0  0  0  0  0  0  0
   26.9301  -34.5758  -10.2104 C   0  0  0  0  0  0  0  0  0  0  0  0
   27.1246  -34.5452   -8.9671 O   0  0  0  0  0  0  0  0  0  0  0  0
   27.2884  -33.4002  -11.0329 C   0  0  0  0  0  0  0  0  0  0  0  0
   26.9578  -33.6081  -12.5000 C   0  0  2  0  0  0  0  0  0  0  0  0
   27.4803  -32.5318  -13.3132 N   0  0  0  0  0  0  0  0  0  0  0  0
   25.4686  -33.5669  -12.5880 C   0  0  0  0  0  0  0  0  0  0  0  0
   24.9100  -32.4547  -12.4120 O   0  0  0  0  0  0  0  0  0  0  0  0
   20.7734  -36.1145  -15.0522 C   0  0  0  0  0  0  0  0  0  0  0  0
   22.0256  -35.1866  -15.1983 C   0  0  1  0  0  0  0  0  0  0  0  0
   21.4602  -33.8129  -15.2465 C   0  0  0  0  0  0  0  0  0  0  0  0
   22.8994  -35.5564  -14.0790 C   0  0  0  0  0  0  0  0  0  0  0  0
   23.2527  -34.5941  -13.0136 C   0  0  2  0  0  0  0  0  0  0  0  0
   24.7258  -34.7410  -12.8597 N   0  0  0  0  0  0  0  0  0  0  0  0
   22.6536  -34.9443  -11.7219 C   0  0  0  0  0  0  0  0  0  0  0  0
   21.4589  -34.2840  -11.3518 O   0  0  0  0  0  0  0  0  0  0  0  0
   23.0781  -35.7721  -10.8900 O   0  0  0  0  0  0  0  0  0  0  0  0
  1  2  1  0
  2  3  2  0
  4  2  1  0
  5  4  1  0
  5  6  1  6
  7  8  2  0
  7  5  1  0
 10  9  1  0
 10 12  1  0
 11 10  2  0
 13 12  1  1
 13 14  1  0
 14  7  1  0
 15 22  1  0
 15 13  1  0
 16 15  2  0
 18 19  1  1
 18 17  1  0
 20 18  1  0
 21 20  1  6
 21 22  1  0
 23 21  1  0
 24 23  1  0
 25 23  2  0
M  END
$$$$
