NNL.pdb
     RDKit          3D

 25 24  0  0  1  0  0  0  0  0999 V2000
   11.5880  -13.1062   -9.8118 N   0  0  0  0  0  0  0  0  0  0  0  0
   12.7140  -12.9896  -10.6580 C   0  0  0  0  0  0  0  0  0  0  0  0
   12.7685  -13.7384  -11.6601 O   0  0  0  0  0  0  0  0  0  0  0  0
   13.7983  -12.0364  -10.4014 C   0  0  0  0  0  0  0  0  0  0  0  0
   13.5944  -10.7741  -11.1990 C   0  0  2  0  0  0  0  0  0  0  0  0
   13.7293  -11.0320  -12.6136 N   0  0  0  0  0  0  0  0  0  0  0  0
   14.5206   -9.7010  -10.7768 C   0  0  0  0  0  0  0  0  0  0  0  0
   14.7079   -9.4003   -9.5656 O   0  0  0  0  0  0  0  0  0  0  0  0
   18.3826   -9.0253  -14.2559 N   0  0  0  0  0  0  0  0  0  0  0  0
   18.0764   -8.6628  -12.9296 C   0  0  0  0  0  0  0  0  0  0  0  0
   18.6633   -9.2193  -11.9650 O   0  0  0  0  0  0  0  0  0  0  0  0
   17.0600   -7.6226  -12.6616 C   0  0  0  0  0  0  0  0  0  0  0  0
   16.2037   -7.9593  -11.4541 C   0  0  2  0  0  0  0  0  0  0  0  0
   15.2279   -8.9792  -11.7707 N   0  0  0  0  0  0  0  0  0  0  0  0
   15.4646   -6.7063  -11.1212 C   0  0  0  0  0  0  0  0  0  0  0  0
   14.3412   -6.5378  -11.6594 O   0  0  0  0  0  0  0  0  0  0  0  0
   11.8536   -4.3711   -9.2270 C   0  0  0  0  0  0  0  0  0  0  0  0
   13.1346   -4.2863   -8.3312 C   0  0  1  0  0  0  0  0  0  0  0  0
   12.6590   -4.6655   -6.9750 C   0  0  0  0  0  0  0  0  0  0  0  0
   14.1198   -5.1411   -9.0033 C   0  0  0  0  0  0  0  0  0  0  0  0
   15.1710   -4.5808   -9.8792 C   0  0  2  0  0  0  0  0  0  0  0  0
   16.0176   -5.7528  -10.2328 N   0  0  0  0  0  0  0  0  0  0  0  0
   16.0362   -3.6284   -9.1761 C   0  0  0  0  0  0  0  0  0  0  0  0
   17.3216   -4.0723   -8.7876 O   0  0  0  0  0  0  0  0  0  0  0  0
   15.7716   -2.4475   -8.8712 O   0  0  0  0  0  0  0  0  0  0  0  0
  1  2  1  0
  2  3  2  0
  4  2  1  0
  5  4  1  0
  5  6  1  6
  7  8  2  0
  7  5  1  0
 10  9  1  0
 10 12  1  0
 11 10  2  0
 13 12  1  6
 13 14  1  0
 14  7  1  0
 15 22  1  0
 15 13  1  0
 16 15  2  0
 18 19  1  1
 18 17  1  0
 20 18  1  0
 21 20  1  1
 21 22  1  0
 23 21  1  0
 24 23  1  0
 25 23  2  0
M  END
$$$$
