NNL.pdb
     RDKit          3D

 25 24  0  0  1  0  0  0  0  0999 V2000
   13.1040  -24.3815  -13.7852 N   0  0  0  0  0  0  0  0  0  0  0  0
   13.3960  -25.6542  -13.2443 C   0  0  0  0  0  0  0  0  0  0  0  0
   12.5029  -26.5299  -13.3026 O   0  0  0  0  0  0  0  0  0  0  0  0
   14.6886  -25.9722  -12.6293 C   0  0  0  0  0  0  0  0  0  0  0  0
   15.6164  -24.7869  -12.7019 C   0  0  2  0  0  0  0  0  0  0  0  0
   16.2716  -24.7245  -13.9874 N   0  0  0  0  0  0  0  0  0  0  0  0
   16.6149  -24.8021  -11.6109 C   0  0  0  0  0  0  0  0  0  0  0  0
   17.2943  -25.8260  -11.3236 O   0  0  0  0  0  0  0  0  0  0  0  0
   18.3183  -20.4939  -11.5473 N   0  0  0  0  0  0  0  0  0  0  0  0
   18.8841  -21.6304  -10.9370 C   0  0  0  0  0  0  0  0  0  0  0  0
   19.8512  -22.2288  -11.4768 O   0  0  0  0  0  0  0  0  0  0  0  0
   18.3434  -22.1290   -9.6541 C   0  0  0  0  0  0  0  0  0  0  0  0
   17.7817  -23.5339   -9.7792 C   0  0  2  0  0  0  0  0  0  0  0  0
   16.8191  -23.6202  -10.8556 N   0  0  0  0  0  0  0  0  0  0  0  0
   17.0614  -23.7963   -8.4988 C   0  0  0  0  0  0  0  0  0  0  0  0
   15.8654  -23.4175   -8.4207 O   0  0  0  0  0  0  0  0  0  0  0  0
   14.2201  -27.5000   -6.8097 C   0  0  0  0  0  0  0  0  0  0  0  0
   14.9437  -26.4634   -5.8864 C   0  0  1  0  0  0  0  0  0  0  0  0
   15.3173  -27.2461   -4.6792 C   0  0  0  0  0  0  0  0  0  0  0  0
   16.0076  -25.8951   -6.7219 C   0  0  0  0  0  0  0  0  0  0  0  0
   16.8786  -24.8017   -6.2400 C   0  0  2  0  0  0  0  0  0  0  0  0
   17.7106  -24.4469   -7.4221 N   0  0  0  0  0  0  0  0  0  0  0  0
   17.8005  -25.2428   -5.1886 C   0  0  0  0  0  0  0  0  0  0  0  0
   19.1063  -25.6221   -5.5772 O   0  0  0  0  0  0  0  0  0  0  0  0
   17.5690  -25.3269   -3.9651 O   0  0  0  0  0  0  0  0  0  0  0  0
  1  2  1  0
  2  3  2  0
  4  2  1  0
  5  4  1  0
  5  6  1  6
  7  8  2  0
  7  5  1  0
 10  9  1  0
 10 12  1  0
 11 10  2  0
 13 12  1  1
 13 14  1  0
 14  7  1  0
 15 22  1  0
 15 13  1  0
 16 15  2  0
 18 19  1  1
 18 17  1  0
 20 18  1  0
 21 20  1  6
 21 22  1  0
 23 21  1  0
 24 23  1  0
 25 23  2  0
M  END
$$$$
