NNL.pdb
     RDKit          3D

 25 24  0  0  1  0  0  0  0  0999 V2000
   14.8688  -13.5367  -15.9821 N   0  0  0  0  0  0  0  0  0  0  0  0
   15.1343  -13.1953  -17.3276 C   0  0  0  0  0  0  0  0  0  0  0  0
   14.6485  -13.9271  -18.2200 O   0  0  0  0  0  0  0  0  0  0  0  0
   15.9456  -12.0324  -17.7011 C   0  0  0  0  0  0  0  0  0  0  0  0
   16.4646  -11.3312  -16.4722 C   0  0  2  0  0  0  0  0  0  0  0  0
   15.4065  -11.1277  -15.5106 N   0  0  0  0  0  0  0  0  0  0  0  0
   17.1163  -10.0461  -16.8061 C   0  0  0  0  0  0  0  0  0  0  0  0
   18.0658   -9.9585  -17.6328 O   0  0  0  0  0  0  0  0  0  0  0  0
   15.4343   -5.0949  -17.9596 N   0  0  0  0  0  0  0  0  0  0  0  0
   15.3264   -6.2205  -17.1195 C   0  0  0  0  0  0  0  0  0  0  0  0
   14.3867   -7.0436  -17.2744 O   0  0  0  0  0  0  0  0  0  0  0  0
   16.3200   -6.4426  -16.0470 C   0  0  0  0  0  0  0  0  0  0  0  0
   17.2773   -7.5726  -16.3811 C   0  0  2  0  0  0  0  0  0  0  0  0
   16.6581   -8.8634  -16.1734 N   0  0  0  0  0  0  0  0  0  0  0  0
   18.4059   -7.4452  -15.4131 C   0  0  0  0  0  0  0  0  0  0  0  0
   18.1443   -6.9675  -14.2802 O   0  0  0  0  0  0  0  0  0  0  0  0
   22.9605  -10.7355  -14.0102 C   0  0  0  0  0  0  0  0  0  0  0  0
   22.6913   -9.1957  -13.9261 C   0  0  1  0  0  0  0  0  0  0  0  0
   23.9558   -8.5761  -14.4018 C   0  0  0  0  0  0  0  0  0  0  0  0
   21.4625   -8.9867  -14.7004 C   0  0  0  0  0  0  0  0  0  0  0  0
   20.7828   -7.6745  -14.7468 C   0  0  2  0  0  0  0  0  0  0  0  0
   19.7150   -7.8499  -15.7687 N   0  0  0  0  0  0  0  0  0  0  0  0
   21.6623   -6.6055  -15.2304 C   0  0  0  0  0  0  0  0  0  0  0  0
   22.4003   -5.8771  -14.2686 O   0  0  0  0  0  0  0  0  0  0  0  0
   21.8435   -6.2512  -16.4133 O   0  0  0  0  0  0  0  0  0  0  0  0
  1  2  1  0
  2  3  2  0
  4  2  1  0
  5  4  1  0
  5  6  1  1
  7  8  2  0
  7  5  1  0
 10  9  1  0
 10 12  1  0
 11 10  2  0
 13 12  1  1
 13 14  1  0
 14  7  1  0
 15 22  1  0
 15 13  1  0
 16 15  2  0
 18 19  1  6
 18 17  1  0
 20 18  1  0
 21 20  1  6
 21 22  1  0
 23 21  1  0
 24 23  1  0
 25 23  2  0
M  END
$$$$
