PSQ.pdb
     RDKit          3D

 23 23  0  0  1  0  0  0  0  0999 V2000
    7.8939  -15.3690   17.1449 N   0  0  0  0  0  0  0  0  0  0  0  0
    7.5689  -15.1067   15.7574 C   0  0  0  0  0  0  0  0  0  0  0  0
    7.5036  -13.6097   15.6682 C   0  0  0  0  0  0  0  0  0  0  0  0
    8.2363  -13.0561   16.8953 C   0  0  0  0  0  0  0  0  0  0  0  0
    8.8187  -14.3244   17.4519 C   0  0  1  0  0  0  0  0  0  0  0  0
    9.2395  -14.2659   18.8498 C   0  0  0  0  0  0  0  0  0  0  0  0
   10.3948  -13.7863   19.1012 O   0  0  0  0  0  0  0  0  0  0  0  0
    7.0965  -15.9912   21.9904 O   0  0  0  0  0  0  0  0  0  0  0  0
    7.7446  -14.7621   22.2202 C   0  0  0  0  0  0  0  0  0  0  0  0
    8.9358  -14.6175   21.2886 C   0  0  2  0  0  0  0  0  0  0  0  0
    8.4523  -14.7050   19.9439 N   0  0  0  0  0  0  0  0  0  0  0  0
    9.9848  -15.6179   21.5926 C   0  0  0  0  0  0  0  0  0  0  0  0
    9.9420  -16.7070   20.9616 O   0  0  0  0  0  0  0  0  0  0  0  0
   15.0611  -13.8929   21.2470 N   0  0  0  0  0  0  0  0  0  0  0  0
   14.6900  -15.0639   20.5246 C   0  0  0  0  0  0  0  0  0  0  0  0
   15.0870  -15.1253   19.3366 O   0  0  0  0  0  0  0  0  0  0  0  0
   13.8882  -16.1461   21.1208 C   0  0  0  0  0  0  0  0  0  0  0  0
   13.4051  -15.8741   22.5149 C   0  0  0  0  0  0  0  0  0  0  0  0
   12.0470  -16.3910   22.8437 C   0  0  2  0  0  0  0  0  0  0  0  0
   11.0127  -15.3968   22.5487 N   0  0  0  0  0  0  0  0  0  0  0  0
   11.8988  -16.9173   24.2182 C   0  0  0  0  0  0  0  0  0  0  0  0
   12.7082  -17.9507   24.6503 O   0  0  0  0  0  0  0  0  0  0  0  0
   11.0513  -16.4536   25.0178 O   0  0  0  0  0  0  0  0  0  0  0  0
  1  2  1  0
  2  3  1  0
  4  3  1  0
  5  1  1  0
  5  4  1  0
  5  6  1  1
  6  7  2  0
  9  8  1  0
 10  9  1  1
 10 12  1  0
 11  6  1  0
 11 10  1  0
 12 20  1  0
 13 12  2  0
 15 14  1  0
 15 17  1  0
 16 15  2  0
 18 17  1  0
 19 18  1  1
 20 19  1  0
 21 19  1  0
 21 22  1  0
 23 21  2  0
M  END
$$$$
