PSQ.pdb
     RDKit          3D

 23 23  0  0  1  0  0  0  0  0999 V2000
    8.0262  -14.8715   18.2817 N   0  0  0  0  0  0  0  0  0  0  0  0
    7.9464  -14.3131   16.9470 C   0  0  0  0  0  0  0  0  0  0  0  0
    8.0851  -12.8330   17.1552 C   0  0  0  0  0  0  0  0  0  0  0  0
    8.6919  -12.6321   18.5483 C   0  0  0  0  0  0  0  0  0  0  0  0
    9.0201  -14.0548   18.9030 C   0  0  1  0  0  0  0  0  0  0  0  0
    9.2329  -14.3184   20.3242 C   0  0  0  0  0  0  0  0  0  0  0  0
   10.3639  -14.0015   20.8226 O   0  0  0  0  0  0  0  0  0  0  0  0
    6.5282  -16.3831   22.8317 O   0  0  0  0  0  0  0  0  0  0  0  0
    7.2114  -15.2420   23.2949 C   0  0  0  0  0  0  0  0  0  0  0  0
    8.5426  -15.1027   22.5763 C   0  0  2  0  0  0  0  0  0  0  0  0
    8.2696  -14.9013   21.1855 N   0  0  0  0  0  0  0  0  0  0  0  0
    9.4195  -16.2688   22.8310 C   0  0  0  0  0  0  0  0  0  0  0  0
    9.8369  -16.9054   21.8276 O   0  0  0  0  0  0  0  0  0  0  0  0
   14.5223  -15.6734   22.2235 N   0  0  0  0  0  0  0  0  0  0  0  0
   14.6795  -16.4160   23.4296 C   0  0  0  0  0  0  0  0  0  0  0  0
   15.8239  -16.3952   23.9422 O   0  0  0  0  0  0  0  0  0  0  0  0
   13.5762  -17.1690   24.0501 C   0  0  0  0  0  0  0  0  0  0  0  0
   12.2072  -16.6258   23.7643 C   0  0  0  0  0  0  0  0  0  0  0  0
   11.0757  -17.3390   24.4207 C   0  0  2  0  0  0  0  0  0  0  0  0
    9.7966  -16.6842   24.1366 N   0  0  0  0  0  0  0  0  0  0  0  0
   11.2433  -17.5659   25.8728 C   0  0  0  0  0  0  0  0  0  0  0  0
   11.7786  -18.7566   26.3259 O   0  0  0  0  0  0  0  0  0  0  0  0
   10.9110  -16.7041   26.7210 O   0  0  0  0  0  0  0  0  0  0  0  0
  1  2  1  0
  2  3  1  0
  4  3  1  0
  5  1  1  0
  5  4  1  0
  5  6  1  1
  6  7  2  0
  9  8  1  0
 10  9  1  1
 10 12  1  0
 11  6  1  0
 11 10  1  0
 12 20  1  0
 13 12  2  0
 15 14  1  0
 15 17  1  0
 16 15  2  0
 18 17  1  0
 19 18  1  1
 20 19  1  0
 21 19  1  0
 21 22  1  0
 23 21  2  0
M  END
$$$$
