PSQ.pdb
     RDKit          3D

 23 23  0  0  1  0  0  0  0  0999 V2000
    7.6253  -14.9986   19.4995 N   0  0  0  0  0  0  0  0  0  0  0  0
    7.4727  -14.4397   18.1713 C   0  0  0  0  0  0  0  0  0  0  0  0
    7.7881  -12.9822   18.3437 C   0  0  0  0  0  0  0  0  0  0  0  0
    8.5485  -12.8426   19.6671 C   0  0  0  0  0  0  0  0  0  0  0  0
    8.7572  -14.2910   20.0080 C   0  0  1  0  0  0  0  0  0  0  0  0
    9.0813  -14.5706   21.4049 C   0  0  0  0  0  0  0  0  0  0  0  0
   10.2990  -14.4499   21.7662 O   0  0  0  0  0  0  0  0  0  0  0  0
    6.3454  -16.0173   24.3120 O   0  0  0  0  0  0  0  0  0  0  0  0
    7.2881  -15.0151   24.6125 C   0  0  0  0  0  0  0  0  0  0  0  0
    8.5240  -15.1834   23.7453 C   0  0  2  0  0  0  0  0  0  0  0  0
    8.1361  -14.9662   22.3844 N   0  0  0  0  0  0  0  0  0  0  0  0
    9.1611  -16.5029   23.9619 C   0  0  0  0  0  0  0  0  0  0  0  0
    9.2314  -17.2778   22.9716 O   0  0  0  0  0  0  0  0  0  0  0  0
   14.6719  -18.8362   22.6179 N   0  0  0  0  0  0  0  0  0  0  0  0
   13.4990  -19.0108   23.4083 C   0  0  0  0  0  0  0  0  0  0  0  0
   12.7057  -19.9030   23.0244 O   0  0  0  0  0  0  0  0  0  0  0  0
   13.2186  -18.2005   24.6059 C   0  0  0  0  0  0  0  0  0  0  0  0
   11.9772  -17.3625   24.5200 C   0  0  0  0  0  0  0  0  0  0  0  0
   10.8236  -17.8248   25.3417 C   0  0  2  0  0  0  0  0  0  0  0  0
    9.6827  -16.9147   25.2180 N   0  0  0  0  0  0  0  0  0  0  0  0
   11.1392  -18.0881   26.7627 C   0  0  0  0  0  0  0  0  0  0  0  0
   11.6640  -19.3108   27.1358 O   0  0  0  0  0  0  0  0  0  0  0  0
   10.9436  -17.2292   27.6553 O   0  0  0  0  0  0  0  0  0  0  0  0
  1  2  1  0
  2  3  1  0
  4  3  1  0
  5  1  1  0
  5  4  1  0
  5  6  1  1
  6  7  2  0
  9  8  1  0
 10  9  1  1
 10 12  1  0
 11  6  1  0
 11 10  1  0
 12 20  1  0
 13 12  2  0
 15 14  1  0
 15 17  1  0
 16 15  2  0
 18 17  1  0
 19 18  1  1
 20 19  1  0
 21 19  1  0
 21 22  1  0
 23 21  2  0
M  END
$$$$
