PSQ.pdb
     RDKit          3D

 23 23  0  0  1  0  0  0  0  0999 V2000
    9.2354  -14.4849   19.1001 N   0  0  0  0  0  0  0  0  0  0  0  0
    9.0693  -13.6576   17.9221 C   0  0  0  0  0  0  0  0  0  0  0  0
    7.6207  -13.2647   17.9459 C   0  0  0  0  0  0  0  0  0  0  0  0
    7.1155  -13.5047   19.3730 C   0  0  0  0  0  0  0  0  0  0  0  0
    8.4108  -13.8264   20.0630 C   0  0  1  0  0  0  0  0  0  0  0  0
    8.2891  -14.5175   21.3445 C   0  0  0  0  0  0  0  0  0  0  0  0
    7.5513  -13.9833   22.2379 O   0  0  0  0  0  0  0  0  0  0  0  0
   10.7801  -17.5789   22.8374 O   0  0  0  0  0  0  0  0  0  0  0  0
    9.3833  -17.7580   22.8487 C   0  0  0  0  0  0  0  0  0  0  0  0
    8.6843  -16.4103   22.9016 C   0  0  2  0  0  0  0  0  0  0  0  0
    8.9340  -15.7393   21.6619 N   0  0  0  0  0  0  0  0  0  0  0  0
    9.1130  -15.6245   24.0816 C   0  0  0  0  0  0  0  0  0  0  0  0
   10.1322  -14.8966   23.9492 O   0  0  0  0  0  0  0  0  0  0  0  0
    5.8791  -12.1094   27.8337 N   0  0  0  0  0  0  0  0  0  0  0  0
    6.5365  -11.9299   26.5822 C   0  0  0  0  0  0  0  0  0  0  0  0
    6.2101  -10.9086   25.9317 O   0  0  0  0  0  0  0  0  0  0  0  0
    7.5403  -12.8770   26.0675 C   0  0  0  0  0  0  0  0  0  0  0  0
    7.9051  -13.9813   27.0153 C   0  0  0  0  0  0  0  0  0  0  0  0
    8.9140  -14.9577   26.5170 C   0  0  2  0  0  0  0  0  0  0  0  0
    8.4309  -15.6630   25.3277 N   0  0  0  0  0  0  0  0  0  0  0  0
    9.4100  -15.9115   27.5332 C   0  0  0  0  0  0  0  0  0  0  0  0
   10.1189  -15.4471   28.6247 O   0  0  0  0  0  0  0  0  0  0  0  0
    9.2083  -17.1455   27.4382 O   0  0  0  0  0  0  0  0  0  0  0  0
  1  2  1  0
  2  3  1  0
  4  3  1  0
  5  1  1  0
  5  4  1  0
  5  6  1  1
  6  7  2  0
  9  8  1  0
 10  9  1  6
 10 12  1  0
 11  6  1  0
 11 10  1  0
 12 20  1  0
 13 12  2  0
 15 14  1  0
 15 17  1  0
 16 15  2  0
 18 17  1  0
 19 18  1  1
 20 19  1  0
 21 19  1  0
 21 22  1  0
 23 21  2  0
M  END
$$$$
