PSQ.pdb
     RDKit          3D

 23 23  0  0  1  0  0  0  0  0999 V2000
    8.7141  -15.0027   17.4997 N   0  0  0  0  0  0  0  0  0  0  0  0
    8.4417  -14.4832   16.1747 C   0  0  0  0  0  0  0  0  0  0  0  0
    7.8120  -13.1435   16.4237 C   0  0  0  0  0  0  0  0  0  0  0  0
    8.1584  -12.7470   17.8631 C   0  0  0  0  0  0  0  0  0  0  0  0
    9.1316  -13.8372   18.2124 C   0  0  1  0  0  0  0  0  0  0  0  0
    9.3671  -14.0401   19.6400 C   0  0  0  0  0  0  0  0  0  0  0  0
   10.5191  -13.7399   20.0989 O   0  0  0  0  0  0  0  0  0  0  0  0
    7.6247  -15.1427   24.0415 O   0  0  0  0  0  0  0  0  0  0  0  0
    7.3864  -14.9455   22.6675 C   0  0  0  0  0  0  0  0  0  0  0  0
    8.6944  -14.6733   21.9444 C   0  0  2  0  0  0  0  0  0  0  0  0
    8.4039  -14.5470   20.5482 N   0  0  0  0  0  0  0  0  0  0  0  0
    9.7006  -15.7209   22.2337 C   0  0  0  0  0  0  0  0  0  0  0  0
    9.5277  -16.8484   21.6998 O   0  0  0  0  0  0  0  0  0  0  0  0
   15.8944  -15.4927   22.5333 N   0  0  0  0  0  0  0  0  0  0  0  0
   14.8856  -15.3576   21.5360 C   0  0  0  0  0  0  0  0  0  0  0  0
   15.2730  -14.9526   20.4141 O   0  0  0  0  0  0  0  0  0  0  0  0
   13.4686  -15.6693   21.7900 C   0  0  0  0  0  0  0  0  0  0  0  0
   13.1734  -16.1627   23.1758 C   0  0  0  0  0  0  0  0  0  0  0  0
   11.7635  -16.5696   23.4334 C   0  0  2  0  0  0  0  0  0  0  0  0
   10.8267  -15.5030   23.0726 N   0  0  0  0  0  0  0  0  0  0  0  0
   11.5002  -17.0649   24.8022 C   0  0  0  0  0  0  0  0  0  0  0  0
   12.2332  -18.1236   25.3037 O   0  0  0  0  0  0  0  0  0  0  0  0
   10.6216  -16.5517   25.5352 O   0  0  0  0  0  0  0  0  0  0  0  0
  1  2  1  0
  2  3  1  0
  4  3  1  0
  5  1  1  0
  5  4  1  0
  5  6  1  1
  6  7  2  0
  9  8  1  0
 10  9  1  1
 10 12  1  0
 11  6  1  0
 11 10  1  0
 12 20  1  0
 13 12  2  0
 15 14  1  0
 15 17  1  0
 16 15  2  0
 18 17  1  0
 19 18  1  1
 20 19  1  0
 21 19  1  0
 21 22  1  0
 23 21  2  0
M  END
$$$$
