PSQ.pdb
     RDKit          3D

 23 23  0  0  1  0  0  0  0  0999 V2000
    8.6002  -14.8679   18.8270 N   0  0  0  0  0  0  0  0  0  0  0  0
    8.5569  -13.8904   17.7582 C   0  0  0  0  0  0  0  0  0  0  0  0
    7.6458  -12.8154   18.2754 C   0  0  0  0  0  0  0  0  0  0  0  0
    7.5604  -12.9943   19.7952 C   0  0  0  0  0  0  0  0  0  0  0  0
    8.6102  -14.0499   19.9981 C   0  0  1  0  0  0  0  0  0  0  0  0
    8.5345  -14.7814   21.2606 C   0  0  0  0  0  0  0  0  0  0  0  0
    8.5699  -14.1037   22.3410 O   0  0  0  0  0  0  0  0  0  0  0  0
    9.2002  -18.8501   21.6916 O   0  0  0  0  0  0  0  0  0  0  0  0
    8.1023  -18.3177   22.3947 C   0  0  0  0  0  0  0  0  0  0  0  0
    8.3096  -16.8330   22.6405 C   0  0  2  0  0  0  0  0  0  0  0  0
    8.4245  -16.1908   21.3661 N   0  0  0  0  0  0  0  0  0  0  0  0
    9.4764  -16.5879   23.5193 C   0  0  0  0  0  0  0  0  0  0  0  0
   10.5815  -16.3618   22.9593 O   0  0  0  0  0  0  0  0  0  0  0  0
    9.2348  -13.9019   29.1225 N   0  0  0  0  0  0  0  0  0  0  0  0
    9.0053  -13.4824   27.7800 C   0  0  0  0  0  0  0  0  0  0  0  0
    8.3583  -12.4172   27.6403 O   0  0  0  0  0  0  0  0  0  0  0  0
    9.4902  -14.2421   26.6150 C   0  0  0  0  0  0  0  0  0  0  0  0
   10.2287  -15.5038   26.9519 C   0  0  0  0  0  0  0  0  0  0  0  0
   10.5590  -16.3899   25.8006 C   0  0  2  0  0  0  0  0  0  0  0  0
    9.3939  -16.5991   24.9379 N   0  0  0  0  0  0  0  0  0  0  0  0
   11.1838  -17.6792   26.1684 C   0  0  0  0  0  0  0  0  0  0  0  0
   10.4696  -18.8542   26.0301 O   0  0  0  0  0  0  0  0  0  0  0  0
   12.3560  -17.7460   26.6091 O   0  0  0  0  0  0  0  0  0  0  0  0
  1  2  1  0
  2  3  1  0
  4  3  1  0
  5  1  1  0
  5  4  1  0
  5  6  1  1
  6  7  2  0
  9  8  1  0
 10  9  1  6
 10 12  1  0
 11  6  1  0
 11 10  1  0
 12 20  1  0
 13 12  2  0
 15 14  1  0
 15 17  1  0
 16 15  2  0
 18 17  1  0
 19 18  1  1
 20 19  1  0
 21 19  1  0
 21 22  1  0
 23 21  2  0
M  END
$$$$
