PSQ.pdb
     RDKit          3D

 23 23  0  0  1  0  0  0  0  0999 V2000
    6.5038  -16.6475   21.0654 N   0  0  0  0  0  0  0  0  0  0  0  0
    5.3601  -16.6259   20.1759 C   0  0  0  0  0  0  0  0  0  0  0  0
    5.8472  -17.3045   18.9288 C   0  0  0  0  0  0  0  0  0  0  0  0
    7.1056  -18.0920   19.3103 C   0  0  0  0  0  0  0  0  0  0  0  0
    7.0788  -17.9288   20.8037 C   0  0  1  0  0  0  0  0  0  0  0  0
    8.3421  -18.1884   21.4901 C   0  0  0  0  0  0  0  0  0  0  0  0
    8.7912  -19.3825   21.4730 O   0  0  0  0  0  0  0  0  0  0  0  0
   12.2915  -16.8603   21.1329 O   0  0  0  0  0  0  0  0  0  0  0  0
   11.2465  -17.7878   21.3095 C   0  0  0  0  0  0  0  0  0  0  0  0
   10.4565  -17.4522   22.5630 C   0  0  2  0  0  0  0  0  0  0  0  0
    9.1015  -17.2050   22.1726 N   0  0  0  0  0  0  0  0  0  0  0  0
   11.0634  -16.3181   23.2974 C   0  0  0  0  0  0  0  0  0  0  0  0
   10.5660  -15.1768   23.1070 O   0  0  0  0  0  0  0  0  0  0  0  0
    8.9127  -15.4393   27.9974 N   0  0  0  0  0  0  0  0  0  0  0  0
   10.0835  -14.6861   28.3021 C   0  0  0  0  0  0  0  0  0  0  0  0
   10.0367  -13.9977   29.3493 O   0  0  0  0  0  0  0  0  0  0  0  0
   11.2844  -14.7023   27.4495 C   0  0  0  0  0  0  0  0  0  0  0  0
   11.1847  -15.5871   26.2420 C   0  0  0  0  0  0  0  0  0  0  0  0
   12.3715  -15.5924   25.3412 C   0  0  2  0  0  0  0  0  0  0  0  0
   12.1607  -16.4697   24.1874 N   0  0  0  0  0  0  0  0  0  0  0  0
   13.6565  -15.8949   26.0087 C   0  0  0  0  0  0  0  0  0  0  0  0
   14.5605  -14.8789   26.2536 O   0  0  0  0  0  0  0  0  0  0  0  0
   13.9606  -17.0582   26.3649 O   0  0  0  0  0  0  0  0  0  0  0  0
  1  2  1  0
  2  3  1  0
  4  3  1  0
  5  1  1  0
  5  4  1  0
  5  6  1  6
  6  7  2  0
  9  8  1  0
 10  9  1  6
 10 12  1  0
 11  6  1  0
 11 10  1  0
 12 20  1  0
 13 12  2  0
 15 14  1  0
 15 17  1  0
 16 15  2  0
 18 17  1  0
 19 18  1  1
 20 19  1  0
 21 19  1  0
 21 22  1  0
 23 21  2  0
M  END
$$$$
