GDI.pdb
     RDKit          3D

 21 20  0  0  1  0  0  0  0  0999 V2000
    7.3642  -12.6720   19.0077 N   0  0  0  0  0  0  0  0  0  0  0  0
    8.5489  -13.4007   19.4041 C   0  0  0  0  0  0  0  0  0  0  0  0
    8.3145  -14.2364   20.6056 C   0  0  0  0  0  0  0  0  0  0  0  0
    7.2413  -14.0983   21.2397 O   0  0  0  0  0  0  0  0  0  0  0  0
    9.2493  -15.2026   21.0920 N   0  0  0  0  0  0  0  0  0  0  0  0
    9.0029  -16.0481   22.2112 C   0  0  1  0  0  0  0  0  0  0  0  0
    9.7834  -17.3243   22.1098 C   0  0  0  0  0  0  0  0  0  0  0  0
    9.5421  -18.1061   20.8929 C   0  0  0  0  0  0  0  0  0  0  0  0
    8.4280  -18.6451   20.6991 O   0  0  0  0  0  0  0  0  0  0  0  0
    9.3761  -15.3536   23.4923 C   0  0  0  0  0  0  0  0  0  0  0  0
   10.5067  -14.8408   23.6302 O   0  0  0  0  0  0  0  0  0  0  0  0
   10.5225  -18.2642   19.9465 O   0  0  0  0  0  0  0  0  0  0  0  0
    5.6883  -12.3183   25.7791 C   0  0  0  0  0  0  0  0  0  0  0  0
    6.9734  -12.9278   25.2770 C   0  0  0  0  0  0  0  0  0  0  0  0
    7.4613  -13.9338   26.3014 C   0  0  2  0  0  0  0  0  0  0  0  0
    7.8248  -13.1751   27.5570 C   0  0  0  0  0  0  0  0  0  0  0  0
    8.7158  -14.6360   25.8229 C   0  0  2  0  0  0  0  0  0  0  0  0
    8.4492  -15.2755   24.5516 N   0  0  0  0  0  0  0  0  0  0  0  0
    9.1697  -15.5699   26.8516 C   0  0  0  0  0  0  0  0  0  0  0  0
    9.0408  -16.9281   26.6635 O   0  0  0  0  0  0  0  0  0  0  0  0
    9.6789  -15.1494   27.9114 O   0  0  0  0  0  0  0  0  0  0  0  0
  1  2  1  0
  3  5  1  0
  3  2  1  0
  4  3  2  0
  6  5  1  0
  6  7  1  6
  8  7  1  0
  8 12  1  0
  9  8  2  0
 10  6  1  0
 11 10  2  0
 13 14  1  0
 14 15  1  0
 15 16  1  1
 17 15  1  0
 17 18  1  6
 18 10  1  0
 19 17  1  0
 20 19  1  0
 21 19  2  0
M  END
$$$$
