GDI.pdb
     RDKit          3D

 21 20  0  0  1  0  0  0  0  0999 V2000
   10.8249  -16.3619   18.7375 N   0  0  0  0  0  0  0  0  0  0  0  0
   10.9205  -17.2084   19.9061 C   0  0  0  0  0  0  0  0  0  0  0  0
    9.9578  -16.8139   20.9618 C   0  0  0  0  0  0  0  0  0  0  0  0
    9.4353  -15.6749   20.9102 O   0  0  0  0  0  0  0  0  0  0  0  0
    9.5838  -17.6634   22.0492 N   0  0  0  0  0  0  0  0  0  0  0  0
    8.5623  -17.3430   22.9884 C   0  0  1  0  0  0  0  0  0  0  0  0
    8.0844  -18.5674   23.7096 C   0  0  0  0  0  0  0  0  0  0  0  0
    7.5246  -19.6164   22.8513 C   0  0  0  0  0  0  0  0  0  0  0  0
    6.5506  -19.3679   22.1038 O   0  0  0  0  0  0  0  0  0  0  0  0
    9.0656  -16.3509   24.0009 C   0  0  0  0  0  0  0  0  0  0  0  0
   10.2655  -16.3517   24.3481 O   0  0  0  0  0  0  0  0  0  0  0  0
    8.0501  -20.8835   22.8469 O   0  0  0  0  0  0  0  0  0  0  0  0
    6.7795  -11.1888   26.5478 C   0  0  0  0  0  0  0  0  0  0  0  0
    7.8507  -12.2499   26.5916 C   0  0  0  0  0  0  0  0  0  0  0  0
    7.4727  -13.3554   25.6248 C   0  0  2  0  0  0  0  0  0  0  0  0
    6.2645  -14.0679   26.1876 C   0  0  0  0  0  0  0  0  0  0  0  0
    8.5825  -14.3800   25.5058 C   0  0  2  0  0  0  0  0  0  0  0  0
    8.1838  -15.4087   24.5682 N   0  0  0  0  0  0  0  0  0  0  0  0
    8.9011  -14.9043   26.8325 C   0  0  0  0  0  0  0  0  0  0  0  0
    8.5451  -16.1896   27.1762 O   0  0  0  0  0  0  0  0  0  0  0  0
    9.4986  -14.1955   27.6691 O   0  0  0  0  0  0  0  0  0  0  0  0
  1  2  1  0
  3  5  1  0
  3  2  1  0
  4  3  2  0
  6  5  1  0
  6  7  1  1
  8  7  1  0
  8 12  1  0
  9  8  2  0
 10  6  1  0
 11 10  2  0
 13 14  1  0
 14 15  1  0
 15 16  1  1
 17 15  1  0
 17 18  1  6
 18 10  1  0
 19 17  1  0
 20 19  1  0
 21 19  2  0
M  END
$$$$
