GDI.pdb
     RDKit          3D

 21 20  0  0  1  0  0  0  0  0999 V2000
   11.7571  -20.3208   27.5375 N   0  0  0  0  0  0  0  0  0  0  0  0
   11.4917  -20.9722   26.2739 C   0  0  0  0  0  0  0  0  0  0  0  0
   11.6005  -20.0364   25.1296 C   0  0  0  0  0  0  0  0  0  0  0  0
   12.7082  -19.9075   24.5556 O   0  0  0  0  0  0  0  0  0  0  0  0
   10.5057  -19.2619   24.6339 N   0  0  0  0  0  0  0  0  0  0  0  0
   10.6032  -18.3732   23.5253 C   0  0  1  0  0  0  0  0  0  0  0  0
    9.3031  -18.2856   22.7838 C   0  0  0  0  0  0  0  0  0  0  0  0
    9.3444  -17.5003   21.5461 C   0  0  0  0  0  0  0  0  0  0  0  0
   10.3967  -17.4436   20.8689 O   0  0  0  0  0  0  0  0  0  0  0  0
   10.9921  -16.9945   23.9841 C   0  0  0  0  0  0  0  0  0  0  0  0
   11.2663  -16.1029   23.1533 O   0  0  0  0  0  0  0  0  0  0  0  0
    8.2409  -16.8152   21.1047 O   0  0  0  0  0  0  0  0  0  0  0  0
    8.5539  -14.3759   27.9544 C   0  0  0  0  0  0  0  0  0  0  0  0
    9.3243  -14.7529   26.7137 C   0  0  0  0  0  0  0  0  0  0  0  0
   10.7565  -15.0556   27.1098 C   0  0  2  0  0  0  0  0  0  0  0  0
   11.3631  -13.7838   27.6563 C   0  0  0  0  0  0  0  0  0  0  0  0
   11.5812  -15.4648   25.9065 C   0  0  2  0  0  0  0  0  0  0  0  0
   11.0505  -16.6963   25.3606 N   0  0  0  0  0  0  0  0  0  0  0  0
   12.9865  -15.5676   26.2955 C   0  0  0  0  0  0  0  0  0  0  0  0
   13.8138  -14.4699   26.2097 O   0  0  0  0  0  0  0  0  0  0  0  0
   13.4536  -16.6491   26.7093 O   0  0  0  0  0  0  0  0  0  0  0  0
  1  2  1  0
  3  5  1  0
  3  2  1  0
  4  3  2  0
  6  5  1  0
  6  7  1  1
  8  7  1  0
  8 12  1  0
  9  8  2  0
 10  6  1  0
 11 10  2  0
 13 14  1  0
 14 15  1  0
 15 16  1  6
 17 15  1  0
 17 18  1  1
 18 10  1  0
 19 17  1  0
 20 19  1  0
 21 19  2  0
M  END
$$$$
