GDI.pdb
     RDKit          3D

 21 20  0  0  1  0  0  0  0  0999 V2000
    7.4495  -15.4206   18.7443 N   0  0  0  0  0  0  0  0  0  0  0  0
    8.1308  -16.3339   19.6349 C   0  0  0  0  0  0  0  0  0  0  0  0
    7.6385  -16.2262   21.0288 C   0  0  0  0  0  0  0  0  0  0  0  0
    6.7064  -15.4262   21.2820 O   0  0  0  0  0  0  0  0  0  0  0  0
    8.1683  -16.9884   22.1162 N   0  0  0  0  0  0  0  0  0  0  0  0
    7.5819  -17.0293   23.4134 C   0  0  1  0  0  0  0  0  0  0  0  0
    7.7389  -18.3833   24.0377 C   0  0  0  0  0  0  0  0  0  0  0  0
    6.9447  -18.6053   25.2502 C   0  0  0  0  0  0  0  0  0  0  0  0
    6.4272  -17.6364   25.8524 O   0  0  0  0  0  0  0  0  0  0  0  0
    8.2161  -16.0050   24.3141 C   0  0  0  0  0  0  0  0  0  0  0  0
    9.4591  -15.9012   24.3808 O   0  0  0  0  0  0  0  0  0  0  0  0
    6.7517  -19.8684   25.7493 O   0  0  0  0  0  0  0  0  0  0  0  0
    6.9354  -11.8001   24.6470 C   0  0  0  0  0  0  0  0  0  0  0  0
    5.9939  -12.6780   25.4330 C   0  0  0  0  0  0  0  0  0  0  0  0
    6.7732  -13.3355   26.5555 C   0  0  2  0  0  0  0  0  0  0  0  0
    7.3695  -12.2390   27.4077 C   0  0  0  0  0  0  0  0  0  0  0  0
    7.9243  -14.1577   26.0126 C   0  0  2  0  0  0  0  0  0  0  0  0
    7.4096  -15.1506   25.0931 N   0  0  0  0  0  0  0  0  0  0  0  0
    8.6713  -14.7389   27.1265 C   0  0  0  0  0  0  0  0  0  0  0  0
    8.4358  -16.0377   27.5192 O   0  0  0  0  0  0  0  0  0  0  0  0
    9.5302  -14.0669   27.7347 O   0  0  0  0  0  0  0  0  0  0  0  0
  1  2  1  0
  3  5  1  0
  3  2  1  0
  4  3  2  0
  6  5  1  0
  6  7  1  1
  8  7  1  0
  8 12  1  0
  9  8  2  0
 10  6  1  0
 11 10  2  0
 13 14  1  0
 14 15  1  0
 15 16  1  1
 17 15  1  0
 17 18  1  6
 18 10  1  0
 19 17  1  0
 20 19  1  0
 21 19  2  0
M  END
$$$$
