GDI.pdb
     RDKit          3D

 21 20  0  0  1  0  0  0  0  0999 V2000
    7.0070  -13.0196   18.7349 N   0  0  0  0  0  0  0  0  0  0  0  0
    8.2929  -13.3745   19.2934 C   0  0  0  0  0  0  0  0  0  0  0  0
    8.1627  -14.2439   20.4867 C   0  0  0  0  0  0  0  0  0  0  0  0
    7.1598  -14.1095   21.2278 O   0  0  0  0  0  0  0  0  0  0  0  0
    9.1230  -15.2392   20.8492 N   0  0  0  0  0  0  0  0  0  0  0  0
    9.0118  -16.0613   22.0068 C   0  0  1  0  0  0  0  0  0  0  0  0
    9.9395  -17.2366   21.9291 C   0  0  0  0  0  0  0  0  0  0  0  0
    9.6657  -18.1741   20.8353 C   0  0  0  0  0  0  0  0  0  0  0  0
    8.5389  -18.7112   20.7310 O   0  0  0  0  0  0  0  0  0  0  0  0
    9.3314  -15.2743   23.2483 C   0  0  0  0  0  0  0  0  0  0  0  0
   10.4317  -14.6949   23.3669 O   0  0  0  0  0  0  0  0  0  0  0  0
   10.6291  -18.4821   19.9085 O   0  0  0  0  0  0  0  0  0  0  0  0
    6.5037  -11.5049   26.8514 C   0  0  0  0  0  0  0  0  0  0  0  0
    7.6093  -12.5310   26.8463 C   0  0  0  0  0  0  0  0  0  0  0  0
    7.4009  -13.4571   25.6638 C   0  0  2  0  0  0  0  0  0  0  0  0
    6.1837  -14.3059   25.9509 C   0  0  0  0  0  0  0  0  0  0  0  0
    8.5750  -14.3997   25.4945 C   0  0  2  0  0  0  0  0  0  0  0  0
    8.3880  -15.1838   24.2919 N   0  0  0  0  0  0  0  0  0  0  0  0
    8.7159  -15.2179   26.6975 C   0  0  0  0  0  0  0  0  0  0  0  0
    8.4681  -16.5718   26.6507 O   0  0  0  0  0  0  0  0  0  0  0  0
    9.0618  -14.7011   27.7804 O   0  0  0  0  0  0  0  0  0  0  0  0
  1  2  1  0
  3  5  1  0
  3  2  1  0
  4  3  2  0
  6  5  1  0
  6  7  1  6
  8  7  1  0
  8 12  1  0
  9  8  2  0
 10  6  1  0
 11 10  2  0
 13 14  1  0
 14 15  1  0
 15 16  1  1
 17 15  1  0
 17 18  1  6
 18 10  1  0
 19 17  1  0
 20 19  1  0
 21 19  2  0
M  END
$$$$
