GDI.pdb
     RDKit          3D

 21 20  0  0  1  0  0  0  0  0999 V2000
    5.4394  -19.7594   23.1919 N   0  0  0  0  0  0  0  0  0  0  0  0
    5.7587  -18.3734   23.4536 C   0  0  0  0  0  0  0  0  0  0  0  0
    7.2198  -18.1471   23.5581 C   0  0  0  0  0  0  0  0  0  0  0  0
    7.8597  -18.7294   24.4661 O   0  0  0  0  0  0  0  0  0  0  0  0
    7.9536  -17.2944   22.6757 N   0  0  0  0  0  0  0  0  0  0  0  0
    9.3508  -17.0459   22.7959 C   0  0  1  0  0  0  0  0  0  0  0  0
    9.9247  -16.5385   21.5071 C   0  0  0  0  0  0  0  0  0  0  0  0
   11.3771  -16.3361   21.5097 C   0  0  0  0  0  0  0  0  0  0  0  0
   12.1311  -17.1787   22.0488 O   0  0  0  0  0  0  0  0  0  0  0  0
    9.6180  -16.0336   23.8760 C   0  0  0  0  0  0  0  0  0  0  0  0
   10.7886  -15.7056   24.1629 O   0  0  0  0  0  0  0  0  0  0  0  0
   11.9391  -15.2288   20.9267 O   0  0  0  0  0  0  0  0  0  0  0  0
    6.4809  -11.5977   26.7192 C   0  0  0  0  0  0  0  0  0  0  0  0
    7.6573  -12.5386   26.7967 C   0  0  0  0  0  0  0  0  0  0  0  0
    7.4839  -13.6138   25.7416 C   0  0  2  0  0  0  0  0  0  0  0  0
    6.3118  -14.4765   26.1497 C   0  0  0  0  0  0  0  0  0  0  0  0
    8.7009  -14.5139   25.6737 C   0  0  2  0  0  0  0  0  0  0  0  0
    8.5452  -15.4448   24.5758 N   0  0  0  0  0  0  0  0  0  0  0  0
    8.8870  -15.1739   26.9645 C   0  0  0  0  0  0  0  0  0  0  0  0
    9.3099  -14.4534   28.0594 O   0  0  0  0  0  0  0  0  0  0  0  0
    8.6657  -16.3964   27.0907 O   0  0  0  0  0  0  0  0  0  0  0  0
  1  2  1  0
  3  5  1  0
  3  2  1  0
  4  3  2  0
  6  5  1  0
  6  7  1  6
  8  7  1  0
  8 12  1  0
  9  8  2  0
 10  6  1  0
 11 10  2  0
 13 14  1  0
 14 15  1  0
 15 16  1  1
 17 15  1  0
 17 18  1  6
 18 10  1  0
 19 17  1  0
 20 19  1  0
 21 19  2  0
M  END
$$$$
