GDI.pdb
     RDKit          3D

 21 20  0  0  1  0  0  0  0  0999 V2000
    5.4365  -19.2713   23.0160 N   0  0  0  0  0  0  0  0  0  0  0  0
    5.8670  -17.9577   22.5910 C   0  0  0  0  0  0  0  0  0  0  0  0
    7.2345  -17.6379   23.0648 C   0  0  0  0  0  0  0  0  0  0  0  0
    7.5768  -17.9987   24.2161 O   0  0  0  0  0  0  0  0  0  0  0  0
    8.1997  -16.9340   22.2791 N   0  0  0  0  0  0  0  0  0  0  0  0
    9.4889  -16.5621   22.7564 C   0  0  1  0  0  0  0  0  0  0  0  0
   10.3983  -16.1845   21.6258 C   0  0  0  0  0  0  0  0  0  0  0  0
   10.7566  -17.2825   20.7222 C   0  0  0  0  0  0  0  0  0  0  0  0
   10.6382  -18.4722   21.0960 O   0  0  0  0  0  0  0  0  0  0  0  0
    9.3875  -15.3987   23.7046 C   0  0  0  0  0  0  0  0  0  0  0  0
    9.4818  -14.2265   23.2835 O   0  0  0  0  0  0  0  0  0  0  0  0
   11.2258  -17.0344   19.4572 O   0  0  0  0  0  0  0  0  0  0  0  0
    6.2423  -11.9643   26.3774 C   0  0  0  0  0  0  0  0  0  0  0  0
    7.5358  -12.6605   26.7197 C   0  0  0  0  0  0  0  0  0  0  0  0
    7.7256  -13.8212   25.7625 C   0  0  2  0  0  0  0  0  0  0  0  0
    6.5821  -14.7865   25.9746 C   0  0  0  0  0  0  0  0  0  0  0  0
    9.0073  -14.5719   26.0614 C   0  0  2  0  0  0  0  0  0  0  0  0
    9.1844  -15.6229   25.0815 N   0  0  0  0  0  0  0  0  0  0  0  0
    8.9679  -15.0684   27.4355 C   0  0  0  0  0  0  0  0  0  0  0  0
    8.9462  -16.4226   27.6853 O   0  0  0  0  0  0  0  0  0  0  0  0
    8.9534  -14.2732   28.3982 O   0  0  0  0  0  0  0  0  0  0  0  0
  1  2  1  0
  3  5  1  0
  3  2  1  0
  4  3  2  0
  6  5  1  0
  6  7  1  6
  8  7  1  0
  8 12  1  0
  9  8  2  0
 10  6  1  0
 11 10  2  0
 13 14  1  0
 14 15  1  0
 15 16  1  1
 17 15  1  0
 17 18  1  6
 18 10  1  0
 19 17  1  0
 20 19  1  0
 21 19  2  0
M  END
$$$$
