GDI.pdb
     RDKit          3D

 21 20  0  0  1  0  0  0  0  0999 V2000
    8.1855  -13.7628   18.9921 N   0  0  0  0  0  0  0  0  0  0  0  0
    7.1265  -13.9622   19.9566 C   0  0  0  0  0  0  0  0  0  0  0  0
    7.5784  -14.7520   21.1266 C   0  0  0  0  0  0  0  0  0  0  0  0
    6.8129  -14.8649   22.1137 O   0  0  0  0  0  0  0  0  0  0  0  0
    8.8501  -15.4014   21.1995 N   0  0  0  0  0  0  0  0  0  0  0  0
    9.2710  -16.1949   22.3047 C   0  0  1  0  0  0  0  0  0  0  0  0
   10.5357  -16.9363   21.9903 C   0  0  0  0  0  0  0  0  0  0  0  0
   10.3490  -18.2365   21.3385 C   0  0  0  0  0  0  0  0  0  0  0  0
    9.2023  -18.6203   21.0116 O   0  0  0  0  0  0  0  0  0  0  0  0
    9.5033  -15.3346   23.5166 C   0  0  0  0  0  0  0  0  0  0  0  0
   10.5396  -14.6443   23.6158 O   0  0  0  0  0  0  0  0  0  0  0  0
   11.4168  -19.0560   21.0738 O   0  0  0  0  0  0  0  0  0  0  0  0
    6.6410  -11.5357   26.9184 C   0  0  0  0  0  0  0  0  0  0  0  0
    7.5376  -12.7325   27.1162 C   0  0  0  0  0  0  0  0  0  0  0  0
    7.4468  -13.6107   25.8833 C   0  0  2  0  0  0  0  0  0  0  0  0
    6.2558  -14.5253   26.0545 C   0  0  0  0  0  0  0  0  0  0  0  0
    8.6725  -14.4911   25.7484 C   0  0  2  0  0  0  0  0  0  0  0  0
    8.5496  -15.3005   24.5542 N   0  0  0  0  0  0  0  0  0  0  0  0
    8.8348  -15.2841   26.9655 C   0  0  0  0  0  0  0  0  0  0  0  0
    8.6883  -16.6530   26.9282 O   0  0  0  0  0  0  0  0  0  0  0  0
    9.1077  -14.7321   28.0518 O   0  0  0  0  0  0  0  0  0  0  0  0
  1  2  1  0
  3  5  1  0
  3  2  1  0
  4  3  2  0
  6  5  1  0
  6  7  1  6
  8  7  1  0
  8 12  1  0
  9  8  2  0
 10  6  1  0
 11 10  2  0
 13 14  1  0
 14 15  1  0
 15 16  1  1
 17 15  1  0
 17 18  1  6
 18 10  1  0
 19 17  1  0
 20 19  1  0
 21 19  2  0
M  END
$$$$
