GDI.pdb
     RDKit          3D

 21 20  0  0  1  0  0  0  0  0999 V2000
    5.5063  -15.6480   19.8945 N   0  0  0  0  0  0  0  0  0  0  0  0
    6.5867  -14.8965   20.4941 C   0  0  0  0  0  0  0  0  0  0  0  0
    7.3076  -15.6807   21.5247 C   0  0  0  0  0  0  0  0  0  0  0  0
    6.6535  -16.4508   22.2677 O   0  0  0  0  0  0  0  0  0  0  0  0
    8.7214  -15.6118   21.7261 N   0  0  0  0  0  0  0  0  0  0  0  0
    9.4075  -16.3059   22.7633 C   0  0  1  0  0  0  0  0  0  0  0  0
   10.7044  -16.8743   22.2704 C   0  0  0  0  0  0  0  0  0  0  0  0
   11.4217  -17.7147   23.2344 C   0  0  0  0  0  0  0  0  0  0  0  0
   12.6741  -17.7204   23.2581 O   0  0  0  0  0  0  0  0  0  0  0  0
    9.6910  -15.3858   23.9190 C   0  0  0  0  0  0  0  0  0  0  0  0
   10.6204  -14.5536   23.8547 O   0  0  0  0  0  0  0  0  0  0  0  0
   10.7437  -18.5077   24.1251 O   0  0  0  0  0  0  0  0  0  0  0  0
    6.0908  -12.4183   25.7660 C   0  0  0  0  0  0  0  0  0  0  0  0
    7.4038  -13.0705   25.4114 C   0  0  0  0  0  0  0  0  0  0  0  0
    7.8763  -13.8803   26.6032 C   0  0  2  0  0  0  0  0  0  0  0  0
    8.2238  -12.9123   27.7107 C   0  0  0  0  0  0  0  0  0  0  0  0
    9.1361  -14.6545   26.2727 C   0  0  2  0  0  0  0  0  0  0  0  0
    8.9071  -15.4555   25.0886 N   0  0  0  0  0  0  0  0  0  0  0  0
    9.5353  -15.4473   27.4340 C   0  0  0  0  0  0  0  0  0  0  0  0
   10.2496  -14.8680   28.4592 O   0  0  0  0  0  0  0  0  0  0  0  0
    9.2348  -16.6569   27.5112 O   0  0  0  0  0  0  0  0  0  0  0  0
  1  2  1  0
  3  5  1  0
  3  2  1  0
  4  3  2  0
  6  5  1  0
  6  7  1  6
  8  7  1  0
  8 12  1  0
  9  8  2  0
 10  6  1  0
 11 10  2  0
 13 14  1  0
 14 15  1  0
 15 16  1  1
 17 15  1  0
 17 18  1  6
 18 10  1  0
 19 17  1  0
 20 19  1  0
 21 19  2  0
M  END
$$$$
