GDI.pdb
     RDKit          3D

 21 20  0  0  1  0  0  0  0  0999 V2000
    7.3626  -12.9435   18.5123 N   0  0  0  0  0  0  0  0  0  0  0  0
    8.4781  -13.1351   19.4126 C   0  0  0  0  0  0  0  0  0  0  0  0
    8.1357  -14.0300   20.5434 C   0  0  0  0  0  0  0  0  0  0  0  0
    7.0400  -13.8700   21.1323 O   0  0  0  0  0  0  0  0  0  0  0  0
    8.9893  -15.0778   21.0099 N   0  0  0  0  0  0  0  0  0  0  0  0
    8.7107  -15.8732   22.1580 C   0  0  1  0  0  0  0  0  0  0  0  0
    9.3312  -17.2329   22.0400 C   0  0  0  0  0  0  0  0  0  0  0  0
    9.0732  -18.1345   23.1672 C   0  0  0  0  0  0  0  0  0  0  0  0
    7.9621  -18.1206   23.7456 O   0  0  0  0  0  0  0  0  0  0  0  0
    9.2339  -15.2091   23.4022 C   0  0  0  0  0  0  0  0  0  0  0  0
   10.4551  -14.9828   23.5352 O   0  0  0  0  0  0  0  0  0  0  0  0
   10.0344  -19.0069   23.6110 O   0  0  0  0  0  0  0  0  0  0  0  0
    5.5236  -12.4839   26.7482 C   0  0  0  0  0  0  0  0  0  0  0  0
    6.3889  -13.6111   26.2424 C   0  0  0  0  0  0  0  0  0  0  0  0
    7.7806  -13.0690   25.9803 C   0  0  2  0  0  0  0  0  0  0  0  0
    7.7077  -12.1795   24.7605 C   0  0  0  0  0  0  0  0  0  0  0  0
    8.7516  -14.1878   25.6620 C   0  0  2  0  0  0  0  0  0  0  0  0
    8.3468  -14.8355   24.4320 N   0  0  0  0  0  0  0  0  0  0  0  0
    8.8221  -15.1049   26.7979 C   0  0  0  0  0  0  0  0  0  0  0  0
    9.3493  -14.6852   27.9990 O   0  0  0  0  0  0  0  0  0  0  0  0
    8.4064  -16.2778   26.6941 O   0  0  0  0  0  0  0  0  0  0  0  0
  1  2  1  0
  3  5  1  0
  3  2  1  0
  4  3  2  0
  6  5  1  0
  6  7  1  6
  8  7  1  0
  8 12  1  0
  9  8  2  0
 10  6  1  0
 11 10  2  0
 13 14  1  0
 14 15  1  0
 15 16  1  6
 17 15  1  0
 17 18  1  6
 18 10  1  0
 19 17  1  0
 20 19  1  0
 21 19  2  0
M  END
$$$$
