GDI.pdb
     RDKit          3D

 21 20  0  0  1  0  0  0  0  0999 V2000
   11.2860  -15.5425   19.8311 N   0  0  0  0  0  0  0  0  0  0  0  0
   11.9915  -15.7220   21.0807 C   0  0  0  0  0  0  0  0  0  0  0  0
   11.0877  -16.1462   22.1763 C   0  0  0  0  0  0  0  0  0  0  0  0
   10.0969  -15.4299   22.4559 O   0  0  0  0  0  0  0  0  0  0  0  0
   11.2792  -17.3373   22.9436 N   0  0  0  0  0  0  0  0  0  0  0  0
   10.4830  -17.6885   24.0710 C   0  0  1  0  0  0  0  0  0  0  0  0
   10.3594  -19.1767   24.2058 C   0  0  0  0  0  0  0  0  0  0  0  0
    9.3845  -19.6323   25.2018 C   0  0  0  0  0  0  0  0  0  0  0  0
    8.6667  -18.8038   25.8081 O   0  0  0  0  0  0  0  0  0  0  0  0
   11.0822  -17.1365   25.3355 C   0  0  0  0  0  0  0  0  0  0  0  0
   12.3217  -17.0582   25.4690 O   0  0  0  0  0  0  0  0  0  0  0  0
    9.2370  -20.9653   25.4905 O   0  0  0  0  0  0  0  0  0  0  0  0
    8.6201  -12.8946   27.4385 C   0  0  0  0  0  0  0  0  0  0  0  0
    9.7536  -13.8213   27.0757 C   0  0  0  0  0  0  0  0  0  0  0  0
    9.7308  -15.0040   28.0245 C   0  0  2  0  0  0  0  0  0  0  0  0
   10.1641  -14.5119   29.3863 C   0  0  0  0  0  0  0  0  0  0  0  0
   10.7215  -16.0672   27.5958 C   0  0  2  0  0  0  0  0  0  0  0  0
   10.2465  -16.7013   26.3840 N   0  0  0  0  0  0  0  0  0  0  0  0
   10.9260  -17.0091   28.6947 C   0  0  0  0  0  0  0  0  0  0  0  0
   10.3569  -18.2625   28.6514 O   0  0  0  0  0  0  0  0  0  0  0  0
   11.6175  -16.6902   29.6844 O   0  0  0  0  0  0  0  0  0  0  0  0
  1  2  1  0
  3  5  1  0
  3  2  1  0
  4  3  2  0
  6  5  1  0
  6  7  1  1
  8  7  1  0
  8 12  1  0
  9  8  2  0
 10  6  1  0
 11 10  2  0
 13 14  1  0
 14 15  1  0
 15 16  1  1
 17 15  1  0
 17 18  1  6
 18 10  1  0
 19 17  1  0
 20 19  1  0
 21 19  2  0
M  END
$$$$
