GDI.pdb
     RDKit          3D

 21 20  0  0  1  0  0  0  0  0999 V2000
    7.5002  -12.5683   18.6914 N   0  0  0  0  0  0  0  0  0  0  0  0
    8.5371  -13.4848   19.1112 C   0  0  0  0  0  0  0  0  0  0  0  0
    8.2114  -14.1450   20.3977 C   0  0  0  0  0  0  0  0  0  0  0  0
    7.2190  -13.7431   21.0508 O   0  0  0  0  0  0  0  0  0  0  0  0
    8.9694  -15.2259   20.9465 N   0  0  0  0  0  0  0  0  0  0  0  0
    8.5735  -15.9656   22.0974 C   0  0  1  0  0  0  0  0  0  0  0  0
    9.1072  -17.3660   22.0527 C   0  0  0  0  0  0  0  0  0  0  0  0
    8.7565  -18.1274   20.8496 C   0  0  0  0  0  0  0  0  0  0  0  0
    9.6312  -18.7871   20.2424 O   0  0  0  0  0  0  0  0  0  0  0  0
    9.0687  -15.2991   23.3517 C   0  0  0  0  0  0  0  0  0  0  0  0
   10.2391  -14.8682   23.4219 O   0  0  0  0  0  0  0  0  0  0  0  0
    7.4731  -18.1349   20.3652 O   0  0  0  0  0  0  0  0  0  0  0  0
    5.6968  -12.0522   25.8794 C   0  0  0  0  0  0  0  0  0  0  0  0
    6.9239  -12.7102   25.2993 C   0  0  0  0  0  0  0  0  0  0  0  0
    7.4063  -13.7700   26.2707 C   0  0  2  0  0  0  0  0  0  0  0  0
    7.8749  -13.0682   27.5246 C   0  0  0  0  0  0  0  0  0  0  0  0
    8.5937  -14.5256   25.7094 C   0  0  2  0  0  0  0  0  0  0  0  0
    8.2126  -15.1549   24.4624 N   0  0  0  0  0  0  0  0  0  0  0  0
    9.0781  -15.4765   26.7082 C   0  0  0  0  0  0  0  0  0  0  0  0
    8.8479  -16.8255   26.5532 O   0  0  0  0  0  0  0  0  0  0  0  0
    9.7052  -15.0790   27.7122 O   0  0  0  0  0  0  0  0  0  0  0  0
  1  2  1  0
  3  5  1  0
  3  2  1  0
  4  3  2  0
  6  5  1  0
  6  7  1  6
  8  7  1  0
  8 12  1  0
  9  8  2  0
 10  6  1  0
 11 10  2  0
 13 14  1  0
 14 15  1  0
 15 16  1  1
 17 15  1  0
 17 18  1  6
 18 10  1  0
 19 17  1  0
 20 19  1  0
 21 19  2  0
M  END
$$$$
