GDI.pdb
     RDKit          3D

 21 20  0  0  1  0  0  0  0  0999 V2000
    7.2000  -12.6344   18.8137 N   0  0  0  0  0  0  0  0  0  0  0  0
    8.4194  -13.2968   19.2208 C   0  0  0  0  0  0  0  0  0  0  0  0
    8.2043  -14.2036   20.3733 C   0  0  0  0  0  0  0  0  0  0  0  0
    7.0419  -14.3486   20.8215 O   0  0  0  0  0  0  0  0  0  0  0  0
    9.2545  -14.9325   21.0135 N   0  0  0  0  0  0  0  0  0  0  0  0
    9.0516  -15.8026   22.1225 C   0  0  1  0  0  0  0  0  0  0  0  0
    9.9788  -16.9795   22.0660 C   0  0  0  0  0  0  0  0  0  0  0  0
    9.7447  -18.0057   23.0869 C   0  0  0  0  0  0  0  0  0  0  0  0
    8.6755  -18.0149   23.7395 O   0  0  0  0  0  0  0  0  0  0  0  0
    9.2766  -15.0714   23.4177 C   0  0  0  0  0  0  0  0  0  0  0  0
   10.4155  -14.6604   23.7250 O   0  0  0  0  0  0  0  0  0  0  0  0
   10.6831  -18.9714   23.3488 O   0  0  0  0  0  0  0  0  0  0  0  0
    7.4178  -11.0263   26.5076 C   0  0  0  0  0  0  0  0  0  0  0  0
    7.1004  -12.4272   26.9678 C   0  0  0  0  0  0  0  0  0  0  0  0
    7.0053  -13.3242   25.7488 C   0  0  2  0  0  0  0  0  0  0  0  0
    5.9255  -14.3484   26.0123 C   0  0  0  0  0  0  0  0  0  0  0  0
    8.2980  -14.0826   25.5266 C   0  0  2  0  0  0  0  0  0  0  0  0
    8.1999  -14.8433   24.2985 N   0  0  0  0  0  0  0  0  0  0  0  0
    8.5787  -14.9134   26.6959 C   0  0  0  0  0  0  0  0  0  0  0  0
    8.4857  -16.2850   26.6131 O   0  0  0  0  0  0  0  0  0  0  0  0
    8.9055  -14.3916   27.7823 O   0  0  0  0  0  0  0  0  0  0  0  0
  1  2  1  0
  3  5  1  0
  3  2  1  0
  4  3  2  0
  6  5  1  0
  6  7  1  6
  8  7  1  0
  8 12  1  0
  9  8  2  0
 10  6  1  0
 11 10  2  0
 13 14  1  0
 14 15  1  0
 15 16  1  1
 17 15  1  0
 17 18  1  6
 18 10  1  0
 19 17  1  0
 20 19  1  0
 21 19  2  0
M  END
$$$$
