GWM.pdb
     RDKit          3D

 27 28  0  0  1  0  0  0  0  0999 V2000
   11.3608  -16.0929   18.2681 N   0  0  0  0  0  0  0  0  0  0  0  0
   10.6688  -17.0030   19.1260 C   0  0  0  0  0  0  0  0  0  0  0  0
   10.2593  -16.3836   20.4127 C   0  0  0  0  0  0  0  0  0  0  0  0
   10.8903  -15.3696   20.8444 O   0  0  0  0  0  0  0  0  0  0  0  0
    9.1890  -16.8672   21.1966 N   0  0  0  0  0  0  0  0  0  0  0  0
    8.8334  -16.3229   22.4783 C   0  0  1  0  0  0  0  0  0  0  0  0
    7.4941  -16.8086   22.9650 C   0  0  0  0  0  0  0  0  0  0  0  0
    6.9630  -16.0145   24.0798 C   0  0  0  0  0  0  0  0  0  0  0  0
    6.2737  -16.5312   25.1505 C   0  0  0  0  0  0  0  0  0  0  0  0
    5.9454  -15.5298   25.9651 N   0  0  0  0  0  0  0  0  0  0  0  0
    6.3995  -14.3604   25.4619 C   0  0  0  0  0  0  0  0  0  0  0  0
    6.3409  -13.0460   25.8830 C   0  0  0  0  0  0  0  0  0  0  0  0
    6.9111  -12.0349   25.1381 C   0  0  0  0  0  0  0  0  0  0  0  0
    7.5508  -12.3440   23.9520 C   0  0  0  0  0  0  0  0  0  0  0  0
    7.6309  -13.6406   23.4980 C   0  0  0  0  0  0  0  0  0  0  0  0
    7.0482  -14.6554   24.2637 C   0  0  0  0  0  0  0  0  0  0  0  0
    9.8395  -16.6052   23.5211 C   0  0  0  0  0  0  0  0  0  0  0  0
   10.6013  -17.5888   23.4108 O   0  0  0  0  0  0  0  0  0  0  0  0
   10.7595  -12.6142   28.7900 C   0  0  0  0  0  0  0  0  0  0  0  0
   10.7414  -14.2958   29.4148 S   0  0  0  0  0  0  0  0  0  0  0  0
   11.3411  -15.4824   28.1487 C   0  0  0  0  0  0  0  0  0  0  0  0
   10.5392  -15.2375   26.9182 C   0  0  0  0  0  0  0  0  0  0  0  0
   10.9469  -16.0166   25.7109 C   0  0  2  0  0  0  0  0  0  0  0  0
    9.9544  -15.7694   24.6549 N   0  0  0  0  0  0  0  0  0  0  0  0
   10.8545  -17.4755   26.0180 C   0  0  0  0  0  0  0  0  0  0  0  0
   11.8749  -18.1823   26.2501 O   0  0  0  0  0  0  0  0  0  0  0  0
    9.6401  -18.1540   26.0688 O   0  0  0  0  0  0  0  0  0  0  0  0
  2  3  1  0
  2  1  1  0
  3  4  2  0
  5  6  1  0
  5  3  1  0
  6  7  1  1
  8  7  1  0
  8 16  1  0
  9  8  2  0
 10  9  1  0
 10 11  1  0
 11 12  1  0
 11 16  2  0
 12 13  2  0
 13 14  1  0
 15 14  2  0
 16 15  1  0
 17  6  1  0
 17 18  2  0
 19 20  1  0
 21 20  1  0
 22 21  1  0
 23 24  1  0
 23 22  1  1
 24 17  1  0
 25 23  1  0
 26 25  2  0
 27 25  1  0
M  END
$$$$
