GWM.pdb
     RDKit          3D

 27 28  0  0  1  0  0  0  0  0999 V2000
    8.9237  -13.0561   18.5013 N   0  0  0  0  0  0  0  0  0  0  0  0
    9.2156  -14.3423   19.0523 C   0  0  0  0  0  0  0  0  0  0  0  0
    9.1917  -14.3517   20.5376 C   0  0  0  0  0  0  0  0  0  0  0  0
    9.7795  -13.4242   21.1758 O   0  0  0  0  0  0  0  0  0  0  0  0
    8.5407  -15.3511   21.2933 N   0  0  0  0  0  0  0  0  0  0  0  0
    8.5394  -15.3867   22.7301 C   0  0  1  0  0  0  0  0  0  0  0  0
    7.3663  -16.1447   23.2919 C   0  0  0  0  0  0  0  0  0  0  0  0
    6.6929  -15.4360   24.3873 C   0  0  0  0  0  0  0  0  0  0  0  0
    5.7744  -16.0022   25.2382 C   0  0  0  0  0  0  0  0  0  0  0  0
    5.3726  -15.0741   26.1049 N   0  0  0  0  0  0  0  0  0  0  0  0
    6.0015  -13.9051   25.8507 C   0  0  0  0  0  0  0  0  0  0  0  0
    5.9626  -12.6488   26.4240 C   0  0  0  0  0  0  0  0  0  0  0  0
    6.7396  -11.6198   25.9342 C   0  0  0  0  0  0  0  0  0  0  0  0
    7.5694  -11.8515   24.8529 C   0  0  0  0  0  0  0  0  0  0  0  0
    7.6370  -13.0885   24.2539 C   0  0  0  0  0  0  0  0  0  0  0  0
    6.8435  -14.1224   24.7611 C   0  0  0  0  0  0  0  0  0  0  0  0
    9.7783  -15.9608   23.2913 C   0  0  0  0  0  0  0  0  0  0  0  0
   10.5467  -16.6283   22.5676 O   0  0  0  0  0  0  0  0  0  0  0  0
    8.9961  -14.1244   28.6995 C   0  0  0  0  0  0  0  0  0  0  0  0
   10.7555  -14.4622   28.7927 S   0  0  0  0  0  0  0  0  0  0  0  0
   11.4871  -14.6465   27.1189 C   0  0  0  0  0  0  0  0  0  0  0  0
   11.2868  -16.0664   26.7178 C   0  0  0  0  0  0  0  0  0  0  0  0
   11.3242  -16.3386   25.2498 C   0  0  2  0  0  0  0  0  0  0  0  0
   10.1109  -15.7638   24.6507 N   0  0  0  0  0  0  0  0  0  0  0  0
   11.2262  -17.8120   25.0244 C   0  0  0  0  0  0  0  0  0  0  0  0
   10.1273  -18.3866   24.7852 O   0  0  0  0  0  0  0  0  0  0  0  0
   12.3367  -18.6504   25.0629 O   0  0  0  0  0  0  0  0  0  0  0  0
  2  3  1  0
  2  1  1  0
  3  4  2  0
  5  6  1  0
  5  3  1  0
  6  7  1  6
  8  7  1  0
  8 16  1  0
  9  8  2  0
 10  9  1  0
 10 11  1  0
 11 12  1  0
 11 16  2  0
 12 13  2  0
 13 14  1  0
 15 14  2  0
 16 15  1  0
 17  6  1  0
 17 18  2  0
 19 20  1  0
 21 20  1  0
 22 21  1  0
 23 24  1  0
 23 22  1  1
 24 17  1  0
 25 23  1  0
 26 25  2  0
 27 25  1  0
M  END
$$$$
