GWM.pdb
     RDKit          3D

 27 28  0  0  1  0  0  0  0  0999 V2000
    6.1650  -19.3025   22.9202 N   0  0  0  0  0  0  0  0  0  0  0  0
    6.6172  -18.5559   24.0521 C   0  0  0  0  0  0  0  0  0  0  0  0
    7.8864  -17.8287   23.7927 C   0  0  0  0  0  0  0  0  0  0  0  0
    8.5359  -18.0696   22.7282 O   0  0  0  0  0  0  0  0  0  0  0  0
    8.4208  -16.8676   24.6784 N   0  0  0  0  0  0  0  0  0  0  0  0
    9.6583  -16.1744   24.4466 C   0  0  1  0  0  0  0  0  0  0  0  0
    9.4870  -14.6795   24.3977 C   0  0  0  0  0  0  0  0  0  0  0  0
    8.1860  -14.2654   23.8578 C   0  0  0  0  0  0  0  0  0  0  0  0
    7.0105  -14.2554   24.5693 C   0  0  0  0  0  0  0  0  0  0  0  0
    6.0360  -13.8245   23.7700 N   0  0  0  0  0  0  0  0  0  0  0  0
    6.5353  -13.5481   22.5448 C   0  0  0  0  0  0  0  0  0  0  0  0
    5.9852  -13.0843   21.3655 C   0  0  0  0  0  0  0  0  0  0  0  0
    6.7652  -12.8942   20.2439 C   0  0  0  0  0  0  0  0  0  0  0  0
    8.1181  -13.1727   20.3031 C   0  0  0  0  0  0  0  0  0  0  0  0
    8.7041  -13.6363   21.4587 C   0  0  0  0  0  0  0  0  0  0  0  0
    7.9011  -13.8242   22.5880 C   0  0  0  0  0  0  0  0  0  0  0  0
   10.6919  -16.4933   25.4512 C   0  0  0  0  0  0  0  0  0  0  0  0
   11.8787  -16.1526   25.2631 O   0  0  0  0  0  0  0  0  0  0  0  0
   11.7352  -13.3002   27.9622 C   0  0  0  0  0  0  0  0  0  0  0  0
   10.9329  -14.1494   29.3236 S   0  0  0  0  0  0  0  0  0  0  0  0
   10.0936  -15.6788   28.7516 C   0  0  0  0  0  0  0  0  0  0  0  0
   11.0815  -16.7850   28.8845 C   0  0  0  0  0  0  0  0  0  0  0  0
   11.3630  -17.5584   27.6382 C   0  0  2  0  0  0  0  0  0  0  0  0
   10.3542  -17.1862   26.6357 N   0  0  0  0  0  0  0  0  0  0  0  0
   11.1475  -19.0118   27.9071 C   0  0  0  0  0  0  0  0  0  0  0  0
   10.1488  -19.6405   27.4574 O   0  0  0  0  0  0  0  0  0  0  0  0
   12.0304  -19.7706   28.6701 O   0  0  0  0  0  0  0  0  0  0  0  0
  2  3  1  0
  2  1  1  0
  3  4  2  0
  5  6  1  0
  5  3  1  0
  6  7  1  1
  8  7  1  0
  8 16  1  0
  9  8  2  0
 10  9  1  0
 10 11  1  0
 11 12  1  0
 11 16  2  0
 12 13  2  0
 13 14  1  0
 15 14  2  0
 16 15  1  0
 17  6  1  0
 17 18  2  0
 19 20  1  0
 21 20  1  0
 22 21  1  0
 23 24  1  0
 23 22  1  1
 24 17  1  0
 25 23  1  0
 26 25  2  0
 27 25  1  0
M  END
$$$$
