GWM.pdb
     RDKit          3D

 27 28  0  0  1  0  0  0  0  0999 V2000
    8.8873  -20.1460   21.8039 N   0  0  0  0  0  0  0  0  0  0  0  0
    9.3733  -19.4043   20.6828 C   0  0  0  0  0  0  0  0  0  0  0  0
    9.5834  -17.9663   20.9909 C   0  0  0  0  0  0  0  0  0  0  0  0
   10.4755  -17.3182   20.3608 O   0  0  0  0  0  0  0  0  0  0  0  0
    8.8338  -17.2669   21.9619 N   0  0  0  0  0  0  0  0  0  0  0  0
    8.9566  -15.8540   22.1948 C   0  0  1  0  0  0  0  0  0  0  0  0
    7.6245  -15.1769   22.3778 C   0  0  0  0  0  0  0  0  0  0  0  0
    7.1944  -15.1202   23.7804 C   0  0  0  0  0  0  0  0  0  0  0  0
    6.8965  -16.2169   24.5529 C   0  0  0  0  0  0  0  0  0  0  0  0
    6.5451  -15.7962   25.7669 N   0  0  0  0  0  0  0  0  0  0  0  0
    6.6020  -14.4469   25.8198 C   0  0  0  0  0  0  0  0  0  0  0  0
    6.3481  -13.5126   26.8053 C   0  0  0  0  0  0  0  0  0  0  0  0
    6.4961  -12.1633   26.5605 C   0  0  0  0  0  0  0  0  0  0  0  0
    6.9050  -11.7416   25.3089 C   0  0  0  0  0  0  0  0  0  0  0  0
    7.1679  -12.6405   24.3007 C   0  0  0  0  0  0  0  0  0  0  0  0
    7.0136  -14.0053   24.5632 C   0  0  0  0  0  0  0  0  0  0  0  0
    9.8060  -15.5358   23.3595 C   0  0  0  0  0  0  0  0  0  0  0  0
   10.1362  -14.3542   23.5936 O   0  0  0  0  0  0  0  0  0  0  0  0
   10.6025  -12.9292   28.8235 C   0  0  0  0  0  0  0  0  0  0  0  0
   10.3301  -14.7001   28.9116 S   0  0  0  0  0  0  0  0  0  0  0  0
   11.3685  -15.5946   27.6901 C   0  0  0  0  0  0  0  0  0  0  0  0
   10.5565  -15.7210   26.4484 C   0  0  0  0  0  0  0  0  0  0  0  0
   11.2574  -16.3154   25.2710 C   0  0  2  0  0  0  0  0  0  0  0  0
   10.2560  -16.5602   24.2229 N   0  0  0  0  0  0  0  0  0  0  0  0
   11.7857  -17.6611   25.6464 C   0  0  0  0  0  0  0  0  0  0  0  0
   11.2924  -18.7309   25.1913 O   0  0  0  0  0  0  0  0  0  0  0  0
   12.8553  -17.8277   26.5216 O   0  0  0  0  0  0  0  0  0  0  0  0
  2  3  1  0
  2  1  1  0
  3  4  2  0
  5  6  1  0
  5  3  1  0
  6  7  1  1
  8  7  1  0
  8 16  1  0
  9  8  2  0
 10  9  1  0
 10 11  1  0
 11 12  1  0
 11 16  2  0
 12 13  2  0
 13 14  1  0
 15 14  2  0
 16 15  1  0
 17  6  1  0
 17 18  2  0
 19 20  1  0
 21 20  1  0
 22 21  1  0
 23 24  1  0
 23 22  1  1
 24 17  1  0
 25 23  1  0
 26 25  2  0
 27 25  1  0
M  END
$$$$
