GWM.pdb
     RDKit          3D

 27 28  0  0  1  0  0  0  0  0999 V2000
    9.6035  -18.0771   18.4139 N   0  0  0  0  0  0  0  0  0  0  0  0
   10.2391  -18.6328   19.5674 C   0  0  0  0  0  0  0  0  0  0  0  0
   10.2832  -17.6872   20.7124 C   0  0  0  0  0  0  0  0  0  0  0  0
   11.2493  -16.8683   20.8069 O   0  0  0  0  0  0  0  0  0  0  0  0
    9.2940  -17.6467   21.7192 N   0  0  0  0  0  0  0  0  0  0  0  0
    9.2577  -16.6543   22.7582 C   0  0  1  0  0  0  0  0  0  0  0  0
    7.8604  -16.1867   23.0671 C   0  0  0  0  0  0  0  0  0  0  0  0
    7.7670  -14.7337   23.2553 C   0  0  0  0  0  0  0  0  0  0  0  0
    8.2287  -13.7972   22.3619 C   0  0  0  0  0  0  0  0  0  0  0  0
    7.9781  -12.5847   22.8530 N   0  0  0  0  0  0  0  0  0  0  0  0
    7.3612  -12.6926   24.0508 C   0  0  0  0  0  0  0  0  0  0  0  0
    6.8886  -11.7797   24.9737 C   0  0  0  0  0  0  0  0  0  0  0  0
    6.2870  -12.1972   26.1424 C   0  0  0  0  0  0  0  0  0  0  0  0
    6.1559  -13.5507   26.3921 C   0  0  0  0  0  0  0  0  0  0  0  0
    6.6134  -14.4916   25.4983 C   0  0  0  0  0  0  0  0  0  0  0  0
    7.2213  -14.0537   24.3175 C   0  0  0  0  0  0  0  0  0  0  0  0
    9.8843  -17.1141   24.0133 C   0  0  0  0  0  0  0  0  0  0  0  0
    9.5632  -18.2136   24.5111 O   0  0  0  0  0  0  0  0  0  0  0  0
    9.4432  -12.9391   28.6885 C   0  0  0  0  0  0  0  0  0  0  0  0
    9.1745  -14.6588   29.1229 S   0  0  0  0  0  0  0  0  0  0  0  0
   10.4540  -15.7419   28.3742 C   0  0  0  0  0  0  0  0  0  0  0  0
   10.2422  -15.7000   26.9009 C   0  0  0  0  0  0  0  0  0  0  0  0
   11.1942  -16.5106   26.0840 C   0  0  2  0  0  0  0  0  0  0  0  0
   10.8529  -16.3192   24.6669 N   0  0  0  0  0  0  0  0  0  0  0  0
   10.9639  -17.9599   26.3623 C   0  0  0  0  0  0  0  0  0  0  0  0
   11.9025  -18.7445   26.6759 O   0  0  0  0  0  0  0  0  0  0  0  0
    9.7019  -18.5435   26.2949 O   0  0  0  0  0  0  0  0  0  0  0  0
  2  3  1  0
  2  1  1  0
  3  4  2  0
  5  6  1  0
  5  3  1  0
  6  7  1  1
  8  7  1  0
  8 16  1  0
  9  8  2  0
 10  9  1  0
 10 11  1  0
 11 12  1  0
 11 16  2  0
 12 13  2  0
 13 14  1  0
 15 14  2  0
 16 15  1  0
 17  6  1  0
 17 18  2  0
 19 20  1  0
 21 20  1  0
 22 21  1  0
 23 24  1  0
 23 22  1  1
 24 17  1  0
 25 23  1  0
 26 25  2  0
 27 25  1  0
M  END
$$$$
