GWM.pdb
     RDKit          3D

 27 28  0  0  1  0  0  0  0  0999 V2000
    7.4971  -15.3981   19.3376 N   0  0  0  0  0  0  0  0  0  0  0  0
    8.4223  -16.2570   20.0081 C   0  0  0  0  0  0  0  0  0  0  0  0
    8.7322  -15.8040   21.3886 C   0  0  0  0  0  0  0  0  0  0  0  0
    9.1474  -14.6187   21.5767 O   0  0  0  0  0  0  0  0  0  0  0  0
    8.5885  -16.6317   22.5236 N   0  0  0  0  0  0  0  0  0  0  0  0
    8.9551  -16.2278   23.8533 C   0  0  1  0  0  0  0  0  0  0  0  0
    7.9374  -16.6340   24.8857 C   0  0  0  0  0  0  0  0  0  0  0  0
    6.9872  -15.5633   25.2113 C   0  0  0  0  0  0  0  0  0  0  0  0
    5.6556  -15.7564   25.4901 C   0  0  0  0  0  0  0  0  0  0  0  0
    5.0997  -14.5720   25.7398 N   0  0  0  0  0  0  0  0  0  0  0  0
    6.0293  -13.5967   25.6337 C   0  0  0  0  0  0  0  0  0  0  0  0
    6.0026  -12.2236   25.7836 C   0  0  0  0  0  0  0  0  0  0  0  0
    7.1421  -11.4670   25.6065 C   0  0  0  0  0  0  0  0  0  0  0  0
    8.3283  -12.0946   25.2738 C   0  0  0  0  0  0  0  0  0  0  0  0
    8.3966  -13.4599   25.1155 C   0  0  0  0  0  0  0  0  0  0  0  0
    7.2333  -14.2142   25.2982 C   0  0  0  0  0  0  0  0  0  0  0  0
   10.2735  -16.7466   24.2679 C   0  0  0  0  0  0  0  0  0  0  0  0
   10.8652  -17.5941   23.5668 O   0  0  0  0  0  0  0  0  0  0  0  0
    9.9239  -13.4258   29.2304 C   0  0  0  0  0  0  0  0  0  0  0  0
   10.7995  -14.9592   28.9139 S   0  0  0  0  0  0  0  0  0  0  0  0
   11.8597  -14.8241   27.4211 C   0  0  0  0  0  0  0  0  0  0  0  0
   12.4973  -16.1556   27.2265 C   0  0  0  0  0  0  0  0  0  0  0  0
   12.1353  -16.8717   25.9668 C   0  0  2  0  0  0  0  0  0  0  0  0
   10.8825  -16.2931   25.4599 N   0  0  0  0  0  0  0  0  0  0  0  0
   11.8206  -18.2960   26.2888 C   0  0  0  0  0  0  0  0  0  0  0  0
   10.6386  -18.7406   26.2974 O   0  0  0  0  0  0  0  0  0  0  0  0
   12.8062  -19.2280   26.6008 O   0  0  0  0  0  0  0  0  0  0  0  0
  2  3  1  0
  2  1  1  0
  3  4  2  0
  5  6  1  0
  5  3  1  0
  6  7  1  1
  8  7  1  0
  8 16  1  0
  9  8  2  0
 10  9  1  0
 10 11  1  0
 11 12  1  0
 11 16  2  0
 12 13  2  0
 13 14  1  0
 15 14  2  0
 16 15  1  0
 17  6  1  0
 17 18  2  0
 19 20  1  0
 21 20  1  0
 22 21  1  0
 23 24  1  0
 23 22  1  1
 24 17  1  0
 25 23  1  0
 26 25  2  0
 27 25  1  0
M  END
$$$$
