GWM.pdb
     RDKit          3D

 27 28  0  0  1  0  0  0  0  0999 V2000
    8.2861  -21.4023   23.6810 N   0  0  0  0  0  0  0  0  0  0  0  0
    8.5149  -20.8461   22.3843 C   0  0  0  0  0  0  0  0  0  0  0  0
    8.7880  -19.3863   22.4237 C   0  0  0  0  0  0  0  0  0  0  0  0
    9.6863  -18.9002   21.6690 O   0  0  0  0  0  0  0  0  0  0  0  0
    8.0928  -18.4930   23.2678 N   0  0  0  0  0  0  0  0  0  0  0  0
    8.2923  -17.0698   23.2553 C   0  0  1  0  0  0  0  0  0  0  0  0
    7.1733  -16.3198   23.9276 C   0  0  0  0  0  0  0  0  0  0  0  0
    7.3184  -14.8618   23.8342 C   0  0  0  0  0  0  0  0  0  0  0  0
    7.6980  -14.1839   22.7008 C   0  0  0  0  0  0  0  0  0  0  0  0
    7.7241  -12.8810   22.9763 N   0  0  0  0  0  0  0  0  0  0  0  0
    7.3714  -12.6767   24.2649 C   0  0  0  0  0  0  0  0  0  0  0  0
    7.2358  -11.5531   25.0573 C   0  0  0  0  0  0  0  0  0  0  0  0
    6.8500  -11.6568   26.3774 C   0  0  0  0  0  0  0  0  0  0  0  0
    6.5955  -12.9054   26.9139 C   0  0  0  0  0  0  0  0  0  0  0  0
    6.7190  -14.0486   26.1578 C   0  0  0  0  0  0  0  0  0  0  0  0
    7.1110  -13.9282   24.8209 C   0  0  0  0  0  0  0  0  0  0  0  0
    9.5673  -16.6633   23.8787 C   0  0  0  0  0  0  0  0  0  0  0  0
   10.2757  -15.7832   23.3463 O   0  0  0  0  0  0  0  0  0  0  0  0
   10.8804  -13.2794   28.9171 C   0  0  0  0  0  0  0  0  0  0  0  0
    9.6057  -14.5194   28.6809 S   0  0  0  0  0  0  0  0  0  0  0  0
   10.3028  -16.0640   27.9745 C   0  0  0  0  0  0  0  0  0  0  0  0
   10.9051  -15.7011   26.6620 C   0  0  0  0  0  0  0  0  0  0  0  0
   11.2380  -16.8449   25.7611 C   0  0  2  0  0  0  0  0  0  0  0  0
   10.0026  -17.2624   25.0824 N   0  0  0  0  0  0  0  0  0  0  0  0
   11.6568  -18.0138   26.5915 C   0  0  0  0  0  0  0  0  0  0  0  0
   12.7320  -18.0204   27.2540 O   0  0  0  0  0  0  0  0  0  0  0  0
   10.8926  -19.1728   26.6915 O   0  0  0  0  0  0  0  0  0  0  0  0
  2  3  1  0
  2  1  1  0
  3  4  2  0
  5  6  1  0
  5  3  1  0
  6  7  1  1
  8  7  1  0
  8 16  1  0
  9  8  2  0
 10  9  1  0
 10 11  1  0
 11 12  1  0
 11 16  2  0
 12 13  2  0
 13 14  1  0
 15 14  2  0
 16 15  1  0
 17  6  1  0
 17 18  2  0
 19 20  1  0
 21 20  1  0
 22 21  1  0
 23 24  1  0
 23 22  1  1
 24 17  1  0
 25 23  1  0
 26 25  2  0
 27 25  1  0
M  END
$$$$
