GWM.pdb
     RDKit          3D

 27 28  0  0  1  0  0  0  0  0999 V2000
   12.0038  -15.7024   18.7713 N   0  0  0  0  0  0  0  0  0  0  0  0
   11.5011  -16.7688   19.5796 C   0  0  0  0  0  0  0  0  0  0  0  0
   10.9152  -16.2944   20.8596 C   0  0  0  0  0  0  0  0  0  0  0  0
   11.5464  -15.4389   21.5543 O   0  0  0  0  0  0  0  0  0  0  0  0
    9.6740  -16.7491   21.3563 N   0  0  0  0  0  0  0  0  0  0  0  0
    9.1346  -16.3546   22.6287 C   0  0  1  0  0  0  0  0  0  0  0  0
    7.6426  -16.5382   22.7099 C   0  0  0  0  0  0  0  0  0  0  0  0
    7.0619  -16.0016   23.9470 C   0  0  0  0  0  0  0  0  0  0  0  0
    6.3894  -16.7483   24.8842 C   0  0  0  0  0  0  0  0  0  0  0  0
    6.0037  -15.9407   25.8708 N   0  0  0  0  0  0  0  0  0  0  0  0
    6.4034  -14.6758   25.6119 C   0  0  0  0  0  0  0  0  0  0  0  0
    6.2751  -13.4724   26.2781 C   0  0  0  0  0  0  0  0  0  0  0  0
    6.8010  -12.3102   25.7537 C   0  0  0  0  0  0  0  0  0  0  0  0
    7.4664  -12.3525   24.5425 C   0  0  0  0  0  0  0  0  0  0  0  0
    7.6155  -13.5311   23.8480 C   0  0  0  0  0  0  0  0  0  0  0  0
    7.0772  -14.7016   24.3918 C   0  0  0  0  0  0  0  0  0  0  0  0
    9.7552  -17.0690   23.7618 C   0  0  0  0  0  0  0  0  0  0  0  0
   10.1804  -18.2340   23.6143 O   0  0  0  0  0  0  0  0  0  0  0  0
   10.6883  -11.9571   28.2306 C   0  0  0  0  0  0  0  0  0  0  0  0
   10.6758  -13.7276   28.5199 S   0  0  0  0  0  0  0  0  0  0  0  0
   10.8627  -14.6597   26.9493 C   0  0  0  0  0  0  0  0  0  0  0  0
   10.6318  -16.0948   27.2727 C   0  0  0  0  0  0  0  0  0  0  0  0
   10.6687  -17.0363   26.1139 C   0  0  2  0  0  0  0  0  0  0  0  0
    9.8764  -16.4467   25.0249 N   0  0  0  0  0  0  0  0  0  0  0  0
    9.9630  -18.2984   26.4886 C   0  0  0  0  0  0  0  0  0  0  0  0
    8.7789  -18.5433   26.1242 O   0  0  0  0  0  0  0  0  0  0  0  0
   10.5609  -19.2884   27.2633 O   0  0  0  0  0  0  0  0  0  0  0  0
  2  3  1  0
  2  1  1  0
  3  4  2  0
  5  6  1  0
  5  3  1  0
  6  7  1  6
  8  7  1  0
  8 16  1  0
  9  8  2  0
 10  9  1  0
 10 11  1  0
 11 12  1  0
 11 16  2  0
 12 13  2  0
 13 14  1  0
 15 14  2  0
 16 15  1  0
 17  6  1  0
 17 18  2  0
 19 20  1  0
 21 20  1  0
 22 21  1  0
 23 24  1  0
 23 22  1  1
 24 17  1  0
 25 23  1  0
 26 25  2  0
 27 25  1  0
M  END
$$$$
