GWM.pdb
     RDKit          3D

 27 28  0  0  1  0  0  0  0  0999 V2000
   10.8775  -18.7282   18.5210 N   0  0  0  0  0  0  0  0  0  0  0  0
   10.1022  -19.0274   19.6840 C   0  0  0  0  0  0  0  0  0  0  0  0
   10.0968  -17.9193   20.6734 C   0  0  0  0  0  0  0  0  0  0  0  0
   11.1072  -17.1547   20.7577 O   0  0  0  0  0  0  0  0  0  0  0  0
    9.0121  -17.6636   21.5407 N   0  0  0  0  0  0  0  0  0  0  0  0
    9.0106  -16.6150   22.5236 C   0  0  1  0  0  0  0  0  0  0  0  0
    7.6444  -16.0195   22.7364 C   0  0  0  0  0  0  0  0  0  0  0  0
    7.6873  -14.6654   23.3021 C   0  0  0  0  0  0  0  0  0  0  0  0
    8.3282  -13.5957   22.7248 C   0  0  0  0  0  0  0  0  0  0  0  0
    8.1614  -12.5305   23.5069 N   0  0  0  0  0  0  0  0  0  0  0  0
    7.4254  -12.8662   24.5896 C   0  0  0  0  0  0  0  0  0  0  0  0
    6.9660  -12.1716   25.6919 C   0  0  0  0  0  0  0  0  0  0  0  0
    6.2151  -12.7982   26.6645 C   0  0  0  0  0  0  0  0  0  0  0  0
    5.9188  -14.1421   26.5321 C   0  0  0  0  0  0  0  0  0  0  0  0
    6.3575  -14.8691   25.4492 C   0  0  0  0  0  0  0  0  0  0  0  0
    7.1179  -14.2207   24.4710 C   0  0  0  0  0  0  0  0  0  0  0  0
    9.5379  -17.0530   23.8311 C   0  0  0  0  0  0  0  0  0  0  0  0
    9.2340  -18.1748   24.2884 O   0  0  0  0  0  0  0  0  0  0  0  0
   10.0455  -12.9767   28.7964 C   0  0  0  0  0  0  0  0  0  0  0  0
   11.5834  -13.8947   28.8993 S   0  0  0  0  0  0  0  0  0  0  0  0
   11.4133  -15.5635   28.1532 C   0  0  0  0  0  0  0  0  0  0  0  0
   11.0080  -15.3594   26.7350 C   0  0  0  0  0  0  0  0  0  0  0  0
   10.9011  -16.5965   25.9050 C   0  0  2  0  0  0  0  0  0  0  0  0
   10.3908  -16.2119   24.5810 N   0  0  0  0  0  0  0  0  0  0  0  0
    9.8599  -17.4907   26.4945 C   0  0  0  0  0  0  0  0  0  0  0  0
   10.1315  -18.3532   27.3761 O   0  0  0  0  0  0  0  0  0  0  0  0
    8.5223  -17.4346   26.1132 O   0  0  0  0  0  0  0  0  0  0  0  0
  2  3  1  0
  2  1  1  0
  3  4  2  0
  5  6  1  0
  5  3  1  0
  6  7  1  1
  8  7  1  0
  8 16  1  0
  9  8  2  0
 10  9  1  0
 10 11  1  0
 11 12  1  0
 11 16  2  0
 12 13  2  0
 13 14  1  0
 15 14  2  0
 16 15  1  0
 17  6  1  0
 17 18  2  0
 19 20  1  0
 21 20  1  0
 22 21  1  0
 23 24  1  0
 23 22  1  1
 24 17  1  0
 25 23  1  0
 26 25  2  0
 27 25  1  0
M  END
$$$$
