EGD.pdb
     RDKit          3D

 22 21  0  0  1  0  0  0  0  0999 V2000
   18.4315  -13.4420  -15.0523 N   0  0  0  0  0  0  0  0  0  0  0  0
   18.8595  -13.6268  -16.4079 C   0  0  1  0  0  0  0  0  0  0  0  0
   17.7980  -14.0423  -17.3565 C   0  0  0  0  0  0  0  0  0  0  0  0
   16.3904  -13.8239  -16.9762 C   0  0  0  0  0  0  0  0  0  0  0  0
   15.7864  -14.7465  -16.0272 C   0  0  0  0  0  0  0  0  0  0  0  0
   14.5601  -14.9921  -16.0513 O   0  0  0  0  0  0  0  0  0  0  0  0
   19.6358  -12.4499  -16.9282 C   0  0  0  0  0  0  0  0  0  0  0  0
   20.1429  -12.5367  -18.0774 O   0  0  0  0  0  0  0  0  0  0  0  0
   16.5517  -15.3926  -15.0523 O   0  0  0  0  0  0  0  0  0  0  0  0
   19.7818  -11.2887  -16.1332 N   0  0  0  0  0  0  0  0  0  0  0  0
   20.6287  -10.2321  -16.6996 C   0  0  0  0  0  0  0  0  0  0  0  0
   20.5167   -9.0471  -15.8082 C   0  0  0  0  0  0  0  0  0  0  0  0
   19.5462   -8.9303  -14.9870 O   0  0  0  0  0  0  0  0  0  0  0  0
   21.4858   -8.0095  -15.8431 N   0  0  0  0  0  0  0  0  0  0  0  0
   21.3254   -6.8830  -14.9147 C   0  0  1  0  0  0  0  0  0  0  0  0
   22.6381   -6.1727  -14.7310 C   0  0  0  0  0  0  0  0  0  0  0  0
   22.5642   -5.0148  -13.8489 C   0  0  0  0  0  0  0  0  0  0  0  0
   22.7600   -3.8558  -14.2160 O   0  0  0  0  0  0  0  0  0  0  0  0
   20.3704   -5.9706  -15.6376 C   0  0  0  0  0  0  0  0  0  0  0  0
   20.3103   -5.9238  -16.9021 O   0  0  0  0  0  0  0  0  0  0  0  0
   22.2485   -5.2311  -12.4885 O   0  0  0  0  0  0  0  0  0  0  0  0
   19.5419   -5.1682  -14.9139 O   0  0  0  0  0  0  0  0  0  0  0  0
  2  1  1  1
  2  7  1  0
  3  4  1  0
  3  2  1  0
  5  4  1  0
  5  6  2  0
  7  8  2  0
  9  5  1  0
 10 11  1  0
 10  7  1  0
 11 12  1  0
 12 13  2  0
 12 14  1  0
 14 15  1  0
 15 16  1  6
 15 19  1  0
 16 17  1  0
 17 21  1  0
 17 18  2  0
 19 22  1  0
 20 19  2  0
M  END
$$$$
