EGD.pdb
     RDKit          3D

 22 21  0  0  1  0  0  0  0  0999 V2000
   20.6472  -13.9480  -15.7692 N   0  0  0  0  0  0  0  0  0  0  0  0
   20.0585  -13.6543  -17.0429 C   0  0  1  0  0  0  0  0  0  0  0  0
   18.6354  -14.0454  -17.1885 C   0  0  0  0  0  0  0  0  0  0  0  0
   18.1568  -15.2384  -16.4664 C   0  0  0  0  0  0  0  0  0  0  0  0
   16.7575  -15.6100  -16.6096 C   0  0  0  0  0  0  0  0  0  0  0  0
   15.9901  -15.6419  -15.6223 O   0  0  0  0  0  0  0  0  0  0  0  0
   20.2859  -12.2295  -17.4633 C   0  0  0  0  0  0  0  0  0  0  0  0
   20.1567  -11.9445  -18.6829 O   0  0  0  0  0  0  0  0  0  0  0  0
   16.2173  -15.9463  -17.8541 O   0  0  0  0  0  0  0  0  0  0  0  0
   20.6355  -11.2529  -16.5011 N   0  0  0  0  0  0  0  0  0  0  0  0
   20.7790   -9.8830  -17.0079 C   0  0  0  0  0  0  0  0  0  0  0  0
   20.9396   -8.9882  -15.8311 C   0  0  0  0  0  0  0  0  0  0  0  0
   20.8427   -9.4412  -14.6415 O   0  0  0  0  0  0  0  0  0  0  0  0
   21.2060   -7.6028  -15.9946 N   0  0  0  0  0  0  0  0  0  0  0  0
   21.4738   -6.8042  -14.7917 C   0  0  1  0  0  0  0  0  0  0  0  0
   22.1877   -5.5335  -15.1624 C   0  0  0  0  0  0  0  0  0  0  0  0
   22.4194   -4.6370  -14.0369 C   0  0  0  0  0  0  0  0  0  0  0  0
   22.7980   -5.0099  -12.9260 O   0  0  0  0  0  0  0  0  0  0  0  0
   20.0965   -6.4642  -14.2870 C   0  0  0  0  0  0  0  0  0  0  0  0
   19.1143   -6.2983  -15.0695 O   0  0  0  0  0  0  0  0  0  0  0  0
   22.1977   -3.2545  -14.2281 O   0  0  0  0  0  0  0  0  0  0  0  0
   19.8944   -6.3304  -12.9471 O   0  0  0  0  0  0  0  0  0  0  0  0
  2  1  1  1
  2  7  1  0
  3  4  1  0
  3  2  1  0
  5  4  1  0
  5  6  2  0
  7  8  2  0
  9  5  1  0
 10 11  1  0
 10  7  1  0
 11 12  1  0
 12 13  2  0
 12 14  1  0
 14 15  1  0
 15 16  1  6
 15 19  1  0
 16 17  1  0
 17 21  1  0
 17 18  2  0
 19 22  1  0
 20 19  2  0
M  END
$$$$
