EGD.pdb
     RDKit          3D

 22 21  0  0  1  0  0  0  0  0999 V2000
   18.6381  -10.6528  -17.3525 N   0  0  0  0  0  0  0  0  0  0  0  0
   18.7597  -11.0615  -15.9838 C   0  0  1  0  0  0  0  0  0  0  0  0
   18.8760  -12.5239  -15.7670 C   0  0  0  0  0  0  0  0  0  0  0  0
   17.6883  -13.3658  -16.0003 C   0  0  0  0  0  0  0  0  0  0  0  0
   17.8231  -14.8037  -15.8247 C   0  0  0  0  0  0  0  0  0  0  0  0
   17.7533  -15.3287  -14.6914 O   0  0  0  0  0  0  0  0  0  0  0  0
   19.8361  -10.3074  -15.2551 C   0  0  0  0  0  0  0  0  0  0  0  0
   19.9399  -10.4776  -14.0118 O   0  0  0  0  0  0  0  0  0  0  0  0
   18.0365  -15.6533  -16.9139 O   0  0  0  0  0  0  0  0  0  0  0  0
   20.6961   -9.4358  -15.9639 N   0  0  0  0  0  0  0  0  0  0  0  0
   21.7650   -8.8144  -15.1731 C   0  0  0  0  0  0  0  0  0  0  0  0
   21.2932   -7.4620  -14.7731 C   0  0  0  0  0  0  0  0  0  0  0  0
   20.1993   -7.3090  -14.1330 O   0  0  0  0  0  0  0  0  0  0  0  0
   22.0451   -6.2998  -15.0905 N   0  0  0  0  0  0  0  0  0  0  0  0
   21.5842   -5.0117  -14.5567 C   0  0  1  0  0  0  0  0  0  0  0  0
   22.6835   -3.9896  -14.6499 C   0  0  0  0  0  0  0  0  0  0  0  0
   22.2709   -2.6433  -14.2737 C   0  0  0  0  0  0  0  0  0  0  0  0
   21.5339   -2.3902  -13.3202 O   0  0  0  0  0  0  0  0  0  0  0  0
   20.4728   -4.6244  -15.4958 C   0  0  0  0  0  0  0  0  0  0  0  0
   19.6453   -3.7064  -15.2179 O   0  0  0  0  0  0  0  0  0  0  0  0
   22.7437   -1.5596  -15.0475 O   0  0  0  0  0  0  0  0  0  0  0  0
   20.3491   -5.2780  -16.6838 O   0  0  0  0  0  0  0  0  0  0  0  0
  2  1  1  6
  2  7  1  0
  3  4  1  0
  3  2  1  0
  5  4  1  0
  5  6  2  0
  7  8  2  0
  9  5  1  0
 10 11  1  0
 10  7  1  0
 11 12  1  0
 12 13  2  0
 12 14  1  0
 14 15  1  0
 15 16  1  6
 15 19  1  0
 16 17  1  0
 17 21  1  0
 17 18  2  0
 19 22  1  0
 20 19  2  0
M  END
$$$$
