EGD.pdb
     RDKit          3D

 22 21  0  0  1  0  0  0  0  0999 V2000
   19.8108  -10.9561  -16.0139 N   0  0  0  0  0  0  0  0  0  0  0  0
   20.9486  -11.7091  -16.4538 C   0  0  1  0  0  0  0  0  0  0  0  0
   20.7802  -12.4143  -17.7475 C   0  0  0  0  0  0  0  0  0  0  0  0
   19.4544  -12.9672  -18.0793 C   0  0  0  0  0  0  0  0  0  0  0  0
   19.2556  -13.5170  -19.4116 C   0  0  0  0  0  0  0  0  0  0  0  0
   18.1433  -13.9625  -19.7707 O   0  0  0  0  0  0  0  0  0  0  0  0
   22.2152  -10.9007  -16.4258 C   0  0  0  0  0  0  0  0  0  0  0  0
   23.2983  -11.4885  -16.6842 O   0  0  0  0  0  0  0  0  0  0  0  0
   20.2987  -13.5696  -20.3405 O   0  0  0  0  0  0  0  0  0  0  0  0
   22.1698   -9.5213  -16.1145 N   0  0  0  0  0  0  0  0  0  0  0  0
   23.4219   -8.7822  -16.3150 C   0  0  0  0  0  0  0  0  0  0  0  0
   23.1641   -7.3638  -15.9500 C   0  0  0  0  0  0  0  0  0  0  0  0
   24.0803   -6.4807  -16.0528 O   0  0  0  0  0  0  0  0  0  0  0  0
   21.8913   -6.9485  -15.4766 N   0  0  0  0  0  0  0  0  0  0  0  0
   21.6725   -5.5140  -15.2510 C   0  0  1  0  0  0  0  0  0  0  0  0
   20.2050   -5.1953  -15.3312 C   0  0  0  0  0  0  0  0  0  0  0  0
   19.6915   -5.1178  -16.6930 C   0  0  0  0  0  0  0  0  0  0  0  0
   18.8343   -5.8747  -17.1499 O   0  0  0  0  0  0  0  0  0  0  0  0
   22.1427   -5.3095  -13.8352 C   0  0  0  0  0  0  0  0  0  0  0  0
   22.0709   -6.2251  -12.9628 O   0  0  0  0  0  0  0  0  0  0  0  0
   20.2059   -4.1138  -17.5442 O   0  0  0  0  0  0  0  0  0  0  0  0
   22.6632   -4.1038  -13.4759 O   0  0  0  0  0  0  0  0  0  0  0  0
  2  1  1  6
  2  7  1  0
  3  4  1  0
  3  2  1  0
  5  4  1  0
  5  6  2  0
  7  8  2  0
  9  5  1  0
 10 11  1  0
 10  7  1  0
 11 12  1  0
 12 13  2  0
 12 14  1  0
 14 15  1  0
 15 16  1  1
 15 19  1  0
 16 17  1  0
 17 21  1  0
 17 18  2  0
 19 22  1  0
 20 19  2  0
M  END
$$$$
