EGD.pdb
     RDKit          3D

 22 21  0  0  1  0  0  0  0  0999 V2000
   22.9143  -11.1280  -19.5889 N   0  0  0  0  0  0  0  0  0  0  0  0
   21.5958  -11.6486  -19.3752 C   0  0  1  0  0  0  0  0  0  0  0  0
   21.5382  -13.0515  -18.8978 C   0  0  0  0  0  0  0  0  0  0  0  0
   22.3088  -14.0747  -19.6279 C   0  0  0  0  0  0  0  0  0  0  0  0
   22.3023  -15.4348  -19.1114 C   0  0  0  0  0  0  0  0  0  0  0  0
   21.2774  -16.1489  -19.1763 O   0  0  0  0  0  0  0  0  0  0  0  0
   20.7531  -10.7404  -18.5247 C   0  0  0  0  0  0  0  0  0  0  0  0
   19.5569  -11.0707  -18.3116 O   0  0  0  0  0  0  0  0  0  0  0  0
   23.4394  -15.9952  -18.5226 O   0  0  0  0  0  0  0  0  0  0  0  0
   21.3066   -9.5532  -17.9902 N   0  0  0  0  0  0  0  0  0  0  0  0
   20.4702   -8.8443  -17.0144 C   0  0  0  0  0  0  0  0  0  0  0  0
   21.2477   -7.6725  -16.5308 C   0  0  0  0  0  0  0  0  0  0  0  0
   22.5027   -7.5809  -16.7458 O   0  0  0  0  0  0  0  0  0  0  0  0
   20.6178   -6.6197  -15.8154 N   0  0  0  0  0  0  0  0  0  0  0  0
   21.4397   -5.4727  -15.4084 C   0  0  1  0  0  0  0  0  0  0  0  0
   20.5874   -4.2386  -15.2977 C   0  0  0  0  0  0  0  0  0  0  0  0
   21.3224   -3.0487  -14.8877 C   0  0  0  0  0  0  0  0  0  0  0  0
   22.5495   -2.9515  -14.9218 O   0  0  0  0  0  0  0  0  0  0  0  0
   21.9222   -5.8609  -14.0360 C   0  0  0  0  0  0  0  0  0  0  0  0
   22.6223   -5.0824  -13.3230 O   0  0  0  0  0  0  0  0  0  0  0  0
   20.5855   -1.9362  -14.4224 O   0  0  0  0  0  0  0  0  0  0  0  0
   21.5979   -7.0867  -13.5400 O   0  0  0  0  0  0  0  0  0  0  0  0
  2  1  1  1
  2  7  1  0
  3  4  1  0
  3  2  1  0
  5  4  1  0
  5  6  2  0
  7  8  2  0
  9  5  1  0
 10 11  1  0
 10  7  1  0
 11 12  1  0
 12 13  2  0
 12 14  1  0
 14 15  1  0
 15 16  1  1
 15 19  1  0
 16 17  1  0
 17 21  1  0
 17 18  2  0
 19 22  1  0
 20 19  2  0
M  END
$$$$
