EGD.pdb
     RDKit          3D

 22 21  0  0  1  0  0  0  0  0999 V2000
   20.2040  -14.3753  -20.1731 N   0  0  0  0  0  0  0  0  0  0  0  0
   19.6023  -14.3359  -18.8725 C   0  0  1  0  0  0  0  0  0  0  0  0
   19.4351  -15.6529  -18.2115 C   0  0  0  0  0  0  0  0  0  0  0  0
   19.3941  -16.8621  -19.0540 C   0  0  0  0  0  0  0  0  0  0  0  0
   19.2724  -18.1528  -18.3938 C   0  0  0  0  0  0  0  0  0  0  0  0
   20.2605  -18.9074  -18.2562 O   0  0  0  0  0  0  0  0  0  0  0  0
   20.2691  -13.3421  -17.9636 C   0  0  0  0  0  0  0  0  0  0  0  0
   19.8795  -13.2793  -16.7679 O   0  0  0  0  0  0  0  0  0  0  0  0
   18.0479  -18.5998  -17.8894 O   0  0  0  0  0  0  0  0  0  0  0  0
   21.3013  -12.5100  -18.4574 N   0  0  0  0  0  0  0  0  0  0  0  0
   21.9595  -11.6544  -17.4630 C   0  0  0  0  0  0  0  0  0  0  0  0
   21.0624  -10.4957  -17.2100 C   0  0  0  0  0  0  0  0  0  0  0  0
   20.1262  -10.1976  -18.0252 O   0  0  0  0  0  0  0  0  0  0  0  0
   21.2195   -9.6858  -16.0541 N   0  0  0  0  0  0  0  0  0  0  0  0
   20.2567   -8.5984  -15.8364 C   0  0  1  0  0  0  0  0  0  0  0  0
   19.9777   -8.4405  -14.3671 C   0  0  0  0  0  0  0  0  0  0  0  0
   19.1432   -7.2898  -14.0452 C   0  0  0  0  0  0  0  0  0  0  0  0
   18.6701   -6.5254  -14.8867 O   0  0  0  0  0  0  0  0  0  0  0  0
   20.9911   -7.3803  -16.3304 C   0  0  0  0  0  0  0  0  0  0  0  0
   22.2292   -7.4024  -16.5972 O   0  0  0  0  0  0  0  0  0  0  0  0
   18.8568   -7.0324  -12.6855 O   0  0  0  0  0  0  0  0  0  0  0  0
   20.3071   -6.2150  -16.4982 O   0  0  0  0  0  0  0  0  0  0  0  0
  2  1  1  6
  2  7  1  0
  3  4  1  0
  3  2  1  0
  5  4  1  0
  5  6  2  0
  7  8  2  0
  9  5  1  0
 10 11  1  0
 10  7  1  0
 11 12  1  0
 12 13  2  0
 12 14  1  0
 14 15  1  0
 15 16  1  1
 15 19  1  0
 16 17  1  0
 17 21  1  0
 17 18  2  0
 19 22  1  0
 20 19  2  0
M  END
$$$$
