EGD.pdb
     RDKit          3D

 22 21  0  0  1  0  0  0  0  0999 V2000
   14.0715   -8.4882  -11.3714 N   0  0  0  0  0  0  0  0  0  0  0  0
   14.4457   -8.0216  -10.0686 C   0  0  1  0  0  0  0  0  0  0  0  0
   13.8708   -8.7833   -8.9334 C   0  0  0  0  0  0  0  0  0  0  0  0
   12.5057   -9.3236   -9.0689 C   0  0  0  0  0  0  0  0  0  0  0  0
   11.9338  -10.0320   -7.9341 C   0  0  0  0  0  0  0  0  0  0  0  0
   11.0422   -9.5128   -7.2270 O   0  0  0  0  0  0  0  0  0  0  0  0
   15.9324   -7.8550   -9.9257 C   0  0  0  0  0  0  0  0  0  0  0  0
   16.3743   -7.3886   -8.8429 O   0  0  0  0  0  0  0  0  0  0  0  0
   12.3587  -11.3183   -7.5898 O   0  0  0  0  0  0  0  0  0  0  0  0
   16.7924   -8.2162  -10.9895 N   0  0  0  0  0  0  0  0  0  0  0  0
   18.2230   -7.9835  -10.7583 C   0  0  0  0  0  0  0  0  0  0  0  0
   18.7731   -7.3448  -11.9834 C   0  0  0  0  0  0  0  0  0  0  0  0
   18.0275   -7.1020  -12.9908 O   0  0  0  0  0  0  0  0  0  0  0  0
   20.1443   -6.9853  -12.0699 N   0  0  0  0  0  0  0  0  0  0  0  0
   20.6254   -6.3935  -13.3249 C   0  0  1  0  0  0  0  0  0  0  0  0
   21.4506   -5.1696  -13.0371 C   0  0  0  0  0  0  0  0  0  0  0  0
   21.9008   -4.4671  -14.2321 C   0  0  0  0  0  0  0  0  0  0  0  0
   21.6269   -4.8166  -15.3806 O   0  0  0  0  0  0  0  0  0  0  0  0
   21.5176   -7.4645  -13.8941 C   0  0  0  0  0  0  0  0  0  0  0  0
   22.0525   -7.3582  -15.0374 O   0  0  0  0  0  0  0  0  0  0  0  0
   22.7002   -3.3135  -14.0669 O   0  0  0  0  0  0  0  0  0  0  0  0
   21.7614   -8.5852  -13.1603 O   0  0  0  0  0  0  0  0  0  0  0  0
  2  1  1  6
  2  7  1  0
  3  4  1  0
  3  2  1  0
  5  4  1  0
  5  6  2  0
  7  8  2  0
  9  5  1  0
 10 11  1  0
 10  7  1  0
 11 12  1  0
 12 13  2  0
 12 14  1  0
 14 15  1  0
 15 16  1  1
 15 19  1  0
 16 17  1  0
 17 21  1  0
 17 18  2  0
 19 22  1  0
 20 19  2  0
M  END
$$$$
