EGD.pdb
     RDKit          3D

 22 21  0  0  1  0  0  0  0  0999 V2000
   25.7188  -21.1265  -17.0910 N   0  0  0  0  0  0  0  0  0  0  0  0
   26.3946  -21.2230  -15.8304 C   0  0  1  0  0  0  0  0  0  0  0  0
   27.6311  -22.0418  -15.8353 C   0  0  0  0  0  0  0  0  0  0  0  0
   28.6305  -21.7995  -16.8918 C   0  0  0  0  0  0  0  0  0  0  0  0
   29.8190  -22.6381  -16.9156 C   0  0  0  0  0  0  0  0  0  0  0  0
   30.7070  -22.4814  -17.7826 O   0  0  0  0  0  0  0  0  0  0  0  0
   26.6248  -19.8782  -15.2003 C   0  0  0  0  0  0  0  0  0  0  0  0
   26.8608  -19.8365  -13.9642 O   0  0  0  0  0  0  0  0  0  0  0  0
   30.0142  -23.6511  -15.9724 O   0  0  0  0  0  0  0  0  0  0  0  0
   26.5720  -18.7059  -15.9905 N   0  0  0  0  0  0  0  0  0  0  0  0
   26.9007  -17.4552  -15.2964 C   0  0  0  0  0  0  0  0  0  0  0  0
   25.6974  -16.5836  -15.3571 C   0  0  0  0  0  0  0  0  0  0  0  0
   25.6805  -15.4435  -14.7828 O   0  0  0  0  0  0  0  0  0  0  0  0
   24.5306  -16.9926  -16.0559 N   0  0  0  0  0  0  0  0  0  0  0  0
   23.4241  -16.0341  -16.1733 C   0  0  1  0  0  0  0  0  0  0  0  0
   23.2233  -15.6493  -17.6132 C   0  0  0  0  0  0  0  0  0  0  0  0
   22.0832  -14.7690  -17.8352 C   0  0  0  0  0  0  0  0  0  0  0  0
   21.4151  -14.2661  -16.9312 O   0  0  0  0  0  0  0  0  0  0  0  0
   22.2303  -16.8231  -15.7049 C   0  0  0  0  0  0  0  0  0  0  0  0
   22.2335  -18.0891  -15.6636 O   0  0  0  0  0  0  0  0  0  0  0  0
   21.7191  -14.4715  -19.1679 O   0  0  0  0  0  0  0  0  0  0  0  0
   21.1085  -16.1593  -15.3112 O   0  0  0  0  0  0  0  0  0  0  0  0
  2  1  1  6
  2  7  1  0
  3  4  1  0
  3  2  1  0
  5  4  1  0
  5  6  2  0
  7  8  2  0
  9  5  1  0
 10 11  1  0
 10  7  1  0
 11 12  1  0
 12 13  2  0
 12 14  1  0
 14 15  1  0
 15 16  1  6
 15 19  1  0
 16 17  1  0
 17 21  1  0
 17 18  2  0
 19 22  1  0
 20 19  2  0
M  END
$$$$
