EGD.pdb
     RDKit          3D

 22 21  0  0  1  0  0  0  0  0999 V2000
   18.2056  -15.2602  -15.7372 N   0  0  0  0  0  0  0  0  0  0  0  0
   16.8402  -14.9029  -15.9883 C   0  0  1  0  0  0  0  0  0  0  0  0
   15.8463  -15.5167  -15.0747 C   0  0  0  0  0  0  0  0  0  0  0  0
   15.9401  -16.9628  -14.8030 C   0  0  0  0  0  0  0  0  0  0  0  0
   14.9810  -17.5497  -13.8797 C   0  0  0  0  0  0  0  0  0  0  0  0
   15.2479  -18.5925  -13.2425 O   0  0  0  0  0  0  0  0  0  0  0  0
   16.6483  -13.4163  -16.0954 C   0  0  0  0  0  0  0  0  0  0  0  0
   15.5689  -12.9927  -16.5863 O   0  0  0  0  0  0  0  0  0  0  0  0
   13.7255  -16.9724  -13.6698 O   0  0  0  0  0  0  0  0  0  0  0  0
   17.6638  -12.5360  -15.6532 N   0  0  0  0  0  0  0  0  0  0  0  0
   17.3636  -11.1047  -15.7771 C   0  0  0  0  0  0  0  0  0  0  0  0
   18.5377  -10.3573  -15.2533 C   0  0  0  0  0  0  0  0  0  0  0  0
   19.1527  -10.7481  -14.2050 O   0  0  0  0  0  0  0  0  0  0  0  0
   19.0107   -9.1866  -15.9032 N   0  0  0  0  0  0  0  0  0  0  0  0
   20.2109   -8.5342  -15.3640 C   0  0  1  0  0  0  0  0  0  0  0  0
   21.2618   -8.4184  -16.4335 C   0  0  0  0  0  0  0  0  0  0  0  0
   22.4685   -7.7241  -16.0023 C   0  0  0  0  0  0  0  0  0  0  0  0
   22.6268   -7.2536  -14.8754 O   0  0  0  0  0  0  0  0  0  0  0  0
   19.7241   -7.1559  -15.0027 C   0  0  0  0  0  0  0  0  0  0  0  0
   20.4718   -6.3044  -14.4367 O   0  0  0  0  0  0  0  0  0  0  0  0
   23.5239   -7.5804  -16.9311 O   0  0  0  0  0  0  0  0  0  0  0  0
   18.4400   -6.8079  -15.2922 O   0  0  0  0  0  0  0  0  0  0  0  0
  2  1  1  1
  2  7  1  0
  3  4  1  0
  3  2  1  0
  5  4  1  0
  5  6  2  0
  7  8  2  0
  9  5  1  0
 10 11  1  0
 10  7  1  0
 11 12  1  0
 12 13  2  0
 12 14  1  0
 14 15  1  0
 15 16  1  6
 15 19  1  0
 16 17  1  0
 17 21  1  0
 17 18  2  0
 19 22  1  0
 20 19  2  0
M  END
$$$$
