QIE.pdb
     RDKit          3D

 27 26  0  0  1  0  0  0  0  0999 V2000
   19.2534  -15.7543  -16.7682 N   0  0  0  0  0  0  0  0  0  0  0  0
   18.0799  -15.0852  -17.2701 C   0  0  0  0  0  0  0  0  0  0  0  0
   17.1738  -15.7772  -17.8063 O   0  0  0  0  0  0  0  0  0  0  0  0
   17.9945  -13.6094  -17.1307 C   0  0  0  0  0  0  0  0  0  0  0  0
   19.1788  -12.9993  -16.4551 C   0  0  0  0  0  0  0  0  0  0  0  0
   19.6513  -11.7166  -17.0588 C   0  0  2  0  0  0  0  0  0  0  0  0
   20.7006  -11.9137  -18.0399 N   0  0  0  0  0  0  0  0  0  0  0  0
   20.2537  -10.8931  -15.9508 C   0  0  0  0  0  0  0  0  0  0  0  0
   19.5920  -10.6736  -14.9025 O   0  0  0  0  0  0  0  0  0  0  0  0
   25.8644  -10.0959  -15.7261 C   0  0  0  0  0  0  0  0  0  0  0  0
   24.4194   -9.7692  -16.0332 C   0  0  0  0  0  0  0  0  0  0  0  0
   23.6021   -9.9270  -14.7511 C   0  0  2  0  0  0  0  0  0  0  0  0
   23.6261  -11.4029  -14.4198 C   0  0  0  0  0  0  0  0  0  0  0  0
   22.1626   -9.5396  -15.0153 C   0  0  2  0  0  0  0  0  0  0  0  0
   21.5613  -10.3445  -16.0425 N   0  0  0  0  0  0  0  0  0  0  0  0
   22.0818   -8.0851  -15.3251 C   0  0  0  0  0  0  0  0  0  0  0  0
   22.2443   -7.6954  -16.5090 O   0  0  0  0  0  0  0  0  0  0  0  0
   21.8293   -7.1019  -14.3503 N   0  0  0  0  0  0  0  0  0  0  0  0
   21.7673   -5.6637  -14.6321 C   0  0  1  0  0  0  0  0  0  0  0  0
   20.3902   -5.2491  -15.0000 C   0  0  0  0  0  0  0  0  0  0  0  0
   20.1082   -3.8238  -15.2224 C   0  0  0  0  0  0  0  0  0  0  0  0
   18.7647   -3.4361  -15.6338 C   0  0  0  0  0  0  0  0  0  0  0  0
   18.4146   -2.2644  -15.8313 O   0  0  0  0  0  0  0  0  0  0  0  0
   22.5096   -4.8562  -13.6755 C   0  0  0  0  0  0  0  0  0  0  0  0
   22.7655   -5.3101  -12.3835 O   0  0  0  0  0  0  0  0  0  0  0  0
   17.7665   -4.4184  -15.8322 O   0  0  0  0  0  0  0  0  0  0  0  0
   22.9457   -3.7159  -13.9718 O   0  0  0  0  0  0  0  0  0  0  0  0
  2  1  1  0
  3  2  2  0
  4  2  1  0
  5  4  1  0
  6  5  1  0
  6  7  1  6
  8 15  1  0
  8  6  1  0
  9  8  2  0
 11 10  1  0
 11 12  1  0
 12 14  1  0
 12 13  1  6
 14 15  1  6
 16 18  1  0
 16 14  1  0
 17 16  2  0
 19 18  1  0
 19 24  1  0
 19 20  1  1
 21 20  1  0
 22 26  1  0
 22 21  1  0
 23 22  2  0
 24 25  1  0
 27 24  2  0
M  END
$$$$
