QIE.pdb
     RDKit          3D

 27 26  0  0  1  0  0  0  0  0999 V2000
   26.1875  -18.9715  -18.0956 N   0  0  0  0  0  0  0  0  0  0  0  0
   27.5460  -18.5228  -17.9225 C   0  0  0  0  0  0  0  0  0  0  0  0
   28.1501  -18.0318  -18.9131 O   0  0  0  0  0  0  0  0  0  0  0  0
   28.1698  -18.6605  -16.5821 C   0  0  0  0  0  0  0  0  0  0  0  0
   27.2298  -19.1475  -15.5281 C   0  0  0  0  0  0  0  0  0  0  0  0
   27.7234  -20.3192  -14.7429 C   0  0  2  0  0  0  0  0  0  0  0  0
   28.1159  -21.4317  -15.5860 N   0  0  0  0  0  0  0  0  0  0  0  0
   26.5769  -20.8092  -13.8978 C   0  0  0  0  0  0  0  0  0  0  0  0
   25.8600  -21.7605  -14.3052 O   0  0  0  0  0  0  0  0  0  0  0  0
   27.2709  -20.4941   -8.6718 C   0  0  0  0  0  0  0  0  0  0  0  0
   26.7189  -21.1584   -9.9140 C   0  0  0  0  0  0  0  0  0  0  0  0
   25.4476  -20.4214  -10.3352 C   0  0  2  0  0  0  0  0  0  0  0  0
   24.3191  -21.0544   -9.5513 C   0  0  0  0  0  0  0  0  0  0  0  0
   25.1803  -20.6686  -11.8048 C   0  0  2  0  0  0  0  0  0  0  0  0
   26.2665  -20.2309  -12.6375 N   0  0  0  0  0  0  0  0  0  0  0  0
   23.8881  -20.0388  -12.1939 C   0  0  0  0  0  0  0  0  0  0  0  0
   23.8504  -18.8069  -12.4405 O   0  0  0  0  0  0  0  0  0  0  0  0
   22.6826  -20.7567  -12.3039 N   0  0  0  0  0  0  0  0  0  0  0  0
   21.4248  -20.1790  -12.7896 C   0  0  1  0  0  0  0  0  0  0  0  0
   21.6236  -19.4708  -14.0791 C   0  0  0  0  0  0  0  0  0  0  0  0
   22.1694  -20.2120  -15.2250 C   0  0  0  0  0  0  0  0  0  0  0  0
   21.2392  -20.7906  -16.1865 C   0  0  0  0  0  0  0  0  0  0  0  0
   20.1001  -20.3510  -16.3953 O   0  0  0  0  0  0  0  0  0  0  0  0
   20.2870  -21.0761  -12.6518 C   0  0  0  0  0  0  0  0  0  0  0  0
   20.4560  -22.4229  -12.3379 O   0  0  0  0  0  0  0  0  0  0  0  0
   21.6122  -21.9210  -16.9505 O   0  0  0  0  0  0  0  0  0  0  0  0
   19.1073  -20.6763  -12.8147 O   0  0  0  0  0  0  0  0  0  0  0  0
  2  1  1  0
  3  2  2  0
  4  2  1  0
  5  4  1  0
  6  5  1  0
  6  7  1  6
  8 15  1  0
  8  6  1  0
  9  8  2  0
 11 10  1  0
 11 12  1  0
 12 14  1  0
 12 13  1  1
 14 15  1  6
 16 18  1  0
 16 14  1  0
 17 16  2  0
 19 18  1  0
 19 24  1  0
 19 20  1  6
 21 20  1  0
 22 26  1  0
 22 21  1  0
 23 22  2  0
 24 25  1  0
 27 24  2  0
M  END
$$$$
