QIE.pdb
     RDKit          3D

 27 26  0  0  1  0  0  0  0  0999 V2000
   12.6506  -26.1396    2.4594 N   0  0  0  0  0  0  0  0  0  0  0  0
   12.0128  -26.5261    1.2262 C   0  0  0  0  0  0  0  0  0  0  0  0
   10.8574  -26.0875    0.9813 O   0  0  0  0  0  0  0  0  0  0  0  0
   12.7496  -27.4240    0.3014 C   0  0  0  0  0  0  0  0  0  0  0  0
   14.1393  -27.7400    0.7491 C   0  0  0  0  0  0  0  0  0  0  0  0
   15.1331  -26.6472    0.5225 C   0  0  2  0  0  0  0  0  0  0  0  0
   15.4726  -26.4820   -0.8775 N   0  0  0  0  0  0  0  0  0  0  0  0
   16.4050  -27.0434    1.2253 C   0  0  0  0  0  0  0  0  0  0  0  0
   16.9824  -28.1187    0.9169 O   0  0  0  0  0  0  0  0  0  0  0  0
   21.6715  -24.7436    2.1528 C   0  0  0  0  0  0  0  0  0  0  0  0
   20.7005  -25.7407    2.7462 C   0  0  0  0  0  0  0  0  0  0  0  0
   19.2943  -25.4045    2.2497 C   0  0  2  0  0  0  0  0  0  0  0  0
   18.9311  -24.0823    2.8888 C   0  0  0  0  0  0  0  0  0  0  0  0
   18.3152  -26.4427    2.7554 C   0  0  2  0  0  0  0  0  0  0  0  0
   16.9896  -26.2384    2.2399 N   0  0  0  0  0  0  0  0  0  0  0  0
   18.3381  -26.4726    4.2442 C   0  0  0  0  0  0  0  0  0  0  0  0
   17.9426  -25.4685    4.8887 O   0  0  0  0  0  0  0  0  0  0  0  0
   18.7854  -27.5815    4.9864 N   0  0  0  0  0  0  0  0  0  0  0  0
   18.8528  -27.6153    6.4513 C   0  0  1  0  0  0  0  0  0  0  0  0
   19.0675  -28.9985    6.9456 C   0  0  0  0  0  0  0  0  0  0  0  0
   19.0183  -29.2566    8.3917 C   0  0  0  0  0  0  0  0  0  0  0  0
   20.2361  -29.6943    9.0625 C   0  0  0  0  0  0  0  0  0  0  0  0
   21.3287  -29.8240    8.4937 O   0  0  0  0  0  0  0  0  0  0  0  0
   19.6514  -26.5379    7.0168 C   0  0  0  0  0  0  0  0  0  0  0  0
   19.1364  -25.6833    7.9890 O   0  0  0  0  0  0  0  0  0  0  0  0
   20.2207  -30.0010   10.4432 O   0  0  0  0  0  0  0  0  0  0  0  0
   20.8346  -26.3300    6.6494 O   0  0  0  0  0  0  0  0  0  0  0  0
  2  1  1  0
  3  2  2  0
  4  2  1  0
  5  4  1  0
  6  5  1  0
  6  7  1  6
  8 15  1  0
  8  6  1  0
  9  8  2  0
 11 10  1  0
 11 12  1  0
 12 14  1  0
 12 13  1  1
 14 15  1  1
 16 18  1  0
 16 14  1  0
 17 16  2  0
 19 18  1  0
 19 24  1  0
 19 20  1  6
 21 20  1  0
 22 26  1  0
 22 21  1  0
 23 22  2  0
 24 25  1  0
 27 24  2  0
M  END
$$$$
