QIE.pdb
     RDKit          3D

 27 26  0  0  1  0  0  0  0  0999 V2000
   18.8656  -14.9141  -17.2965 N   0  0  0  0  0  0  0  0  0  0  0  0
   18.7705  -14.5030  -18.6745 C   0  0  0  0  0  0  0  0  0  0  0  0
   18.1167  -15.2234  -19.4752 O   0  0  0  0  0  0  0  0  0  0  0  0
   19.4484  -13.2476  -19.0853 C   0  0  0  0  0  0  0  0  0  0  0  0
   20.1612  -12.5557  -17.9697 C   0  0  0  0  0  0  0  0  0  0  0  0
   21.5175  -13.1014  -17.6603 C   0  0  2  0  0  0  0  0  0  0  0  0
   21.4651  -14.4113  -17.0409 N   0  0  0  0  0  0  0  0  0  0  0  0
   22.1542  -12.1794  -16.6536 C   0  0  0  0  0  0  0  0  0  0  0  0
   21.6385  -12.0451  -15.5131 O   0  0  0  0  0  0  0  0  0  0  0  0
   27.4861  -11.8019  -15.9165 C   0  0  0  0  0  0  0  0  0  0  0  0
   25.9857  -11.8192  -15.7226 C   0  0  0  0  0  0  0  0  0  0  0  0
   25.4266  -10.4572  -16.1340 C   0  0  2  0  0  0  0  0  0  0  0  0
   25.9285   -9.4712  -15.1023 C   0  0  0  0  0  0  0  0  0  0  0  0
   23.9153  -10.4814  -16.0482 C   0  0  2  0  0  0  0  0  0  0  0  0
   23.3338  -11.4425  -16.9444 N   0  0  0  0  0  0  0  0  0  0  0  0
   23.3768   -9.1110  -16.2714 C   0  0  0  0  0  0  0  0  0  0  0  0
   23.4913   -8.5788  -17.4043 O   0  0  0  0  0  0  0  0  0  0  0  0
   22.7343   -8.3620  -15.2680 N   0  0  0  0  0  0  0  0  0  0  0  0
   22.1534   -7.0322  -15.4815 C   0  0  1  0  0  0  0  0  0  0  0  0
   20.7581   -7.1309  -15.9786 C   0  0  0  0  0  0  0  0  0  0  0  0
   19.9881   -5.8981  -16.1970 C   0  0  0  0  0  0  0  0  0  0  0  0
   18.6221   -6.0093  -16.6934 C   0  0  0  0  0  0  0  0  0  0  0  0
   17.7995   -6.8338  -16.2716 O   0  0  0  0  0  0  0  0  0  0  0  0
   22.4496   -6.0944  -14.4085 C   0  0  0  0  0  0  0  0  0  0  0  0
   22.4569   -4.7184  -14.6258 O   0  0  0  0  0  0  0  0  0  0  0  0
   18.1612   -5.1481  -17.7164 O   0  0  0  0  0  0  0  0  0  0  0  0
   22.7157   -6.4854  -13.2446 O   0  0  0  0  0  0  0  0  0  0  0  0
  2  1  1  0
  3  2  2  0
  4  2  1  0
  5  4  1  0
  6  5  1  0
  6  7  1  1
  8 15  1  0
  8  6  1  0
  9  8  2  0
 11 10  1  0
 11 12  1  0
 12 14  1  0
 12 13  1  1
 14 15  1  6
 16 18  1  0
 16 14  1  0
 17 16  2  0
 19 18  1  0
 19 24  1  0
 19 20  1  1
 21 20  1  0
 22 26  1  0
 22 21  1  0
 23 22  2  0
 24 25  1  0
 27 24  2  0
M  END
$$$$
