QIE.pdb
     RDKit          3D

 27 26  0  0  1  0  0  0  0  0999 V2000
   27.6157  -17.1902  -15.1874 N   0  0  0  0  0  0  0  0  0  0  0  0
   28.0305  -17.7072  -16.4671 C   0  0  0  0  0  0  0  0  0  0  0  0
   28.8980  -17.0705  -17.1225 O   0  0  0  0  0  0  0  0  0  0  0  0
   27.4149  -18.9680  -16.9526 C   0  0  0  0  0  0  0  0  0  0  0  0
   26.5167  -19.6224  -15.9543 C   0  0  0  0  0  0  0  0  0  0  0  0
   27.2205  -20.4452  -14.9244 C   0  0  2  0  0  0  0  0  0  0  0  0
   27.9123  -21.5841  -15.4960 N   0  0  0  0  0  0  0  0  0  0  0  0
   26.1700  -21.0046  -14.0011 C   0  0  0  0  0  0  0  0  0  0  0  0
   25.5893  -22.0827  -14.2929 O   0  0  0  0  0  0  0  0  0  0  0  0
   26.5894  -20.5320   -8.6434 C   0  0  0  0  0  0  0  0  0  0  0  0
   26.1998  -21.1461   -9.9701 C   0  0  0  0  0  0  0  0  0  0  0  0
   24.9575  -20.4252  -10.4933 C   0  0  2  0  0  0  0  0  0  0  0  0
   23.7928  -20.9673   -9.6944 C   0  0  0  0  0  0  0  0  0  0  0  0
   24.7296  -20.7935  -11.9440 C   0  0  2  0  0  0  0  0  0  0  0  0
   25.8019  -20.3531  -12.7931 N   0  0  0  0  0  0  0  0  0  0  0  0
   23.4093  -20.2718  -12.3940 C   0  0  0  0  0  0  0  0  0  0  0  0
   23.3134  -19.0772  -12.7732 O   0  0  0  0  0  0  0  0  0  0  0  0
   22.2393  -21.0536  -12.4201 N   0  0  0  0  0  0  0  0  0  0  0  0
   21.0308  -20.6974  -13.1712 C   0  0  1  0  0  0  0  0  0  0  0  0
   21.3552  -20.3658  -14.5814 C   0  0  0  0  0  0  0  0  0  0  0  0
   20.2671  -19.9934  -15.4966 C   0  0  0  0  0  0  0  0  0  0  0  0
   20.5895  -19.7433  -16.8959 C   0  0  0  0  0  0  0  0  0  0  0  0
   19.7637  -19.3624  -17.7370 O   0  0  0  0  0  0  0  0  0  0  0  0
   19.9033  -21.5770  -12.9004 C   0  0  0  0  0  0  0  0  0  0  0  0
   18.5938  -21.1019  -12.8979 O   0  0  0  0  0  0  0  0  0  0  0  0
   21.9086  -19.9322  -17.3702 O   0  0  0  0  0  0  0  0  0  0  0  0
   20.0632  -22.7982  -12.6528 O   0  0  0  0  0  0  0  0  0  0  0  0
  2  1  1  0
  3  2  2  0
  4  2  1  0
  5  4  1  0
  6  5  1  0
  6  7  1  6
  8 15  1  0
  8  6  1  0
  9  8  2  0
 11 10  1  0
 11 12  1  0
 12 14  1  0
 12 13  1  1
 14 15  1  6
 16 18  1  0
 16 14  1  0
 17 16  2  0
 19 18  1  0
 19 24  1  0
 19 20  1  6
 21 20  1  0
 22 26  1  0
 22 21  1  0
 23 22  2  0
 24 25  1  0
 27 24  2  0
M  END
$$$$
