QIE.pdb
     RDKit          3D

 27 26  0  0  1  0  0  0  0  0999 V2000
   17.3719  -11.5807  -17.1484 N   0  0  0  0  0  0  0  0  0  0  0  0
   17.6144  -12.5715  -18.1665 C   0  0  0  0  0  0  0  0  0  0  0  0
   16.6259  -13.0954  -18.7461 O   0  0  0  0  0  0  0  0  0  0  0  0
   19.0202  -12.9278  -18.4846 C   0  0  0  0  0  0  0  0  0  0  0  0
   20.0283  -12.1851  -17.6699 C   0  0  0  0  0  0  0  0  0  0  0  0
   21.4489  -12.5672  -17.9327 C   0  0  2  0  0  0  0  0  0  0  0  0
   21.6645  -13.9994  -17.8637 N   0  0  0  0  0  0  0  0  0  0  0  0
   22.2879  -11.9572  -16.8406 C   0  0  0  0  0  0  0  0  0  0  0  0
   22.0019  -12.1763  -15.6343 O   0  0  0  0  0  0  0  0  0  0  0  0
   27.9358  -10.5672  -15.2867 C   0  0  0  0  0  0  0  0  0  0  0  0
   26.4679  -10.2604  -15.0858 C   0  0  0  0  0  0  0  0  0  0  0  0
   25.6881  -10.8132  -16.2787 C   0  0  2  0  0  0  0  0  0  0  0  0
   26.1779  -10.0480  -17.4883 C   0  0  0  0  0  0  0  0  0  0  0  0
   24.2151  -10.5077  -16.1084 C   0  0  2  0  0  0  0  0  0  0  0  0
   23.4086  -11.1301  -17.1218 N   0  0  0  0  0  0  0  0  0  0  0  0
   24.0097   -9.0336  -16.0570 C   0  0  0  0  0  0  0  0  0  0  0  0
   24.5644   -8.3634  -15.1498 O   0  0  0  0  0  0  0  0  0  0  0  0
   23.2150   -8.3329  -16.9834 N   0  0  0  0  0  0  0  0  0  0  0  0
   22.9677   -6.8883  -16.9254 C   0  0  1  0  0  0  0  0  0  0  0  0
   22.6654   -6.3423  -18.2723 C   0  0  0  0  0  0  0  0  0  0  0  0
   22.4739   -4.8936  -18.4300 C   0  0  0  0  0  0  0  0  0  0  0  0
   22.0848   -4.3812  -19.7379 C   0  0  0  0  0  0  0  0  0  0  0  0
   21.9675   -5.0874  -20.7488 O   0  0  0  0  0  0  0  0  0  0  0  0
   22.1281   -6.4916  -15.8046 C   0  0  0  0  0  0  0  0  0  0  0  0
   20.9929   -7.2183  -15.4525 O   0  0  0  0  0  0  0  0  0  0  0  0
   21.8147   -3.0041  -19.9146 O   0  0  0  0  0  0  0  0  0  0  0  0
   22.3879   -5.4763  -15.1118 O   0  0  0  0  0  0  0  0  0  0  0  0
  2  1  1  0
  3  2  2  0
  4  2  1  0
  5  4  1  0
  6  5  1  0
  6  7  1  1
  8 15  1  0
  8  6  1  0
  9  8  2  0
 11 10  1  0
 11 12  1  0
 12 14  1  0
 12 13  1  6
 14 15  1  6
 16 18  1  0
 16 14  1  0
 17 16  2  0
 19 18  1  0
 19 24  1  0
 19 20  1  6
 21 20  1  0
 22 26  1  0
 22 21  1  0
 23 22  2  0
 24 25  1  0
 27 24  2  0
M  END
$$$$
