QIE.pdb
     RDKit          3D

 27 26  0  0  1  0  0  0  0  0999 V2000
   19.5642  -25.2201  -10.4280 N   0  0  0  0  0  0  0  0  0  0  0  0
   18.1544  -24.9222  -10.4517 C   0  0  0  0  0  0  0  0  0  0  0  0
   17.3441  -25.8078  -10.0688 O   0  0  0  0  0  0  0  0  0  0  0  0
   17.7234  -23.5831  -10.9267 C   0  0  0  0  0  0  0  0  0  0  0  0
   18.8566  -22.6528  -11.2130 C   0  0  0  0  0  0  0  0  0  0  0  0
   19.3447  -21.8794  -10.0312 C   0  0  2  0  0  0  0  0  0  0  0  0
   18.3519  -20.9547   -9.5195 N   0  0  0  0  0  0  0  0  0  0  0  0
   20.5091  -21.0421  -10.4917 C   0  0  0  0  0  0  0  0  0  0  0  0
   20.3017  -19.9821  -11.1383 O   0  0  0  0  0  0  0  0  0  0  0  0
   25.5407  -20.9261   -8.0873 C   0  0  0  0  0  0  0  0  0  0  0  0
   24.2389  -20.5927   -8.7826 C   0  0  0  0  0  0  0  0  0  0  0  0
   24.2926  -21.1463  -10.2064 C   0  0  2  0  0  0  0  0  0  0  0  0
   25.3811  -20.3707  -10.9151 C   0  0  0  0  0  0  0  0  0  0  0  0
   22.9865  -20.8549  -10.9145 C   0  0  2  0  0  0  0  0  0  0  0  0
   21.8555  -21.4068  -10.2208 N   0  0  0  0  0  0  0  0  0  0  0  0
   23.0626  -21.3270  -12.3248 C   0  0  0  0  0  0  0  0  0  0  0  0
   22.7649  -22.5180  -12.5949 O   0  0  0  0  0  0  0  0  0  0  0  0
   23.4562  -20.5013  -13.3943 N   0  0  0  0  0  0  0  0  0  0  0  0
   22.8433  -20.5358  -14.7265 C   0  0  1  0  0  0  0  0  0  0  0  0
   21.3729  -20.7181  -14.6348 C   0  0  0  0  0  0  0  0  0  0  0  0
   20.6016  -20.9384  -15.8665 C   0  0  0  0  0  0  0  0  0  0  0  0
   19.4172  -20.1219  -16.1015 C   0  0  0  0  0  0  0  0  0  0  0  0
   18.5426  -19.9134  -15.2495 O   0  0  0  0  0  0  0  0  0  0  0  0
   23.3680  -19.5218  -15.6292 C   0  0  0  0  0  0  0  0  0  0  0  0
   23.6274  -19.8037  -16.9686 O   0  0  0  0  0  0  0  0  0  0  0  0
   19.2089  -19.5103  -17.3597 O   0  0  0  0  0  0  0  0  0  0  0  0
   23.6137  -18.3534  -15.2385 O   0  0  0  0  0  0  0  0  0  0  0  0
  2  1  1  0
  3  2  2  0
  4  2  1  0
  5  4  1  0
  6  5  1  0
  6  7  1  6
  8 15  1  0
  8  6  1  0
  9  8  2  0
 11 10  1  0
 11 12  1  0
 12 14  1  0
 12 13  1  6
 14 15  1  1
 16 18  1  0
 16 14  1  0
 17 16  2  0
 19 18  1  0
 19 24  1  0
 19 20  1  1
 21 20  1  0
 22 26  1  0
 22 21  1  0
 23 22  2  0
 24 25  1  0
 27 24  2  0
M  END
$$$$
