QIE.pdb
     RDKit          3D

 27 26  0  0  1  0  0  0  0  0999 V2000
   29.3019  -18.7506  -16.3081 N   0  0  0  0  0  0  0  0  0  0  0  0
   28.0156  -18.5172  -16.9146 C   0  0  0  0  0  0  0  0  0  0  0  0
   27.5537  -17.3450  -16.9174 O   0  0  0  0  0  0  0  0  0  0  0  0
   27.2950  -19.6715  -17.5085 C   0  0  0  0  0  0  0  0  0  0  0  0
   26.3309  -20.3250  -16.5731 C   0  0  0  0  0  0  0  0  0  0  0  0
   26.9632  -21.0588  -15.4352 C   0  0  2  0  0  0  0  0  0  0  0  0
   27.6316  -22.2746  -15.8566 N   0  0  0  0  0  0  0  0  0  0  0  0
   25.8579  -21.4816  -14.5033 C   0  0  0  0  0  0  0  0  0  0  0  0
   25.1566  -22.4898  -14.7798 O   0  0  0  0  0  0  0  0  0  0  0  0
   26.2515  -20.5894   -9.0892 C   0  0  0  0  0  0  0  0  0  0  0  0
   25.9310  -21.2705  -10.4016 C   0  0  0  0  0  0  0  0  0  0  0  0
   24.7085  -20.5895  -11.0169 C   0  0  2  0  0  0  0  0  0  0  0  0
   23.5253  -21.0176  -10.1770 C   0  0  0  0  0  0  0  0  0  0  0  0
   24.4880  -21.1129  -12.4204 C   0  0  2  0  0  0  0  0  0  0  0  0
   25.5700  -20.7761  -13.3039 N   0  0  0  0  0  0  0  0  0  0  0  0
   23.1753  -20.6339  -12.9354 C   0  0  0  0  0  0  0  0  0  0  0  0
   23.0125  -19.4096  -13.1691 O   0  0  0  0  0  0  0  0  0  0  0  0
   22.0847  -21.4888  -13.1807 N   0  0  0  0  0  0  0  0  0  0  0  0
   20.7786  -21.0336  -13.6690 C   0  0  1  0  0  0  0  0  0  0  0  0
   20.2704  -21.9210  -14.7451 C   0  0  0  0  0  0  0  0  0  0  0  0
   18.9366  -21.6691  -15.3091 C   0  0  0  0  0  0  0  0  0  0  0  0
   18.4390  -22.5645  -16.3460 C   0  0  0  0  0  0  0  0  0  0  0  0
   19.0472  -23.5687  -16.7410 O   0  0  0  0  0  0  0  0  0  0  0  0
   19.8712  -20.6354  -12.6030 C   0  0  0  0  0  0  0  0  0  0  0  0
   19.0704  -19.5009  -12.7148 O   0  0  0  0  0  0  0  0  0  0  0  0
   17.1935  -22.3151  -16.9683 O   0  0  0  0  0  0  0  0  0  0  0  0
   19.7755  -21.2933  -11.5372 O   0  0  0  0  0  0  0  0  0  0  0  0
  2  1  1  0
  3  2  2  0
  4  2  1  0
  5  4  1  0
  6  5  1  0
  6  7  1  6
  8 15  1  0
  8  6  1  0
  9  8  2  0
 11 10  1  0
 11 12  1  0
 12 14  1  0
 12 13  1  1
 14 15  1  6
 16 18  1  0
 16 14  1  0
 17 16  2  0
 19 18  1  0
 19 24  1  0
 19 20  1  1
 21 20  1  0
 22 26  1  0
 22 21  1  0
 23 22  2  0
 24 25  1  0
 27 24  2  0
M  END
$$$$
