QIE.pdb
     RDKit          3D

 27 26  0  0  1  0  0  0  0  0999 V2000
   20.1357  -23.9318  -14.2270 N   0  0  0  0  0  0  0  0  0  0  0  0
   19.1777  -23.3785  -13.3035 C   0  0  0  0  0  0  0  0  0  0  0  0
   18.8630  -24.0511  -12.2856 O   0  0  0  0  0  0  0  0  0  0  0  0
   18.6068  -22.0395  -13.5959 C   0  0  0  0  0  0  0  0  0  0  0  0
   19.2603  -20.9286  -12.8406 C   0  0  0  0  0  0  0  0  0  0  0  0
   20.3307  -21.3620  -11.8922 C   0  0  2  0  0  0  0  0  0  0  0  0
   20.0175  -21.0439  -10.5127 N   0  0  0  0  0  0  0  0  0  0  0  0
   21.5762  -20.5877  -12.2357 C   0  0  0  0  0  0  0  0  0  0  0  0
   21.6131  -19.3439  -12.0451 O   0  0  0  0  0  0  0  0  0  0  0  0
   26.5058  -21.5523  -10.6337 C   0  0  0  0  0  0  0  0  0  0  0  0
   25.2359  -20.9132  -11.1515 C   0  0  0  0  0  0  0  0  0  0  0  0
   25.1772  -21.1067  -12.6667 C   0  0  2  0  0  0  0  0  0  0  0  0
   26.3358  -20.3163  -13.2336 C   0  0  0  0  0  0  0  0  0  0  0  0
   23.8998  -20.4998  -13.2073 C   0  0  2  0  0  0  0  0  0  0  0  0
   22.7311  -21.2155  -12.7754 N   0  0  0  0  0  0  0  0  0  0  0  0
   23.9786  -20.4007  -14.6911 C   0  0  0  0  0  0  0  0  0  0  0  0
   24.0903  -21.4490  -15.3756 O   0  0  0  0  0  0  0  0  0  0  0  0
   23.9346  -19.1774  -15.3857 N   0  0  0  0  0  0  0  0  0  0  0  0
   23.9930  -19.0607  -16.8467 C   0  0  1  0  0  0  0  0  0  0  0  0
   23.4460  -17.7580  -17.3020 C   0  0  0  0  0  0  0  0  0  0  0  0
   23.4993  -17.4207  -18.7316 C   0  0  0  0  0  0  0  0  0  0  0  0
   22.9823  -16.1274  -19.1614 C   0  0  0  0  0  0  0  0  0  0  0  0
   21.7972  -15.7855  -19.0475 O   0  0  0  0  0  0  0  0  0  0  0  0
   25.2496  -19.5286  -17.4127 C   0  0  0  0  0  0  0  0  0  0  0  0
   26.4771  -19.1382  -16.8820 O   0  0  0  0  0  0  0  0  0  0  0  0
   23.8446  -15.1723  -19.7487 O   0  0  0  0  0  0  0  0  0  0  0  0
   25.2808  -20.2986  -18.4049 O   0  0  0  0  0  0  0  0  0  0  0  0
  2  1  1  0
  3  2  2  0
  4  2  1  0
  5  4  1  0
  6  5  1  0
  6  7  1  1
  8 15  1  0
  8  6  1  0
  9  8  2  0
 11 10  1  0
 11 12  1  0
 12 14  1  0
 12 13  1  6
 14 15  1  6
 16 18  1  0
 16 14  1  0
 17 16  2  0
 19 18  1  0
 19 24  1  0
 19 20  1  1
 21 20  1  0
 22 26  1  0
 22 21  1  0
 23 22  2  0
 24 25  1  0
 27 24  2  0
M  END
$$$$
