QIE.pdb
     RDKit          3D

 27 26  0  0  1  0  0  0  0  0999 V2000
   26.9891  -17.1940  -17.6157 N   0  0  0  0  0  0  0  0  0  0  0  0
   26.7478  -16.8533  -16.2363 C   0  0  0  0  0  0  0  0  0  0  0  0
   26.2771  -15.7155  -15.9694 O   0  0  0  0  0  0  0  0  0  0  0  0
   27.0657  -17.8616  -15.1938 C   0  0  0  0  0  0  0  0  0  0  0  0
   27.7581  -19.0754  -15.7219 C   0  0  0  0  0  0  0  0  0  0  0  0
   28.0540  -20.1220  -14.6972 C   0  0  2  0  0  0  0  0  0  0  0  0
   28.7162  -21.2831  -15.2592 N   0  0  0  0  0  0  0  0  0  0  0  0
   26.7348  -20.6055  -14.1542 C   0  0  0  0  0  0  0  0  0  0  0  0
   26.1159  -21.5300  -14.7432 O   0  0  0  0  0  0  0  0  0  0  0  0
   26.6242  -20.7201   -8.8611 C   0  0  0  0  0  0  0  0  0  0  0  0
   26.3067  -21.2331  -10.2486 C   0  0  0  0  0  0  0  0  0  0  0  0
   25.1165  -20.4463  -10.7973 C   0  0  2  0  0  0  0  0  0  0  0  0
   23.8835  -21.0745  -10.1861 C   0  0  0  0  0  0  0  0  0  0  0  0
   25.0314  -20.6339  -12.2972 C   0  0  2  0  0  0  0  0  0  0  0  0
   26.1507  -20.0504  -12.9838 N   0  0  0  0  0  0  0  0  0  0  0  0
   23.7316  -20.1063  -12.7971 C   0  0  0  0  0  0  0  0  0  0  0  0
   23.4527  -18.8919  -12.6321 O   0  0  0  0  0  0  0  0  0  0  0  0
   22.7781  -20.9040  -13.4568 N   0  0  0  0  0  0  0  0  0  0  0  0
   21.4666  -20.4184  -13.8993 C   0  0  1  0  0  0  0  0  0  0  0  0
   21.1818  -20.8406  -15.2937 C   0  0  0  0  0  0  0  0  0  0  0  0
   22.1833  -20.5813  -16.3378 C   0  0  0  0  0  0  0  0  0  0  0  0
   22.3764  -19.2098  -16.7918 C   0  0  0  0  0  0  0  0  0  0  0  0
   21.7073  -18.2486  -16.3883 O   0  0  0  0  0  0  0  0  0  0  0  0
   20.4252  -20.5735  -12.8943 C   0  0  0  0  0  0  0  0  0  0  0  0
   20.5383  -21.5077  -11.8672 O   0  0  0  0  0  0  0  0  0  0  0  0
   23.3735  -18.9072  -17.7483 O   0  0  0  0  0  0  0  0  0  0  0  0
   19.3801  -19.8766  -12.9135 O   0  0  0  0  0  0  0  0  0  0  0  0
  2  1  1  0
  3  2  2  0
  4  2  1  0
  5  4  1  0
  6  5  1  0
  6  7  1  6
  8 15  1  0
  8  6  1  0
  9  8  2  0
 11 10  1  0
 11 12  1  0
 12 14  1  0
 12 13  1  1
 14 15  1  6
 16 18  1  0
 16 14  1  0
 17 16  2  0
 19 18  1  0
 19 24  1  0
 19 20  1  6
 21 20  1  0
 22 26  1  0
 22 21  1  0
 23 22  2  0
 24 25  1  0
 27 24  2  0
M  END
$$$$
