QIE.pdb
     RDKit          3D

 27 26  0  0  1  0  0  0  0  0999 V2000
   27.1611  -23.1641  -16.6832 N   0  0  0  0  0  0  0  0  0  0  0  0
   26.6393  -24.3107  -15.9833 C   0  0  0  0  0  0  0  0  0  0  0  0
   27.2640  -25.4019  -16.0631 O   0  0  0  0  0  0  0  0  0  0  0  0
   25.3883  -24.1507  -15.1998 C   0  0  0  0  0  0  0  0  0  0  0  0
   24.9494  -22.7307  -15.0502 C   0  0  0  0  0  0  0  0  0  0  0  0
   25.7161  -21.9424  -14.0384 C   0  0  2  0  0  0  0  0  0  0  0  0
   25.4775  -22.3929  -12.6810 N   0  0  0  0  0  0  0  0  0  0  0  0
   25.2229  -20.5209  -14.1082 C   0  0  0  0  0  0  0  0  0  0  0  0
   24.4095  -20.0969  -13.2459 O   0  0  0  0  0  0  0  0  0  0  0  0
   28.5463  -17.1429  -16.3785 C   0  0  0  0  0  0  0  0  0  0  0  0
   27.4753  -17.3723  -15.3348 C   0  0  0  0  0  0  0  0  0  0  0  0
   26.1147  -17.3949  -16.0312 C   0  0  2  0  0  0  0  0  0  0  0  0
   25.5875  -15.9785  -15.9631 C   0  0  0  0  0  0  0  0  0  0  0  0
   25.1609  -18.2772  -15.2542 C   0  0  2  0  0  0  0  0  0  0  0  0
   25.6460  -19.6236  -15.1256 N   0  0  0  0  0  0  0  0  0  0  0  0
   23.8088  -18.2268  -15.8765 C   0  0  0  0  0  0  0  0  0  0  0  0
   23.6257  -18.7582  -17.0008 O   0  0  0  0  0  0  0  0  0  0  0  0
   22.7021  -17.6066  -15.2674 N   0  0  0  0  0  0  0  0  0  0  0  0
   21.3496  -17.6004  -15.8350 C   0  0  1  0  0  0  0  0  0  0  0  0
   20.3649  -18.1655  -14.8786 C   0  0  0  0  0  0  0  0  0  0  0  0
   18.9421  -18.1876  -15.2467 C   0  0  0  0  0  0  0  0  0  0  0  0
   17.9886  -18.7623  -14.3060 C   0  0  0  0  0  0  0  0  0  0  0  0
   16.7634  -18.7772  -14.4878 O   0  0  0  0  0  0  0  0  0  0  0  0
   21.0212  -16.3639  -16.5290 C   0  0  0  0  0  0  0  0  0  0  0  0
   20.3741  -16.3715  -17.7627 O   0  0  0  0  0  0  0  0  0  0  0  0
   18.4391  -19.3494  -13.1006 O   0  0  0  0  0  0  0  0  0  0  0  0
   21.3113  -15.2399  -16.0487 O   0  0  0  0  0  0  0  0  0  0  0  0
  2  1  1  0
  3  2  2  0
  4  2  1  0
  5  4  1  0
  6  5  1  0
  6  7  1  1
  8 15  1  0
  8  6  1  0
  9  8  2  0
 11 10  1  0
 11 12  1  0
 12 14  1  0
 12 13  1  1
 14 15  1  6
 16 18  1  0
 16 14  1  0
 17 16  2  0
 19 18  1  0
 19 24  1  0
 19 20  1  1
 21 20  1  0
 22 26  1  0
 22 21  1  0
 23 22  2  0
 24 25  1  0
 27 24  2  0
M  END
$$$$
