QIE.pdb
     RDKit          3D

 27 26  0  0  1  0  0  0  0  0999 V2000
   24.6125  -20.7544   -8.6241 N   0  0  0  0  0  0  0  0  0  0  0  0
   23.2037  -21.0570   -8.5990 C   0  0  0  0  0  0  0  0  0  0  0  0
   22.7243  -21.6138   -7.5755 O   0  0  0  0  0  0  0  0  0  0  0  0
   22.3829  -20.6971   -9.7828 C   0  0  0  0  0  0  0  0  0  0  0  0
   23.1589  -20.0357  -10.8745 C   0  0  0  0  0  0  0  0  0  0  0  0
   23.4519  -20.9090  -12.0512 C   0  0  2  0  0  0  0  0  0  0  0  0
   23.9884  -22.2006  -11.6689 N   0  0  0  0  0  0  0  0  0  0  0  0
   24.5221  -20.2265  -12.8622 C   0  0  0  0  0  0  0  0  0  0  0  0
   24.3289  -19.0627  -13.3014 O   0  0  0  0  0  0  0  0  0  0  0  0
   29.7321  -20.9006  -11.6371 C   0  0  0  0  0  0  0  0  0  0  0  0
   28.4057  -20.3204  -12.0767 C   0  0  0  0  0  0  0  0  0  0  0  0
   28.1769  -20.6867  -13.5430 C   0  0  2  0  0  0  0  0  0  0  0  0
   29.1720  -19.8697  -14.3374 C   0  0  0  0  0  0  0  0  0  0  0  0
   26.7884  -20.2543  -13.9640 C   0  0  2  0  0  0  0  0  0  0  0  0
   25.7624  -20.8543  -13.1566 N   0  0  0  0  0  0  0  0  0  0  0  0
   26.5932  -20.5319  -15.4141 C   0  0  0  0  0  0  0  0  0  0  0  0
   26.7206  -21.7073  -15.8410 O   0  0  0  0  0  0  0  0  0  0  0  0
   26.2678  -19.5354  -16.3531 N   0  0  0  0  0  0  0  0  0  0  0  0
   26.0548  -19.7920  -17.7815 C   0  0  1  0  0  0  0  0  0  0  0  0
   24.7419  -19.2641  -18.2303 C   0  0  0  0  0  0  0  0  0  0  0  0
   24.3765  -19.3694  -19.6501 C   0  0  0  0  0  0  0  0  0  0  0  0
   23.1162  -18.7839  -20.0898 C   0  0  0  0  0  0  0  0  0  0  0  0
   22.5750  -17.8162  -19.5375 O   0  0  0  0  0  0  0  0  0  0  0  0
   27.2312  -19.5276  -18.5966 C   0  0  0  0  0  0  0  0  0  0  0  0
   27.7469  -20.4885  -19.4636 O   0  0  0  0  0  0  0  0  0  0  0  0
   22.4324  -19.3160  -21.2078 O   0  0  0  0  0  0  0  0  0  0  0  0
   27.8334  -18.4261  -18.5493 O   0  0  0  0  0  0  0  0  0  0  0  0
  2  1  1  0
  3  2  2  0
  4  2  1  0
  5  4  1  0
  6  5  1  0
  6  7  1  1
  8 15  1  0
  8  6  1  0
  9  8  2  0
 11 10  1  0
 11 12  1  0
 12 14  1  0
 12 13  1  6
 14 15  1  1
 16 18  1  0
 16 14  1  0
 17 16  2  0
 19 18  1  0
 19 24  1  0
 19 20  1  6
 21 20  1  0
 22 26  1  0
 22 21  1  0
 23 22  2  0
 24 25  1  0
 27 24  2  0
M  END
$$$$
