QIE.pdb
     RDKit          3D

 27 26  0  0  1  0  0  0  0  0999 V2000
   25.1110  -18.4350  -18.0964 N   0  0  0  0  0  0  0  0  0  0  0  0
   26.5510  -18.3781  -18.1068 C   0  0  0  0  0  0  0  0  0  0  0  0
   27.1196  -17.6441  -18.9585 O   0  0  0  0  0  0  0  0  0  0  0  0
   27.2969  -19.1884  -17.1111 C   0  0  0  0  0  0  0  0  0  0  0  0
   26.4222  -19.8496  -16.0966 C   0  0  0  0  0  0  0  0  0  0  0  0
   27.1533  -20.6420  -15.0618 C   0  0  2  0  0  0  0  0  0  0  0  0
   27.8632  -21.7747  -15.6234 N   0  0  0  0  0  0  0  0  0  0  0  0
   26.1239  -21.2091  -14.1196 C   0  0  0  0  0  0  0  0  0  0  0  0
   25.5852  -22.3180  -14.3741 O   0  0  0  0  0  0  0  0  0  0  0  0
   26.5675  -20.4954   -8.8028 C   0  0  0  0  0  0  0  0  0  0  0  0
   26.1689  -21.2124  -10.0742 C   0  0  0  0  0  0  0  0  0  0  0  0
   24.9044  -20.5550  -10.6270 C   0  0  2  0  0  0  0  0  0  0  0  0
   23.7575  -21.0979   -9.8032 C   0  0  0  0  0  0  0  0  0  0  0  0
   24.6882  -20.9942  -12.0596 C   0  0  2  0  0  0  0  0  0  0  0  0
   25.7297  -20.5312  -12.9346 N   0  0  0  0  0  0  0  0  0  0  0  0
   23.3387  -20.5638  -12.5195 C   0  0  0  0  0  0  0  0  0  0  0  0
   23.0662  -19.3380  -12.5743 O   0  0  0  0  0  0  0  0  0  0  0  0
   22.3306  -21.4674  -12.9040 N   0  0  0  0  0  0  0  0  0  0  0  0
   20.9774  -21.0660  -13.3030 C   0  0  1  0  0  0  0  0  0  0  0  0
   20.3804  -22.0520  -14.2385 C   0  0  0  0  0  0  0  0  0  0  0  0
   18.9721  -21.9024  -14.6320 C   0  0  0  0  0  0  0  0  0  0  0  0
   18.6509  -21.8211  -16.0514 C   0  0  0  0  0  0  0  0  0  0  0  0
   19.3370  -22.3361  -16.9449 O   0  0  0  0  0  0  0  0  0  0  0  0
   20.1712  -20.5751  -12.1951 C   0  0  0  0  0  0  0  0  0  0  0  0
   19.2626  -19.5323  -12.3621 O   0  0  0  0  0  0  0  0  0  0  0  0
   17.4987  -21.1244  -16.4846 O   0  0  0  0  0  0  0  0  0  0  0  0
   20.2640  -21.0662  -11.0425 O   0  0  0  0  0  0  0  0  0  0  0  0
  2  1  1  0
  3  2  2  0
  4  2  1  0
  5  4  1  0
  6  5  1  0
  6  7  1  6
  8 15  1  0
  8  6  1  0
  9  8  2  0
 11 10  1  0
 11 12  1  0
 12 14  1  0
 12 13  1  1
 14 15  1  6
 16 18  1  0
 16 14  1  0
 17 16  2  0
 19 18  1  0
 19 24  1  0
 19 20  1  1
 21 20  1  0
 22 26  1  0
 22 21  1  0
 23 22  2  0
 24 25  1  0
 27 24  2  0
M  END
$$$$
