QIE.pdb
     RDKit          3D

 27 26  0  0  1  0  0  0  0  0999 V2000
   23.6993  -21.4084  -16.5262 N   0  0  0  0  0  0  0  0  0  0  0  0
   24.2872  -20.1170  -16.7779 C   0  0  0  0  0  0  0  0  0  0  0  0
   24.3233  -19.6912  -17.9632 O   0  0  0  0  0  0  0  0  0  0  0  0
   24.8227  -19.3483  -15.6261 C   0  0  0  0  0  0  0  0  0  0  0  0
   24.6059  -20.0129  -14.3059 C   0  0  0  0  0  0  0  0  0  0  0  0
   25.8498  -20.5127  -13.6455 C   0  0  2  0  0  0  0  0  0  0  0  0
   26.4700  -21.6025  -14.3735 N   0  0  0  0  0  0  0  0  0  0  0  0
   25.4536  -21.0686  -12.3028 C   0  0  0  0  0  0  0  0  0  0  0  0
   25.0693  -22.2636  -12.2081 O   0  0  0  0  0  0  0  0  0  0  0  0
   26.7558  -20.5434   -6.3747 C   0  0  0  0  0  0  0  0  0  0  0  0
   25.7131  -20.9289   -7.4010 C   0  0  0  0  0  0  0  0  0  0  0  0
   26.0951  -20.3014   -8.7415 C   0  0  2  0  0  0  0  0  0  0  0  0
   25.8844  -18.8120   -8.5802 C   0  0  0  0  0  0  0  0  0  0  0  0
   25.1464  -20.7850   -9.8176 C   0  0  2  0  0  0  0  0  0  0  0  0
   25.4970  -20.2849  -11.1183 N   0  0  0  0  0  0  0  0  0  0  0  0
   23.7460  -20.4415   -9.4450 C   0  0  0  0  0  0  0  0  0  0  0  0
   23.2787  -19.3194   -9.7650 O   0  0  0  0  0  0  0  0  0  0  0  0
   22.8982  -21.3174   -8.7416 N   0  0  0  0  0  0  0  0  0  0  0  0
   21.4438  -21.3741   -8.9231 C   0  0  1  0  0  0  0  0  0  0  0  0
   21.0840  -21.3831  -10.3633 C   0  0  0  0  0  0  0  0  0  0  0  0
   19.6668  -21.4589  -10.7456 C   0  0  0  0  0  0  0  0  0  0  0  0
   19.3305  -21.5212  -12.1625 C   0  0  0  0  0  0  0  0  0  0  0  0
   18.5749  -20.7192  -12.7283 O   0  0  0  0  0  0  0  0  0  0  0  0
   20.7878  -22.3193   -8.0317 C   0  0  0  0  0  0  0  0  0  0  0  0
   19.4819  -22.1177   -7.5905 O   0  0  0  0  0  0  0  0  0  0  0  0
   19.8732  -22.5384  -12.9819 O   0  0  0  0  0  0  0  0  0  0  0  0
   21.3718  -23.3522   -7.6190 O   0  0  0  0  0  0  0  0  0  0  0  0
  2  1  1  0
  3  2  2  0
  4  2  1  0
  5  4  1  0
  6  5  1  0
  6  7  1  6
  8 15  1  0
  8  6  1  0
  9  8  2  0
 11 10  1  0
 11 12  1  0
 12 14  1  0
 12 13  1  1
 14 15  1  6
 16 18  1  0
 16 14  1  0
 17 16  2  0
 19 18  1  0
 19 24  1  0
 19 20  1  6
 21 20  1  0
 22 26  1  0
 22 21  1  0
 23 22  2  0
 24 25  1  0
 27 24  2  0
M  END
$$$$
