IKN.pdb
     RDKit          3D

 26 25  0  0  1  0  0  0  0  0999 V2000
    7.7527  -12.0076   19.7744 C   0  0  0  0  0  0  0  0  0  0  0  0
    7.7049  -13.5140   19.8570 C   0  0  0  0  0  0  0  0  0  0  0  0
    7.4275  -13.8972   21.3048 C   0  0  2  0  0  0  0  0  0  0  0  0
    8.5437  -13.3730   22.1512 C   0  0  0  0  0  0  0  0  0  0  0  0
    7.4050  -15.4066   21.3578 C   0  0  2  0  0  0  0  0  0  0  0  0
    6.3701  -15.8542   20.4556 N   0  0  0  0  0  0  0  0  0  0  0  0
    7.1960  -15.8944   22.7429 C   0  0  0  0  0  0  0  0  0  0  0  0
    6.1320  -15.5208   23.3137 O   0  0  0  0  0  0  0  0  0  0  0  0
    8.0924  -16.7239   23.4290 N   0  0  0  0  0  0  0  0  0  0  0  0
    7.7700  -17.2141   24.7756 C   0  0  1  0  0  0  0  0  0  0  0  0
    7.5900  -18.6938   24.6109 C   0  0  0  0  0  0  0  0  0  0  0  0
    6.3560  -19.1535   23.9326 C   0  0  0  0  0  0  0  0  0  0  0  0
    6.3812  -20.6924   24.0042 C   0  0  0  0  0  0  0  0  0  0  0  0
    5.1504  -21.2683   23.3485 C   0  0  0  0  0  0  0  0  0  0  0  0
    5.2495  -22.7115   23.4553 N   0  0  0  0  0  0  0  0  0  0  0  0
    8.9003  -16.8296   25.6434 C   0  0  0  0  0  0  0  0  0  0  0  0
   10.0533  -16.6088   25.1591 O   0  0  0  0  0  0  0  0  0  0  0  0
    8.3326  -13.1242   28.2448 N   0  0  0  0  0  0  0  0  0  0  0  0
    9.4776  -13.9487   28.0280 C   0  0  0  0  0  0  0  0  0  0  0  0
   10.3390  -13.5695   27.2039 O   0  0  0  0  0  0  0  0  0  0  0  0
    9.6180  -15.2061   28.7662 C   0  0  0  0  0  0  0  0  0  0  0  0
    9.9440  -16.3510   27.8502 C   0  0  2  0  0  0  0  0  0  0  0  0
    8.7849  -16.6785   27.0444 N   0  0  0  0  0  0  0  0  0  0  0  0
   10.3360  -17.5027   28.7138 C   0  0  0  0  0  0  0  0  0  0  0  0
   11.4125  -17.4182   29.5614 O   0  0  0  0  0  0  0  0  0  0  0  0
    9.6533  -18.5554   28.6452 O   0  0  0  0  0  0  0  0  0  0  0  0
  1  2  1  0
  3  5  1  0
  3  2  1  0
  3  4  1  1
  5  6  1  6
  7  9  1  0
  7  5  1  0
  8  7  2  0
 10  9  1  0
 11 12  1  0
 10 11  1  6
 12 13  1  0
 13 14  1  0
 14 15  1  0
 16 23  1  0
 16 10  1  0
 17 16  2  0
 18 19  1  0
 19 20  2  0
 19 21  1  0
 22 21  1  1
 22 23  1  0
 22 24  1  0
 24 25  1  0
 26 24  2  0
M  END
$$$$
