IKN.pdb
     RDKit          3D

 26 25  0  0  1  0  0  0  0  0999 V2000
    6.3231  -11.8171   27.9165 C   0  0  0  0  0  0  0  0  0  0  0  0
    5.8250  -13.0633   27.2258 C   0  0  0  0  0  0  0  0  0  0  0  0
    6.9397  -13.5795   26.3252 C   0  0  2  0  0  0  0  0  0  0  0  0
    7.3205  -12.4874   25.3769 C   0  0  0  0  0  0  0  0  0  0  0  0
    6.3722  -14.7520   25.5605 C   0  0  2  0  0  0  0  0  0  0  0  0
    6.1130  -15.8044   26.5149 N   0  0  0  0  0  0  0  0  0  0  0  0
    7.2897  -15.1850   24.4785 C   0  0  0  0  0  0  0  0  0  0  0  0
    8.1068  -16.1039   24.7711 O   0  0  0  0  0  0  0  0  0  0  0  0
    7.2954  -14.6422   23.1871 N   0  0  0  0  0  0  0  0  0  0  0  0
    8.1944  -15.1812   22.1580 C   0  0  1  0  0  0  0  0  0  0  0  0
    7.8010  -14.4715   20.8969 C   0  0  0  0  0  0  0  0  0  0  0  0
    8.5383  -14.8277   19.6624 C   0  0  0  0  0  0  0  0  0  0  0  0
    7.9638  -13.9281   18.5513 C   0  0  0  0  0  0  0  0  0  0  0  0
    8.6748  -14.1879   17.2460 C   0  0  0  0  0  0  0  0  0  0  0  0
    8.1910  -13.2034   16.2969 N   0  0  0  0  0  0  0  0  0  0  0  0
    9.5697  -14.8991   22.6135 C   0  0  0  0  0  0  0  0  0  0  0  0
    9.7899  -14.1160   23.5887 O   0  0  0  0  0  0  0  0  0  0  0  0
   11.5536  -18.6431   25.5648 N   0  0  0  0  0  0  0  0  0  0  0  0
   11.9958  -18.0864   24.3269 C   0  0  0  0  0  0  0  0  0  0  0  0
   13.1937  -18.2359   23.9991 O   0  0  0  0  0  0  0  0  0  0  0  0
   11.0488  -17.3607   23.4770 C   0  0  0  0  0  0  0  0  0  0  0  0
   11.6948  -16.1764   22.8163 C   0  0  2  0  0  0  0  0  0  0  0  0
   10.7165  -15.4693   22.0145 N   0  0  0  0  0  0  0  0  0  0  0  0
   12.8024  -16.7016   21.9659 C   0  0  0  0  0  0  0  0  0  0  0  0
   14.0878  -16.2434   22.1147 O   0  0  0  0  0  0  0  0  0  0  0  0
   12.5276  -17.5768   21.1073 O   0  0  0  0  0  0  0  0  0  0  0  0
  1  2  1  0
  3  5  1  0
  3  2  1  0
  3  4  1  6
  5  6  1  1
  7  9  1  0
  7  5  1  0
  8  7  2  0
 10  9  1  0
 11 12  1  0
 10 11  1  6
 12 13  1  0
 13 14  1  0
 14 15  1  0
 16 23  1  0
 16 10  1  0
 17 16  2  0
 18 19  1  0
 19 20  2  0
 19 21  1  0
 22 21  1  6
 22 23  1  0
 22 24  1  0
 24 25  1  0
 26 24  2  0
M  END
$$$$
