IKN.pdb
     RDKit          3D

 26 25  0  0  1  0  0  0  0  0999 V2000
    6.7906  -11.9334   27.9561 C   0  0  0  0  0  0  0  0  0  0  0  0
    6.0970  -13.0279   27.1819 C   0  0  0  0  0  0  0  0  0  0  0  0
    7.1153  -13.6548   26.2384 C   0  0  2  0  0  0  0  0  0  0  0  0
    7.6649  -12.5776   25.3583 C   0  0  0  0  0  0  0  0  0  0  0  0
    6.3684  -14.6701   25.4060 C   0  0  2  0  0  0  0  0  0  0  0  0
    6.0680  -15.7930   26.2629 N   0  0  0  0  0  0  0  0  0  0  0  0
    7.1505  -15.0666   24.2096 C   0  0  0  0  0  0  0  0  0  0  0  0
    7.6449  -16.2298   24.2239 O   0  0  0  0  0  0  0  0  0  0  0  0
    7.3618  -14.2407   23.0981 N   0  0  0  0  0  0  0  0  0  0  0  0
    8.0549  -14.7560   21.9100 C   0  0  1  0  0  0  0  0  0  0  0  0
    7.9129  -13.6715   20.8840 C   0  0  0  0  0  0  0  0  0  0  0  0
    8.7799  -13.7563   19.6859 C   0  0  0  0  0  0  0  0  0  0  0  0
    7.8774  -14.2637   18.5449 C   0  0  0  0  0  0  0  0  0  0  0  0
    8.6598  -14.3540   17.2578 C   0  0  0  0  0  0  0  0  0  0  0  0
    7.7295  -14.7677   16.2247 N   0  0  0  0  0  0  0  0  0  0  0  0
    9.4460  -15.0284   22.3215 C   0  0  0  0  0  0  0  0  0  0  0  0
   10.0973  -14.1947   23.0240 O   0  0  0  0  0  0  0  0  0  0  0  0
   10.2337  -19.1774   24.1050 N   0  0  0  0  0  0  0  0  0  0  0  0
   11.3135  -18.2532   23.9721 C   0  0  0  0  0  0  0  0  0  0  0  0
   11.8430  -17.8002   25.0111 O   0  0  0  0  0  0  0  0  0  0  0  0
   11.7731  -17.8595   22.6382 C   0  0  0  0  0  0  0  0  0  0  0  0
   11.5188  -16.4029   22.3738 C   0  0  2  0  0  0  0  0  0  0  0  0
   10.1387  -16.2114   21.9755 N   0  0  0  0  0  0  0  0  0  0  0  0
   12.4507  -15.9879   21.2851 C   0  0  0  0  0  0  0  0  0  0  0  0
   13.8086  -15.9656   21.4854 O   0  0  0  0  0  0  0  0  0  0  0  0
   11.9593  -15.6582   20.1767 O   0  0  0  0  0  0  0  0  0  0  0  0
  1  2  1  0
  3  5  1  0
  3  2  1  0
  3  4  1  6
  5  6  1  1
  7  9  1  0
  7  5  1  0
  8  7  2  0
 10  9  1  0
 11 12  1  0
 10 11  1  6
 12 13  1  0
 13 14  1  0
 14 15  1  0
 16 23  1  0
 16 10  1  0
 17 16  2  0
 18 19  1  0
 19 20  2  0
 19 21  1  0
 22 21  1  6
 22 23  1  0
 22 24  1  0
 24 25  1  0
 26 24  2  0
M  END
$$$$
