IKN.pdb
     RDKit          3D

 26 25  0  0  1  0  0  0  0  0999 V2000
    7.3729  -11.6704   19.7703 C   0  0  0  0  0  0  0  0  0  0  0  0
    7.4109  -13.0923   19.2651 C   0  0  0  0  0  0  0  0  0  0  0  0
    7.9770  -13.9704   20.3736 C   0  0  2  0  0  0  0  0  0  0  0  0
    9.3811  -13.5338   20.6472 C   0  0  0  0  0  0  0  0  0  0  0  0
    7.9700  -15.3876   19.8511 C   0  0  2  0  0  0  0  0  0  0  0  0
    6.5945  -15.7466   19.5970 N   0  0  0  0  0  0  0  0  0  0  0  0
    8.6291  -16.3160   20.8017 C   0  0  0  0  0  0  0  0  0  0  0  0
    7.9471  -16.6662   21.8066 O   0  0  0  0  0  0  0  0  0  0  0  0
    9.9310  -16.8091   20.6457 N   0  0  0  0  0  0  0  0  0  0  0  0
   10.4974  -17.7380   21.6326 C   0  0  1  0  0  0  0  0  0  0  0  0
   10.9240  -18.9325   20.8325 C   0  0  0  0  0  0  0  0  0  0  0  0
   11.4856  -20.0815   21.5800 C   0  0  0  0  0  0  0  0  0  0  0  0
   10.3040  -21.0349   21.8422 C   0  0  0  0  0  0  0  0  0  0  0  0
   10.7734  -22.2593   22.5886 C   0  0  0  0  0  0  0  0  0  0  0  0
    9.6067  -23.0914   22.8136 N   0  0  0  0  0  0  0  0  0  0  0  0
   11.6039  -17.0210   22.2961 C   0  0  0  0  0  0  0  0  0  0  0  0
   12.6088  -16.6114   21.6365 O   0  0  0  0  0  0  0  0  0  0  0  0
   13.2934  -20.9431   25.1713 N   0  0  0  0  0  0  0  0  0  0  0  0
   12.7141  -19.7194   25.6239 C   0  0  0  0  0  0  0  0  0  0  0  0
   12.9075  -19.3699   26.8094 O   0  0  0  0  0  0  0  0  0  0  0  0
   11.9152  -18.9088   24.7018 C   0  0  0  0  0  0  0  0  0  0  0  0
   12.4586  -17.5138   24.5798 C   0  0  2  0  0  0  0  0  0  0  0  0
   11.6247  -16.7405   23.6817 N   0  0  0  0  0  0  0  0  0  0  0  0
   13.8480  -17.6316   24.0490 C   0  0  0  0  0  0  0  0  0  0  0  0
   14.1377  -17.3120   22.7458 O   0  0  0  0  0  0  0  0  0  0  0  0
   14.7489  -18.0322   24.8279 O   0  0  0  0  0  0  0  0  0  0  0  0
  1  2  1  0
  3  5  1  0
  3  2  1  0
  3  4  1  6
  5  6  1  1
  7  9  1  0
  7  5  1  0
  8  7  2  0
 10  9  1  0
 11 12  1  0
 10 11  1  6
 12 13  1  0
 13 14  1  0
 14 15  1  0
 16 23  1  0
 16 10  1  0
 17 16  2  0
 18 19  1  0
 19 20  2  0
 19 21  1  0
 22 21  1  6
 22 23  1  0
 22 24  1  0
 24 25  1  0
 26 24  2  0
M  END
$$$$
