IKN.pdb
     RDKit          3D

 26 25  0  0  1  0  0  0  0  0999 V2000
    6.7979  -11.7170   27.9233 C   0  0  0  0  0  0  0  0  0  0  0  0
    5.9982  -12.7069   27.1117 C   0  0  0  0  0  0  0  0  0  0  0  0
    6.9612  -13.4516   26.1962 C   0  0  2  0  0  0  0  0  0  0  0  0
    7.6259  -12.4534   25.3025 C   0  0  0  0  0  0  0  0  0  0  0  0
    6.1280  -14.4060   25.3737 C   0  0  2  0  0  0  0  0  0  0  0  0
    5.5413  -15.3610   26.2844 N   0  0  0  0  0  0  0  0  0  0  0  0
    6.9402  -15.0586   24.3180 C   0  0  0  0  0  0  0  0  0  0  0  0
    7.3165  -16.2423   24.5521 O   0  0  0  0  0  0  0  0  0  0  0  0
    7.3000  -14.4464   23.1105 N   0  0  0  0  0  0  0  0  0  0  0  0
    7.9753  -15.2174   22.0583 C   0  0  1  0  0  0  0  0  0  0  0  0
    7.8449  -14.3757   20.8240 C   0  0  0  0  0  0  0  0  0  0  0  0
    8.5487  -14.8451   19.6080 C   0  0  0  0  0  0  0  0  0  0  0  0
    8.2196  -13.8202   18.5057 C   0  0  0  0  0  0  0  0  0  0  0  0
    8.8783  -14.2165   17.2073 C   0  0  0  0  0  0  0  0  0  0  0  0
    8.7034  -13.1081   16.2880 N   0  0  0  0  0  0  0  0  0  0  0  0
    9.3643  -15.4213   22.5140 C   0  0  0  0  0  0  0  0  0  0  0  0
   10.0201  -14.4807   23.0600 O   0  0  0  0  0  0  0  0  0  0  0  0
   10.5948  -17.0929   25.4415 N   0  0  0  0  0  0  0  0  0  0  0  0
   10.9681  -18.2661   24.7191 C   0  0  0  0  0  0  0  0  0  0  0  0
   10.7074  -19.3831   25.2185 O   0  0  0  0  0  0  0  0  0  0  0  0
   11.6404  -18.1389   23.4239 C   0  0  0  0  0  0  0  0  0  0  0  0
   11.4254  -16.7800   22.8210 C   0  0  2  0  0  0  0  0  0  0  0  0
   10.0501  -16.6507   22.3832 N   0  0  0  0  0  0  0  0  0  0  0  0
   12.3656  -16.6601   21.6689 C   0  0  0  0  0  0  0  0  0  0  0  0
   13.6856  -16.3367   21.8625 O   0  0  0  0  0  0  0  0  0  0  0  0
   11.9169  -16.8635   20.5130 O   0  0  0  0  0  0  0  0  0  0  0  0
  1  2  1  0
  3  5  1  0
  3  2  1  0
  3  4  1  6
  5  6  1  1
  7  9  1  0
  7  5  1  0
  8  7  2  0
 10  9  1  0
 11 12  1  0
 10 11  1  6
 12 13  1  0
 13 14  1  0
 14 15  1  0
 16 23  1  0
 16 10  1  0
 17 16  2  0
 18 19  1  0
 19 20  2  0
 19 21  1  0
 22 21  1  6
 22 23  1  0
 22 24  1  0
 24 25  1  0
 26 24  2  0
M  END
$$$$
