IKN.pdb
     RDKit          3D

 26 25  0  0  1  0  0  0  0  0999 V2000
    7.8308  -11.8003   20.5937 C   0  0  0  0  0  0  0  0  0  0  0  0
    7.6797  -13.0713   19.7935 C   0  0  0  0  0  0  0  0  0  0  0  0
    8.2862  -14.2110   20.6018 C   0  0  2  0  0  0  0  0  0  0  0  0
    9.7346  -13.9106   20.8229 C   0  0  0  0  0  0  0  0  0  0  0  0
    8.1403  -15.4611   19.7667 C   0  0  2  0  0  0  0  0  0  0  0  0
    6.7358  -15.6205   19.4710 N   0  0  0  0  0  0  0  0  0  0  0  0
    8.7084  -16.6425   20.4608 C   0  0  0  0  0  0  0  0  0  0  0  0
    7.9286  -17.2649   21.2368 O   0  0  0  0  0  0  0  0  0  0  0  0
   10.0267  -17.0892   20.3035 N   0  0  0  0  0  0  0  0  0  0  0  0
   10.4626  -18.3504   20.9175 C   0  0  1  0  0  0  0  0  0  0  0  0
   11.4251  -18.9429   19.9318 C   0  0  0  0  0  0  0  0  0  0  0  0
   11.0035  -18.9778   18.5122 C   0  0  0  0  0  0  0  0  0  0  0  0
    9.9410  -20.0892   18.4129 C   0  0  0  0  0  0  0  0  0  0  0  0
    9.5114  -20.2777   16.9788 C   0  0  0  0  0  0  0  0  0  0  0  0
    8.5177  -21.3343   16.9697 N   0  0  0  0  0  0  0  0  0  0  0  0
   11.0620  -17.9977   22.2193 C   0  0  0  0  0  0  0  0  0  0  0  0
   11.6545  -18.8704   22.9265 O   0  0  0  0  0  0  0  0  0  0  0  0
    9.3279  -14.6094   23.9846 N   0  0  0  0  0  0  0  0  0  0  0  0
    9.2175  -15.8631   24.6584 C   0  0  0  0  0  0  0  0  0  0  0  0
    8.0763  -16.3351   24.8583 O   0  0  0  0  0  0  0  0  0  0  0  0
   10.4281  -16.5619   25.0963 C   0  0  0  0  0  0  0  0  0  0  0  0
   11.5365  -16.4294   24.0912 C   0  0  2  0  0  0  0  0  0  0  0  0
   11.0250  -16.6923   22.7610 N   0  0  0  0  0  0  0  0  0  0  0  0
   12.5855  -17.4222   24.4652 C   0  0  0  0  0  0  0  0  0  0  0  0
   12.3077  -18.7660   24.5026 O   0  0  0  0  0  0  0  0  0  0  0  0
   13.7335  -16.9954   24.7458 O   0  0  0  0  0  0  0  0  0  0  0  0
  1  2  1  0
  3  5  1  0
  3  2  1  0
  3  4  1  6
  5  6  1  1
  7  9  1  0
  7  5  1  0
  8  7  2  0
 10  9  1  0
 11 12  1  0
 10 11  1  6
 12 13  1  0
 13 14  1  0
 14 15  1  0
 16 23  1  0
 16 10  1  0
 17 16  2  0
 18 19  1  0
 19 20  2  0
 19 21  1  0
 22 21  1  1
 22 23  1  0
 22 24  1  0
 24 25  1  0
 26 24  2  0
M  END
$$$$
