IKN.pdb
     RDKit          3D

 26 25  0  0  1  0  0  0  0  0999 V2000
    7.6380  -11.7905   19.3186 C   0  0  0  0  0  0  0  0  0  0  0  0
    7.1199  -13.1680   19.6539 C   0  0  0  0  0  0  0  0  0  0  0  0
    8.1028  -13.8184   20.6188 C   0  0  2  0  0  0  0  0  0  0  0  0
    9.4293  -13.9254   19.9362 C   0  0  0  0  0  0  0  0  0  0  0  0
    7.5658  -15.1973   20.9218 C   0  0  2  0  0  0  0  0  0  0  0  0
    6.2264  -15.0348   21.4365 N   0  0  0  0  0  0  0  0  0  0  0  0
    8.4489  -15.9243   21.8661 C   0  0  0  0  0  0  0  0  0  0  0  0
    8.5346  -15.4469   23.0333 O   0  0  0  0  0  0  0  0  0  0  0  0
    9.1709  -17.0791   21.5383 N   0  0  0  0  0  0  0  0  0  0  0  0
   10.0131  -17.7399   22.5441 C   0  0  1  0  0  0  0  0  0  0  0  0
    9.7636  -19.2057   22.3483 C   0  0  0  0  0  0  0  0  0  0  0  0
   10.6121  -20.1447   23.1181 C   0  0  0  0  0  0  0  0  0  0  0  0
   10.1041  -21.5571   22.7705 C   0  0  0  0  0  0  0  0  0  0  0  0
   10.9403  -22.6018   23.4678 C   0  0  0  0  0  0  0  0  0  0  0  0
   10.4919  -23.8943   22.9858 N   0  0  0  0  0  0  0  0  0  0  0  0
   11.4006  -17.3155   22.2733 C   0  0  0  0  0  0  0  0  0  0  0  0
   11.7956  -17.0816   21.0892 O   0  0  0  0  0  0  0  0  0  0  0  0
   15.9737  -14.5818   22.3545 N   0  0  0  0  0  0  0  0  0  0  0  0
   15.5725  -15.2699   23.5392 C   0  0  0  0  0  0  0  0  0  0  0  0
   16.4506  -15.5872   24.3718 O   0  0  0  0  0  0  0  0  0  0  0  0
   14.1581  -15.5861   23.7522 C   0  0  0  0  0  0  0  0  0  0  0  0
   13.7340  -16.7858   22.9540 C   0  0  2  0  0  0  0  0  0  0  0  0
   12.3687  -17.1383   23.2884 N   0  0  0  0  0  0  0  0  0  0  0  0
   14.6711  -17.8938   23.3003 C   0  0  0  0  0  0  0  0  0  0  0  0
   14.5769  -18.5517   24.5014 O   0  0  0  0  0  0  0  0  0  0  0  0
   15.5516  -18.2104   22.4617 O   0  0  0  0  0  0  0  0  0  0  0  0
  1  2  1  0
  3  5  1  0
  3  2  1  0
  3  4  1  6
  5  6  1  1
  7  9  1  0
  7  5  1  0
  8  7  2  0
 10  9  1  0
 11 12  1  0
 10 11  1  6
 12 13  1  0
 13 14  1  0
 14 15  1  0
 16 23  1  0
 16 10  1  0
 17 16  2  0
 18 19  1  0
 19 20  2  0
 19 21  1  0
 22 21  1  1
 22 23  1  0
 22 24  1  0
 24 25  1  0
 26 24  2  0
M  END
$$$$
