IKN.pdb
     RDKit          3D

 26 25  0  0  1  0  0  0  0  0999 V2000
    7.1621  -11.8137   27.9451 C   0  0  0  0  0  0  0  0  0  0  0  0
    6.3179  -12.8513   27.2459 C   0  0  0  0  0  0  0  0  0  0  0  0
    7.2100  -13.6001   26.2644 C   0  0  2  0  0  0  0  0  0  0  0  0
    7.8148  -12.6046   25.3262 C   0  0  0  0  0  0  0  0  0  0  0  0
    6.3161  -14.5499   25.5026 C   0  0  2  0  0  0  0  0  0  0  0  0
    5.8100  -15.5173   26.4479 N   0  0  0  0  0  0  0  0  0  0  0  0
    7.0415  -15.1872   24.3767 C   0  0  0  0  0  0  0  0  0  0  0  0
    7.4031  -16.3858   24.5502 O   0  0  0  0  0  0  0  0  0  0  0  0
    7.3368  -14.5457   23.1669 N   0  0  0  0  0  0  0  0  0  0  0  0
    7.9780  -15.2842   22.0710 C   0  0  1  0  0  0  0  0  0  0  0  0
    7.8973  -14.3629   20.8904 C   0  0  0  0  0  0  0  0  0  0  0  0
    8.4359  -14.8630   19.6043 C   0  0  0  0  0  0  0  0  0  0  0  0
    7.9877  -13.8491   18.5343 C   0  0  0  0  0  0  0  0  0  0  0  0
    8.3898  -14.3246   17.1599 C   0  0  0  0  0  0  0  0  0  0  0  0
    7.9570  -13.3106   16.2174 N   0  0  0  0  0  0  0  0  0  0  0  0
    9.3523  -15.5861   22.5167 C   0  0  0  0  0  0  0  0  0  0  0  0
   10.0047  -14.7651   23.2330 O   0  0  0  0  0  0  0  0  0  0  0  0
   13.4302  -17.3673   20.2786 N   0  0  0  0  0  0  0  0  0  0  0  0
   12.5750  -16.2783   20.6256 C   0  0  0  0  0  0  0  0  0  0  0  0
   12.0778  -15.5927   19.7049 O   0  0  0  0  0  0  0  0  0  0  0  0
   12.3009  -15.9901   22.0354 C   0  0  0  0  0  0  0  0  0  0  0  0
   11.3848  -17.0151   22.6409 C   0  0  2  0  0  0  0  0  0  0  0  0
   10.0269  -16.7850   22.1902 N   0  0  0  0  0  0  0  0  0  0  0  0
   11.4869  -16.8707   24.1223 C   0  0  0  0  0  0  0  0  0  0  0  0
   12.3587  -15.9738   24.6880 O   0  0  0  0  0  0  0  0  0  0  0  0
   10.7522  -17.5933   24.8412 O   0  0  0  0  0  0  0  0  0  0  0  0
  1  2  1  0
  3  5  1  0
  3  2  1  0
  3  4  1  6
  5  6  1  1
  7  9  1  0
  7  5  1  0
  8  7  2  0
 10  9  1  0
 11 12  1  0
 10 11  1  6
 12 13  1  0
 13 14  1  0
 14 15  1  0
 16 23  1  0
 16 10  1  0
 17 16  2  0
 18 19  1  0
 19 20  2  0
 19 21  1  0
 22 21  1  6
 22 23  1  0
 22 24  1  0
 24 25  1  0
 26 24  2  0
M  END
$$$$
