IKN.pdb
     RDKit          3D

 26 25  0  0  1  0  0  0  0  0999 V2000
    8.1149  -11.5293   20.0675 C   0  0  0  0  0  0  0  0  0  0  0  0
    7.6617  -12.9115   19.6647 C   0  0  0  0  0  0  0  0  0  0  0  0
    7.3688  -13.6994   20.9350 C   0  0  2  0  0  0  0  0  0  0  0  0
    8.6365  -13.8111   21.7208 C   0  0  0  0  0  0  0  0  0  0  0  0
    6.9095  -15.0707   20.4992 C   0  0  2  0  0  0  0  0  0  0  0  0
    5.7793  -14.8873   19.6191 N   0  0  0  0  0  0  0  0  0  0  0  0
    6.5830  -15.9261   21.6661 C   0  0  0  0  0  0  0  0  0  0  0  0
    5.5794  -15.5792   22.3516 O   0  0  0  0  0  0  0  0  0  0  0  0
    7.3100  -17.0653   22.0350 N   0  0  0  0  0  0  0  0  0  0  0  0
    6.9715  -17.7981   23.2622 C   0  0  1  0  0  0  0  0  0  0  0  0
    6.0352  -18.8809   22.8150 C   0  0  0  0  0  0  0  0  0  0  0  0
    4.6788  -18.4676   22.3866 C   0  0  0  0  0  0  0  0  0  0  0  0
    3.9914  -19.7443   21.8660 C   0  0  0  0  0  0  0  0  0  0  0  0
    2.6181  -19.4201   21.3316 C   0  0  0  0  0  0  0  0  0  0  0  0
    2.0442  -20.6643   20.8555 N   0  0  0  0  0  0  0  0  0  0  0  0
    8.2461  -18.2869   23.8236 C   0  0  0  0  0  0  0  0  0  0  0  0
    9.3025  -18.3213   23.1195 O   0  0  0  0  0  0  0  0  0  0  0  0
   12.1647  -18.4260   25.0408 N   0  0  0  0  0  0  0  0  0  0  0  0
   11.5031  -17.1621   25.0910 C   0  0  0  0  0  0  0  0  0  0  0  0
   12.1423  -16.1399   24.7572 O   0  0  0  0  0  0  0  0  0  0  0  0
   10.1066  -17.0896   25.5270 C   0  0  0  0  0  0  0  0  0  0  0  0
    9.5792  -18.4406   25.9183 C   0  0  2  0  0  0  0  0  0  0  0  0
    8.3831  -18.7386   25.1563 N   0  0  0  0  0  0  0  0  0  0  0  0
    9.2812  -18.3862   27.3792 C   0  0  0  0  0  0  0  0  0  0  0  0
    8.2850  -17.5790   27.8692 O   0  0  0  0  0  0  0  0  0  0  0  0
    9.9678  -19.1006   28.1519 O   0  0  0  0  0  0  0  0  0  0  0  0
  1  2  1  0
  3  5  1  0
  3  2  1  0
  3  4  1  1
  5  6  1  6
  7  9  1  0
  7  5  1  0
  8  7  2  0
 10  9  1  0
 11 12  1  0
 10 11  1  6
 12 13  1  0
 13 14  1  0
 14 15  1  0
 16 23  1  0
 16 10  1  0
 17 16  2  0
 18 19  1  0
 19 20  2  0
 19 21  1  0
 22 21  1  6
 22 23  1  0
 22 24  1  0
 24 25  1  0
 26 24  2  0
M  END
$$$$
