IKN.pdb
     RDKit          3D

 26 25  0  0  1  0  0  0  0  0999 V2000
    6.5358  -11.7871   27.2381 C   0  0  0  0  0  0  0  0  0  0  0  0
    6.1141  -12.9740   26.4064 C   0  0  0  0  0  0  0  0  0  0  0  0
    7.3708  -13.7278   25.9911 C   0  0  2  0  0  0  0  0  0  0  0  0
    8.2303  -12.8021   25.1902 C   0  0  0  0  0  0  0  0  0  0  0  0
    6.9189  -14.8850   25.1319 C   0  0  2  0  0  0  0  0  0  0  0  0
    6.0122  -15.6821   25.9243 N   0  0  0  0  0  0  0  0  0  0  0  0
    8.0745  -15.6712   24.6352 C   0  0  0  0  0  0  0  0  0  0  0  0
    8.3324  -16.7414   25.2563 O   0  0  0  0  0  0  0  0  0  0  0  0
    8.8703  -15.2976   23.5446 N   0  0  0  0  0  0  0  0  0  0  0  0
    9.5621  -16.3173   22.7451 C   0  0  1  0  0  0  0  0  0  0  0  0
    9.4574  -15.8302   21.3306 C   0  0  0  0  0  0  0  0  0  0  0  0
   10.1513  -16.6229   20.2893 C   0  0  0  0  0  0  0  0  0  0  0  0
    9.3990  -17.9650   20.2069 C   0  0  0  0  0  0  0  0  0  0  0  0
    9.9238  -18.7909   19.0584 C   0  0  0  0  0  0  0  0  0  0  0  0
    9.1072  -19.9878   18.9895 N   0  0  0  0  0  0  0  0  0  0  0  0
   10.9417  -16.3922   23.2643 C   0  0  0  0  0  0  0  0  0  0  0  0
   11.8188  -17.1122   22.6941 O   0  0  0  0  0  0  0  0  0  0  0  0
   12.4669  -17.4215   28.2483 N   0  0  0  0  0  0  0  0  0  0  0  0
   11.8468  -18.1239   27.1713 C   0  0  0  0  0  0  0  0  0  0  0  0
   11.9030  -19.3736   27.1625 O   0  0  0  0  0  0  0  0  0  0  0  0
   11.1659  -17.3755   26.1121 C   0  0  0  0  0  0  0  0  0  0  0  0
   12.0766  -16.3633   25.4778 C   0  0  2  0  0  0  0  0  0  0  0  0
   11.3796  -15.6818   24.4055 N   0  0  0  0  0  0  0  0  0  0  0  0
   13.2601  -17.1073   24.9566 C   0  0  0  0  0  0  0  0  0  0  0  0
   13.4805  -17.2318   23.6074 O   0  0  0  0  0  0  0  0  0  0  0  0
   14.0525  -17.6187   25.7869 O   0  0  0  0  0  0  0  0  0  0  0  0
  1  2  1  0
  3  5  1  0
  3  2  1  0
  3  4  1  6
  5  6  1  1
  7  9  1  0
  7  5  1  0
  8  7  2  0
 10  9  1  0
 11 12  1  0
 10 11  1  6
 12 13  1  0
 13 14  1  0
 14 15  1  0
 16 23  1  0
 16 10  1  0
 17 16  2  0
 18 19  1  0
 19 20  2  0
 19 21  1  0
 22 21  1  6
 22 23  1  0
 22 24  1  0
 24 25  1  0
 26 24  2  0
M  END
$$$$
