IKN.pdb
     RDKit          3D

 26 25  0  0  1  0  0  0  0  0999 V2000
    8.0515  -12.3975   19.3383 C   0  0  0  0  0  0  0  0  0  0  0  0
    7.6345  -13.8412   19.4795 C   0  0  0  0  0  0  0  0  0  0  0  0
    7.4597  -14.1375   20.9633 C   0  0  2  0  0  0  0  0  0  0  0  0
    8.7828  -13.9572   21.6370 C   0  0  0  0  0  0  0  0  0  0  0  0
    7.0189  -15.5784   21.0694 C   0  0  2  0  0  0  0  0  0  0  0  0
    5.7865  -15.7080   20.3279 N   0  0  0  0  0  0  0  0  0  0  0  0
    6.8718  -15.9944   22.4855 C   0  0  0  0  0  0  0  0  0  0  0  0
    6.0157  -15.3635   23.1686 O   0  0  0  0  0  0  0  0  0  0  0  0
    7.6125  -17.0210   23.0854 N   0  0  0  0  0  0  0  0  0  0  0  0
    7.3785  -17.3839   24.4893 C   0  0  1  0  0  0  0  0  0  0  0  0
    7.2895  -18.8810   24.4875 C   0  0  0  0  0  0  0  0  0  0  0  0
    7.1882  -19.5539   25.8032 C   0  0  0  0  0  0  0  0  0  0  0  0
    7.2214  -21.0660   25.5096 C   0  0  0  0  0  0  0  0  0  0  0  0
    6.9236  -21.8506   26.7635 C   0  0  0  0  0  0  0  0  0  0  0  0
    7.1110  -23.2523   26.4406 N   0  0  0  0  0  0  0  0  0  0  0  0
    8.5158  -16.8411   25.2577 C   0  0  0  0  0  0  0  0  0  0  0  0
    9.6558  -16.6855   24.7202 O   0  0  0  0  0  0  0  0  0  0  0  0
   10.8491  -13.0724   28.6671 N   0  0  0  0  0  0  0  0  0  0  0  0
   10.1869  -14.2771   29.0517 C   0  0  0  0  0  0  0  0  0  0  0  0
   10.5676  -14.8625   30.0897 O   0  0  0  0  0  0  0  0  0  0  0  0
    9.0889  -14.7962   28.2328 C   0  0  0  0  0  0  0  0  0  0  0  0
    9.5580  -15.8761   27.3001 C   0  0  2  0  0  0  0  0  0  0  0  0
    8.4216  -16.4596   26.6159 N   0  0  0  0  0  0  0  0  0  0  0  0
   10.2610  -16.8959   28.1318 C   0  0  0  0  0  0  0  0  0  0  0  0
   11.5791  -16.7382   28.4813 O   0  0  0  0  0  0  0  0  0  0  0  0
    9.6137  -17.9060   28.5052 O   0  0  0  0  0  0  0  0  0  0  0  0
  1  2  1  0
  3  5  1  0
  3  2  1  0
  3  4  1  1
  5  6  1  6
  7  9  1  0
  7  5  1  0
  8  7  2  0
 10  9  1  0
 11 12  1  0
 10 11  1  6
 12 13  1  0
 13 14  1  0
 14 15  1  0
 16 23  1  0
 16 10  1  0
 17 16  2  0
 18 19  1  0
 19 20  2  0
 19 21  1  0
 22 21  1  1
 22 23  1  0
 22 24  1  0
 24 25  1  0
 26 24  2  0
M  END
$$$$
