IKN.pdb
     RDKit          3D

 26 25  0  0  1  0  0  0  0  0999 V2000
    7.9872  -11.8850   21.3944 C   0  0  0  0  0  0  0  0  0  0  0  0
    7.2944  -13.2246   21.4545 C   0  0  0  0  0  0  0  0  0  0  0  0
    8.1844  -14.2462   20.7584 C   0  0  2  0  0  0  0  0  0  0  0  0
    8.3365  -13.8385   19.3274 C   0  0  0  0  0  0  0  0  0  0  0  0
    7.4697  -15.5741   20.8433 C   0  0  2  0  0  0  0  0  0  0  0  0
    6.2182  -15.4361   20.1361 N   0  0  0  0  0  0  0  0  0  0  0  0
    7.2779  -15.9941   22.2529 C   0  0  0  0  0  0  0  0  0  0  0  0
    6.1660  -15.7020   22.7781 O   0  0  0  0  0  0  0  0  0  0  0  0
    8.2393  -16.6780   23.0082 N   0  0  0  0  0  0  0  0  0  0  0  0
    7.9221  -17.1516   24.3620 C   0  0  1  0  0  0  0  0  0  0  0  0
    8.1291  -18.6359   24.3061 C   0  0  0  0  0  0  0  0  0  0  0  0
    7.2339  -19.4104   23.4156 C   0  0  0  0  0  0  0  0  0  0  0  0
    6.7515  -20.6163   24.2445 C   0  0  0  0  0  0  0  0  0  0  0  0
    5.7894  -21.4549   23.4397 C   0  0  0  0  0  0  0  0  0  0  0  0
    5.2672  -22.4732   24.3309 N   0  0  0  0  0  0  0  0  0  0  0  0
    8.8354  -16.4421   25.2790 C   0  0  0  0  0  0  0  0  0  0  0  0
   10.0565  -16.2628   24.9797 O   0  0  0  0  0  0  0  0  0  0  0  0
    6.8243  -12.5986   27.1428 N   0  0  0  0  0  0  0  0  0  0  0  0
    8.1764  -13.0534   27.0882 C   0  0  0  0  0  0  0  0  0  0  0  0
    8.9317  -12.5769   26.2121 O   0  0  0  0  0  0  0  0  0  0  0  0
    8.6451  -14.0562   28.0475 C   0  0  0  0  0  0  0  0  0  0  0  0
    9.3588  -15.1859   27.3615 C   0  0  2  0  0  0  0  0  0  0  0  0
    8.4274  -15.9185   26.5273 N   0  0  0  0  0  0  0  0  0  0  0  0
    9.9194  -16.0616   28.4314 C   0  0  0  0  0  0  0  0  0  0  0  0
    9.7575  -17.4241   28.3886 O   0  0  0  0  0  0  0  0  0  0  0  0
   10.5455  -15.5183   29.3756 O   0  0  0  0  0  0  0  0  0  0  0  0
  1  2  1  0
  3  5  1  0
  3  2  1  0
  3  4  1  6
  5  6  1  1
  7  9  1  0
  7  5  1  0
  8  7  2  0
 10  9  1  0
 11 12  1  0
 10 11  1  6
 12 13  1  0
 13 14  1  0
 14 15  1  0
 16 23  1  0
 16 10  1  0
 17 16  2  0
 18 19  1  0
 19 20  2  0
 19 21  1  0
 22 21  1  1
 22 23  1  0
 22 24  1  0
 24 25  1  0
 26 24  2  0
M  END
$$$$
