IKN.pdb
     RDKit          3D

 26 25  0  0  1  0  0  0  0  0999 V2000
    6.0080  -11.6349   27.6758 C   0  0  0  0  0  0  0  0  0  0  0  0
    5.5888  -12.9662   27.1012 C   0  0  0  0  0  0  0  0  0  0  0  0
    6.7437  -13.5026   26.2655 C   0  0  2  0  0  0  0  0  0  0  0  0
    7.1810  -12.4263   25.3235 C   0  0  0  0  0  0  0  0  0  0  0  0
    6.2066  -14.6813   25.4884 C   0  0  2  0  0  0  0  0  0  0  0  0
    5.8936  -15.7197   26.4419 N   0  0  0  0  0  0  0  0  0  0  0  0
    7.1733  -15.1337   24.4584 C   0  0  0  0  0  0  0  0  0  0  0  0
    7.9530  -16.0699   24.7948 O   0  0  0  0  0  0  0  0  0  0  0  0
    7.2622  -14.5911   23.1700 N   0  0  0  0  0  0  0  0  0  0  0  0
    8.1327  -15.2095   22.1613 C   0  0  1  0  0  0  0  0  0  0  0  0
    7.8480  -14.4557   20.8965 C   0  0  0  0  0  0  0  0  0  0  0  0
    8.5926  -14.8650   19.6832 C   0  0  0  0  0  0  0  0  0  0  0  0
    8.0470  -13.9923   18.5366 C   0  0  0  0  0  0  0  0  0  0  0  0
    8.6474  -14.4203   17.2202 C   0  0  0  0  0  0  0  0  0  0  0  0
    8.0298  -13.6083   16.1890 N   0  0  0  0  0  0  0  0  0  0  0  0
    9.5155  -15.0683   22.6578 C   0  0  0  0  0  0  0  0  0  0  0  0
    9.7644  -14.4485   23.7379 O   0  0  0  0  0  0  0  0  0  0  0  0
   12.7876  -19.3272   23.7848 N   0  0  0  0  0  0  0  0  0  0  0  0
   12.3395  -18.0429   24.2180 C   0  0  0  0  0  0  0  0  0  0  0  0
   12.9000  -17.5166   25.2049 O   0  0  0  0  0  0  0  0  0  0  0  0
   11.2462  -17.3765   23.5065 C   0  0  0  0  0  0  0  0  0  0  0  0
   11.7360  -16.1877   22.7299 C   0  0  2  0  0  0  0  0  0  0  0  0
   10.6384  -15.6033   21.9857 N   0  0  0  0  0  0  0  0  0  0  0  0
   12.8036  -16.6772   21.8099 C   0  0  0  0  0  0  0  0  0  0  0  0
   12.6049  -16.7172   20.4522 O   0  0  0  0  0  0  0  0  0  0  0  0
   13.8927  -17.0530   22.3113 O   0  0  0  0  0  0  0  0  0  0  0  0
  1  2  1  0
  3  5  1  0
  3  2  1  0
  3  4  1  6
  5  6  1  1
  7  9  1  0
  7  5  1  0
  8  7  2  0
 10  9  1  0
 11 12  1  0
 10 11  1  6
 12 13  1  0
 13 14  1  0
 14 15  1  0
 16 23  1  0
 16 10  1  0
 17 16  2  0
 18 19  1  0
 19 20  2  0
 19 21  1  0
 22 21  1  6
 22 23  1  0
 22 24  1  0
 24 25  1  0
 26 24  2  0
M  END
$$$$
