IKN.pdb
     RDKit          3D

 26 25  0  0  1  0  0  0  0  0999 V2000
    6.2223  -11.7496   28.0051 C   0  0  0  0  0  0  0  0  0  0  0  0
    5.6674  -12.9266   27.2402 C   0  0  0  0  0  0  0  0  0  0  0  0
    6.7884  -13.5025   26.3847 C   0  0  2  0  0  0  0  0  0  0  0  0
    7.3108  -12.4145   25.5013 C   0  0  0  0  0  0  0  0  0  0  0  0
    6.1749  -14.5984   25.5456 C   0  0  2  0  0  0  0  0  0  0  0  0
    5.7715  -15.6546   26.4440 N   0  0  0  0  0  0  0  0  0  0  0  0
    7.1190  -15.0730   24.5047 C   0  0  0  0  0  0  0  0  0  0  0  0
    7.8785  -16.0291   24.8312 O   0  0  0  0  0  0  0  0  0  0  0  0
    7.2079  -14.5303   23.2163 N   0  0  0  0  0  0  0  0  0  0  0  0
    8.0956  -15.1351   22.2144 C   0  0  1  0  0  0  0  0  0  0  0  0
    7.7711  -14.4220   20.9357 C   0  0  0  0  0  0  0  0  0  0  0  0
    8.4963  -14.8532   19.7182 C   0  0  0  0  0  0  0  0  0  0  0  0
    7.9495  -13.9844   18.5692 C   0  0  0  0  0  0  0  0  0  0  0  0
    8.5659  -14.4018   17.2568 C   0  0  0  0  0  0  0  0  0  0  0  0
    8.1926  -13.4005   16.2760 N   0  0  0  0  0  0  0  0  0  0  0  0
    9.4751  -14.9267   22.6964 C   0  0  0  0  0  0  0  0  0  0  0  0
    9.7151  -14.1783   23.6940 O   0  0  0  0  0  0  0  0  0  0  0  0
   12.2666  -19.4776   23.9844 N   0  0  0  0  0  0  0  0  0  0  0  0
   11.7824  -18.2025   24.4059 C   0  0  0  0  0  0  0  0  0  0  0  0
   12.1563  -17.7584   25.5140 O   0  0  0  0  0  0  0  0  0  0  0  0
   10.8690  -17.4503   23.5424 C   0  0  0  0  0  0  0  0  0  0  0  0
   11.5543  -16.2768   22.9026 C   0  0  2  0  0  0  0  0  0  0  0  0
   10.6042  -15.5332   22.0998 N   0  0  0  0  0  0  0  0  0  0  0  0
   12.6555  -16.8226   22.0568 C   0  0  0  0  0  0  0  0  0  0  0  0
   12.4218  -17.2322   20.7676 O   0  0  0  0  0  0  0  0  0  0  0  0
   13.8060  -16.8980   22.5563 O   0  0  0  0  0  0  0  0  0  0  0  0
  1  2  1  0
  3  5  1  0
  3  2  1  0
  3  4  1  6
  5  6  1  1
  7  9  1  0
  7  5  1  0
  8  7  2  0
 10  9  1  0
 11 12  1  0
 10 11  1  6
 12 13  1  0
 13 14  1  0
 14 15  1  0
 16 23  1  0
 16 10  1  0
 17 16  2  0
 18 19  1  0
 19 20  2  0
 19 21  1  0
 22 21  1  6
 22 23  1  0
 22 24  1  0
 24 25  1  0
 26 24  2  0
M  END
$$$$
