PME.pdb
     RDKit          3D

 25 25  0  0  1  0  0  0  0  0999 V2000
   27.7892  -32.3389  -14.4123 N   0  0  0  0  0  0  0  0  0  0  0  0
   28.7253  -32.6385  -15.4837 C   0  0  0  0  0  0  0  0  0  0  0  0
   28.2411  -33.8571  -16.1607 C   0  0  0  0  0  0  0  0  0  0  0  0
   27.2667  -34.4855  -15.1907 C   0  0  0  0  0  0  0  0  0  0  0  0
   26.6818  -33.2167  -14.5733 C   0  0  1  0  0  0  0  0  0  0  0  0
   25.8836  -33.4794  -13.3665 C   0  0  0  0  0  0  0  0  0  0  0  0
   24.8777  -34.2499  -13.5548 O   0  0  0  0  0  0  0  0  0  0  0  0
   28.6798  -34.6835   -7.4598 C   0  0  0  0  0  0  0  0  0  0  0  0
   27.4084  -33.4296   -7.1363 S   0  0  0  0  0  0  0  0  0  0  0  0
   26.0763  -33.6445   -8.3824 C   0  0  0  0  0  0  0  0  0  0  0  0
   26.5914  -33.1195   -9.6709 C   0  0  0  0  0  0  0  0  0  0  0  0
   25.6581  -33.3706  -10.8605 C   0  0  2  0  0  0  0  0  0  0  0  0
   26.1923  -32.9360  -12.1196 N   0  0  0  0  0  0  0  0  0  0  0  0
   24.3798  -32.6860  -10.5462 C   0  0  0  0  0  0  0  0  0  0  0  0
   24.3568  -31.4082  -10.4649 O   0  0  0  0  0  0  0  0  0  0  0  0
   23.1683  -33.3903  -10.3292 N   0  0  0  0  0  0  0  0  0  0  0  0
   21.9418  -32.6720  -10.0839 C   0  0  1  0  0  0  0  0  0  0  0  0
   20.8896  -32.9835  -11.1183 C   0  0  0  0  0  0  0  0  0  0  0  0
   19.5974  -32.2652  -10.8915 C   0  0  0  0  0  0  0  0  0  0  0  0
   18.5998  -32.5627  -11.9517 C   0  0  0  0  0  0  0  0  0  0  0  0
   17.5028  -31.9323  -11.9165 O   0  0  0  0  0  0  0  0  0  0  0  0
   21.4925  -32.9238   -8.7079 C   0  0  0  0  0  0  0  0  0  0  0  0
   22.2268  -33.7055   -7.8444 O   0  0  0  0  0  0  0  0  0  0  0  0
   18.8288  -33.4886  -12.9552 O   0  0  0  0  0  0  0  0  0  0  0  0
   20.4276  -32.4279   -8.2968 O   0  0  0  0  0  0  0  0  0  0  0  0
  1  5  1  0
  2  1  1  0
  3  2  1  0
  4  3  1  0
  4  5  1  0
  5  6  1  1
  6 13  1  0
  6  7  2  0
  9  8  1  0
 10  9  1  0
 11 10  1  0
 12 14  1  0
 12 11  1  1
 13 12  1  0
 14 15  2  0
 16 17  1  0
 16 14  1  0
 18 19  1  0
 17 18  1  6
 19 20  1  0
 20 21  2  0
 20 24  1  0
 22 17  1  0
 23 22  1  0
 25 22  2  0
M  END
$$$$
