PME.pdb
     RDKit          3D

 25 25  0  0  1  0  0  0  0  0999 V2000
   23.4069  -12.4627  -19.5386 N   0  0  0  0  0  0  0  0  0  0  0  0
   23.3804  -13.7708  -20.1728 C   0  0  0  0  0  0  0  0  0  0  0  0
   22.6701  -14.6864  -19.2591 C   0  0  0  0  0  0  0  0  0  0  0  0
   22.6783  -13.9889  -17.9180 C   0  0  0  0  0  0  0  0  0  0  0  0
   22.5677  -12.5415  -18.3931 C   0  0  1  0  0  0  0  0  0  0  0  0
   22.8345  -11.5641  -17.3271 C   0  0  0  0  0  0  0  0  0  0  0  0
   21.9905  -11.5886  -16.3636 O   0  0  0  0  0  0  0  0  0  0  0  0
   28.4788  -11.1067  -17.7353 C   0  0  0  0  0  0  0  0  0  0  0  0
   28.2649  -10.6069  -16.0038 S   0  0  0  0  0  0  0  0  0  0  0  0
   26.4832  -10.7665  -15.5880 C   0  0  0  0  0  0  0  0  0  0  0  0
   25.7922   -9.5820  -16.1543 C   0  0  0  0  0  0  0  0  0  0  0  0
   24.2792   -9.7654  -16.3174 C   0  0  2  0  0  0  0  0  0  0  0  0
   23.9143  -10.6821  -17.3595 N   0  0  0  0  0  0  0  0  0  0  0  0
   23.7136   -8.4149  -16.5576 C   0  0  0  0  0  0  0  0  0  0  0  0
   23.8605   -7.8694  -17.7069 O   0  0  0  0  0  0  0  0  0  0  0  0
   23.0095   -7.6924  -15.5611 N   0  0  0  0  0  0  0  0  0  0  0  0
   22.3914   -6.4282  -15.8775 C   0  0  1  0  0  0  0  0  0  0  0  0
   20.8933   -6.4760  -15.7121 C   0  0  0  0  0  0  0  0  0  0  0  0
   20.2164   -5.1780  -16.0185 C   0  0  0  0  0  0  0  0  0  0  0  0
   18.7484   -5.2485  -15.7993 C   0  0  0  0  0  0  0  0  0  0  0  0
   18.2481   -6.3836  -15.5478 O   0  0  0  0  0  0  0  0  0  0  0  0
   23.0262   -5.3612  -15.0918 C   0  0  0  0  0  0  0  0  0  0  0  0
   23.7808   -5.6435  -13.9752 O   0  0  0  0  0  0  0  0  0  0  0  0
   17.9290   -4.1342  -15.8605 O   0  0  0  0  0  0  0  0  0  0  0  0
   22.8897   -4.1707  -15.4281 O   0  0  0  0  0  0  0  0  0  0  0  0
  1  5  1  0
  2  1  1  0
  3  2  1  0
  4  3  1  0
  4  5  1  0
  5  6  1  1
  6 13  1  0
  6  7  2  0
  9  8  1  0
 10  9  1  0
 11 10  1  0
 12 14  1  0
 12 11  1  6
 13 12  1  0
 14 15  2  0
 16 17  1  0
 16 14  1  0
 18 19  1  0
 17 18  1  1
 19 20  1  0
 20 21  2  0
 20 24  1  0
 22 17  1  0
 23 22  1  0
 25 22  2  0
M  END
$$$$
