PME.pdb
     RDKit          3D

 25 25  0  0  1  0  0  0  0  0999 V2000
   21.8840  -11.9889  -19.3157 N   0  0  0  0  0  0  0  0  0  0  0  0
   21.5168  -13.2221  -19.9927 C   0  0  0  0  0  0  0  0  0  0  0  0
   20.4871  -13.8844  -19.1687 C   0  0  0  0  0  0  0  0  0  0  0  0
   20.5916  -13.2322  -17.8089 C   0  0  0  0  0  0  0  0  0  0  0  0
   20.9656  -11.8165  -18.2434 C   0  0  1  0  0  0  0  0  0  0  0  0
   21.4239  -10.9746  -17.1282 C   0  0  0  0  0  0  0  0  0  0  0  0
   20.5526  -10.7984  -16.2056 O   0  0  0  0  0  0  0  0  0  0  0  0
   27.8136  -12.5596  -15.5496 C   0  0  0  0  0  0  0  0  0  0  0  0
   27.1242  -10.9063  -15.8403 S   0  0  0  0  0  0  0  0  0  0  0  0
   25.3032  -11.0101  -15.6251 C   0  0  0  0  0  0  0  0  0  0  0  0
   24.7519   -9.6584  -15.8900 C   0  0  0  0  0  0  0  0  0  0  0  0
   23.2234   -9.6222  -15.9991 C   0  0  2  0  0  0  0  0  0  0  0  0
   22.6992  -10.4124  -17.0762 N   0  0  0  0  0  0  0  0  0  0  0  0
   22.8436   -8.1944  -16.1364 C   0  0  0  0  0  0  0  0  0  0  0  0
   23.0529   -7.5946  -17.2484 O   0  0  0  0  0  0  0  0  0  0  0  0
   22.2524   -7.4553  -15.0805 N   0  0  0  0  0  0  0  0  0  0  0  0
   21.8815   -6.0752  -15.2756 C   0  0  1  0  0  0  0  0  0  0  0  0
   20.5004   -5.9407  -15.8659 C   0  0  0  0  0  0  0  0  0  0  0  0
   20.0703   -4.5218  -16.0631 C   0  0  0  0  0  0  0  0  0  0  0  0
   18.7089   -4.4277  -16.6508 C   0  0  0  0  0  0  0  0  0  0  0  0
   18.0977   -5.5103  -16.8882 O   0  0  0  0  0  0  0  0  0  0  0  0
   22.0455   -5.3399  -14.0141 C   0  0  0  0  0  0  0  0  0  0  0  0
   22.0724   -3.9636  -13.9834 O   0  0  0  0  0  0  0  0  0  0  0  0
   18.1016   -3.2176  -16.9403 O   0  0  0  0  0  0  0  0  0  0  0  0
   22.1641   -5.9581  -12.9405 O   0  0  0  0  0  0  0  0  0  0  0  0
  1  5  1  0
  2  1  1  0
  3  2  1  0
  4  3  1  0
  4  5  1  0
  5  6  1  1
  6 13  1  0
  6  7  2  0
  9  8  1  0
 10  9  1  0
 11 10  1  0
 12 14  1  0
 12 11  1  6
 13 12  1  0
 14 15  2  0
 16 17  1  0
 16 14  1  0
 18 19  1  0
 17 18  1  1
 19 20  1  0
 20 21  2  0
 20 24  1  0
 22 17  1  0
 23 22  1  0
 25 22  2  0
M  END
$$$$
