PME.pdb
     RDKit          3D

 25 25  0  0  1  0  0  0  0  0999 V2000
   28.6950  -25.8401  -20.6197 N   0  0  0  0  0  0  0  0  0  0  0  0
   28.0527  -24.6664  -21.1888 C   0  0  0  0  0  0  0  0  0  0  0  0
   27.7331  -24.9803  -22.5949 C   0  0  0  0  0  0  0  0  0  0  0  0
   28.5891  -26.1791  -22.9350 C   0  0  0  0  0  0  0  0  0  0  0  0
   28.5759  -26.8829  -21.5794 C   0  0  1  0  0  0  0  0  0  0  0  0
   29.5659  -27.9661  -21.4841 C   0  0  0  0  0  0  0  0  0  0  0  0
   29.3496  -28.9515  -22.2736 O   0  0  0  0  0  0  0  0  0  0  0  0
   35.6425  -27.3570  -22.1160 C   0  0  0  0  0  0  0  0  0  0  0  0
   35.7722  -28.5361  -20.7425 S   0  0  0  0  0  0  0  0  0  0  0  0
   34.1597  -29.4019  -20.5899 C   0  0  0  0  0  0  0  0  0  0  0  0
   33.0969  -28.3712  -20.6870 C   0  0  0  0  0  0  0  0  0  0  0  0
   31.6788  -28.9231  -20.5033 C   0  0  2  0  0  0  0  0  0  0  0  0
   30.6502  -27.9279  -20.6077 N   0  0  0  0  0  0  0  0  0  0  0  0
   31.6549  -29.5939  -19.1800 C   0  0  0  0  0  0  0  0  0  0  0  0
   31.6690  -28.8814  -18.1160 O   0  0  0  0  0  0  0  0  0  0  0  0
   31.6166  -31.0043  -19.0381 N   0  0  0  0  0  0  0  0  0  0  0  0
   31.5230  -31.6027  -17.7291 C   0  0  1  0  0  0  0  0  0  0  0  0
   30.4299  -32.6392  -17.6599 C   0  0  0  0  0  0  0  0  0  0  0  0
   30.2364  -33.2135  -16.2926 C   0  0  0  0  0  0  0  0  0  0  0  0
   29.0907  -34.1582  -16.2408 C   0  0  0  0  0  0  0  0  0  0  0  0
   28.4183  -34.3214  -17.3006 O   0  0  0  0  0  0  0  0  0  0  0  0
   32.8386  -32.1223  -17.3318 C   0  0  0  0  0  0  0  0  0  0  0  0
   33.1366  -32.3913  -16.0147 O   0  0  0  0  0  0  0  0  0  0  0  0
   28.7439  -34.8506  -15.0930 O   0  0  0  0  0  0  0  0  0  0  0  0
   33.7148  -32.3298  -18.1909 O   0  0  0  0  0  0  0  0  0  0  0  0
  1  5  1  0
  2  1  1  0
  3  2  1  0
  4  3  1  0
  4  5  1  0
  5  6  1  6
  6 13  1  0
  6  7  2  0
  9  8  1  0
 10  9  1  0
 11 10  1  0
 12 14  1  0
 12 11  1  1
 13 12  1  0
 14 15  2  0
 16 17  1  0
 16 14  1  0
 18 19  1  0
 17 18  1  6
 19 20  1  0
 20 21  2  0
 20 24  1  0
 22 17  1  0
 23 22  1  0
 25 22  2  0
M  END
$$$$
