PME.pdb
     RDKit          3D

 25 25  0  0  1  0  0  0  0  0999 V2000
   20.8564  -15.4995  -17.8973 N   0  0  0  0  0  0  0  0  0  0  0  0
   20.3372  -16.8165  -18.2288 C   0  0  0  0  0  0  0  0  0  0  0  0
   19.3633  -17.1799  -17.1814 C   0  0  0  0  0  0  0  0  0  0  0  0
   19.6590  -16.2478  -16.0285 C   0  0  0  0  0  0  0  0  0  0  0  0
   20.0747  -15.0069  -16.8161 C   0  0  1  0  0  0  0  0  0  0  0  0
   20.7068  -13.9779  -15.9768 C   0  0  0  0  0  0  0  0  0  0  0  0
   20.0008  -13.6053  -14.9749 O   0  0  0  0  0  0  0  0  0  0  0  0
   27.2212  -15.4405  -15.0614 C   0  0  0  0  0  0  0  0  0  0  0  0
   26.5408  -13.8010  -15.4391 S   0  0  0  0  0  0  0  0  0  0  0  0
   24.7246  -13.8711  -15.1752 C   0  0  0  0  0  0  0  0  0  0  0  0
   24.1759  -12.5424  -15.5423 C   0  0  0  0  0  0  0  0  0  0  0  0
   22.6476  -12.4583  -15.4609 C   0  0  2  0  0  0  0  0  0  0  0  0
   21.9687  -13.4488  -16.2466 N   0  0  0  0  0  0  0  0  0  0  0  0
   22.2774  -11.0838  -15.8796 C   0  0  0  0  0  0  0  0  0  0  0  0
   22.1293  -10.8268  -17.1254 O   0  0  0  0  0  0  0  0  0  0  0  0
   22.0779  -10.0295  -14.9525 N   0  0  0  0  0  0  0  0  0  0  0  0
   21.4652   -8.7939  -15.3750 C   0  0  1  0  0  0  0  0  0  0  0  0
   20.0831   -9.0133  -15.9368 C   0  0  0  0  0  0  0  0  0  0  0  0
   19.4037   -7.7507  -16.3627 C   0  0  0  0  0  0  0  0  0  0  0  0
   18.0245   -7.9982  -16.8569 C   0  0  0  0  0  0  0  0  0  0  0  0
   17.8713   -8.8887  -17.7431 O   0  0  0  0  0  0  0  0  0  0  0  0
   21.4928   -7.8287  -14.2675 C   0  0  0  0  0  0  0  0  0  0  0  0
   21.1996   -6.4983  -14.4670 O   0  0  0  0  0  0  0  0  0  0  0  0
   16.9254   -7.2992  -16.3874 O   0  0  0  0  0  0  0  0  0  0  0  0
   21.7856   -8.2041  -13.1176 O   0  0  0  0  0  0  0  0  0  0  0  0
  1  5  1  0
  2  1  1  0
  3  2  1  0
  4  3  1  0
  4  5  1  0
  5  6  1  1
  6 13  1  0
  6  7  2  0
  9  8  1  0
 10  9  1  0
 11 10  1  0
 12 14  1  0
 12 11  1  6
 13 12  1  0
 14 15  2  0
 16 17  1  0
 16 14  1  0
 18 19  1  0
 17 18  1  1
 19 20  1  0
 20 21  2  0
 20 24  1  0
 22 17  1  0
 23 22  1  0
 25 22  2  0
M  END
$$$$
