PME.pdb
     RDKit          3D

 25 25  0  0  1  0  0  0  0  0999 V2000
   26.9811  -28.2534  -16.1144 N   0  0  0  0  0  0  0  0  0  0  0  0
   28.2060  -28.4591  -16.8703 C   0  0  0  0  0  0  0  0  0  0  0  0
   27.8844  -28.2394  -18.2938 C   0  0  0  0  0  0  0  0  0  0  0  0
   26.3779  -28.3346  -18.3763 C   0  0  0  0  0  0  0  0  0  0  0  0
   26.0188  -27.7290  -17.0208 C   0  0  1  0  0  0  0  0  0  0  0  0
   24.6087  -27.9311  -16.6558 C   0  0  0  0  0  0  0  0  0  0  0  0
   23.7764  -27.2783  -17.3785 O   0  0  0  0  0  0  0  0  0  0  0  0
   22.6861  -33.4646  -15.6631 C   0  0  0  0  0  0  0  0  0  0  0  0
   21.1810  -32.8578  -14.8510 S   0  0  0  0  0  0  0  0  0  0  0  0
   21.2409  -31.0221  -14.8542 C   0  0  0  0  0  0  0  0  0  0  0  0
   22.6559  -30.6293  -15.0656 C   0  0  0  0  0  0  0  0  0  0  0  0
   22.8541  -29.1280  -15.3026 C   0  0  2  0  0  0  0  0  0  0  0  0
   24.2073  -28.7622  -15.6103 N   0  0  0  0  0  0  0  0  0  0  0  0
   22.3686  -28.4399  -14.0810 C   0  0  0  0  0  0  0  0  0  0  0  0
   23.0475  -28.5309  -12.9989 O   0  0  0  0  0  0  0  0  0  0  0  0
   21.1734  -27.6773  -14.0566 N   0  0  0  0  0  0  0  0  0  0  0  0
   20.8200  -26.9136  -12.8851 C   0  0  1  0  0  0  0  0  0  0  0  0
   20.3613  -25.5209  -13.2373 C   0  0  0  0  0  0  0  0  0  0  0  0
   19.8468  -24.7469  -12.0655 C   0  0  0  0  0  0  0  0  0  0  0  0
   19.2727  -23.4374  -12.4698 C   0  0  0  0  0  0  0  0  0  0  0  0
   19.3064  -23.1382  -13.6992 O   0  0  0  0  0  0  0  0  0  0  0  0
   19.8376  -27.6622  -12.0893 C   0  0  0  0  0  0  0  0  0  0  0  0
   19.8179  -27.5844  -10.7147 O   0  0  0  0  0  0  0  0  0  0  0  0
   18.7140  -22.5538  -11.5622 O   0  0  0  0  0  0  0  0  0  0  0  0
   18.9977  -28.3872  -12.6530 O   0  0  0  0  0  0  0  0  0  0  0  0
  1  5  1  0
  2  1  1  0
  3  2  1  0
  4  3  1  0
  4  5  1  0
  5  6  1  1
  6 13  1  0
  6  7  2  0
  9  8  1  0
 10  9  1  0
 11 10  1  0
 12 14  1  0
 12 11  1  1
 13 12  1  0
 14 15  2  0
 16 17  1  0
 16 14  1  0
 18 19  1  0
 17 18  1  6
 19 20  1  0
 20 21  2  0
 20 24  1  0
 22 17  1  0
 23 22  1  0
 25 22  2  0
M  END
$$$$
