PME.pdb
     RDKit          3D

 25 25  0  0  1  0  0  0  0  0999 V2000
   24.4854  -12.9727  -15.3813 N   0  0  0  0  0  0  0  0  0  0  0  0
   25.3147  -14.1469  -15.5989 C   0  0  0  0  0  0  0  0  0  0  0  0
   25.8886  -14.0332  -16.9537 C   0  0  0  0  0  0  0  0  0  0  0  0
   25.0331  -13.0051  -17.6585 C   0  0  0  0  0  0  0  0  0  0  0  0
   24.7191  -12.0931  -16.4742 C   0  0  1  0  0  0  0  0  0  0  0  0
   23.6531  -11.1221  -16.7627 C   0  0  0  0  0  0  0  0  0  0  0  0
   23.9277  -10.2995  -17.7056 O   0  0  0  0  0  0  0  0  0  0  0  0
   17.7038  -13.5569  -18.8480 C   0  0  0  0  0  0  0  0  0  0  0  0
   18.0852  -12.6329  -17.3334 S   0  0  0  0  0  0  0  0  0  0  0  0
   19.7102  -11.8104  -17.5702 C   0  0  0  0  0  0  0  0  0  0  0  0
   19.9738  -11.0008  -16.3552 C   0  0  0  0  0  0  0  0  0  0  0  0
   21.3169  -10.2626  -16.3809 C   0  0  2  0  0  0  0  0  0  0  0  0
   22.4434  -11.0952  -16.0692 N   0  0  0  0  0  0  0  0  0  0  0  0
   21.1955   -9.1318  -15.4280 C   0  0  0  0  0  0  0  0  0  0  0  0
   21.2922   -9.3583  -14.1713 O   0  0  0  0  0  0  0  0  0  0  0  0
   20.9748   -7.7962  -15.8502 N   0  0  0  0  0  0  0  0  0  0  0  0
   21.0248   -6.7134  -14.8986 C   0  0  1  0  0  0  0  0  0  0  0  0
   21.7020   -5.4926  -15.4687 C   0  0  0  0  0  0  0  0  0  0  0  0
   21.8288   -4.3680  -14.4909 C   0  0  0  0  0  0  0  0  0  0  0  0
   22.4136   -3.1514  -15.1119 C   0  0  0  0  0  0  0  0  0  0  0  0
   22.8027   -3.2369  -16.3133 O   0  0  0  0  0  0  0  0  0  0  0  0
   19.6723   -6.4415  -14.3931 C   0  0  0  0  0  0  0  0  0  0  0  0
   19.4669   -5.9232  -13.1341 O   0  0  0  0  0  0  0  0  0  0  0  0
   22.5430   -1.9529  -14.4309 O   0  0  0  0  0  0  0  0  0  0  0  0
   18.6790   -6.6787  -15.1046 O   0  0  0  0  0  0  0  0  0  0  0  0
  1  5  1  0
  2  1  1  0
  3  2  1  0
  4  3  1  0
  4  5  1  0
  5  6  1  6
  6 13  1  0
  6  7  2  0
  9  8  1  0
 10  9  1  0
 11 10  1  0
 12 14  1  0
 12 11  1  1
 13 12  1  0
 14 15  2  0
 16 17  1  0
 16 14  1  0
 18 19  1  0
 17 18  1  6
 19 20  1  0
 20 21  2  0
 20 24  1  0
 22 17  1  0
 23 22  1  0
 25 22  2  0
M  END
$$$$
