PME.pdb
     RDKit          3D

 25 25  0  0  1  0  0  0  0  0999 V2000
   27.5146  -18.8833  -15.1588 N   0  0  0  0  0  0  0  0  0  0  0  0
   28.8010  -18.5326  -15.7387 C   0  0  0  0  0  0  0  0  0  0  0  0
   29.4314  -19.7858  -16.1968 C   0  0  0  0  0  0  0  0  0  0  0  0
   28.6840  -20.8873  -15.4801 C   0  0  0  0  0  0  0  0  0  0  0  0
   27.2925  -20.2584  -15.4463 C   0  0  1  0  0  0  0  0  0  0  0  0
   26.3637  -20.9646  -14.5512 C   0  0  0  0  0  0  0  0  0  0  0  0
   25.9746  -22.1052  -14.9858 O   0  0  0  0  0  0  0  0  0  0  0  0
   25.3481  -20.0026   -8.0373 C   0  0  0  0  0  0  0  0  0  0  0  0
   26.9095  -20.3284   -8.9029 S   0  0  0  0  0  0  0  0  0  0  0  0
   26.5191  -21.2625  -10.4353 C   0  0  0  0  0  0  0  0  0  0  0  0
   25.2389  -20.7280  -10.9613 C   0  0  0  0  0  0  0  0  0  0  0  0
   24.9935  -21.0488  -12.4399 C   0  0  2  0  0  0  0  0  0  0  0  0
   25.9388  -20.4393  -13.3311 N   0  0  0  0  0  0  0  0  0  0  0  0
   23.6058  -20.6183  -12.7408 C   0  0  0  0  0  0  0  0  0  0  0  0
   23.3578  -19.3726  -12.9044 O   0  0  0  0  0  0  0  0  0  0  0  0
   22.5292  -21.5338  -12.8568 N   0  0  0  0  0  0  0  0  0  0  0  0
   21.2629  -21.1048  -13.3980 C   0  0  1  0  0  0  0  0  0  0  0  0
   20.8960  -21.8672  -14.6462 C   0  0  0  0  0  0  0  0  0  0  0  0
   19.5994  -21.4330  -15.2524 C   0  0  0  0  0  0  0  0  0  0  0  0
   19.2725  -22.2015  -16.4813 C   0  0  0  0  0  0  0  0  0  0  0  0
   20.1352  -22.2193  -17.4073 O   0  0  0  0  0  0  0  0  0  0  0  0
   20.2329  -21.1766  -12.3527 C   0  0  0  0  0  0  0  0  0  0  0  0
   19.1427  -20.3356  -12.3598 O   0  0  0  0  0  0  0  0  0  0  0  0
   18.0785  -22.8840  -16.6408 O   0  0  0  0  0  0  0  0  0  0  0  0
   20.3315  -22.0095  -11.4332 O   0  0  0  0  0  0  0  0  0  0  0  0
  1  5  1  0
  2  1  1  0
  3  2  1  0
  4  3  1  0
  4  5  1  0
  5  6  1  1
  6 13  1  0
  6  7  2  0
  9  8  1  0
 10  9  1  0
 11 10  1  0
 12 14  1  0
 12 11  1  1
 13 12  1  0
 14 15  2  0
 16 17  1  0
 16 14  1  0
 18 19  1  0
 17 18  1  6
 19 20  1  0
 20 21  2  0
 20 24  1  0
 22 17  1  0
 23 22  1  0
 25 22  2  0
M  END
$$$$
