PME.pdb
     RDKit          3D

 25 25  0  0  1  0  0  0  0  0999 V2000
   26.8918  -19.2232  -15.3464 N   0  0  0  0  0  0  0  0  0  0  0  0
   27.9379  -18.5223  -16.0732 C   0  0  0  0  0  0  0  0  0  0  0  0
   29.1751  -19.3146  -15.9331 C   0  0  0  0  0  0  0  0  0  0  0  0
   28.9209  -20.2377  -14.7632 C   0  0  0  0  0  0  0  0  0  0  0  0
   27.4270  -20.4844  -14.9649 C   0  0  1  0  0  0  0  0  0  0  0  0
   26.7903  -21.1349  -13.8099 C   0  0  0  0  0  0  0  0  0  0  0  0
   26.1388  -22.2003  -14.0955 O   0  0  0  0  0  0  0  0  0  0  0  0
   28.0358  -19.8724   -7.6801 C   0  0  0  0  0  0  0  0  0  0  0  0
   26.2419  -19.9899   -7.4318 S   0  0  0  0  0  0  0  0  0  0  0  0
   25.5064  -20.6879   -8.9631 C   0  0  0  0  0  0  0  0  0  0  0  0
   26.4489  -20.4023  -10.0728 C   0  0  0  0  0  0  0  0  0  0  0  0
   25.9769  -20.9194  -11.4363 C   0  0  2  0  0  0  0  0  0  0  0  0
   26.8847  -20.6359  -12.5110 N   0  0  0  0  0  0  0  0  0  0  0  0
   24.6426  -20.3169  -11.6776 C   0  0  0  0  0  0  0  0  0  0  0  0
   24.5541  -19.0588  -11.8996 O   0  0  0  0  0  0  0  0  0  0  0  0
   23.4470  -21.0795  -11.6734 N   0  0  0  0  0  0  0  0  0  0  0  0
   22.3261  -20.6816  -12.4893 C   0  0  1  0  0  0  0  0  0  0  0  0
   22.1855  -21.5482  -13.7153 C   0  0  0  0  0  0  0  0  0  0  0  0
   20.9988  -21.2036  -14.5579 C   0  0  0  0  0  0  0  0  0  0  0  0
   20.9166  -22.0473  -15.7783 C   0  0  0  0  0  0  0  0  0  0  0  0
   19.7742  -22.4709  -16.1210 O   0  0  0  0  0  0  0  0  0  0  0  0
   21.1096  -20.6421  -11.6663 C   0  0  0  0  0  0  0  0  0  0  0  0
   21.0589  -21.2469  -10.4303 O   0  0  0  0  0  0  0  0  0  0  0  0
   22.0278  -22.3769  -16.5355 O   0  0  0  0  0  0  0  0  0  0  0  0
   20.0936  -20.0539  -12.0793 O   0  0  0  0  0  0  0  0  0  0  0  0
  1  5  1  0
  2  1  1  0
  3  2  1  0
  4  3  1  0
  4  5  1  0
  5  6  1  1
  6 13  1  0
  6  7  2  0
  9  8  1  0
 10  9  1  0
 11 10  1  0
 12 14  1  0
 12 11  1  1
 13 12  1  0
 14 15  2  0
 16 17  1  0
 16 14  1  0
 18 19  1  0
 17 18  1  6
 19 20  1  0
 20 21  2  0
 20 24  1  0
 22 17  1  0
 23 22  1  0
 25 22  2  0
M  END
$$$$
