PME.pdb
     RDKit          3D

 25 25  0  0  1  0  0  0  0  0999 V2000
   22.8968  -12.1337  -16.4296 N   0  0  0  0  0  0  0  0  0  0  0  0
   23.3716  -13.5076  -16.4032 C   0  0  0  0  0  0  0  0  0  0  0  0
   24.0413  -13.7150  -15.1046 C   0  0  0  0  0  0  0  0  0  0  0  0
   24.3203  -12.3252  -14.5793 C   0  0  0  0  0  0  0  0  0  0  0  0
   23.0881  -11.6049  -15.1232 C   0  0  1  0  0  0  0  0  0  0  0  0
   23.1879  -10.1409  -15.0260 C   0  0  0  0  0  0  0  0  0  0  0  0
   23.2064   -9.6904  -13.8269 O   0  0  0  0  0  0  0  0  0  0  0  0
   26.0227   -3.5441  -18.1282 C   0  0  0  0  0  0  0  0  0  0  0  0
   25.8499   -5.3494  -18.1946 S   0  0  0  0  0  0  0  0  0  0  0  0
   24.5913   -5.8404  -16.9505 C   0  0  0  0  0  0  0  0  0  0  0  0
   24.3927   -7.3049  -17.0810 C   0  0  0  0  0  0  0  0  0  0  0  0
   23.3464   -7.8773  -16.1182 C   0  0  2  0  0  0  0  0  0  0  0  0
   23.2557   -9.3093  -16.1435 N   0  0  0  0  0  0  0  0  0  0  0  0
   22.0530   -7.2436  -16.4748 C   0  0  0  0  0  0  0  0  0  0  0  0
   21.4453   -7.6155  -17.5390 O   0  0  0  0  0  0  0  0  0  0  0  0
   21.4520   -6.2332  -15.6818 N   0  0  0  0  0  0  0  0  0  0  0  0
   20.0538   -5.9170  -15.8412 C   0  0  1  0  0  0  0  0  0  0  0  0
   19.1697   -7.0988  -15.5315 C   0  0  0  0  0  0  0  0  0  0  0  0
   17.7092   -6.7786  -15.5686 C   0  0  0  0  0  0  0  0  0  0  0  0
   16.8758   -7.9185  -15.1061 C   0  0  0  0  0  0  0  0  0  0  0  0
   17.4496   -9.0349  -14.9435 O   0  0  0  0  0  0  0  0  0  0  0  0
   19.7263   -4.7257  -15.0461 C   0  0  0  0  0  0  0  0  0  0  0  0
   18.4954   -4.1158  -15.1399 O   0  0  0  0  0  0  0  0  0  0  0  0
   15.5199   -7.7990  -14.8530 O   0  0  0  0  0  0  0  0  0  0  0  0
   20.5675   -4.2436  -14.2658 O   0  0  0  0  0  0  0  0  0  0  0  0
  1  5  1  0
  2  1  1  0
  3  2  1  0
  4  3  1  0
  4  5  1  0
  5  6  1  6
  6 13  1  0
  6  7  2  0
  9  8  1  0
 10  9  1  0
 11 10  1  0
 12 14  1  0
 12 11  1  6
 13 12  1  0
 14 15  2  0
 16 17  1  0
 16 14  1  0
 18 19  1  0
 17 18  1  1
 19 20  1  0
 20 21  2  0
 20 24  1  0
 22 17  1  0
 23 22  1  0
 25 22  2  0
M  END
$$$$
