PME.pdb
     RDKit          3D

 25 25  0  0  1  0  0  0  0  0999 V2000
   19.1613  -10.9535  -19.5201 N   0  0  0  0  0  0  0  0  0  0  0  0
   18.5171  -11.9097  -20.4058 C   0  0  0  0  0  0  0  0  0  0  0  0
   17.8671  -12.9257  -19.5555 C   0  0  0  0  0  0  0  0  0  0  0  0
   18.5151  -12.7758  -18.1979 C   0  0  0  0  0  0  0  0  0  0  0  0
   18.7393  -11.2649  -18.1981 C   0  0  1  0  0  0  0  0  0  0  0  0
   19.6243  -10.8146  -17.1134 C   0  0  0  0  0  0  0  0  0  0  0  0
   19.1536  -10.9976  -15.9361 O   0  0  0  0  0  0  0  0  0  0  0  0
   26.9763  -10.1957  -14.5916 C   0  0  0  0  0  0  0  0  0  0  0  0
   25.7832  -10.7271  -15.8515 S   0  0  0  0  0  0  0  0  0  0  0  0
   24.1828   -9.8991  -15.4958 C   0  0  0  0  0  0  0  0  0  0  0  0
   23.2323  -10.3047  -16.5604 C   0  0  0  0  0  0  0  0  0  0  0  0
   21.7988   -9.8124  -16.3326 C   0  0  2  0  0  0  0  0  0  0  0  0
   20.8719  -10.2352  -17.3434 N   0  0  0  0  0  0  0  0  0  0  0  0
   21.8695   -8.3330  -16.2435 C   0  0  0  0  0  0  0  0  0  0  0  0
   22.3253   -7.6665  -17.2375 O   0  0  0  0  0  0  0  0  0  0  0  0
   21.4505   -7.6151  -15.0946 N   0  0  0  0  0  0  0  0  0  0  0  0
   21.5367   -6.1757  -15.0632 C   0  0  1  0  0  0  0  0  0  0  0  0
   20.2467   -5.5241  -15.4938 C   0  0  0  0  0  0  0  0  0  0  0  0
   20.2693   -4.0318  -15.3966 C   0  0  0  0  0  0  0  0  0  0  0  0
   18.9552   -3.4299  -15.7408 C   0  0  0  0  0  0  0  0  0  0  0  0
   18.0408   -4.2092  -16.1389 O   0  0  0  0  0  0  0  0  0  0  0  0
   21.9895   -5.7401  -13.7350 C   0  0  0  0  0  0  0  0  0  0  0  0
   22.0638   -6.6190  -12.6777 O   0  0  0  0  0  0  0  0  0  0  0  0
   18.7059   -2.0716  -15.6413 O   0  0  0  0  0  0  0  0  0  0  0  0
   22.3168   -4.5548  -13.5432 O   0  0  0  0  0  0  0  0  0  0  0  0
  1  5  1  0
  2  1  1  0
  3  2  1  0
  4  3  1  0
  4  5  1  0
  5  6  1  1
  6 13  1  0
  6  7  2  0
  9  8  1  0
 10  9  1  0
 11 10  1  0
 12 14  1  0
 12 11  1  6
 13 12  1  0
 14 15  2  0
 16 17  1  0
 16 14  1  0
 18 19  1  0
 17 18  1  1
 19 20  1  0
 20 21  2  0
 20 24  1  0
 22 17  1  0
 23 22  1  0
 25 22  2  0
M  END
$$$$
