PME.pdb
     RDKit          3D

 25 25  0  0  1  0  0  0  0  0999 V2000
   18.7838  -13.4926    4.9001 N   0  0  0  0  0  0  0  0  0  0  0  0
   18.9028  -12.0730    4.6089 C   0  0  0  0  0  0  0  0  0  0  0  0
   17.6524  -11.6555    3.9457 C   0  0  0  0  0  0  0  0  0  0  0  0
   17.0079  -12.9399    3.4762 C   0  0  0  0  0  0  0  0  0  0  0  0
   17.4405  -13.8621    4.6144 C   0  0  1  0  0  0  0  0  0  0  0  0
   17.2091  -15.2846    4.3217 C   0  0  0  0  0  0  0  0  0  0  0  0
   15.9770  -15.6350    4.3406 O   0  0  0  0  0  0  0  0  0  0  0  0
   20.9304  -19.7459    1.2238 C   0  0  0  0  0  0  0  0  0  0  0  0
   20.2602  -18.2636    0.4195 S   0  0  0  0  0  0  0  0  0  0  0  0
   18.8656  -17.6490    1.4445 C   0  0  0  0  0  0  0  0  0  0  0  0
   19.0605  -18.1812    2.8156 C   0  0  0  0  0  0  0  0  0  0  0  0
   18.0953  -17.5946    3.8518 C   0  0  2  0  0  0  0  0  0  0  0  0
   18.2421  -16.1805    4.0471 N   0  0  0  0  0  0  0  0  0  0  0  0
   18.3217  -18.3445    5.1120 C   0  0  0  0  0  0  0  0  0  0  0  0
   19.3408  -18.0625    5.8344 O   0  0  0  0  0  0  0  0  0  0  0  0
   17.4511  -19.3711    5.5579 N   0  0  0  0  0  0  0  0  0  0  0  0
   17.4741  -19.7988    6.9353 C   0  0  1  0  0  0  0  0  0  0  0  0
   16.7331  -18.8420    7.8350 C   0  0  0  0  0  0  0  0  0  0  0  0
   16.7340  -19.2520    9.2734 C   0  0  0  0  0  0  0  0  0  0  0  0
   16.1401  -18.2105   10.1512 C   0  0  0  0  0  0  0  0  0  0  0  0
   15.3326  -17.3912    9.6234 O   0  0  0  0  0  0  0  0  0  0  0  0
   16.9813  -21.1798    7.0286 C   0  0  0  0  0  0  0  0  0  0  0  0
   17.1749  -21.9363    8.1627 O   0  0  0  0  0  0  0  0  0  0  0  0
   16.4369  -18.1114   11.4999 O   0  0  0  0  0  0  0  0  0  0  0  0
   16.3735  -21.6932    6.0716 O   0  0  0  0  0  0  0  0  0  0  0  0
  1  5  1  0
  2  1  1  0
  3  2  1  0
  4  3  1  0
  4  5  1  0
  5  6  1  6
  6 13  1  0
  6  7  2  0
  9  8  1  0
 10  9  1  0
 11 10  1  0
 12 14  1  0
 12 11  1  6
 13 12  1  0
 14 15  2  0
 16 17  1  0
 16 14  1  0
 18 19  1  0
 17 18  1  1
 19 20  1  0
 20 21  2  0
 20 24  1  0
 22 17  1  0
 23 22  1  0
 25 22  2  0
M  END
$$$$
