HAG.pdb
     RDKit          3D

 20 20  0  0  1  0  0  0  0  0999 V2000
   18.1049  -10.4454  -15.9082 N   0  0  0  0  0  0  0  0  0  0  0  0
   19.3514  -11.1291  -16.0949 C   0  0  1  0  0  0  0  0  0  0  0  0
   19.1720  -12.3784  -16.9223 C   0  0  0  0  0  0  0  0  0  0  0  0
   18.0976  -13.1872  -16.2924 C   0  0  0  0  0  0  0  0  0  0  0  0
   17.0329  -13.7045  -17.0013 C   0  0  0  0  0  0  0  0  0  0  0  0
   16.2558  -14.3774  -16.1507 N   0  0  0  0  0  0  0  0  0  0  0  0
   16.8257  -14.2788  -14.9453 C   0  0  0  0  0  0  0  0  0  0  0  0
   17.9554  -13.5540  -15.0078 N   0  0  0  0  0  0  0  0  0  0  0  0
   20.4178  -10.2443  -16.6143 C   0  0  0  0  0  0  0  0  0  0  0  0
   21.5622  -10.7352  -16.7908 O   0  0  0  0  0  0  0  0  0  0  0  0
   20.7927   -7.6111  -18.8574 C   0  0  0  0  0  0  0  0  0  0  0  0
   21.2461   -8.0161  -17.4680 C   0  0  2  0  0  0  0  0  0  0  0  0
   20.2320   -8.8834  -16.9246 N   0  0  0  0  0  0  0  0  0  0  0  0
   21.4380   -6.7896  -16.6673 C   0  0  0  0  0  0  0  0  0  0  0  0
   22.2384   -5.9171  -17.0494 O   0  0  0  0  0  0  0  0  0  0  0  0
   20.6802   -6.6629  -15.4701 N   0  0  0  0  0  0  0  0  0  0  0  0
   20.8471   -5.4747  -14.6612 C   0  0  0  0  0  0  0  0  0  0  0  0
   21.9356   -5.6717  -13.6819 C   0  0  0  0  0  0  0  0  0  0  0  0
   22.2550   -4.7000  -12.7556 O   0  0  0  0  0  0  0  0  0  0  0  0
   22.5785   -6.7442  -13.6972 O   0  0  0  0  0  0  0  0  0  0  0  0
  2  3  1  0
  2  1  1  6
  4  8  1  0
  4  3  1  0
  5  4  2  0
  6  5  1  0
  6  7  1  0
  7  8  2  0
  9  2  1  0
 10  9  2  0
 12 11  1  6
 12 13  1  0
 13  9  1  0
 14 12  1  0
 14 15  2  0
 16 14  1  0
 17 16  1  0
 17 18  1  0
 18 19  1  0
 20 18  2  0
M  END
$$$$
