HAG.pdb
     RDKit          3D

 20 20  0  0  1  0  0  0  0  0999 V2000
   20.0542  -12.4039  -16.6616 N   0  0  0  0  0  0  0  0  0  0  0  0
   19.3586  -11.1580  -16.5214 C   0  0  1  0  0  0  0  0  0  0  0  0
   18.5076  -11.1434  -15.2750 C   0  0  0  0  0  0  0  0  0  0  0  0
   17.5383  -12.2638  -15.3767 C   0  0  0  0  0  0  0  0  0  0  0  0
   16.4860  -12.2684  -16.2691 C   0  0  0  0  0  0  0  0  0  0  0  0
   15.8124  -13.4091  -16.1106 N   0  0  0  0  0  0  0  0  0  0  0  0
   16.4326  -14.0935  -15.1439 C   0  0  0  0  0  0  0  0  0  0  0  0
   17.4930  -13.4112  -14.6792 N   0  0  0  0  0  0  0  0  0  0  0  0
   20.2574   -9.9863  -16.6168 C   0  0  0  0  0  0  0  0  0  0  0  0
   21.3058   -9.9847  -15.9221 O   0  0  0  0  0  0  0  0  0  0  0  0
   20.4577   -6.9911  -18.8325 C   0  0  0  0  0  0  0  0  0  0  0  0
   20.9100   -7.7540  -17.6023 C   0  0  2  0  0  0  0  0  0  0  0  0
   20.0127   -8.8693  -17.4387 N   0  0  0  0  0  0  0  0  0  0  0  0
   20.8888   -6.8298  -16.4500 C   0  0  0  0  0  0  0  0  0  0  0  0
   19.8186   -6.5971  -15.8600 O   0  0  0  0  0  0  0  0  0  0  0  0
   22.1224   -6.2371  -16.0621 N   0  0  0  0  0  0  0  0  0  0  0  0
   22.1240   -5.2714  -14.9844 C   0  0  0  0  0  0  0  0  0  0  0  0
   22.3446   -5.9496  -13.6906 C   0  0  0  0  0  0  0  0  0  0  0  0
   22.2387   -7.3202  -13.5691 O   0  0  0  0  0  0  0  0  0  0  0  0
   22.6333   -5.2620  -12.6868 O   0  0  0  0  0  0  0  0  0  0  0  0
  2  3  1  0
  2  1  1  1
  4  8  1  0
  4  3  1  0
  5  4  2  0
  6  5  1  0
  6  7  1  0
  7  8  2  0
  9  2  1  0
 10  9  2  0
 12 11  1  6
 12 13  1  0
 13  9  1  0
 14 12  1  0
 14 15  2  0
 16 14  1  0
 17 16  1  0
 17 18  1  0
 18 19  1  0
 20 18  2  0
M  END
$$$$
