HAG.pdb
     RDKit          3D

 20 20  0  0  1  0  0  0  0  0999 V2000
   28.5296  -25.1192  -16.4719 N   0  0  0  0  0  0  0  0  0  0  0  0
   27.1028  -24.9943  -16.5402 C   0  0  1  0  0  0  0  0  0  0  0  0
   26.4186  -26.2048  -15.9537 C   0  0  0  0  0  0  0  0  0  0  0  0
   26.8070  -27.3831  -16.7699 C   0  0  0  0  0  0  0  0  0  0  0  0
   26.6504  -27.4327  -18.1398 C   0  0  0  0  0  0  0  0  0  0  0  0
   27.0950  -28.6164  -18.5657 N   0  0  0  0  0  0  0  0  0  0  0  0
   27.5162  -29.2827  -17.4858 C   0  0  0  0  0  0  0  0  0  0  0  0
   27.3495  -28.5467  -16.3740 N   0  0  0  0  0  0  0  0  0  0  0  0
   26.6111  -23.7221  -15.9661 C   0  0  0  0  0  0  0  0  0  0  0  0
   27.0073  -23.3973  -14.8175 O   0  0  0  0  0  0  0  0  0  0  0  0
   24.7750  -20.7597  -17.2588 C   0  0  0  0  0  0  0  0  0  0  0  0
   25.2416  -21.6032  -16.0880 C   0  0  2  0  0  0  0  0  0  0  0  0
   25.7250  -22.8492  -16.6262 N   0  0  0  0  0  0  0  0  0  0  0  0
   24.1034  -21.7833  -15.1637 C   0  0  0  0  0  0  0  0  0  0  0  0
   23.3573  -22.7717  -15.2823 O   0  0  0  0  0  0  0  0  0  0  0  0
   23.9113  -20.7942  -14.1595 N   0  0  0  0  0  0  0  0  0  0  0  0
   22.8513  -20.9790  -13.1920 C   0  0  0  0  0  0  0  0  0  0  0  0
   21.5464  -20.6300  -13.7905 C   0  0  0  0  0  0  0  0  0  0  0  0
   20.3674  -20.7945  -13.0925 O   0  0  0  0  0  0  0  0  0  0  0  0
   21.5153  -20.1761  -14.9553 O   0  0  0  0  0  0  0  0  0  0  0  0
  2  3  1  0
  2  1  1  1
  4  8  1  0
  4  3  1  0
  5  4  2  0
  6  5  1  0
  6  7  1  0
  7  8  2  0
  9  2  1  0
 10  9  2  0
 12 11  1  6
 12 13  1  0
 13  9  1  0
 14 12  1  0
 14 15  2  0
 16 14  1  0
 17 16  1  0
 17 18  1  0
 18 19  1  0
 20 18  2  0
M  END
$$$$
