HAG.pdb
     RDKit          3D

 20 20  0  0  1  0  0  0  0  0999 V2000
   17.3556  -12.0901  -15.2313 N   0  0  0  0  0  0  0  0  0  0  0  0
   18.6323  -11.8963  -15.8544 C   0  0  1  0  0  0  0  0  0  0  0  0
   18.7021  -12.5972  -17.1892 C   0  0  0  0  0  0  0  0  0  0  0  0
   18.4322  -14.0389  -16.9570 C   0  0  0  0  0  0  0  0  0  0  0  0
   17.7816  -14.5105  -15.8354 C   0  0  0  0  0  0  0  0  0  0  0  0
   17.6967  -15.8384  -15.9325 N   0  0  0  0  0  0  0  0  0  0  0  0
   18.2804  -16.1801  -17.0858 C   0  0  0  0  0  0  0  0  0  0  0  0
   18.7386  -15.0938  -17.7306 N   0  0  0  0  0  0  0  0  0  0  0  0
   19.0205  -10.4705  -15.9335 C   0  0  0  0  0  0  0  0  0  0  0  0
   20.1297  -10.1857  -16.4536 O   0  0  0  0  0  0  0  0  0  0  0  0
   17.2652   -7.2299  -15.4546 C   0  0  0  0  0  0  0  0  0  0  0  0
   18.5581   -8.0124  -15.5814 C   0  0  2  0  0  0  0  0  0  0  0  0
   18.2245   -9.4089  -15.4619 N   0  0  0  0  0  0  0  0  0  0  0  0
   19.4831   -7.5534  -14.5249 C   0  0  0  0  0  0  0  0  0  0  0  0
   19.4702   -8.1002  -13.4075 O   0  0  0  0  0  0  0  0  0  0  0  0
   20.3644   -6.4835  -14.8444 N   0  0  0  0  0  0  0  0  0  0  0  0
   21.2585   -5.9867  -13.8208 C   0  0  0  0  0  0  0  0  0  0  0  0
   22.0916   -4.8910  -14.3576 C   0  0  0  0  0  0  0  0  0  0  0  0
   22.8223   -4.0682  -13.5249 O   0  0  0  0  0  0  0  0  0  0  0  0
   22.1319   -4.7096  -15.5943 O   0  0  0  0  0  0  0  0  0  0  0  0
  2  3  1  0
  2  1  1  6
  4  8  1  0
  4  3  1  0
  5  4  2  0
  6  5  1  0
  6  7  1  0
  7  8  2  0
  9  2  1  0
 10  9  2  0
 12 11  1  1
 12 13  1  0
 13  9  1  0
 14 12  1  0
 14 15  2  0
 16 14  1  0
 17 16  1  0
 17 18  1  0
 18 19  1  0
 20 18  2  0
M  END
$$$$
