HAG.pdb
     RDKit          3D

 20 20  0  0  1  0  0  0  0  0999 V2000
   15.6023  -17.7085    3.4403 N   0  0  0  0  0  0  0  0  0  0  0  0
   16.9356  -18.2148    3.5882 C   0  0  1  0  0  0  0  0  0  0  0  0
   17.7668  -17.3179    4.4727 C   0  0  0  0  0  0  0  0  0  0  0  0
   17.8647  -15.9933    3.8085 C   0  0  0  0  0  0  0  0  0  0  0  0
   18.4036  -15.8218    2.5500 C   0  0  0  0  0  0  0  0  0  0  0  0
   18.3409  -14.5245    2.2449 N   0  0  0  0  0  0  0  0  0  0  0  0
   17.7771  -13.9084    3.2890 C   0  0  0  0  0  0  0  0  0  0  0  0
   17.4768  -14.7885    4.2591 N   0  0  0  0  0  0  0  0  0  0  0  0
   16.9663  -19.6312    4.0156 C   0  0  0  0  0  0  0  0  0  0  0  0
   16.2071  -19.9842    4.9542 O   0  0  0  0  0  0  0  0  0  0  0  0
   18.8175  -22.7027    2.9359 C   0  0  0  0  0  0  0  0  0  0  0  0
   17.9463  -21.9576    3.9288 C   0  0  2  0  0  0  0  0  0  0  0  0
   17.7942  -20.6121    3.4365 N   0  0  0  0  0  0  0  0  0  0  0  0
   18.6014  -22.0113    5.2518 C   0  0  0  0  0  0  0  0  0  0  0  0
   19.3537  -21.0877    5.6104 O   0  0  0  0  0  0  0  0  0  0  0  0
   18.3336  -23.1433    6.0706 N   0  0  0  0  0  0  0  0  0  0  0  0
   18.9877  -23.2441    7.3574 C   0  0  0  0  0  0  0  0  0  0  0  0
   19.5631  -24.5933    7.5341 C   0  0  0  0  0  0  0  0  0  0  0  0
   20.2567  -24.9359    8.6769 O   0  0  0  0  0  0  0  0  0  0  0  0
   19.4156  -25.4394    6.6252 O   0  0  0  0  0  0  0  0  0  0  0  0
  2  3  1  0
  2  1  1  1
  4  8  1  0
  4  3  1  0
  5  4  2  0
  6  5  1  0
  6  7  1  0
  7  8  2  0
  9  2  1  0
 10  9  2  0
 12 11  1  6
 12 13  1  0
 13  9  1  0
 14 12  1  0
 14 15  2  0
 16 14  1  0
 17 16  1  0
 17 18  1  0
 18 19  1  0
 20 18  2  0
M  END
$$$$
