HAG.pdb
     RDKit          3D

 20 20  0  0  1  0  0  0  0  0999 V2000
   27.6368  -21.2497  -14.8195 N   0  0  0  0  0  0  0  0  0  0  0  0
   27.3207  -20.2115  -15.7566 C   0  0  1  0  0  0  0  0  0  0  0  0
   26.9814  -20.7821  -17.1120 C   0  0  0  0  0  0  0  0  0  0  0  0
   28.2361  -21.3069  -17.7083 C   0  0  0  0  0  0  0  0  0  0  0  0
   29.1348  -22.0828  -17.0055 C   0  0  0  0  0  0  0  0  0  0  0  0
   30.1447  -22.3900  -17.8214 N   0  0  0  0  0  0  0  0  0  0  0  0
   29.8774  -21.8183  -19.0001 C   0  0  0  0  0  0  0  0  0  0  0  0
   28.7129  -21.1492  -18.9544 N   0  0  0  0  0  0  0  0  0  0  0  0
   26.2889  -19.2786  -15.2515 C   0  0  0  0  0  0  0  0  0  0  0  0
   25.3501  -19.7503  -14.5602 O   0  0  0  0  0  0  0  0  0  0  0  0
   25.7021  -15.5853  -15.4744 C   0  0  0  0  0  0  0  0  0  0  0  0
   25.2502  -16.9817  -15.0926 C   0  0  2  0  0  0  0  0  0  0  0  0
   26.2915  -17.8919  -15.4965 N   0  0  0  0  0  0  0  0  0  0  0  0
   23.9626  -17.2521  -15.7645 C   0  0  0  0  0  0  0  0  0  0  0  0
   23.9459  -17.5941  -16.9605 O   0  0  0  0  0  0  0  0  0  0  0  0
   22.7767  -17.1048  -14.9929 N   0  0  0  0  0  0  0  0  0  0  0  0
   21.5043  -17.4300  -15.6003 C   0  0  0  0  0  0  0  0  0  0  0  0
   20.7263  -16.1987  -15.8479 C   0  0  0  0  0  0  0  0  0  0  0  0
   19.4419  -16.0496  -15.3659 O   0  0  0  0  0  0  0  0  0  0  0  0
   21.2480  -15.2744  -16.5093 O   0  0  0  0  0  0  0  0  0  0  0  0
  2  3  1  0
  2  1  1  1
  4  8  1  0
  4  3  1  0
  5  4  2  0
  6  5  1  0
  6  7  1  0
  7  8  2  0
  9  2  1  0
 10  9  2  0
 12 11  1  6
 12 13  1  0
 13  9  1  0
 14 12  1  0
 14 15  2  0
 16 14  1  0
 17 16  1  0
 17 18  1  0
 18 19  1  0
 20 18  2  0
M  END
$$$$
