HAG.pdb
     RDKit          3D

 20 20  0  0  1  0  0  0  0  0999 V2000
   17.2708  -10.6855  -15.4464 N   0  0  0  0  0  0  0  0  0  0  0  0
   18.5202  -10.3835  -16.0818 C   0  0  1  0  0  0  0  0  0  0  0  0
   18.3077   -9.7862  -17.4514 C   0  0  0  0  0  0  0  0  0  0  0  0
   17.5236  -10.7603  -18.2524 C   0  0  0  0  0  0  0  0  0  0  0  0
   18.0584  -11.9348  -18.7405 C   0  0  0  0  0  0  0  0  0  0  0  0
   17.1010  -12.5805  -19.4090 N   0  0  0  0  0  0  0  0  0  0  0  0
   16.0010  -11.8239  -19.3362 C   0  0  0  0  0  0  0  0  0  0  0  0
   16.2362  -10.7037  -18.6324 N   0  0  0  0  0  0  0  0  0  0  0  0
   19.4127   -9.5656  -15.2307 C   0  0  0  0  0  0  0  0  0  0  0  0
   18.8983   -8.6467  -14.5430 O   0  0  0  0  0  0  0  0  0  0  0  0
   23.0265   -9.6969  -14.2851 C   0  0  0  0  0  0  0  0  0  0  0  0
   21.6867   -8.9864  -14.2961 C   0  0  2  0  0  0  0  0  0  0  0  0
   20.8057   -9.7513  -15.1415 N   0  0  0  0  0  0  0  0  0  0  0  0
   21.8965   -7.6090  -14.7871 C   0  0  0  0  0  0  0  0  0  0  0  0
   21.8519   -7.3710  -16.0074 O   0  0  0  0  0  0  0  0  0  0  0  0
   22.1451   -6.5980  -13.8178 N   0  0  0  0  0  0  0  0  0  0  0  0
   22.3541   -5.2381  -14.2659 C   0  0  0  0  0  0  0  0  0  0  0  0
   21.1115   -4.4534  -14.1149 C   0  0  0  0  0  0  0  0  0  0  0  0
   21.0851   -3.0944  -14.3529 O   0  0  0  0  0  0  0  0  0  0  0  0
   20.0636   -5.0384  -13.7636 O   0  0  0  0  0  0  0  0  0  0  0  0
  2  3  1  0
  2  1  1  1
  4  8  1  0
  4  3  1  0
  5  4  2  0
  6  5  1  0
  6  7  1  0
  7  8  2  0
  9  2  1  0
 10  9  2  0
 12 11  1  6
 12 13  1  0
 13  9  1  0
 14 12  1  0
 14 15  2  0
 16 14  1  0
 17 16  1  0
 17 18  1  0
 18 19  1  0
 20 18  2  0
M  END
$$$$
