HAG.pdb
     RDKit          3D

 20 20  0  0  1  0  0  0  0  0999 V2000
   15.4112   -9.8231  -10.4545 N   0  0  0  0  0  0  0  0  0  0  0  0
   16.0138   -8.5695  -10.8029 C   0  0  1  0  0  0  0  0  0  0  0  0
   16.0841   -8.3932  -12.3001 C   0  0  0  0  0  0  0  0  0  0  0  0
   16.8951   -9.5096  -12.8489 C   0  0  0  0  0  0  0  0  0  0  0  0
   18.2212   -9.3712  -13.2039 C   0  0  0  0  0  0  0  0  0  0  0  0
   18.6553  -10.5495  -13.6547 N   0  0  0  0  0  0  0  0  0  0  0  0
   17.6232  -11.3962  -13.5804 C   0  0  0  0  0  0  0  0  0  0  0  0
   16.5339  -10.7811  -13.0895 N   0  0  0  0  0  0  0  0  0  0  0  0
   15.3814   -7.4200  -10.1183 C   0  0  0  0  0  0  0  0  0  0  0  0
   14.1532   -7.4882   -9.8562 O   0  0  0  0  0  0  0  0  0  0  0  0
   14.8661   -5.5325   -7.8159 C   0  0  0  0  0  0  0  0  0  0  0  0
   15.4582   -5.0922   -9.1409 C   0  0  2  0  0  0  0  0  0  0  0  0
   16.0695   -6.2510   -9.7405 N   0  0  0  0  0  0  0  0  0  0  0  0
   16.4258   -4.0072   -8.8784 C   0  0  0  0  0  0  0  0  0  0  0  0
   17.5596   -4.2777   -8.4437 O   0  0  0  0  0  0  0  0  0  0  0  0
   16.0038   -2.6745   -9.1418 N   0  0  0  0  0  0  0  0  0  0  0  0
   16.9776   -1.6068   -9.0675 C   0  0  0  0  0  0  0  0  0  0  0  0
   17.0990   -1.1214   -7.6774 C   0  0  0  0  0  0  0  0  0  0  0  0
   18.0091   -0.1427   -7.3336 O   0  0  0  0  0  0  0  0  0  0  0  0
   16.3585   -1.6117   -6.7970 O   0  0  0  0  0  0  0  0  0  0  0  0
  2  3  1  0
  2  1  1  6
  4  8  1  0
  4  3  1  0
  5  4  2  0
  6  5  1  0
  6  7  1  0
  7  8  2  0
  9  2  1  0
 10  9  2  0
 12 11  1  1
 12 13  1  0
 13  9  1  0
 14 12  1  0
 14 15  2  0
 16 14  1  0
 17 16  1  0
 17 18  1  0
 18 19  1  0
 20 18  2  0
M  END
$$$$
