HAG.pdb
     RDKit          3D

 20 20  0  0  1  0  0  0  0  0999 V2000
   16.5765  -12.7540  -15.3367 N   0  0  0  0  0  0  0  0  0  0  0  0
   16.3163  -11.3893  -14.9817 C   0  0  1  0  0  0  0  0  0  0  0  0
   15.7186  -11.2875  -13.5997 C   0  0  0  0  0  0  0  0  0  0  0  0
   14.4324  -12.0296  -13.6079 C   0  0  0  0  0  0  0  0  0  0  0  0
   13.3286  -11.6122  -14.3228 C   0  0  0  0  0  0  0  0  0  0  0  0
   12.3467  -12.4930  -14.1221 N   0  0  0  0  0  0  0  0  0  0  0  0
   12.8311  -13.4323  -13.3031 C   0  0  0  0  0  0  0  0  0  0  0  0
   14.1073  -13.1692  -12.9748 N   0  0  0  0  0  0  0  0  0  0  0  0
   17.4967  -10.5154  -15.1628 C   0  0  0  0  0  0  0  0  0  0  0  0
   18.5827  -10.8686  -14.6358 O   0  0  0  0  0  0  0  0  0  0  0  0
   18.2964   -7.5390  -17.2572 C   0  0  0  0  0  0  0  0  0  0  0  0
   18.6237   -8.4556  -16.0941 C   0  0  2  0  0  0  0  0  0  0  0  0
   17.4813   -9.3096  -15.8900 N   0  0  0  0  0  0  0  0  0  0  0  0
   18.9289   -7.6183  -14.9159 C   0  0  0  0  0  0  0  0  0  0  0  0
   18.0214   -7.3046  -14.1249 O   0  0  0  0  0  0  0  0  0  0  0  0
   20.2776   -7.2018  -14.7391 N   0  0  0  0  0  0  0  0  0  0  0  0
   20.6174   -6.4139  -13.5740 C   0  0  0  0  0  0  0  0  0  0  0  0
   22.0263   -5.9751  -13.6467 C   0  0  0  0  0  0  0  0  0  0  0  0
   22.5417   -5.0585  -12.7532 O   0  0  0  0  0  0  0  0  0  0  0  0
   22.7635   -6.4479  -14.5394 O   0  0  0  0  0  0  0  0  0  0  0  0
  2  3  1  0
  2  1  1  1
  4  8  1  0
  4  3  1  0
  5  4  2  0
  6  5  1  0
  6  7  1  0
  7  8  2  0
  9  2  1  0
 10  9  2  0
 12 11  1  6
 12 13  1  0
 13  9  1  0
 14 12  1  0
 14 15  2  0
 16 14  1  0
 17 16  1  0
 17 18  1  0
 18 19  1  0
 20 18  2  0
M  END
$$$$
