RMT.pdb
     RDKit          3D

 27 26  0  0  1  0  0  0  0  0999 V2000
   10.1619  -14.1804   16.3494 N   0  0  0  0  0  0  0  0  0  0  0  0
    8.8434  -13.7392   16.0366 C   0  0  0  0  0  0  0  0  0  0  0  0
    8.6191  -12.7951   15.1811 N   0  0  0  0  0  0  0  0  0  0  0  0
    7.7526  -14.3705   16.6928 N   0  0  0  0  0  0  0  0  0  0  0  0
    7.9922  -14.9859   17.9707 C   0  0  0  0  0  0  0  0  0  0  0  0
    7.7235  -13.9858   19.1005 C   0  0  0  0  0  0  0  0  0  0  0  0
    7.0149  -14.6845   20.2435 C   0  0  0  0  0  0  0  0  0  0  0  0
    7.9587  -15.6921   20.8652 C   0  0  2  0  0  0  0  0  0  0  0  0
    7.2319  -16.9271   20.9899 N   0  0  0  0  0  0  0  0  0  0  0  0
    8.4768  -15.2115   22.1686 C   0  0  0  0  0  0  0  0  0  0  0  0
    9.5609  -14.5441   22.2665 O   0  0  0  0  0  0  0  0  0  0  0  0
    7.6256  -12.5563   14.9832 C   0  0  0  0  0  0  0  0  0  0  0  0
    6.4059  -10.9995   26.3969 S   0  0  0  0  0  0  0  0  0  0  0  0
    6.7009  -12.4207   27.4704 C   0  0  0  0  0  0  0  0  0  0  0  0
    7.8369  -13.6087   26.7002 C   0  0  0  0  0  0  0  0  0  0  0  0
    7.2789  -14.0897   25.3596 C   0  0  2  0  0  0  0  0  0  0  0  0
    8.2216  -14.9962   24.6632 N   0  0  0  0  0  0  0  0  0  0  0  0
    7.8076  -15.4613   23.3736 C   0  0  0  0  0  0  0  0  0  0  0  0
    8.4576  -16.1880   25.5187 O   0  0  0  0  0  0  0  0  0  0  0  0
    7.5072  -16.9790   25.8479 C   0  0  0  0  0  0  0  0  0  0  0  0
   10.3268  -19.0314   24.7014 C   0  0  2  0  0  0  0  0  0  0  0  0
   10.9245  -18.6133   26.0282 O   0  0  0  0  0  0  0  0  0  0  0  0
   12.1139  -17.9154   25.8650 C   0  0  2  0  0  0  0  0  0  0  0  0
    9.9401  -17.7586   26.8275 N   0  0  0  0  0  0  0  0  0  0  0  0
    9.7311  -16.5516   26.0380 C   0  0  0  0  0  0  0  0  0  0  0  0
   10.4431  -17.4806   28.1651 O   0  0  0  0  0  0  0  0  0  0  0  0
   10.5764  -18.4032   28.9954 O   0  0  0  0  0  0  0  0  0  0  0  0
  2  1  1  0
  3  2  2  0
  4  2  1  0
  5  4  1  0
  6  5  1  0
  7  8  1  0
  7  6  1  0
  8 10  1  0
  8  9  1  1
 10 17  1  0
 11 10  2  0
 13 14  1  0
 13 12  1  0
 14 15  1  0
 16 15  1  6
 17 16  1  0
 18 19  2  0
 18 16  1  0
 21 20  1  1
 21 23  1  0
 21 22  1  0
 23 24  1  1
 24 18  1  0
 25 27  1  0
 25 23  1  0
 26 25  2  0
M  END
$$$$
