RMT.pdb
     RDKit          3D

 27 26  0  0  1  0  0  0  0  0999 V2000
    8.2352  -11.9639   20.2264 N   0  0  0  0  0  0  0  0  0  0  0  0
    8.4840  -12.6446   18.9993 C   0  0  0  0  0  0  0  0  0  0  0  0
    9.2105  -12.1282   18.0617 N   0  0  0  0  0  0  0  0  0  0  0  0
    7.9105  -13.9320   18.8193 N   0  0  0  0  0  0  0  0  0  0  0  0
    7.1610  -14.5004   19.9076 C   0  0  0  0  0  0  0  0  0  0  0  0
    7.4159  -16.0089   19.9971 C   0  0  0  0  0  0  0  0  0  0  0  0
    8.7942  -16.2607   20.5748 C   0  0  0  0  0  0  0  0  0  0  0  0
    8.6875  -17.3058   21.6651 C   0  0  2  0  0  0  0  0  0  0  0  0
    7.3196  -17.7501   21.6886 N   0  0  0  0  0  0  0  0  0  0  0  0
    9.1244  -16.7644   22.9744 C   0  0  0  0  0  0  0  0  0  0  0  0
   10.2953  -16.2895   23.1587 O   0  0  0  0  0  0  0  0  0  0  0  0
    9.2651  -12.6456   17.1603 C   0  0  0  0  0  0  0  0  0  0  0  0
    6.3077  -11.2804   25.6134 S   0  0  0  0  0  0  0  0  0  0  0  0
    6.4849  -12.8973   26.3966 C   0  0  0  0  0  0  0  0  0  0  0  0
    7.3932  -14.0535   25.3321 C   0  0  0  0  0  0  0  0  0  0  0  0
    7.5892  -15.3935   26.0433 C   0  0  2  0  0  0  0  0  0  0  0  0
    8.6221  -16.2238   25.3806 N   0  0  0  0  0  0  0  0  0  0  0  0
    8.2781  -16.7413   24.0905 C   0  0  0  0  0  0  0  0  0  0  0  0
    8.9424  -17.3783   26.2595 O   0  0  0  0  0  0  0  0  0  0  0  0
    8.0323  -18.1643   26.6966 C   0  0  0  0  0  0  0  0  0  0  0  0
   11.0336  -20.3380   25.7440 C   0  0  2  0  0  0  0  0  0  0  0  0
   11.5851  -19.6655   26.9833 O   0  0  0  0  0  0  0  0  0  0  0  0
   12.7152  -18.9084   26.7039 C   0  0  2  0  0  0  0  0  0  0  0  0
   10.5284  -18.7766   27.6405 N   0  0  0  0  0  0  0  0  0  0  0  0
   10.2588  -17.7091   26.6857 C   0  0  0  0  0  0  0  0  0  0  0  0
   10.9811  -18.2804   28.9321 O   0  0  0  0  0  0  0  0  0  0  0  0
   11.2263  -17.0671   29.0933 O   0  0  0  0  0  0  0  0  0  0  0  0
  2  1  1  0
  3  2  2  0
  4  2  1  0
  5  4  1  0
  6  5  1  0
  7  8  1  0
  7  6  1  0
  8 10  1  0
  8  9  1  1
 10 17  1  0
 11 10  2  0
 13 14  1  0
 13 12  1  0
 14 15  1  0
 16 15  1  6
 17 16  1  0
 18 19  2  0
 18 16  1  0
 21 20  1  1
 21 23  1  0
 21 22  1  0
 23 24  1  1
 24 18  1  0
 25 27  1  0
 25 23  1  0
 26 25  2  0
M  END
$$$$
