RMT.pdb
     RDKit          3D

 27 26  0  0  1  0  0  0  0  0999 V2000
    8.8796  -15.1503   15.9733 N   0  0  0  0  0  0  0  0  0  0  0  0
    8.4840  -13.8339   16.3501 C   0  0  0  0  0  0  0  0  0  0  0  0
    7.6603  -13.1337   15.6397 N   0  0  0  0  0  0  0  0  0  0  0  0
    9.0190  -13.2913   17.5493 N   0  0  0  0  0  0  0  0  0  0  0  0
    8.3702  -13.6165   18.7913 C   0  0  0  0  0  0  0  0  0  0  0  0
    7.6635  -14.9720   18.6822 C   0  0  0  0  0  0  0  0  0  0  0  0
    6.9429  -15.2783   19.9798 C   0  0  0  0  0  0  0  0  0  0  0  0
    7.7502  -16.2914   20.7637 C   0  0  2  0  0  0  0  0  0  0  0  0
    6.8640  -17.3786   21.0826 N   0  0  0  0  0  0  0  0  0  0  0  0
    8.3489  -15.6814   21.9752 C   0  0  0  0  0  0  0  0  0  0  0  0
    9.5902  -15.3911   22.0492 O   0  0  0  0  0  0  0  0  0  0  0  0
    7.4073  -12.1887   15.9950 C   0  0  0  0  0  0  0  0  0  0  0  0
    6.8099  -10.5612   26.2215 S   0  0  0  0  0  0  0  0  0  0  0  0
    6.6828  -12.1346   27.0976 C   0  0  0  0  0  0  0  0  0  0  0  0
    7.7564  -13.3956   26.3544 C   0  0  0  0  0  0  0  0  0  0  0  0
    7.1596  -13.8976   25.0385 C   0  0  1  0  0  0  0  0  0  0  0  0
    8.0922  -14.7944   24.3165 N   0  0  0  0  0  0  0  0  0  0  0  0
    7.5883  -15.3865   23.1139 C   0  0  0  0  0  0  0  0  0  0  0  0
    8.4960  -15.8965   25.2277 O   0  0  0  0  0  0  0  0  0  0  0  0
    7.6519  -16.7551   25.6608 C   0  0  0  0  0  0  0  0  0  0  0  0
   12.4251  -16.9852   25.2078 C   0  0  2  0  0  0  0  0  0  0  0  0
   11.3034  -17.9552   25.5126 O   0  0  0  0  0  0  0  0  0  0  0  0
   11.7682  -19.1096   26.1288 C   0  0  1  0  0  0  0  0  0  0  0  0
   10.2390  -17.3021   26.3954 N   0  0  0  0  0  0  0  0  0  0  0  0
    9.8262  -16.0948   25.6913 C   0  0  0  0  0  0  0  0  0  0  0  0
   10.7504  -17.0320   27.7314 O   0  0  0  0  0  0  0  0  0  0  0  0
   10.8023  -15.8625   28.1646 O   0  0  0  0  0  0  0  0  0  0  0  0
  2  1  1  0
  3  2  2  0
  4  2  1  0
  5  4  1  0
  6  5  1  0
  7  8  1  0
  7  6  1  0
  8 10  1  0
  8  9  1  1
 10 17  1  0
 11 10  2  0
 13 14  1  0
 13 12  1  0
 14 15  1  0
 16 15  1  6
 17 16  1  0
 18 19  2  0
 18 16  1  0
 21 20  1  6
 21 23  1  0
 21 22  1  0
 23 24  1  6
 24 18  1  0
 25 27  1  0
 25 23  1  0
 26 25  2  0
M  END
$$$$
