RMT.pdb
     RDKit          3D

 27 26  0  0  1  0  0  0  0  0999 V2000
    8.4966  -12.1132   17.5064 N   0  0  0  0  0  0  0  0  0  0  0  0
    9.1086  -12.9085   18.5184 C   0  0  0  0  0  0  0  0  0  0  0  0
    9.5923  -12.3910   19.6009 N   0  0  0  0  0  0  0  0  0  0  0  0
    9.1774  -14.3132   18.3160 N   0  0  0  0  0  0  0  0  0  0  0  0
    7.9748  -15.0048   17.9356 C   0  0  0  0  0  0  0  0  0  0  0  0
    7.9656  -16.4186   18.5272 C   0  0  0  0  0  0  0  0  0  0  0  0
    7.0837  -16.4511   19.7592 C   0  0  0  0  0  0  0  0  0  0  0  0
    7.7964  -17.2158   20.8545 C   0  0  2  0  0  0  0  0  0  0  0  0
    6.8673  -18.1914   21.3587 N   0  0  0  0  0  0  0  0  0  0  0  0
    8.2850  -16.3044   21.9171 C   0  0  0  0  0  0  0  0  0  0  0  0
    9.3491  -15.6114   21.7838 O   0  0  0  0  0  0  0  0  0  0  0  0
    9.5708  -11.3539   19.6852 C   0  0  0  0  0  0  0  0  0  0  0  0
    7.1830  -11.3164   27.8387 S   0  0  0  0  0  0  0  0  0  0  0  0
    6.5035  -12.2980   26.4844 C   0  0  0  0  0  0  0  0  0  0  0  0
    7.6736  -13.5738   25.9385 C   0  0  0  0  0  0  0  0  0  0  0  0
    7.1065  -14.3434   24.7443 C   0  0  1  0  0  0  0  0  0  0  0  0
    8.0609  -15.3574   24.2381 N   0  0  0  0  0  0  0  0  0  0  0  0
    7.6083  -16.1485   23.1336 C   0  0  0  0  0  0  0  0  0  0  0  0
    8.4044  -16.2849   25.3470 O   0  0  0  0  0  0  0  0  0  0  0  0
    7.5012  -16.8624   26.0457 C   0  0  0  0  0  0  0  0  0  0  0  0
   10.3924  -19.3382   25.0085 C   0  0  2  0  0  0  0  0  0  0  0  0
   11.0343  -18.5638   26.1402 O   0  0  0  0  0  0  0  0  0  0  0  0
   12.1630  -17.8718   25.7212 C   0  0  2  0  0  0  0  0  0  0  0  0
   10.0411  -17.5835   26.7656 N   0  0  0  0  0  0  0  0  0  0  0  0
    9.7368  -16.6095   25.7253 C   0  0  0  0  0  0  0  0  0  0  0  0
   10.5845  -16.9742   27.9709 O   0  0  0  0  0  0  0  0  0  0  0  0
   10.8660  -15.7583   27.9936 O   0  0  0  0  0  0  0  0  0  0  0  0
  2  1  1  0
  3  2  2  0
  4  2  1  0
  5  4  1  0
  6  5  1  0
  7  8  1  0
  7  6  1  0
  8 10  1  0
  8  9  1  1
 10 17  1  0
 11 10  2  0
 13 14  1  0
 13 12  1  0
 14 15  1  0
 16 15  1  6
 17 16  1  0
 18 19  2  0
 18 16  1  0
 21 20  1  1
 21 23  1  0
 21 22  1  0
 23 24  1  1
 24 18  1  0
 25 27  1  0
 25 23  1  0
 26 25  2  0
M  END
$$$$
