RMT.pdb
     RDKit          3D

 27 26  0  0  1  0  0  0  0  0999 V2000
    8.2114  -16.3695   14.2327 N   0  0  0  0  0  0  0  0  0  0  0  0
    8.7516  -16.6516   15.5210 C   0  0  0  0  0  0  0  0  0  0  0  0
   10.0165  -16.5524   15.7730 N   0  0  0  0  0  0  0  0  0  0  0  0
    7.8564  -17.0498   16.5499 N   0  0  0  0  0  0  0  0  0  0  0  0
    8.2962  -16.9369   17.9149 C   0  0  0  0  0  0  0  0  0  0  0  0
    7.5879  -15.7667   18.6059 C   0  0  0  0  0  0  0  0  0  0  0  0
    8.5749  -14.6420   18.8460 C   0  0  0  0  0  0  0  0  0  0  0  0
    7.9092  -13.5745   19.6885 C   0  0  2  0  0  0  0  0  0  0  0  0
    8.1685  -12.3123   19.0492 N   0  0  0  0  0  0  0  0  0  0  0  0
    8.4017  -13.6073   21.0866 C   0  0  0  0  0  0  0  0  0  0  0  0
    9.5845  -13.2430   21.4009 O   0  0  0  0  0  0  0  0  0  0  0  0
   10.3233  -16.7253   16.7524 C   0  0  0  0  0  0  0  0  0  0  0  0
    7.2139  -10.8051   27.3158 S   0  0  0  0  0  0  0  0  0  0  0  0
    6.3938  -12.3692   26.9409 C   0  0  0  0  0  0  0  0  0  0  0  0
    7.4374  -13.4330   25.9045 C   0  0  0  0  0  0  0  0  0  0  0  0
    6.9799  -13.3730   24.4461 C   0  0  1  0  0  0  0  0  0  0  0  0
    7.9631  -14.0018   23.5333 N   0  0  0  0  0  0  0  0  0  0  0  0
    7.5983  -14.0408   22.1491 C   0  0  0  0  0  0  0  0  0  0  0  0
    8.2002  -15.3999   23.9773 O   0  0  0  0  0  0  0  0  0  0  0  0
    7.2399  -16.2341   24.1158 C   0  0  0  0  0  0  0  0  0  0  0  0
   10.1494  -17.9849   22.3420 C   0  0  2  0  0  0  0  0  0  0  0  0
   10.7119  -17.8985   23.7450 O   0  0  0  0  0  0  0  0  0  0  0  0
   11.8773  -17.1448   23.7918 C   0  0  2  0  0  0  0  0  0  0  0  0
    9.6852  -17.3061   24.7113 N   0  0  0  0  0  0  0  0  0  0  0  0
    9.4856  -15.9279   24.2817 C   0  0  0  0  0  0  0  0  0  0  0  0
   10.1346  -17.4098   26.0921 O   0  0  0  0  0  0  0  0  0  0  0  0
   10.4007  -16.3827   26.7498 O   0  0  0  0  0  0  0  0  0  0  0  0
  2  1  1  0
  3  2  2  0
  4  2  1  0
  5  4  1  0
  6  5  1  0
  7  8  1  0
  7  6  1  0
  8 10  1  0
  8  9  1  6
 10 17  1  0
 11 10  2  0
 13 14  1  0
 13 12  1  0
 14 15  1  0
 16 15  1  6
 17 16  1  0
 18 19  2  0
 18 16  1  0
 21 20  1  6
 21 23  1  0
 21 22  1  0
 23 24  1  1
 24 18  1  0
 25 27  1  0
 25 23  1  0
 26 25  2  0
M  END
$$$$
