RMT.pdb
     RDKit          3D

 27 26  0  0  1  0  0  0  0  0999 V2000
    9.2294  -11.9551   18.5332 N   0  0  0  0  0  0  0  0  0  0  0  0
    8.6758  -13.0058   17.7452 C   0  0  0  0  0  0  0  0  0  0  0  0
    9.2026  -13.3740   16.6225 N   0  0  0  0  0  0  0  0  0  0  0  0
    7.5100  -13.6604   18.2258 N   0  0  0  0  0  0  0  0  0  0  0  0
    7.1975  -13.5513   19.6258 C   0  0  0  0  0  0  0  0  0  0  0  0
    7.8743  -14.6804   20.4104 C   0  0  0  0  0  0  0  0  0  0  0  0
    6.8222  -15.6237   20.9584 C   0  0  0  0  0  0  0  0  0  0  0  0
    7.5100  -16.7528   21.6963 C   0  0  2  0  0  0  0  0  0  0  0  0
    6.4961  -17.7184   22.0258 N   0  0  0  0  0  0  0  0  0  0  0  0
    8.2230  -16.2554   22.8974 C   0  0  0  0  0  0  0  0  0  0  0  0
    9.4104  -15.7892   22.8404 O   0  0  0  0  0  0  0  0  0  0  0  0
    8.7301  -14.1418   16.1025 C   0  0  0  0  0  0  0  0  0  0  0  0
    7.0816  -11.3716   27.2157 S   0  0  0  0  0  0  0  0  0  0  0  0
    5.9586  -12.4886   26.3494 C   0  0  0  0  0  0  0  0  0  0  0  0
    6.8673  -13.6693   25.3125 C   0  0  0  0  0  0  0  0  0  0  0  0
    7.4038  -14.8234   26.1610 C   0  0  2  0  0  0  0  0  0  0  0  0
    8.2373  -15.7533   25.3636 N   0  0  0  0  0  0  0  0  0  0  0  0
    7.6367  -16.2672   24.1695 C   0  0  0  0  0  0  0  0  0  0  0  0
    8.6092  -16.9117   26.2166 O   0  0  0  0  0  0  0  0  0  0  0  0
    7.7263  -17.6974   26.7070 C   0  0  0  0  0  0  0  0  0  0  0  0
   10.2466  -19.9710   25.5744 C   0  0  2  0  0  0  0  0  0  0  0  0
   11.0935  -19.3339   26.6557 O   0  0  0  0  0  0  0  0  0  0  0  0
   12.2112  -18.6975   26.1323 C   0  0  2  0  0  0  0  0  0  0  0  0
   10.2759  -18.3331   27.4733 N   0  0  0  0  0  0  0  0  0  0  0  0
    9.9488  -17.2469   26.5584 C   0  0  0  0  0  0  0  0  0  0  0  0
   11.0089  -17.8831   28.6480 O   0  0  0  0  0  0  0  0  0  0  0  0
   11.3288  -16.6830   28.7729 O   0  0  0  0  0  0  0  0  0  0  0  0
  2  1  1  0
  3  2  2  0
  4  2  1  0
  5  4  1  0
  6  5  1  0
  7  8  1  0
  7  6  1  0
  8 10  1  0
  8  9  1  1
 10 17  1  0
 11 10  2  0
 13 14  1  0
 13 12  1  0
 14 15  1  0
 16 15  1  6
 17 16  1  0
 18 19  2  0
 18 16  1  0
 21 20  1  1
 21 23  1  0
 21 22  1  0
 23 24  1  1
 24 18  1  0
 25 27  1  0
 25 23  1  0
 26 25  2  0
M  END
$$$$
