RMT.pdb
     RDKit          3D

 27 26  0  0  1  0  0  0  0  0999 V2000
    9.9665  -13.4770   18.9321 N   0  0  0  0  0  0  0  0  0  0  0  0
    8.7411  -12.8607   18.5451 C   0  0  0  0  0  0  0  0  0  0  0  0
    8.4715  -11.6280   18.8301 N   0  0  0  0  0  0  0  0  0  0  0  0
    7.7991  -13.6398   17.8210 N   0  0  0  0  0  0  0  0  0  0  0  0
    8.0890  -15.0327   17.6087 C   0  0  0  0  0  0  0  0  0  0  0  0
    7.7530  -15.8426   18.8656 C   0  0  0  0  0  0  0  0  0  0  0  0
    9.0288  -16.1879   19.6072 C   0  0  0  0  0  0  0  0  0  0  0  0
    8.6812  -17.0194   20.8237 C   0  0  2  0  0  0  0  0  0  0  0  0
    7.2776  -17.3226   20.7384 N   0  0  0  0  0  0  0  0  0  0  0  0
    9.0266  -16.3087   22.0783 C   0  0  0  0  0  0  0  0  0  0  0  0
   10.2323  -16.0312   22.3941 O   0  0  0  0  0  0  0  0  0  0  0  0
    7.5681  -11.2445   18.4836 C   0  0  0  0  0  0  0  0  0  0  0  0
    7.1586  -11.0608   27.3466 S   0  0  0  0  0  0  0  0  0  0  0  0
    6.3722  -12.4866   26.5668 C   0  0  0  0  0  0  0  0  0  0  0  0
    7.5942  -13.7463   26.1032 C   0  0  0  0  0  0  0  0  0  0  0  0
    7.2241  -14.3820   24.7620 C   0  0  1  0  0  0  0  0  0  0  0  0
    8.3075  -15.2509   24.2458 N   0  0  0  0  0  0  0  0  0  0  0  0
    8.0500  -15.8983   22.9948 C   0  0  0  0  0  0  0  0  0  0  0  0
    8.5915  -16.3076   25.2511 O   0  0  0  0  0  0  0  0  0  0  0  0
    7.6758  -17.0911   25.6811 C   0  0  0  0  0  0  0  0  0  0  0  0
   12.5350  -17.4432   25.8393 C   0  0  2  0  0  0  0  0  0  0  0  0
   11.3648  -18.3948   25.9707 O   0  0  0  0  0  0  0  0  0  0  0  0
   11.7005  -19.5344   26.6898 C   0  0  1  0  0  0  0  0  0  0  0  0
   10.1720  -17.7075   26.6367 N   0  0  0  0  0  0  0  0  0  0  0  0
    9.8767  -16.5410   25.8146 C   0  0  0  0  0  0  0  0  0  0  0  0
   10.4619  -17.3658   28.0218 O   0  0  0  0  0  0  0  0  0  0  0  0
   10.4887  -16.1724   28.3868 O   0  0  0  0  0  0  0  0  0  0  0  0
  2  1  1  0
  3  2  2  0
  4  2  1  0
  5  4  1  0
  6  5  1  0
  7  8  1  0
  7  6  1  0
  8 10  1  0
  8  9  1  1
 10 17  1  0
 11 10  2  0
 13 14  1  0
 13 12  1  0
 14 15  1  0
 16 15  1  6
 17 16  1  0
 18 19  2  0
 18 16  1  0
 21 20  1  6
 21 23  1  0
 21 22  1  0
 23 24  1  6
 24 18  1  0
 25 27  1  0
 25 23  1  0
 26 25  2  0
M  END
$$$$
