RMT.pdb
     RDKit          3D

 27 26  0  0  1  0  0  0  0  0999 V2000
    9.1818  -12.8017   18.0915 N   0  0  0  0  0  0  0  0  0  0  0  0
    7.8274  -12.8581   18.5313 C   0  0  0  0  0  0  0  0  0  0  0  0
    6.8464  -12.4569   17.7895 N   0  0  0  0  0  0  0  0  0  0  0  0
    7.5652  -13.3778   19.8274 N   0  0  0  0  0  0  0  0  0  0  0  0
    8.6071  -14.1196   20.4858 C   0  0  0  0  0  0  0  0  0  0  0  0
    8.5523  -15.5940   20.0715 C   0  0  0  0  0  0  0  0  0  0  0  0
    9.7527  -16.3279   20.6347 C   0  0  0  0  0  0  0  0  0  0  0  0
    9.2830  -17.2921   21.7035 C   0  0  2  0  0  0  0  0  0  0  0  0
    7.8741  -17.4948   21.4966 N   0  0  0  0  0  0  0  0  0  0  0  0
    9.5828  -16.7781   23.0615 C   0  0  0  0  0  0  0  0  0  0  0  0
   10.7157  -16.2725   23.3638 O   0  0  0  0  0  0  0  0  0  0  0  0
    5.8823  -12.5977   18.1557 C   0  0  0  0  0  0  0  0  0  0  0  0
    6.7288  -11.3003   25.5618 S   0  0  0  0  0  0  0  0  0  0  0  0
    6.5923  -13.0062   26.1368 C   0  0  0  0  0  0  0  0  0  0  0  0
    7.9443  -14.0326   25.4938 C   0  0  0  0  0  0  0  0  0  0  0  0
    7.8083  -15.4713   25.9953 C   0  0  2  0  0  0  0  0  0  0  0  0
    8.8587  -16.3527   25.4341 N   0  0  0  0  0  0  0  0  0  0  0  0
    8.6401  -16.8163   24.0970 C   0  0  0  0  0  0  0  0  0  0  0  0
    8.9978  -17.5459   26.3086 O   0  0  0  0  0  0  0  0  0  0  0  0
    8.4486  -18.6636   26.0146 C   0  0  0  0  0  0  0  0  0  0  0  0
   10.0068  -20.0125   26.0968 C   0  0  2  0  0  0  0  0  0  0  0  0
   10.7921  -19.6849   27.3491 O   0  0  0  0  0  0  0  0  0  0  0  0
   12.0082  -19.0816   27.0565 C   0  0  2  0  0  0  0  0  0  0  0  0
    9.9862  -18.7774   28.2795 N   0  0  0  0  0  0  0  0  0  0  0  0
    9.7369  -17.5563   27.5241 C   0  0  0  0  0  0  0  0  0  0  0  0
   10.6932  -18.5363   29.5290 O   0  0  0  0  0  0  0  0  0  0  0  0
   11.1527  -17.4049   29.7880 O   0  0  0  0  0  0  0  0  0  0  0  0
  2  1  1  0
  3  2  2  0
  4  2  1  0
  5  4  1  0
  6  5  1  0
  7  8  1  0
  7  6  1  0
  8 10  1  0
  8  9  1  1
 10 17  1  0
 11 10  2  0
 13 14  1  0
 13 12  1  0
 14 15  1  0
 16 15  1  6
 17 16  1  0
 18 19  2  0
 18 16  1  0
 21 20  1  6
 21 23  1  0
 21 22  1  0
 23 24  1  1
 24 18  1  0
 25 27  1  0
 25 23  1  0
 26 25  2  0
M  END
$$$$
