RMT.pdb
     RDKit          3D

 27 26  0  0  1  0  0  0  0  0999 V2000
    7.6197  -14.7626   14.9922 N   0  0  0  0  0  0  0  0  0  0  0  0
    8.9375  -14.6604   15.5255 C   0  0  0  0  0  0  0  0  0  0  0  0
    9.9237  -15.3558   15.0593 N   0  0  0  0  0  0  0  0  0  0  0  0
    9.1566  -13.7582   16.6010 N   0  0  0  0  0  0  0  0  0  0  0  0
    8.0089  -13.1852   17.2521 C   0  0  0  0  0  0  0  0  0  0  0  0
    7.6464  -13.9969   18.5005 C   0  0  0  0  0  0  0  0  0  0  0  0
    8.7131  -13.8078   19.5603 C   0  0  0  0  0  0  0  0  0  0  0  0
    8.7698  -15.0472   20.4281 C   0  0  2  0  0  0  0  0  0  0  0  0
    7.5245  -15.7441   20.2470 N   0  0  0  0  0  0  0  0  0  0  0  0
    9.0171  -14.6995   21.8480 C   0  0  0  0  0  0  0  0  0  0  0  0
   10.1163  -14.1822   22.2412 O   0  0  0  0  0  0  0  0  0  0  0  0
   10.8544  -15.2236   15.5060 C   0  0  0  0  0  0  0  0  0  0  0  0
    6.7037  -11.6928   28.5968 S   0  0  0  0  0  0  0  0  0  0  0  0
    6.2558  -12.2425   26.9365 C   0  0  0  0  0  0  0  0  0  0  0  0
    7.4115  -13.4991   26.3199 C   0  0  0  0  0  0  0  0  0  0  0  0
    7.1296  -13.8087   24.8487 C   0  0  2  0  0  0  0  0  0  0  0  0
    8.2197  -14.6011   24.2331 N   0  0  0  0  0  0  0  0  0  0  0  0
    8.0586  -14.9179   22.8459 C   0  0  0  0  0  0  0  0  0  0  0  0
    8.3571  -15.8810   24.9755 O   0  0  0  0  0  0  0  0  0  0  0  0
    7.3428  -16.6092   25.2550 C   0  0  0  0  0  0  0  0  0  0  0  0
   10.0268  -18.8716   23.9817 C   0  0  2  0  0  0  0  0  0  0  0  0
   10.6381  -18.5440   25.3275 O   0  0  0  0  0  0  0  0  0  0  0  0
   11.8685  -17.9132   25.1993 C   0  0  2  0  0  0  0  0  0  0  0  0
    9.7005  -17.6643   26.1556 N   0  0  0  0  0  0  0  0  0  0  0  0
    9.5990  -16.4030   25.4327 C   0  0  0  0  0  0  0  0  0  0  0  0
   10.1912  -17.4997   27.5163 O   0  0  0  0  0  0  0  0  0  0  0  0
   10.2157  -18.4695   28.3018 O   0  0  0  0  0  0  0  0  0  0  0  0
  2  1  1  0
  3  2  2  0
  4  2  1  0
  5  4  1  0
  6  5  1  0
  7  8  1  0
  7  6  1  0
  8 10  1  0
  8  9  1  1
 10 17  1  0
 11 10  2  0
 13 14  1  0
 13 12  1  0
 14 15  1  0
 16 15  1  6
 17 16  1  0
 18 19  2  0
 18 16  1  0
 21 20  1  1
 21 23  1  0
 21 22  1  0
 23 24  1  1
 24 18  1  0
 25 27  1  0
 25 23  1  0
 26 25  2  0
M  END
$$$$
