RMT.pdb
     RDKit          3D

 27 26  0  0  1  0  0  0  0  0999 V2000
    8.5557  -13.2926   16.4915 N   0  0  0  0  0  0  0  0  0  0  0  0
    8.4054  -12.8443   17.8360 C   0  0  0  0  0  0  0  0  0  0  0  0
    8.9601  -11.7569   18.2642 N   0  0  0  0  0  0  0  0  0  0  0  0
    7.6146  -13.6279   18.7188 N   0  0  0  0  0  0  0  0  0  0  0  0
    7.2775  -14.9686   18.3209 C   0  0  0  0  0  0  0  0  0  0  0  0
    7.5429  -15.9464   19.4707 C   0  0  0  0  0  0  0  0  0  0  0  0
    8.9913  -15.8436   19.9047 C   0  0  0  0  0  0  0  0  0  0  0  0
    9.2363  -16.8195   21.0361 C   0  0  2  0  0  0  0  0  0  0  0  0
    8.1075  -17.7102   21.0746 N   0  0  0  0  0  0  0  0  0  0  0  0
    9.4372  -16.1119   22.3235 C   0  0  0  0  0  0  0  0  0  0  0  0
   10.4497  -15.3644   22.5392 O   0  0  0  0  0  0  0  0  0  0  0  0
    8.7891  -11.4924   19.2563 C   0  0  0  0  0  0  0  0  0  0  0  0
    7.0371  -11.6061   27.9918 S   0  0  0  0  0  0  0  0  0  0  0  0
    6.4975  -12.7410   26.6955 C   0  0  0  0  0  0  0  0  0  0  0  0
    7.7249  -14.0461   26.4041 C   0  0  0  0  0  0  0  0  0  0  0  0
    7.5159  -14.6785   25.0271 C   0  0  1  0  0  0  0  0  0  0  0  0
    8.6450  -15.5597   24.6477 N   0  0  0  0  0  0  0  0  0  0  0  0
    8.5273  -16.2208   23.3829 C   0  0  0  0  0  0  0  0  0  0  0  0
    8.8053  -16.6057   25.6908 O   0  0  0  0  0  0  0  0  0  0  0  0
    7.7987  -17.2166   26.1916 C   0  0  0  0  0  0  0  0  0  0  0  0
   10.3631  -19.8067   25.5123 C   0  0  2  0  0  0  0  0  0  0  0  0
   11.0561  -19.1310   26.6765 O   0  0  0  0  0  0  0  0  0  0  0  0
   12.2885  -18.6046   26.3127 C   0  0  2  0  0  0  0  0  0  0  0  0
   10.1835  -18.0210   27.2640 N   0  0  0  0  0  0  0  0  0  0  0  0
   10.0622  -17.0155   26.2162 C   0  0  0  0  0  0  0  0  0  0  0  0
   10.7550  -17.4916   28.4939 O   0  0  0  0  0  0  0  0  0  0  0  0
   10.8175  -18.2009   29.5192 O   0  0  0  0  0  0  0  0  0  0  0  0
  2  1  1  0
  3  2  2  0
  4  2  1  0
  5  4  1  0
  6  5  1  0
  7  8  1  0
  7  6  1  0
  8 10  1  0
  8  9  1  1
 10 17  1  0
 11 10  2  0
 13 14  1  0
 13 12  1  0
 14 15  1  0
 16 15  1  6
 17 16  1  0
 18 19  2  0
 18 16  1  0
 21 20  1  1
 21 23  1  0
 21 22  1  0
 23 24  1  1
 24 18  1  0
 25 27  1  0
 25 23  1  0
 26 25  2  0
M  END
$$$$
