RMT.pdb
     RDKit          3D

 27 26  0  0  1  0  0  0  0  0999 V2000
    9.6280  -14.1736   17.3809 N   0  0  0  0  0  0  0  0  0  0  0  0
    8.2696  -13.8197   17.1346 C   0  0  0  0  0  0  0  0  0  0  0  0
    7.7711  -13.7948   15.9411 N   0  0  0  0  0  0  0  0  0  0  0  0
    7.4510  -13.4899   18.2481 N   0  0  0  0  0  0  0  0  0  0  0  0
    7.7767  -14.0657   19.5254 C   0  0  0  0  0  0  0  0  0  0  0  0
    7.6360  -15.5908   19.4717 C   0  0  0  0  0  0  0  0  0  0  0  0
    7.8618  -16.1737   20.8523 C   0  0  0  0  0  0  0  0  0  0  0  0
    9.2252  -15.7436   21.3510 C   0  0  2  0  0  0  0  0  0  0  0  0
   10.1537  -16.7777   20.9801 N   0  0  0  0  0  0  0  0  0  0  0  0
    9.2113  -15.4999   22.8135 C   0  0  0  0  0  0  0  0  0  0  0  0
   10.2039  -15.7911   23.5621 O   0  0  0  0  0  0  0  0  0  0  0  0
    6.7900  -13.4622   15.8403 C   0  0  0  0  0  0  0  0  0  0  0  0
    6.4104  -10.1676   27.2386 S   0  0  0  0  0  0  0  0  0  0  0  0
    5.7576  -11.8238   26.9386 C   0  0  0  0  0  0  0  0  0  0  0  0
    7.0882  -13.0069   26.5857 C   0  0  0  0  0  0  0  0  0  0  0  0
    6.9992  -13.4957   25.1390 C   0  0  1  0  0  0  0  0  0  0  0  0
    8.1053  -14.4215   24.8005 N   0  0  0  0  0  0  0  0  0  0  0  0
    8.1066  -14.9351   23.4637 C   0  0  0  0  0  0  0  0  0  0  0  0
    8.0588  -15.5804   25.7293 O   0  0  0  0  0  0  0  0  0  0  0  0
    7.9739  -15.4243   26.9965 C   0  0  0  0  0  0  0  0  0  0  0  0
    6.4808  -19.2293   24.7480 C   0  0  2  0  0  0  0  0  0  0  0  0
    7.8403  -19.3034   25.4101 O   0  0  0  0  0  0  0  0  0  0  0  0
    8.8610  -19.4686   24.4832 C   0  0  2  0  0  0  0  0  0  0  0  0
    8.1115  -18.0518   26.2459 N   0  0  0  0  0  0  0  0  0  0  0  0
    8.1027  -16.9379   25.3063 C   0  0  0  0  0  0  0  0  0  0  0  0
    9.3641  -18.1646   26.9793 O   0  0  0  0  0  0  0  0  0  0  0  0
   10.3038  -17.3750   26.7519 O   0  0  0  0  0  0  0  0  0  0  0  0
  2  1  1  0
  3  2  2  0
  4  2  1  0
  5  4  1  0
  6  5  1  0
  7  8  1  0
  7  6  1  0
  8 10  1  0
  8  9  1  1
 10 17  1  0
 11 10  2  0
 13 14  1  0
 13 12  1  0
 14 15  1  0
 16 15  1  6
 17 16  1  0
 18 19  2  0
 18 16  1  0
 21 20  1  1
 21 23  1  0
 21 22  1  0
 23 24  1  1
 24 18  1  0
 25 27  1  0
 25 23  1  0
 26 25  2  0
M  END
$$$$
