RMT.pdb
     RDKit          3D

 27 26  0  0  1  0  0  0  0  0999 V2000
    8.0343  -15.5830   15.5107 N   0  0  0  0  0  0  0  0  0  0  0  0
    8.2224  -14.2767   16.0485 C   0  0  0  0  0  0  0  0  0  0  0  0
    7.6403  -13.2361   15.5467 N   0  0  0  0  0  0  0  0  0  0  0  0
    9.0775  -14.1326   17.1741 N   0  0  0  0  0  0  0  0  0  0  0  0
    8.5612  -14.4855   18.4695 C   0  0  0  0  0  0  0  0  0  0  0  0
    7.9800  -13.2494   19.1643 C   0  0  0  0  0  0  0  0  0  0  0  0
    7.4903  -13.6242   20.5486 C   0  0  0  0  0  0  0  0  0  0  0  0
    8.2339  -14.8574   21.0165 C   0  0  2  0  0  0  0  0  0  0  0  0
    7.3896  -15.9881   20.7379 N   0  0  0  0  0  0  0  0  0  0  0  0
    8.5866  -14.7606   22.4533 C   0  0  0  0  0  0  0  0  0  0  0  0
    9.6321  -14.1497   22.8585 O   0  0  0  0  0  0  0  0  0  0  0  0
    7.8661  -12.3123   15.9696 C   0  0  0  0  0  0  0  0  0  0  0  0
    6.9064  -10.5403   27.4544 S   0  0  0  0  0  0  0  0  0  0  0  0
    6.4657  -12.2738   27.2089 C   0  0  0  0  0  0  0  0  0  0  0  0
    7.3330  -12.9823   25.7804 C   0  0  0  0  0  0  0  0  0  0  0  0
    6.9718  -14.4594   25.6145 C   0  0  2  0  0  0  0  0  0  0  0  0
    8.0121  -15.2007   24.8638 N   0  0  0  0  0  0  0  0  0  0  0  0
    7.7933  -15.3347   23.4550 C   0  0  0  0  0  0  0  0  0  0  0  0
    8.1295  -16.5676   25.4346 O   0  0  0  0  0  0  0  0  0  0  0  0
    7.1060  -17.2141   25.8491 C   0  0  0  0  0  0  0  0  0  0  0  0
    9.2343  -19.7979   24.0998 C   0  0  2  0  0  0  0  0  0  0  0  0
   10.1410  -19.4990   25.2749 O   0  0  0  0  0  0  0  0  0  0  0  0
   11.3541  -18.9577   24.8701 C   0  0  2  0  0  0  0  0  0  0  0  0
    9.4638  -18.5461   26.2608 N   0  0  0  0  0  0  0  0  0  0  0  0
    9.3607  -17.2675   25.5693 C   0  0  0  0  0  0  0  0  0  0  0  0
   10.2080  -18.4569   27.5089 O   0  0  0  0  0  0  0  0  0  0  0  0
   10.7762  -17.3935   27.8322 O   0  0  0  0  0  0  0  0  0  0  0  0
  2  1  1  0
  3  2  2  0
  4  2  1  0
  5  4  1  0
  6  5  1  0
  7  8  1  0
  7  6  1  0
  8 10  1  0
  8  9  1  1
 10 17  1  0
 11 10  2  0
 13 14  1  0
 13 12  1  0
 14 15  1  0
 16 15  1  6
 17 16  1  0
 18 19  2  0
 18 16  1  0
 21 20  1  6
 21 23  1  0
 21 22  1  0
 23 24  1  1
 24 18  1  0
 25 27  1  0
 25 23  1  0
 26 25  2  0
M  END
$$$$
