IEC.pdb
     RDKit          3D

 24 23  0  0  1  0  0  0  0  0999 V2000
    7.0676  -12.2658   19.5925 C   0  0  0  0  0  0  0  0  0  0  0  0
    7.4391  -13.7115   19.5533 C   0  0  0  0  0  0  0  0  0  0  0  0
    7.9081  -14.2261   20.9014 C   0  0  2  0  0  0  0  0  0  0  0  0
    9.1386  -13.4693   21.3796 C   0  0  0  0  0  0  0  0  0  0  0  0
    8.3304  -15.6742   20.7526 C   0  0  2  0  0  0  0  0  0  0  0  0
    7.1379  -16.4235   20.4029 N   0  0  0  0  0  0  0  0  0  0  0  0
    8.8996  -16.2369   21.9725 C   0  0  0  0  0  0  0  0  0  0  0  0
    8.1603  -16.5829   22.9564 O   0  0  0  0  0  0  0  0  0  0  0  0
   10.2759  -16.4596   22.2083 N   0  0  0  0  0  0  0  0  0  0  0  0
   10.8615  -17.0060   23.3704 C   0  0  1  0  0  0  0  0  0  0  0  0
   12.2679  -17.4792   23.2711 C   0  0  0  0  0  0  0  0  0  0  0  0
   12.7523  -18.1117   24.5821 C   0  0  0  0  0  0  0  0  0  0  0  0
   14.1238  -18.6257   24.4342 C   0  0  0  0  0  0  0  0  0  0  0  0
   14.5735  -19.4283   25.2698 O   0  0  0  0  0  0  0  0  0  0  0  0
   10.8027  -15.9738   24.4355 C   0  0  0  0  0  0  0  0  0  0  0  0
   10.9871  -14.7703   24.1381 O   0  0  0  0  0  0  0  0  0  0  0  0
   14.9041  -18.2233   23.3809 O   0  0  0  0  0  0  0  0  0  0  0  0
   10.5406  -16.3100   25.7991 N   0  0  0  0  0  0  0  0  0  0  0  0
   10.4346  -15.2521   26.7840 C   0  0  1  0  0  0  0  0  0  0  0  0
    9.1343  -14.5201   26.5397 C   0  0  0  0  0  0  0  0  0  0  0  0
    8.9808  -13.0810   27.6231 S   0  0  0  0  0  0  0  0  0  0  0  0
   10.5156  -15.7861   28.1676 C   0  0  0  0  0  0  0  0  0  0  0  0
   10.5772  -17.1294   28.4565 O   0  0  0  0  0  0  0  0  0  0  0  0
   10.5276  -14.9622   29.1095 O   0  0  0  0  0  0  0  0  0  0  0  0
  2  1  1  0
  3  2  1  0
  3  4  1  6
  5  7  1  0
  5  3  1  0
  5  6  1  1
  7  8  2  0
  9 10  1  0
  9  7  1  0
 11 12  1  0
 10 11  1  6
 12 13  1  0
 13 14  2  0
 13 17  1  0
 15 10  1  0
 16 15  2  0
 18 15  1  0
 19 18  1  0
 19 20  1  1
 20 21  1  0
 22 19  1  0
 23 22  1  0
 24 22  2  0
M  END
$$$$
