IEC.pdb
     RDKit          3D

 24 23  0  0  1  0  0  0  0  0999 V2000
    7.3142  -12.0956   19.0195 C   0  0  0  0  0  0  0  0  0  0  0  0
    7.5876  -13.5504   19.2162 C   0  0  0  0  0  0  0  0  0  0  0  0
    7.5731  -13.9501   20.6798 C   0  0  2  0  0  0  0  0  0  0  0  0
    8.5853  -13.1424   21.4789 C   0  0  0  0  0  0  0  0  0  0  0  0
    7.9993  -15.4002   20.7953 C   0  0  2  0  0  0  0  0  0  0  0  0
    6.9719  -16.1910   20.1434 N   0  0  0  0  0  0  0  0  0  0  0  0
    8.1369  -15.8522   22.1757 C   0  0  0  0  0  0  0  0  0  0  0  0
    7.1195  -15.9919   22.9371 O   0  0  0  0  0  0  0  0  0  0  0  0
    9.3559  -16.1773   22.8144 N   0  0  0  0  0  0  0  0  0  0  0  0
    9.5268  -16.6236   24.1424 C   0  0  1  0  0  0  0  0  0  0  0  0
   10.6847  -17.5140   24.4220 C   0  0  0  0  0  0  0  0  0  0  0  0
   10.6968  -17.9959   25.8784 C   0  0  0  0  0  0  0  0  0  0  0  0
   11.8325  -18.9020   26.1154 C   0  0  0  0  0  0  0  0  0  0  0  0
   12.0078  -19.8778   25.3658 O   0  0  0  0  0  0  0  0  0  0  0  0
    9.6535  -15.4259   25.0100 C   0  0  0  0  0  0  0  0  0  0  0  0
   10.5501  -14.5835   24.7703 O   0  0  0  0  0  0  0  0  0  0  0  0
   12.6948  -18.6737   27.1569 O   0  0  0  0  0  0  0  0  0  0  0  0
    8.7801  -15.2003   26.1178 N   0  0  0  0  0  0  0  0  0  0  0  0
    9.0262  -14.0765   26.9993 C   0  0  1  0  0  0  0  0  0  0  0  0
    7.7099  -13.3675   27.2247 C   0  0  0  0  0  0  0  0  0  0  0  0
    6.9148  -12.9509   25.6556 S   0  0  0  0  0  0  0  0  0  0  0  0
    9.6443  -14.5123   28.2776 C   0  0  0  0  0  0  0  0  0  0  0  0
    9.9551  -15.8223   28.5585 O   0  0  0  0  0  0  0  0  0  0  0  0
    9.8898  -13.6337   29.1344 O   0  0  0  0  0  0  0  0  0  0  0  0
  2  1  1  0
  3  2  1  0
  3  4  1  1
  5  7  1  0
  5  3  1  0
  5  6  1  1
  7  8  2  0
  9 10  1  0
  9  7  1  0
 11 12  1  0
 10 11  1  6
 12 13  1  0
 13 14  2  0
 13 17  1  0
 15 10  1  0
 16 15  2  0
 18 15  1  0
 19 18  1  0
 19 20  1  1
 20 21  1  0
 22 19  1  0
 23 22  1  0
 24 22  2  0
M  END
$$$$
