IEC.pdb
     RDKit          3D

 24 23  0  0  1  0  0  0  0  0999 V2000
    5.8236  -11.0946   26.6294 C   0  0  0  0  0  0  0  0  0  0  0  0
    5.6213  -12.3428   25.8351 C   0  0  0  0  0  0  0  0  0  0  0  0
    6.8376  -13.2495   25.8608 C   0  0  2  0  0  0  0  0  0  0  0  0
    8.0451  -12.5653   25.2368 C   0  0  0  0  0  0  0  0  0  0  0  0
    6.5547  -14.4720   25.0104 C   0  0  2  0  0  0  0  0  0  0  0  0
    5.3734  -15.1045   25.5676 N   0  0  0  0  0  0  0  0  0  0  0  0
    7.6486  -15.4373   25.0068 C   0  0  0  0  0  0  0  0  0  0  0  0
    7.8419  -16.2313   25.9901 O   0  0  0  0  0  0  0  0  0  0  0  0
    8.5884  -15.6078   23.9641 N   0  0  0  0  0  0  0  0  0  0  0  0
    9.6713  -16.5126   23.9355 C   0  0  1  0  0  0  0  0  0  0  0  0
   10.4700  -16.5855   22.6830 C   0  0  0  0  0  0  0  0  0  0  0  0
   11.5916  -17.6276   22.7801 C   0  0  0  0  0  0  0  0  0  0  0  0
   12.2972  -17.7512   21.4940 C   0  0  0  0  0  0  0  0  0  0  0  0
   11.6462  -17.9191   20.4488 O   0  0  0  0  0  0  0  0  0  0  0  0
   10.5922  -16.1518   25.0423 C   0  0  0  0  0  0  0  0  0  0  0  0
   11.1362  -15.0227   25.0481 O   0  0  0  0  0  0  0  0  0  0  0  0
   13.6659  -17.6819   21.4457 O   0  0  0  0  0  0  0  0  0  0  0  0
   10.8809  -17.0568   26.1095 N   0  0  0  0  0  0  0  0  0  0  0  0
   11.4609  -16.5470   27.3360 C   0  0  1  0  0  0  0  0  0  0  0  0
   10.5592  -15.4492   27.8536 C   0  0  0  0  0  0  0  0  0  0  0  0
   11.1665  -14.7907   29.4239 S   0  0  0  0  0  0  0  0  0  0  0  0
   11.6483  -17.6261   28.3392 C   0  0  0  0  0  0  0  0  0  0  0  0
   12.4684  -17.5035   29.4365 O   0  0  0  0  0  0  0  0  0  0  0  0
   11.0228  -18.6963   28.1664 O   0  0  0  0  0  0  0  0  0  0  0  0
  2  1  1  0
  3  2  1  0
  3  4  1  6
  5  7  1  0
  5  3  1  0
  5  6  1  1
  7  8  2  0
  9 10  1  0
  9  7  1  0
 11 12  1  0
 10 11  1  6
 12 13  1  0
 13 14  2  0
 13 17  1  0
 15 10  1  0
 16 15  2  0
 18 15  1  0
 19 18  1  0
 19 20  1  1
 20 21  1  0
 22 19  1  0
 23 22  1  0
 24 22  2  0
M  END
$$$$
