IEC.pdb
     RDKit          3D

 24 23  0  0  1  0  0  0  0  0999 V2000
    5.9335  -10.7814   26.6393 C   0  0  0  0  0  0  0  0  0  0  0  0
    5.6004  -12.1379   26.1113 C   0  0  0  0  0  0  0  0  0  0  0  0
    6.8267  -13.0188   25.9619 C   0  0  2  0  0  0  0  0  0  0  0  0
    7.8498  -12.3819   25.0329 C   0  0  0  0  0  0  0  0  0  0  0  0
    6.4150  -14.3242   25.3105 C   0  0  2  0  0  0  0  0  0  0  0  0
    5.4616  -14.9549   26.2044 N   0  0  0  0  0  0  0  0  0  0  0  0
    7.5321  -15.2371   25.0929 C   0  0  0  0  0  0  0  0  0  0  0  0
    7.9339  -16.0314   26.0105 O   0  0  0  0  0  0  0  0  0  0  0  0
    8.2756  -15.3524   23.8956 N   0  0  0  0  0  0  0  0  0  0  0  0
    9.3084  -16.2746   23.6220 C   0  0  1  0  0  0  0  0  0  0  0  0
    9.8262  -16.3297   22.2290 C   0  0  0  0  0  0  0  0  0  0  0  0
   10.9217  -17.3915   22.0678 C   0  0  0  0  0  0  0  0  0  0  0  0
   10.9168  -17.9382   20.7010 C   0  0  0  0  0  0  0  0  0  0  0  0
   11.6965  -17.4759   19.8507 O   0  0  0  0  0  0  0  0  0  0  0  0
   10.4478  -15.9578   24.5191 C   0  0  0  0  0  0  0  0  0  0  0  0
   11.0064  -14.8390   24.4341 O   0  0  0  0  0  0  0  0  0  0  0  0
   10.0577  -18.9524   20.3640 O   0  0  0  0  0  0  0  0  0  0  0  0
   10.9322  -16.8939   25.4836 N   0  0  0  0  0  0  0  0  0  0  0  0
   11.4118  -16.4114   26.7633 C   0  0  1  0  0  0  0  0  0  0  0  0
   10.3295  -15.5452   27.3671 C   0  0  0  0  0  0  0  0  0  0  0  0
   10.9515  -14.6185   28.7892 S   0  0  0  0  0  0  0  0  0  0  0  0
   11.7867  -17.5328   27.6622 C   0  0  0  0  0  0  0  0  0  0  0  0
   11.1448  -18.7492   27.6607 O   0  0  0  0  0  0  0  0  0  0  0  0
   12.7362  -17.3493   28.4566 O   0  0  0  0  0  0  0  0  0  0  0  0
  2  1  1  0
  3  2  1  0
  3  4  1  6
  5  7  1  0
  5  3  1  0
  5  6  1  1
  7  8  2  0
  9 10  1  0
  9  7  1  0
 11 12  1  0
 10 11  1  6
 12 13  1  0
 13 14  2  0
 13 17  1  0
 15 10  1  0
 16 15  2  0
 18 15  1  0
 19 18  1  0
 19 20  1  1
 20 21  1  0
 22 19  1  0
 23 22  1  0
 24 22  2  0
M  END
$$$$
