IEC.pdb
     RDKit          3D

 24 23  0  0  1  0  0  0  0  0999 V2000
    5.9012  -11.1635   26.9019 C   0  0  0  0  0  0  0  0  0  0  0  0
    5.6592  -12.4511   26.1856 C   0  0  0  0  0  0  0  0  0  0  0  0
    6.9236  -13.2756   26.0325 C   0  0  2  0  0  0  0  0  0  0  0  0
    7.9570  -12.5435   25.1888 C   0  0  0  0  0  0  0  0  0  0  0  0
    6.5890  -14.5504   25.2837 C   0  0  2  0  0  0  0  0  0  0  0  0
    5.4992  -15.1837   26.0029 N   0  0  0  0  0  0  0  0  0  0  0  0
    7.7076  -15.4838   25.2061 C   0  0  0  0  0  0  0  0  0  0  0  0
    7.9822  -16.2786   26.1690 O   0  0  0  0  0  0  0  0  0  0  0  0
    8.5872  -15.6199   24.1072 N   0  0  0  0  0  0  0  0  0  0  0  0
    9.6660  -16.5222   23.9890 C   0  0  1  0  0  0  0  0  0  0  0  0
   10.4251  -16.5184   22.7101 C   0  0  0  0  0  0  0  0  0  0  0  0
   11.5975  -17.5074   22.7381 C   0  0  0  0  0  0  0  0  0  0  0  0
   12.1576  -17.6859   21.3885 C   0  0  0  0  0  0  0  0  0  0  0  0
   13.3879  -17.6316   21.2209 O   0  0  0  0  0  0  0  0  0  0  0  0
   10.6220  -16.2315   25.0867 C   0  0  0  0  0  0  0  0  0  0  0  0
   11.5762  -15.4453   24.8807 O   0  0  0  0  0  0  0  0  0  0  0  0
   11.3292  -17.9111   20.3192 O   0  0  0  0  0  0  0  0  0  0  0  0
   10.4889  -16.8233   26.3802 N   0  0  0  0  0  0  0  0  0  0  0  0
   11.4921  -16.5544   27.3911 C   0  0  1  0  0  0  0  0  0  0  0  0
   10.8465  -15.7198   28.4741 C   0  0  0  0  0  0  0  0  0  0  0  0
   10.9523  -13.9564   28.0907 S   0  0  0  0  0  0  0  0  0  0  0  0
   12.0692  -17.8110   27.9332 C   0  0  0  0  0  0  0  0  0  0  0  0
   13.2249  -17.8520   28.6779 O   0  0  0  0  0  0  0  0  0  0  0  0
   11.4642  -18.8800   27.6935 O   0  0  0  0  0  0  0  0  0  0  0  0
  2  1  1  0
  3  2  1  0
  3  4  1  6
  5  7  1  0
  5  3  1  0
  5  6  1  1
  7  8  2  0
  9 10  1  0
  9  7  1  0
 11 12  1  0
 10 11  1  6
 12 13  1  0
 13 14  2  0
 13 17  1  0
 15 10  1  0
 16 15  2  0
 18 15  1  0
 19 18  1  0
 19 20  1  1
 20 21  1  0
 22 19  1  0
 23 22  1  0
 24 22  2  0
M  END
$$$$
