IEC.pdb
     RDKit          3D

 24 23  0  0  1  0  0  0  0  0999 V2000
    5.6157  -11.2417   26.1465 C   0  0  0  0  0  0  0  0  0  0  0  0
    5.5148  -12.6373   25.6251 C   0  0  0  0  0  0  0  0  0  0  0  0
    6.8359  -13.3799   25.6977 C   0  0  2  0  0  0  0  0  0  0  0  0
    7.8958  -12.6984   24.8445 C   0  0  0  0  0  0  0  0  0  0  0  0
    6.6498  -14.7676   25.1169 C   0  0  2  0  0  0  0  0  0  0  0  0
    5.5992  -15.4060   25.8880 N   0  0  0  0  0  0  0  0  0  0  0  0
    7.8533  -15.5891   25.1898 C   0  0  0  0  0  0  0  0  0  0  0  0
    8.1324  -16.2737   26.2328 O   0  0  0  0  0  0  0  0  0  0  0  0
    8.8169  -15.7247   24.1638 N   0  0  0  0  0  0  0  0  0  0  0  0
    9.9171  -16.6085   24.1427 C   0  0  1  0  0  0  0  0  0  0  0  0
   10.7180  -16.6754   22.8913 C   0  0  0  0  0  0  0  0  0  0  0  0
   11.9380  -17.5933   23.0416 C   0  0  0  0  0  0  0  0  0  0  0  0
   12.6881  -17.6700   21.7773 C   0  0  0  0  0  0  0  0  0  0  0  0
   12.3653  -16.9393   20.8252 O   0  0  0  0  0  0  0  0  0  0  0  0
   10.8301  -16.2216   25.2473 C   0  0  0  0  0  0  0  0  0  0  0  0
   11.5944  -15.2393   25.0996 O   0  0  0  0  0  0  0  0  0  0  0  0
   13.7383  -18.5420   21.6471 O   0  0  0  0  0  0  0  0  0  0  0  0
   10.8663  -16.9381   26.4828 N   0  0  0  0  0  0  0  0  0  0  0  0
   11.8787  -16.6082   27.4660 C   0  0  1  0  0  0  0  0  0  0  0  0
   11.5490  -15.2451   28.0312 C   0  0  0  0  0  0  0  0  0  0  0  0
    9.8741  -15.2069   28.7105 S   0  0  0  0  0  0  0  0  0  0  0  0
   11.9616  -17.6413   28.5298 C   0  0  0  0  0  0  0  0  0  0  0  0
   12.9069  -17.6230   29.5288 O   0  0  0  0  0  0  0  0  0  0  0  0
   11.1234  -18.5704   28.5053 O   0  0  0  0  0  0  0  0  0  0  0  0
  2  1  1  0
  3  2  1  0
  3  4  1  6
  5  7  1  0
  5  3  1  0
  5  6  1  1
  7  8  2  0
  9 10  1  0
  9  7  1  0
 11 12  1  0
 10 11  1  6
 12 13  1  0
 13 14  2  0
 13 17  1  0
 15 10  1  0
 16 15  2  0
 18 15  1  0
 19 18  1  0
 19 20  1  1
 20 21  1  0
 22 19  1  0
 23 22  1  0
 24 22  2  0
M  END
$$$$
