IEC.pdb
     RDKit          3D

 24 23  0  0  1  0  0  0  0  0999 V2000
    7.3719  -12.1483   19.2176 C   0  0  0  0  0  0  0  0  0  0  0  0
    7.6738  -13.6107   19.2201 C   0  0  0  0  0  0  0  0  0  0  0  0
    7.9001  -14.1534   20.6188 C   0  0  2  0  0  0  0  0  0  0  0  0
    9.0461  -13.4287   21.3095 C   0  0  0  0  0  0  0  0  0  0  0  0
    8.3154  -15.6077   20.5182 C   0  0  2  0  0  0  0  0  0  0  0  0
    7.1887  -16.3259   19.9519 N   0  0  0  0  0  0  0  0  0  0  0  0
    8.6525  -16.2013   21.8076 C   0  0  0  0  0  0  0  0  0  0  0  0
    7.7612  -16.4105   22.6999 O   0  0  0  0  0  0  0  0  0  0  0  0
    9.9469  -16.6010   22.2130 N   0  0  0  0  0  0  0  0  0  0  0  0
   10.3211  -17.1197   23.4711 C   0  0  1  0  0  0  0  0  0  0  0  0
   11.6189  -17.8410   23.5561 C   0  0  0  0  0  0  0  0  0  0  0  0
   11.9054  -18.3365   24.9795 C   0  0  0  0  0  0  0  0  0  0  0  0
   13.1379  -19.1411   25.0101 C   0  0  0  0  0  0  0  0  0  0  0  0
   13.0791  -20.3452   25.3122 O   0  0  0  0  0  0  0  0  0  0  0  0
   10.3648  -15.9893   24.4323 C   0  0  0  0  0  0  0  0  0  0  0  0
   11.1461  -15.0320   24.2225 O   0  0  0  0  0  0  0  0  0  0  0  0
   14.3464  -18.5682   24.7074 O   0  0  0  0  0  0  0  0  0  0  0  0
    9.5389  -15.9569   25.5976 N   0  0  0  0  0  0  0  0  0  0  0  0
    9.6085  -14.8139   26.4861 C   0  0  1  0  0  0  0  0  0  0  0  0
    8.2200  -14.2253   26.5936 C   0  0  0  0  0  0  0  0  0  0  0  0
    8.1851  -12.8408   27.7556 S   0  0  0  0  0  0  0  0  0  0  0  0
   10.1527  -15.1904   27.8158 C   0  0  0  0  0  0  0  0  0  0  0  0
   10.3280  -16.4936   28.2190 O   0  0  0  0  0  0  0  0  0  0  0  0
   10.4637  -14.2661   28.6002 O   0  0  0  0  0  0  0  0  0  0  0  0
  2  1  1  0
  3  2  1  0
  3  4  1  6
  5  7  1  0
  5  3  1  0
  5  6  1  1
  7  8  2  0
  9 10  1  0
  9  7  1  0
 11 12  1  0
 10 11  1  6
 12 13  1  0
 13 14  2  0
 13 17  1  0
 15 10  1  0
 16 15  2  0
 18 15  1  0
 19 18  1  0
 19 20  1  1
 20 21  1  0
 22 19  1  0
 23 22  1  0
 24 22  2  0
M  END
$$$$
