IEC.pdb
     RDKit          3D

 24 23  0  0  1  0  0  0  0  0999 V2000
    8.1071  -11.6069   27.1253 C   0  0  0  0  0  0  0  0  0  0  0  0
    7.4756  -12.9207   26.8016 C   0  0  0  0  0  0  0  0  0  0  0  0
    6.9219  -12.9654   25.3897 C   0  0  2  0  0  0  0  0  0  0  0  0
    5.6803  -12.0953   25.2596 C   0  0  0  0  0  0  0  0  0  0  0  0
    6.4824  -14.3828   25.0809 C   0  0  2  0  0  0  0  0  0  0  0  0
    5.6359  -14.8068   26.1808 N   0  0  0  0  0  0  0  0  0  0  0  0
    7.5959  -15.3173   24.9560 C   0  0  0  0  0  0  0  0  0  0  0  0
    7.7860  -16.2477   25.8118 O   0  0  0  0  0  0  0  0  0  0  0  0
    8.5593  -15.3110   23.9210 N   0  0  0  0  0  0  0  0  0  0  0  0
    9.6071  -16.2371   23.7297 C   0  0  1  0  0  0  0  0  0  0  0  0
   10.3244  -16.2004   22.4275 C   0  0  0  0  0  0  0  0  0  0  0  0
   11.3522  -17.3332   22.3088 C   0  0  0  0  0  0  0  0  0  0  0  0
   11.2036  -18.0355   21.0235 C   0  0  0  0  0  0  0  0  0  0  0  0
   10.7371  -19.1872   21.0021 O   0  0  0  0  0  0  0  0  0  0  0  0
   10.6060  -16.0194   24.8059 C   0  0  0  0  0  0  0  0  0  0  0  0
   11.4184  -15.0698   24.7097 O   0  0  0  0  0  0  0  0  0  0  0  0
   11.5771  -17.4251   19.8538 O   0  0  0  0  0  0  0  0  0  0  0  0
   10.6720  -16.8634   25.9567 N   0  0  0  0  0  0  0  0  0  0  0  0
   11.6957  -16.6252   26.9548 C   0  0  1  0  0  0  0  0  0  0  0  0
   11.3686  -15.3243   27.6526 C   0  0  0  0  0  0  0  0  0  0  0  0
    9.8645  -15.4747   28.6442 S   0  0  0  0  0  0  0  0  0  0  0  0
   11.7952  -17.7556   27.9131 C   0  0  0  0  0  0  0  0  0  0  0  0
   12.7096  -17.7974   28.9397 O   0  0  0  0  0  0  0  0  0  0  0  0
   11.0016  -18.7124   27.7687 O   0  0  0  0  0  0  0  0  0  0  0  0
  2  1  1  0
  3  2  1  0
  3  4  1  1
  5  7  1  0
  5  3  1  0
  5  6  1  1
  7  8  2  0
  9 10  1  0
  9  7  1  0
 11 12  1  0
 10 11  1  6
 12 13  1  0
 13 14  2  0
 13 17  1  0
 15 10  1  0
 16 15  2  0
 18 15  1  0
 19 18  1  0
 19 20  1  1
 20 21  1  0
 22 19  1  0
 23 22  1  0
 24 22  2  0
M  END
$$$$
