IEC.pdb
     RDKit          3D

 24 23  0  0  1  0  0  0  0  0999 V2000
    7.3919  -12.6725   18.2281 C   0  0  0  0  0  0  0  0  0  0  0  0
    8.5241  -13.4007   18.8744 C   0  0  0  0  0  0  0  0  0  0  0  0
    8.1629  -13.9303   20.2495 C   0  0  2  0  0  0  0  0  0  0  0  0
    7.8450  -12.7930   21.2092 C   0  0  0  0  0  0  0  0  0  0  0  0
    9.3644  -14.6514   20.8274 C   0  0  2  0  0  0  0  0  0  0  0  0
    9.7143  -15.7002   19.8873 N   0  0  0  0  0  0  0  0  0  0  0  0
    9.1032  -15.2543   22.1301 C   0  0  0  0  0  0  0  0  0  0  0  0
    8.1018  -14.8997   22.8412 O   0  0  0  0  0  0  0  0  0  0  0  0
    9.8885  -16.2593   22.7408 N   0  0  0  0  0  0  0  0  0  0  0  0
    9.7335  -16.7859   24.0410 C   0  0  1  0  0  0  0  0  0  0  0  0
   10.4934  -18.0198   24.3752 C   0  0  0  0  0  0  0  0  0  0  0  0
    9.6822  -19.2883   24.0812 C   0  0  0  0  0  0  0  0  0  0  0  0
   10.5770  -20.4193   23.7862 C   0  0  0  0  0  0  0  0  0  0  0  0
   11.2515  -20.9246   24.6997 O   0  0  0  0  0  0  0  0  0  0  0  0
   10.1304  -15.7312   25.0072 C   0  0  0  0  0  0  0  0  0  0  0  0
   11.2556  -15.1896   24.9005 O   0  0  0  0  0  0  0  0  0  0  0  0
   10.6685  -20.9156   22.5112 O   0  0  0  0  0  0  0  0  0  0  0  0
    9.2647  -15.3100   26.0628 N   0  0  0  0  0  0  0  0  0  0  0  0
    9.7431  -14.3434   27.0310 C   0  0  1  0  0  0  0  0  0  0  0  0
    8.5941  -13.4217   27.3722 C   0  0  0  0  0  0  0  0  0  0  0  0
    7.8363  -12.7413   25.8785 S   0  0  0  0  0  0  0  0  0  0  0  0
   10.2936  -15.0094   28.2390 C   0  0  0  0  0  0  0  0  0  0  0  0
   10.9178  -14.3292   29.2585 O   0  0  0  0  0  0  0  0  0  0  0  0
   10.1775  -16.2528   28.3217 O   0  0  0  0  0  0  0  0  0  0  0  0
  2  1  1  0
  3  2  1  0
  3  4  1  1
  5  7  1  0
  5  3  1  0
  5  6  1  6
  7  8  2  0
  9 10  1  0
  9  7  1  0
 11 12  1  0
 10 11  1  6
 12 13  1  0
 13 14  2  0
 13 17  1  0
 15 10  1  0
 16 15  2  0
 18 15  1  0
 19 18  1  0
 19 20  1  1
 20 21  1  0
 22 19  1  0
 23 22  1  0
 24 22  2  0
M  END
$$$$
