IEC.pdb
     RDKit          3D

 24 23  0  0  1  0  0  0  0  0999 V2000
    6.9852  -12.0163   19.6252 C   0  0  0  0  0  0  0  0  0  0  0  0
    7.6304  -13.3585   19.5156 C   0  0  0  0  0  0  0  0  0  0  0  0
    7.8173  -14.0237   20.8663 C   0  0  2  0  0  0  0  0  0  0  0  0
    8.7192  -13.1926   21.7670 C   0  0  0  0  0  0  0  0  0  0  0  0
    8.5227  -15.3503   20.6652 C   0  0  2  0  0  0  0  0  0  0  0  0
    7.6560  -16.1622   19.8312 N   0  0  0  0  0  0  0  0  0  0  0  0
    8.7781  -16.0622   21.9128 C   0  0  0  0  0  0  0  0  0  0  0  0
    7.8218  -16.4649   22.6597 O   0  0  0  0  0  0  0  0  0  0  0  0
   10.0557  -16.3811   22.4281 N   0  0  0  0  0  0  0  0  0  0  0  0
   10.3460  -16.9589   23.6827 C   0  0  1  0  0  0  0  0  0  0  0  0
   11.5676  -17.8011   23.7827 C   0  0  0  0  0  0  0  0  0  0  0  0
   11.4939  -19.0268   22.8632 C   0  0  0  0  0  0  0  0  0  0  0  0
   12.7612  -19.7753   22.8942 C   0  0  0  0  0  0  0  0  0  0  0  0
   12.7430  -21.0105   23.0302 O   0  0  0  0  0  0  0  0  0  0  0  0
   10.4700  -15.8579   24.6706 C   0  0  0  0  0  0  0  0  0  0  0  0
   10.7231  -14.6972   24.2710 O   0  0  0  0  0  0  0  0  0  0  0  0
   13.9576  -19.1162   22.7739 O   0  0  0  0  0  0  0  0  0  0  0  0
   10.3091  -16.0799   26.0727 N   0  0  0  0  0  0  0  0  0  0  0  0
   10.2983  -14.9457   26.9750 C   0  0  1  0  0  0  0  0  0  0  0  0
    9.0396  -14.1521   26.7066 C   0  0  0  0  0  0  0  0  0  0  0  0
    8.9040  -12.7422   27.8300 S   0  0  0  0  0  0  0  0  0  0  0  0
   10.3865  -15.3776   28.3933 C   0  0  0  0  0  0  0  0  0  0  0  0
   10.7174  -14.5275   29.4227 O   0  0  0  0  0  0  0  0  0  0  0  0
   10.1452  -16.5780   28.6521 O   0  0  0  0  0  0  0  0  0  0  0  0
  2  1  1  0
  3  2  1  0
  3  4  1  1
  5  7  1  0
  5  3  1  0
  5  6  1  6
  7  8  2  0
  9 10  1  0
  9  7  1  0
 11 12  1  0
 10 11  1  6
 12 13  1  0
 13 14  2  0
 13 17  1  0
 15 10  1  0
 16 15  2  0
 18 15  1  0
 19 18  1  0
 19 20  1  1
 20 21  1  0
 22 19  1  0
 23 22  1  0
 24 22  2  0
M  END
$$$$
