IEC.pdb
     RDKit          3D

 24 23  0  0  1  0  0  0  0  0999 V2000
    7.0939  -12.2328   19.4154 C   0  0  0  0  0  0  0  0  0  0  0  0
    7.9156  -13.4763   19.3246 C   0  0  0  0  0  0  0  0  0  0  0  0
    7.9425  -14.2497   20.6297 C   0  0  2  0  0  0  0  0  0  0  0  0
    8.5730  -13.4257   21.7427 C   0  0  0  0  0  0  0  0  0  0  0  0
    8.8210  -15.4727   20.4558 C   0  0  2  0  0  0  0  0  0  0  0  0
    8.1701  -16.3185   19.4725 N   0  0  0  0  0  0  0  0  0  0  0  0
    8.9997  -16.2339   21.6876 C   0  0  0  0  0  0  0  0  0  0  0  0
    8.1883  -17.1636   22.0217 O   0  0  0  0  0  0  0  0  0  0  0  0
   10.0439  -16.0472   22.6226 N   0  0  0  0  0  0  0  0  0  0  0  0
   10.3114  -16.8310   23.7656 C   0  0  1  0  0  0  0  0  0  0  0  0
   11.2776  -17.9516   23.6168 C   0  0  0  0  0  0  0  0  0  0  0  0
   10.7202  -19.0734   22.7312 C   0  0  0  0  0  0  0  0  0  0  0  0
   11.7189  -20.1407   22.5563 C   0  0  0  0  0  0  0  0  0  0  0  0
   12.2621  -20.6445   23.5543 O   0  0  0  0  0  0  0  0  0  0  0  0
   10.8231  -15.9264   24.8254 C   0  0  0  0  0  0  0  0  0  0  0  0
   11.4405  -14.8849   24.5014 O   0  0  0  0  0  0  0  0  0  0  0  0
   12.0508  -20.5794   21.3003 O   0  0  0  0  0  0  0  0  0  0  0  0
   10.6331  -16.2064   26.2134 N   0  0  0  0  0  0  0  0  0  0  0  0
   10.4380  -15.1087   27.1395 C   0  0  1  0  0  0  0  0  0  0  0  0
    9.1372  -14.4260   26.7814 C   0  0  0  0  0  0  0  0  0  0  0  0
    8.8245  -13.0088   27.8593 S   0  0  0  0  0  0  0  0  0  0  0  0
   10.4454  -15.5774   28.5488 C   0  0  0  0  0  0  0  0  0  0  0  0
   10.2715  -16.8936   28.9082 O   0  0  0  0  0  0  0  0  0  0  0  0
   10.6195  -14.7220   29.4456 O   0  0  0  0  0  0  0  0  0  0  0  0
  2  1  1  0
  3  2  1  0
  3  4  1  1
  5  7  1  0
  5  3  1  0
  5  6  1  6
  7  8  2  0
  9 10  1  0
  9  7  1  0
 11 12  1  0
 10 11  1  6
 12 13  1  0
 13 14  2  0
 13 17  1  0
 15 10  1  0
 16 15  2  0
 18 15  1  0
 19 18  1  0
 19 20  1  6
 20 21  1  0
 22 19  1  0
 23 22  1  0
 24 22  2  0
M  END
$$$$
