IEC.pdb
     RDKit          3D

 24 23  0  0  1  0  0  0  0  0999 V2000
    7.1733  -12.1738   19.2831 C   0  0  0  0  0  0  0  0  0  0  0  0
    7.9899  -13.4214   19.3636 C   0  0  0  0  0  0  0  0  0  0  0  0
    7.8158  -14.1436   20.6865 C   0  0  2  0  0  0  0  0  0  0  0  0
    8.2488  -13.2660   21.8517 C   0  0  0  0  0  0  0  0  0  0  0  0
    8.7257  -15.3558   20.7058 C   0  0  2  0  0  0  0  0  0  0  0  0
    8.2489  -16.2528   19.6694 N   0  0  0  0  0  0  0  0  0  0  0  0
    8.7166  -16.0631   21.9818 C   0  0  0  0  0  0  0  0  0  0  0  0
    7.7191  -16.7766   22.3427 O   0  0  0  0  0  0  0  0  0  0  0  0
    9.7613  -16.0487   22.9347 N   0  0  0  0  0  0  0  0  0  0  0  0
    9.7551  -16.6501   24.2116 C   0  0  1  0  0  0  0  0  0  0  0  0
   10.6817  -17.7916   24.4354 C   0  0  0  0  0  0  0  0  0  0  0  0
   11.6140  -18.0147   23.2377 C   0  0  0  0  0  0  0  0  0  0  0  0
   12.5079  -19.1584   23.4823 C   0  0  0  0  0  0  0  0  0  0  0  0
   12.3991  -19.8101   24.5350 O   0  0  0  0  0  0  0  0  0  0  0  0
   10.0784  -15.5991   25.2088 C   0  0  0  0  0  0  0  0  0  0  0  0
   11.1306  -14.9303   25.0801 O   0  0  0  0  0  0  0  0  0  0  0  0
   13.4569  -19.5061   22.5557 O   0  0  0  0  0  0  0  0  0  0  0  0
    9.2226  -15.3230   26.3190 N   0  0  0  0  0  0  0  0  0  0  0  0
    9.6232  -14.3291   27.2948 C   0  0  1  0  0  0  0  0  0  0  0  0
    8.3947  -13.5358   27.6793 C   0  0  0  0  0  0  0  0  0  0  0  0
    7.5785  -12.8471   26.2206 S   0  0  0  0  0  0  0  0  0  0  0  0
   10.2677  -14.9557   28.4771 C   0  0  0  0  0  0  0  0  0  0  0  0
   10.8672  -14.2332   29.4823 O   0  0  0  0  0  0  0  0  0  0  0  0
   10.2583  -16.2050   28.5511 O   0  0  0  0  0  0  0  0  0  0  0  0
  2  1  1  0
  3  2  1  0
  3  4  1  1
  5  7  1  0
  5  3  1  0
  5  6  1  6
  7  8  2  0
  9 10  1  0
  9  7  1  0
 11 12  1  0
 10 11  1  6
 12 13  1  0
 13 14  2  0
 13 17  1  0
 15 10  1  0
 16 15  2  0
 18 15  1  0
 19 18  1  0
 19 20  1  1
 20 21  1  0
 22 19  1  0
 23 22  1  0
 24 22  2  0
M  END
$$$$
