NVT.pdb
     RDKit          3D

 23 22  0  0  1  0  0  0  0  0999 V2000
   18.6146  -11.8181  -19.9186 N   0  0  0  0  0  0  0  0  0  0  0  0
   17.9664  -10.6021  -19.5359 C   0  0  0  0  0  0  0  0  0  0  0  0
   17.2267  -10.0426  -20.3474 O   0  0  0  0  0  0  0  0  0  0  0  0
   18.2207  -10.0917  -18.1976 C   0  0  0  0  0  0  0  0  0  0  0  0
   19.1897  -10.9679  -17.4535 C   0  0  2  0  0  0  0  0  0  0  0  0
   18.4874  -12.1969  -17.0138 N   0  0  0  0  0  0  0  0  0  0  0  0
   19.6729  -10.3481  -16.1965 C   0  0  0  0  0  0  0  0  0  0  0  0
   19.0234  -10.4681  -15.1161 O   0  0  0  0  0  0  0  0  0  0  0  0
   23.8038   -9.5588  -15.7917 C   0  0  0  0  0  0  0  0  0  0  0  0
   22.7903   -9.8060  -14.7095 C   0  0  2  0  0  0  0  0  0  0  0  0
   22.6030  -11.2615  -14.4119 C   0  0  0  0  0  0  0  0  0  0  0  0
   21.4859   -9.0819  -14.9523 C   0  0  2  0  0  0  0  0  0  0  0  0
   20.8723   -9.6115  -16.1897 N   0  0  0  0  0  0  0  0  0  0  0  0
   21.6035   -7.6374  -15.1582 C   0  0  0  0  0  0  0  0  0  0  0  0
   22.0944   -7.1851  -16.2575 O   0  0  0  0  0  0  0  0  0  0  0  0
   20.1066   -3.0496  -14.4922 C   0  0  0  0  0  0  0  0  0  0  0  0
   20.0543   -4.5437  -14.2497 C   0  0  1  0  0  0  0  0  0  0  0  0
   19.0042   -5.1343  -14.9491 O   0  0  0  0  0  0  0  0  0  0  0  0
   21.3867   -5.2028  -14.5357 C   0  0  2  0  0  0  0  0  0  0  0  0
   21.2223   -6.6169  -14.2513 N   0  0  0  0  0  0  0  0  0  0  0  0
   22.4785   -4.6070  -13.7304 C   0  0  0  0  0  0  0  0  0  0  0  0
   23.2678   -3.5760  -14.2176 O   0  0  0  0  0  0  0  0  0  0  0  0
   22.7515   -5.0054  -12.5534 O   0  0  0  0  0  0  0  0  0  0  0  0
  2  1  1  0
  3  2  2  0
  4  2  1  0
  4  5  1  0
  5  6  1  1
  7  8  2  0
  7  5  1  0
 10  9  1  6
 10 12  1  0
 11 10  1  0
 12 13  1  6
 13  7  1  0
 14 12  1  0
 15 14  2  0
 17 16  1  6
 17 19  1  0
 18 17  1  0
 19 21  1  0
 19 20  1  1
 20 14  1  0
 21 22  1  0
 23 21  2  0
M  END
$$$$
