NVT.pdb
     RDKit          3D

 23 22  0  0  1  0  0  0  0  0999 V2000
   20.3098  -17.3837  -15.0809 N   0  0  0  0  0  0  0  0  0  0  0  0
   21.4337  -16.5709  -15.4294 C   0  0  0  0  0  0  0  0  0  0  0  0
   22.5677  -16.9974  -15.2038 O   0  0  0  0  0  0  0  0  0  0  0  0
   21.1698  -15.2753  -16.0360 C   0  0  0  0  0  0  0  0  0  0  0  0
   19.6934  -15.0118  -16.1419 C   0  0  2  0  0  0  0  0  0  0  0  0
   19.0949  -15.9951  -17.0755 N   0  0  0  0  0  0  0  0  0  0  0  0
   19.3893  -13.6935  -16.7480 C   0  0  0  0  0  0  0  0  0  0  0  0
   19.2813  -13.5595  -18.0025 O   0  0  0  0  0  0  0  0  0  0  0  0
   16.7938   -9.7739  -16.7715 C   0  0  0  0  0  0  0  0  0  0  0  0
   17.3046  -11.1134  -16.3197 C   0  0  2  0  0  0  0  0  0  0  0  0
   16.8016  -11.4984  -14.9630 C   0  0  0  0  0  0  0  0  0  0  0  0
   18.8049  -11.2424  -16.4501 C   0  0  2  0  0  0  0  0  0  0  0  0
   19.2148  -12.5638  -15.9267 N   0  0  0  0  0  0  0  0  0  0  0  0
   19.5833  -10.2604  -15.6936 C   0  0  0  0  0  0  0  0  0  0  0  0
   19.7967  -10.4420  -14.4384 O   0  0  0  0  0  0  0  0  0  0  0  0
   21.9793   -7.3977  -17.5181 C   0  0  0  0  0  0  0  0  0  0  0  0
   22.2292   -7.8876  -16.1069 C   0  0  1  0  0  0  0  0  0  0  0  0
   23.0710   -7.0225  -15.4116 O   0  0  0  0  0  0  0  0  0  0  0  0
   20.9335   -8.1545  -15.3709 C   0  0  2  0  0  0  0  0  0  0  0  0
   20.1660   -9.0698  -16.1960 N   0  0  0  0  0  0  0  0  0  0  0  0
   20.1863   -6.9034  -15.1027 C   0  0  0  0  0  0  0  0  0  0  0  0
   20.5894   -6.0062  -14.1250 O   0  0  0  0  0  0  0  0  0  0  0  0
   19.1390   -6.5840  -15.7504 O   0  0  0  0  0  0  0  0  0  0  0  0
  2  1  1  0
  3  2  2  0
  4  2  1  0
  4  5  1  0
  5  6  1  6
  7  8  2  0
  7  5  1  0
 10  9  1  1
 10 12  1  0
 11 10  1  0
 12 13  1  1
 13  7  1  0
 14 12  1  0
 15 14  2  0
 17 16  1  6
 17 19  1  0
 18 17  1  0
 19 21  1  0
 19 20  1  6
 20 14  1  0
 21 22  1  0
 23 21  2  0
M  END
$$$$
