NVT.pdb
     RDKit          3D

 23 22  0  0  1  0  0  0  0  0999 V2000
   15.8180  -11.1239  -19.5627 N   0  0  0  0  0  0  0  0  0  0  0  0
   17.2280  -11.0503  -19.3354 C   0  0  0  0  0  0  0  0  0  0  0  0
   17.9938  -11.3911  -20.2389 O   0  0  0  0  0  0  0  0  0  0  0  0
   17.6804  -10.5725  -18.0380 C   0  0  0  0  0  0  0  0  0  0  0  0
   18.7784  -11.4402  -17.4885 C   0  0  2  0  0  0  0  0  0  0  0  0
   18.1895  -12.7094  -16.9993 N   0  0  0  0  0  0  0  0  0  0  0  0
   19.4306  -10.8507  -16.2948 C   0  0  0  0  0  0  0  0  0  0  0  0
   18.8933  -10.9275  -15.1508 O   0  0  0  0  0  0  0  0  0  0  0  0
   22.5927  -11.8891  -14.9693 C   0  0  0  0  0  0  0  0  0  0  0  0
   22.7538  -10.4115  -15.1926 C   0  0  2  0  0  0  0  0  0  0  0  0
   23.7183   -9.7821  -14.2357 C   0  0  0  0  0  0  0  0  0  0  0  0
   21.4318   -9.6821  -15.2615 C   0  0  2  0  0  0  0  0  0  0  0  0
   20.6682  -10.1921  -16.4211 N   0  0  0  0  0  0  0  0  0  0  0  0
   21.5276   -8.2348  -15.4589 C   0  0  0  0  0  0  0  0  0  0  0  0
   22.0712   -7.7688  -16.5273 O   0  0  0  0  0  0  0  0  0  0  0  0
   19.9813   -3.6628  -14.9620 C   0  0  0  0  0  0  0  0  0  0  0  0
   19.9015   -5.1598  -14.7463 C   0  0  1  0  0  0  0  0  0  0  0  0
   18.9816   -5.7483  -15.6112 O   0  0  0  0  0  0  0  0  0  0  0  0
   21.2674   -5.8082  -14.8215 C   0  0  2  0  0  0  0  0  0  0  0  0
   21.0706   -7.2253  -14.5749 N   0  0  0  0  0  0  0  0  0  0  0  0
   22.2134   -5.2110  -13.8499 C   0  0  0  0  0  0  0  0  0  0  0  0
   23.0723   -4.1813  -14.2040 O   0  0  0  0  0  0  0  0  0  0  0  0
   22.2903   -5.6069  -12.6434 O   0  0  0  0  0  0  0  0  0  0  0  0
  2  1  1  0
  3  2  2  0
  4  2  1  0
  4  5  1  0
  5  6  1  1
  7  8  2  0
  7  5  1  0
 10  9  1  1
 10 12  1  0
 11 10  1  0
 12 13  1  6
 13  7  1  0
 14 12  1  0
 15 14  2  0
 17 16  1  6
 17 19  1  0
 18 17  1  0
 19 21  1  0
 19 20  1  1
 20 14  1  0
 21 22  1  0
 23 21  2  0
M  END
$$$$
