NVT.pdb
     RDKit          3D

 23 22  0  0  1  0  0  0  0  0999 V2000
   15.0046  -10.4253  -17.8761 N   0  0  0  0  0  0  0  0  0  0  0  0
   16.4125  -10.5541  -18.0919 C   0  0  0  0  0  0  0  0  0  0  0  0
   16.8084  -11.0473  -19.1496 O   0  0  0  0  0  0  0  0  0  0  0  0
   17.3037  -10.0907  -17.0397 C   0  0  0  0  0  0  0  0  0  0  0  0
   18.2168  -11.1903  -16.5732 C   0  0  2  0  0  0  0  0  0  0  0  0
   17.4189  -12.1975  -15.8345 N   0  0  0  0  0  0  0  0  0  0  0  0
   19.2220  -10.7209  -15.5898 C   0  0  0  0  0  0  0  0  0  0  0  0
   18.9313  -10.6026  -14.3630 O   0  0  0  0  0  0  0  0  0  0  0  0
   22.7016  -12.1652  -15.2983 C   0  0  0  0  0  0  0  0  0  0  0  0
   22.8592  -10.6734  -15.3941 C   0  0  2  0  0  0  0  0  0  0  0  0
   24.0316  -10.1629  -14.6151 C   0  0  0  0  0  0  0  0  0  0  0  0
   21.5798   -9.9287  -15.0887 C   0  0  2  0  0  0  0  0  0  0  0  0
   20.5250  -10.3985  -16.0133 N   0  0  0  0  0  0  0  0  0  0  0  0
   21.6445   -8.4776  -15.2700 C   0  0  0  0  0  0  0  0  0  0  0  0
   22.3918   -7.7687  -14.5000 O   0  0  0  0  0  0  0  0  0  0  0  0
   22.5078   -6.3265  -18.3538 C   0  0  0  0  0  0  0  0  0  0  0  0
   21.1627   -5.9178  -17.7903 C   0  0  1  0  0  0  0  0  0  0  0  0
   20.1162   -6.4370  -18.5492 O   0  0  0  0  0  0  0  0  0  0  0  0
   21.0438   -6.2650  -16.3216 C   0  0  2  0  0  0  0  0  0  0  0  0
   20.9519   -7.7116  -16.2411 N   0  0  0  0  0  0  0  0  0  0  0  0
   19.8732   -5.6076  -15.6946 C   0  0  0  0  0  0  0  0  0  0  0  0
   19.7661   -4.2273  -15.6137 O   0  0  0  0  0  0  0  0  0  0  0  0
   18.9063   -6.2687  -15.1982 O   0  0  0  0  0  0  0  0  0  0  0  0
  2  1  1  0
  3  2  2  0
  4  2  1  0
  4  5  1  0
  5  6  1  1
  7  8  2  0
  7  5  1  0
 10  9  1  1
 10 12  1  0
 11 10  1  0
 12 13  1  6
 13  7  1  0
 14 12  1  0
 15 14  2  0
 17 16  1  6
 17 19  1  0
 18 17  1  0
 19 21  1  0
 19 20  1  6
 20 14  1  0
 21 22  1  0
 23 21  2  0
M  END
$$$$
