NVT.pdb
     RDKit          3D

 23 22  0  0  1  0  0  0  0  0999 V2000
   23.6334  -11.0221  -21.0690 N   0  0  0  0  0  0  0  0  0  0  0  0
   23.2508  -10.3829  -19.8482 C   0  0  0  0  0  0  0  0  0  0  0  0
   22.7791   -9.2453  -19.8961 O   0  0  0  0  0  0  0  0  0  0  0  0
   23.4427  -11.1202  -18.6090 C   0  0  0  0  0  0  0  0  0  0  0  0
   22.1282  -11.5515  -18.0204 C   0  0  2  0  0  0  0  0  0  0  0  0
   21.3587  -12.2892  -19.0503 N   0  0  0  0  0  0  0  0  0  0  0  0
   21.2593  -10.4060  -17.6594 C   0  0  0  0  0  0  0  0  0  0  0  0
   20.4328   -9.9247  -18.4892 O   0  0  0  0  0  0  0  0  0  0  0  0
   18.3841  -10.1283  -15.8496 C   0  0  0  0  0  0  0  0  0  0  0  0
   19.3671   -9.3053  -15.0649 C   0  0  2  0  0  0  0  0  0  0  0  0
   18.7040   -8.2769  -14.2020 C   0  0  0  0  0  0  0  0  0  0  0  0
   20.4684   -8.7304  -15.9258 C   0  0  2  0  0  0  0  0  0  0  0  0
   21.3441   -9.8343  -16.3758 N   0  0  0  0  0  0  0  0  0  0  0  0
   21.3517   -7.7763  -15.2535 C   0  0  0  0  0  0  0  0  0  0  0  0
   22.1402   -8.1805  -14.3213 O   0  0  0  0  0  0  0  0  0  0  0  0
   23.7343   -5.3327  -17.0502 C   0  0  0  0  0  0  0  0  0  0  0  0
   22.9547   -4.5977  -15.9797 C   0  0  1  0  0  0  0  0  0  0  0  0
   21.9281   -3.8358  -16.5331 O   0  0  0  0  0  0  0  0  0  0  0  0
   22.4631   -5.5395  -14.9012 C   0  0  2  0  0  0  0  0  0  0  0  0
   21.4564   -6.3869  -15.5145 N   0  0  0  0  0  0  0  0  0  0  0  0
   21.9210   -4.8040  -13.7347 C   0  0  0  0  0  0  0  0  0  0  0  0
   22.7461   -4.1265  -12.8495 O   0  0  0  0  0  0  0  0  0  0  0  0
   20.6754   -4.7529  -13.4812 O   0  0  0  0  0  0  0  0  0  0  0  0
  2  1  1  0
  3  2  2  0
  4  2  1  0
  4  5  1  0
  5  6  1  6
  7  8  2  0
  7  5  1  0
 10  9  1  6
 10 12  1  0
 11 10  1  0
 12 13  1  1
 13  7  1  0
 14 12  1  0
 15 14  2  0
 17 16  1  6
 17 19  1  0
 18 17  1  0
 19 21  1  0
 19 20  1  6
 20 14  1  0
 21 22  1  0
 23 21  2  0
M  END
$$$$
