NVT.pdb
     RDKit          3D

 23 22  0  0  1  0  0  0  0  0999 V2000
   18.8685  -26.1549   -8.3211 N   0  0  0  0  0  0  0  0  0  0  0  0
   17.8199  -25.3068   -8.7969 C   0  0  0  0  0  0  0  0  0  0  0  0
   16.7201  -25.8046   -9.0452 O   0  0  0  0  0  0  0  0  0  0  0  0
   18.1156  -23.8921   -8.9616 C   0  0  0  0  0  0  0  0  0  0  0  0
   19.5016  -23.5637   -8.4802 C   0  0  2  0  0  0  0  0  0  0  0  0
   19.4742  -23.4049   -7.0068 N   0  0  0  0  0  0  0  0  0  0  0  0
   19.9880  -22.2572   -8.9841 C   0  0  0  0  0  0  0  0  0  0  0  0
   19.4416  -21.1729   -8.6248 O   0  0  0  0  0  0  0  0  0  0  0  0
   23.4491  -20.9407   -8.5970 C   0  0  0  0  0  0  0  0  0  0  0  0
   23.1453  -20.9483  -10.0691 C   0  0  2  0  0  0  0  0  0  0  0  0
   23.8951  -19.8930  -10.8215 C   0  0  0  0  0  0  0  0  0  0  0  0
   21.6623  -20.9383  -10.3610 C   0  0  2  0  0  0  0  0  0  0  0  0
   21.0749  -22.2068   -9.8772 N   0  0  0  0  0  0  0  0  0  0  0  0
   21.3063  -20.8549  -11.7784 C   0  0  0  0  0  0  0  0  0  0  0  0
   21.5725  -21.8373  -12.5645 O   0  0  0  0  0  0  0  0  0  0  0  0
   19.0422  -17.6919  -13.3266 C   0  0  0  0  0  0  0  0  0  0  0  0
   18.9837  -19.0675  -13.9577 C   0  0  1  0  0  0  0  0  0  0  0  0
   18.5270  -19.0032  -15.2722 O   0  0  0  0  0  0  0  0  0  0  0  0
   20.3064  -19.7940  -13.8368 C   0  0  2  0  0  0  0  0  0  0  0  0
   20.6683  -19.7702  -12.4310 N   0  0  0  0  0  0  0  0  0  0  0  0
   21.3537  -19.1726  -14.6810 C   0  0  0  0  0  0  0  0  0  0  0  0
   21.3659  -19.3226  -16.0596 O   0  0  0  0  0  0  0  0  0  0  0  0
   22.2950  -18.4708  -14.1913 O   0  0  0  0  0  0  0  0  0  0  0  0
  2  1  1  0
  3  2  2  0
  4  2  1  0
  4  5  1  0
  5  6  1  1
  7  8  2  0
  7  5  1  0
 10  9  1  1
 10 12  1  0
 11 10  1  0
 12 13  1  6
 13  7  1  0
 14 12  1  0
 15 14  2  0
 17 16  1  6
 17 19  1  0
 18 17  1  0
 19 21  1  0
 19 20  1  1
 20 14  1  0
 21 22  1  0
 23 21  2  0
M  END
$$$$
