NVT.pdb
     RDKit          3D

 23 22  0  0  1  0  0  0  0  0999 V2000
   28.9698  -20.1958  -17.1520 N   0  0  0  0  0  0  0  0  0  0  0  0
   27.6028  -19.8421  -17.3787 C   0  0  0  0  0  0  0  0  0  0  0  0
   27.3354  -19.0606  -18.2934 O   0  0  0  0  0  0  0  0  0  0  0  0
   26.5978  -20.4312  -16.5075 C   0  0  0  0  0  0  0  0  0  0  0  0
   27.2315  -21.2494  -15.4170 C   0  0  2  0  0  0  0  0  0  0  0  0
   27.7229  -22.5229  -15.9946 N   0  0  0  0  0  0  0  0  0  0  0  0
   26.2614  -21.6653  -14.3761 C   0  0  0  0  0  0  0  0  0  0  0  0
   25.6129  -22.7478  -14.4813 O   0  0  0  0  0  0  0  0  0  0  0  0
   26.9021  -21.3201  -10.5097 C   0  0  0  0  0  0  0  0  0  0  0  0
   25.5810  -20.6981  -10.8665 C   0  0  2  0  0  0  0  0  0  0  0  0
   24.5718  -20.8090   -9.7660 C   0  0  0  0  0  0  0  0  0  0  0  0
   25.0520  -21.1719  -12.2007 C   0  0  2  0  0  0  0  0  0  0  0  0
   26.0482  -20.8528  -13.2466 N   0  0  0  0  0  0  0  0  0  0  0  0
   23.8061  -20.5397  -12.6377 C   0  0  0  0  0  0  0  0  0  0  0  0
   23.7051  -19.2577  -12.6403 O   0  0  0  0  0  0  0  0  0  0  0  0
   22.1939  -20.3923  -15.8363 C   0  0  0  0  0  0  0  0  0  0  0  0
   21.1139  -20.8696  -14.8877 C   0  0  1  0  0  0  0  0  0  0  0  0
   20.8734  -22.2334  -15.0383 O   0  0  0  0  0  0  0  0  0  0  0  0
   21.4205  -20.4880  -13.4552 C   0  0  2  0  0  0  0  0  0  0  0  0
   22.6323  -21.1966  -13.0850 N   0  0  0  0  0  0  0  0  0  0  0  0
   20.2969  -20.8159  -12.5467 C   0  0  0  0  0  0  0  0  0  0  0  0
   19.0915  -20.1320  -12.5980 O   0  0  0  0  0  0  0  0  0  0  0  0
   20.3743  -21.7380  -11.6737 O   0  0  0  0  0  0  0  0  0  0  0  0
  2  1  1  0
  3  2  2  0
  4  2  1  0
  4  5  1  0
  5  6  1  6
  7  8  2  0
  7  5  1  0
 10  9  1  1
 10 12  1  0
 11 10  1  0
 12 13  1  6
 13  7  1  0
 14 12  1  0
 15 14  2  0
 17 16  1  6
 17 19  1  0
 18 17  1  0
 19 21  1  0
 19 20  1  1
 20 14  1  0
 21 22  1  0
 23 21  2  0
M  END
$$$$
