NVT.pdb
     RDKit          3D

 23 22  0  0  1  0  0  0  0  0999 V2000
   19.0643  -20.1299  -17.3549 N   0  0  0  0  0  0  0  0  0  0  0  0
   19.6429  -20.6458  -16.1531 C   0  0  0  0  0  0  0  0  0  0  0  0
   19.1393  -21.6425  -15.6318 O   0  0  0  0  0  0  0  0  0  0  0  0
   20.8036  -19.9568  -15.6107 C   0  0  0  0  0  0  0  0  0  0  0  0
   21.0741  -20.3751  -14.1922 C   0  0  2  0  0  0  0  0  0  0  0  0
   20.1735  -19.6211  -13.2881 N   0  0  0  0  0  0  0  0  0  0  0  0
   22.4390  -20.0146  -13.7395 C   0  0  0  0  0  0  0  0  0  0  0  0
   22.7225  -18.8295  -13.3955 O   0  0  0  0  0  0  0  0  0  0  0  0
   24.2969  -20.8932  -10.8531 C   0  0  0  0  0  0  0  0  0  0  0  0
   25.1398  -21.3992  -11.9902 C   0  0  2  0  0  0  0  0  0  0  0  0
   26.6005  -21.4253  -11.6625 C   0  0  0  0  0  0  0  0  0  0  0  0
   24.8417  -20.6996  -13.2965 C   0  0  2  0  0  0  0  0  0  0  0  0
   23.4460  -20.9967  -13.6862 N   0  0  0  0  0  0  0  0  0  0  0  0
   25.6653  -21.1200  -14.4312 C   0  0  0  0  0  0  0  0  0  0  0  0
   25.5635  -22.3182  -14.8873 O   0  0  0  0  0  0  0  0  0  0  0  0
   28.9674  -20.0167  -18.0220 C   0  0  0  0  0  0  0  0  0  0  0  0
   28.0307  -19.6135  -16.9022 C   0  0  1  0  0  0  0  0  0  0  0  0
   27.1247  -18.6430  -17.3238 O   0  0  0  0  0  0  0  0  0  0  0  0
   27.3491  -20.8158  -16.2844 C   0  0  2  0  0  0  0  0  0  0  0  0
   26.6118  -20.3308  -15.1317 N   0  0  0  0  0  0  0  0  0  0  0  0
   28.3237  -21.8662  -15.9070 C   0  0  0  0  0  0  0  0  0  0  0  0
   28.6171  -22.9282  -16.7492 O   0  0  0  0  0  0  0  0  0  0  0  0
   28.9425  -21.8528  -14.7956 O   0  0  0  0  0  0  0  0  0  0  0  0
  2  1  1  0
  3  2  2  0
  4  2  1  0
  4  5  1  0
  5  6  1  1
  7  8  2  0
  7  5  1  0
 10  9  1  1
 10 12  1  0
 11 10  1  0
 12 13  1  6
 13  7  1  0
 14 12  1  0
 15 14  2  0
 17 16  1  6
 17 19  1  0
 18 17  1  0
 19 21  1  0
 19 20  1  1
 20 14  1  0
 21 22  1  0
 23 21  2  0
M  END
$$$$
