NVT.pdb
     RDKit          3D

 23 22  0  0  1  0  0  0  0  0999 V2000
   16.8710  -24.5512   -7.5097 N   0  0  0  0  0  0  0  0  0  0  0  0
   18.0537  -24.6341   -8.3094 C   0  0  0  0  0  0  0  0  0  0  0  0
   18.5748  -25.7368   -8.4863 O   0  0  0  0  0  0  0  0  0  0  0  0
   18.5777  -23.3996   -8.8728 C   0  0  0  0  0  0  0  0  0  0  0  0
   20.0140  -23.1870   -8.4827 C   0  0  2  0  0  0  0  0  0  0  0  0
   20.0803  -22.8952   -7.0310 N   0  0  0  0  0  0  0  0  0  0  0  0
   20.6117  -21.9935   -9.1277 C   0  0  0  0  0  0  0  0  0  0  0  0
   20.3365  -20.8252   -8.7244 O   0  0  0  0  0  0  0  0  0  0  0  0
   23.9879  -21.0346   -9.0235 C   0  0  0  0  0  0  0  0  0  0  0  0
   23.7015  -21.1542  -10.4942 C   0  0  2  0  0  0  0  0  0  0  0  0
   24.5694  -20.2638  -11.3283 C   0  0  0  0  0  0  0  0  0  0  0  0
   22.2316  -21.0149  -10.8178 C   0  0  2  0  0  0  0  0  0  0  0  0
   21.5019  -22.1475  -10.2071 N   0  0  0  0  0  0  0  0  0  0  0  0
   21.9002  -21.0556  -12.2430 C   0  0  0  0  0  0  0  0  0  0  0  0
   22.1412  -22.1180  -12.9264 O   0  0  0  0  0  0  0  0  0  0  0  0
   19.4879  -18.1759  -14.0437 C   0  0  0  0  0  0  0  0  0  0  0  0
   19.5768  -19.5903  -14.5782 C   0  0  1  0  0  0  0  0  0  0  0  0
   19.1224  -19.6649  -15.8929 O   0  0  0  0  0  0  0  0  0  0  0  0
   20.9676  -20.1641  -14.4103 C   0  0  2  0  0  0  0  0  0  0  0  0
   21.3132  -20.0166  -13.0080 N   0  0  0  0  0  0  0  0  0  0  0  0
   21.9506  -19.4881  -15.2892 C   0  0  0  0  0  0  0  0  0  0  0  0
   22.9354  -18.6551  -14.7798 O   0  0  0  0  0  0  0  0  0  0  0  0
   21.9464  -19.6333  -16.5530 O   0  0  0  0  0  0  0  0  0  0  0  0
  2  1  1  0
  3  2  2  0
  4  2  1  0
  4  5  1  0
  5  6  1  1
  7  8  2  0
  7  5  1  0
 10  9  1  1
 10 12  1  0
 11 10  1  0
 12 13  1  1
 13  7  1  0
 14 12  1  0
 15 14  2  0
 17 16  1  6
 17 19  1  0
 18 17  1  0
 19 21  1  0
 19 20  1  1
 20 14  1  0
 21 22  1  0
 23 21  2  0
M  END
$$$$
