NVT.pdb
     RDKit          3D

 23 22  0  0  1  0  0  0  0  0999 V2000
   17.1638  -10.7554  -19.7361 N   0  0  0  0  0  0  0  0  0  0  0  0
   17.2312   -9.3647  -19.4093 C   0  0  0  0  0  0  0  0  0  0  0  0
   16.8022   -8.5425  -20.2210 O   0  0  0  0  0  0  0  0  0  0  0  0
   17.8080   -8.9984  -18.1251 C   0  0  0  0  0  0  0  0  0  0  0  0
   18.2393  -10.2141  -17.3529 C   0  0  2  0  0  0  0  0  0  0  0  0
   17.0402  -10.8718  -16.7816 N   0  0  0  0  0  0  0  0  0  0  0  0
   19.0734   -9.8775  -16.1744 C   0  0  0  0  0  0  0  0  0  0  0  0
   18.5488   -9.6566  -15.0433 O   0  0  0  0  0  0  0  0  0  0  0  0
   22.1447  -11.7980  -14.9383 C   0  0  0  0  0  0  0  0  0  0  0  0
   22.5451  -10.3670  -15.1645 C   0  0  2  0  0  0  0  0  0  0  0  0
   23.6371   -9.9178  -14.2437 C   0  0  0  0  0  0  0  0  0  0  0  0
   21.3639   -9.4241  -15.1812 C   0  0  2  0  0  0  0  0  0  0  0  0
   20.4731   -9.7992  -16.3010 N   0  0  0  0  0  0  0  0  0  0  0  0
   21.6942   -8.0144  -15.3962 C   0  0  0  0  0  0  0  0  0  0  0  0
   22.4464   -7.6761  -16.3830 O   0  0  0  0  0  0  0  0  0  0  0  0
   19.6821   -5.3323  -16.4649 C   0  0  0  0  0  0  0  0  0  0  0  0
   20.3492   -4.8006  -15.2134 C   0  0  1  0  0  0  0  0  0  0  0  0
   19.4683   -4.7914  -14.1343 O   0  0  0  0  0  0  0  0  0  0  0  0
   21.6343   -5.5403  -14.9086 C   0  0  2  0  0  0  0  0  0  0  0  0
   21.2655   -6.9131  -14.6133 N   0  0  0  0  0  0  0  0  0  0  0  0
   22.3723   -4.9191  -13.7839 C   0  0  0  0  0  0  0  0  0  0  0  0
   22.5756   -5.5864  -12.5853 O   0  0  0  0  0  0  0  0  0  0  0  0
   22.8582   -3.7454  -13.8543 O   0  0  0  0  0  0  0  0  0  0  0  0
  2  1  1  0
  3  2  2  0
  4  2  1  0
  4  5  1  0
  5  6  1  1
  7  8  2  0
  7  5  1  0
 10  9  1  1
 10 12  1  0
 11 10  1  0
 12 13  1  6
 13  7  1  0
 14 12  1  0
 15 14  2  0
 17 16  1  6
 17 19  1  0
 18 17  1  0
 19 21  1  0
 19 20  1  1
 20 14  1  0
 21 22  1  0
 23 21  2  0
M  END
$$$$
