NVT.pdb
     RDKit          3D

 23 22  0  0  1  0  0  0  0  0999 V2000
   17.2718  -12.0189  -19.3904 N   0  0  0  0  0  0  0  0  0  0  0  0
   17.0047  -10.6285  -19.1887 C   0  0  0  0  0  0  0  0  0  0  0  0
   16.4129  -10.0034  -20.0707 O   0  0  0  0  0  0  0  0  0  0  0  0
   17.4517  -10.0273  -17.9417 C   0  0  0  0  0  0  0  0  0  0  0  0
   18.2043  -11.0172  -17.0967 C   0  0  2  0  0  0  0  0  0  0  0  0
   17.2320  -11.8936  -16.4012 N   0  0  0  0  0  0  0  0  0  0  0  0
   18.9687  -10.3715  -16.0029 C   0  0  0  0  0  0  0  0  0  0  0  0
   18.4327  -10.1377  -14.8797 O   0  0  0  0  0  0  0  0  0  0  0  0
   22.2017  -11.6068  -14.5530 C   0  0  0  0  0  0  0  0  0  0  0  0
   22.4315  -10.1986  -15.0257 C   0  0  2  0  0  0  0  0  0  0  0  0
   23.4890   -9.4881  -14.2389 C   0  0  0  0  0  0  0  0  0  0  0  0
   21.1512   -9.4040  -15.1432 C   0  0  2  0  0  0  0  0  0  0  0  0
   20.3137  -10.0076  -16.2026 N   0  0  0  0  0  0  0  0  0  0  0  0
   21.3205   -8.0015  -15.5265 C   0  0  0  0  0  0  0  0  0  0  0  0
   21.9545   -7.7044  -16.6053 O   0  0  0  0  0  0  0  0  0  0  0  0
   20.1104   -3.2346  -15.3649 C   0  0  0  0  0  0  0  0  0  0  0  0
   19.9287   -4.6732  -14.9274 C   0  0  1  0  0  0  0  0  0  0  0  0
   18.7726   -5.2268  -15.4728 O   0  0  0  0  0  0  0  0  0  0  0  0
   21.1617   -5.5037  -15.2135 C   0  0  2  0  0  0  0  0  0  0  0  0
   20.8471   -6.8659  -14.8223 N   0  0  0  0  0  0  0  0  0  0  0  0
   22.3499   -4.9892  -14.4931 C   0  0  0  0  0  0  0  0  0  0  0  0
   23.3535   -4.2882  -15.1449 O   0  0  0  0  0  0  0  0  0  0  0  0
   22.5153   -5.1606  -13.2434 O   0  0  0  0  0  0  0  0  0  0  0  0
  2  1  1  0
  3  2  2  0
  4  2  1  0
  4  5  1  0
  5  6  1  1
  7  8  2  0
  7  5  1  0
 10  9  1  1
 10 12  1  0
 11 10  1  0
 12 13  1  6
 13  7  1  0
 14 12  1  0
 15 14  2  0
 17 16  1  6
 17 19  1  0
 18 17  1  0
 19 21  1  0
 19 20  1  1
 20 14  1  0
 21 22  1  0
 23 21  2  0
M  END
$$$$
