NVT.pdb
     RDKit          3D

 23 22  0  0  1  0  0  0  0  0999 V2000
   19.0925   -8.4988  -22.2533 N   0  0  0  0  0  0  0  0  0  0  0  0
   20.1394   -8.8233  -21.3346 C   0  0  0  0  0  0  0  0  0  0  0  0
   21.2222   -9.2081  -21.7800 O   0  0  0  0  0  0  0  0  0  0  0  0
   19.8621   -8.6789  -19.9139 C   0  0  0  0  0  0  0  0  0  0  0  0
   20.4277   -9.8283  -19.1269 C   0  0  2  0  0  0  0  0  0  0  0  0
   19.5317  -10.9997  -19.2747 N   0  0  0  0  0  0  0  0  0  0  0  0
   20.4548   -9.5649  -17.6683 C   0  0  0  0  0  0  0  0  0  0  0  0
   19.4139   -9.6992  -16.9598 O   0  0  0  0  0  0  0  0  0  0  0  0
   22.3663  -11.3715  -15.1892 C   0  0  0  0  0  0  0  0  0  0  0  0
   22.7997   -9.9387  -15.0530 C   0  0  2  0  0  0  0  0  0  0  0  0
   23.2606   -9.6014  -13.6689 C   0  0  0  0  0  0  0  0  0  0  0  0
   21.7754   -8.9638  -15.5867 C   0  0  2  0  0  0  0  0  0  0  0  0
   21.6511   -9.1585  -17.0478 N   0  0  0  0  0  0  0  0  0  0  0  0
   22.1063   -7.5496  -15.4047 C   0  0  0  0  0  0  0  0  0  0  0  0
   23.2282   -7.0936  -15.8375 O   0  0  0  0  0  0  0  0  0  0  0  0
   20.4907   -4.4035  -16.5863 C   0  0  0  0  0  0  0  0  0  0  0  0
   20.6430   -4.2973  -15.0832 C   0  0  1  0  0  0  0  0  0  0  0  0
   19.4296   -4.5143  -14.4341 O   0  0  0  0  0  0  0  0  0  0  0  0
   21.7464   -5.1972  -14.5689 C   0  0  2  0  0  0  0  0  0  0  0  0
   21.3027   -6.5633  -14.7794 N   0  0  0  0  0  0  0  0  0  0  0  0
   22.0491   -4.9349  -13.1423 C   0  0  0  0  0  0  0  0  0  0  0  0
   21.7554   -5.8588  -12.1506 O   0  0  0  0  0  0  0  0  0  0  0  0
   22.5923   -3.8538  -12.7493 O   0  0  0  0  0  0  0  0  0  0  0  0
  2  1  1  0
  3  2  2  0
  4  2  1  0
  4  5  1  0
  5  6  1  1
  7  8  2  0
  7  5  1  0
 10  9  1  1
 10 12  1  0
 11 10  1  0
 12 13  1  6
 13  7  1  0
 14 12  1  0
 15 14  2  0
 17 16  1  6
 17 19  1  0
 18 17  1  0
 19 21  1  0
 19 20  1  1
 20 14  1  0
 21 22  1  0
 23 21  2  0
M  END
$$$$
