NVT.pdb
     RDKit          3D

 23 22  0  0  1  0  0  0  0  0999 V2000
   19.9821  -13.2949  -20.7210 N   0  0  0  0  0  0  0  0  0  0  0  0
   20.4934  -12.5166  -19.6356 C   0  0  0  0  0  0  0  0  0  0  0  0
   21.6682  -12.6702  -19.2964 O   0  0  0  0  0  0  0  0  0  0  0  0
   19.5877  -11.5797  -18.9890 C   0  0  0  0  0  0  0  0  0  0  0  0
   19.7212  -11.6347  -17.4925 C   0  0  2  0  0  0  0  0  0  0  0  0
   18.9027  -12.7579  -16.9773 N   0  0  0  0  0  0  0  0  0  0  0  0
   19.1650  -10.4344  -16.8237 C   0  0  0  0  0  0  0  0  0  0  0  0
   17.9259  -10.1768  -16.8664 O   0  0  0  0  0  0  0  0  0  0  0  0
   19.4965   -9.6058  -13.1482 C   0  0  0  0  0  0  0  0  0  0  0  0
   18.6819   -8.9086  -14.2016 C   0  0  2  0  0  0  0  0  0  0  0  0
   17.5045   -9.7160  -14.6529 C   0  0  0  0  0  0  0  0  0  0  0  0
   19.5223   -8.3998  -15.3502 C   0  0  2  0  0  0  0  0  0  0  0  0
   20.0172   -9.5581  -16.1257 N   0  0  0  0  0  0  0  0  0  0  0  0
   20.7159   -7.6458  -14.9636 C   0  0  0  0  0  0  0  0  0  0  0  0
   21.8066   -8.2697  -14.6895 O   0  0  0  0  0  0  0  0  0  0  0  0
   22.6540   -5.2378  -16.9418 C   0  0  0  0  0  0  0  0  0  0  0  0
   22.3268   -4.5598  -15.6276 C   0  0  1  0  0  0  0  0  0  0  0  0
   21.2780   -3.6544  -15.7716 O   0  0  0  0  0  0  0  0  0  0  0  0
   22.0773   -5.5680  -14.5262 C   0  0  2  0  0  0  0  0  0  0  0  0
   20.8301   -6.2376  -14.8482 N   0  0  0  0  0  0  0  0  0  0  0  0
   22.0227   -4.9232  -13.1932 C   0  0  0  0  0  0  0  0  0  0  0  0
   20.8799   -4.9620  -12.4084 O   0  0  0  0  0  0  0  0  0  0  0  0
   23.0153   -4.3015  -12.6966 O   0  0  0  0  0  0  0  0  0  0  0  0
  2  1  1  0
  3  2  2  0
  4  2  1  0
  4  5  1  0
  5  6  1  1
  7  8  2  0
  7  5  1  0
 10  9  1  1
 10 12  1  0
 11 10  1  0
 12 13  1  1
 13  7  1  0
 14 12  1  0
 15 14  2  0
 17 16  1  6
 17 19  1  0
 18 17  1  0
 19 21  1  0
 19 20  1  6
 20 14  1  0
 21 22  1  0
 23 21  2  0
M  END
$$$$
