MVP.pdb
     RDKit          3D

 23 23  0  0  1  0  0  0  0  0999 V2000
   26.2042  -27.1281  -16.2903 C   0  0  0  0  0  0  0  0  0  0  0  0
   26.2477  -26.6244  -18.0197 S   0  0  0  0  0  0  0  0  0  0  0  0
   27.0696  -25.0416  -18.2370 C   0  0  0  0  0  0  0  0  0  0  0  0
   27.4148  -24.3968  -16.9020 C   0  0  0  0  0  0  0  0  0  0  0  0
   28.0646  -23.0698  -17.2186 C   0  0  2  0  0  0  0  0  0  0  0  0
   29.4398  -23.2953  -17.6115 N   0  0  0  0  0  0  0  0  0  0  0  0
   28.0417  -22.1500  -16.0424 C   0  0  0  0  0  0  0  0  0  0  0  0
   28.8896  -22.2260  -15.1189 O   0  0  0  0  0  0  0  0  0  0  0  0
   25.9516  -18.6288  -16.3426 C   0  0  0  0  0  0  0  0  0  0  0  0
   26.8878  -18.8817  -15.2340 C   0  0  1  0  0  0  0  0  0  0  0  0
   26.5511  -17.9240  -14.0960 C   0  0  0  0  0  0  0  0  0  0  0  0
   26.9501  -20.2978  -14.7000 C   0  0  2  0  0  0  0  0  0  0  0  0
   27.0439  -21.1459  -15.9320 N   0  0  0  0  0  0  0  0  0  0  0  0
   25.7484  -20.7489  -14.0113 C   0  0  0  0  0  0  0  0  0  0  0  0
   24.8957  -21.4396  -14.6766 O   0  0  0  0  0  0  0  0  0  0  0  0
   25.4254  -20.5036  -12.6674 N   0  0  0  0  0  0  0  0  0  0  0  0
   26.1604  -19.6959  -11.7224 C   0  0  0  0  0  0  0  0  0  0  0  0
   26.0063  -20.4473  -10.4044 C   0  0  0  0  0  0  0  0  0  0  0  0
   24.9361  -21.4627  -10.6405 C   0  0  0  0  0  0  0  0  0  0  0  0
   24.2873  -21.0555  -11.9167 C   0  0  1  0  0  0  0  0  0  0  0  0
   23.2650  -20.0105  -11.7976 C   0  0  0  0  0  0  0  0  0  0  0  0
   21.9597  -20.2745  -11.3678 O   0  0  0  0  0  0  0  0  0  0  0  0
   23.5362  -18.8277  -12.0833 O   0  0  0  0  0  0  0  0  0  0  0  0
  1  2  1  0
  2  3  1  0
  3  4  1  0
  4  5  1  0
  5  6  1  1
  7 13  1  0
  7  5  1  0
  8  7  2  0
 10  9  1  6
 10 12  1  0
 10 11  1  0
 12 13  1  6
 12 14  1  0
 14 16  1  0
 14 15  2  0
 16 20  1  0
 17 18  1  0
 17 16  1  0
 18 19  1  0
 19 20  1  0
 20 21  1  1
 21 22  1  0
 23 21  2  0
M  END
$$$$
