MVP.pdb
     RDKit          3D

 23 23  0  0  1  0  0  0  0  0999 V2000
   19.4008  -18.7753  -12.1183 C   0  0  0  0  0  0  0  0  0  0  0  0
   19.6285  -18.2243  -13.8186 S   0  0  0  0  0  0  0  0  0  0  0  0
   21.0268  -19.0337  -14.6046 C   0  0  0  0  0  0  0  0  0  0  0  0
   21.8387  -19.8507  -13.6093 C   0  0  0  0  0  0  0  0  0  0  0  0
   23.0619  -20.3407  -14.3489 C   0  0  2  0  0  0  0  0  0  0  0  0
   22.6540  -21.2780  -15.3743 N   0  0  0  0  0  0  0  0  0  0  0  0
   24.0271  -21.0164  -13.4315 C   0  0  0  0  0  0  0  0  0  0  0  0
   23.8078  -22.1575  -12.9545 O   0  0  0  0  0  0  0  0  0  0  0  0
   27.9978  -19.6010  -13.0959 C   0  0  0  0  0  0  0  0  0  0  0  0
   27.5180  -20.9290  -12.6765 C   0  0  1  0  0  0  0  0  0  0  0  0
   28.5471  -21.5306  -11.7253 C   0  0  0  0  0  0  0  0  0  0  0  0
   26.1452  -20.9912  -12.0395 C   0  0  2  0  0  0  0  0  0  0  0  0
   25.2414  -20.3779  -13.0656 N   0  0  0  0  0  0  0  0  0  0  0  0
   25.9838  -20.1736  -10.8448 C   0  0  0  0  0  0  0  0  0  0  0  0
   25.6534  -18.9430  -10.9967 O   0  0  0  0  0  0  0  0  0  0  0  0
   26.1517  -20.6054   -9.5196 N   0  0  0  0  0  0  0  0  0  0  0  0
   26.5021  -21.9315   -9.0674 C   0  0  0  0  0  0  0  0  0  0  0  0
   25.6935  -22.1042   -7.7860 C   0  0  0  0  0  0  0  0  0  0  0  0
   25.1816  -20.7428   -7.4442 C   0  0  0  0  0  0  0  0  0  0  0  0
   25.9622  -19.8071   -8.2989 C   0  0  1  0  0  0  0  0  0  0  0  0
   27.2838  -19.4363   -7.7823 C   0  0  0  0  0  0  0  0  0  0  0  0
   27.4658  -18.4454   -6.8111 O   0  0  0  0  0  0  0  0  0  0  0  0
   28.3085  -20.0074   -8.2041 O   0  0  0  0  0  0  0  0  0  0  0  0
  1  2  1  0
  2  3  1  0
  3  4  1  0
  4  5  1  0
  5  6  1  6
  7 13  1  0
  7  5  1  0
  8  7  2  0
 10  9  1  1
 10 12  1  0
 10 11  1  0
 12 13  1  6
 12 14  1  0
 14 16  1  0
 14 15  2  0
 16 20  1  0
 17 18  1  0
 17 16  1  0
 18 19  1  0
 19 20  1  0
 20 21  1  1
 21 22  1  0
 23 21  2  0
M  END
$$$$
