MVP.pdb
     RDKit          3D

 23 23  0  0  1  0  0  0  0  0999 V2000
   15.6963   -2.9638   -7.7018 C   0  0  0  0  0  0  0  0  0  0  0  0
   14.0157   -3.5565   -7.9677 S   0  0  0  0  0  0  0  0  0  0  0  0
   13.9906   -5.2107   -8.6685 C   0  0  0  0  0  0  0  0  0  0  0  0
   15.3646   -5.6320   -9.1704 C   0  0  0  0  0  0  0  0  0  0  0  0
   15.2270   -7.0538   -9.6631 C   0  0  2  0  0  0  0  0  0  0  0  0
   15.0347   -7.9336   -8.5293 N   0  0  0  0  0  0  0  0  0  0  0  0
   16.4370   -7.4952  -10.4187 C   0  0  0  0  0  0  0  0  0  0  0  0
   17.4061   -8.0619   -9.8551 O   0  0  0  0  0  0  0  0  0  0  0  0
   17.9942   -8.7661  -14.8982 C   0  0  0  0  0  0  0  0  0  0  0  0
   17.1623   -8.5956  -13.6946 C   0  0  1  0  0  0  0  0  0  0  0  0
   16.8204   -9.9785  -13.1501 C   0  0  0  0  0  0  0  0  0  0  0  0
   17.7351   -7.7425  -12.5816 C   0  0  2  0  0  0  0  0  0  0  0  0
   16.5290   -7.2836  -11.8196 N   0  0  0  0  0  0  0  0  0  0  0  0
   18.4009   -6.5238  -13.0212 C   0  0  0  0  0  0  0  0  0  0  0  0
   17.6733   -5.4981  -13.2769 O   0  0  0  0  0  0  0  0  0  0  0  0
   19.7838   -6.3539  -13.1920 N   0  0  0  0  0  0  0  0  0  0  0  0
   20.8215   -7.3335  -12.9704 C   0  0  0  0  0  0  0  0  0  0  0  0
   21.9755   -6.5178  -12.3973 C   0  0  0  0  0  0  0  0  0  0  0  0
   21.6118   -5.0868  -12.6256 C   0  0  0  0  0  0  0  0  0  0  0  0
   20.4804   -5.1217  -13.5922 C   0  0  1  0  0  0  0  0  0  0  0  0
   20.8614   -5.2466  -15.0030 C   0  0  0  0  0  0  0  0  0  0  0  0
   20.8446   -6.4679  -15.6859 O   0  0  0  0  0  0  0  0  0  0  0  0
   21.2201   -4.2435  -15.6504 O   0  0  0  0  0  0  0  0  0  0  0  0
  1  2  1  0
  2  3  1  0
  3  4  1  0
  4  5  1  0
  5  6  1  1
  7 13  1  0
  7  5  1  0
  8  7  2  0
 10  9  1  6
 10 12  1  0
 10 11  1  0
 12 13  1  1
 12 14  1  0
 14 16  1  0
 14 15  2  0
 16 20  1  0
 17 18  1  0
 17 16  1  0
 18 19  1  0
 19 20  1  0
 20 21  1  6
 21 22  1  0
 23 21  2  0
M  END
$$$$
