MVP.pdb
     RDKit          3D

 23 23  0  0  1  0  0  0  0  0999 V2000
   23.8891  -27.5428  -16.0676 C   0  0  0  0  0  0  0  0  0  0  0  0
   22.3413  -26.6241  -16.1490 S   0  0  0  0  0  0  0  0  0  0  0  0
   22.6156  -24.8488  -16.1787 C   0  0  0  0  0  0  0  0  0  0  0  0
   24.0698  -24.4975  -15.8975 C   0  0  0  0  0  0  0  0  0  0  0  0
   24.1438  -22.9900  -15.8260 C   0  0  2  0  0  0  0  0  0  0  0  0
   24.1152  -22.4480  -17.1683 N   0  0  0  0  0  0  0  0  0  0  0  0
   25.3909  -22.5308  -15.1449 C   0  0  0  0  0  0  0  0  0  0  0  0
   26.4617  -23.1851  -15.2007 O   0  0  0  0  0  0  0  0  0  0  0  0
   27.1650  -19.3486  -15.6046 C   0  0  0  0  0  0  0  0  0  0  0  0
   26.9032  -19.4960  -14.1626 C   0  0  1  0  0  0  0  0  0  0  0  0
   25.7356  -18.5871  -13.7934 C   0  0  0  0  0  0  0  0  0  0  0  0
   26.6316  -20.8974  -13.6558 C   0  0  2  0  0  0  0  0  0  0  0  0
   25.4028  -21.3208  -14.4021 N   0  0  0  0  0  0  0  0  0  0  0  0
   26.2759  -20.9835  -12.2459 C   0  0  0  0  0  0  0  0  0  0  0  0
   25.0696  -21.3035  -11.9470 O   0  0  0  0  0  0  0  0  0  0  0  0
   27.1366  -20.7519  -11.1614 N   0  0  0  0  0  0  0  0  0  0  0  0
   28.4928  -20.2578  -11.2084 C   0  0  0  0  0  0  0  0  0  0  0  0
   29.1983  -21.0252  -10.0953 C   0  0  0  0  0  0  0  0  0  0  0  0
   28.1122  -21.6720   -9.2989 C   0  0  0  0  0  0  0  0  0  0  0  0
   26.8562  -21.0065   -9.7401 C   0  0  1  0  0  0  0  0  0  0  0  0
   26.5625  -19.7236   -9.0926 C   0  0  0  0  0  0  0  0  0  0  0  0
   25.9961  -19.6326   -7.8162 O   0  0  0  0  0  0  0  0  0  0  0  0
   26.8151  -18.6509   -9.6752 O   0  0  0  0  0  0  0  0  0  0  0  0
  1  2  1  0
  2  3  1  0
  3  4  1  0
  4  5  1  0
  5  6  1  6
  7 13  1  0
  7  5  1  0
  8  7  2  0
 10  9  1  6
 10 12  1  0
 10 11  1  0
 12 13  1  6
 12 14  1  0
 14 16  1  0
 14 15  2  0
 16 20  1  0
 17 18  1  0
 17 16  1  0
 18 19  1  0
 19 20  1  0
 20 21  1  1
 21 22  1  0
 23 21  2  0
M  END
$$$$
