MVP.pdb
     RDKit          3D

 23 23  0  0  1  0  0  0  0  0999 V2000
   28.3551  -28.0425  -16.2993 C   0  0  0  0  0  0  0  0  0  0  0  0
   27.3173  -27.3267  -17.5867 S   0  0  0  0  0  0  0  0  0  0  0  0
   27.8359  -25.6614  -18.0178 C   0  0  0  0  0  0  0  0  0  0  0  0
   28.2304  -24.8567  -16.7874 C   0  0  0  0  0  0  0  0  0  0  0  0
   28.5438  -23.4588  -17.2679 C   0  0  2  0  0  0  0  0  0  0  0  0
   29.9126  -23.4130  -17.7378 N   0  0  0  0  0  0  0  0  0  0  0  0
   28.3712  -22.4501  -16.1804 C   0  0  0  0  0  0  0  0  0  0  0  0
   29.2203  -22.3016  -15.2668 O   0  0  0  0  0  0  0  0  0  0  0  0
   26.4143  -18.1563  -14.9466 C   0  0  0  0  0  0  0  0  0  0  0  0
   26.8621  -19.3013  -15.7578 C   0  0  1  0  0  0  0  0  0  0  0  0
   28.1710  -18.9199  -16.4413 C   0  0  0  0  0  0  0  0  0  0  0  0
   27.0346  -20.6236  -15.0394 C   0  0  2  0  0  0  0  0  0  0  0  0
   27.2229  -21.6157  -16.1468 N   0  0  0  0  0  0  0  0  0  0  0  0
   25.8631  -21.0822  -14.3053 C   0  0  0  0  0  0  0  0  0  0  0  0
   25.0444  -21.8669  -14.9059 O   0  0  0  0  0  0  0  0  0  0  0  0
   25.5359  -20.7499  -12.9812 N   0  0  0  0  0  0  0  0  0  0  0  0
   26.2280  -19.8270  -12.1123 C   0  0  0  0  0  0  0  0  0  0  0  0
   26.1291  -20.4786  -10.7370 C   0  0  0  0  0  0  0  0  0  0  0  0
   25.1202  -21.5714  -10.8788 C   0  0  0  0  0  0  0  0  0  0  0  0
   24.4386  -21.3066  -12.1753 C   0  0  1  0  0  0  0  0  0  0  0  0
   23.3562  -20.3180  -12.1271 C   0  0  0  0  0  0  0  0  0  0  0  0
   22.0607  -20.6347  -11.7035 O   0  0  0  0  0  0  0  0  0  0  0  0
   23.5645  -19.1379  -12.4707 O   0  0  0  0  0  0  0  0  0  0  0  0
  1  2  1  0
  2  3  1  0
  3  4  1  0
  4  5  1  0
  5  6  1  1
  7 13  1  0
  7  5  1  0
  8  7  2  0
 10  9  1  1
 10 12  1  0
 10 11  1  0
 12 13  1  6
 12 14  1  0
 14 16  1  0
 14 15  2  0
 16 20  1  0
 17 18  1  0
 17 16  1  0
 18 19  1  0
 19 20  1  0
 20 21  1  1
 21 22  1  0
 23 21  2  0
M  END
$$$$
