MVP.pdb
     RDKit          3D

 23 23  0  0  1  0  0  0  0  0999 V2000
   29.9493  -19.3689   -5.9384 C   0  0  0  0  0  0  0  0  0  0  0  0
   28.3716  -19.5152   -5.0805 S   0  0  0  0  0  0  0  0  0  0  0  0
   26.9816  -19.4557   -6.2173 C   0  0  0  0  0  0  0  0  0  0  0  0
   27.2796  -20.1977   -7.5127 C   0  0  0  0  0  0  0  0  0  0  0  0
   26.0219  -20.1313   -8.3475 C   0  0  2  0  0  0  0  0  0  0  0  0
   24.9642  -20.8536   -7.6724 N   0  0  0  0  0  0  0  0  0  0  0  0
   26.2268  -20.7265   -9.7016 C   0  0  0  0  0  0  0  0  0  0  0  0
   26.7526  -21.8559   -9.8619 O   0  0  0  0  0  0  0  0  0  0  0  0
   24.3663  -22.4714  -11.7689 C   0  0  0  0  0  0  0  0  0  0  0  0
   24.7223  -21.2766  -12.5533 C   0  0  1  0  0  0  0  0  0  0  0  0
   23.5943  -20.2597  -12.4138 C   0  0  0  0  0  0  0  0  0  0  0  0
   26.0438  -20.6121  -12.2271 C   0  0  2  0  0  0  0  0  0  0  0  0
   25.8264  -20.0212  -10.8671 N   0  0  0  0  0  0  0  0  0  0  0  0
   26.3954  -19.4883  -13.0846 C   0  0  0  0  0  0  0  0  0  0  0  0
   26.1639  -18.3031  -12.6503 O   0  0  0  0  0  0  0  0  0  0  0  0
   26.9769  -19.5725  -14.3595 N   0  0  0  0  0  0  0  0  0  0  0  0
   27.3810  -20.7681  -15.0615 C   0  0  0  0  0  0  0  0  0  0  0  0
   28.6510  -20.3482  -15.7939 C   0  0  0  0  0  0  0  0  0  0  0  0
   28.7000  -18.8582  -15.6968 C   0  0  0  0  0  0  0  0  0  0  0  0
   27.3426  -18.4526  -15.2402 C   0  0  1  0  0  0  0  0  0  0  0  0
   26.3290  -18.3473  -16.2950 C   0  0  0  0  0  0  0  0  0  0  0  0
   26.3145  -17.3054  -17.2291 O   0  0  0  0  0  0  0  0  0  0  0  0
   25.4287  -19.2041  -16.3920 O   0  0  0  0  0  0  0  0  0  0  0  0
  1  2  1  0
  2  3  1  0
  3  4  1  0
  4  5  1  0
  5  6  1  1
  7 13  1  0
  7  5  1  0
  8  7  2  0
 10  9  1  1
 10 12  1  0
 10 11  1  0
 12 13  1  1
 12 14  1  0
 14 16  1  0
 14 15  2  0
 16 20  1  0
 17 18  1  0
 17 16  1  0
 18 19  1  0
 19 20  1  0
 20 21  1  6
 21 22  1  0
 23 21  2  0
M  END
$$$$
