MVP.pdb
     RDKit          3D

 23 23  0  0  1  0  0  0  0  0999 V2000
   29.0030  -14.3607  -15.4188 C   0  0  0  0  0  0  0  0  0  0  0  0
   28.0494  -13.0555  -16.2149 S   0  0  0  0  0  0  0  0  0  0  0  0
   26.2818  -13.2802  -15.9846 C   0  0  0  0  0  0  0  0  0  0  0  0
   25.4842  -12.1277  -16.5786 C   0  0  0  0  0  0  0  0  0  0  0  0
   24.0278  -12.4254  -16.3070 C   0  0  2  0  0  0  0  0  0  0  0  0
   23.6302  -13.5902  -17.0695 N   0  0  0  0  0  0  0  0  0  0  0  0
   23.1507  -11.2772  -16.6842 C   0  0  0  0  0  0  0  0  0  0  0  0
   22.8668  -11.0186  -17.8801 O   0  0  0  0  0  0  0  0  0  0  0  0
   19.7990  -11.0407  -16.1673 C   0  0  0  0  0  0  0  0  0  0  0  0
   20.3171   -9.7966  -15.5729 C   0  0  1  0  0  0  0  0  0  0  0  0
   20.3518   -9.9689  -14.0581 C   0  0  0  0  0  0  0  0  0  0  0  0
   21.6700   -9.3178  -16.0575 C   0  0  2  0  0  0  0  0  0  0  0  0
   22.6027  -10.4302  -15.6851 N   0  0  0  0  0  0  0  0  0  0  0  0
   22.1851   -8.1377  -15.3763 C   0  0  0  0  0  0  0  0  0  0  0  0
   23.0014   -8.3126  -14.4016 O   0  0  0  0  0  0  0  0  0  0  0  0
   21.8764   -6.8041  -15.6872 N   0  0  0  0  0  0  0  0  0  0  0  0
   20.9509   -6.3290  -16.6890 C   0  0  0  0  0  0  0  0  0  0  0  0
   21.6219   -5.0745  -17.2383 C   0  0  0  0  0  0  0  0  0  0  0  0
   22.7330   -4.7618  -16.2897 C   0  0  0  0  0  0  0  0  0  0  0  0
   22.4655   -5.5972  -15.0873 C   0  0  1  0  0  0  0  0  0  0  0  0
   21.4998   -5.0390  -14.1350 C   0  0  0  0  0  0  0  0  0  0  0  0
   21.8527   -4.0920  -13.1670 O   0  0  0  0  0  0  0  0  0  0  0  0
   20.3072   -5.4011  -14.1612 O   0  0  0  0  0  0  0  0  0  0  0  0
  1  2  1  0
  2  3  1  0
  3  4  1  0
  4  5  1  0
  5  6  1  6
  7 13  1  0
  7  5  1  0
  8  7  2  0
 10  9  1  6
 10 12  1  0
 10 11  1  0
 12 13  1  1
 12 14  1  0
 14 16  1  0
 14 15  2  0
 16 20  1  0
 17 18  1  0
 17 16  1  0
 18 19  1  0
 19 20  1  0
 20 21  1  1
 21 22  1  0
 23 21  2  0
M  END
$$$$
