MVP.pdb
     RDKit          3D

 23 23  0  0  1  0  0  0  0  0999 V2000
   13.0701  -24.1109    3.4632 C   0  0  0  0  0  0  0  0  0  0  0  0
   14.7541  -23.4939    3.2904 S   0  0  0  0  0  0  0  0  0  0  0  0
   14.7908  -21.7309    2.9465 C   0  0  0  0  0  0  0  0  0  0  0  0
   16.1817  -21.1455    3.1466 C   0  0  0  0  0  0  0  0  0  0  0  0
   16.1110  -19.7029    2.7026 C   0  0  2  0  0  0  0  0  0  0  0  0
   16.1257  -19.6492    1.2558 N   0  0  0  0  0  0  0  0  0  0  0  0
   17.2601  -18.9072    3.2283 C   0  0  0  0  0  0  0  0  0  0  0  0
   18.3867  -18.9143    2.6729 O   0  0  0  0  0  0  0  0  0  0  0  0
   17.9490  -15.2754    3.5718 C   0  0  0  0  0  0  0  0  0  0  0  0
   17.8822  -15.9179    4.8955 C   0  0  1  0  0  0  0  0  0  0  0  0
   16.4657  -15.7534    5.4358 C   0  0  0  0  0  0  0  0  0  0  0  0
   18.2843  -17.3765    4.9697 C   0  0  2  0  0  0  0  0  0  0  0  0
   17.1101  -18.1059    4.3908 N   0  0  0  0  0  0  0  0  0  0  0  0
   18.4397  -17.9038    6.3186 C   0  0  0  0  0  0  0  0  0  0  0  0
   17.4586  -18.5556    6.8277 O   0  0  0  0  0  0  0  0  0  0  0  0
   19.5772  -17.7724    7.1307 N   0  0  0  0  0  0  0  0  0  0  0  0
   20.8375  -17.1596    6.7818 C   0  0  0  0  0  0  0  0  0  0  0  0
   21.8724  -18.0287    7.4884 C   0  0  0  0  0  0  0  0  0  0  0  0
   21.1002  -18.8869    8.4368 C   0  0  0  0  0  0  0  0  0  0  0  0
   19.7460  -18.2729    8.5035 C   0  0  1  0  0  0  0  0  0  0  0  0
   19.6131  -17.1401    9.4255 C   0  0  0  0  0  0  0  0  0  0  0  0
   19.4724  -17.3024   10.8082 O   0  0  0  0  0  0  0  0  0  0  0  0
   19.6217  -15.9709    8.9930 O   0  0  0  0  0  0  0  0  0  0  0  0
  1  2  1  0
  2  3  1  0
  3  4  1  0
  4  5  1  0
  5  6  1  6
  7 13  1  0
  7  5  1  0
  8  7  2  0
 10  9  1  6
 10 12  1  0
 10 11  1  0
 12 13  1  1
 12 14  1  0
 14 16  1  0
 14 15  2  0
 16 20  1  0
 17 18  1  0
 17 16  1  0
 18 19  1  0
 19 20  1  0
 20 21  1  1
 21 22  1  0
 23 21  2  0
M  END
$$$$
