MVP.pdb
     RDKit          3D

 23 23  0  0  1  0  0  0  0  0999 V2000
   27.6634  -24.9360  -14.6276 C   0  0  0  0  0  0  0  0  0  0  0  0
   25.9179  -24.9749  -15.0725 S   0  0  0  0  0  0  0  0  0  0  0  0
   25.0189  -23.5794  -14.3853 C   0  0  0  0  0  0  0  0  0  0  0  0
   25.9123  -22.7049  -13.5167 C   0  0  0  0  0  0  0  0  0  0  0  0
   25.0501  -21.5694  -13.0162 C   0  0  2  0  0  0  0  0  0  0  0  0
   24.6327  -20.7579  -14.1404 N   0  0  0  0  0  0  0  0  0  0  0  0
   25.7841  -20.7072  -12.0427 C   0  0  0  0  0  0  0  0  0  0  0  0
   26.5096  -19.7510  -12.4126 O   0  0  0  0  0  0  0  0  0  0  0  0
   24.1697  -18.4184  -10.6350 C   0  0  0  0  0  0  0  0  0  0  0  0
   24.7147  -19.1288   -9.4654 C   0  0  1  0  0  0  0  0  0  0  0  0
   23.6523  -20.0976   -8.9569 C   0  0  0  0  0  0  0  0  0  0  0  0
   26.0209  -19.8701   -9.6621 C   0  0  2  0  0  0  0  0  0  0  0  0
   25.6815  -20.9474  -10.6471 N   0  0  0  0  0  0  0  0  0  0  0  0
   26.5161  -20.5673   -8.4828 C   0  0  0  0  0  0  0  0  0  0  0  0
   26.1652  -21.7900   -8.3138 O   0  0  0  0  0  0  0  0  0  0  0  0
   27.3576  -20.0279   -7.4971 N   0  0  0  0  0  0  0  0  0  0  0  0
   27.9221  -18.6992   -7.4576 C   0  0  0  0  0  0  0  0  0  0  0  0
   29.3120  -18.9120   -6.8671 C   0  0  0  0  0  0  0  0  0  0  0  0
   29.3141  -20.3062   -6.3301 C   0  0  0  0  0  0  0  0  0  0  0  0
   27.8840  -20.7182   -6.3097 C   0  0  1  0  0  0  0  0  0  0  0  0
   27.1172  -20.2729   -5.1415 C   0  0  0  0  0  0  0  0  0  0  0  0
   27.2921  -20.8236   -3.8669 O   0  0  0  0  0  0  0  0  0  0  0  0
   26.2663  -19.3686   -5.2531 O   0  0  0  0  0  0  0  0  0  0  0  0
  1  2  1  0
  2  3  1  0
  3  4  1  0
  4  5  1  0
  5  6  1  6
  7 13  1  0
  7  5  1  0
  8  7  2  0
 10  9  1  6
 10 12  1  0
 10 11  1  0
 12 13  1  6
 12 14  1  0
 14 16  1  0
 14 15  2  0
 16 20  1  0
 17 18  1  0
 17 16  1  0
 18 19  1  0
 19 20  1  0
 20 21  1  1
 21 22  1  0
 23 21  2  0
M  END
$$$$
