MVP.pdb
     RDKit          3D

 23 23  0  0  1  0  0  0  0  0999 V2000
   29.4013  -20.4732   -5.2705 C   0  0  0  0  0  0  0  0  0  0  0  0
   28.6874  -18.8955   -5.7682 S   0  0  0  0  0  0  0  0  0  0  0  0
   27.0368  -19.0913   -6.4502 C   0  0  0  0  0  0  0  0  0  0  0  0
   27.0048  -20.1314   -7.5613 C   0  0  0  0  0  0  0  0  0  0  0  0
   25.5921  -20.1475   -8.0972 C   0  0  2  0  0  0  0  0  0  0  0  0
   24.7525  -20.9157   -7.2020 N   0  0  0  0  0  0  0  0  0  0  0  0
   25.5264  -20.7523   -9.4609 C   0  0  0  0  0  0  0  0  0  0  0  0
   25.7824  -21.9647   -9.6666 O   0  0  0  0  0  0  0  0  0  0  0  0
   23.3314  -20.5891  -13.7885 C   0  0  0  0  0  0  0  0  0  0  0  0
   23.6532  -20.3594  -12.3696 C   0  0  1  0  0  0  0  0  0  0  0  0
   22.7450  -21.2458  -11.5239 C   0  0  0  0  0  0  0  0  0  0  0  0
   25.0940  -20.5689  -11.9517 C   0  0  2  0  0  0  0  0  0  0  0  0
   25.1666  -19.9612  -10.5837 N   0  0  0  0  0  0  0  0  0  0  0  0
   26.0767  -19.8462  -12.7479 C   0  0  0  0  0  0  0  0  0  0  0  0
   26.3215  -18.6247  -12.4398 O   0  0  0  0  0  0  0  0  0  0  0  0
   26.7995  -20.3621  -13.8351 N   0  0  0  0  0  0  0  0  0  0  0  0
   26.7650  -21.7109  -14.3500 C   0  0  0  0  0  0  0  0  0  0  0  0
   28.2064  -21.9765  -14.7712 C   0  0  0  0  0  0  0  0  0  0  0  0
   28.8863  -20.6464  -14.7472 C   0  0  0  0  0  0  0  0  0  0  0  0
   27.7860  -19.6478  -14.6597 C   0  0  1  0  0  0  0  0  0  0  0  0
   27.1516  -19.2969  -15.9347 C   0  0  0  0  0  0  0  0  0  0  0  0
   25.9037  -19.7980  -16.3220 O   0  0  0  0  0  0  0  0  0  0  0  0
   27.7199  -18.5230  -16.7297 O   0  0  0  0  0  0  0  0  0  0  0  0
  1  2  1  0
  2  3  1  0
  3  4  1  0
  4  5  1  0
  5  6  1  1
  7 13  1  0
  7  5  1  0
  8  7  2  0
 10  9  1  6
 10 12  1  0
 10 11  1  0
 12 13  1  1
 12 14  1  0
 14 16  1  0
 14 15  2  0
 16 20  1  0
 17 18  1  0
 17 16  1  0
 18 19  1  0
 19 20  1  0
 20 21  1  6
 21 22  1  0
 23 21  2  0
M  END
$$$$
