MVP.pdb
     RDKit          3D

 23 23  0  0  1  0  0  0  0  0999 V2000
   24.5519  -21.7200   -7.8700 C   0  0  0  0  0  0  0  0  0  0  0  0
   24.0341  -20.0329   -8.2334 S   0  0  0  0  0  0  0  0  0  0  0  0
   22.8348  -19.9723   -9.5698 C   0  0  0  0  0  0  0  0  0  0  0  0
   23.2810  -20.8002  -10.7667 C   0  0  0  0  0  0  0  0  0  0  0  0
   22.2446  -20.5918  -11.8464 C   0  0  2  0  0  0  0  0  0  0  0  0
   21.0148  -21.2505  -11.4587 N   0  0  0  0  0  0  0  0  0  0  0  0
   22.6965  -21.1435  -13.1584 C   0  0  0  0  0  0  0  0  0  0  0  0
   22.6714  -22.3739  -13.4096 O   0  0  0  0  0  0  0  0  0  0  0  0
   21.2188  -20.8860  -16.2925 C   0  0  0  0  0  0  0  0  0  0  0  0
   22.5830  -20.3613  -16.4752 C   0  0  1  0  0  0  0  0  0  0  0  0
   22.5156  -18.8378  -16.4566 C   0  0  0  0  0  0  0  0  0  0  0  0
   23.6350  -20.8319  -15.4922 C   0  0  2  0  0  0  0  0  0  0  0  0
   23.1757  -20.2785  -14.1774 N   0  0  0  0  0  0  0  0  0  0  0  0
   24.9650  -20.2760  -15.7016 C   0  0  0  0  0  0  0  0  0  0  0  0
   25.1741  -19.0618  -15.3429 O   0  0  0  0  0  0  0  0  0  0  0  0
   26.0623  -20.9485  -16.2622 N   0  0  0  0  0  0  0  0  0  0  0  0
   26.1103  -22.3165  -16.7227 C   0  0  0  0  0  0  0  0  0  0  0  0
   27.5126  -22.7794  -16.3421 C   0  0  0  0  0  0  0  0  0  0  0  0
   28.2605  -21.5406  -15.9704 C   0  0  0  0  0  0  0  0  0  0  0  0
   27.4187  -20.4153  -16.4608 C   0  0  1  0  0  0  0  0  0  0  0  0
   27.5783  -20.0818  -17.8801 C   0  0  0  0  0  0  0  0  0  0  0  0
   26.6090  -20.3864  -18.8425 O   0  0  0  0  0  0  0  0  0  0  0  0
   28.6076  -19.5032  -18.2799 O   0  0  0  0  0  0  0  0  0  0  0  0
  1  2  1  0
  2  3  1  0
  3  4  1  0
  4  5  1  0
  5  6  1  1
  7 13  1  0
  7  5  1  0
  8  7  2  0
 10  9  1  1
 10 12  1  0
 10 11  1  0
 12 13  1  1
 12 14  1  0
 14 16  1  0
 14 15  2  0
 16 20  1  0
 17 18  1  0
 17 16  1  0
 18 19  1  0
 19 20  1  0
 20 21  1  6
 21 22  1  0
 23 21  2  0
M  END
$$$$
