MVP.pdb
     RDKit          3D

 23 23  0  0  1  0  0  0  0  0999 V2000
   28.9675  -18.8159   -5.3024 C   0  0  0  0  0  0  0  0  0  0  0  0
   27.5972  -19.9292   -4.9428 S   0  0  0  0  0  0  0  0  0  0  0  0
   26.3790  -19.9422   -6.2633 C   0  0  0  0  0  0  0  0  0  0  0  0
   27.0154  -20.2316   -7.6156 C   0  0  0  0  0  0  0  0  0  0  0  0
   25.9006  -20.1917   -8.6348 C   0  0  2  0  0  0  0  0  0  0  0  0
   24.8972  -21.1738   -8.2811 N   0  0  0  0  0  0  0  0  0  0  0  0
   26.4008  -20.4847  -10.0110 C   0  0  0  0  0  0  0  0  0  0  0  0
   27.2438  -21.3881  -10.2367 O   0  0  0  0  0  0  0  0  0  0  0  0
   26.3027  -22.5364  -11.9781 C   0  0  0  0  0  0  0  0  0  0  0  0
   25.8243  -21.4133  -12.8025 C   0  0  1  0  0  0  0  0  0  0  0  0
   24.3052  -21.3481  -12.6861 C   0  0  0  0  0  0  0  0  0  0  0  0
   26.4120  -20.0487  -12.5078 C   0  0  2  0  0  0  0  0  0  0  0  0
   25.9302  -19.7380  -11.1231 N   0  0  0  0  0  0  0  0  0  0  0  0
   25.9071  -18.9680  -13.3439 C   0  0  0  0  0  0  0  0  0  0  0  0
   24.8702  -18.3283  -12.9410 O   0  0  0  0  0  0  0  0  0  0  0  0
   26.4533  -18.5451  -14.5659 N   0  0  0  0  0  0  0  0  0  0  0  0
   27.5439  -19.1493  -15.2947 C   0  0  0  0  0  0  0  0  0  0  0  0
   28.2880  -17.9584  -15.8894 C   0  0  0  0  0  0  0  0  0  0  0  0
   27.3830  -16.7838  -15.7066 C   0  0  0  0  0  0  0  0  0  0  0  0
   26.0597  -17.3635  -15.3485 C   0  0  1  0  0  0  0  0  0  0  0  0
   25.2423  -17.8130  -16.4803 C   0  0  0  0  0  0  0  0  0  0  0  0
   24.5779  -16.9250  -17.3337 O   0  0  0  0  0  0  0  0  0  0  0  0
   25.1126  -19.0294  -16.7204 O   0  0  0  0  0  0  0  0  0  0  0  0
  1  2  1  0
  2  3  1  0
  3  4  1  0
  4  5  1  0
  5  6  1  1
  7 13  1  0
  7  5  1  0
  8  7  2  0
 10  9  1  1
 10 12  1  0
 10 11  1  0
 12 13  1  1
 12 14  1  0
 14 16  1  0
 14 15  2  0
 16 20  1  0
 17 18  1  0
 17 16  1  0
 18 19  1  0
 19 20  1  0
 20 21  1  6
 21 22  1  0
 23 21  2  0
M  END
$$$$
