MVP.pdb
     RDKit          3D

 23 23  0  0  1  0  0  0  0  0999 V2000
   18.3721  -20.7606  -14.8120 C   0  0  0  0  0  0  0  0  0  0  0  0
   19.0207  -19.2344  -15.5166 S   0  0  0  0  0  0  0  0  0  0  0  0
   20.7845  -19.3419  -15.8416 C   0  0  0  0  0  0  0  0  0  0  0  0
   21.4867  -20.2577  -14.8488 C   0  0  0  0  0  0  0  0  0  0  0  0
   22.9636  -20.1778  -15.1577 C   0  0  2  0  0  0  0  0  0  0  0  0
   23.2094  -20.7612  -16.4599 N   0  0  0  0  0  0  0  0  0  0  0  0
   23.7799  -20.9042  -14.1399 C   0  0  0  0  0  0  0  0  0  0  0  0
   23.5458  -22.0972  -13.8240 O   0  0  0  0  0  0  0  0  0  0  0  0
   27.1382  -21.7834  -14.3906 C   0  0  0  0  0  0  0  0  0  0  0  0
   27.0522  -21.0871  -13.0955 C   0  0  1  0  0  0  0  0  0  0  0  0
   27.6409  -19.6904  -13.2637 C   0  0  0  0  0  0  0  0  0  0  0  0
   25.6795  -20.9834  -12.4636 C   0  0  2  0  0  0  0  0  0  0  0  0
   24.8628  -20.2566  -13.4887 N   0  0  0  0  0  0  0  0  0  0  0  0
   25.6152  -20.1597  -11.2639 C   0  0  0  0  0  0  0  0  0  0  0  0
   25.2494  -18.9363  -11.3916 O   0  0  0  0  0  0  0  0  0  0  0  0
   25.9139  -20.5784   -9.9578 N   0  0  0  0  0  0  0  0  0  0  0  0
   26.3473  -21.8894   -9.5349 C   0  0  0  0  0  0  0  0  0  0  0  0
   25.6613  -22.0820   -8.1865 C   0  0  0  0  0  0  0  0  0  0  0  0
   25.1361  -20.7365   -7.8043 C   0  0  0  0  0  0  0  0  0  0  0  0
   25.8061  -19.7801   -8.7271 C   0  0  1  0  0  0  0  0  0  0  0  0
   27.1550  -19.3626   -8.3303 C   0  0  0  0  0  0  0  0  0  0  0  0
   27.3896  -18.4204   -7.3226 O   0  0  0  0  0  0  0  0  0  0  0  0
   28.1561  -19.8470   -8.8935 O   0  0  0  0  0  0  0  0  0  0  0  0
  1  2  1  0
  2  3  1  0
  3  4  1  0
  4  5  1  0
  5  6  1  6
  7 13  1  0
  7  5  1  0
  8  7  2  0
 10  9  1  6
 10 12  1  0
 10 11  1  0
 12 13  1  6
 12 14  1  0
 14 16  1  0
 14 15  2  0
 16 20  1  0
 17 18  1  0
 17 16  1  0
 18 19  1  0
 19 20  1  0
 20 21  1  1
 21 22  1  0
 23 21  2  0
M  END
$$$$
