MVP.pdb
     RDKit          3D

 23 23  0  0  1  0  0  0  0  0999 V2000
   28.8322  -28.0455  -16.1638 C   0  0  0  0  0  0  0  0  0  0  0  0
   27.4177  -27.5066  -17.1412 S   0  0  0  0  0  0  0  0  0  0  0  0
   27.5801  -25.7976  -17.6710 C   0  0  0  0  0  0  0  0  0  0  0  0
   28.0363  -24.8948  -16.5333 C   0  0  0  0  0  0  0  0  0  0  0  0
   28.1678  -23.5049  -17.1112 C   0  0  2  0  0  0  0  0  0  0  0  0
   29.4150  -23.4090  -17.8404 N   0  0  0  0  0  0  0  0  0  0  0  0
   28.1491  -22.4601  -16.0444 C   0  0  0  0  0  0  0  0  0  0  0  0
   29.1838  -22.1337  -15.4114 O   0  0  0  0  0  0  0  0  0  0  0  0
   26.1016  -19.2640  -16.4582 C   0  0  0  0  0  0  0  0  0  0  0  0
   26.9828  -19.4565  -15.2938 C   0  0  1  0  0  0  0  0  0  0  0  0
   26.7022  -18.3411  -14.2924 C   0  0  0  0  0  0  0  0  0  0  0  0
   26.9064  -20.7963  -14.5912 C   0  0  2  0  0  0  0  0  0  0  0  0
   26.9409  -21.7940  -15.7090 N   0  0  0  0  0  0  0  0  0  0  0  0
   25.6578  -21.0503  -13.8854 C   0  0  0  0  0  0  0  0  0  0  0  0
   24.7265  -21.6717  -14.5126 O   0  0  0  0  0  0  0  0  0  0  0  0
   25.3670  -20.6813  -12.5626 N   0  0  0  0  0  0  0  0  0  0  0  0
   26.1888  -19.8978  -11.6701 C   0  0  0  0  0  0  0  0  0  0  0  0
   25.9560  -20.5375  -10.3055 C   0  0  0  0  0  0  0  0  0  0  0  0
   24.7800  -21.4426  -10.4785 C   0  0  0  0  0  0  0  0  0  0  0  0
   24.1769  -21.0529  -11.7822 C   0  0  1  0  0  0  0  0  0  0  0  0
   23.2762  -19.8962  -11.7386 C   0  0  0  0  0  0  0  0  0  0  0  0
   23.6505  -18.6282  -12.1971 O   0  0  0  0  0  0  0  0  0  0  0  0
   22.1227  -20.0123  -11.2803 O   0  0  0  0  0  0  0  0  0  0  0  0
  1  2  1  0
  2  3  1  0
  3  4  1  0
  4  5  1  0
  5  6  1  1
  7 13  1  0
  7  5  1  0
  8  7  2  0
 10  9  1  6
 10 12  1  0
 10 11  1  0
 12 13  1  6
 12 14  1  0
 14 16  1  0
 14 15  2  0
 16 20  1  0
 17 18  1  0
 17 16  1  0
 18 19  1  0
 19 20  1  0
 20 21  1  1
 21 22  1  0
 23 21  2  0
M  END
$$$$
