MVP.pdb
     RDKit          3D

 23 23  0  0  1  0  0  0  0  0999 V2000
   27.0361  -19.9986   -8.6312 C   0  0  0  0  0  0  0  0  0  0  0  0
   25.2395  -20.1310   -8.6667 S   0  0  0  0  0  0  0  0  0  0  0  0
   24.6507  -20.8612  -10.1990 C   0  0  0  0  0  0  0  0  0  0  0  0
   25.6493  -20.6758  -11.3329 C   0  0  0  0  0  0  0  0  0  0  0  0
   24.9654  -21.1534  -12.5929 C   0  0  2  0  0  0  0  0  0  0  0  0
   24.6497  -22.5601  -12.4588 N   0  0  0  0  0  0  0  0  0  0  0  0
   25.8302  -20.9638  -13.7955 C   0  0  0  0  0  0  0  0  0  0  0  0
   26.9633  -21.4968  -13.8937 O   0  0  0  0  0  0  0  0  0  0  0  0
   25.7424  -22.2780  -16.9649 C   0  0  0  0  0  0  0  0  0  0  0  0
   25.6422  -20.8200  -17.1486 C   0  0  1  0  0  0  0  0  0  0  0  0
   24.1688  -20.4576  -17.3015 C   0  0  0  0  0  0  0  0  0  0  0  0
   26.2671  -19.9504  -16.0773 C   0  0  2  0  0  0  0  0  0  0  0  0
   25.3893  -20.1620  -14.8811 N   0  0  0  0  0  0  0  0  0  0  0  0
   26.2201  -18.5188  -16.3422 C   0  0  0  0  0  0  0  0  0  0  0  0
   25.2604  -17.8413  -15.8256 O   0  0  0  0  0  0  0  0  0  0  0  0
   27.1382  -17.7916  -17.1160 N   0  0  0  0  0  0  0  0  0  0  0  0
   28.3032  -18.2997  -17.8018 C   0  0  0  0  0  0  0  0  0  0  0  0
   29.3311  -17.1836  -17.6486 C   0  0  0  0  0  0  0  0  0  0  0  0
   28.5696  -15.9978  -17.1523 C   0  0  0  0  0  0  0  0  0  0  0  0
   27.1361  -16.3409  -17.3591 C   0  0  1  0  0  0  0  0  0  0  0  0
   26.6204  -16.1021  -18.7112 C   0  0  0  0  0  0  0  0  0  0  0  0
   26.3360  -14.8209  -19.1971 O   0  0  0  0  0  0  0  0  0  0  0  0
   26.4153  -17.0572  -19.4855 O   0  0  0  0  0  0  0  0  0  0  0  0
  1  2  1  0
  2  3  1  0
  3  4  1  0
  4  5  1  0
  5  6  1  1
  7 13  1  0
  7  5  1  0
  8  7  2  0
 10  9  1  1
 10 12  1  0
 10 11  1  0
 12 13  1  1
 12 14  1  0
 14 16  1  0
 14 15  2  0
 16 20  1  0
 17 18  1  0
 17 16  1  0
 18 19  1  0
 19 20  1  0
 20 21  1  6
 21 22  1  0
 23 21  2  0
M  END
$$$$
