MVP.pdb
     RDKit          3D

 23 23  0  0  1  0  0  0  0  0999 V2000
   13.1586  -27.0007   -3.8226 C   0  0  0  0  0  0  0  0  0  0  0  0
   14.1683  -25.6062   -4.3541 S   0  0  0  0  0  0  0  0  0  0  0  0
   15.2639  -26.0485   -5.7076 C   0  0  0  0  0  0  0  0  0  0  0  0
   16.2859  -27.0956   -5.2875 C   0  0  0  0  0  0  0  0  0  0  0  0
   17.4559  -26.3441   -4.6961 C   0  0  2  0  0  0  0  0  0  0  0  0
   18.1809  -25.6799   -5.7589 N   0  0  0  0  0  0  0  0  0  0  0  0
   18.3885  -27.2578   -3.9713 C   0  0  0  0  0  0  0  0  0  0  0  0
   19.3078  -27.8783   -4.5609 O   0  0  0  0  0  0  0  0  0  0  0  0
   20.8364  -26.4367   -1.3114 C   0  0  0  0  0  0  0  0  0  0  0  0
   19.8553  -27.4150   -0.8116 C   0  0  1  0  0  0  0  0  0  0  0  0
   18.7608  -26.6571   -0.0678 C   0  0  0  0  0  0  0  0  0  0  0  0
   19.2246  -28.3363   -1.8353 C   0  0  2  0  0  0  0  0  0  0  0  0
   18.2611  -27.4551   -2.5710 N   0  0  0  0  0  0  0  0  0  0  0  0
   18.4159  -29.4125   -1.2788 C   0  0  0  0  0  0  0  0  0  0  0  0
   17.1490  -29.2294   -1.1879 O   0  0  0  0  0  0  0  0  0  0  0  0
   18.8910  -30.6541   -0.8279 N   0  0  0  0  0  0  0  0  0  0  0  0
   20.2654  -31.0899   -0.7464 C   0  0  0  0  0  0  0  0  0  0  0  0
   20.2011  -32.5676   -1.1178 C   0  0  0  0  0  0  0  0  0  0  0  0
   18.7524  -32.9309   -1.0819 C   0  0  0  0  0  0  0  0  0  0  0  0
   18.0843  -31.8002   -0.3816 C   0  0  1  0  0  0  0  0  0  0  0  0
   18.1302  -31.8519    1.0835 C   0  0  0  0  0  0  0  0  0  0  0  0
   17.3186  -32.7082    1.8361 O   0  0  0  0  0  0  0  0  0  0  0  0
   18.9128  -31.1161    1.7161 O   0  0  0  0  0  0  0  0  0  0  0  0
  1  2  1  0
  2  3  1  0
  3  4  1  0
  4  5  1  0
  5  6  1  6
  7 13  1  0
  7  5  1  0
  8  7  2  0
 10  9  1  6
 10 12  1  0
 10 11  1  0
 12 13  1  6
 12 14  1  0
 14 16  1  0
 14 15  2  0
 16 20  1  0
 17 18  1  0
 17 16  1  0
 18 19  1  0
 19 20  1  0
 20 21  1  1
 21 22  1  0
 23 21  2  0
M  END
$$$$
