DYA.pdb
     RDKit          3D

 26 26  0  0  1  0  0  0  0  0999 V2000
   28.7625  -22.5536  -17.6773 N   0  0  0  0  0  0  0  0  0  0  0  0
   28.0362  -21.3913  -17.2431 C   0  0  1  0  0  0  0  0  0  0  0  0
   27.2763  -20.7909  -18.3960 C   0  0  0  0  0  0  0  0  0  0  0  0
   28.2000  -19.9631  -19.1896 C   0  0  0  0  0  0  0  0  0  0  0  0
   28.9076  -19.1044  -18.6351 O   0  0  0  0  0  0  0  0  0  0  0  0
   27.1758  -21.6800  -16.0650 C   0  0  0  0  0  0  0  0  0  0  0  0
   26.6512  -22.8128  -15.9983 O   0  0  0  0  0  0  0  0  0  0  0  0
   28.2884  -20.1328  -20.5555 O   0  0  0  0  0  0  0  0  0  0  0  0
   23.4000  -21.0653   -8.1325 O   0  0  0  0  0  0  0  0  0  0  0  0
   24.1758  -20.8531   -9.2578 C   0  0  0  0  0  0  0  0  0  0  0  0
   23.6559  -20.1061  -10.2927 C   0  0  0  0  0  0  0  0  0  0  0  0
   24.4215  -19.8936  -11.4104 C   0  0  0  0  0  0  0  0  0  0  0  0
   25.7101  -20.4238  -11.5041 C   0  0  0  0  0  0  0  0  0  0  0  0
   26.5057  -20.1876  -12.7259 C   0  0  0  0  0  0  0  0  0  0  0  0
   26.0629  -21.0206  -13.9096 C   0  0  2  0  0  0  0  0  0  0  0  0
   26.9400  -20.7312  -15.0431 N   0  0  0  0  0  0  0  0  0  0  0  0
   24.6425  -20.7907  -14.2815 C   0  0  0  0  0  0  0  0  0  0  0  0
   24.3435  -19.7188  -14.8703 O   0  0  0  0  0  0  0  0  0  0  0  0
   26.2073  -21.1697  -10.4510 C   0  0  0  0  0  0  0  0  0  0  0  0
   25.4478  -21.3909   -9.3211 C   0  0  0  0  0  0  0  0  0  0  0  0
   21.6012  -22.7647  -14.8651 C   0  0  0  0  0  0  0  0  0  0  0  0
   22.2315  -21.5118  -14.3117 C   0  0  2  0  0  0  0  0  0  0  0  0
   23.6135  -21.7313  -13.9983 N   0  0  0  0  0  0  0  0  0  0  0  0
   21.4483  -21.0453  -13.1447 C   0  0  0  0  0  0  0  0  0  0  0  0
   21.6501  -21.6203  -12.0453 O   0  0  0  0  0  0  0  0  0  0  0  0
   20.5165  -20.0293  -13.1740 O   0  0  0  0  0  0  0  0  0  0  0  0
  2  1  1  6
  3  2  1  0
  3  4  1  0
  4  5  2  0
  6  2  1  0
  7  6  2  0
  8  4  1  0
  9 10  1  0
 10 11  2  0
 10 20  1  0
 11 12  1  0
 12 13  2  0
 13 14  1  0
 15 14  1  1
 15 17  1  0
 15 16  1  0
 16  6  1  0
 17 23  1  0
 18 17  2  0
 19 13  1  0
 20 19  2  0
 22 21  1  1
 22 24  1  0
 23 22  1  0
 24 25  2  0
 24 26  1  0
M  END
$$$$
