DYA.pdb
     RDKit          3D

 26 26  0  0  1  0  0  0  0  0999 V2000
   19.0234   -8.2506  -16.6135 N   0  0  0  0  0  0  0  0  0  0  0  0
   18.9711   -6.8729  -17.0209 C   0  0  1  0  0  0  0  0  0  0  0  0
   17.6929   -6.5985  -17.7679 C   0  0  0  0  0  0  0  0  0  0  0  0
   17.7528   -7.2807  -19.0715 C   0  0  0  0  0  0  0  0  0  0  0  0
   18.7909   -7.8654  -19.4269 O   0  0  0  0  0  0  0  0  0  0  0  0
   19.1894   -5.9455  -15.8790 C   0  0  0  0  0  0  0  0  0  0  0  0
   18.5001   -6.1244  -14.8515 O   0  0  0  0  0  0  0  0  0  0  0  0
   16.6579   -7.2772  -19.9102 O   0  0  0  0  0  0  0  0  0  0  0  0
   22.4865   -9.5128  -12.2052 O   0  0  0  0  0  0  0  0  0  0  0  0
   22.3085   -8.2338  -12.7013 C   0  0  0  0  0  0  0  0  0  0  0  0
   22.7203   -7.9559  -13.9867 C   0  0  0  0  0  0  0  0  0  0  0  0
   22.5461   -6.6892  -14.4823 C   0  0  0  0  0  0  0  0  0  0  0  0
   21.9603   -5.6913  -13.7005 C   0  0  0  0  0  0  0  0  0  0  0  0
   21.7971   -4.3335  -14.2584 C   0  0  0  0  0  0  0  0  0  0  0  0
   20.3979   -4.0468  -14.7595 C   0  0  2  0  0  0  0  0  0  0  0  0
   20.1321   -4.8922  -15.9224 N   0  0  0  0  0  0  0  0  0  0  0  0
   20.1858   -2.6157  -15.0997 C   0  0  0  0  0  0  0  0  0  0  0  0
   20.8605   -2.1170  -16.0384 O   0  0  0  0  0  0  0  0  0  0  0  0
   21.5561   -5.9974  -12.4138 C   0  0  0  0  0  0  0  0  0  0  0  0
   21.7254   -7.2673  -11.9030 C   0  0  0  0  0  0  0  0  0  0  0  0
   17.7506    0.0678  -14.0256 C   0  0  0  0  0  0  0  0  0  0  0  0
   18.9263   -0.4561  -14.8108 C   0  0  2  0  0  0  0  0  0  0  0  0
   19.2543   -1.7926  -14.4079 N   0  0  0  0  0  0  0  0  0  0  0  0
   20.0654    0.4793  -14.6677 C   0  0  0  0  0  0  0  0  0  0  0  0
   20.9523    0.1865  -13.8265 O   0  0  0  0  0  0  0  0  0  0  0  0
   20.2253    1.6448  -15.3868 O   0  0  0  0  0  0  0  0  0  0  0  0
  2  1  1  1
  3  2  1  0
  3  4  1  0
  4  5  2  0
  6  2  1  0
  7  6  2  0
  8  4  1  0
  9 10  1  0
 10 11  2  0
 10 20  1  0
 11 12  1  0
 12 13  2  0
 13 14  1  0
 15 14  1  6
 15 17  1  0
 15 16  1  0
 16  6  1  0
 17 23  1  0
 18 17  2  0
 19 13  1  0
 20 19  2  0
 22 21  1  1
 22 24  1  0
 23 22  1  0
 24 25  2  0
 24 26  1  0
M  END
$$$$
