DYA.pdb
     RDKit          3D

 26 26  0  0  1  0  0  0  0  0999 V2000
   16.6570   -9.2160  -15.2267 N   0  0  0  0  0  0  0  0  0  0  0  0
   16.2660   -7.8901  -14.8319 C   0  0  1  0  0  0  0  0  0  0  0  0
   14.7937   -7.6872  -15.0738 C   0  0  0  0  0  0  0  0  0  0  0  0
   14.5794   -7.4587  -16.5127 C   0  0  0  0  0  0  0  0  0  0  0  0
   15.4140   -6.8215  -17.1783 O   0  0  0  0  0  0  0  0  0  0  0  0
   16.6753   -7.5809  -13.4360 C   0  0  0  0  0  0  0  0  0  0  0  0
   16.5328   -8.4815  -12.5808 O   0  0  0  0  0  0  0  0  0  0  0  0
   13.4506   -7.9495  -17.1350 O   0  0  0  0  0  0  0  0  0  0  0  0
   22.8319   -9.2061  -13.4499 O   0  0  0  0  0  0  0  0  0  0  0  0
   21.8956   -8.2810  -13.0246 C   0  0  0  0  0  0  0  0  0  0  0  0
   21.2701   -8.4772  -11.8123 C   0  0  0  0  0  0  0  0  0  0  0  0
   20.3410   -7.5627  -11.3870 C   0  0  0  0  0  0  0  0  0  0  0  0
   20.0291   -6.4468  -12.1667 C   0  0  0  0  0  0  0  0  0  0  0  0
   19.0152   -5.4859  -11.6869 C   0  0  0  0  0  0  0  0  0  0  0  0
   17.6070   -6.0411  -11.6811 C   0  0  2  0  0  0  0  0  0  0  0  0
   17.2080   -6.3264  -13.0585 N   0  0  0  0  0  0  0  0  0  0  0  0
   16.6269   -5.1290  -11.0360 C   0  0  0  0  0  0  0  0  0  0  0  0
   16.2585   -4.1033  -11.6663 O   0  0  0  0  0  0  0  0  0  0  0  0
   20.6717   -6.2743  -13.3791 C   0  0  0  0  0  0  0  0  0  0  0  0
   21.6083   -7.1864  -13.8186 C   0  0  0  0  0  0  0  0  0  0  0  0
   14.6762   -5.0809   -7.7959 C   0  0  0  0  0  0  0  0  0  0  0  0
   15.1974   -4.4703   -9.0721 C   0  0  2  0  0  0  0  0  0  0  0  0
   16.0926   -5.3700   -9.7397 N   0  0  0  0  0  0  0  0  0  0  0  0
   15.8230   -3.1629   -8.7684 C   0  0  0  0  0  0  0  0  0  0  0  0
   17.0724   -3.0801   -8.8774 O   0  0  0  0  0  0  0  0  0  0  0  0
   15.1384   -2.0321   -8.3761 O   0  0  0  0  0  0  0  0  0  0  0  0
  2  1  1  1
  3  2  1  0
  3  4  1  0
  4  5  2  0
  6  2  1  0
  7  6  2  0
  8  4  1  0
  9 10  1  0
 10 11  2  0
 10 20  1  0
 11 12  1  0
 12 13  2  0
 13 14  1  0
 15 14  1  6
 15 17  1  0
 15 16  1  0
 16  6  1  0
 17 23  1  0
 18 17  2  0
 19 13  1  0
 20 19  2  0
 22 21  1  1
 22 24  1  0
 23 22  1  0
 24 25  2  0
 24 26  1  0
M  END
$$$$
