DYA.pdb
     RDKit          3D

 26 26  0  0  1  0  0  0  0  0999 V2000
   18.8661  -13.1127  -16.0573 N   0  0  0  0  0  0  0  0  0  0  0  0
   18.5146  -11.7189  -16.0342 C   0  0  1  0  0  0  0  0  0  0  0  0
   17.4899  -11.4576  -14.9623 C   0  0  0  0  0  0  0  0  0  0  0  0
   16.2734  -12.2260  -15.2755 C   0  0  0  0  0  0  0  0  0  0  0  0
   15.7019  -12.8851  -14.3897 O   0  0  0  0  0  0  0  0  0  0  0  0
   19.7120  -10.8441  -15.9216 C   0  0  0  0  0  0  0  0  0  0  0  0
   20.5021  -11.0674  -14.9789 O   0  0  0  0  0  0  0  0  0  0  0  0
   15.7570  -12.2215  -16.5543 O   0  0  0  0  0  0  0  0  0  0  0  0
   26.1426   -5.2044  -18.0326 O   0  0  0  0  0  0  0  0  0  0  0  0
   25.0672   -6.0744  -18.0357 C   0  0  0  0  0  0  0  0  0  0  0  0
   25.2211   -7.3238  -17.4749 C   0  0  0  0  0  0  0  0  0  0  0  0
   24.1576   -8.1896  -17.4762 C   0  0  0  0  0  0  0  0  0  0  0  0
   22.9340   -7.8161  -18.0361 C   0  0  0  0  0  0  0  0  0  0  0  0
   21.8108   -8.7753  -18.0330 C   0  0  0  0  0  0  0  0  0  0  0  0
   21.1404   -8.9212  -16.6838 C   0  0  2  0  0  0  0  0  0  0  0  0
   19.9748   -9.7919  -16.8292 N   0  0  0  0  0  0  0  0  0  0  0  0
   20.7430   -7.6181  -16.0899 C   0  0  0  0  0  0  0  0  0  0  0  0
   19.7434   -7.0215  -16.5693 O   0  0  0  0  0  0  0  0  0  0  0  0
   22.8070   -6.5563  -18.5923 C   0  0  0  0  0  0  0  0  0  0  0  0
   23.8685   -5.6758  -18.5975 C   0  0  0  0  0  0  0  0  0  0  0  0
   21.7084   -5.6812  -13.0061 C   0  0  0  0  0  0  0  0  0  0  0  0
   21.0033   -5.8385  -14.3295 C   0  0  2  0  0  0  0  0  0  0  0  0
   21.4463   -7.0226  -15.0062 N   0  0  0  0  0  0  0  0  0  0  0  0
   21.1993   -4.6124  -15.1364 C   0  0  0  0  0  0  0  0  0  0  0  0
   22.2049   -4.5699  -15.8894 O   0  0  0  0  0  0  0  0  0  0  0  0
   20.3628   -3.5164  -15.1235 O   0  0  0  0  0  0  0  0  0  0  0  0
  2  1  1  1
  3  2  1  0
  3  4  1  0
  4  5  2  0
  6  2  1  0
  7  6  2  0
  8  4  1  0
  9 10  1  0
 10 11  2  0
 10 20  1  0
 11 12  1  0
 12 13  2  0
 13 14  1  0
 15 14  1  6
 15 17  1  0
 15 16  1  0
 16  6  1  0
 17 23  1  0
 18 17  2  0
 19 13  1  0
 20 19  2  0
 22 21  1  1
 22 24  1  0
 23 22  1  0
 24 25  2  0
 24 26  1  0
M  END
$$$$
