DYA.pdb
     RDKit          3D

 26 26  0  0  1  0  0  0  0  0999 V2000
   28.4997  -22.4940  -18.0229 N   0  0  0  0  0  0  0  0  0  0  0  0
   28.0045  -21.2936  -17.4059 C   0  0  1  0  0  0  0  0  0  0  0  0
   27.1324  -20.5338  -18.3699 C   0  0  0  0  0  0  0  0  0  0  0  0
   27.9894  -19.9213  -19.3989 C   0  0  0  0  0  0  0  0  0  0  0  0
   28.7996  -19.0298  -19.0919 O   0  0  0  0  0  0  0  0  0  0  0  0
   27.3345  -21.5703  -16.1073 C   0  0  0  0  0  0  0  0  0  0  0  0
   26.6220  -22.5948  -16.0333 O   0  0  0  0  0  0  0  0  0  0  0  0
   27.9007  -20.3312  -20.7129 O   0  0  0  0  0  0  0  0  0  0  0  0
   24.6931  -20.5678   -7.7217 O   0  0  0  0  0  0  0  0  0  0  0  0
   25.3727  -20.4939   -8.9243 C   0  0  0  0  0  0  0  0  0  0  0  0
   25.2878  -19.3355   -9.6659 C   0  0  0  0  0  0  0  0  0  0  0  0
   25.9596  -19.2581  -10.8589 C   0  0  0  0  0  0  0  0  0  0  0  0
   26.7205  -20.3344  -11.3206 C   0  0  0  0  0  0  0  0  0  0  0  0
   27.4229  -20.2249  -12.6152 C   0  0  0  0  0  0  0  0  0  0  0  0
   26.7317  -20.9575  -13.7451 C   0  0  2  0  0  0  0  0  0  0  0  0
   27.4774  -20.7265  -14.9815 N   0  0  0  0  0  0  0  0  0  0  0  0
   25.3111  -20.5550  -13.9138 C   0  0  0  0  0  0  0  0  0  0  0  0
   25.0638  -19.4197  -14.3984 O   0  0  0  0  0  0  0  0  0  0  0  0
   26.7885  -21.4850  -10.5564 C   0  0  0  0  0  0  0  0  0  0  0  0
   26.1178  -21.5760   -9.3547 C   0  0  0  0  0  0  0  0  0  0  0  0
   22.0484  -22.2038  -14.2426 C   0  0  0  0  0  0  0  0  0  0  0  0
   22.8488  -21.0380  -13.7196 C   0  0  2  0  0  0  0  0  0  0  0  0
   24.2259  -21.3998  -13.5497 N   0  0  0  0  0  0  0  0  0  0  0  0
   22.2300  -20.5424  -12.4689 C   0  0  0  0  0  0  0  0  0  0  0  0
   22.7091  -20.9558  -11.3829 O   0  0  0  0  0  0  0  0  0  0  0  0
   21.1698  -19.6629  -12.4070 O   0  0  0  0  0  0  0  0  0  0  0  0
  2  1  1  6
  3  2  1  0
  3  4  1  0
  4  5  2  0
  6  2  1  0
  7  6  2  0
  8  4  1  0
  9 10  1  0
 10 11  2  0
 10 20  1  0
 11 12  1  0
 12 13  2  0
 13 14  1  0
 15 14  1  1
 15 17  1  0
 15 16  1  0
 16  6  1  0
 17 23  1  0
 18 17  2  0
 19 13  1  0
 20 19  2  0
 22 21  1  1
 22 24  1  0
 23 22  1  0
 24 25  2  0
 24 26  1  0
M  END
$$$$
