DYA.pdb
     RDKit          3D

 26 26  0  0  1  0  0  0  0  0999 V2000
   21.9831  -35.9083   -6.6956 N   0  0  0  0  0  0  0  0  0  0  0  0
   22.2285  -35.9118   -5.2790 C   0  0  1  0  0  0  0  0  0  0  0  0
   21.5515  -37.0929   -4.6358 C   0  0  0  0  0  0  0  0  0  0  0  0
   20.1005  -36.8444   -4.6028 C   0  0  0  0  0  0  0  0  0  0  0  0
   19.2992  -37.7876   -4.7212 O   0  0  0  0  0  0  0  0  0  0  0  0
   23.6798  -35.8294   -4.9648 C   0  0  0  0  0  0  0  0  0  0  0  0
   24.4423  -36.6293   -5.5493 O   0  0  0  0  0  0  0  0  0  0  0  0
   19.6171  -35.5629   -4.4404 O   0  0  0  0  0  0  0  0  0  0  0  0
   26.0450  -32.0241   -9.6190 O   0  0  0  0  0  0  0  0  0  0  0  0
   26.0493  -32.3469   -8.2739 C   0  0  0  0  0  0  0  0  0  0  0  0
   24.9962  -31.9327   -7.4873 C   0  0  0  0  0  0  0  0  0  0  0  0
   24.9966  -32.2502   -6.1533 C   0  0  0  0  0  0  0  0  0  0  0  0
   26.0462  -32.9825   -5.5943 C   0  0  0  0  0  0  0  0  0  0  0  0
   26.0238  -33.2986   -4.1517 C   0  0  0  0  0  0  0  0  0  0  0  0
   25.6484  -34.7336   -3.8500 C   0  0  2  0  0  0  0  0  0  0  0  0
   24.2082  -34.8941   -4.0450 N   0  0  0  0  0  0  0  0  0  0  0  0
   26.0364  -35.1586   -2.4798 C   0  0  0  0  0  0  0  0  0  0  0  0
   25.3996  -34.6843   -1.5028 O   0  0  0  0  0  0  0  0  0  0  0  0
   27.0905  -33.3856   -6.4064 C   0  0  0  0  0  0  0  0  0  0  0  0
   27.1025  -33.0731   -7.7498 C   0  0  0  0  0  0  0  0  0  0  0  0
   28.4758  -37.6151   -0.9698 C   0  0  0  0  0  0  0  0  0  0  0  0
   27.5452  -36.4299   -0.9174 C   0  0  2  0  0  0  0  0  0  0  0  0
   27.0951  -36.0760   -2.2321 N   0  0  0  0  0  0  0  0  0  0  0  0
   28.2200  -35.3091   -0.2236 C   0  0  0  0  0  0  0  0  0  0  0  0
   28.6003  -34.3388   -0.9263 O   0  0  0  0  0  0  0  0  0  0  0  0
   28.4615  -35.2506    1.1326 O   0  0  0  0  0  0  0  0  0  0  0  0
  2  1  1  6
  3  2  1  0
  3  4  1  0
  4  5  2  0
  6  2  1  0
  7  6  2  0
  8  4  1  0
  9 10  1  0
 10 11  2  0
 10 20  1  0
 11 12  1  0
 12 13  2  0
 13 14  1  0
 15 14  1  1
 15 17  1  0
 15 16  1  0
 16  6  1  0
 17 23  1  0
 18 17  2  0
 19 13  1  0
 20 19  2  0
 22 21  1  6
 22 24  1  0
 23 22  1  0
 24 25  2  0
 24 26  1  0
M  END
$$$$
