DYA.pdb
     RDKit          3D

 26 26  0  0  1  0  0  0  0  0999 V2000
   30.7547  -36.4602   -3.0753 N   0  0  0  0  0  0  0  0  0  0  0  0
   29.7412  -36.0247   -2.1534 C   0  0  1  0  0  0  0  0  0  0  0  0
   30.3754  -35.4725   -0.9045 C   0  0  0  0  0  0  0  0  0  0  0  0
   31.0886  -36.5617   -0.2165 C   0  0  0  0  0  0  0  0  0  0  0  0
   31.0486  -37.7203   -0.6658 O   0  0  0  0  0  0  0  0  0  0  0  0
   28.7811  -35.0812   -2.7858 C   0  0  0  0  0  0  0  0  0  0  0  0
   28.2446  -34.2252   -2.0494 O   0  0  0  0  0  0  0  0  0  0  0  0
   31.8074  -36.3065    0.9326 O   0  0  0  0  0  0  0  0  0  0  0  0
   23.5971  -31.5941   -9.0769 O   0  0  0  0  0  0  0  0  0  0  0  0
   24.6204  -32.2041   -8.3738 C   0  0  0  0  0  0  0  0  0  0  0  0
   24.8545  -33.5477   -8.5719 C   0  0  0  0  0  0  0  0  0  0  0  0
   25.8677  -34.1564   -7.8766 C   0  0  0  0  0  0  0  0  0  0  0  0
   26.6542  -33.4304   -6.9796 C   0  0  0  0  0  0  0  0  0  0  0  0
   27.7304  -34.1170   -6.2366 C   0  0  0  0  0  0  0  0  0  0  0  0
   27.4594  -34.2426   -4.7527 C   0  0  2  0  0  0  0  0  0  0  0  0
   28.4657  -35.1249   -4.1637 N   0  0  0  0  0  0  0  0  0  0  0  0
   26.0924  -34.7429   -4.4533 C   0  0  0  0  0  0  0  0  0  0  0  0
   25.8766  -35.9806   -4.5342 O   0  0  0  0  0  0  0  0  0  0  0  0
   26.3977  -32.0833   -6.7999 C   0  0  0  0  0  0  0  0  0  0  0  0
   25.3818  -31.4587   -7.4929 C   0  0  0  0  0  0  0  0  0  0  0  0
   22.9317  -33.3877   -2.9643 C   0  0  0  0  0  0  0  0  0  0  0  0
   23.6782  -34.3297   -3.8746 C   0  0  2  0  0  0  0  0  0  0  0  0
   25.0242  -33.8802   -4.0810 N   0  0  0  0  0  0  0  0  0  0  0  0
   22.9268  -34.4832   -5.1413 C   0  0  0  0  0  0  0  0  0  0  0  0
   23.4677  -34.0522   -6.1909 O   0  0  0  0  0  0  0  0  0  0  0  0
   21.6807  -35.0626   -5.2551 O   0  0  0  0  0  0  0  0  0  0  0  0
  2  1  1  6
  3  2  1  0
  3  4  1  0
  4  5  2  0
  6  2  1  0
  7  6  2  0
  8  4  1  0
  9 10  1  0
 10 11  2  0
 10 20  1  0
 11 12  1  0
 12 13  2  0
 13 14  1  0
 15 14  1  6
 15 17  1  0
 15 16  1  0
 16  6  1  0
 17 23  1  0
 18 17  2  0
 19 13  1  0
 20 19  2  0
 22 21  1  1
 22 24  1  0
 23 22  1  0
 24 25  2  0
 24 26  1  0
M  END
$$$$
