DYA.pdb
     RDKit          3D

 26 26  0  0  1  0  0  0  0  0999 V2000
   28.3205  -19.3910  -19.3913 N   0  0  0  0  0  0  0  0  0  0  0  0
   27.5099  -18.6042  -18.5021 C   0  0  1  0  0  0  0  0  0  0  0  0
   26.3513  -18.0001  -19.2504 C   0  0  0  0  0  0  0  0  0  0  0  0
   26.8350  -16.8318  -20.0050 C   0  0  0  0  0  0  0  0  0  0  0  0
   26.1212  -16.3092  -20.8786 O   0  0  0  0  0  0  0  0  0  0  0  0
   27.0901  -19.3752  -17.3017 C   0  0  0  0  0  0  0  0  0  0  0  0
   26.6980  -20.5490  -17.4789 O   0  0  0  0  0  0  0  0  0  0  0  0
   28.0845  -16.3066  -19.7496 O   0  0  0  0  0  0  0  0  0  0  0  0
   25.6096  -21.5398   -8.8587 O   0  0  0  0  0  0  0  0  0  0  0  0
   26.0237  -20.9230  -10.0256 C   0  0  0  0  0  0  0  0  0  0  0  0
   26.9062  -21.5857  -10.8510 C   0  0  0  0  0  0  0  0  0  0  0  0
   27.3196  -20.9777  -12.0085 C   0  0  0  0  0  0  0  0  0  0  0  0
   26.8563  -19.7056  -12.3513 C   0  0  0  0  0  0  0  0  0  0  0  0
   27.3293  -19.0721  -13.5988 C   0  0  0  0  0  0  0  0  0  0  0  0
   26.6209  -19.5711  -14.8400 C   0  0  2  0  0  0  0  0  0  0  0  0
   27.1210  -18.8303  -15.9971 N   0  0  0  0  0  0  0  0  0  0  0  0
   25.1420  -19.4549  -14.7497 C   0  0  0  0  0  0  0  0  0  0  0  0
   24.6263  -18.3083  -14.8159 O   0  0  0  0  0  0  0  0  0  0  0  0
   25.9712  -19.0631  -11.5049 C   0  0  0  0  0  0  0  0  0  0  0  0
   25.5473  -19.6633  -10.3377 C   0  0  0  0  0  0  0  0  0  0  0  0
   22.2211  -21.7436  -15.0781 C   0  0  0  0  0  0  0  0  0  0  0  0
   22.8623  -20.4967  -14.5236 C   0  0  2  0  0  0  0  0  0  0  0  0
   24.2920  -20.5846  -14.5918 N   0  0  0  0  0  0  0  0  0  0  0  0
   22.3694  -20.2648  -13.1465 C   0  0  0  0  0  0  0  0  0  0  0  0
   22.9935  -20.8204  -12.2074 O   0  0  0  0  0  0  0  0  0  0  0  0
   21.2796  -19.4865  -12.8185 O   0  0  0  0  0  0  0  0  0  0  0  0
  2  1  1  6
  3  2  1  0
  3  4  1  0
  4  5  2  0
  6  2  1  0
  7  6  2  0
  8  4  1  0
  9 10  1  0
 10 11  2  0
 10 20  1  0
 11 12  1  0
 12 13  2  0
 13 14  1  0
 15 14  1  1
 15 17  1  0
 15 16  1  0
 16  6  1  0
 17 23  1  0
 18 17  2  0
 19 13  1  0
 20 19  2  0
 22 21  1  1
 22 24  1  0
 23 22  1  0
 24 25  2  0
 24 26  1  0
M  END
$$$$
