DYA.pdb
     RDKit          3D

 26 26  0  0  1  0  0  0  0  0999 V2000
   20.7739  -11.6162  -17.4379 N   0  0  0  0  0  0  0  0  0  0  0  0
   19.8595  -10.5452  -17.1489 C   0  0  1  0  0  0  0  0  0  0  0  0
   19.1791  -10.7834  -15.8270 C   0  0  0  0  0  0  0  0  0  0  0  0
   18.2955  -11.9543  -15.9556 C   0  0  0  0  0  0  0  0  0  0  0  0
   17.6731  -12.1580  -17.0124 O   0  0  0  0  0  0  0  0  0  0  0  0
   20.5160   -9.2135  -17.2350 C   0  0  0  0  0  0  0  0  0  0  0  0
   21.7033   -9.1306  -16.8524 O   0  0  0  0  0  0  0  0  0  0  0  0
   18.1502  -12.8357  -14.9048 O   0  0  0  0  0  0  0  0  0  0  0  0
   22.1304   -0.8445  -19.4934 O   0  0  0  0  0  0  0  0  0  0  0  0
   21.6350   -2.1318  -19.3896 C   0  0  0  0  0  0  0  0  0  0  0  0
   20.3342   -2.3121  -18.9714 C   0  0  0  0  0  0  0  0  0  0  0  0
   19.8392   -3.5866  -18.8667 C   0  0  0  0  0  0  0  0  0  0  0  0
   20.6370   -4.6898  -19.1782 C   0  0  0  0  0  0  0  0  0  0  0  0
   20.0789   -6.0507  -19.0440 C   0  0  0  0  0  0  0  0  0  0  0  0
   20.5023   -6.7585  -17.7747 C   0  0  2  0  0  0  0  0  0  0  0  0
   19.8502   -8.0662  -17.7252 N   0  0  0  0  0  0  0  0  0  0  0  0
   20.1956   -5.9796  -16.5467 C   0  0  0  0  0  0  0  0  0  0  0  0
   18.9937   -5.8791  -16.1859 O   0  0  0  0  0  0  0  0  0  0  0  0
   21.9387   -4.4804  -19.5954 C   0  0  0  0  0  0  0  0  0  0  0  0
   22.4491   -3.2038  -19.7050 C   0  0  0  0  0  0  0  0  0  0  0  0
   22.2229   -4.2249  -13.8781 C   0  0  0  0  0  0  0  0  0  0  0  0
   20.9383   -4.6503  -14.5429 C   0  0  2  0  0  0  0  0  0  0  0  0
   21.2039   -5.3465  -15.7681 N   0  0  0  0  0  0  0  0  0  0  0  0
   20.0722   -3.4647  -14.7360 C   0  0  0  0  0  0  0  0  0  0  0  0
   20.0400   -2.9524  -15.8834 O   0  0  0  0  0  0  0  0  0  0  0  0
   19.3001   -2.8823  -13.7532 O   0  0  0  0  0  0  0  0  0  0  0  0
  2  1  1  1
  3  2  1  0
  3  4  1  0
  4  5  2  0
  6  2  1  0
  7  6  2  0
  8  4  1  0
  9 10  1  0
 10 11  2  0
 10 20  1  0
 11 12  1  0
 12 13  2  0
 13 14  1  0
 15 14  1  6
 15 17  1  0
 15 16  1  0
 16  6  1  0
 17 23  1  0
 18 17  2  0
 19 13  1  0
 20 19  2  0
 22 21  1  6
 22 24  1  0
 23 22  1  0
 24 25  2  0
 24 26  1  0
M  END
$$$$
