DYA.pdb
     RDKit          3D

 26 26  0  0  1  0  0  0  0  0999 V2000
   17.2243   -9.3795  -12.8556 N   0  0  0  0  0  0  0  0  0  0  0  0
   17.6535   -8.2417  -12.0889 C   0  0  1  0  0  0  0  0  0  0  0  0
   18.4531   -7.3028  -12.9528 C   0  0  0  0  0  0  0  0  0  0  0  0
   19.6381   -8.0181  -13.4553 C   0  0  0  0  0  0  0  0  0  0  0  0
   20.1991   -8.8756  -12.7513 O   0  0  0  0  0  0  0  0  0  0  0  0
   16.5177   -7.5743  -11.3988 C   0  0  0  0  0  0  0  0  0  0  0  0
   15.4257   -7.5218  -12.0051 O   0  0  0  0  0  0  0  0  0  0  0  0
   20.1365   -7.7431  -14.7116 O   0  0  0  0  0  0  0  0  0  0  0  0
   11.1378  -10.9233   -9.0493 O   0  0  0  0  0  0  0  0  0  0  0  0
   12.1330   -9.9851   -8.8425 C   0  0  0  0  0  0  0  0  0  0  0  0
   11.7829   -8.7356   -8.3783 C   0  0  0  0  0  0  0  0  0  0  0  0
   12.7663   -7.8024   -8.1723 C   0  0  0  0  0  0  0  0  0  0  0  0
   14.1049   -8.1080   -8.4275 C   0  0  0  0  0  0  0  0  0  0  0  0
   15.1399   -7.0776   -8.2072 C   0  0  0  0  0  0  0  0  0  0  0  0
   15.5202   -6.3207   -9.4617 C   0  0  2  0  0  0  0  0  0  0  0  0
   16.6362   -7.0105  -10.1073 N   0  0  0  0  0  0  0  0  0  0  0  0
   15.8713   -4.9009   -9.1982 C   0  0  0  0  0  0  0  0  0  0  0  0
   16.8608   -4.6558   -8.4595 O   0  0  0  0  0  0  0  0  0  0  0  0
   14.4285   -9.3695   -8.8928 C   0  0  0  0  0  0  0  0  0  0  0  0
   13.4492  -10.3175   -9.1042 C   0  0  0  0  0  0  0  0  0  0  0  0
   14.5960   -1.5232  -10.3206 C   0  0  0  0  0  0  0  0  0  0  0  0
   15.3992   -2.4400   -9.4330 C   0  0  2  0  0  0  0  0  0  0  0  0
   15.1346   -3.8142   -9.7461 N   0  0  0  0  0  0  0  0  0  0  0  0
   15.1221   -2.1138   -8.0153 C   0  0  0  0  0  0  0  0  0  0  0  0
   15.4569   -0.9727   -7.6082 O   0  0  0  0  0  0  0  0  0  0  0  0
   14.5254   -2.9664   -7.1108 O   0  0  0  0  0  0  0  0  0  0  0  0
  2  1  1  6
  3  2  1  0
  3  4  1  0
  4  5  2  0
  6  2  1  0
  7  6  2  0
  8  4  1  0
  9 10  1  0
 10 11  2  0
 10 20  1  0
 11 12  1  0
 12 13  2  0
 13 14  1  0
 15 14  1  1
 15 17  1  0
 15 16  1  0
 16  6  1  0
 17 23  1  0
 18 17  2  0
 19 13  1  0
 20 19  2  0
 22 21  1  6
 22 24  1  0
 23 22  1  0
 24 25  2  0
 24 26  1  0
M  END
$$$$
