IPG.pdb
     RDKit          3D

 20 20  0  0  1  0  0  0  0  0999 V2000
    6.8770  -11.6120   27.5405 C   0  0  0  0  0  0  0  0  0  0  0  0
    6.1185  -12.5988   26.6700 C   0  0  0  0  0  0  0  0  0  0  0  0
    7.1149  -13.5921   26.1648 C   0  0  2  0  0  0  0  0  0  0  0  0
    8.2315  -12.9038   25.4077 C   0  0  0  0  0  0  0  0  0  0  0  0
    6.4562  -14.6595   25.3107 C   0  0  2  0  0  0  0  0  0  0  0  0
    5.5817  -15.4048   26.1899 N   0  0  0  0  0  0  0  0  0  0  0  0
    7.3998  -15.5566   24.6487 C   0  0  0  0  0  0  0  0  0  0  0  0
    7.7319  -16.6676   25.1965 O   0  0  0  0  0  0  0  0  0  0  0  0
    7.9624  -15.2052   23.3850 N   0  0  0  0  0  0  0  0  0  0  0  0
    7.8795  -13.9556   22.6755 C   0  0  0  0  0  0  0  0  0  0  0  0
    8.5113  -14.1735   21.3009 C   0  0  0  0  0  0  0  0  0  0  0  0
    8.3668  -15.6781   21.1698 C   0  0  0  0  0  0  0  0  0  0  0  0
    8.7608  -16.1143   22.5407 C   0  0  1  0  0  0  0  0  0  0  0  0
   10.1928  -15.8540   22.8424 C   0  0  0  0  0  0  0  0  0  0  0  0
   10.5960  -14.7362   23.2707 O   0  0  0  0  0  0  0  0  0  0  0  0
   11.1452  -16.9023   22.6417 N   0  0  0  0  0  0  0  0  0  0  0  0
   12.3613  -16.9789   23.3756 C   0  0  0  0  0  0  0  0  0  0  0  0
   13.4323  -16.1058   22.8450 C   0  0  0  0  0  0  0  0  0  0  0  0
   13.9461  -15.1491   23.7093 O   0  0  0  0  0  0  0  0  0  0  0  0
   13.8989  -16.1713   21.6866 O   0  0  0  0  0  0  0  0  0  0  0  0
  2  1  1  0
  3  2  1  0
  3  5  1  0
  3  4  1  6
  5  7  1  0
  5  6  1  1
  7  9  1  0
  8  7  2  0
  9 13  1  0
  9 10  1  0
 11 10  1  0
 12 11  1  0
 12 13  1  0
 13 14  1  6
 14 16  1  0
 14 15  2  0
 16 17  1  0
 17 18  1  0
 18 19  1  0
 20 18  2  0
M  END
$$$$
