IPG.pdb
     RDKit          3D

 20 20  0  0  1  0  0  0  0  0999 V2000
    6.9385  -11.7599   27.4134 C   0  0  0  0  0  0  0  0  0  0  0  0
    6.1396  -12.7627   26.5991 C   0  0  0  0  0  0  0  0  0  0  0  0
    7.1153  -13.7463   26.0376 C   0  0  2  0  0  0  0  0  0  0  0  0
    8.1798  -13.0474   25.2179 C   0  0  0  0  0  0  0  0  0  0  0  0
    6.4193  -14.8206   25.2225 C   0  0  2  0  0  0  0  0  0  0  0  0
    5.6409  -15.6035   26.1577 N   0  0  0  0  0  0  0  0  0  0  0  0
    7.3306  -15.6802   24.4715 C   0  0  0  0  0  0  0  0  0  0  0  0
    7.7224  -16.7975   24.9643 O   0  0  0  0  0  0  0  0  0  0  0  0
    7.7947  -15.2848   23.1811 N   0  0  0  0  0  0  0  0  0  0  0  0
    7.6460  -14.0161   22.5175 C   0  0  0  0  0  0  0  0  0  0  0  0
    8.1772  -14.1856   21.0943 C   0  0  0  0  0  0  0  0  0  0  0  0
    8.0399  -15.6875   20.9290 C   0  0  0  0  0  0  0  0  0  0  0  0
    8.5386  -16.1583   22.2536 C   0  0  1  0  0  0  0  0  0  0  0  0
    9.9860  -15.8881   22.4573 C   0  0  0  0  0  0  0  0  0  0  0  0
   10.3969  -14.8800   23.0980 O   0  0  0  0  0  0  0  0  0  0  0  0
   10.9448  -16.7982   21.9105 N   0  0  0  0  0  0  0  0  0  0  0  0
   11.9609  -17.4020   22.7018 C   0  0  0  0  0  0  0  0  0  0  0  0
   13.2230  -16.6296   22.7397 C   0  0  0  0  0  0  0  0  0  0  0  0
   13.3904  -15.7551   23.8044 O   0  0  0  0  0  0  0  0  0  0  0  0
   14.1360  -16.7108   21.8889 O   0  0  0  0  0  0  0  0  0  0  0  0
  2  1  1  0
  3  2  1  0
  3  5  1  0
  3  4  1  6
  5  7  1  0
  5  6  1  1
  7  9  1  0
  8  7  2  0
  9 13  1  0
  9 10  1  0
 11 10  1  0
 12 11  1  0
 12 13  1  0
 13 14  1  6
 14 16  1  0
 14 15  2  0
 16 17  1  0
 17 18  1  0
 18 19  1  0
 20 18  2  0
M  END
$$$$
