IPG.pdb
     RDKit          3D

 20 20  0  0  1  0  0  0  0  0999 V2000
    8.6128  -12.6135   27.1842 C   0  0  0  0  0  0  0  0  0  0  0  0
    8.0294  -13.9878   26.9051 C   0  0  0  0  0  0  0  0  0  0  0  0
    6.9734  -13.8108   25.8619 C   0  0  2  0  0  0  0  0  0  0  0  0
    5.8613  -12.9127   26.3622 C   0  0  0  0  0  0  0  0  0  0  0  0
    6.4246  -15.1448   25.3904 C   0  0  2  0  0  0  0  0  0  0  0  0
    6.1102  -15.9021   26.5824 N   0  0  0  0  0  0  0  0  0  0  0  0
    7.3408  -15.8953   24.5356 C   0  0  0  0  0  0  0  0  0  0  0  0
    7.6652  -17.1000   24.8327 O   0  0  0  0  0  0  0  0  0  0  0  0
    7.8850  -15.2948   23.3607 N   0  0  0  0  0  0  0  0  0  0  0  0
    7.6990  -13.9580   22.8608 C   0  0  0  0  0  0  0  0  0  0  0  0
    8.3644  -13.8929   21.4862 C   0  0  0  0  0  0  0  0  0  0  0  0
    8.3569  -15.3626   21.1098 C   0  0  0  0  0  0  0  0  0  0  0  0
    8.7717  -15.9813   22.4021 C   0  0  1  0  0  0  0  0  0  0  0  0
   10.1709  -15.6510   22.7799 C   0  0  0  0  0  0  0  0  0  0  0  0
   10.6512  -14.4925   22.6289 O   0  0  0  0  0  0  0  0  0  0  0  0
   11.0005  -16.6773   23.3321 N   0  0  0  0  0  0  0  0  0  0  0  0
   12.2796  -16.9945   22.7968 C   0  0  0  0  0  0  0  0  0  0  0  0
   13.3419  -16.0416   23.1898 C   0  0  0  0  0  0  0  0  0  0  0  0
   13.7053  -16.0262   24.5292 O   0  0  0  0  0  0  0  0  0  0  0  0
   13.9259  -15.2604   22.4071 O   0  0  0  0  0  0  0  0  0  0  0  0
  2  1  1  0
  3  2  1  0
  3  5  1  0
  3  4  1  1
  5  7  1  0
  5  6  1  1
  7  9  1  0
  8  7  2  0
  9 13  1  0
  9 10  1  0
 11 10  1  0
 12 11  1  0
 12 13  1  0
 13 14  1  1
 14 16  1  0
 14 15  2  0
 16 17  1  0
 17 18  1  0
 18 19  1  0
 20 18  2  0
M  END
$$$$
