IPG.pdb
     RDKit          3D

 20 20  0  0  1  0  0  0  0  0999 V2000
    6.4466  -11.6868   27.4302 C   0  0  0  0  0  0  0  0  0  0  0  0
    5.8698  -12.8997   26.7207 C   0  0  0  0  0  0  0  0  0  0  0  0
    7.0173  -13.6303   26.1008 C   0  0  2  0  0  0  0  0  0  0  0  0
    7.8007  -12.7242   25.1740 C   0  0  0  0  0  0  0  0  0  0  0  0
    6.5572  -14.8821   25.3769 C   0  0  2  0  0  0  0  0  0  0  0  0
    5.9551  -15.7355   26.3780 N   0  0  0  0  0  0  0  0  0  0  0  0
    7.6261  -15.5908   24.6778 C   0  0  0  0  0  0  0  0  0  0  0  0
    8.2704  -16.5328   25.2628 O   0  0  0  0  0  0  0  0  0  0  0  0
    7.9647  -15.2413   23.3361 N   0  0  0  0  0  0  0  0  0  0  0  0
    7.4919  -14.1365   22.5438 C   0  0  0  0  0  0  0  0  0  0  0  0
    8.0389  -14.3279   21.1294 C   0  0  0  0  0  0  0  0  0  0  0  0
    8.2893  -15.8243   21.1341 C   0  0  0  0  0  0  0  0  0  0  0  0
    8.9009  -15.9982   22.4834 C   0  0  1  0  0  0  0  0  0  0  0  0
   10.2324  -15.3485   22.6041 C   0  0  0  0  0  0  0  0  0  0  0  0
   10.3582  -14.1061   22.7942 O   0  0  0  0  0  0  0  0  0  0  0  0
   11.4093  -16.1554   22.5020 N   0  0  0  0  0  0  0  0  0  0  0  0
   12.6110  -15.8428   23.1958 C   0  0  0  0  0  0  0  0  0  0  0  0
   13.6804  -16.8504   23.0172 C   0  0  0  0  0  0  0  0  0  0  0  0
   14.8222  -16.4392   22.3439 O   0  0  0  0  0  0  0  0  0  0  0  0
   13.6251  -18.0308   23.4264 O   0  0  0  0  0  0  0  0  0  0  0  0
  2  1  1  0
  3  2  1  0
  3  5  1  0
  3  4  1  6
  5  7  1  0
  5  6  1  1
  7  9  1  0
  8  7  2  0
  9 13  1  0
  9 10  1  0
 11 10  1  0
 12 11  1  0
 12 13  1  0
 13 14  1  6
 14 16  1  0
 14 15  2  0
 16 17  1  0
 17 18  1  0
 18 19  1  0
 20 18  2  0
M  END
$$$$
