IPG.pdb
     RDKit          3D

 20 20  0  0  1  0  0  0  0  0999 V2000
    8.3524  -12.5612   27.3103 C   0  0  0  0  0  0  0  0  0  0  0  0
    7.9195  -13.9784   26.9770 C   0  0  0  0  0  0  0  0  0  0  0  0
    6.8396  -13.8752   25.9484 C   0  0  2  0  0  0  0  0  0  0  0  0
    5.6764  -13.0532   26.4632 C   0  0  0  0  0  0  0  0  0  0  0  0
    6.3757  -15.2441   25.4859 C   0  0  2  0  0  0  0  0  0  0  0  0
    6.1944  -16.0396   26.6807 N   0  0  0  0  0  0  0  0  0  0  0  0
    7.2993  -15.9052   24.5676 C   0  0  0  0  0  0  0  0  0  0  0  0
    7.7279  -17.0877   24.8183 O   0  0  0  0  0  0  0  0  0  0  0  0
    7.7346  -15.2413   23.3816 N   0  0  0  0  0  0  0  0  0  0  0  0
    7.4783  -13.8900   22.9572 C   0  0  0  0  0  0  0  0  0  0  0  0
    8.0312  -13.7490   21.5392 C   0  0  0  0  0  0  0  0  0  0  0  0
    8.0285  -15.2013   21.0999 C   0  0  0  0  0  0  0  0  0  0  0  0
    8.5586  -15.8625   22.3273 C   0  0  1  0  0  0  0  0  0  0  0  0
    9.9751  -15.5110   22.6090 C   0  0  0  0  0  0  0  0  0  0  0  0
   10.2909  -14.5210   23.3271 O   0  0  0  0  0  0  0  0  0  0  0  0
   11.0144  -16.3192   22.0494 N   0  0  0  0  0  0  0  0  0  0  0  0
   12.3894  -16.1055   22.3445 C   0  0  0  0  0  0  0  0  0  0  0  0
   12.9450  -17.0692   23.3209 C   0  0  0  0  0  0  0  0  0  0  0  0
   13.8857  -17.9716   22.8445 O   0  0  0  0  0  0  0  0  0  0  0  0
   12.6284  -17.1242   24.5295 O   0  0  0  0  0  0  0  0  0  0  0  0
  2  1  1  0
  3  2  1  0
  3  5  1  0
  3  4  1  1
  5  7  1  0
  5  6  1  1
  7  9  1  0
  8  7  2  0
  9 13  1  0
  9 10  1  0
 11 10  1  0
 12 11  1  0
 12 13  1  0
 13 14  1  1
 14 16  1  0
 14 15  2  0
 16 17  1  0
 17 18  1  0
 18 19  1  0
 20 18  2  0
M  END
$$$$
