IPG.pdb
     RDKit          3D

 20 20  0  0  1  0  0  0  0  0999 V2000
    6.7552  -11.7645   27.4787 C   0  0  0  0  0  0  0  0  0  0  0  0
    6.0556  -12.9270   26.7961 C   0  0  0  0  0  0  0  0  0  0  0  0
    7.1151  -13.7452   26.1306 C   0  0  2  0  0  0  0  0  0  0  0  0
    7.9807  -12.8858   25.2329 C   0  0  0  0  0  0  0  0  0  0  0  0
    6.5205  -14.9096   25.3602 C   0  0  2  0  0  0  0  0  0  0  0  0
    5.8456  -15.7414   26.3328 N   0  0  0  0  0  0  0  0  0  0  0  0
    7.5029  -15.6914   24.6138 C   0  0  0  0  0  0  0  0  0  0  0  0
    8.0441  -16.7272   25.1418 O   0  0  0  0  0  0  0  0  0  0  0  0
    7.8707  -15.3099   23.2886 N   0  0  0  0  0  0  0  0  0  0  0  0
    7.5783  -14.0878   22.5866 C   0  0  0  0  0  0  0  0  0  0  0  0
    8.0579  -14.2679   21.1465 C   0  0  0  0  0  0  0  0  0  0  0  0
    8.0496  -15.7816   21.0437 C   0  0  0  0  0  0  0  0  0  0  0  0
    8.6480  -16.1515   22.3591 C   0  0  1  0  0  0  0  0  0  0  0  0
   10.0727  -15.7460   22.4821 C   0  0  0  0  0  0  0  0  0  0  0  0
   10.4235  -14.7090   23.1122 O   0  0  0  0  0  0  0  0  0  0  0  0
   11.0794  -16.5556   21.8675 N   0  0  0  0  0  0  0  0  0  0  0  0
   11.9898  -17.3451   22.6232 C   0  0  0  0  0  0  0  0  0  0  0  0
   12.9428  -16.5480   23.4276 C   0  0  0  0  0  0  0  0  0  0  0  0
   13.8942  -15.8176   22.7292 O   0  0  0  0  0  0  0  0  0  0  0  0
   12.9485  -16.4891   24.6768 O   0  0  0  0  0  0  0  0  0  0  0  0
  2  1  1  0
  3  2  1  0
  3  5  1  0
  3  4  1  6
  5  7  1  0
  5  6  1  1
  7  9  1  0
  8  7  2  0
  9 13  1  0
  9 10  1  0
 11 10  1  0
 12 11  1  0
 12 13  1  0
 13 14  1  6
 14 16  1  0
 14 15  2  0
 16 17  1  0
 17 18  1  0
 18 19  1  0
 20 18  2  0
M  END
$$$$
