IPG.pdb
     RDKit          3D

 20 20  0  0  1  0  0  0  0  0999 V2000
    6.6159  -11.7088   27.4688 C   0  0  0  0  0  0  0  0  0  0  0  0
    5.9846  -12.8872   26.7478 C   0  0  0  0  0  0  0  0  0  0  0  0
    7.0978  -13.6641   26.1217 C   0  0  2  0  0  0  0  0  0  0  0  0
    7.9136  -12.7902   25.1919 C   0  0  0  0  0  0  0  0  0  0  0  0
    6.5827  -14.8949   25.3988 C   0  0  2  0  0  0  0  0  0  0  0  0
    5.9861  -15.7424   26.4083 N   0  0  0  0  0  0  0  0  0  0  0  0
    7.6111  -15.6249   24.6620 C   0  0  0  0  0  0  0  0  0  0  0  0
    8.2149  -16.6185   25.2033 O   0  0  0  0  0  0  0  0  0  0  0  0
    7.9549  -15.2392   23.3315 N   0  0  0  0  0  0  0  0  0  0  0  0
    7.5257  -14.0848   22.5865 C   0  0  0  0  0  0  0  0  0  0  0  0
    8.0532  -14.2454   21.1609 C   0  0  0  0  0  0  0  0  0  0  0  0
    8.2368  -15.7504   21.1060 C   0  0  0  0  0  0  0  0  0  0  0  0
    8.8502  -16.0031   22.4419 C   0  0  1  0  0  0  0  0  0  0  0  0
   10.2101  -15.4180   22.5753 C   0  0  0  0  0  0  0  0  0  0  0  0
   10.3976  -14.1736   22.6844 O   0  0  0  0  0  0  0  0  0  0  0  0
   11.3431  -16.2914   22.5802 N   0  0  0  0  0  0  0  0  0  0  0  0
   12.6138  -15.8894   23.0771 C   0  0  0  0  0  0  0  0  0  0  0  0
   13.6192  -16.9756   23.0875 C   0  0  0  0  0  0  0  0  0  0  0  0
   13.3966  -18.0268   23.9660 O   0  0  0  0  0  0  0  0  0  0  0  0
   14.6416  -17.0095   22.3680 O   0  0  0  0  0  0  0  0  0  0  0  0
  2  1  1  0
  3  2  1  0
  3  5  1  0
  3  4  1  6
  5  7  1  0
  5  6  1  1
  7  9  1  0
  8  7  2  0
  9 13  1  0
  9 10  1  0
 11 10  1  0
 12 11  1  0
 12 13  1  0
 13 14  1  6
 14 16  1  0
 14 15  2  0
 16 17  1  0
 17 18  1  0
 18 19  1  0
 20 18  2  0
M  END
$$$$
