IPG.pdb
     RDKit          3D

 20 20  0  0  1  0  0  0  0  0999 V2000
    6.9780  -11.7943   27.4805 C   0  0  0  0  0  0  0  0  0  0  0  0
    6.1521  -12.7115   26.5954 C   0  0  0  0  0  0  0  0  0  0  0  0
    7.0909  -13.7184   26.0126 C   0  0  2  0  0  0  0  0  0  0  0  0
    8.2262  -13.0391   25.2756 C   0  0  0  0  0  0  0  0  0  0  0  0
    6.3671  -14.7004   25.1100 C   0  0  2  0  0  0  0  0  0  0  0  0
    5.4160  -15.4000   25.9463 N   0  0  0  0  0  0  0  0  0  0  0  0
    7.2496  -15.6496   24.4365 C   0  0  0  0  0  0  0  0  0  0  0  0
    7.4597  -16.8100   24.9404 O   0  0  0  0  0  0  0  0  0  0  0  0
    7.8876  -15.2946   23.2101 N   0  0  0  0  0  0  0  0  0  0  0  0
    8.1796  -13.9846   22.6901 C   0  0  0  0  0  0  0  0  0  0  0  0
    8.7133  -14.1707   21.2699 C   0  0  0  0  0  0  0  0  0  0  0  0
    8.1255  -15.5284   20.9335 C   0  0  0  0  0  0  0  0  0  0  0  0
    8.3754  -16.2615   22.2082 C   0  0  1  0  0  0  0  0  0  0  0  0
    9.8207  -16.4833   22.4754 C   0  0  0  0  0  0  0  0  0  0  0  0
   10.5322  -17.2270   21.7431 O   0  0  0  0  0  0  0  0  0  0  0  0
   10.4259  -15.8343   23.5975 N   0  0  0  0  0  0  0  0  0  0  0  0
   11.7423  -16.1434   24.0387 C   0  0  0  0  0  0  0  0  0  0  0  0
   12.8049  -15.6349   23.1425 C   0  0  0  0  0  0  0  0  0  0  0  0
   13.6713  -14.6887   23.6721 O   0  0  0  0  0  0  0  0  0  0  0  0
   12.9722  -15.9954   21.9568 O   0  0  0  0  0  0  0  0  0  0  0  0
  2  1  1  0
  3  2  1  0
  3  5  1  0
  3  4  1  6
  5  7  1  0
  5  6  1  1
  7  9  1  0
  8  7  2  0
  9 13  1  0
  9 10  1  0
 11 10  1  0
 12 11  1  0
 12 13  1  0
 13 14  1  1
 14 16  1  0
 14 15  2  0
 16 17  1  0
 17 18  1  0
 18 19  1  0
 20 18  2  0
M  END
$$$$
