IPG.pdb
     RDKit          3D

 20 20  0  0  1  0  0  0  0  0999 V2000
    6.6036  -11.6819   27.6535 C   0  0  0  0  0  0  0  0  0  0  0  0
    5.8752  -12.7609   26.8710 C   0  0  0  0  0  0  0  0  0  0  0  0
    6.9199  -13.6288   26.2465 C   0  0  2  0  0  0  0  0  0  0  0  0
    7.9093  -12.8015   25.4526 C   0  0  0  0  0  0  0  0  0  0  0  0
    6.3024  -14.7138   25.3838 C   0  0  2  0  0  0  0  0  0  0  0  0
    5.4313  -15.4785   26.2496 N   0  0  0  0  0  0  0  0  0  0  0  0
    7.2791  -15.5889   24.7405 C   0  0  0  0  0  0  0  0  0  0  0  0
    7.7049  -16.6385   25.3420 O   0  0  0  0  0  0  0  0  0  0  0  0
    7.7699  -15.2841   23.4354 N   0  0  0  0  0  0  0  0  0  0  0  0
    7.6385  -14.0639   22.6833 C   0  0  0  0  0  0  0  0  0  0  0  0
    8.1972  -14.3319   21.2860 C   0  0  0  0  0  0  0  0  0  0  0  0
    8.0584  -15.8414   21.2218 C   0  0  0  0  0  0  0  0  0  0  0  0
    8.5292  -16.2207   22.5853 C   0  0  1  0  0  0  0  0  0  0  0  0
    9.9732  -15.9398   22.7987 C   0  0  0  0  0  0  0  0  0  0  0  0
   10.3872  -14.8113   23.1867 O   0  0  0  0  0  0  0  0  0  0  0  0
   10.9249  -16.9802   22.5573 N   0  0  0  0  0  0  0  0  0  0  0  0
   12.1199  -17.1123   23.3174 C   0  0  0  0  0  0  0  0  0  0  0  0
   13.2345  -16.2726   22.8241 C   0  0  0  0  0  0  0  0  0  0  0  0
   14.1165  -15.7801   23.7759 O   0  0  0  0  0  0  0  0  0  0  0  0
   13.4324  -15.9811   21.6242 O   0  0  0  0  0  0  0  0  0  0  0  0
  2  1  1  0
  3  2  1  0
  3  5  1  0
  3  4  1  6
  5  7  1  0
  5  6  1  1
  7  9  1  0
  8  7  2  0
  9 13  1  0
  9 10  1  0
 11 10  1  0
 12 11  1  0
 12 13  1  0
 13 14  1  6
 14 16  1  0
 14 15  2  0
 16 17  1  0
 17 18  1  0
 18 19  1  0
 20 18  2  0
M  END
$$$$
