IPG.pdb
     RDKit          3D

 20 20  0  0  1  0  0  0  0  0999 V2000
    6.9828  -11.8762   27.2845 C   0  0  0  0  0  0  0  0  0  0  0  0
    6.1895  -12.9916   26.6260 C   0  0  0  0  0  0  0  0  0  0  0  0
    7.1760  -13.8932   25.9561 C   0  0  2  0  0  0  0  0  0  0  0  0
    8.0266  -13.1263   24.9652 C   0  0  0  0  0  0  0  0  0  0  0  0
    6.4922  -15.0718   25.2882 C   0  0  2  0  0  0  0  0  0  0  0  0
    5.9664  -15.8972   26.3537 N   0  0  0  0  0  0  0  0  0  0  0  0
    7.3695  -15.8545   24.4216 C   0  0  0  0  0  0  0  0  0  0  0  0
    7.8862  -16.9506   24.8415 O   0  0  0  0  0  0  0  0  0  0  0  0
    7.6611  -15.4068   23.0982 N   0  0  0  0  0  0  0  0  0  0  0  0
    7.2836  -14.1741   22.4581 C   0  0  0  0  0  0  0  0  0  0  0  0
    7.7069  -14.2775   20.9930 C   0  0  0  0  0  0  0  0  0  0  0  0
    7.7619  -15.7850   20.8308 C   0  0  0  0  0  0  0  0  0  0  0  0
    8.4336  -16.1758   22.1040 C   0  0  1  0  0  0  0  0  0  0  0  0
    9.8428  -15.7095   22.1825 C   0  0  0  0  0  0  0  0  0  0  0  0
   10.1520  -14.4884   22.0882 O   0  0  0  0  0  0  0  0  0  0  0  0
   10.8826  -16.6738   22.3710 N   0  0  0  0  0  0  0  0  0  0  0  0
   12.2530  -16.3072   22.4753 C   0  0  0  0  0  0  0  0  0  0  0  0
   13.1595  -17.4540   22.7079 C   0  0  0  0  0  0  0  0  0  0  0  0
   12.8153  -18.6565   22.1064 O   0  0  0  0  0  0  0  0  0  0  0  0
   14.2001  -17.4129   23.4003 O   0  0  0  0  0  0  0  0  0  0  0  0
  2  1  1  0
  3  2  1  0
  3  5  1  0
  3  4  1  6
  5  7  1  0
  5  6  1  1
  7  9  1  0
  8  7  2  0
  9 13  1  0
  9 10  1  0
 11 10  1  0
 12 11  1  0
 12 13  1  0
 13 14  1  6
 14 16  1  0
 14 15  2  0
 16 17  1  0
 17 18  1  0
 18 19  1  0
 20 18  2  0
M  END
$$$$
