IPG.pdb
     RDKit          3D

 20 20  0  0  1  0  0  0  0  0999 V2000
    7.1859  -11.7404   27.4704 C   0  0  0  0  0  0  0  0  0  0  0  0
    6.2707  -12.6018   26.6175 C   0  0  0  0  0  0  0  0  0  0  0  0
    7.1186  -13.6737   26.0118 C   0  0  2  0  0  0  0  0  0  0  0  0
    8.2755  -13.0779   25.2370 C   0  0  0  0  0  0  0  0  0  0  0  0
    6.3006  -14.6055   25.1369 C   0  0  2  0  0  0  0  0  0  0  0  0
    5.3412  -15.2479   26.0087 N   0  0  0  0  0  0  0  0  0  0  0  0
    7.0956  -15.6050   24.4280 C   0  0  0  0  0  0  0  0  0  0  0  0
    7.2448  -16.7811   24.9171 O   0  0  0  0  0  0  0  0  0  0  0  0
    7.7149  -15.2823   23.1832 N   0  0  0  0  0  0  0  0  0  0  0  0
    8.0173  -13.9867   22.6340 C   0  0  0  0  0  0  0  0  0  0  0  0
    8.5200  -14.2067   21.2074 C   0  0  0  0  0  0  0  0  0  0  0  0
    7.9043  -15.5605   20.9071 C   0  0  0  0  0  0  0  0  0  0  0  0
    8.1676  -16.2747   22.1899 C   0  0  1  0  0  0  0  0  0  0  0  0
    9.6142  -16.5151   22.4329 C   0  0  0  0  0  0  0  0  0  0  0  0
   10.2750  -17.3614   21.7677 O   0  0  0  0  0  0  0  0  0  0  0  0
   10.2799  -15.7644   23.4526 N   0  0  0  0  0  0  0  0  0  0  0  0
   11.5688  -16.1164   23.9404 C   0  0  0  0  0  0  0  0  0  0  0  0
   12.6649  -15.8242   22.9896 C   0  0  0  0  0  0  0  0  0  0  0  0
   12.2969  -15.4721   21.6985 O   0  0  0  0  0  0  0  0  0  0  0  0
   13.8833  -15.8726   23.2674 O   0  0  0  0  0  0  0  0  0  0  0  0
  2  1  1  0
  3  2  1  0
  3  5  1  0
  3  4  1  6
  5  7  1  0
  5  6  1  1
  7  9  1  0
  8  7  2  0
  9 13  1  0
  9 10  1  0
 11 10  1  0
 12 11  1  0
 12 13  1  0
 13 14  1  1
 14 16  1  0
 14 15  2  0
 16 17  1  0
 17 18  1  0
 18 19  1  0
 20 18  2  0
M  END
$$$$
