KDY.pdb
     RDKit          3D

 30 30  0  0  1  0  0  0  0  0999 V2000
    7.6975  -13.5807   20.8580 N   0  0  0  0  0  0  0  0  0  0  0  0
    7.2250  -14.9279   20.7845 C   0  0  1  0  0  0  0  0  0  0  0  0
    7.0116  -15.3502   19.3332 C   0  0  0  0  0  0  0  0  0  0  0  0
    7.6617  -14.3464   18.4401 C   0  0  0  0  0  0  0  0  0  0  0  0
    7.5363  -14.6023   16.9900 C   0  0  0  0  0  0  0  0  0  0  0  0
    8.2167  -13.7049   16.0406 C   0  0  0  0  0  0  0  0  0  0  0  0
    8.1165  -14.1322   14.6877 N   0  0  0  0  0  0  0  0  0  0  0  0
    8.1894  -15.8593   21.4190 C   0  0  0  0  0  0  0  0  0  0  0  0
    7.9270  -17.0908   21.5053 O   0  0  0  0  0  0  0  0  0  0  0  0
    9.4305  -15.4023   21.9467 N   0  0  0  0  0  0  0  0  0  0  0  0
   10.2593  -16.3086   22.6745 C   0  0  1  0  0  0  0  0  0  0  0  0
   11.6903  -16.1877   22.2028 C   0  0  0  0  0  0  0  0  0  0  0  0
   12.5934  -17.1567   22.8720 C   0  0  0  0  0  0  0  0  0  0  0  0
   12.3104  -18.3933   22.8266 O   0  0  0  0  0  0  0  0  0  0  0  0
   10.2040  -16.0551   24.1404 C   0  0  0  0  0  0  0  0  0  0  0  0
   10.7586  -15.0648   24.6813 O   0  0  0  0  0  0  0  0  0  0  0  0
   13.7431  -16.8199   23.5568 O   0  0  0  0  0  0  0  0  0  0  0  0
    6.8071  -11.0827   26.2434 O   0  0  0  0  0  0  0  0  0  0  0  0
    7.1129  -12.4069   26.4028 C   0  0  0  0  0  0  0  0  0  0  0  0
    8.0364  -12.7994   27.3629 C   0  0  0  0  0  0  0  0  0  0  0  0
    8.3322  -14.1415   27.5090 C   0  0  0  0  0  0  0  0  0  0  0  0
    7.7362  -15.1037   26.7275 C   0  0  0  0  0  0  0  0  0  0  0  0
    8.0586  -16.5291   26.8792 C   0  0  0  0  0  0  0  0  0  0  0  0
    9.4575  -16.8090   26.4225 C   0  0  2  0  0  0  0  0  0  0  0  0
    9.5019  -16.9614   24.9565 N   0  0  0  0  0  0  0  0  0  0  0  0
   10.0689  -18.0025   27.0321 C   0  0  0  0  0  0  0  0  0  0  0  0
   10.5637  -19.0754   26.3126 O   0  0  0  0  0  0  0  0  0  0  0  0
    6.8212  -14.6841   25.7804 C   0  0  0  0  0  0  0  0  0  0  0  0
    6.5041  -13.3527   25.6098 C   0  0  0  0  0  0  0  0  0  0  0  0
   10.1564  -18.0745   28.2799 O   0  0  0  0  0  0  0  0  0  0  0  0
  2  1  1  6
  2  8  1  0
  2  3  1  0
  4  3  1  0
  4  5  1  0
  6  5  1  0
  7  6  1  0
  8  9  2  0
 10 11  1  0
 10  8  1  0
 11 12  1  6
 13 12  1  0
 14 13  2  0
 15 16  2  0
 15 11  1  0
 17 13  1  0
 18 19  1  0
 19 29  2  0
 19 20  1  0
 20 21  2  0
 21 22  1  0
 22 23  1  0
 24 23  1  1
 24 26  1  0
 24 25  1  0
 25 15  1  0
 26 27  1  0
 28 22  2  0
 29 28  1  0
 30 26  2  0
M  END
$$$$
