KDY.pdb
     RDKit          3D

 30 30  0  0  1  0  0  0  0  0999 V2000
    9.7477  -13.4089   18.2703 N   0  0  0  0  0  0  0  0  0  0  0  0
    8.9468  -13.4145   19.4544 C   0  0  1  0  0  0  0  0  0  0  0  0
    7.4612  -13.3800   19.1054 C   0  0  0  0  0  0  0  0  0  0  0  0
    7.2031  -14.3558   18.0059 C   0  0  0  0  0  0  0  0  0  0  0  0
    7.9508  -14.1219   16.7528 C   0  0  0  0  0  0  0  0  0  0  0  0
    7.7211  -15.0124   15.6022 C   0  0  0  0  0  0  0  0  0  0  0  0
    8.5333  -14.7027   14.4764 N   0  0  0  0  0  0  0  0  0  0  0  0
    9.2209  -14.6231   20.2695 C   0  0  0  0  0  0  0  0  0  0  0  0
    8.4625  -14.9324   21.2298 O   0  0  0  0  0  0  0  0  0  0  0  0
   10.3358  -15.4669   20.0005 N   0  0  0  0  0  0  0  0  0  0  0  0
   10.6028  -16.5725   20.8632 C   0  0  1  0  0  0  0  0  0  0  0  0
   11.6778  -17.4471   20.2595 C   0  0  0  0  0  0  0  0  0  0  0  0
   11.2277  -18.1273   19.0197 C   0  0  0  0  0  0  0  0  0  0  0  0
   12.0299  -18.2129   18.0397 O   0  0  0  0  0  0  0  0  0  0  0  0
   11.0362  -16.1278   22.2163 C   0  0  0  0  0  0  0  0  0  0  0  0
   12.0367  -15.3894   22.4021 O   0  0  0  0  0  0  0  0  0  0  0  0
    9.9804  -18.6885   18.8365 O   0  0  0  0  0  0  0  0  0  0  0  0
   10.6345  -14.9095   30.9016 O   0  0  0  0  0  0  0  0  0  0  0  0
   10.3374  -15.1265   29.5836 C   0  0  0  0  0  0  0  0  0  0  0  0
   10.1834  -14.0524   28.7168 C   0  0  0  0  0  0  0  0  0  0  0  0
    9.8835  -14.2916   27.3890 C   0  0  0  0  0  0  0  0  0  0  0  0
    9.7320  -15.5679   26.8993 C   0  0  0  0  0  0  0  0  0  0  0  0
    9.4051  -15.8192   25.4891 C   0  0  0  0  0  0  0  0  0  0  0  0
   10.6437  -16.1200   24.7021 C   0  0  2  0  0  0  0  0  0  0  0  0
   10.2958  -16.5513   23.3356 N   0  0  0  0  0  0  0  0  0  0  0  0
   11.5134  -17.1447   25.3050 C   0  0  0  0  0  0  0  0  0  0  0  0
   12.5922  -16.8638   26.1242 O   0  0  0  0  0  0  0  0  0  0  0  0
    9.8910  -16.6173   27.7846 C   0  0  0  0  0  0  0  0  0  0  0  0
   10.1906  -16.4122   29.1152 C   0  0  0  0  0  0  0  0  0  0  0  0
   11.2825  -18.3544   25.0750 O   0  0  0  0  0  0  0  0  0  0  0  0
  2  1  1  6
  2  8  1  0
  2  3  1  0
  4  3  1  0
  4  5  1  0
  6  5  1  0
  7  6  1  0
  8  9  2  0
 10 11  1  0
 10  8  1  0
 11 12  1  6
 13 12  1  0
 14 13  2  0
 15 16  2  0
 15 11  1  0
 17 13  1  0
 18 19  1  0
 19 29  2  0
 19 20  1  0
 20 21  2  0
 21 22  1  0
 22 23  1  0
 24 23  1  1
 24 26  1  0
 24 25  1  0
 25 15  1  0
 26 27  1  0
 28 22  2  0
 29 28  1  0
 30 26  2  0
M  END
$$$$
