KDY.pdb
     RDKit          3D

 30 30  0  0  1  0  0  0  0  0999 V2000
   10.3643  -13.6220   19.2567 N   0  0  0  0  0  0  0  0  0  0  0  0
    9.1592  -13.6866   20.0231 C   0  0  1  0  0  0  0  0  0  0  0  0
    7.9488  -13.8899   19.1156 C   0  0  0  0  0  0  0  0  0  0  0  0
    8.4278  -14.2563   17.7504 C   0  0  0  0  0  0  0  0  0  0  0  0
    7.5067  -13.9352   16.6402 C   0  0  0  0  0  0  0  0  0  0  0  0
    7.8069  -14.4388   15.2890 C   0  0  0  0  0  0  0  0  0  0  0  0
    6.8652  -14.0220   14.3080 N   0  0  0  0  0  0  0  0  0  0  0  0
    9.2175  -14.7989   21.0026 C   0  0  0  0  0  0  0  0  0  0  0  0
    8.2105  -15.0831   21.7083 O   0  0  0  0  0  0  0  0  0  0  0  0
   10.3975  -15.5761   21.1792 N   0  0  0  0  0  0  0  0  0  0  0  0
   10.3878  -16.6664   22.1006 C   0  0  1  0  0  0  0  0  0  0  0  0
   11.6822  -17.4399   21.9947 C   0  0  0  0  0  0  0  0  0  0  0  0
   11.8624  -18.0671   20.6619 C   0  0  0  0  0  0  0  0  0  0  0  0
   12.7965  -17.6528   19.9089 O   0  0  0  0  0  0  0  0  0  0  0  0
   10.2072  -16.2043   23.5043 C   0  0  0  0  0  0  0  0  0  0  0  0
   10.7667  -15.1744   23.9592 O   0  0  0  0  0  0  0  0  0  0  0  0
   11.0816  -19.0875   20.1585 O   0  0  0  0  0  0  0  0  0  0  0  0
    6.4191  -10.7496   26.9635 O   0  0  0  0  0  0  0  0  0  0  0  0
    6.6710  -12.0534   26.6332 C   0  0  0  0  0  0  0  0  0  0  0  0
    7.8675  -12.6500   27.0090 C   0  0  0  0  0  0  0  0  0  0  0  0
    8.1038  -13.9679   26.6663 C   0  0  0  0  0  0  0  0  0  0  0  0
    7.1845  -14.7087   25.9606 C   0  0  0  0  0  0  0  0  0  0  0  0
    7.4417  -16.1071   25.5904 C   0  0  0  0  0  0  0  0  0  0  0  0
    8.9073  -16.4113   25.6492 C   0  0  2  0  0  0  0  0  0  0  0  0
    9.3754  -16.9510   24.3593 N   0  0  0  0  0  0  0  0  0  0  0  0
    9.2902  -17.3549   26.7136 C   0  0  0  0  0  0  0  0  0  0  0  0
    9.6397  -16.9773   27.9977 O   0  0  0  0  0  0  0  0  0  0  0  0
    6.0028  -14.0892   25.6001 C   0  0  0  0  0  0  0  0  0  0  0  0
    5.7366  -12.7759   25.9269 C   0  0  0  0  0  0  0  0  0  0  0  0
    9.3095  -18.5825   26.4641 O   0  0  0  0  0  0  0  0  0  0  0  0
  2  1  1  6
  2  8  1  0
  2  3  1  0
  4  3  1  0
  4  5  1  0
  6  5  1  0
  7  6  1  0
  8  9  2  0
 10 11  1  0
 10  8  1  0
 11 12  1  1
 13 12  1  0
 14 13  2  0
 15 16  2  0
 15 11  1  0
 17 13  1  0
 18 19  1  0
 19 29  2  0
 19 20  1  0
 20 21  2  0
 21 22  1  0
 22 23  1  0
 24 23  1  6
 24 26  1  0
 24 25  1  0
 25 15  1  0
 26 27  1  0
 28 22  2  0
 29 28  1  0
 30 26  2  0
M  END
$$$$
