KDY.pdb
     RDKit          3D

 30 30  0  0  1  0  0  0  0  0999 V2000
    5.8599  -18.6474   22.3793 N   0  0  0  0  0  0  0  0  0  0  0  0
    7.0072  -19.4866   22.2277 C   0  0  1  0  0  0  0  0  0  0  0  0
    6.9596  -20.2368   20.8992 C   0  0  0  0  0  0  0  0  0  0  0  0
    5.5345  -20.5208   20.5585 C   0  0  0  0  0  0  0  0  0  0  0  0
    4.9282  -21.6772   21.2507 C   0  0  0  0  0  0  0  0  0  0  0  0
    3.5887  -22.1361   20.8448 C   0  0  0  0  0  0  0  0  0  0  0  0
    3.1125  -23.2371   21.6089 N   0  0  0  0  0  0  0  0  0  0  0  0
    8.2552  -18.6870   22.2834 C   0  0  0  0  0  0  0  0  0  0  0  0
    9.3793  -19.2459   22.1528 O   0  0  0  0  0  0  0  0  0  0  0  0
    8.2295  -17.2775   22.4838 N   0  0  0  0  0  0  0  0  0  0  0  0
    9.4587  -16.5693   22.6440 C   0  0  1  0  0  0  0  0  0  0  0  0
    9.4443  -15.3174   21.7970 C   0  0  0  0  0  0  0  0  0  0  0  0
    9.3821  -15.6142   20.3444 C   0  0  0  0  0  0  0  0  0  0  0  0
   10.0264  -16.6101   19.8923 O   0  0  0  0  0  0  0  0  0  0  0  0
    9.7027  -16.1966   24.0645 C   0  0  0  0  0  0  0  0  0  0  0  0
   10.6264  -15.4191   24.4152 O   0  0  0  0  0  0  0  0  0  0  0  0
    8.6659  -14.8816   19.4198 O   0  0  0  0  0  0  0  0  0  0  0  0
    6.8892  -10.6670   25.8135 O   0  0  0  0  0  0  0  0  0  0  0  0
    7.1370  -11.9695   26.1521 C   0  0  0  0  0  0  0  0  0  0  0  0
    8.0931  -12.2712   27.1131 C   0  0  0  0  0  0  0  0  0  0  0  0
    8.3292  -13.5927   27.4416 C   0  0  0  0  0  0  0  0  0  0  0  0
    7.6420  -14.6221   26.8417 C   0  0  0  0  0  0  0  0  0  0  0  0
    7.9007  -16.0265   27.1869 C   0  0  0  0  0  0  0  0  0  0  0  0
    9.1306  -16.5263   26.4929 C   0  0  2  0  0  0  0  0  0  0  0  0
    8.8650  -16.7368   25.0579 N   0  0  0  0  0  0  0  0  0  0  0  0
    9.6792  -17.7742   27.0514 C   0  0  0  0  0  0  0  0  0  0  0  0
   10.2407  -17.8805   28.3112 O   0  0  0  0  0  0  0  0  0  0  0  0
    6.6964  -14.2922   25.8892 C   0  0  0  0  0  0  0  0  0  0  0  0
    6.4371  -12.9836   25.5390 C   0  0  0  0  0  0  0  0  0  0  0  0
    9.6482  -18.8186   26.3601 O   0  0  0  0  0  0  0  0  0  0  0  0
  2  1  1  6
  2  8  1  0
  2  3  1  0
  4  3  1  0
  4  5  1  0
  6  5  1  0
  7  6  1  0
  8  9  2  0
 10 11  1  0
 10  8  1  0
 11 12  1  6
 13 12  1  0
 14 13  2  0
 15 16  2  0
 15 11  1  0
 17 13  1  0
 18 19  1  0
 19 29  2  0
 19 20  1  0
 20 21  2  0
 21 22  1  0
 22 23  1  0
 24 23  1  1
 24 26  1  0
 24 25  1  0
 25 15  1  0
 26 27  1  0
 28 22  2  0
 29 28  1  0
 30 26  2  0
M  END
$$$$
