KDY.pdb
     RDKit          3D

 30 30  0  0  1  0  0  0  0  0999 V2000
    9.3510  -12.7047   18.9135 N   0  0  0  0  0  0  0  0  0  0  0  0
    8.1788  -13.3296   19.4419 C   0  0  1  0  0  0  0  0  0  0  0  0
    7.1763  -13.6309   18.3309 C   0  0  0  0  0  0  0  0  0  0  0  0
    7.9037  -14.2429   17.1803 C   0  0  0  0  0  0  0  0  0  0  0  0
    7.0716  -14.5975   16.0115 C   0  0  0  0  0  0  0  0  0  0  0  0
    7.7209  -15.1366   14.8043 C   0  0  0  0  0  0  0  0  0  0  0  0
    6.8002  -15.5191   13.7899 N   0  0  0  0  0  0  0  0  0  0  0  0
    8.5238  -14.5955   20.1339 C   0  0  0  0  0  0  0  0  0  0  0  0
    7.6175  -15.3225   20.6268 O   0  0  0  0  0  0  0  0  0  0  0  0
    9.8735  -15.0299   20.2648 N   0  0  0  0  0  0  0  0  0  0  0  0
   10.1559  -16.2382   20.9707 C   0  0  1  0  0  0  0  0  0  0  0  0
   11.1264  -17.0822   20.1765 C   0  0  0  0  0  0  0  0  0  0  0  0
   12.0975  -17.7976   21.0410 C   0  0  0  0  0  0  0  0  0  0  0  0
   11.9998  -17.6823   22.3014 O   0  0  0  0  0  0  0  0  0  0  0  0
   10.7285  -15.9717   22.3188 C   0  0  0  0  0  0  0  0  0  0  0  0
   11.6987  -15.1940   22.5047 O   0  0  0  0  0  0  0  0  0  0  0  0
   13.1234  -18.5974   20.5804 O   0  0  0  0  0  0  0  0  0  0  0  0
   10.5753  -14.7065   30.9359 O   0  0  0  0  0  0  0  0  0  0  0  0
   10.2859  -14.9231   29.6161 C   0  0  0  0  0  0  0  0  0  0  0  0
   10.3342  -13.8723   28.7094 C   0  0  0  0  0  0  0  0  0  0  0  0
   10.0387  -14.1108   27.3805 C   0  0  0  0  0  0  0  0  0  0  0  0
    9.6964  -15.3638   26.9282 C   0  0  0  0  0  0  0  0  0  0  0  0
    9.3747  -15.6129   25.5165 C   0  0  0  0  0  0  0  0  0  0  0  0
   10.5328  -16.2508   24.8122 C   0  0  2  0  0  0  0  0  0  0  0  0
   10.1610  -16.6172   23.4332 N   0  0  0  0  0  0  0  0  0  0  0  0
   11.0674  -17.4485   25.4828 C   0  0  0  0  0  0  0  0  0  0  0  0
   12.1541  -17.4397   26.3387 O   0  0  0  0  0  0  0  0  0  0  0  0
    9.6565  -16.3903   27.8529 C   0  0  0  0  0  0  0  0  0  0  0  0
    9.9460  -16.1853   29.1857 C   0  0  0  0  0  0  0  0  0  0  0  0
   10.5210  -18.5575   25.2797 O   0  0  0  0  0  0  0  0  0  0  0  0
  2  1  1  6
  2  8  1  0
  2  3  1  0
  4  3  1  0
  4  5  1  0
  6  5  1  0
  7  6  1  0
  8  9  2  0
 10 11  1  0
 10  8  1  0
 11 12  1  6
 13 12  1  0
 14 13  2  0
 15 16  2  0
 15 11  1  0
 17 13  1  0
 18 19  1  0
 19 29  2  0
 19 20  1  0
 20 21  2  0
 21 22  1  0
 22 23  1  0
 24 23  1  1
 24 26  1  0
 24 25  1  0
 25 15  1  0
 26 27  1  0
 28 22  2  0
 29 28  1  0
 30 26  2  0
M  END
$$$$
