KDY.pdb
     RDKit          3D

 30 30  0  0  1  0  0  0  0  0999 V2000
    8.6936  -16.0727   19.0710 N   0  0  0  0  0  0  0  0  0  0  0  0
    8.3765  -17.1679   19.9334 C   0  0  1  0  0  0  0  0  0  0  0  0
    7.9140  -18.3783   19.1265 C   0  0  0  0  0  0  0  0  0  0  0  0
    8.6478  -18.3983   17.8270 C   0  0  0  0  0  0  0  0  0  0  0  0
    8.2888  -19.4961   16.9050 C   0  0  0  0  0  0  0  0  0  0  0  0
    9.0010  -19.6183   15.6214 C   0  0  0  0  0  0  0  0  0  0  0  0
    8.4872  -20.6479   14.7854 N   0  0  0  0  0  0  0  0  0  0  0  0
    9.5545  -17.5549   20.7475 C   0  0  0  0  0  0  0  0  0  0  0  0
    9.4657  -18.4798   21.6017 O   0  0  0  0  0  0  0  0  0  0  0  0
   10.8121  -16.9044   20.5958 N   0  0  0  0  0  0  0  0  0  0  0  0
   11.9134  -17.3089   21.4091 C   0  0  1  0  0  0  0  0  0  0  0  0
   13.2142  -16.9727   20.7163 C   0  0  0  0  0  0  0  0  0  0  0  0
   14.4009  -17.4216   21.4861 C   0  0  0  0  0  0  0  0  0  0  0  0
   14.3482  -18.5269   22.1079 O   0  0  0  0  0  0  0  0  0  0  0  0
   11.8864  -16.6525   22.7450 C   0  0  0  0  0  0  0  0  0  0  0  0
   12.0508  -15.4156   22.8992 O   0  0  0  0  0  0  0  0  0  0  0  0
   15.5864  -16.7224   21.5863 O   0  0  0  0  0  0  0  0  0  0  0  0
    9.9529  -14.2189   30.7203 O   0  0  0  0  0  0  0  0  0  0  0  0
   10.0450  -14.6821   29.4360 C   0  0  0  0  0  0  0  0  0  0  0  0
    9.8813  -16.0349   29.1684 C   0  0  0  0  0  0  0  0  0  0  0  0
    9.9778  -16.4837   27.8647 C   0  0  0  0  0  0  0  0  0  0  0  0
   10.2327  -15.6256   26.8204 C   0  0  0  0  0  0  0  0  0  0  0  0
   10.3430  -16.1064   25.4365 C   0  0  0  0  0  0  0  0  0  0  0  0
   11.6185  -16.8665   25.2382 C   0  0  2  0  0  0  0  0  0  0  0  0
   11.6681  -17.4490   23.8845 N   0  0  0  0  0  0  0  0  0  0  0  0
   11.8420  -17.9451   26.2162 C   0  0  0  0  0  0  0  0  0  0  0  0
   12.6171  -17.8133   27.3544 O   0  0  0  0  0  0  0  0  0  0  0  0
   10.3910  -14.2848   27.1164 C   0  0  0  0  0  0  0  0  0  0  0  0
   10.3004  -13.8053   28.4064 C   0  0  0  0  0  0  0  0  0  0  0  0
   11.3079  -19.0624   26.0264 O   0  0  0  0  0  0  0  0  0  0  0  0
  2  1  1  6
  2  8  1  0
  2  3  1  0
  4  3  1  0
  4  5  1  0
  6  5  1  0
  7  6  1  0
  8  9  2  0
 10 11  1  0
 10  8  1  0
 11 12  1  6
 13 12  1  0
 14 13  2  0
 15 16  2  0
 15 11  1  0
 17 13  1  0
 18 19  1  0
 19 29  2  0
 19 20  1  0
 20 21  2  0
 21 22  1  0
 22 23  1  0
 24 23  1  1
 24 26  1  0
 24 25  1  0
 25 15  1  0
 26 27  1  0
 28 22  2  0
 29 28  1  0
 30 26  2  0
M  END
$$$$
