KDY.pdb
     RDKit          3D

 30 30  0  0  1  0  0  0  0  0999 V2000
    9.6881  -13.4261   18.4608 N   0  0  0  0  0  0  0  0  0  0  0  0
    8.6894  -14.2284   19.0952 C   0  0  1  0  0  0  0  0  0  0  0  0
    7.8054  -14.9159   18.0580 C   0  0  0  0  0  0  0  0  0  0  0  0
    8.2193  -14.4625   16.6976 C   0  0  0  0  0  0  0  0  0  0  0  0
    7.2718  -14.7662   15.6049 C   0  0  0  0  0  0  0  0  0  0  0  0
    7.5855  -14.3193   14.2368 C   0  0  0  0  0  0  0  0  0  0  0  0
    6.5661  -14.6264   13.2938 N   0  0  0  0  0  0  0  0  0  0  0  0
    9.3138  -15.2628   19.9556 C   0  0  0  0  0  0  0  0  0  0  0  0
    8.5987  -16.1116   20.5567 O   0  0  0  0  0  0  0  0  0  0  0  0
   10.7250  -15.3340   20.1318 N   0  0  0  0  0  0  0  0  0  0  0  0
   11.2669  -16.2390   21.0936 C   0  0  1  0  0  0  0  0  0  0  0  0
   12.7107  -16.5386   20.7607 C   0  0  0  0  0  0  0  0  0  0  0  0
   12.8595  -17.2567   19.4705 C   0  0  0  0  0  0  0  0  0  0  0  0
   13.5382  -16.7188   18.5424 O   0  0  0  0  0  0  0  0  0  0  0  0
   11.1866  -15.6924   22.4760 C   0  0  0  0  0  0  0  0  0  0  0  0
   11.7853  -14.6448   22.8295 O   0  0  0  0  0  0  0  0  0  0  0  0
   12.3094  -18.4899   19.1864 O   0  0  0  0  0  0  0  0  0  0  0  0
    5.8701  -11.9131   27.8427 O   0  0  0  0  0  0  0  0  0  0  0  0
    6.5747  -12.5664   26.8684 C   0  0  0  0  0  0  0  0  0  0  0  0
    6.1186  -12.5641   25.5566 C   0  0  0  0  0  0  0  0  0  0  0  0
    6.8441  -13.2295   24.5865 C   0  0  0  0  0  0  0  0  0  0  0  0
    8.0093  -13.8970   24.8839 C   0  0  0  0  0  0  0  0  0  0  0  0
    8.7743  -14.6105   23.8522 C   0  0  0  0  0  0  0  0  0  0  0  0
    9.6506  -15.6571   24.4692 C   0  0  2  0  0  0  0  0  0  0  0  0
   10.4083  -16.3761   23.4284 N   0  0  0  0  0  0  0  0  0  0  0  0
    8.9306  -16.6480   25.2874 C   0  0  0  0  0  0  0  0  0  0  0  0
    8.8493  -17.9950   24.9832 O   0  0  0  0  0  0  0  0  0  0  0  0
    8.4392  -13.8823   26.1974 C   0  0  0  0  0  0  0  0  0  0  0  0
    7.7384  -13.2276   27.1887 C   0  0  0  0  0  0  0  0  0  0  0  0
    8.3454  -16.2710   26.3291 O   0  0  0  0  0  0  0  0  0  0  0  0
  2  1  1  6
  2  8  1  0
  2  3  1  0
  4  3  1  0
  4  5  1  0
  6  5  1  0
  7  6  1  0
  8  9  2  0
 10 11  1  0
 10  8  1  0
 11 12  1  6
 13 12  1  0
 14 13  2  0
 15 16  2  0
 15 11  1  0
 17 13  1  0
 18 19  1  0
 19 29  2  0
 19 20  1  0
 20 21  2  0
 21 22  1  0
 22 23  1  0
 24 23  1  6
 24 26  1  0
 24 25  1  0
 25 15  1  0
 26 27  1  0
 28 22  2  0
 29 28  1  0
 30 26  2  0
M  END
$$$$
