KDY.pdb
     RDKit          3D

 30 30  0  0  1  0  0  0  0  0999 V2000
    6.9395  -17.5327   19.2384 N   0  0  0  0  0  0  0  0  0  0  0  0
    8.2387  -16.9487   19.3597 C   0  0  1  0  0  0  0  0  0  0  0  0
    8.1760  -15.4373   19.1559 C   0  0  0  0  0  0  0  0  0  0  0  0
    7.6947  -15.1587   17.7708 C   0  0  0  0  0  0  0  0  0  0  0  0
    8.6665  -14.4967   16.8756 C   0  0  0  0  0  0  0  0  0  0  0  0
    8.2184  -14.0189   15.5563 C   0  0  0  0  0  0  0  0  0  0  0  0
    9.2494  -13.3956   14.8005 N   0  0  0  0  0  0  0  0  0  0  0  0
    8.8194  -17.2297   20.6954 C   0  0  0  0  0  0  0  0  0  0  0  0
    8.0740  -17.5495   21.6624 O   0  0  0  0  0  0  0  0  0  0  0  0
   10.2214  -17.1497   20.9309 N   0  0  0  0  0  0  0  0  0  0  0  0
   10.7281  -17.4051   22.2408 C   0  0  1  0  0  0  0  0  0  0  0  0
   12.2259  -17.6008   22.1830 C   0  0  0  0  0  0  0  0  0  0  0  0
   12.7880  -18.0721   23.4730 C   0  0  0  0  0  0  0  0  0  0  0  0
   11.9935  -18.3805   24.4137 O   0  0  0  0  0  0  0  0  0  0  0  0
   10.4155  -16.2951   23.1823 C   0  0  0  0  0  0  0  0  0  0  0  0
   10.9962  -15.1808   23.1377 O   0  0  0  0  0  0  0  0  0  0  0  0
   14.1343  -18.2069   23.7443 O   0  0  0  0  0  0  0  0  0  0  0  0
    6.0900  -10.8013   28.2262 O   0  0  0  0  0  0  0  0  0  0  0  0
    6.4763  -11.7922   27.3652 C   0  0  0  0  0  0  0  0  0  0  0  0
    6.2803  -13.1252   27.7019 C   0  0  0  0  0  0  0  0  0  0  0  0
    6.6771  -14.1119   26.8191 C   0  0  0  0  0  0  0  0  0  0  0  0
    7.2633  -13.8105   25.6120 C   0  0  0  0  0  0  0  0  0  0  0  0
    7.6917  -14.8615   24.6790 C   0  0  0  0  0  0  0  0  0  0  0  0
    9.0186  -15.4249   25.0862 C   0  0  2  0  0  0  0  0  0  0  0  0
    9.4286  -16.5002   24.1643 N   0  0  0  0  0  0  0  0  0  0  0  0
    9.0594  -15.9517   26.4613 C   0  0  0  0  0  0  0  0  0  0  0  0
    9.5230  -15.2392   27.5527 O   0  0  0  0  0  0  0  0  0  0  0  0
    7.4458  -12.4757   25.3034 C   0  0  0  0  0  0  0  0  0  0  0  0
    7.0608  -11.4676   26.1623 C   0  0  0  0  0  0  0  0  0  0  0  0
    8.6553  -17.1169   26.6815 O   0  0  0  0  0  0  0  0  0  0  0  0
  2  1  1  1
  2  8  1  0
  2  3  1  0
  4  3  1  0
  4  5  1  0
  6  5  1  0
  7  6  1  0
  8  9  2  0
 10 11  1  0
 10  8  1  0
 11 12  1  6
 13 12  1  0
 14 13  2  0
 15 16  2  0
 15 11  1  0
 17 13  1  0
 18 19  1  0
 19 29  2  0
 19 20  1  0
 20 21  2  0
 21 22  1  0
 22 23  1  0
 24 23  1  6
 24 26  1  0
 24 25  1  0
 25 15  1  0
 26 27  1  0
 28 22  2  0
 29 28  1  0
 30 26  2  0
M  END
$$$$
