KDY.pdb
     RDKit          3D

 30 30  0  0  1  0  0  0  0  0999 V2000
    9.4297  -13.2520   20.0898 N   0  0  0  0  0  0  0  0  0  0  0  0
    8.2102  -13.8653   20.5145 C   0  0  1  0  0  0  0  0  0  0  0  0
    7.3659  -14.2840   19.3138 C   0  0  0  0  0  0  0  0  0  0  0  0
    7.9949  -13.7443   18.0725 C   0  0  0  0  0  0  0  0  0  0  0  0
    7.2039  -13.8989   16.8337 C   0  0  0  0  0  0  0  0  0  0  0  0
    7.7355  -13.3606   15.5699 C   0  0  0  0  0  0  0  0  0  0  0  0
    6.8387  -13.4991   14.4746 N   0  0  0  0  0  0  0  0  0  0  0  0
    8.4851  -15.0606   21.3487 C   0  0  0  0  0  0  0  0  0  0  0  0
    7.5381  -15.6886   21.8982 O   0  0  0  0  0  0  0  0  0  0  0  0
    9.8110  -15.5362   21.5565 N   0  0  0  0  0  0  0  0  0  0  0  0
   10.0266  -16.6647   22.4039 C   0  0  1  0  0  0  0  0  0  0  0  0
   11.3348  -17.3326   22.0469 C   0  0  0  0  0  0  0  0  0  0  0  0
   11.5381  -18.6101   22.7742 C   0  0  0  0  0  0  0  0  0  0  0  0
   10.5222  -19.2647   23.1625 O   0  0  0  0  0  0  0  0  0  0  0  0
   10.0491  -16.2815   23.8423 C   0  0  0  0  0  0  0  0  0  0  0  0
   10.9572  -15.5707   24.3432 O   0  0  0  0  0  0  0  0  0  0  0  0
   12.7678  -19.1609   23.0721 O   0  0  0  0  0  0  0  0  0  0  0  0
    6.2001  -10.7537   25.1603 O   0  0  0  0  0  0  0  0  0  0  0  0
    6.5250  -12.0412   25.4908 C   0  0  0  0  0  0  0  0  0  0  0  0
    7.3055  -12.2988   26.6102 C   0  0  0  0  0  0  0  0  0  0  0  0
    7.6231  -13.6059   26.9278 C   0  0  0  0  0  0  0  0  0  0  0  0
    7.1870  -14.6633   26.1640 C   0  0  0  0  0  0  0  0  0  0  0  0
    7.5329  -16.0513   26.4992 C   0  0  0  0  0  0  0  0  0  0  0  0
    8.9445  -16.3578   26.1022 C   0  0  2  0  0  0  0  0  0  0  0  0
    9.0109  -16.7334   24.6779 N   0  0  0  0  0  0  0  0  0  0  0  0
    9.5808  -17.4246   26.8939 C   0  0  0  0  0  0  0  0  0  0  0  0
   10.0240  -18.6243   26.3665 O   0  0  0  0  0  0  0  0  0  0  0  0
    6.4118  -14.3771   25.0561 C   0  0  0  0  0  0  0  0  0  0  0  0
    6.0773  -13.0840   24.7122 C   0  0  0  0  0  0  0  0  0  0  0  0
    9.7406  -17.2590   28.1255 O   0  0  0  0  0  0  0  0  0  0  0  0
  2  1  1  6
  2  8  1  0
  2  3  1  0
  4  3  1  0
  4  5  1  0
  6  5  1  0
  7  6  1  0
  8  9  2  0
 10 11  1  0
 10  8  1  0
 11 12  1  6
 13 12  1  0
 14 13  2  0
 15 16  2  0
 15 11  1  0
 17 13  1  0
 18 19  1  0
 19 29  2  0
 19 20  1  0
 20 21  2  0
 21 22  1  0
 22 23  1  0
 24 23  1  1
 24 26  1  0
 24 25  1  0
 25 15  1  0
 26 27  1  0
 28 22  2  0
 29 28  1  0
 30 26  2  0
M  END
$$$$
