KDY.pdb
     RDKit          3D

 30 30  0  0  1  0  0  0  0  0999 V2000
    8.7713  -16.0410   18.4801 N   0  0  0  0  0  0  0  0  0  0  0  0
    9.0946  -14.8715   19.2361 C   0  0  1  0  0  0  0  0  0  0  0  0
    8.0876  -13.7561   18.9683 C   0  0  0  0  0  0  0  0  0  0  0  0
    7.4564  -13.9882   17.6358 C   0  0  0  0  0  0  0  0  0  0  0  0
    8.3133  -13.7120   16.4638 C   0  0  0  0  0  0  0  0  0  0  0  0
    7.7625  -13.9001   15.1107 C   0  0  0  0  0  0  0  0  0  0  0  0
    8.7384  -13.7877   14.0822 N   0  0  0  0  0  0  0  0  0  0  0  0
    9.1055  -15.1704   20.6889 C   0  0  0  0  0  0  0  0  0  0  0  0
    9.1329  -14.2336   21.5344 O   0  0  0  0  0  0  0  0  0  0  0  0
    9.0855  -16.5085   21.1752 N   0  0  0  0  0  0  0  0  0  0  0  0
   10.2315  -17.0263   21.8508 C   0  0  1  0  0  0  0  0  0  0  0  0
   11.3961  -17.1169   20.8914 C   0  0  0  0  0  0  0  0  0  0  0  0
   11.9330  -18.4956   20.7773 C   0  0  0  0  0  0  0  0  0  0  0  0
   11.6063  -19.2015   19.7741 O   0  0  0  0  0  0  0  0  0  0  0  0
   10.6193  -16.1803   23.0128 C   0  0  0  0  0  0  0  0  0  0  0  0
   11.2875  -15.1222   22.8915 O   0  0  0  0  0  0  0  0  0  0  0  0
   12.7780  -19.0910   21.6915 O   0  0  0  0  0  0  0  0  0  0  0  0
    5.6907  -11.4516   27.9383 O   0  0  0  0  0  0  0  0  0  0  0  0
    6.3261  -12.3327   27.1061 C   0  0  0  0  0  0  0  0  0  0  0  0
    5.7960  -13.5985   26.8936 C   0  0  0  0  0  0  0  0  0  0  0  0
    6.4522  -14.4744   26.0495 C   0  0  0  0  0  0  0  0  0  0  0  0
    7.6202  -14.1272   25.4116 C   0  0  0  0  0  0  0  0  0  0  0  0
    8.3202  -15.0631   24.5212 C   0  0  0  0  0  0  0  0  0  0  0  0
    9.5059  -15.6659   25.2103 C   0  0  2  0  0  0  0  0  0  0  0  0
   10.2219  -16.5806   24.3021 N   0  0  0  0  0  0  0  0  0  0  0  0
    9.1830  -16.3982   26.4471 C   0  0  0  0  0  0  0  0  0  0  0  0
    9.3307  -15.8766   27.7198 O   0  0  0  0  0  0  0  0  0  0  0  0
    8.1245  -12.8611   25.6417 C   0  0  0  0  0  0  0  0  0  0  0  0
    7.4937  -11.9638   26.4779 C   0  0  0  0  0  0  0  0  0  0  0  0
    8.7468  -17.5700   26.3672 O   0  0  0  0  0  0  0  0  0  0  0  0
  2  1  1  6
  2  8  1  0
  2  3  1  0
  4  3  1  0
  4  5  1  0
  6  5  1  0
  7  6  1  0
  8  9  2  0
 10 11  1  0
 10  8  1  0
 11 12  1  6
 13 12  1  0
 14 13  2  0
 15 16  2  0
 15 11  1  0
 17 13  1  0
 18 19  1  0
 19 29  2  0
 19 20  1  0
 20 21  2  0
 21 22  1  0
 22 23  1  0
 24 23  1  6
 24 26  1  0
 24 25  1  0
 25 15  1  0
 26 27  1  0
 28 22  2  0
 29 28  1  0
 30 26  2  0
M  END
$$$$
