KDY.pdb
     RDKit          3D

 30 30  0  0  1  0  0  0  0  0999 V2000
    9.7242  -12.6935   19.1683 N   0  0  0  0  0  0  0  0  0  0  0  0
    8.6013  -13.3042   19.8085 C   0  0  1  0  0  0  0  0  0  0  0  0
    7.4728  -13.5473   18.8099 C   0  0  0  0  0  0  0  0  0  0  0  0
    8.0401  -14.1985   17.5927 C   0  0  0  0  0  0  0  0  0  0  0  0
    7.0921  -14.4130   16.4795 C   0  0  0  0  0  0  0  0  0  0  0  0
    7.5515  -15.1168   15.2699 C   0  0  0  0  0  0  0  0  0  0  0  0
    6.5379  -15.2666   14.2834 N   0  0  0  0  0  0  0  0  0  0  0  0
    8.9857  -14.5981   20.4236 C   0  0  0  0  0  0  0  0  0  0  0  0
    8.1457  -15.2641   21.0898 O   0  0  0  0  0  0  0  0  0  0  0  0
   10.3001  -15.1281   20.2857 N   0  0  0  0  0  0  0  0  0  0  0  0
   10.6517  -16.3220   20.9850 C   0  0  1  0  0  0  0  0  0  0  0  0
   11.7453  -17.0513   20.2385 C   0  0  0  0  0  0  0  0  0  0  0  0
   12.1030  -18.3438   20.8739 C   0  0  0  0  0  0  0  0  0  0  0  0
   11.1758  -19.0859   21.3220 O   0  0  0  0  0  0  0  0  0  0  0  0
   11.1117  -16.0370   22.3718 C   0  0  0  0  0  0  0  0  0  0  0  0
   12.1674  -15.4016   22.6217 O   0  0  0  0  0  0  0  0  0  0  0  0
   13.3897  -18.8197   21.0232 O   0  0  0  0  0  0  0  0  0  0  0  0
   10.9464  -14.8514   31.0066 O   0  0  0  0  0  0  0  0  0  0  0  0
   10.6052  -15.0700   29.6996 C   0  0  0  0  0  0  0  0  0  0  0  0
   10.4719  -13.9998   28.8246 C   0  0  0  0  0  0  0  0  0  0  0  0
   10.1266  -14.2406   27.5082 C   0  0  0  0  0  0  0  0  0  0  0  0
    9.9100  -15.5148   27.0377 C   0  0  0  0  0  0  0  0  0  0  0  0
    9.5351  -15.7674   25.6398 C   0  0  0  0  0  0  0  0  0  0  0  0
   10.7175  -16.2376   24.8493 C   0  0  2  0  0  0  0  0  0  0  0  0
   10.3332  -16.4979   23.4497 N   0  0  0  0  0  0  0  0  0  0  0  0
   11.3654  -17.4470   25.3855 C   0  0  0  0  0  0  0  0  0  0  0  0
   12.5110  -17.4357   26.1608 O   0  0  0  0  0  0  0  0  0  0  0  0
   10.0499  -16.5603   27.9308 C   0  0  0  0  0  0  0  0  0  0  0  0
   10.3934  -16.3535   29.2505 C   0  0  0  0  0  0  0  0  0  0  0  0
   10.8668  -18.5690   25.1360 O   0  0  0  0  0  0  0  0  0  0  0  0
  2  1  1  6
  2  8  1  0
  2  3  1  0
  4  3  1  0
  4  5  1  0
  6  5  1  0
  7  6  1  0
  8  9  2  0
 10 11  1  0
 10  8  1  0
 11 12  1  6
 13 12  1  0
 14 13  2  0
 15 16  2  0
 15 11  1  0
 17 13  1  0
 18 19  1  0
 19 29  2  0
 19 20  1  0
 20 21  2  0
 21 22  1  0
 22 23  1  0
 24 23  1  1
 24 26  1  0
 24 25  1  0
 25 15  1  0
 26 27  1  0
 28 22  2  0
 29 28  1  0
 30 26  2  0
M  END
$$$$
