KDY.pdb
     RDKit          3D

 30 30  0  0  1  0  0  0  0  0999 V2000
    6.6565  -16.7042   22.2139 N   0  0  0  0  0  0  0  0  0  0  0  0
    8.0335  -16.3303   22.1262 C   0  0  1  0  0  0  0  0  0  0  0  0
    8.1824  -14.8117   22.0848 C   0  0  0  0  0  0  0  0  0  0  0  0
    7.8178  -14.3301   20.7200 C   0  0  0  0  0  0  0  0  0  0  0  0
    7.9355  -12.8733   20.5017 C   0  0  0  0  0  0  0  0  0  0  0  0
    7.5543  -12.3093   19.1954 C   0  0  0  0  0  0  0  0  0  0  0  0
    7.6598  -10.8921   19.1388 N   0  0  0  0  0  0  0  0  0  0  0  0
    8.7964  -16.8565   23.2843 C   0  0  0  0  0  0  0  0  0  0  0  0
    8.1923  -17.3231   24.2894 O   0  0  0  0  0  0  0  0  0  0  0  0
   10.2202  -16.8538   23.3027 N   0  0  0  0  0  0  0  0  0  0  0  0
   10.9078  -17.3694   24.4427 C   0  0  1  0  0  0  0  0  0  0  0  0
   12.3080  -17.7852   24.0534 C   0  0  0  0  0  0  0  0  0  0  0  0
   12.3202  -18.7826   22.9546 C   0  0  0  0  0  0  0  0  0  0  0  0
   13.1391  -18.6318   21.9966 O   0  0  0  0  0  0  0  0  0  0  0  0
   10.9822  -16.3702   25.5438 C   0  0  0  0  0  0  0  0  0  0  0  0
   11.5385  -15.2506   25.4106 O   0  0  0  0  0  0  0  0  0  0  0  0
   11.4966  -19.8876   22.8835 O   0  0  0  0  0  0  0  0  0  0  0  0
    6.3236  -12.5888   24.4060 O   0  0  0  0  0  0  0  0  0  0  0  0
    7.0027  -13.2686   25.3802 C   0  0  0  0  0  0  0  0  0  0  0  0
    8.1644  -12.7353   25.9230 C   0  0  0  0  0  0  0  0  0  0  0  0
    8.8364  -13.4368   26.9062 C   0  0  0  0  0  0  0  0  0  0  0  0
    8.3861  -14.6531   27.3642 C   0  0  0  0  0  0  0  0  0  0  0  0
    9.1069  -15.4006   28.4036 C   0  0  0  0  0  0  0  0  0  0  0  0
   10.4812  -15.7700   27.9359 C   0  0  2  0  0  0  0  0  0  0  0  0
   10.4061  -16.6912   26.7870 N   0  0  0  0  0  0  0  0  0  0  0  0
   11.3304  -16.3859   28.9701 C   0  0  0  0  0  0  0  0  0  0  0  0
   11.7683  -15.7309   30.1071 O   0  0  0  0  0  0  0  0  0  0  0  0
    7.2276  -15.1594   26.8060 C   0  0  0  0  0  0  0  0  0  0  0  0
    6.5337  -14.4841   25.8236 C   0  0  0  0  0  0  0  0  0  0  0  0
   11.6933  -17.5772   28.8330 O   0  0  0  0  0  0  0  0  0  0  0  0
  2  1  1  1
  2  8  1  0
  2  3  1  0
  4  3  1  0
  4  5  1  0
  6  5  1  0
  7  6  1  0
  8  9  2  0
 10 11  1  0
 10  8  1  0
 11 12  1  6
 13 12  1  0
 14 13  2  0
 15 16  2  0
 15 11  1  0
 17 13  1  0
 18 19  1  0
 19 29  2  0
 19 20  1  0
 20 21  2  0
 21 22  1  0
 22 23  1  0
 24 23  1  1
 24 26  1  0
 24 25  1  0
 25 15  1  0
 26 27  1  0
 28 22  2  0
 29 28  1  0
 30 26  2  0
M  END
$$$$
