KDY.pdb
     RDKit          3D

 30 30  0  0  1  0  0  0  0  0999 V2000
    7.1661  -17.3188   21.6212 N   0  0  0  0  0  0  0  0  0  0  0  0
    8.4022  -16.6199   21.7866 C   0  0  1  0  0  0  0  0  0  0  0  0
    8.1802  -15.1099   21.7597 C   0  0  0  0  0  0  0  0  0  0  0  0
    7.8924  -14.6915   20.3562 C   0  0  0  0  0  0  0  0  0  0  0  0
    7.6760  -13.2441   20.1505 C   0  0  0  0  0  0  0  0  0  0  0  0
    7.3678  -12.7487   18.7980 C   0  0  0  0  0  0  0  0  0  0  0  0
    7.0722  -11.3581   18.7588 N   0  0  0  0  0  0  0  0  0  0  0  0
    9.0470  -16.9879   23.0707 C   0  0  0  0  0  0  0  0  0  0  0  0
    8.3639  -17.4780   24.0120 O   0  0  0  0  0  0  0  0  0  0  0  0
   10.4428  -16.8035   23.2840 N   0  0  0  0  0  0  0  0  0  0  0  0
   11.0340  -17.2678   24.4976 C   0  0  1  0  0  0  0  0  0  0  0  0
   12.5017  -17.5545   24.2771 C   0  0  0  0  0  0  0  0  0  0  0  0
   12.7264  -18.6627   23.3160 C   0  0  0  0  0  0  0  0  0  0  0  0
   11.8898  -19.6163   23.2708 O   0  0  0  0  0  0  0  0  0  0  0  0
   10.8890  -16.2771   25.5994 C   0  0  0  0  0  0  0  0  0  0  0  0
   11.2990  -15.0921   25.5075 O   0  0  0  0  0  0  0  0  0  0  0  0
   13.7940  -18.7475   22.4457 O   0  0  0  0  0  0  0  0  0  0  0  0
    6.5462  -12.2436   24.4824 O   0  0  0  0  0  0  0  0  0  0  0  0
    7.1301  -13.0189   25.4470 C   0  0  0  0  0  0  0  0  0  0  0  0
    7.9505  -12.4396   26.4062 C   0  0  0  0  0  0  0  0  0  0  0  0
    8.5312  -13.2391   27.3725 C   0  0  0  0  0  0  0  0  0  0  0  0
    8.3196  -14.5976   27.4115 C   0  0  0  0  0  0  0  0  0  0  0  0
    8.9447  -15.4464   28.4349 C   0  0  0  0  0  0  0  0  0  0  0  0
   10.3228  -15.8571   28.0152 C   0  0  2  0  0  0  0  0  0  0  0  0
   10.2670  -16.6827   26.7948 N   0  0  0  0  0  0  0  0  0  0  0  0
   11.0761  -16.5970   29.0424 C   0  0  0  0  0  0  0  0  0  0  0  0
   11.5863  -17.8705   28.8648 O   0  0  0  0  0  0  0  0  0  0  0  0
    7.4986  -15.1466   26.4446 C   0  0  0  0  0  0  0  0  0  0  0  0
    6.9041  -14.3762   25.4671 C   0  0  0  0  0  0  0  0  0  0  0  0
   11.2793  -16.0605   30.1562 O   0  0  0  0  0  0  0  0  0  0  0  0
  2  1  1  1
  2  8  1  0
  2  3  1  0
  4  3  1  0
  4  5  1  0
  6  5  1  0
  7  6  1  0
  8  9  2  0
 10 11  1  0
 10  8  1  0
 11 12  1  6
 13 12  1  0
 14 13  2  0
 15 16  2  0
 15 11  1  0
 17 13  1  0
 18 19  1  0
 19 29  2  0
 19 20  1  0
 20 21  2  0
 21 22  1  0
 22 23  1  0
 24 23  1  1
 24 26  1  0
 24 25  1  0
 25 15  1  0
 26 27  1  0
 28 22  2  0
 29 28  1  0
 30 26  2  0
M  END
$$$$
