KDY.pdb
     RDKit          3D

 30 30  0  0  1  0  0  0  0  0999 V2000
    9.0414  -21.3449   21.8113 N   0  0  0  0  0  0  0  0  0  0  0  0
   10.2780  -21.5539   22.4975 C   0  0  1  0  0  0  0  0  0  0  0  0
   11.0189  -22.7601   21.9265 C   0  0  0  0  0  0  0  0  0  0  0  0
   10.1051  -23.4909   20.9999 C   0  0  0  0  0  0  0  0  0  0  0  0
   10.0983  -24.9626   21.1347 C   0  0  0  0  0  0  0  0  0  0  0  0
    9.2494  -25.7627   20.2354 C   0  0  0  0  0  0  0  0  0  0  0  0
    9.7412  -25.8272   18.9024 N   0  0  0  0  0  0  0  0  0  0  0  0
   11.1494  -20.3587   22.3877 C   0  0  0  0  0  0  0  0  0  0  0  0
   12.2996  -20.3558   22.9075 O   0  0  0  0  0  0  0  0  0  0  0  0
   10.7243  -19.1865   21.7001 N   0  0  0  0  0  0  0  0  0  0  0  0
   11.5354  -18.0127   21.7475 C   0  0  1  0  0  0  0  0  0  0  0  0
   11.2914  -17.1697   20.5167 C   0  0  0  0  0  0  0  0  0  0  0  0
   11.5985  -17.8964   19.2598 C   0  0  0  0  0  0  0  0  0  0  0  0
   12.6988  -18.5222   19.1647 O   0  0  0  0  0  0  0  0  0  0  0  0
   11.2597  -17.1970   22.9620 C   0  0  0  0  0  0  0  0  0  0  0  0
   10.1039  -17.0481   23.4340 O   0  0  0  0  0  0  0  0  0  0  0  0
   10.7697  -17.9510   18.1578 O   0  0  0  0  0  0  0  0  0  0  0  0
   10.9025  -13.9232   30.7604 O   0  0  0  0  0  0  0  0  0  0  0  0
   11.0507  -14.5977   29.5791 C   0  0  0  0  0  0  0  0  0  0  0  0
    9.9337  -14.9648   28.8400 C   0  0  0  0  0  0  0  0  0  0  0  0
   10.1037  -15.6456   27.6493 C   0  0  0  0  0  0  0  0  0  0  0  0
   11.3522  -15.9719   27.1734 C   0  0  0  0  0  0  0  0  0  0  0  0
   11.5298  -16.7029   25.9114 C   0  0  0  0  0  0  0  0  0  0  0  0
   12.1548  -15.8241   24.8717 C   0  0  2  0  0  0  0  0  0  0  0  0
   12.3372  -16.5651   23.6101 N   0  0  0  0  0  0  0  0  0  0  0  0
   13.4525  -15.2473   25.2632 C   0  0  0  0  0  0  0  0  0  0  0  0
   13.5957  -14.0846   25.9989 O   0  0  0  0  0  0  0  0  0  0  0  0
   12.4455  -15.5939   27.9298 C   0  0  0  0  0  0  0  0  0  0  0  0
   12.3097  -14.9136   29.1219 C   0  0  0  0  0  0  0  0  0  0  0  0
   14.5080  -15.8278   24.9186 O   0  0  0  0  0  0  0  0  0  0  0  0
  2  1  1  6
  2  8  1  0
  2  3  1  0
  4  3  1  0
  4  5  1  0
  6  5  1  0
  7  6  1  0
  8  9  2  0
 10 11  1  0
 10  8  1  0
 11 12  1  6
 13 12  1  0
 14 13  2  0
 15 16  2  0
 15 11  1  0
 17 13  1  0
 18 19  1  0
 19 29  2  0
 19 20  1  0
 20 21  2  0
 21 22  1  0
 22 23  1  0
 24 23  1  1
 24 26  1  0
 24 25  1  0
 25 15  1  0
 26 27  1  0
 28 22  2  0
 29 28  1  0
 30 26  2  0
M  END
$$$$
