KDY.pdb
     RDKit          3D

 30 30  0  0  1  0  0  0  0  0999 V2000
   10.4902  -14.1151   18.1919 N   0  0  0  0  0  0  0  0  0  0  0  0
    9.2458  -13.7375   18.7858 C   0  0  1  0  0  0  0  0  0  0  0  0
    8.1597  -13.5896   17.7235 C   0  0  0  0  0  0  0  0  0  0  0  0
    8.2341  -14.7556   16.7947 C   0  0  0  0  0  0  0  0  0  0  0  0
    7.9779  -14.4576   15.3701 C   0  0  0  0  0  0  0  0  0  0  0  0
    7.9971  -15.5580   14.3911 C   0  0  0  0  0  0  0  0  0  0  0  0
    7.7356  -15.1344   13.0588 N   0  0  0  0  0  0  0  0  0  0  0  0
    8.8099  -14.7471   19.7812 C   0  0  0  0  0  0  0  0  0  0  0  0
    7.7418  -14.5828   20.4332 O   0  0  0  0  0  0  0  0  0  0  0  0
    9.5720  -15.9232   20.0332 N   0  0  0  0  0  0  0  0  0  0  0  0
    9.1415  -16.8345   21.0443 C   0  0  1  0  0  0  0  0  0  0  0  0
    9.9509  -18.1087   20.9658 C   0  0  0  0  0  0  0  0  0  0  0  0
   11.4104  -17.8513   20.8882 C   0  0  0  0  0  0  0  0  0  0  0  0
   11.8665  -16.7569   21.3416 O   0  0  0  0  0  0  0  0  0  0  0  0
    9.2751  -16.2529   22.4081 C   0  0  0  0  0  0  0  0  0  0  0  0
   10.2231  -15.4944   22.7347 O   0  0  0  0  0  0  0  0  0  0  0  0
   12.3372  -18.7217   20.3519 O   0  0  0  0  0  0  0  0  0  0  0  0
    5.9690  -11.1841   28.4598 O   0  0  0  0  0  0  0  0  0  0  0  0
    6.2460  -12.0092   27.4038 C   0  0  0  0  0  0  0  0  0  0  0  0
    7.4308  -11.8614   26.6946 C   0  0  0  0  0  0  0  0  0  0  0  0
    7.6928  -12.7043   25.6311 C   0  0  0  0  0  0  0  0  0  0  0  0
    6.8102  -13.6892   25.2531 C   0  0  0  0  0  0  0  0  0  0  0  0
    7.0875  -14.5786   24.1170 C   0  0  0  0  0  0  0  0  0  0  0  0
    8.0293  -15.6728   24.5164 C   0  0  2  0  0  0  0  0  0  0  0  0
    8.3000  -16.5646   23.3738 N   0  0  0  0  0  0  0  0  0  0  0  0
    7.5625  -16.4946   25.6463 C   0  0  0  0  0  0  0  0  0  0  0  0
    7.9741  -16.3208   26.9555 O   0  0  0  0  0  0  0  0  0  0  0  0
    5.6394  -13.8131   25.9769 C   0  0  0  0  0  0  0  0  0  0  0  0
    5.3484  -12.9881   27.0433 C   0  0  0  0  0  0  0  0  0  0  0  0
    6.7414  -17.4166   25.4331 O   0  0  0  0  0  0  0  0  0  0  0  0
  2  1  1  6
  2  8  1  0
  2  3  1  0
  4  3  1  0
  4  5  1  0
  6  5  1  0
  7  6  1  0
  8  9  2  0
 10 11  1  0
 10  8  1  0
 11 12  1  1
 13 12  1  0
 14 13  2  0
 15 16  2  0
 15 11  1  0
 17 13  1  0
 18 19  1  0
 19 29  2  0
 19 20  1  0
 20 21  2  0
 21 22  1  0
 22 23  1  0
 24 23  1  6
 24 26  1  0
 24 25  1  0
 25 15  1  0
 26 27  1  0
 28 22  2  0
 29 28  1  0
 30 26  2  0
M  END
$$$$
