KDY.pdb
     RDKit          3D

 30 30  0  0  1  0  0  0  0  0999 V2000
   10.1171  -13.6253   20.1645 N   0  0  0  0  0  0  0  0  0  0  0  0
    8.8407  -13.8843   20.7538 C   0  0  1  0  0  0  0  0  0  0  0  0
    7.7917  -14.1576   19.6791 C   0  0  0  0  0  0  0  0  0  0  0  0
    8.3386  -13.7365   18.3557 C   0  0  0  0  0  0  0  0  0  0  0  0
    7.4193  -13.8792   17.2075 C   0  0  0  0  0  0  0  0  0  0  0  0
    7.9012  -13.5478   15.8556 C   0  0  0  0  0  0  0  0  0  0  0  0
    6.9032  -13.6808   14.8510 N   0  0  0  0  0  0  0  0  0  0  0  0
    8.9094  -15.0519   21.6660 C   0  0  0  0  0  0  0  0  0  0  0  0
    7.8849  -15.4302   22.2989 O   0  0  0  0  0  0  0  0  0  0  0  0
   10.1189  -15.7784   21.8576 N   0  0  0  0  0  0  0  0  0  0  0  0
   10.1468  -16.8609   22.7880 C   0  0  1  0  0  0  0  0  0  0  0  0
   11.3906  -17.6923   22.5714 C   0  0  0  0  0  0  0  0  0  0  0  0
   11.4487  -18.2853   21.2123 C   0  0  0  0  0  0  0  0  0  0  0  0
   12.4449  -18.0248   20.4701 O   0  0  0  0  0  0  0  0  0  0  0  0
   10.1176  -16.3816   24.1971 C   0  0  0  0  0  0  0  0  0  0  0  0
   10.8821  -15.4800   24.6254 O   0  0  0  0  0  0  0  0  0  0  0  0
   10.4881  -19.1162   20.6728 O   0  0  0  0  0  0  0  0  0  0  0  0
    6.3173  -11.0078   25.5658 O   0  0  0  0  0  0  0  0  0  0  0  0
    6.6598  -12.2919   25.8917 C   0  0  0  0  0  0  0  0  0  0  0  0
    5.9400  -13.3597   25.3715 C   0  0  0  0  0  0  0  0  0  0  0  0
    6.3011  -14.6495   25.7122 C   0  0  0  0  0  0  0  0  0  0  0  0
    7.3568  -14.9074   26.5553 C   0  0  0  0  0  0  0  0  0  0  0  0
    7.7334  -16.2792   26.9223 C   0  0  0  0  0  0  0  0  0  0  0  0
    9.1435  -16.5715   26.5098 C   0  0  2  0  0  0  0  0  0  0  0  0
    9.1961  -16.9614   25.0887 N   0  0  0  0  0  0  0  0  0  0  0  0
    9.8043  -17.6214   27.3041 C   0  0  0  0  0  0  0  0  0  0  0  0
   10.2101  -17.4627   28.6170 O   0  0  0  0  0  0  0  0  0  0  0  0
    8.0550  -13.8255   27.0577 C   0  0  0  0  0  0  0  0  0  0  0  0
    7.7201  -12.5265   26.7370 C   0  0  0  0  0  0  0  0  0  0  0  0
   10.0249  -18.7373   26.7788 O   0  0  0  0  0  0  0  0  0  0  0  0
  2  1  1  6
  2  8  1  0
  2  3  1  0
  4  3  1  0
  4  5  1  0
  6  5  1  0
  7  6  1  0
  8  9  2  0
 10 11  1  0
 10  8  1  0
 11 12  1  1
 13 12  1  0
 14 13  2  0
 15 16  2  0
 15 11  1  0
 17 13  1  0
 18 19  1  0
 19 29  2  0
 19 20  1  0
 20 21  2  0
 21 22  1  0
 22 23  1  0
 24 23  1  1
 24 26  1  0
 24 25  1  0
 25 15  1  0
 26 27  1  0
 28 22  2  0
 29 28  1  0
 30 26  2  0
M  END
$$$$
