TSY.pdb
     RDKit          3D

 26 26  0  0  1  0  0  0  0  0999 V2000
   42.5973  -11.1229  -12.7340 C   0  0  0  0  0  0  0  0  0  0  0  0
   42.1427  -10.4494  -11.4665 C   0  0  1  0  0  0  0  0  0  0  0  0
   40.7863  -10.6085  -11.2218 O   0  0  0  0  0  0  0  0  0  0  0  0
   42.8931  -10.9326  -10.2546 C   0  0  2  0  0  0  0  0  0  0  0  0
   42.6166  -12.3284  -10.0579 N   0  0  0  0  0  0  0  0  0  0  0  0
   42.5221  -10.1169   -9.0576 C   0  0  0  0  0  0  0  0  0  0  0  0
   41.4705  -10.4280   -8.4492 O   0  0  0  0  0  0  0  0  0  0  0  0
   44.6251   -6.6110   -7.8749 O   0  0  0  0  0  0  0  0  0  0  0  0
   44.0048   -7.3861   -6.9154 C   0  0  0  0  0  0  0  0  0  0  0  0
   42.8546   -8.2009   -7.4956 C   0  0  2  0  0  0  0  0  0  0  0  0
   43.2743   -9.0357   -8.5812 N   0  0  0  0  0  0  0  0  0  0  0  0
   41.7219   -7.3402   -7.8863 C   0  0  0  0  0  0  0  0  0  0  0  0
   41.5241   -7.1300   -9.1271 O   0  0  0  0  0  0  0  0  0  0  0  0
   34.6770   -1.9314   -6.7304 O   0  0  0  0  0  0  0  0  0  0  0  0
   35.7138   -2.8469   -6.5957 C   0  0  0  0  0  0  0  0  0  0  0  0
   35.6099   -4.0779   -7.2060 C   0  0  0  0  0  0  0  0  0  0  0  0
   36.6383   -4.9945   -7.0763 C   0  0  0  0  0  0  0  0  0  0  0  0
   37.7845   -4.7256   -6.3494 C   0  0  0  0  0  0  0  0  0  0  0  0
   38.8026   -5.7473   -6.2725 C   0  0  0  0  0  0  0  0  0  0  0  0
   39.8213   -5.7490   -7.3699 C   0  0  2  0  0  0  0  0  0  0  0  0
   40.8315   -6.7251   -6.9934 N   0  0  0  0  0  0  0  0  0  0  0  0
   40.4944   -4.4648   -7.5699 C   0  0  0  0  0  0  0  0  0  0  0  0
   40.0343   -3.4986   -8.4327 O   0  0  0  0  0  0  0  0  0  0  0  0
   37.8842   -3.4915   -5.7399 C   0  0  0  0  0  0  0  0  0  0  0  0
   36.8608   -2.5892   -5.8735 C   0  0  0  0  0  0  0  0  0  0  0  0
   41.5660   -4.1862   -6.9311 O   0  0  0  0  0  0  0  0  0  0  0  0
  2  1  1  6
  3  2  1  0
  4  2  1  0
  4  6  1  0
  4  5  1  1
  6  7  2  0
  9  8  1  0
 10  9  1  6
 11  6  1  0
 11 10  1  0
 12 10  1  0
 12 21  1  0
 13 12  2  0
 15 14  1  0
 16 15  2  0
 17 16  1  0
 18 24  1  0
 18 17  2  0
 19 18  1  0
 20 22  1  0
 20 21  1  0
 20 19  1  1
 22 23  1  0
 24 25  2  0
 25 15  1  0
 26 22  2  0
M  END
$$$$
