TSY.pdb
     RDKit          3D

 26 26  0  0  1  0  0  0  0  0999 V2000
   15.7196  -21.5201    2.4514 C   0  0  0  0  0  0  0  0  0  0  0  0
   16.3351  -20.7611    3.5969 C   0  0  1  0  0  0  0  0  0  0  0  0
   17.3494  -19.9025    3.1985 O   0  0  0  0  0  0  0  0  0  0  0  0
   15.3224  -19.9577    4.3678 C   0  0  2  0  0  0  0  0  0  0  0  0
   14.7015  -19.0125    3.4821 N   0  0  0  0  0  0  0  0  0  0  0  0
   15.9750  -19.2844    5.5325 C   0  0  0  0  0  0  0  0  0  0  0  0
   15.6991  -18.0774    5.7318 O   0  0  0  0  0  0  0  0  0  0  0  0
   18.9905  -21.0928    7.8364 O   0  0  0  0  0  0  0  0  0  0  0  0
   18.0953  -20.2789    8.5018 C   0  0  0  0  0  0  0  0  0  0  0  0
   17.4226  -19.2833    7.5638 C   0  0  2  0  0  0  0  0  0  0  0  0
   16.8683  -19.9181    6.4057 N   0  0  0  0  0  0  0  0  0  0  0  0
   18.3357  -18.1865    7.1901 C   0  0  0  0  0  0  0  0  0  0  0  0
   19.0047  -18.2995    6.1119 O   0  0  0  0  0  0  0  0  0  0  0  0
   22.0642  -10.1113    7.0531 O   0  0  0  0  0  0  0  0  0  0  0  0
   21.2540  -11.2296    7.2090 C   0  0  0  0  0  0  0  0  0  0  0  0
   21.3168  -11.9494    8.3822 C   0  0  0  0  0  0  0  0  0  0  0  0
   20.5132  -13.0640    8.5446 C   0  0  0  0  0  0  0  0  0  0  0  0
   19.6354  -13.4947    7.5656 C   0  0  0  0  0  0  0  0  0  0  0  0
   18.8382  -14.6700    7.8290 C   0  0  0  0  0  0  0  0  0  0  0  0
   19.5166  -15.9887    7.6216 C   0  0  2  0  0  0  0  0  0  0  0  0
   18.5320  -17.0127    7.9331 N   0  0  0  0  0  0  0  0  0  0  0  0
   20.6791  -16.2108    8.4826 C   0  0  0  0  0  0  0  0  0  0  0  0
   21.9484  -15.7946    8.1582 O   0  0  0  0  0  0  0  0  0  0  0  0
   19.5758  -12.7707    6.3923 C   0  0  0  0  0  0  0  0  0  0  0  0
   20.3755  -11.6677    6.2396 C   0  0  0  0  0  0  0  0  0  0  0  0
   20.5533  -16.8177    9.6006 O   0  0  0  0  0  0  0  0  0  0  0  0
  2  1  1  6
  3  2  1  0
  4  2  1  0
  4  6  1  0
  4  5  1  6
  6  7  2  0
  9  8  1  0
 10  9  1  6
 11  6  1  0
 11 10  1  0
 12 10  1  0
 12 21  1  0
 13 12  2  0
 15 14  1  0
 16 15  2  0
 17 16  1  0
 18 24  1  0
 18 17  2  0
 19 18  1  0
 20 22  1  0
 20 21  1  0
 20 19  1  1
 22 23  1  0
 24 25  2  0
 25 15  1  0
 26 22  2  0
M  END
$$$$
