TSY.pdb
     RDKit          3D

 26 26  0  0  1  0  0  0  0  0999 V2000
   16.4803  -11.9431  -16.7033 C   0  0  0  0  0  0  0  0  0  0  0  0
   17.3287  -10.7668  -17.1075 C   0  0  1  0  0  0  0  0  0  0  0  0
   18.3307  -11.1017  -18.0067 O   0  0  0  0  0  0  0  0  0  0  0  0
   16.5186   -9.6502  -17.7094 C   0  0  2  0  0  0  0  0  0  0  0  0
   15.9553  -10.0974  -18.9528 N   0  0  0  0  0  0  0  0  0  0  0  0
   17.3687   -8.4332  -17.8885 C   0  0  0  0  0  0  0  0  0  0  0  0
   17.5326   -8.0092  -19.0573 O   0  0  0  0  0  0  0  0  0  0  0  0
   16.7390   -5.1342  -16.5012 O   0  0  0  0  0  0  0  0  0  0  0  0
   17.7202   -5.3811  -17.4407 C   0  0  0  0  0  0  0  0  0  0  0  0
   18.6639   -6.4948  -17.0016 C   0  0  2  0  0  0  0  0  0  0  0  0
   17.9868   -7.7460  -16.8361 N   0  0  0  0  0  0  0  0  0  0  0  0
   19.4132   -6.1243  -15.7860 C   0  0  0  0  0  0  0  0  0  0  0  0
   18.8088   -6.1756  -14.6658 O   0  0  0  0  0  0  0  0  0  0  0  0
   22.4885  -11.7678  -15.1702 O   0  0  0  0  0  0  0  0  0  0  0  0
   22.5699  -10.3828  -15.0904 C   0  0  0  0  0  0  0  0  0  0  0  0
   22.5917   -9.7788  -13.8522 C   0  0  0  0  0  0  0  0  0  0  0  0
   22.6726   -8.4002  -13.7651 C   0  0  0  0  0  0  0  0  0  0  0  0
   22.7336   -7.5884  -14.8839 C   0  0  0  0  0  0  0  0  0  0  0  0
   22.8162   -6.1595  -14.6900 C   0  0  0  0  0  0  0  0  0  0  0  0
   21.5132   -5.4350  -14.5508 C   0  0  2  0  0  0  0  0  0  0  0  0
   20.7547   -5.7144  -15.7598 N   0  0  0  0  0  0  0  0  0  0  0  0
   21.6409   -3.9820  -14.4298 C   0  0  0  0  0  0  0  0  0  0  0  0
   21.1823   -3.1028  -15.3818 O   0  0  0  0  0  0  0  0  0  0  0  0
   22.7115   -8.1977  -16.1219 C   0  0  0  0  0  0  0  0  0  0  0  0
   22.6311   -9.5641  -16.1993 C   0  0  0  0  0  0  0  0  0  0  0  0
   22.2000   -3.4619  -13.4047 O   0  0  0  0  0  0  0  0  0  0  0  0
  2  1  1  6
  3  2  1  0
  4  2  1  0
  4  6  1  0
  4  5  1  6
  6  7  2  0
  9  8  1  0
 10  9  1  1
 11  6  1  0
 11 10  1  0
 12 10  1  0
 12 21  1  0
 13 12  2  0
 15 14  1  0
 16 15  2  0
 17 16  1  0
 18 24  1  0
 18 17  2  0
 19 18  1  0
 20 22  1  0
 20 21  1  0
 20 19  1  6
 22 23  1  0
 24 25  2  0
 25 15  1  0
 26 22  2  0
M  END
$$$$
