TSY.pdb
     RDKit          3D

 26 26  0  0  1  0  0  0  0  0999 V2000
   23.4812  -12.5406  -15.3339 C   0  0  0  0  0  0  0  0  0  0  0  0
   24.1332  -12.6153  -16.6889 C   0  0  1  0  0  0  0  0  0  0  0  0
   24.7187  -13.8469  -16.9442 O   0  0  0  0  0  0  0  0  0  0  0  0
   23.1734  -12.3161  -17.8090 C   0  0  2  0  0  0  0  0  0  0  0  0
   23.8595  -12.4537  -19.0635 N   0  0  0  0  0  0  0  0  0  0  0  0
   22.5909  -10.9495  -17.6394 C   0  0  0  0  0  0  0  0  0  0  0  0
   23.3355   -9.9695  -17.8799 O   0  0  0  0  0  0  0  0  0  0  0  0
   18.6439  -10.1150  -16.1177 O   0  0  0  0  0  0  0  0  0  0  0  0
   19.2026   -9.3868  -17.1492 C   0  0  0  0  0  0  0  0  0  0  0  0
   20.7257   -9.3875  -17.0891 C   0  0  2  0  0  0  0  0  0  0  0  0
   21.2738  -10.7032  -17.2313 N   0  0  0  0  0  0  0  0  0  0  0  0
   21.2215   -8.7282  -15.8660 C   0  0  0  0  0  0  0  0  0  0  0  0
   21.3126   -9.4219  -14.8014 O   0  0  0  0  0  0  0  0  0  0  0  0
   25.5265   -3.3070  -18.8447 O   0  0  0  0  0  0  0  0  0  0  0  0
   25.0481   -4.1037  -17.8114 C   0  0  0  0  0  0  0  0  0  0  0  0
   24.9945   -5.4698  -17.9827 C   0  0  0  0  0  0  0  0  0  0  0  0
   24.5193   -6.2694  -16.9584 C   0  0  0  0  0  0  0  0  0  0  0  0
   24.0888   -5.7499  -15.7504 C   0  0  0  0  0  0  0  0  0  0  0  0
   23.6096   -6.6663  -14.7421 C   0  0  0  0  0  0  0  0  0  0  0  0
   22.1238   -6.7462  -14.5743 C   0  0  2  0  0  0  0  0  0  0  0  0
   21.6066   -7.3821  -15.7756 N   0  0  0  0  0  0  0  0  0  0  0  0
   21.4618   -5.4482  -14.4362 C   0  0  0  0  0  0  0  0  0  0  0  0
   21.6017   -4.6441  -13.3300 O   0  0  0  0  0  0  0  0  0  0  0  0
   24.1444   -4.3811  -15.5832 C   0  0  0  0  0  0  0  0  0  0  0  0
   24.6165   -3.5962  -16.6032 C   0  0  0  0  0  0  0  0  0  0  0  0
   20.7072   -5.0013  -15.3662 O   0  0  0  0  0  0  0  0  0  0  0  0
  2  1  1  1
  3  2  1  0
  4  2  1  0
  4  6  1  0
  4  5  1  6
  6  7  2  0
  9  8  1  0
 10  9  1  1
 11  6  1  0
 11 10  1  0
 12 10  1  0
 12 21  1  0
 13 12  2  0
 15 14  1  0
 16 15  2  0
 17 16  1  0
 18 24  1  0
 18 17  2  0
 19 18  1  0
 20 22  1  0
 20 21  1  0
 20 19  1  6
 22 23  1  0
 24 25  2  0
 25 15  1  0
 26 22  2  0
M  END
$$$$
