TSY.pdb
     RDKit          3D

 26 26  0  0  1  0  0  0  0  0999 V2000
   28.6652  -21.5970  -20.8267 C   0  0  0  0  0  0  0  0  0  0  0  0
   27.7229  -21.2771  -19.6968 C   0  0  1  0  0  0  0  0  0  0  0  0
   26.3869  -21.3749  -20.0579 O   0  0  0  0  0  0  0  0  0  0  0  0
   27.9444  -22.1543  -18.4941 C   0  0  2  0  0  0  0  0  0  0  0  0
   27.7096  -23.5227  -18.8624 N   0  0  0  0  0  0  0  0  0  0  0  0
   27.0610  -21.7208  -17.3683 C   0  0  0  0  0  0  0  0  0  0  0  0
   25.9437  -22.2803  -17.2615 O   0  0  0  0  0  0  0  0  0  0  0  0
   27.8918  -18.3361  -15.0150 O   0  0  0  0  0  0  0  0  0  0  0  0
   27.2204  -19.3739  -14.3997 C   0  0  0  0  0  0  0  0  0  0  0  0
   26.5193  -20.2775  -15.4074 C   0  0  2  0  0  0  0  0  0  0  0  0
   27.4061  -20.7351  -16.4350 N   0  0  0  0  0  0  0  0  0  0  0  0
   25.3237  -19.6292  -15.9788 C   0  0  0  0  0  0  0  0  0  0  0  0
   25.4638  -18.9268  -17.0323 O   0  0  0  0  0  0  0  0  0  0  0  0
   20.3994  -24.7414  -17.7780 O   0  0  0  0  0  0  0  0  0  0  0  0
   20.9209  -23.4577  -17.6711 C   0  0  0  0  0  0  0  0  0  0  0  0
   22.2712  -23.2605  -17.8613 C   0  0  0  0  0  0  0  0  0  0  0  0
   22.7977  -21.9852  -17.7565 C   0  0  0  0  0  0  0  0  0  0  0  0
   22.0159  -20.8816  -17.4644 C   0  0  0  0  0  0  0  0  0  0  0  0
   22.6581  -19.5909  -17.3759 C   0  0  0  0  0  0  0  0  0  0  0  0
   22.8598  -19.0463  -15.9958 C   0  0  2  0  0  0  0  0  0  0  0  0
   24.0267  -19.7226  -15.4519 N   0  0  0  0  0  0  0  0  0  0  0  0
   21.7402  -19.2850  -15.0837 C   0  0  0  0  0  0  0  0  0  0  0  0
   20.5004  -18.7140  -15.2459 O   0  0  0  0  0  0  0  0  0  0  0  0
   20.6640  -21.0838  -17.2746 C   0  0  0  0  0  0  0  0  0  0  0  0
   20.1506  -22.3506  -17.3803 C   0  0  0  0  0  0  0  0  0  0  0  0
   21.8781  -20.0558  -14.0733 O   0  0  0  0  0  0  0  0  0  0  0  0
  2  1  1  6
  3  2  1  0
  4  2  1  0
  4  6  1  0
  4  5  1  6
  6  7  2  0
  9  8  1  0
 10  9  1  1
 11  6  1  0
 11 10  1  0
 12 10  1  0
 12 21  1  0
 13 12  2  0
 15 14  1  0
 16 15  2  0
 17 16  1  0
 18 24  1  0
 18 17  2  0
 19 18  1  0
 20 22  1  0
 20 21  1  0
 20 19  1  6
 22 23  1  0
 24 25  2  0
 25 15  1  0
 26 22  2  0
M  END
$$$$
