TSY.pdb
     RDKit          3D

 26 26  0  0  1  0  0  0  0  0999 V2000
   24.5402  -11.6339  -15.2471 C   0  0  0  0  0  0  0  0  0  0  0  0
   23.9803  -12.2625  -16.4955 C   0  0  1  0  0  0  0  0  0  0  0  0
   24.4290  -13.5592  -16.7003 O   0  0  0  0  0  0  0  0  0  0  0  0
   22.4754  -12.2847  -16.5059 C   0  0  2  0  0  0  0  0  0  0  0  0
   22.0251  -12.9820  -17.6782 N   0  0  0  0  0  0  0  0  0  0  0  0
   21.9375  -10.8909  -16.4454 C   0  0  0  0  0  0  0  0  0  0  0  0
   22.2158  -10.1218  -17.3960 O   0  0  0  0  0  0  0  0  0  0  0  0
   20.1696   -9.1073  -12.9892 O   0  0  0  0  0  0  0  0  0  0  0  0
   19.6276   -8.8614  -14.2350 C   0  0  0  0  0  0  0  0  0  0  0  0
   20.6476   -9.0581  -15.3505 C   0  0  2  0  0  0  0  0  0  0  0  0
   21.1479  -10.3994  -15.3980 N   0  0  0  0  0  0  0  0  0  0  0  0
   21.7464   -8.0776  -15.2611 C   0  0  0  0  0  0  0  0  0  0  0  0
   22.7762   -8.3863  -14.5779 O   0  0  0  0  0  0  0  0  0  0  0  0
   26.3418   -0.7674  -17.6521 O   0  0  0  0  0  0  0  0  0  0  0  0
   25.5857   -1.9252  -17.5136 C   0  0  0  0  0  0  0  0  0  0  0  0
   24.2425   -1.8939  -17.8191 C   0  0  0  0  0  0  0  0  0  0  0  0
   23.4833   -3.0427  -17.6837 C   0  0  0  0  0  0  0  0  0  0  0  0
   24.0216   -4.2406  -17.2481 C   0  0  0  0  0  0  0  0  0  0  0  0
   23.1475   -5.3853  -17.1391 C   0  0  0  0  0  0  0  0  0  0  0  0
   22.8216   -5.8379  -15.7495 C   0  0  2  0  0  0  0  0  0  0  0  0
   21.7523   -6.8157  -15.8743 N   0  0  0  0  0  0  0  0  0  0  0  0
   22.3509   -4.7726  -14.8631 C   0  0  0  0  0  0  0  0  0  0  0  0
   21.0238   -4.5672  -14.5693 O   0  0  0  0  0  0  0  0  0  0  0  0
   25.3673   -4.2673  -16.9433 C   0  0  0  0  0  0  0  0  0  0  0  0
   26.1122   -3.1246  -17.0803 C   0  0  0  0  0  0  0  0  0  0  0  0
   23.1806   -3.9704  -14.3135 O   0  0  0  0  0  0  0  0  0  0  0  0
  2  1  1  1
  3  2  1  0
  4  2  1  0
  4  6  1  0
  4  5  1  6
  6  7  2  0
  9  8  1  0
 10  9  1  1
 11  6  1  0
 11 10  1  0
 12 10  1  0
 12 21  1  0
 13 12  2  0
 15 14  1  0
 16 15  2  0
 17 16  1  0
 18 24  1  0
 18 17  2  0
 19 18  1  0
 20 22  1  0
 20 21  1  0
 20 19  1  6
 22 23  1  0
 24 25  2  0
 25 15  1  0
 26 22  2  0
M  END
$$$$
