TSY.pdb
     RDKit          3D

 26 26  0  0  1  0  0  0  0  0999 V2000
   19.9094  -11.6731  -15.5331 C   0  0  0  0  0  0  0  0  0  0  0  0
   18.4739  -11.5268  -15.9632 C   0  0  1  0  0  0  0  0  0  0  0  0
   17.6802  -10.9071  -15.0089 O   0  0  0  0  0  0  0  0  0  0  0  0
   18.3323  -10.7629  -17.2523 C   0  0  2  0  0  0  0  0  0  0  0  0
   18.9154  -11.5296  -18.3179 N   0  0  0  0  0  0  0  0  0  0  0  0
   18.9644   -9.4138  -17.1259 C   0  0  0  0  0  0  0  0  0  0  0  0
   20.2173   -9.3599  -17.1262 O   0  0  0  0  0  0  0  0  0  0  0  0
   16.8362   -5.8995  -16.0808 O   0  0  0  0  0  0  0  0  0  0  0  0
   17.8649   -5.7920  -16.9955 C   0  0  0  0  0  0  0  0  0  0  0  0
   18.8653   -6.9350  -16.8666 C   0  0  2  0  0  0  0  0  0  0  0  0
   18.2445   -8.2180  -17.0082 N   0  0  0  0  0  0  0  0  0  0  0  0
   19.6337   -6.8454  -15.6105 C   0  0  0  0  0  0  0  0  0  0  0  0
   19.2600   -7.5578  -14.6227 O   0  0  0  0  0  0  0  0  0  0  0  0
   25.9118   -5.5045  -18.9052 O   0  0  0  0  0  0  0  0  0  0  0  0
   25.1491   -5.7967  -17.7809 C   0  0  0  0  0  0  0  0  0  0  0  0
   24.3096   -6.8892  -17.8009 C   0  0  0  0  0  0  0  0  0  0  0  0
   23.5471   -7.1863  -16.6852 C   0  0  0  0  0  0  0  0  0  0  0  0
   23.5909   -6.4231  -15.5320 C   0  0  0  0  0  0  0  0  0  0  0  0
   22.7569   -6.8141  -14.4194 C   0  0  0  0  0  0  0  0  0  0  0  0
   21.5368   -5.9790  -14.1827 C   0  0  2  0  0  0  0  0  0  0  0  0
   20.7576   -6.0300  -15.4096 N   0  0  0  0  0  0  0  0  0  0  0  0
   21.8161   -4.5725  -13.8896 C   0  0  0  0  0  0  0  0  0  0  0  0
   21.4447   -3.5411  -14.7190 O   0  0  0  0  0  0  0  0  0  0  0  0
   24.4330   -5.3299  -15.5164 C   0  0  0  0  0  0  0  0  0  0  0  0
   25.1850   -5.0425  -16.6261 C   0  0  0  0  0  0  0  0  0  0  0  0
   22.4337   -4.2417  -12.8204 O   0  0  0  0  0  0  0  0  0  0  0  0
  2  1  1  1
  3  2  1  0
  4  2  1  0
  4  6  1  0
  4  5  1  6
  6  7  2  0
  9  8  1  0
 10  9  1  1
 11  6  1  0
 11 10  1  0
 12 10  1  0
 12 21  1  0
 13 12  2  0
 15 14  1  0
 16 15  2  0
 17 16  1  0
 18 24  1  0
 18 17  2  0
 19 18  1  0
 20 22  1  0
 20 21  1  0
 20 19  1  6
 22 23  1  0
 24 25  2  0
 25 15  1  0
 26 22  2  0
M  END
$$$$
