TSY.pdb
     RDKit          3D

 26 26  0  0  1  0  0  0  0  0999 V2000
   20.9294   -8.5913  -15.4317 C   0  0  0  0  0  0  0  0  0  0  0  0
   20.2946   -9.2430  -16.6315 C   0  0  1  0  0  0  0  0  0  0  0  0
   21.1375  -10.1379  -17.2745 O   0  0  0  0  0  0  0  0  0  0  0  0
   19.0214   -9.9687  -16.2884 C   0  0  2  0  0  0  0  0  0  0  0  0
   18.5002  -10.5873  -17.4754 N   0  0  0  0  0  0  0  0  0  0  0  0
   18.0379   -9.0248  -15.6741 C   0  0  0  0  0  0  0  0  0  0  0  0
   17.5402   -8.1445  -16.4158 O   0  0  0  0  0  0  0  0  0  0  0  0
   15.1067   -9.6529  -13.1005 O   0  0  0  0  0  0  0  0  0  0  0  0
   15.3397   -8.4538  -13.7440 C   0  0  0  0  0  0  0  0  0  0  0  0
   16.8149   -8.0706  -13.7208 C   0  0  2  0  0  0  0  0  0  0  0  0
   17.6440   -9.0667  -14.3306 N   0  0  0  0  0  0  0  0  0  0  0  0
   17.2725   -7.7534  -12.3546 C   0  0  0  0  0  0  0  0  0  0  0  0
   17.6901   -8.7078  -11.6215 O   0  0  0  0  0  0  0  0  0  0  0  0
   22.6340   -5.7139  -14.8525 O   0  0  0  0  0  0  0  0  0  0  0  0
   21.7135   -5.5743  -13.8207 C   0  0  0  0  0  0  0  0  0  0  0  0
   20.7847   -4.5582  -13.8786 C   0  0  0  0  0  0  0  0  0  0  0  0
   19.8651   -4.4131  -12.8550 C   0  0  0  0  0  0  0  0  0  0  0  0
   19.8363   -5.2565  -11.7585 C   0  0  0  0  0  0  0  0  0  0  0  0
   18.8377   -5.0239  -10.7411 C   0  0  0  0  0  0  0  0  0  0  0  0
   17.8709   -6.1408  -10.4965 C   0  0  2  0  0  0  0  0  0  0  0  0
   17.2865   -6.4704  -11.7868 N   0  0  0  0  0  0  0  0  0  0  0  0
   16.7771   -5.8028   -9.5846 C   0  0  0  0  0  0  0  0  0  0  0  0
   16.9473   -5.6400   -8.2303 O   0  0  0  0  0  0  0  0  0  0  0  0
   20.7683   -6.2728  -11.7047 C   0  0  0  0  0  0  0  0  0  0  0  0
   21.6759   -6.4095  -12.7231 C   0  0  0  0  0  0  0  0  0  0  0  0
   15.5886   -5.6417  -10.0268 O   0  0  0  0  0  0  0  0  0  0  0  0
  2  1  1  1
  3  2  1  0
  4  2  1  0
  4  6  1  0
  4  5  1  6
  6  7  2  0
  9  8  1  0
 10  9  1  1
 11  6  1  0
 11 10  1  0
 12 10  1  0
 12 21  1  0
 13 12  2  0
 15 14  1  0
 16 15  2  0
 17 16  1  0
 18 24  1  0
 18 17  2  0
 19 18  1  0
 20 22  1  0
 20 21  1  0
 20 19  1  6
 22 23  1  0
 24 25  2  0
 25 15  1  0
 26 22  2  0
M  END
$$$$
