TSY.pdb
     RDKit          3D

 26 26  0  0  1  0  0  0  0  0999 V2000
   14.4233  -11.3789  -17.5400 C   0  0  0  0  0  0  0  0  0  0  0  0
   15.2800  -12.5503  -17.9413 C   0  0  1  0  0  0  0  0  0  0  0  0
   14.5679  -13.7368  -18.0405 O   0  0  0  0  0  0  0  0  0  0  0  0
   15.9911  -12.3247  -19.2485 C   0  0  2  0  0  0  0  0  0  0  0  0
   16.6441  -13.5418  -19.6428 N   0  0  0  0  0  0  0  0  0  0  0  0
   16.9565  -11.1898  -19.1226 C   0  0  0  0  0  0  0  0  0  0  0  0
   18.1183  -11.4592  -18.7348 O   0  0  0  0  0  0  0  0  0  0  0  0
   15.8708   -7.0872  -19.3570 O   0  0  0  0  0  0  0  0  0  0  0  0
   17.0623   -7.4922  -19.9252 C   0  0  0  0  0  0  0  0  0  0  0  0
   17.5828   -8.7821  -19.3017 C   0  0  2  0  0  0  0  0  0  0  0  0
   16.6410   -9.8558  -19.4102 N   0  0  0  0  0  0  0  0  0  0  0  0
   18.0058   -8.5776  -17.9032 C   0  0  0  0  0  0  0  0  0  0  0  0
   17.1732   -8.8430  -16.9763 O   0  0  0  0  0  0  0  0  0  0  0  0
   23.6174   -7.4909  -11.0327 O   0  0  0  0  0  0  0  0  0  0  0  0
   22.9999   -7.5690  -12.2752 C   0  0  0  0  0  0  0  0  0  0  0  0
   22.9784   -8.7741  -12.9430 C   0  0  0  0  0  0  0  0  0  0  0  0
   22.3655   -8.8594  -14.1805 C   0  0  0  0  0  0  0  0  0  0  0  0
   21.7635   -7.7711  -14.7869 C   0  0  0  0  0  0  0  0  0  0  0  0
   21.1495   -7.9603  -16.0805 C   0  0  0  0  0  0  0  0  0  0  0  0
   19.6567   -7.8531  -16.1254 C   0  0  2  0  0  0  0  0  0  0  0  0
   19.2660   -8.1086  -17.5028 N   0  0  0  0  0  0  0  0  0  0  0  0
   19.1349   -6.5381  -15.7502 C   0  0  0  0  0  0  0  0  0  0  0  0
   18.7630   -6.2122  -14.4676 O   0  0  0  0  0  0  0  0  0  0  0  0
   21.7874   -6.5662  -14.1145 C   0  0  0  0  0  0  0  0  0  0  0  0
   22.3969   -6.4903  -12.8888 C   0  0  0  0  0  0  0  0  0  0  0  0
   19.0019   -5.6174  -16.6269 O   0  0  0  0  0  0  0  0  0  0  0  0
  2  1  1  6
  3  2  1  0
  4  2  1  0
  4  6  1  0
  4  5  1  1
  6  7  2  0
  9  8  1  0
 10  9  1  1
 11  6  1  0
 11 10  1  0
 12 10  1  0
 12 21  1  0
 13 12  2  0
 15 14  1  0
 16 15  2  0
 17 16  1  0
 18 24  1  0
 18 17  2  0
 19 18  1  0
 20 22  1  0
 20 21  1  0
 20 19  1  6
 22 23  1  0
 24 25  2  0
 25 15  1  0
 26 22  2  0
M  END
$$$$
