TSY.pdb
     RDKit          3D

 26 26  0  0  1  0  0  0  0  0999 V2000
   22.2551  -11.5083  -19.7267 C   0  0  0  0  0  0  0  0  0  0  0  0
   23.5783  -12.1807  -19.4737 C   0  0  1  0  0  0  0  0  0  0  0  0
   23.5911  -13.5160  -19.8500 O   0  0  0  0  0  0  0  0  0  0  0  0
   24.7196  -11.4906  -20.1711 C   0  0  2  0  0  0  0  0  0  0  0  0
   25.9032  -12.2940  -20.0405 N   0  0  0  0  0  0  0  0  0  0  0  0
   24.9133  -10.1178  -19.6112 C   0  0  0  0  0  0  0  0  0  0  0  0
   26.0275   -9.5714  -19.7920 O   0  0  0  0  0  0  0  0  0  0  0  0
   23.2890   -7.0111  -20.5602 O   0  0  0  0  0  0  0  0  0  0  0  0
   24.3734   -7.1386  -19.7151 C   0  0  0  0  0  0  0  0  0  0  0  0
   24.0663   -8.0388  -18.5240 C   0  0  2  0  0  0  0  0  0  0  0  0
   23.9312   -9.4134  -18.9032 N   0  0  0  0  0  0  0  0  0  0  0  0
   22.8835   -7.5685  -17.7781 C   0  0  0  0  0  0  0  0  0  0  0  0
   21.7348   -7.7312  -18.3040 O   0  0  0  0  0  0  0  0  0  0  0  0
   20.3489  -12.8500  -15.7654 O   0  0  0  0  0  0  0  0  0  0  0  0
   20.7188  -11.5445  -15.4655 C   0  0  0  0  0  0  0  0  0  0  0  0
   19.7650  -10.5505  -15.4915 C   0  0  0  0  0  0  0  0  0  0  0  0
   20.1259   -9.2483  -15.1940 C   0  0  0  0  0  0  0  0  0  0  0  0
   21.4227   -8.8943  -14.8663 C   0  0  0  0  0  0  0  0  0  0  0  0
   21.7010   -7.5080  -14.5715 C   0  0  0  0  0  0  0  0  0  0  0  0
   21.7446   -6.5787  -15.7448 C   0  0  2  0  0  0  0  0  0  0  0  0
   22.9182   -6.9481  -16.5202 N   0  0  0  0  0  0  0  0  0  0  0  0
   21.8713   -5.1645  -15.3897 C   0  0  0  0  0  0  0  0  0  0  0  0
   20.9104   -4.4734  -14.6908 O   0  0  0  0  0  0  0  0  0  0  0  0
   22.3748   -9.8931  -14.8416 C   0  0  0  0  0  0  0  0  0  0  0  0
   22.0087  -11.1807  -15.1376 C   0  0  0  0  0  0  0  0  0  0  0  0
   22.9105   -4.5006  -15.7262 O   0  0  0  0  0  0  0  0  0  0  0  0
  2  1  1  6
  3  2  1  0
  4  2  1  0
  4  6  1  0
  4  5  1  1
  6  7  2  0
  9  8  1  0
 10  9  1  6
 11  6  1  0
 11 10  1  0
 12 10  1  0
 12 21  1  0
 13 12  2  0
 15 14  1  0
 16 15  2  0
 17 16  1  0
 18 24  1  0
 18 17  2  0
 19 18  1  0
 20 22  1  0
 20 21  1  0
 20 19  1  1
 22 23  1  0
 24 25  2  0
 25 15  1  0
 26 22  2  0
M  END
$$$$
