TSY.pdb
     RDKit          3D

 26 26  0  0  1  0  0  0  0  0999 V2000
   21.4181  -11.5409  -17.8620 C   0  0  0  0  0  0  0  0  0  0  0  0
   20.2372  -11.6068  -18.7937 C   0  0  1  0  0  0  0  0  0  0  0  0
   20.1774  -12.7911  -19.5139 O   0  0  0  0  0  0  0  0  0  0  0  0
   18.9254  -11.4326  -18.0766 C   0  0  2  0  0  0  0  0  0  0  0  0
   17.8512  -11.6710  -19.0000 N   0  0  0  0  0  0  0  0  0  0  0  0
   18.8456  -10.0687  -17.4690 C   0  0  0  0  0  0  0  0  0  0  0  0
   19.1206   -9.0909  -18.2045 O   0  0  0  0  0  0  0  0  0  0  0  0
   18.4879   -9.4149  -13.2725 O   0  0  0  0  0  0  0  0  0  0  0  0
   17.9341   -8.4989  -14.1446 C   0  0  0  0  0  0  0  0  0  0  0  0
   18.6017   -8.5385  -15.5143 C   0  0  2  0  0  0  0  0  0  0  0  0
   18.4848   -9.8225  -16.1381 N   0  0  0  0  0  0  0  0  0  0  0  0
   20.0089   -8.1005  -15.4458 C   0  0  0  0  0  0  0  0  0  0  0  0
   20.9182   -8.9925  -15.4305 O   0  0  0  0  0  0  0  0  0  0  0  0
   26.9039   -2.8898  -17.2550 O   0  0  0  0  0  0  0  0  0  0  0  0
   25.7425   -3.6405  -17.1179 C   0  0  0  0  0  0  0  0  0  0  0  0
   25.8288   -5.0150  -17.0776 C   0  0  0  0  0  0  0  0  0  0  0  0
   24.6767   -5.7690  -16.9413 C   0  0  0  0  0  0  0  0  0  0  0  0
   23.4217   -5.1948  -16.8420 C   0  0  0  0  0  0  0  0  0  0  0  0
   22.2784   -6.0664  -16.7025 C   0  0  0  0  0  0  0  0  0  0  0  0
   21.8236   -6.3407  -15.3025 C   0  0  2  0  0  0  0  0  0  0  0  0
   20.4357   -6.7650  -15.3953 N   0  0  0  0  0  0  0  0  0  0  0  0
   21.8769   -5.1799  -14.4127 C   0  0  0  0  0  0  0  0  0  0  0  0
   23.0081   -4.8068  -13.7266 O   0  0  0  0  0  0  0  0  0  0  0  0
   23.3400   -3.8178  -16.8829 C   0  0  0  0  0  0  0  0  0  0  0  0
   24.4864   -3.0783  -17.0181 C   0  0  0  0  0  0  0  0  0  0  0  0
   20.8433   -4.4489  -14.2356 O   0  0  0  0  0  0  0  0  0  0  0  0
  2  1  1  1
  3  2  1  0
  4  2  1  0
  4  6  1  0
  4  5  1  6
  6  7  2  0
  9  8  1  0
 10  9  1  1
 11  6  1  0
 11 10  1  0
 12 10  1  0
 12 21  1  0
 13 12  2  0
 15 14  1  0
 16 15  2  0
 17 16  1  0
 18 24  1  0
 18 17  2  0
 19 18  1  0
 20 22  1  0
 20 21  1  0
 20 19  1  6
 22 23  1  0
 24 25  2  0
 25 15  1  0
 26 22  2  0
M  END
$$$$
