TSY.pdb
     RDKit          3D

 26 26  0  0  1  0  0  0  0  0999 V2000
   21.9833  -13.1709  -15.6539 C   0  0  0  0  0  0  0  0  0  0  0  0
   23.4453  -13.4460  -15.4215 C   0  0  1  0  0  0  0  0  0  0  0  0
   23.6907  -14.7309  -14.9593 O   0  0  0  0  0  0  0  0  0  0  0  0
   24.2772  -13.2300  -16.6570 C   0  0  2  0  0  0  0  0  0  0  0  0
   25.6380  -13.5934  -16.3751 N   0  0  0  0  0  0  0  0  0  0  0  0
   24.1628  -11.8115  -17.1157 C   0  0  0  0  0  0  0  0  0  0  0  0
   24.9243  -10.9686  -16.5843 O   0  0  0  0  0  0  0  0  0  0  0  0
   20.9975  -10.3340  -19.5011 O   0  0  0  0  0  0  0  0  0  0  0  0
   22.2694   -9.8597  -19.7539 C   0  0  0  0  0  0  0  0  0  0  0  0
   23.1876  -10.0167  -18.5473 C   0  0  2  0  0  0  0  0  0  0  0  0
   23.2626  -11.3739  -18.0955 N   0  0  0  0  0  0  0  0  0  0  0  0
   22.8055   -9.1059  -17.4515 C   0  0  0  0  0  0  0  0  0  0  0  0
   22.0693   -9.5618  -16.5172 O   0  0  0  0  0  0  0  0  0  0  0  0
   21.9664   -0.8565  -13.9827 O   0  0  0  0  0  0  0  0  0  0  0  0
   22.3845   -2.0647  -14.5277 C   0  0  0  0  0  0  0  0  0  0  0  0
   22.7786   -2.1087  -15.8472 C   0  0  0  0  0  0  0  0  0  0  0  0
   23.1961   -3.3080  -16.3967 C   0  0  0  0  0  0  0  0  0  0  0  0
   23.2360   -4.4837  -15.6683 C   0  0  0  0  0  0  0  0  0  0  0  0
   23.6869   -5.6853  -16.3309 C   0  0  0  0  0  0  0  0  0  0  0  0
   22.7383   -6.8438  -16.3160 C   0  0  2  0  0  0  0  0  0  0  0  0
   23.1905   -7.7605  -17.3505 N   0  0  0  0  0  0  0  0  0  0  0  0
   21.3490   -6.4895  -16.6100 C   0  0  0  0  0  0  0  0  0  0  0  0
   20.4114   -6.2422  -15.6357 O   0  0  0  0  0  0  0  0  0  0  0  0
   22.8404   -4.4349  -14.3471 C   0  0  0  0  0  0  0  0  0  0  0  0
   22.4282   -3.2426  -13.8106 C   0  0  0  0  0  0  0  0  0  0  0  0
   20.9445   -6.3941  -17.8188 O   0  0  0  0  0  0  0  0  0  0  0  0
  2  1  1  6
  3  2  1  0
  4  2  1  0
  4  6  1  0
  4  5  1  1
  6  7  2  0
  9  8  1  0
 10  9  1  6
 11  6  1  0
 11 10  1  0
 12 10  1  0
 12 21  1  0
 13 12  2  0
 15 14  1  0
 16 15  2  0
 17 16  1  0
 18 24  1  0
 18 17  2  0
 19 18  1  0
 20 22  1  0
 20 21  1  0
 20 19  1  6
 22 23  1  0
 24 25  2  0
 25 15  1  0
 26 22  2  0
M  END
$$$$
