FCW.pdb
     RDKit          3D

 32 34  0  0  1  0  0  0  0  0999 V2000
   28.8424  -21.5294   -8.7916 N   0  0  0  0  0  0  0  0  0  0  0  0
   27.5516  -20.8959   -8.8784 C   0  0  1  0  0  0  0  0  0  0  0  0
   27.6428  -19.5025   -8.3124 C   0  0  0  0  0  0  0  0  0  0  0  0
   27.9642  -19.5069   -6.8675 C   0  0  0  0  0  0  0  0  0  0  0  0
   29.0777  -18.8475   -6.3774 C   0  0  0  0  0  0  0  0  0  0  0  0
   29.3984  -18.8422   -5.0402 C   0  0  0  0  0  0  0  0  0  0  0  0
   28.6038  -19.5088   -4.1217 C   0  0  0  0  0  0  0  0  0  0  0  0
   27.5003  -20.1649   -4.5896 C   0  0  0  0  0  0  0  0  0  0  0  0
   27.1766  -20.1682   -5.9511 C   0  0  0  0  0  0  0  0  0  0  0  0
   27.1691  -20.7970  -10.3108 C   0  0  0  0  0  0  0  0  0  0  0  0
   28.0521  -20.8380  -11.2112 O   0  0  0  0  0  0  0  0  0  0  0  0
   25.8196  -20.6539  -10.7231 N   0  0  0  0  0  0  0  0  0  0  0  0
   25.4692  -20.6858  -12.1248 C   0  0  1  0  0  0  0  0  0  0  0  0
   25.9460  -21.9411  -12.7778 C   0  0  0  0  0  0  0  0  0  0  0  0
   25.2004  -23.4398  -12.1338 S   0  0  0  0  0  0  0  0  0  0  0  0
   24.0191  -20.4135  -12.3282 C   0  0  0  0  0  0  0  0  0  0  0  0
   23.1436  -20.7061  -11.4658 O   0  0  0  0  0  0  0  0  0  0  0  0
   23.6108  -19.8015  -13.5382 N   0  0  0  0  0  0  0  0  0  0  0  0
   22.1856  -19.5863  -13.8562 C   0  0  1  0  0  0  0  0  0  0  0  0
   22.0453  -18.6789  -15.0230 C   0  0  0  0  0  0  0  0  0  0  0  0
   20.6637  -18.3404  -15.3636 C   0  0  0  0  0  0  0  0  0  0  0  0
   19.8955  -17.3559  -14.7621 C   0  0  0  0  0  0  0  0  0  0  0  0
   18.6711  -17.3582  -15.3109 N   0  0  0  0  0  0  0  0  0  0  0  0
   18.6107  -18.3172  -16.2590 C   0  0  0  0  0  0  0  0  0  0  0  0
   17.5922  -18.7067  -17.1079 C   0  0  0  0  0  0  0  0  0  0  0  0
   17.8347  -19.7190  -17.9939 C   0  0  0  0  0  0  0  0  0  0  0  0
   19.0505  -20.3350  -18.0449 C   0  0  0  0  0  0  0  0  0  0  0  0
   20.0667  -19.9645  -17.2148 C   0  0  0  0  0  0  0  0  0  0  0  0
   19.8551  -18.9367  -16.2981 C   0  0  0  0  0  0  0  0  0  0  0  0
   21.4355  -20.8314  -13.8415 C   0  0  0  0  0  0  0  0  0  0  0  0
   21.8641  -21.9080  -14.3228 O   0  0  0  0  0  0  0  0  0  0  0  0
   20.1424  -20.9326  -13.2763 O   0  0  0  0  0  0  0  0  0  0  0  0
  2  1  1  6
  3  4  1  0
  3  2  1  0
  4  9  1  0
  4  5  2  0
  5  6  1  0
  6  7  2  0
  8  7  1  0
  9  8  2  0
 10 12  1  0
 10  2  1  0
 11 10  2  0
 13 14  1  1
 13 12  1  0
 15 14  1  0
 16 13  1  0
 17 16  2  0
 18 16  1  0
 19 18  1  0
 19 20  1  6
 20 21  1  0
 21 22  2  0
 22 23  1  0
 24 25  2  0
 24 23  1  0
 26 25  1  0
 27 26  2  0
 28 27  1  0
 28 29  2  0
 29 21  1  0
 29 24  1  0
 30 32  1  0
 30 19  1  0
 31 30  2  0
M  END
$$$$
