FCW.pdb
     RDKit          3D

 32 34  0  0  1  0  0  0  0  0999 V2000
   25.6114  -18.4052  -15.5602 N   0  0  0  0  0  0  0  0  0  0  0  0
   26.2432  -19.1162  -14.4783 C   0  0  1  0  0  0  0  0  0  0  0  0
   27.5229  -18.4150  -14.1030 C   0  0  0  0  0  0  0  0  0  0  0  0
   28.5454  -18.5111  -15.1690 C   0  0  0  0  0  0  0  0  0  0  0  0
   28.8763  -17.4163  -15.9477 C   0  0  0  0  0  0  0  0  0  0  0  0
   29.8192  -17.4835  -16.9464 C   0  0  0  0  0  0  0  0  0  0  0  0
   30.4817  -18.6710  -17.2118 C   0  0  0  0  0  0  0  0  0  0  0  0
   30.1664  -19.7617  -16.4517 C   0  0  0  0  0  0  0  0  0  0  0  0
   29.2065  -19.6898  -15.4359 C   0  0  0  0  0  0  0  0  0  0  0  0
   25.3336  -19.0944  -13.3037 C   0  0  0  0  0  0  0  0  0  0  0  0
   24.3890  -18.2599  -13.2436 O   0  0  0  0  0  0  0  0  0  0  0  0
   25.4836  -19.9930  -12.2166 N   0  0  0  0  0  0  0  0  0  0  0  0
   24.5179  -20.0180  -11.1416 C   0  0  1  0  0  0  0  0  0  0  0  0
   23.1419  -20.2952  -11.6507 C   0  0  0  0  0  0  0  0  0  0  0  0
   23.0309  -21.7049  -12.7542 S   0  0  0  0  0  0  0  0  0  0  0  0
   24.9500  -20.9286  -10.0449 C   0  0  0  0  0  0  0  0  0  0  0  0
   25.2176  -22.1480  -10.2379 O   0  0  0  0  0  0  0  0  0  0  0  0
   25.0641  -20.4011   -8.7358 N   0  0  0  0  0  0  0  0  0  0  0  0
   24.9369  -21.2579   -7.5405 C   0  0  1  0  0  0  0  0  0  0  0  0
   25.3814  -20.5261   -6.3276 C   0  0  0  0  0  0  0  0  0  0  0  0
   26.6625  -19.8355   -6.4731 C   0  0  0  0  0  0  0  0  0  0  0  0
   26.9935  -18.9381   -7.4763 C   0  0  0  0  0  0  0  0  0  0  0  0
   28.2622  -18.5365   -7.3048 N   0  0  0  0  0  0  0  0  0  0  0  0
   28.7773  -19.1440   -6.2149 C   0  0  0  0  0  0  0  0  0  0  0  0
   30.0199  -19.0577   -5.6163 C   0  0  0  0  0  0  0  0  0  0  0  0
   30.2512  -19.7934   -4.4877 C   0  0  0  0  0  0  0  0  0  0  0  0
   29.2836  -20.5960   -3.9588 C   0  0  0  0  0  0  0  0  0  0  0  0
   28.0523  -20.6941   -4.5361 C   0  0  0  0  0  0  0  0  0  0  0  0
   27.7813  -19.9591   -5.6883 C   0  0  0  0  0  0  0  0  0  0  0  0
   23.6627  -21.9568   -7.5108 C   0  0  0  0  0  0  0  0  0  0  0  0
   22.6589  -21.6030   -8.1753 O   0  0  0  0  0  0  0  0  0  0  0  0
   23.4466  -23.1089   -6.7184 O   0  0  0  0  0  0  0  0  0  0  0  0
  2  1  1  6
  3  4  1  0
  3  2  1  0
  4  9  1  0
  4  5  2  0
  5  6  1  0
  6  7  2  0
  8  7  1  0
  9  8  2  0
 10 12  1  0
 10  2  1  0
 11 10  2  0
 13 14  1  6
 13 12  1  0
 15 14  1  0
 16 13  1  0
 17 16  2  0
 18 16  1  0
 19 18  1  0
 19 20  1  1
 20 21  1  0
 21 22  2  0
 22 23  1  0
 24 25  2  0
 24 23  1  0
 26 25  1  0
 27 26  2  0
 28 27  1  0
 28 29  2  0
 29 21  1  0
 29 24  1  0
 30 32  1  0
 30 19  1  0
 31 30  2  0
M  END
$$$$
