FCW.pdb
     RDKit          3D

 32 34  0  0  1  0  0  0  0  0999 V2000
   24.6111  -17.6233  -16.2093 N   0  0  0  0  0  0  0  0  0  0  0  0
   25.6111  -18.1696  -15.3278 C   0  0  1  0  0  0  0  0  0  0  0  0
   26.3147  -17.0433  -14.6160 C   0  0  0  0  0  0  0  0  0  0  0  0
   27.1287  -16.2214  -15.5396 C   0  0  0  0  0  0  0  0  0  0  0  0
   28.2120  -16.7576  -16.2131 C   0  0  0  0  0  0  0  0  0  0  0  0
   28.9851  -16.0121  -17.0718 C   0  0  0  0  0  0  0  0  0  0  0  0
   28.7009  -14.6747  -17.2958 C   0  0  0  0  0  0  0  0  0  0  0  0
   27.6342  -14.1299  -16.6382 C   0  0  0  0  0  0  0  0  0  0  0  0
   26.8493  -14.8915  -15.7651 C   0  0  0  0  0  0  0  0  0  0  0  0
   24.9338  -19.0168  -14.3123 C   0  0  0  0  0  0  0  0  0  0  0  0
   23.7042  -19.2797  -14.4182 O   0  0  0  0  0  0  0  0  0  0  0  0
   25.6255  -19.5574  -13.1983 N   0  0  0  0  0  0  0  0  0  0  0  0
   25.0217  -20.5877  -12.3843 C   0  0  1  0  0  0  0  0  0  0  0  0
   24.6155  -21.7652  -13.2075 C   0  0  0  0  0  0  0  0  0  0  0  0
   25.9668  -22.5620  -14.0771 S   0  0  0  0  0  0  0  0  0  0  0  0
   25.8835  -20.9342  -11.2199 C   0  0  0  0  0  0  0  0  0  0  0  0
   27.0246  -21.4603  -11.3500 O   0  0  0  0  0  0  0  0  0  0  0  0
   25.3998  -20.6606   -9.9175 N   0  0  0  0  0  0  0  0  0  0  0  0
   26.2048  -20.9498   -8.7145 C   0  0  1  0  0  0  0  0  0  0  0  0
   27.3194  -19.9770   -8.5896 C   0  0  0  0  0  0  0  0  0  0  0  0
   28.3184  -20.3278   -7.5805 C   0  0  0  0  0  0  0  0  0  0  0  0
   29.3806  -21.2008   -7.7564 C   0  0  0  0  0  0  0  0  0  0  0  0
   30.0615  -21.3012   -6.6047 N   0  0  0  0  0  0  0  0  0  0  0  0
   29.4779  -20.5173   -5.6734 C   0  0  0  0  0  0  0  0  0  0  0  0
   29.7995  -20.2642   -4.3534 C   0  0  0  0  0  0  0  0  0  0  0  0
   29.0177  -19.3919   -3.6489 C   0  0  0  0  0  0  0  0  0  0  0  0
   27.9440  -18.7818   -4.2278 C   0  0  0  0  0  0  0  0  0  0  0  0
   27.6115  -19.0199   -5.5285 C   0  0  0  0  0  0  0  0  0  0  0  0
   28.3855  -19.9041   -6.2771 C   0  0  0  0  0  0  0  0  0  0  0  0
   25.3677  -21.2105   -7.5550 C   0  0  0  0  0  0  0  0  0  0  0  0
   24.3340  -20.5542   -7.2810 O   0  0  0  0  0  0  0  0  0  0  0  0
   25.6544  -22.2393   -6.6270 O   0  0  0  0  0  0  0  0  0  0  0  0
  2  1  1  6
  3  4  1  0
  3  2  1  0
  4  9  1  0
  4  5  2  0
  5  6  1  0
  6  7  2  0
  8  7  1  0
  9  8  2  0
 10 12  1  0
 10  2  1  0
 11 10  2  0
 13 14  1  6
 13 12  1  0
 15 14  1  0
 16 13  1  0
 17 16  2  0
 18 16  1  0
 19 18  1  0
 19 20  1  1
 20 21  1  0
 21 22  2  0
 22 23  1  0
 24 25  2  0
 24 23  1  0
 26 25  1  0
 27 26  2  0
 28 27  1  0
 28 29  2  0
 29 21  1  0
 29 24  1  0
 30 32  1  0
 30 19  1  0
 31 30  2  0
M  END
$$$$
