FCW.pdb
     RDKit          3D

 32 34  0  0  1  0  0  0  0  0999 V2000
   28.5431  -21.6124  -17.4493 N   0  0  0  0  0  0  0  0  0  0  0  0
   28.0807  -20.5551  -16.5871 C   0  0  1  0  0  0  0  0  0  0  0  0
   26.7034  -20.1260  -17.0219 C   0  0  0  0  0  0  0  0  0  0  0  0
   26.7247  -19.4102  -18.3174 C   0  0  0  0  0  0  0  0  0  0  0  0
   26.1879  -19.9769  -19.4599 C   0  0  0  0  0  0  0  0  0  0  0  0
   26.2008  -19.3328  -20.6747 C   0  0  0  0  0  0  0  0  0  0  0  0
   26.7619  -18.0722  -20.7985 C   0  0  0  0  0  0  0  0  0  0  0  0
   27.2963  -17.4985  -19.6795 C   0  0  0  0  0  0  0  0  0  0  0  0
   27.2813  -18.1567  -18.4446 C   0  0  0  0  0  0  0  0  0  0  0  0
   27.9932  -21.0807  -15.2001 C   0  0  0  0  0  0  0  0  0  0  0  0
   27.7216  -22.2956  -14.9942 O   0  0  0  0  0  0  0  0  0  0  0  0
   28.2059  -20.2559  -14.0660 N   0  0  0  0  0  0  0  0  0  0  0  0
   28.1159  -20.8006  -12.7304 C   0  0  1  0  0  0  0  0  0  0  0  0
   29.4690  -21.0183  -12.1378 C   0  0  0  0  0  0  0  0  0  0  0  0
   30.5365  -19.5776  -12.1810 S   0  0  0  0  0  0  0  0  0  0  0  0
   27.2055  -19.9905  -11.8740 C   0  0  0  0  0  0  0  0  0  0  0  0
   26.8826  -18.8024  -12.1567 O   0  0  0  0  0  0  0  0  0  0  0  0
   26.6837  -20.5807  -10.6973 N   0  0  0  0  0  0  0  0  0  0  0  0
   25.3263  -20.2680  -10.2091 C   0  0  1  0  0  0  0  0  0  0  0  0
   24.3329  -20.4249  -11.3013 C   0  0  0  0  0  0  0  0  0  0  0  0
   22.9401  -20.2849  -10.8771 C   0  0  0  0  0  0  0  0  0  0  0  0
   22.5065  -19.9807   -9.5962 C   0  0  0  0  0  0  0  0  0  0  0  0
   21.1650  -19.9709   -9.5777 N   0  0  0  0  0  0  0  0  0  0  0  0
   20.7013  -20.2597  -10.8122 C   0  0  0  0  0  0  0  0  0  0  0  0
   19.4162  -20.3578  -11.3110 C   0  0  0  0  0  0  0  0  0  0  0  0
   19.2530  -20.6535  -12.6355 C   0  0  0  0  0  0  0  0  0  0  0  0
   20.3281  -20.8486  -13.4519 C   0  0  0  0  0  0  0  0  0  0  0  0
   21.6028  -20.7564  -12.9771 C   0  0  0  0  0  0  0  0  0  0  0  0
   21.8071  -20.4574  -11.6318 C   0  0  0  0  0  0  0  0  0  0  0  0
   25.0589  -20.8902   -8.9228 C   0  0  0  0  0  0  0  0  0  0  0  0
   25.3000  -22.0951   -8.6687 O   0  0  0  0  0  0  0  0  0  0  0  0
   24.4962  -20.1785   -7.8371 O   0  0  0  0  0  0  0  0  0  0  0  0
  2  1  1  6
  3  4  1  0
  3  2  1  0
  4  9  1  0
  4  5  2  0
  5  6  1  0
  6  7  2  0
  8  7  1  0
  9  8  2  0
 10 12  1  0
 10  2  1  0
 11 10  2  0
 13 14  1  1
 13 12  1  0
 15 14  1  0
 16 13  1  0
 17 16  2  0
 18 16  1  0
 19 18  1  0
 19 20  1  6
 20 21  1  0
 21 22  2  0
 22 23  1  0
 24 25  2  0
 24 23  1  0
 26 25  1  0
 27 26  2  0
 28 27  1  0
 28 29  2  0
 29 21  1  0
 29 24  1  0
 30 32  1  0
 30 19  1  0
 31 30  2  0
M  END
$$$$
