FCW.pdb
     RDKit          3D

 32 34  0  0  1  0  0  0  0  0999 V2000
   28.9779  -21.1207  -18.8247 N   0  0  0  0  0  0  0  0  0  0  0  0
   28.4348  -22.0227  -17.8414 C   0  0  1  0  0  0  0  0  0  0  0  0
   29.1652  -23.3384  -17.9170 C   0  0  0  0  0  0  0  0  0  0  0  0
   28.7186  -24.1596  -19.0646 C   0  0  0  0  0  0  0  0  0  0  0  0
   27.5918  -24.9584  -18.9809 C   0  0  0  0  0  0  0  0  0  0  0  0
   27.1612  -25.7331  -20.0322 C   0  0  0  0  0  0  0  0  0  0  0  0
   27.8532  -25.7408  -21.2324 C   0  0  0  0  0  0  0  0  0  0  0  0
   28.9682  -24.9573  -21.3314 C   0  0  0  0  0  0  0  0  0  0  0  0
   29.4037  -24.1699  -20.2596 C   0  0  0  0  0  0  0  0  0  0  0  0
   28.6553  -21.4397  -16.4927 C   0  0  0  0  0  0  0  0  0  0  0  0
   29.6968  -20.7703  -16.2494 O   0  0  0  0  0  0  0  0  0  0  0  0
   27.7229  -21.6069  -15.4370 N   0  0  0  0  0  0  0  0  0  0  0  0
   27.8340  -20.8283  -14.2245 C   0  0  1  0  0  0  0  0  0  0  0  0
   27.8485  -19.3640  -14.5158 C   0  0  0  0  0  0  0  0  0  0  0  0
   26.3656  -18.7546  -15.3201 S   0  0  0  0  0  0  0  0  0  0  0  0
   26.8087  -21.2339  -13.2231 C   0  0  0  0  0  0  0  0  0  0  0  0
   25.6272  -21.5439  -13.5453 O   0  0  0  0  0  0  0  0  0  0  0  0
   27.1784  -21.2722  -11.8567 N   0  0  0  0  0  0  0  0  0  0  0  0
   26.2219  -21.6700  -10.8052 C   0  0  1  0  0  0  0  0  0  0  0  0
   26.9355  -21.9532   -9.5344 C   0  0  0  0  0  0  0  0  0  0  0  0
   27.0799  -20.7966   -8.6508 C   0  0  0  0  0  0  0  0  0  0  0  0
   26.2559  -19.6822   -8.6284 C   0  0  0  0  0  0  0  0  0  0  0  0
   26.7164  -18.8143   -7.7148 N   0  0  0  0  0  0  0  0  0  0  0  0
   27.8218  -19.3261   -7.1328 C   0  0  0  0  0  0  0  0  0  0  0  0
   28.6465  -18.8365   -6.1378 C   0  0  0  0  0  0  0  0  0  0  0  0
   29.7030  -19.6032   -5.7323 C   0  0  0  0  0  0  0  0  0  0  0  0
   29.9441  -20.8236   -6.2916 C   0  0  0  0  0  0  0  0  0  0  0  0
   29.1416  -21.3222   -7.2746 C   0  0  0  0  0  0  0  0  0  0  0  0
   28.0557  -20.5677   -7.7137 C   0  0  0  0  0  0  0  0  0  0  0  0
   25.0580  -20.7995  -10.7773 C   0  0  0  0  0  0  0  0  0  0  0  0
   25.0716  -19.6063  -11.1648 O   0  0  0  0  0  0  0  0  0  0  0  0
   23.7970  -21.2324  -10.3035 O   0  0  0  0  0  0  0  0  0  0  0  0
  2  1  1  6
  3  4  1  0
  3  2  1  0
  4  9  1  0
  4  5  2  0
  5  6  1  0
  6  7  2  0
  8  7  1  0
  9  8  2  0
 10 12  1  0
 10  2  1  0
 11 10  2  0
 13 14  1  6
 13 12  1  0
 15 14  1  0
 16 13  1  0
 17 16  2  0
 18 16  1  0
 19 18  1  0
 19 20  1  1
 20 21  1  0
 21 22  2  0
 22 23  1  0
 24 25  2  0
 24 23  1  0
 26 25  1  0
 27 26  2  0
 28 27  1  0
 28 29  2  0
 29 21  1  0
 29 24  1  0
 30 32  1  0
 30 19  1  0
 31 30  2  0
M  END
$$$$
