FCW.pdb
     RDKit          3D

 32 34  0  0  1  0  0  0  0  0999 V2000
   26.4111  -18.8462  -17.3788 N   0  0  0  0  0  0  0  0  0  0  0  0
   26.3260  -18.4150  -16.0069 C   0  0  1  0  0  0  0  0  0  0  0  0
   24.9584  -17.8363  -15.7519 C   0  0  0  0  0  0  0  0  0  0  0  0
   24.7133  -16.6118  -16.5467 C   0  0  0  0  0  0  0  0  0  0  0  0
   23.7927  -16.5982  -17.5795 C   0  0  0  0  0  0  0  0  0  0  0  0
   23.5522  -15.4741  -18.3341 C   0  0  0  0  0  0  0  0  0  0  0  0
   24.2358  -14.2958  -18.0817 C   0  0  0  0  0  0  0  0  0  0  0  0
   25.1485  -14.2925  -17.0649 C   0  0  0  0  0  0  0  0  0  0  0  0
   25.3908  -15.4383  -16.2987 C   0  0  0  0  0  0  0  0  0  0  0  0
   26.5067  -19.5989  -15.1275 C   0  0  0  0  0  0  0  0  0  0  0  0
   25.9905  -20.7080  -15.4366 O   0  0  0  0  0  0  0  0  0  0  0  0
   27.2528  -19.5368  -13.9228 N   0  0  0  0  0  0  0  0  0  0  0  0
   27.3601  -20.6923  -13.0613 C   0  0  1  0  0  0  0  0  0  0  0  0
   28.7014  -21.3377  -13.1789 C   0  0  0  0  0  0  0  0  0  0  0  0
   30.0700  -20.3001  -12.6617 S   0  0  0  0  0  0  0  0  0  0  0  0
   26.9693  -20.3642  -11.6620 C   0  0  0  0  0  0  0  0  0  0  0  0
   27.6349  -19.5724  -10.9368 O   0  0  0  0  0  0  0  0  0  0  0  0
   25.8041  -20.9664  -11.1282 N   0  0  0  0  0  0  0  0  0  0  0  0
   25.6018  -21.1090   -9.6730 C   0  0  1  0  0  0  0  0  0  0  0  0
   25.2864  -19.7933   -9.0614 C   0  0  0  0  0  0  0  0  0  0  0  0
   26.4161  -19.1525   -8.3887 C   0  0  0  0  0  0  0  0  0  0  0  0
   27.2295  -18.1666   -8.9250 C   0  0  0  0  0  0  0  0  0  0  0  0
   28.1787  -17.8471   -8.0323 N   0  0  0  0  0  0  0  0  0  0  0  0
   28.0134  -18.5949   -6.9207 C   0  0  0  0  0  0  0  0  0  0  0  0
   28.7104  -18.6343   -5.7280 C   0  0  0  0  0  0  0  0  0  0  0  0
   28.2906  -19.5002   -4.7572 C   0  0  0  0  0  0  0  0  0  0  0  0
   27.2105  -20.3095   -4.9535 C   0  0  0  0  0  0  0  0  0  0  0  0
   26.5113  -20.2847   -6.1238 C   0  0  0  0  0  0  0  0  0  0  0  0
   26.9112  -19.4150   -7.1362 C   0  0  0  0  0  0  0  0  0  0  0  0
   24.7601  -22.2506   -9.3546 C   0  0  0  0  0  0  0  0  0  0  0  0
   24.5063  -23.1755  -10.1636 O   0  0  0  0  0  0  0  0  0  0  0  0
   24.1489  -22.4141   -8.0891 O   0  0  0  0  0  0  0  0  0  0  0  0
  2  1  1  6
  3  4  1  0
  3  2  1  0
  4  9  1  0
  4  5  2  0
  5  6  1  0
  6  7  2  0
  8  7  1  0
  9  8  2  0
 10 12  1  0
 10  2  1  0
 11 10  2  0
 13 14  1  1
 13 12  1  0
 15 14  1  0
 16 13  1  0
 17 16  2  0
 18 16  1  0
 19 18  1  0
 19 20  1  6
 20 21  1  0
 21 22  2  0
 22 23  1  0
 24 25  2  0
 24 23  1  0
 26 25  1  0
 27 26  2  0
 28 27  1  0
 28 29  2  0
 29 21  1  0
 29 24  1  0
 30 32  1  0
 30 19  1  0
 31 30  2  0
M  END
$$$$
