FCW.pdb
     RDKit          3D

 32 34  0  0  1  0  0  0  0  0999 V2000
   22.5238  -14.2826  -20.8913 N   0  0  0  0  0  0  0  0  0  0  0  0
   22.5528  -14.0538  -19.4694 C   0  0  1  0  0  0  0  0  0  0  0  0
   21.1702  -13.6858  -18.9970 C   0  0  0  0  0  0  0  0  0  0  0  0
   20.7311  -12.3740  -19.5237 C   0  0  0  0  0  0  0  0  0  0  0  0
   21.2029  -11.1896  -18.9857 C   0  0  0  0  0  0  0  0  0  0  0  0
   20.8053   -9.9600  -19.4555 C   0  0  0  0  0  0  0  0  0  0  0  0
   19.9026   -9.8631  -20.5020 C   0  0  0  0  0  0  0  0  0  0  0  0
   19.4271  -11.0235  -21.0445 C   0  0  0  0  0  0  0  0  0  0  0  0
   19.8339  -12.2734  -20.5641 C   0  0  0  0  0  0  0  0  0  0  0  0
   22.9593  -15.3144  -18.7962 C   0  0  0  0  0  0  0  0  0  0  0  0
   22.4431  -16.4145  -19.1363 O   0  0  0  0  0  0  0  0  0  0  0  0
   23.9271  -15.3379  -17.7596 N   0  0  0  0  0  0  0  0  0  0  0  0
   24.2799  -16.5787  -17.1078 C   0  0  1  0  0  0  0  0  0  0  0  0
   25.5334  -16.4378  -16.3088 C   0  0  0  0  0  0  0  0  0  0  0  0
   25.4265  -15.2529  -14.9666 S   0  0  0  0  0  0  0  0  0  0  0  0
   23.1322  -17.1323  -16.3366 C   0  0  0  0  0  0  0  0  0  0  0  0
   22.2836  -16.3977  -15.7569 O   0  0  0  0  0  0  0  0  0  0  0  0
   22.9910  -18.5388  -16.2535 N   0  0  0  0  0  0  0  0  0  0  0  0
   21.8112  -19.1641  -15.6244 C   0  0  1  0  0  0  0  0  0  0  0  0
   20.5606  -18.5801  -16.1715 C   0  0  0  0  0  0  0  0  0  0  0  0
   19.3375  -19.2553  -15.7385 C   0  0  0  0  0  0  0  0  0  0  0  0
   18.4990  -18.8422  -14.7150 C   0  0  0  0  0  0  0  0  0  0  0  0
   17.4992  -19.7271  -14.5826 N   0  0  0  0  0  0  0  0  0  0  0  0
   17.6547  -20.7129  -15.4916 C   0  0  0  0  0  0  0  0  0  0  0  0
   16.8968  -21.8347  -15.7689 C   0  0  0  0  0  0  0  0  0  0  0  0
   17.3013  -22.6597  -16.7810 C   0  0  0  0  0  0  0  0  0  0  0  0
   18.4252  -22.3888  -17.5046 C   0  0  0  0  0  0  0  0  0  0  0  0
   19.1855  -21.2872  -17.2448 C   0  0  0  0  0  0  0  0  0  0  0  0
   18.8039  -20.4244  -16.2196 C   0  0  0  0  0  0  0  0  0  0  0  0
   21.9389  -20.6105  -15.5565 C   0  0  0  0  0  0  0  0  0  0  0  0
   22.5521  -21.2961  -16.4099 O   0  0  0  0  0  0  0  0  0  0  0  0
   21.3738  -21.3745  -14.5082 O   0  0  0  0  0  0  0  0  0  0  0  0
  2  1  1  6
  3  4  1  0
  3  2  1  0
  4  9  1  0
  4  5  2  0
  5  6  1  0
  6  7  2  0
  8  7  1  0
  9  8  2  0
 10 12  1  0
 10  2  1  0
 11 10  2  0
 13 14  1  1
 13 12  1  0
 15 14  1  0
 16 13  1  0
 17 16  2  0
 18 16  1  0
 19 18  1  0
 19 20  1  6
 20 21  1  0
 21 22  2  0
 22 23  1  0
 24 25  2  0
 24 23  1  0
 26 25  1  0
 27 26  2  0
 28 27  1  0
 28 29  2  0
 29 21  1  0
 29 24  1  0
 30 32  1  0
 30 19  1  0
 31 30  2  0
M  END
$$$$
