IAD.pdb
     RDKit          3D

 22 21  0  0  1  0  0  0  0  0999 V2000
    6.2368  -11.2832   27.1884 C   0  0  0  0  0  0  0  0  0  0  0  0
    5.8328  -12.6216   26.6115 C   0  0  0  0  0  0  0  0  0  0  0  0
    6.9666  -13.2387   25.7923 C   0  0  2  0  0  0  0  0  0  0  0  0
    7.4284  -12.2642   24.7819 C   0  0  0  0  0  0  0  0  0  0  0  0
    6.4903  -14.5487   25.2821 C   0  0  2  0  0  0  0  0  0  0  0  0
    6.0186  -15.3277   26.4136 N   0  0  0  0  0  0  0  0  0  0  0  0
    7.4249  -15.2778   24.4288 C   0  0  0  0  0  0  0  0  0  0  0  0
    8.3513  -15.9290   24.9773 O   0  0  0  0  0  0  0  0  0  0  0  0
    8.0950  -15.7979   20.7113 C   0  0  0  0  0  0  0  0  0  0  0  0
    8.3337  -15.9923   22.1728 C   0  0  2  0  0  0  0  0  0  0  0  0
    7.3804  -15.3177   23.0093 N   0  0  0  0  0  0  0  0  0  0  0  0
    9.7361  -15.6080   22.4846 C   0  0  0  0  0  0  0  0  0  0  0  0
   10.1382  -14.4144   22.3984 O   0  0  0  0  0  0  0  0  0  0  0  0
   10.6534  -16.5870   22.8880 N   0  0  0  0  0  0  0  0  0  0  0  0
   11.9976  -16.3679   23.3606 C   0  0  1  0  0  0  0  0  0  0  0  0
   12.1557  -16.5735   24.8229 C   0  0  0  0  0  0  0  0  0  0  0  0
   11.8753  -17.9690   25.2226 C   0  0  0  0  0  0  0  0  0  0  0  0
   12.2321  -18.9308   24.5116 O   0  0  0  0  0  0  0  0  0  0  0  0
   12.9396  -17.0902   22.5031 C   0  0  0  0  0  0  0  0  0  0  0  0
   12.4749  -17.9320   21.5141 O   0  0  0  0  0  0  0  0  0  0  0  0
   11.2041  -18.2746   26.4038 O   0  0  0  0  0  0  0  0  0  0  0  0
   14.1871  -16.9608   22.6443 O   0  0  0  0  0  0  0  0  0  0  0  0
  2  3  1  0
  2  1  1  0
  3  5  1  0
  3  4  1  6
  5  6  1  1
  7  5  1  0
  8  7  2  0
 10  9  1  6
 10 12  1  0
 10 11  1  0
 11  7  1  0
 12 14  1  0
 13 12  2  0
 14 15  1  0
 15 16  1  1
 15 19  1  0
 16 17  1  0
 17 21  1  0
 17 18  2  0
 19 22  2  0
 19 20  1  0
M  END
$$$$
