IAD.pdb
     RDKit          3D

 22 21  0  0  1  0  0  0  0  0999 V2000
    5.9634  -11.5270   26.7663 C   0  0  0  0  0  0  0  0  0  0  0  0
    6.6645  -12.7540   27.3049 C   0  0  0  0  0  0  0  0  0  0  0  0
    7.5013  -13.4362   26.2224 C   0  0  2  0  0  0  0  0  0  0  0  0
    8.1242  -12.4078   25.3632 C   0  0  0  0  0  0  0  0  0  0  0  0
    6.6333  -14.4310   25.5442 C   0  0  2  0  0  0  0  0  0  0  0  0
    6.0850  -15.3150   26.5579 N   0  0  0  0  0  0  0  0  0  0  0  0
    7.2382  -15.1442   24.4223 C   0  0  0  0  0  0  0  0  0  0  0  0
    8.0511  -16.0715   24.6724 O   0  0  0  0  0  0  0  0  0  0  0  0
    7.3124  -14.9276   20.6178 C   0  0  0  0  0  0  0  0  0  0  0  0
    7.6753  -15.4962   21.9503 C   0  0  2  0  0  0  0  0  0  0  0  0
    6.9860  -14.8794   23.0494 N   0  0  0  0  0  0  0  0  0  0  0  0
    9.1534  -15.4465   22.1061 C   0  0  0  0  0  0  0  0  0  0  0  0
    9.7643  -14.3708   22.3584 O   0  0  0  0  0  0  0  0  0  0  0  0
    9.9078  -16.6194   21.9724 N   0  0  0  0  0  0  0  0  0  0  0  0
   11.3365  -16.7476   22.1155 C   0  0  1  0  0  0  0  0  0  0  0  0
   11.8750  -16.0861   23.3313 C   0  0  0  0  0  0  0  0  0  0  0  0
   13.3394  -16.2497   23.4519 C   0  0  0  0  0  0  0  0  0  0  0  0
   13.8847  -17.3579   23.2718 O   0  0  0  0  0  0  0  0  0  0  0  0
   11.7224  -18.1465   21.9189 C   0  0  0  0  0  0  0  0  0  0  0  0
   12.9839  -18.4618   21.4585 O   0  0  0  0  0  0  0  0  0  0  0  0
   14.1746  -15.1817   23.7701 O   0  0  0  0  0  0  0  0  0  0  0  0
   10.9201  -19.0892   22.1650 O   0  0  0  0  0  0  0  0  0  0  0  0
  2  3  1  0
  2  1  1  0
  3  5  1  0
  3  4  1  6
  5  6  1  1
  7  5  1  0
  8  7  2  0
 10  9  1  6
 10 12  1  0
 10 11  1  0
 11  7  1  0
 12 14  1  0
 13 12  2  0
 14 15  1  0
 15 16  1  1
 15 19  1  0
 16 17  1  0
 17 21  1  0
 17 18  2  0
 19 22  2  0
 19 20  1  0
M  END
$$$$
