IAD.pdb
     RDKit          3D

 22 21  0  0  1  0  0  0  0  0999 V2000
   12.4191  -14.0044   19.6076 C   0  0  0  0  0  0  0  0  0  0  0  0
   10.9185  -13.9607   19.7911 C   0  0  0  0  0  0  0  0  0  0  0  0
   10.1921  -14.5078   18.5621 C   0  0  2  0  0  0  0  0  0  0  0  0
   10.6449  -13.7780   17.3596 C   0  0  0  0  0  0  0  0  0  0  0  0
    8.7363  -14.4752   18.8496 C   0  0  2  0  0  0  0  0  0  0  0  0
    8.3428  -13.0879   19.0230 N   0  0  0  0  0  0  0  0  0  0  0  0
    8.2813  -15.3440   19.9319 C   0  0  0  0  0  0  0  0  0  0  0  0
    8.0550  -14.8281   21.0570 O   0  0  0  0  0  0  0  0  0  0  0  0
    6.9931  -18.8484   20.4896 C   0  0  0  0  0  0  0  0  0  0  0  0
    7.7107  -17.6097   20.9153 C   0  0  2  0  0  0  0  0  0  0  0  0
    8.0677  -16.7446   19.8255 N   0  0  0  0  0  0  0  0  0  0  0  0
    8.8847  -17.9962   21.7425 C   0  0  0  0  0  0  0  0  0  0  0  0
    8.7723  -18.7331   22.7615 O   0  0  0  0  0  0  0  0  0  0  0  0
   10.1623  -17.5383   21.3956 N   0  0  0  0  0  0  0  0  0  0  0  0
   11.3881  -17.7708   22.1179 C   0  0  1  0  0  0  0  0  0  0  0  0
   12.5191  -18.1911   21.2520 C   0  0  0  0  0  0  0  0  0  0  0  0
   12.2934  -19.5214   20.6478 C   0  0  0  0  0  0  0  0  0  0  0  0
   11.8971  -20.4858   21.3338 O   0  0  0  0  0  0  0  0  0  0  0  0
   11.6477  -16.6416   23.0136 C   0  0  0  0  0  0  0  0  0  0  0  0
   12.1234  -15.4490   22.5093 O   0  0  0  0  0  0  0  0  0  0  0  0
   12.5109  -19.7600   19.2931 O   0  0  0  0  0  0  0  0  0  0  0  0
   11.4433  -16.7293   24.2559 O   0  0  0  0  0  0  0  0  0  0  0  0
  2  3  1  0
  2  1  1  0
  3  5  1  0
  3  4  1  6
  5  6  1  1
  7  5  1  0
  8  7  2  0
 10  9  1  6
 10 12  1  0
 10 11  1  0
 11  7  1  0
 12 14  1  0
 13 12  2  0
 14 15  1  0
 15 16  1  6
 15 19  1  0
 16 17  1  0
 17 21  1  0
 17 18  2  0
 19 22  2  0
 19 20  1  0
M  END
$$$$
