IAD.pdb
     RDKit          3D

 22 21  0  0  1  0  0  0  0  0999 V2000
    7.7519  -12.0272   20.2233 C   0  0  0  0  0  0  0  0  0  0  0  0
    7.3752  -13.4423   19.8451 C   0  0  0  0  0  0  0  0  0  0  0  0
    7.9449  -14.4539   20.8398 C   0  0  2  0  0  0  0  0  0  0  0  0
    9.4055  -14.2606   20.9536 C   0  0  0  0  0  0  0  0  0  0  0  0
    7.4840  -15.8019   20.4229 C   0  0  2  0  0  0  0  0  0  0  0  0
    6.0745  -15.7108   20.0846 N   0  0  0  0  0  0  0  0  0  0  0  0
    7.7869  -16.8923   21.3462 C   0  0  0  0  0  0  0  0  0  0  0  0
    7.1381  -16.9615   22.4221 O   0  0  0  0  0  0  0  0  0  0  0  0
    9.3045  -20.2834   21.3542 C   0  0  0  0  0  0  0  0  0  0  0  0
    9.0467  -18.9806   22.0373 C   0  0  2  0  0  0  0  0  0  0  0  0
    8.7662  -17.8994   21.1340 N   0  0  0  0  0  0  0  0  0  0  0  0
   10.1861  -18.6818   22.9453 C   0  0  0  0  0  0  0  0  0  0  0  0
   10.7029  -19.5654   23.6842 O   0  0  0  0  0  0  0  0  0  0  0  0
   10.7153  -17.3857   22.9956 N   0  0  0  0  0  0  0  0  0  0  0  0
   11.7579  -16.9126   23.8717 C   0  0  1  0  0  0  0  0  0  0  0  0
   12.5790  -15.8225   23.2859 C   0  0  0  0  0  0  0  0  0  0  0  0
   13.5823  -16.3342   22.3282 C   0  0  0  0  0  0  0  0  0  0  0  0
   14.5990  -16.9437   22.7188 O   0  0  0  0  0  0  0  0  0  0  0  0
   11.1985  -16.6548   25.2003 C   0  0  0  0  0  0  0  0  0  0  0  0
    9.8337  -16.6857   25.3982 O   0  0  0  0  0  0  0  0  0  0  0  0
   13.4415  -16.1614   20.9536 O   0  0  0  0  0  0  0  0  0  0  0  0
   11.9429  -16.4025   26.1877 O   0  0  0  0  0  0  0  0  0  0  0  0
  2  3  1  0
  2  1  1  0
  3  5  1  0
  3  4  1  6
  5  6  1  1
  7  5  1  0
  8  7  2  0
 10  9  1  6
 10 12  1  0
 10 11  1  0
 11  7  1  0
 12 14  1  0
 13 12  2  0
 14 15  1  0
 15 16  1  6
 15 19  1  0
 16 17  1  0
 17 21  1  0
 17 18  2  0
 19 22  2  0
 19 20  1  0
M  END
$$$$
