IAD.pdb
     RDKit          3D

 22 21  0  0  1  0  0  0  0  0999 V2000
    7.5922  -11.4841   27.2858 C   0  0  0  0  0  0  0  0  0  0  0  0
    6.8078  -12.6722   26.7753 C   0  0  0  0  0  0  0  0  0  0  0  0
    7.6054  -13.4595   25.7353 C   0  0  2  0  0  0  0  0  0  0  0  0
    8.0784  -12.5391   24.6804 C   0  0  0  0  0  0  0  0  0  0  0  0
    6.7642  -14.5997   25.2934 C   0  0  2  0  0  0  0  0  0  0  0  0
    6.3050  -15.3054   26.4769 N   0  0  0  0  0  0  0  0  0  0  0  0
    7.3598  -15.4797   24.2913 C   0  0  0  0  0  0  0  0  0  0  0  0
    7.9977  -16.4897   24.6867 O   0  0  0  0  0  0  0  0  0  0  0  0
    7.3670  -15.9429   20.5201 C   0  0  0  0  0  0  0  0  0  0  0  0
    7.8873  -16.1510   21.9045 C   0  0  2  0  0  0  0  0  0  0  0  0
    7.2816  -15.2935   22.8850 N   0  0  0  0  0  0  0  0  0  0  0  0
    9.3695  -16.0315   21.8824 C   0  0  0  0  0  0  0  0  0  0  0  0
    9.9512  -14.9905   21.4679 O   0  0  0  0  0  0  0  0  0  0  0  0
   10.1610  -17.0966   22.3315 N   0  0  0  0  0  0  0  0  0  0  0  0
   11.5688  -17.0560   22.6388 C   0  0  1  0  0  0  0  0  0  0  0  0
   12.0049  -15.7828   23.2668 C   0  0  0  0  0  0  0  0  0  0  0  0
   13.4687  -15.7342   23.4688 C   0  0  0  0  0  0  0  0  0  0  0  0
   13.9988  -16.2229   24.4876 O   0  0  0  0  0  0  0  0  0  0  0  0
   11.9503  -18.2838   23.3399 C   0  0  0  0  0  0  0  0  0  0  0  0
   13.0532  -19.0043   22.9308 O   0  0  0  0  0  0  0  0  0  0  0  0
   14.3200  -15.1446   22.5377 O   0  0  0  0  0  0  0  0  0  0  0  0
   11.2881  -18.7084   24.3269 O   0  0  0  0  0  0  0  0  0  0  0  0
  2  3  1  0
  2  1  1  0
  3  5  1  0
  3  4  1  6
  5  6  1  1
  7  5  1  0
  8  7  2  0
 10  9  1  6
 10 12  1  0
 10 11  1  0
 11  7  1  0
 12 14  1  0
 13 12  2  0
 14 15  1  0
 15 16  1  1
 15 19  1  0
 16 17  1  0
 17 21  1  0
 17 18  2  0
 19 22  2  0
 19 20  1  0
M  END
$$$$
