IAD.pdb
     RDKit          3D

 22 21  0  0  1  0  0  0  0  0999 V2000
    6.4236  -18.7904   18.3426 C   0  0  0  0  0  0  0  0  0  0  0  0
    6.6889  -17.3347   18.6553 C   0  0  0  0  0  0  0  0  0  0  0  0
    7.2580  -17.1636   20.0640 C   0  0  2  0  0  0  0  0  0  0  0  0
    6.3571  -17.8126   21.0390 C   0  0  0  0  0  0  0  0  0  0  0  0
    7.5259  -15.7179   20.2674 C   0  0  2  0  0  0  0  0  0  0  0  0
    8.2289  -15.2215   19.0974 N   0  0  0  0  0  0  0  0  0  0  0  0
    8.1760  -15.3616   21.5258 C   0  0  0  0  0  0  0  0  0  0  0  0
    9.4040  -15.6045   21.6535 O   0  0  0  0  0  0  0  0  0  0  0  0
    7.3030  -13.6941   24.8392 C   0  0  0  0  0  0  0  0  0  0  0  0
    8.1555  -14.4896   23.9060 C   0  0  2  0  0  0  0  0  0  0  0  0
    7.5339  -14.7545   22.6383 N   0  0  0  0  0  0  0  0  0  0  0  0
    8.5912  -15.7326   24.5965 C   0  0  0  0  0  0  0  0  0  0  0  0
    7.8099  -16.7080   24.7756 O   0  0  0  0  0  0  0  0  0  0  0  0
    9.9052  -15.8428   25.0694 N   0  0  0  0  0  0  0  0  0  0  0  0
   10.5063  -16.9985   25.6868 C   0  0  1  0  0  0  0  0  0  0  0  0
   11.9618  -17.1266   25.4207 C   0  0  0  0  0  0  0  0  0  0  0  0
   12.2530  -17.2802   23.9794 C   0  0  0  0  0  0  0  0  0  0  0  0
   11.5101  -17.9537   23.2364 O   0  0  0  0  0  0  0  0  0  0  0  0
   10.1000  -17.0672   27.0921 C   0  0  0  0  0  0  0  0  0  0  0  0
   10.3555  -18.2008   27.8353 O   0  0  0  0  0  0  0  0  0  0  0  0
   13.3631  -16.6842   23.3862 O   0  0  0  0  0  0  0  0  0  0  0  0
    9.5138  -16.1006   27.6533 O   0  0  0  0  0  0  0  0  0  0  0  0
  2  3  1  0
  2  1  1  0
  3  5  1  0
  3  4  1  1
  5  6  1  6
  7  5  1  0
  8  7  2  0
 10  9  1  1
 10 12  1  0
 10 11  1  0
 11  7  1  0
 12 14  1  0
 13 12  2  0
 14 15  1  0
 15 16  1  1
 15 19  1  0
 16 17  1  0
 17 21  1  0
 17 18  2  0
 19 22  2  0
 19 20  1  0
M  END
$$$$
