IAD.pdb
     RDKit          3D

 22 21  0  0  1  0  0  0  0  0999 V2000
    7.5309  -11.9021   27.7653 C   0  0  0  0  0  0  0  0  0  0  0  0
    6.7211  -13.0145   27.1375 C   0  0  0  0  0  0  0  0  0  0  0  0
    7.4673  -13.6518   25.9651 C   0  0  2  0  0  0  0  0  0  0  0  0
    7.9388  -12.5920   25.0495 C   0  0  0  0  0  0  0  0  0  0  0  0
    6.5817  -14.6892   25.3798 C   0  0  2  0  0  0  0  0  0  0  0  0
    6.1968  -15.6032   26.4410 N   0  0  0  0  0  0  0  0  0  0  0  0
    7.0935  -15.3669   24.1915 C   0  0  0  0  0  0  0  0  0  0  0  0
    7.4174  -16.5789   24.2880 O   0  0  0  0  0  0  0  0  0  0  0  0
    7.4763  -14.6668   20.4714 C   0  0  0  0  0  0  0  0  0  0  0  0
    7.6477  -15.4682   21.7199 C   0  0  2  0  0  0  0  0  0  0  0  0
    7.2612  -14.7688   22.9137 N   0  0  0  0  0  0  0  0  0  0  0  0
    9.0474  -15.9669   21.7811 C   0  0  0  0  0  0  0  0  0  0  0  0
    9.5765  -16.5958   20.8228 O   0  0  0  0  0  0  0  0  0  0  0  0
    9.8178  -15.7413   22.9292 N   0  0  0  0  0  0  0  0  0  0  0  0
   11.1807  -16.1561   23.1492 C   0  0  1  0  0  0  0  0  0  0  0  0
   12.1661  -15.0512   23.0303 C   0  0  0  0  0  0  0  0  0  0  0  0
   13.5584  -15.5300   23.1647 C   0  0  0  0  0  0  0  0  0  0  0  0
   14.2213  -15.8828   22.1678 O   0  0  0  0  0  0  0  0  0  0  0  0
   11.2551  -16.9564   24.3734 C   0  0  0  0  0  0  0  0  0  0  0  0
   10.2085  -16.9517   25.2720 O   0  0  0  0  0  0  0  0  0  0  0  0
   14.1922  -15.6095   24.4022 O   0  0  0  0  0  0  0  0  0  0  0  0
   12.2668  -17.6646   24.6336 O   0  0  0  0  0  0  0  0  0  0  0  0
  2  3  1  0
  2  1  1  0
  3  5  1  0
  3  4  1  6
  5  6  1  1
  7  5  1  0
  8  7  2  0
 10  9  1  6
 10 12  1  0
 10 11  1  0
 11  7  1  0
 12 14  1  0
 13 12  2  0
 14 15  1  0
 15 16  1  1
 15 19  1  0
 16 17  1  0
 17 21  1  0
 17 18  2  0
 19 22  2  0
 19 20  1  0
M  END
$$$$
