IAD.pdb
     RDKit          3D

 22 21  0  0  1  0  0  0  0  0999 V2000
    6.0900  -11.2124   27.2183 C   0  0  0  0  0  0  0  0  0  0  0  0
    5.7149  -12.5485   26.6171 C   0  0  0  0  0  0  0  0  0  0  0  0
    6.9066  -13.1937   25.9093 C   0  0  2  0  0  0  0  0  0  0  0  0
    7.4930  -12.2280   24.9568 C   0  0  0  0  0  0  0  0  0  0  0  0
    6.4470  -14.4873   25.3448 C   0  0  2  0  0  0  0  0  0  0  0  0
    5.9486  -15.3035   26.4380 N   0  0  0  0  0  0  0  0  0  0  0  0
    7.4050  -15.1865   24.4925 C   0  0  0  0  0  0  0  0  0  0  0  0
    8.1751  -16.0275   25.0243 O   0  0  0  0  0  0  0  0  0  0  0  0
    8.4416  -15.2858   20.8245 C   0  0  0  0  0  0  0  0  0  0  0  0
    8.4261  -15.7538   22.2427 C   0  0  2  0  0  0  0  0  0  0  0  0
    7.5474  -14.9981   23.0915 N   0  0  0  0  0  0  0  0  0  0  0  0
    9.8228  -15.7836   22.7529 C   0  0  0  0  0  0  0  0  0  0  0  0
   10.4252  -14.7355   23.1168 O   0  0  0  0  0  0  0  0  0  0  0  0
   10.5069  -17.0030   22.8393 N   0  0  0  0  0  0  0  0  0  0  0  0
   11.8571  -17.2042   23.3026 C   0  0  1  0  0  0  0  0  0  0  0  0
   12.0433  -18.4646   24.0658 C   0  0  0  0  0  0  0  0  0  0  0  0
   11.2896  -18.4621   25.3376 C   0  0  0  0  0  0  0  0  0  0  0  0
   11.4576  -17.5647   26.1886 O   0  0  0  0  0  0  0  0  0  0  0  0
   12.7907  -16.9765   22.1976 C   0  0  0  0  0  0  0  0  0  0  0  0
   12.3470  -17.0198   20.8922 O   0  0  0  0  0  0  0  0  0  0  0  0
   10.3622  -19.4547   25.6444 O   0  0  0  0  0  0  0  0  0  0  0  0
   14.0113  -16.7354   22.4092 O   0  0  0  0  0  0  0  0  0  0  0  0
  2  3  1  0
  2  1  1  0
  3  5  1  0
  3  4  1  6
  5  6  1  1
  7  5  1  0
  8  7  2  0
 10  9  1  6
 10 12  1  0
 10 11  1  0
 11  7  1  0
 12 14  1  0
 13 12  2  0
 14 15  1  0
 15 16  1  6
 15 19  1  0
 16 17  1  0
 17 21  1  0
 17 18  2  0
 19 22  2  0
 19 20  1  0
M  END
$$$$
