IAD.pdb
     RDKit          3D

 22 21  0  0  1  0  0  0  0  0999 V2000
    7.7012  -11.4051   27.2884 C   0  0  0  0  0  0  0  0  0  0  0  0
    6.7512  -12.4152   26.6845 C   0  0  0  0  0  0  0  0  0  0  0  0
    7.5094  -13.5862   26.0588 C   0  0  2  0  0  0  0  0  0  0  0  0
    8.5354  -13.0665   25.1310 C   0  0  0  0  0  0  0  0  0  0  0  0
    6.5048  -14.5159   25.4846 C   0  0  2  0  0  0  0  0  0  0  0  0
    5.5257  -14.8130   26.5154 N   0  0  0  0  0  0  0  0  0  0  0  0
    7.0399  -15.7098   24.8353 C   0  0  0  0  0  0  0  0  0  0  0  0
    7.2529  -16.7292   25.5416 O   0  0  0  0  0  0  0  0  0  0  0  0
    7.6507  -16.9772   21.3079 C   0  0  0  0  0  0  0  0  0  0  0  0
    7.7562  -17.0351   22.7966 C   0  0  2  0  0  0  0  0  0  0  0  0
    7.3467  -15.8246   23.4529 N   0  0  0  0  0  0  0  0  0  0  0  0
    9.1389  -17.4412   23.1637 C   0  0  0  0  0  0  0  0  0  0  0  0
    9.6543  -18.5155   22.7465 O   0  0  0  0  0  0  0  0  0  0  0  0
    9.9084  -16.6190   23.9970 N   0  0  0  0  0  0  0  0  0  0  0  0
   11.2088  -16.9182   24.5423 C   0  0  1  0  0  0  0  0  0  0  0  0
   12.2399  -15.9000   24.2166 C   0  0  0  0  0  0  0  0  0  0  0  0
   12.8644  -16.1418   22.8986 C   0  0  0  0  0  0  0  0  0  0  0  0
   12.5280  -17.1131   22.1906 O   0  0  0  0  0  0  0  0  0  0  0  0
   11.0749  -17.2692   25.9578 C   0  0  0  0  0  0  0  0  0  0  0  0
   12.0886  -17.9438   26.6059 O   0  0  0  0  0  0  0  0  0  0  0  0
   13.8514  -15.3026   22.3878 O   0  0  0  0  0  0  0  0  0  0  0  0
   10.0407  -16.9649   26.6140 O   0  0  0  0  0  0  0  0  0  0  0  0
  2  3  1  0
  2  1  1  0
  3  5  1  0
  3  4  1  6
  5  6  1  1
  7  5  1  0
  8  7  2  0
 10  9  1  6
 10 12  1  0
 10 11  1  0
 11  7  1  0
 12 14  1  0
 13 12  2  0
 14 15  1  0
 15 16  1  1
 15 19  1  0
 16 17  1  0
 17 21  1  0
 17 18  2  0
 19 22  2  0
 19 20  1  0
M  END
$$$$
