IAD.pdb
     RDKit          3D

 22 21  0  0  1  0  0  0  0  0999 V2000
    7.2901  -12.0674   28.0216 C   0  0  0  0  0  0  0  0  0  0  0  0
    6.4175  -12.9599   27.1675 C   0  0  0  0  0  0  0  0  0  0  0  0
    7.2462  -13.7222   26.1333 C   0  0  2  0  0  0  0  0  0  0  0  0
    8.1283  -12.7766   25.4181 C   0  0  0  0  0  0  0  0  0  0  0  0
    6.3067  -14.5134   25.3000 C   0  0  2  0  0  0  0  0  0  0  0  0
    5.5192  -15.3541   26.1847 N   0  0  0  0  0  0  0  0  0  0  0  0
    6.9048  -15.2469   24.1876 C   0  0  0  0  0  0  0  0  0  0  0  0
    7.0325  -16.4942   24.2944 O   0  0  0  0  0  0  0  0  0  0  0  0
    8.0436  -14.5453   20.6196 C   0  0  0  0  0  0  0  0  0  0  0  0
    7.7725  -15.4042   21.8110 C   0  0  2  0  0  0  0  0  0  0  0  0
    7.3635  -14.6673   22.9743 N   0  0  0  0  0  0  0  0  0  0  0  0
    8.9634  -16.2572   22.0678 C   0  0  0  0  0  0  0  0  0  0  0  0
    9.4703  -16.9869   21.1709 O   0  0  0  0  0  0  0  0  0  0  0  0
    9.5544  -16.2641   23.3379 N   0  0  0  0  0  0  0  0  0  0  0  0
   10.5063  -17.2224   23.8417 C   0  0  1  0  0  0  0  0  0  0  0  0
   11.7784  -17.2573   23.0760 C   0  0  0  0  0  0  0  0  0  0  0  0
   12.5208  -15.9824   23.1712 C   0  0  0  0  0  0  0  0  0  0  0  0
   12.1255  -15.0558   23.9081 O   0  0  0  0  0  0  0  0  0  0  0  0
   10.6319  -17.0681   25.2926 C   0  0  0  0  0  0  0  0  0  0  0  0
   11.1927  -18.0733   26.0528 O   0  0  0  0  0  0  0  0  0  0  0  0
   13.6891  -15.7563   22.4478 O   0  0  0  0  0  0  0  0  0  0  0  0
   10.2364  -16.0222   25.8777 O   0  0  0  0  0  0  0  0  0  0  0  0
  2  3  1  0
  2  1  1  0
  3  5  1  0
  3  4  1  6
  5  6  1  1
  7  5  1  0
  8  7  2  0
 10  9  1  6
 10 12  1  0
 10 11  1  0
 11  7  1  0
 12 14  1  0
 13 12  2  0
 14 15  1  0
 15 16  1  6
 15 19  1  0
 16 17  1  0
 17 21  1  0
 17 18  2  0
 19 22  2  0
 19 20  1  0
M  END
$$$$
