IAD.pdb
     RDKit          3D

 22 21  0  0  1  0  0  0  0  0999 V2000
    8.0010  -12.1560   20.6982 C   0  0  0  0  0  0  0  0  0  0  0  0
    7.9176  -13.5716   20.1721 C   0  0  0  0  0  0  0  0  0  0  0  0
    8.7394  -13.7388   18.8939 C   0  0  2  0  0  0  0  0  0  0  0  0
    8.2070  -12.8414   17.8475 C   0  0  0  0  0  0  0  0  0  0  0  0
    8.7768  -15.1870   18.5704 C   0  0  2  0  0  0  0  0  0  0  0  0
    7.4502  -15.5847   18.1329 N   0  0  0  0  0  0  0  0  0  0  0  0
    9.3281  -16.0568   19.6062 C   0  0  0  0  0  0  0  0  0  0  0  0
    8.5473  -16.5124   20.4815 O   0  0  0  0  0  0  0  0  0  0  0  0
   10.7229  -18.7811   20.4535 C   0  0  0  0  0  0  0  0  0  0  0  0
   11.2089  -17.3850   20.6665 C   0  0  2  0  0  0  0  0  0  0  0  0
   10.6915  -16.4411   19.7152 N   0  0  0  0  0  0  0  0  0  0  0  0
   12.6955  -17.3958   20.7059 C   0  0  0  0  0  0  0  0  0  0  0  0
   13.3941  -17.2071   19.6714 O   0  0  0  0  0  0  0  0  0  0  0  0
   13.3585  -17.6206   21.9194 N   0  0  0  0  0  0  0  0  0  0  0  0
   14.7840  -17.6427   22.1328 C   0  0  1  0  0  0  0  0  0  0  0  0
   15.2065  -16.9957   23.4011 C   0  0  0  0  0  0  0  0  0  0  0  0
   15.8861  -15.7037   23.1676 C   0  0  0  0  0  0  0  0  0  0  0  0
   15.4411  -14.8767   22.3455 O   0  0  0  0  0  0  0  0  0  0  0  0
   15.2907  -18.9970   21.9007 C   0  0  0  0  0  0  0  0  0  0  0  0
   16.5923  -19.1913   21.4875 O   0  0  0  0  0  0  0  0  0  0  0  0
   17.0477  -15.3503   23.8497 O   0  0  0  0  0  0  0  0  0  0  0  0
   14.5578  -20.0100   22.0728 O   0  0  0  0  0  0  0  0  0  0  0  0
  2  3  1  0
  2  1  1  0
  3  5  1  0
  3  4  1  6
  5  6  1  1
  7  5  1  0
  8  7  2  0
 10  9  1  6
 10 12  1  0
 10 11  1  0
 11  7  1  0
 12 14  1  0
 13 12  2  0
 14 15  1  0
 15 16  1  1
 15 19  1  0
 16 17  1  0
 17 21  1  0
 17 18  2  0
 19 22  2  0
 19 20  1  0
M  END
$$$$
