IAD.pdb
     RDKit          3D

 22 21  0  0  1  0  0  0  0  0999 V2000
    7.2732  -12.0033   27.4667 C   0  0  0  0  0  0  0  0  0  0  0  0
    6.5227  -13.0580   26.6845 C   0  0  0  0  0  0  0  0  0  0  0  0
    7.4816  -13.9657   25.9138 C   0  0  2  0  0  0  0  0  0  0  0  0
    8.4189  -13.1354   25.1291 C   0  0  0  0  0  0  0  0  0  0  0  0
    6.6620  -14.9415   25.1528 C   0  0  2  0  0  0  0  0  0  0  0  0
    5.7174  -15.5503   26.0730 N   0  0  0  0  0  0  0  0  0  0  0  0
    7.4060  -15.9168   24.3600 C   0  0  0  0  0  0  0  0  0  0  0  0
    7.6954  -17.0210   24.8895 O   0  0  0  0  0  0  0  0  0  0  0  0
    8.4925  -16.3769   20.7462 C   0  0  0  0  0  0  0  0  0  0  0  0
    8.4330  -16.7402   22.1936 C   0  0  2  0  0  0  0  0  0  0  0  0
    7.8396  -15.7264   23.0205 N   0  0  0  0  0  0  0  0  0  0  0  0
    9.7971  -17.1190   22.6491 C   0  0  0  0  0  0  0  0  0  0  0  0
   10.4104  -18.1137   22.1713 O   0  0  0  0  0  0  0  0  0  0  0  0
   10.4371  -16.3604   23.6379 N   0  0  0  0  0  0  0  0  0  0  0  0
   11.7111  -16.6409   24.2513 C   0  0  1  0  0  0  0  0  0  0  0  0
   12.7323  -15.5897   24.0107 C   0  0  0  0  0  0  0  0  0  0  0  0
   13.6443  -15.9427   22.9019 C   0  0  0  0  0  0  0  0  0  0  0  0
   13.5098  -17.0086   22.2667 O   0  0  0  0  0  0  0  0  0  0  0  0
   11.5045  -17.0305   25.6478 C   0  0  0  0  0  0  0  0  0  0  0  0
   12.1770  -18.1136   26.1744 O   0  0  0  0  0  0  0  0  0  0  0  0
   14.6900  -15.1078   22.5161 O   0  0  0  0  0  0  0  0  0  0  0  0
   10.7159  -16.3909   26.3974 O   0  0  0  0  0  0  0  0  0  0  0  0
  2  3  1  0
  2  1  1  0
  3  5  1  0
  3  4  1  6
  5  6  1  1
  7  5  1  0
  8  7  2  0
 10  9  1  6
 10 12  1  0
 10 11  1  0
 11  7  1  0
 12 14  1  0
 13 12  2  0
 14 15  1  0
 15 16  1  1
 15 19  1  0
 16 17  1  0
 17 21  1  0
 17 18  2  0
 19 22  2  0
 19 20  1  0
M  END
$$$$
