IAD.pdb
     RDKit          3D

 22 21  0  0  1  0  0  0  0  0999 V2000
    8.3425  -11.8571   19.5470 C   0  0  0  0  0  0  0  0  0  0  0  0
    7.7251  -12.9587   20.3793 C   0  0  0  0  0  0  0  0  0  0  0  0
    8.0504  -14.3379   19.8053 C   0  0  2  0  0  0  0  0  0  0  0  0
    7.4527  -14.4624   18.4596 C   0  0  0  0  0  0  0  0  0  0  0  0
    7.6404  -15.3505   20.8101 C   0  0  2  0  0  0  0  0  0  0  0  0
    6.1894  -15.3602   20.8730 N   0  0  0  0  0  0  0  0  0  0  0  0
    8.2744  -15.2396   22.1212 C   0  0  0  0  0  0  0  0  0  0  0  0
    7.7663  -14.4578   22.9662 O   0  0  0  0  0  0  0  0  0  0  0  0
    9.1157  -16.0686   24.9649 C   0  0  0  0  0  0  0  0  0  0  0  0
   10.0533  -15.8352   23.8261 C   0  0  2  0  0  0  0  0  0  0  0  0
    9.4342  -15.9482   22.5347 N   0  0  0  0  0  0  0  0  0  0  0  0
   11.2244  -16.7395   23.9764 C   0  0  0  0  0  0  0  0  0  0  0  0
   11.1003  -17.9954   24.0119 O   0  0  0  0  0  0  0  0  0  0  0  0
   12.5125  -16.1992   24.0831 N   0  0  0  0  0  0  0  0  0  0  0  0
   13.7469  -16.9313   24.2186 C   0  0  1  0  0  0  0  0  0  0  0  0
   14.9583  -16.1053   23.9821 C   0  0  0  0  0  0  0  0  0  0  0  0
   15.0235  -15.5967   22.5954 C   0  0  0  0  0  0  0  0  0  0  0  0
   15.4551  -14.4528   22.3445 O   0  0  0  0  0  0  0  0  0  0  0  0
   13.7242  -17.6988   25.4656 C   0  0  0  0  0  0  0  0  0  0  0  0
   13.0834  -17.1971   26.5794 O   0  0  0  0  0  0  0  0  0  0  0  0
   14.6090  -16.3650   21.5104 O   0  0  0  0  0  0  0  0  0  0  0  0
   14.2825  -18.8274   25.5515 O   0  0  0  0  0  0  0  0  0  0  0  0
  2  3  1  0
  2  1  1  0
  3  5  1  0
  3  4  1  6
  5  6  1  1
  7  5  1  0
  8  7  2  0
 10  9  1  1
 10 12  1  0
 10 11  1  0
 11  7  1  0
 12 14  1  0
 13 12  2  0
 14 15  1  0
 15 16  1  1
 15 19  1  0
 16 17  1  0
 17 21  1  0
 17 18  2  0
 19 22  2  0
 19 20  1  0
M  END
$$$$
