IAD.pdb
     RDKit          3D

 22 21  0  0  1  0  0  0  0  0999 V2000
    6.6189  -10.5461   27.1627 C   0  0  0  0  0  0  0  0  0  0  0  0
    7.2637  -11.9140   27.1873 C   0  0  0  0  0  0  0  0  0  0  0  0
    6.6540  -12.8350   26.1303 C   0  0  2  0  0  0  0  0  0  0  0  0
    5.2075  -12.9897   26.3900 C   0  0  0  0  0  0  0  0  0  0  0  0
    7.4603  -14.0808   26.1013 C   0  0  2  0  0  0  0  0  0  0  0  0
    8.7778  -13.7765   26.6317 N   0  0  0  0  0  0  0  0  0  0  0  0
    7.5013  -14.7833   24.8215 C   0  0  0  0  0  0  0  0  0  0  0  0
    6.7299  -15.7631   24.6529 O   0  0  0  0  0  0  0  0  0  0  0  0
    8.4785  -14.2631   21.2875 C   0  0  0  0  0  0  0  0  0  0  0  0
    8.3976  -15.1585   22.4802 C   0  0  2  0  0  0  0  0  0  0  0  0
    8.3496  -14.4532   23.7307 N   0  0  0  0  0  0  0  0  0  0  0  0
    9.5161  -16.1369   22.4217 C   0  0  0  0  0  0  0  0  0  0  0  0
    9.7431  -16.8337   21.3937 O   0  0  0  0  0  0  0  0  0  0  0  0
   10.3542  -16.3040   23.5318 N   0  0  0  0  0  0  0  0  0  0  0  0
   11.4589  -17.2227   23.6486 C   0  0  1  0  0  0  0  0  0  0  0  0
   12.7752  -16.5540   23.8097 C   0  0  0  0  0  0  0  0  0  0  0  0
   13.4259  -16.2850   22.5098 C   0  0  0  0  0  0  0  0  0  0  0  0
   12.8539  -16.5478   21.4321 O   0  0  0  0  0  0  0  0  0  0  0  0
   11.1342  -18.2522   24.6382 C   0  0  0  0  0  0  0  0  0  0  0  0
   11.7081  -19.5037   24.5537 O   0  0  0  0  0  0  0  0  0  0  0  0
   14.7001  -15.7291   22.4267 O   0  0  0  0  0  0  0  0  0  0  0  0
   10.3311  -18.0226   25.5843 O   0  0  0  0  0  0  0  0  0  0  0  0
  2  3  1  0
  2  1  1  0
  3  5  1  0
  3  4  1  1
  5  6  1  6
  7  5  1  0
  8  7  2  0
 10  9  1  6
 10 12  1  0
 10 11  1  0
 11  7  1  0
 12 14  1  0
 13 12  2  0
 14 15  1  0
 15 16  1  1
 15 19  1  0
 16 17  1  0
 17 21  1  0
 17 18  2  0
 19 22  2  0
 19 20  1  0
M  END
$$$$
