IAD.pdb
     RDKit          3D

 22 21  0  0  1  0  0  0  0  0999 V2000
    6.7255  -11.1608   26.9540 C   0  0  0  0  0  0  0  0  0  0  0  0
    6.1202  -12.4489   26.4424 C   0  0  0  0  0  0  0  0  0  0  0  0
    7.1825  -13.3507   25.8132 C   0  0  2  0  0  0  0  0  0  0  0  0
    7.8900  -12.6070   24.7502 C   0  0  0  0  0  0  0  0  0  0  0  0
    6.5166  -14.6142   25.4091 C   0  0  2  0  0  0  0  0  0  0  0  0
    5.6324  -15.0216   26.4870 N   0  0  0  0  0  0  0  0  0  0  0  0
    7.4016  -15.6829   24.9532 C   0  0  0  0  0  0  0  0  0  0  0  0
    8.0566  -16.3245   25.8149 O   0  0  0  0  0  0  0  0  0  0  0  0
    8.0296  -17.7069   21.8248 C   0  0  0  0  0  0  0  0  0  0  0  0
    8.4142  -17.1631   23.1616 C   0  0  2  0  0  0  0  0  0  0  0  0
    7.5921  -16.0694   23.5994 N   0  0  0  0  0  0  0  0  0  0  0  0
    9.8598  -16.8145   23.1395 C   0  0  0  0  0  0  0  0  0  0  0  0
   10.3532  -16.0606   22.2552 O   0  0  0  0  0  0  0  0  0  0  0  0
   10.7155  -17.3291   24.1220 N   0  0  0  0  0  0  0  0  0  0  0  0
   12.1522  -17.4240   24.0515 C   0  0  1  0  0  0  0  0  0  0  0  0
   12.8460  -16.1289   24.2683 C   0  0  0  0  0  0  0  0  0  0  0  0
   13.7584  -15.7927   23.1547 C   0  0  0  0  0  0  0  0  0  0  0  0
   13.9050  -16.5615   22.1825 O   0  0  0  0  0  0  0  0  0  0  0  0
   12.6078  -18.5448   24.8768 C   0  0  0  0  0  0  0  0  0  0  0  0
   11.8846  -18.9305   25.9862 O   0  0  0  0  0  0  0  0  0  0  0  0
   14.4930  -14.6097   23.1379 O   0  0  0  0  0  0  0  0  0  0  0  0
   13.6612  -19.1805   24.5958 O   0  0  0  0  0  0  0  0  0  0  0  0
  2  3  1  0
  2  1  1  0
  3  5  1  0
  3  4  1  6
  5  6  1  1
  7  5  1  0
  8  7  2  0
 10  9  1  6
 10 12  1  0
 10 11  1  0
 11  7  1  0
 12 14  1  0
 13 12  2  0
 14 15  1  0
 15 16  1  1
 15 19  1  0
 16 17  1  0
 17 21  1  0
 17 18  2  0
 19 22  2  0
 19 20  1  0
M  END
$$$$
