ENP.pdb
     RDKit          3D

 25 25  0  0  1  0  0  0  0  0999 V2000
    9.2870  -14.9980   20.2170 N   0  0  0  0  0  0  0  0  0  0  0  0
    8.4164  -13.9404   20.5316 C   0  0  1  0  0  0  0  0  0  0  0  0
    7.4665  -13.6038   19.4326 C   0  0  0  0  0  0  0  0  0  0  0  0
    8.1280  -13.1437   18.1864 C   0  0  0  0  0  0  0  0  0  0  0  0
    8.7827  -14.2042   17.4330 C   0  0  0  0  0  0  0  0  0  0  0  0
    9.8772  -14.1544   16.8741 O   0  0  0  0  0  0  0  0  0  0  0  0
    7.6740  -14.1275   21.8338 C   0  0  0  0  0  0  0  0  0  0  0  0
    6.8972  -13.2081   22.1501 O   0  0  0  0  0  0  0  0  0  0  0  0
    8.0963  -15.4390   17.3219 O   0  0  0  0  0  0  0  0  0  0  0  0
    5.5120  -17.0596   22.4670 N   0  0  0  0  0  0  0  0  0  0  0  0
    6.3094  -17.6867   23.4558 C   0  0  0  0  0  0  0  0  0  0  0  0
    6.1986  -18.9233   23.6068 O   0  0  0  0  0  0  0  0  0  0  0  0
    7.2236  -16.8833   24.2586 C   0  0  0  0  0  0  0  0  0  0  0  0
    7.2084  -15.3957   23.9198 C   0  0  2  0  0  0  0  0  0  0  0  0
    7.8452  -15.2701   22.6465 N   0  0  0  0  0  0  0  0  0  0  0  0
    7.9922  -14.7024   24.9613 C   0  0  0  0  0  0  0  0  0  0  0  0
    9.2253  -15.0833   25.0947 O   0  0  0  0  0  0  0  0  0  0  0  0
    7.5680  -13.6781   25.8286 N   0  0  0  0  0  0  0  0  0  0  0  0
    6.3339  -12.9327   25.8908 C   0  0  0  0  0  0  0  0  0  0  0  0
    6.2823  -12.2759   27.2731 C   0  0  0  0  0  0  0  0  0  0  0  0
    7.7514  -12.1109   27.6269 C   0  0  0  0  0  0  0  0  0  0  0  0
    8.4700  -13.1962   26.9013 C   0  0  1  0  0  0  0  0  0  0  0  0
    8.7754  -14.3326   27.8195 C   0  0  0  0  0  0  0  0  0  0  0  0
    8.1220  -15.3816   27.7201 O   0  0  0  0  0  0  0  0  0  0  0  0
    9.7814  -14.2119   28.7719 O   0  0  0  0  0  0  0  0  0  0  0  0
  2  1  1  6
  2  7  1  0
  2  3  1  0
  3  4  1  0
  5  6  2  0
  5  4  1  0
  7 15  1  0
  7  8  2  0
  9  5  1  0
 11 10  1  0
 12 11  2  0
 13 11  1  0
 14 13  1  1
 15 14  1  0
 16 14  1  0
 17 16  2  0
 18 16  1  0
 18 19  1  0
 20 19  1  0
 21 22  1  0
 21 20  1  0
 22 23  1  1
 22 18  1  0
 23 25  1  0
 24 23  2  0
M  END
$$$$
