ENP.pdb
     RDKit          3D

 25 25  0  0  1  0  0  0  0  0999 V2000
    9.6446  -17.0201   20.7212 N   0  0  0  0  0  0  0  0  0  0  0  0
    9.0372  -15.7639   20.5527 C   0  0  1  0  0  0  0  0  0  0  0  0
    8.2808  -15.6349   19.2742 C   0  0  0  0  0  0  0  0  0  0  0  0
    8.8237  -16.4624   18.1684 C   0  0  0  0  0  0  0  0  0  0  0  0
    7.9872  -16.4869   16.9766 C   0  0  0  0  0  0  0  0  0  0  0  0
    7.7265  -15.5448   16.2300 O   0  0  0  0  0  0  0  0  0  0  0  0
    8.1785  -15.3393   21.7206 C   0  0  0  0  0  0  0  0  0  0  0  0
    7.6372  -14.2236   21.6162 O   0  0  0  0  0  0  0  0  0  0  0  0
    7.4003  -17.7271   16.6221 O   0  0  0  0  0  0  0  0  0  0  0  0
    5.6520  -17.5445   22.5101 N   0  0  0  0  0  0  0  0  0  0  0  0
    5.9355  -17.8999   23.8517 C   0  0  0  0  0  0  0  0  0  0  0  0
    5.4727  -18.9770   24.2876 O   0  0  0  0  0  0  0  0  0  0  0  0
    6.7474  -17.0118   24.6751 C   0  0  0  0  0  0  0  0  0  0  0  0
    7.1896  -15.7351   23.9661 C   0  0  2  0  0  0  0  0  0  0  0  0
    7.9968  -16.1510   22.8624 N   0  0  0  0  0  0  0  0  0  0  0  0
    7.9919  -14.9558   24.9297 C   0  0  0  0  0  0  0  0  0  0  0  0
    9.1821  -15.4086   25.1781 O   0  0  0  0  0  0  0  0  0  0  0  0
    7.6262  -13.7809   25.6133 N   0  0  0  0  0  0  0  0  0  0  0  0
    6.4431  -12.9589   25.5292 C   0  0  0  0  0  0  0  0  0  0  0  0
    6.4191  -12.0869   26.7877 C   0  0  0  0  0  0  0  0  0  0  0  0
    7.8919  -11.9602   27.1424 C   0  0  0  0  0  0  0  0  0  0  0  0
    8.5457  -13.1910   26.6148 C   0  0  1  0  0  0  0  0  0  0  0  0
    8.7655  -14.1823   27.7087 C   0  0  0  0  0  0  0  0  0  0  0  0
    8.0370  -15.1836   27.7716 O   0  0  0  0  0  0  0  0  0  0  0  0
    9.7762  -13.9815   28.6424 O   0  0  0  0  0  0  0  0  0  0  0  0
  2  1  1  1
  2  7  1  0
  2  3  1  0
  3  4  1  0
  5  6  2  0
  5  4  1  0
  7 15  1  0
  7  8  2  0
  9  5  1  0
 11 10  1  0
 12 11  2  0
 13 11  1  0
 14 13  1  1
 15 14  1  0
 16 14  1  0
 17 16  2  0
 18 16  1  0
 18 19  1  0
 20 19  1  0
 21 22  1  0
 21 20  1  0
 22 23  1  1
 22 18  1  0
 23 25  1  0
 24 23  2  0
M  END
$$$$
