ENP.pdb
     RDKit          3D

 25 25  0  0  1  0  0  0  0  0999 V2000
   10.4627  -17.1915   20.4696 N   0  0  0  0  0  0  0  0  0  0  0  0
   10.5991  -17.1203   21.8667 C   0  0  1  0  0  0  0  0  0  0  0  0
   11.9358  -16.6308   22.3104 C   0  0  0  0  0  0  0  0  0  0  0  0
   12.8980  -16.4209   21.2003 C   0  0  0  0  0  0  0  0  0  0  0  0
   14.2924  -16.6040   21.5780 C   0  0  0  0  0  0  0  0  0  0  0  0
   14.9812  -17.6107   21.4196 O   0  0  0  0  0  0  0  0  0  0  0  0
    9.4979  -16.3433   22.5489 C   0  0  0  0  0  0  0  0  0  0  0  0
    9.2575  -15.2176   22.0758 O   0  0  0  0  0  0  0  0  0  0  0  0
   14.9449  -15.5094   22.1980 O   0  0  0  0  0  0  0  0  0  0  0  0
    6.3345  -17.9678   22.7247 N   0  0  0  0  0  0  0  0  0  0  0  0
    6.1943  -18.0961   24.1285 C   0  0  0  0  0  0  0  0  0  0  0  0
    5.4888  -19.0305   24.5685 O   0  0  0  0  0  0  0  0  0  0  0  0
    6.8669  -17.1478   25.0083 C   0  0  0  0  0  0  0  0  0  0  0  0
    7.7261  -16.1204   24.2774 C   0  0  2  0  0  0  0  0  0  0  0  0
    8.7822  -16.8546   23.6542 N   0  0  0  0  0  0  0  0  0  0  0  0
    8.2671  -15.1992   25.2964 C   0  0  0  0  0  0  0  0  0  0  0  0
    9.3867  -15.5535   25.8479 O   0  0  0  0  0  0  0  0  0  0  0  0
    7.7190  -13.9825   25.7444 N   0  0  0  0  0  0  0  0  0  0  0  0
    6.6044  -13.2041   25.2604 C   0  0  0  0  0  0  0  0  0  0  0  0
    6.2234  -12.2320   26.3804 C   0  0  0  0  0  0  0  0  0  0  0  0
    7.5359  -12.0347   27.1214 C   0  0  0  0  0  0  0  0  0  0  0  0
    8.3167  -13.2859   26.9081 C   0  0  1  0  0  0  0  0  0  0  0  0
    8.2230  -14.1766   28.1020 C   0  0  0  0  0  0  0  0  0  0  0  0
    7.5374  -15.2074   28.0341 O   0  0  0  0  0  0  0  0  0  0  0  0
    8.8985  -13.8507   29.2730 O   0  0  0  0  0  0  0  0  0  0  0  0
  2  1  1  6
  2  7  1  0
  2  3  1  0
  3  4  1  0
  5  6  2  0
  5  4  1  0
  7 15  1  0
  7  8  2  0
  9  5  1  0
 11 10  1  0
 12 11  2  0
 13 11  1  0
 14 13  1  1
 15 14  1  0
 16 14  1  0
 17 16  2  0
 18 16  1  0
 18 19  1  0
 20 19  1  0
 21 22  1  0
 21 20  1  0
 22 23  1  1
 22 18  1  0
 23 25  1  0
 24 23  2  0
M  END
$$$$
