ENP.pdb
     RDKit          3D

 25 25  0  0  1  0  0  0  0  0999 V2000
   10.2598  -18.8863   14.2796 N   0  0  0  0  0  0  0  0  0  0  0  0
   10.5622  -18.6795   15.6366 C   0  0  1  0  0  0  0  0  0  0  0  0
   12.0068  -18.4113   15.8906 C   0  0  0  0  0  0  0  0  0  0  0  0
   12.4974  -17.1450   15.2923 C   0  0  0  0  0  0  0  0  0  0  0  0
   13.9376  -16.9558   15.3960 C   0  0  0  0  0  0  0  0  0  0  0  0
   14.8096  -17.4801   14.7047 O   0  0  0  0  0  0  0  0  0  0  0  0
    9.7043  -17.6280   16.3000 C   0  0  0  0  0  0  0  0  0  0  0  0
    9.3498  -16.6820   15.5732 O   0  0  0  0  0  0  0  0  0  0  0  0
   14.4044  -16.0714   16.4001 O   0  0  0  0  0  0  0  0  0  0  0  0
    6.7137  -20.0707   18.3185 N   0  0  0  0  0  0  0  0  0  0  0  0
    6.6090  -18.6734   18.1107 C   0  0  0  0  0  0  0  0  0  0  0  0
    5.8691  -18.2675   17.1876 O   0  0  0  0  0  0  0  0  0  0  0  0
    7.3569  -17.7607   18.9671 C   0  0  0  0  0  0  0  0  0  0  0  0
    8.3237  -16.8510   18.2149 C   0  0  2  0  0  0  0  0  0  0  0  0
    9.3246  -17.7060   17.6584 N   0  0  0  0  0  0  0  0  0  0  0  0
    8.9195  -15.9325   19.2053 C   0  0  0  0  0  0  0  0  0  0  0  0
    9.9181  -16.4009   19.8884 O   0  0  0  0  0  0  0  0  0  0  0  0
    8.5388  -14.6100   19.5011 N   0  0  0  0  0  0  0  0  0  0  0  0
    7.5411  -13.7509   18.9102 C   0  0  0  0  0  0  0  0  0  0  0  0
    7.2906  -12.6137   19.9045 C   0  0  0  0  0  0  0  0  0  0  0  0
    8.6151  -12.5091   20.6431 C   0  0  0  0  0  0  0  0  0  0  0  0
    9.2209  -13.8696   20.5889 C   0  0  1  0  0  0  0  0  0  0  0  0
    9.0036  -14.5957   21.8746 C   0  0  0  0  0  0  0  0  0  0  0  0
    8.1300  -15.4736   21.9323 O   0  0  0  0  0  0  0  0  0  0  0  0
    9.7744  -14.2886   22.9906 O   0  0  0  0  0  0  0  0  0  0  0  0
  2  1  1  6
  2  7  1  0
  2  3  1  0
  3  4  1  0
  5  6  2  0
  5  4  1  0
  7 15  1  0
  7  8  2  0
  9  5  1  0
 11 10  1  0
 12 11  2  0
 13 11  1  0
 14 13  1  1
 15 14  1  0
 16 14  1  0
 17 16  2  0
 18 16  1  0
 18 19  1  0
 20 19  1  0
 21 22  1  0
 21 20  1  0
 22 23  1  1
 22 18  1  0
 23 25  1  0
 24 23  2  0
M  END
$$$$
