ENP.pdb
     RDKit          3D

 25 25  0  0  1  0  0  0  0  0999 V2000
    9.7751  -17.8597   20.4165 N   0  0  0  0  0  0  0  0  0  0  0  0
   10.1316  -17.6805   21.7642 C   0  0  1  0  0  0  0  0  0  0  0  0
   11.4655  -17.0395   21.9472 C   0  0  0  0  0  0  0  0  0  0  0  0
   12.4475  -17.3828   20.8889 C   0  0  0  0  0  0  0  0  0  0  0  0
   13.7424  -16.7351   21.0452 C   0  0  0  0  0  0  0  0  0  0  0  0
   14.6109  -16.9968   21.8761 O   0  0  0  0  0  0  0  0  0  0  0  0
    9.0837  -16.9641   22.5829 C   0  0  0  0  0  0  0  0  0  0  0  0
    8.4990  -16.0260   22.0112 O   0  0  0  0  0  0  0  0  0  0  0  0
   14.0538  -15.6838   20.1474 O   0  0  0  0  0  0  0  0  0  0  0  0
    5.8830  -18.3645   23.6908 N   0  0  0  0  0  0  0  0  0  0  0  0
    6.2319  -18.5306   25.0537 C   0  0  0  0  0  0  0  0  0  0  0  0
    5.6752  -19.4465   25.6983 O   0  0  0  0  0  0  0  0  0  0  0  0
    7.2164  -17.6410   25.6578 C   0  0  0  0  0  0  0  0  0  0  0  0
    7.8126  -16.6222   24.6910 C   0  0  2  0  0  0  0  0  0  0  0  0
    8.7810  -17.3295   23.9135 N   0  0  0  0  0  0  0  0  0  0  0  0
    8.4649  -15.5773   25.5049 C   0  0  0  0  0  0  0  0  0  0  0  0
    9.6565  -15.8531   25.9374 O   0  0  0  0  0  0  0  0  0  0  0  0
    7.9545  -14.3174   25.8701 N   0  0  0  0  0  0  0  0  0  0  0  0
    6.7002  -13.6725   25.5645 C   0  0  0  0  0  0  0  0  0  0  0  0
    6.5347  -12.5276   26.5678 C   0  0  0  0  0  0  0  0  0  0  0  0
    7.9707  -12.1609   26.9061 C   0  0  0  0  0  0  0  0  0  0  0  0
    8.7662  -13.4058   26.7109 C   0  0  1  0  0  0  0  0  0  0  0  0
    9.0357  -14.0709   28.0196 C   0  0  0  0  0  0  0  0  0  0  0  0
    8.4507  -15.1299   28.2906 O   0  0  0  0  0  0  0  0  0  0  0  0
    9.9328  -13.5064   28.9198 O   0  0  0  0  0  0  0  0  0  0  0  0
  2  1  1  6
  2  7  1  0
  2  3  1  0
  3  4  1  0
  5  6  2  0
  5  4  1  0
  7 15  1  0
  7  8  2  0
  9  5  1  0
 11 10  1  0
 12 11  2  0
 13 11  1  0
 14 13  1  1
 15 14  1  0
 16 14  1  0
 17 16  2  0
 18 16  1  0
 18 19  1  0
 20 19  1  0
 21 22  1  0
 21 20  1  0
 22 23  1  1
 22 18  1  0
 23 25  1  0
 24 23  2  0
M  END
$$$$
