ENP.pdb
     RDKit          3D

 25 25  0  0  1  0  0  0  0  0999 V2000
    9.3435  -16.9652   13.5385 N   0  0  0  0  0  0  0  0  0  0  0  0
    9.2953  -17.6779   14.7490 C   0  0  1  0  0  0  0  0  0  0  0  0
   10.6082  -18.2599   15.1501 C   0  0  0  0  0  0  0  0  0  0  0  0
   11.6190  -17.2476   15.5448 C   0  0  0  0  0  0  0  0  0  0  0  0
   12.8980  -17.8111   15.9541 C   0  0  0  0  0  0  0  0  0  0  0  0
   13.8587  -17.2091   16.4312 O   0  0  0  0  0  0  0  0  0  0  0  0
    8.6906  -16.8983   15.8928 C   0  0  0  0  0  0  0  0  0  0  0  0
    8.5418  -15.6784   15.6967 O   0  0  0  0  0  0  0  0  0  0  0  0
   13.0722  -19.2081   15.7923 O   0  0  0  0  0  0  0  0  0  0  0  0
    5.6170  -18.4787   16.9916 N   0  0  0  0  0  0  0  0  0  0  0  0
    5.9036  -18.6762   18.3649 C   0  0  0  0  0  0  0  0  0  0  0  0
    5.2402  -19.5332   18.9892 O   0  0  0  0  0  0  0  0  0  0  0  0
    6.9492  -17.8851   19.0025 C   0  0  0  0  0  0  0  0  0  0  0  0
    7.5564  -16.8130   18.1026 C   0  0  2  0  0  0  0  0  0  0  0  0
    8.3155  -17.5077   17.1108 N   0  0  0  0  0  0  0  0  0  0  0  0
    8.4411  -15.9846   18.9457 C   0  0  0  0  0  0  0  0  0  0  0  0
    9.5499  -16.5405   19.3261 O   0  0  0  0  0  0  0  0  0  0  0  0
    8.2314  -14.6650   19.3885 N   0  0  0  0  0  0  0  0  0  0  0  0
    7.1543  -13.7370   19.1413 C   0  0  0  0  0  0  0  0  0  0  0  0
    7.2578  -12.6438   20.2085 C   0  0  0  0  0  0  0  0  0  0  0  0
    8.7411  -12.6311   20.5405 C   0  0  0  0  0  0  0  0  0  0  0  0
    9.2329  -14.0103   20.2631 C   0  0  1  0  0  0  0  0  0  0  0  0
    9.3513  -14.7930   21.5284 C   0  0  0  0  0  0  0  0  0  0  0  0
   10.2967  -14.5604   22.2961 O   0  0  0  0  0  0  0  0  0  0  0  0
    8.4105  -15.7690   21.8382 O   0  0  0  0  0  0  0  0  0  0  0  0
  2  1  1  6
  2  7  1  0
  2  3  1  0
  3  4  1  0
  5  6  2  0
  5  4  1  0
  7 15  1  0
  7  8  2  0
  9  5  1  0
 11 10  1  0
 12 11  2  0
 13 11  1  0
 14 13  1  1
 15 14  1  0
 16 14  1  0
 17 16  2  0
 18 16  1  0
 18 19  1  0
 20 19  1  0
 21 22  1  0
 21 20  1  0
 22 23  1  1
 22 18  1  0
 23 25  1  0
 24 23  2  0
M  END
$$$$
