ENP.pdb
     RDKit          3D

 25 25  0  0  1  0  0  0  0  0999 V2000
   10.0478  -16.8769   20.9623 N   0  0  0  0  0  0  0  0  0  0  0  0
    8.9643  -16.0473   20.6258 C   0  0  1  0  0  0  0  0  0  0  0  0
    8.1739  -16.5424   19.4624 C   0  0  0  0  0  0  0  0  0  0  0  0
    8.4719  -17.9470   19.0873 C   0  0  0  0  0  0  0  0  0  0  0  0
    7.8554  -18.3737   17.8389 C   0  0  0  0  0  0  0  0  0  0  0  0
    7.2455  -17.6740   17.0319 O   0  0  0  0  0  0  0  0  0  0  0  0
    8.0531  -15.7313   21.7884 C   0  0  0  0  0  0  0  0  0  0  0  0
    7.1067  -14.9624   21.5401 O   0  0  0  0  0  0  0  0  0  0  0  0
    7.9611  -19.7456   17.4998 O   0  0  0  0  0  0  0  0  0  0  0  0
    5.7259  -17.9166   23.1319 N   0  0  0  0  0  0  0  0  0  0  0  0
    6.3372  -18.2090   24.3759 C   0  0  0  0  0  0  0  0  0  0  0  0
    6.0782  -19.3061   24.9177 O   0  0  0  0  0  0  0  0  0  0  0  0
    7.2383  -17.2356   24.9811 C   0  0  0  0  0  0  0  0  0  0  0  0
    7.3985  -15.9494   24.1760 C   0  0  2  0  0  0  0  0  0  0  0  0
    8.2559  -16.2700   23.0785 N   0  0  0  0  0  0  0  0  0  0  0  0
    8.0396  -14.9569   25.0613 C   0  0  0  0  0  0  0  0  0  0  0  0
    9.3061  -15.1271   25.2851 O   0  0  0  0  0  0  0  0  0  0  0  0
    7.4473  -13.8474   25.6932 N   0  0  0  0  0  0  0  0  0  0  0  0
    6.1342  -13.2638   25.5599 C   0  0  0  0  0  0  0  0  0  0  0  0
    5.9214  -12.3676   26.7831 C   0  0  0  0  0  0  0  0  0  0  0  0
    7.3369  -11.9561   27.1543 C   0  0  0  0  0  0  0  0  0  0  0  0
    8.2193  -13.0614   26.6845 C   0  0  1  0  0  0  0  0  0  0  0  0
    8.5955  -13.9550   27.8192 C   0  0  0  0  0  0  0  0  0  0  0  0
    8.0625  -15.0706   27.9116 O   0  0  0  0  0  0  0  0  0  0  0  0
    9.5329  -13.5376   28.7577 O   0  0  0  0  0  0  0  0  0  0  0  0
  2  1  1  1
  2  7  1  0
  2  3  1  0
  3  4  1  0
  5  6  2  0
  5  4  1  0
  7 15  1  0
  7  8  2  0
  9  5  1  0
 11 10  1  0
 12 11  2  0
 13 11  1  0
 14 13  1  1
 15 14  1  0
 16 14  1  0
 17 16  2  0
 18 16  1  0
 18 19  1  0
 20 19  1  0
 21 22  1  0
 21 20  1  0
 22 23  1  1
 22 18  1  0
 23 25  1  0
 24 23  2  0
M  END
$$$$
