ENP.pdb
     RDKit          3D

 25 25  0  0  1  0  0  0  0  0999 V2000
   10.1018  -19.7633   14.9888 N   0  0  0  0  0  0  0  0  0  0  0  0
   10.6928  -18.8172   15.8438 C   0  0  1  0  0  0  0  0  0  0  0  0
   11.7904  -18.0381   15.2021 C   0  0  0  0  0  0  0  0  0  0  0  0
   11.3642  -17.2751   14.0027 C   0  0  0  0  0  0  0  0  0  0  0  0
   12.4430  -16.5558   13.3399 C   0  0  0  0  0  0  0  0  0  0  0  0
   12.4192  -15.4005   12.9181 O   0  0  0  0  0  0  0  0  0  0  0  0
    9.7016  -17.8886   16.5050 C   0  0  0  0  0  0  0  0  0  0  0  0
    8.9576  -17.2547   15.7347 O   0  0  0  0  0  0  0  0  0  0  0  0
   13.6647  -17.2489   13.1522 O   0  0  0  0  0  0  0  0  0  0  0  0
    5.8368  -18.5772   18.1800 N   0  0  0  0  0  0  0  0  0  0  0  0
    7.0290  -19.0001   18.8176 C   0  0  0  0  0  0  0  0  0  0  0  0
    7.3148  -20.2174   18.7876 O   0  0  0  0  0  0  0  0  0  0  0  0
    7.8768  -18.0177   19.4821 C   0  0  0  0  0  0  0  0  0  0  0  0
    8.5491  -17.0303   18.5328 C   0  0  2  0  0  0  0  0  0  0  0  0
    9.6185  -17.7432   17.9077 N   0  0  0  0  0  0  0  0  0  0  0  0
    9.0758  -15.9231   19.3552 C   0  0  0  0  0  0  0  0  0  0  0  0
   10.1599  -16.1743   20.0220 O   0  0  0  0  0  0  0  0  0  0  0  0
    8.5478  -14.6270   19.5058 N   0  0  0  0  0  0  0  0  0  0  0  0
    7.4409  -13.9677   18.8557 C   0  0  0  0  0  0  0  0  0  0  0  0
    7.0811  -12.7534   19.7164 C   0  0  0  0  0  0  0  0  0  0  0  0
    8.4013  -12.4071   20.3857 C   0  0  0  0  0  0  0  0  0  0  0  0
    9.1631  -13.6851   20.4706 C   0  0  1  0  0  0  0  0  0  0  0  0
    9.0651  -14.2680   21.8410 C   0  0  0  0  0  0  0  0  0  0  0  0
    8.3205  -15.2409   22.0317 O   0  0  0  0  0  0  0  0  0  0  0  0
    9.8021  -13.7240   22.8873 O   0  0  0  0  0  0  0  0  0  0  0  0
  2  1  1  6
  2  7  1  0
  2  3  1  0
  3  4  1  0
  5  6  2  0
  5  4  1  0
  7 15  1  0
  7  8  2  0
  9  5  1  0
 11 10  1  0
 12 11  2  0
 13 11  1  0
 14 13  1  1
 15 14  1  0
 16 14  1  0
 17 16  2  0
 18 16  1  0
 18 19  1  0
 20 19  1  0
 21 22  1  0
 21 20  1  0
 22 23  1  1
 22 18  1  0
 23 25  1  0
 24 23  2  0
M  END
$$$$
