ENP.pdb
     RDKit          3D

 25 25  0  0  1  0  0  0  0  0999 V2000
    9.5360  -15.5001   20.3247 N   0  0  0  0  0  0  0  0  0  0  0  0
    8.5536  -14.4997   20.4232 C   0  0  1  0  0  0  0  0  0  0  0  0
    7.6295  -14.4553   19.2538 C   0  0  0  0  0  0  0  0  0  0  0  0
    8.0143  -13.4615   18.2211 C   0  0  0  0  0  0  0  0  0  0  0  0
    8.5195  -14.0489   16.9881 C   0  0  0  0  0  0  0  0  0  0  0  0
    9.5130  -13.7031   16.3506 O   0  0  0  0  0  0  0  0  0  0  0  0
    7.7712  -14.5374   21.7148 C   0  0  0  0  0  0  0  0  0  0  0  0
    6.9713  -13.6002   21.8898 O   0  0  0  0  0  0  0  0  0  0  0  0
    7.7985  -15.1431   16.4485 O   0  0  0  0  0  0  0  0  0  0  0  0
    6.4278  -18.6439   22.4863 N   0  0  0  0  0  0  0  0  0  0  0  0
    6.0095  -17.7030   23.4592 C   0  0  0  0  0  0  0  0  0  0  0  0
    4.7841  -17.4831   23.5794 O   0  0  0  0  0  0  0  0  0  0  0  0
    7.0059  -17.0267   24.2810 C   0  0  0  0  0  0  0  0  0  0  0  0
    7.2285  -15.5628   23.9126 C   0  0  2  0  0  0  0  0  0  0  0  0
    7.9316  -15.5672   22.6684 N   0  0  0  0  0  0  0  0  0  0  0  0
    8.0613  -14.9666   24.9760 C   0  0  0  0  0  0  0  0  0  0  0  0
    9.2426  -15.4806   25.1302 O   0  0  0  0  0  0  0  0  0  0  0  0
    7.7332  -13.9083   25.8442 N   0  0  0  0  0  0  0  0  0  0  0  0
    6.5525  -13.0839   25.9377 C   0  0  0  0  0  0  0  0  0  0  0  0
    6.5894  -12.4115   27.3129 C   0  0  0  0  0  0  0  0  0  0  0  0
    8.0771  -12.3386   27.6165 C   0  0  0  0  0  0  0  0  0  0  0  0
    8.6997  -13.4754   26.8810 C   0  0  1  0  0  0  0  0  0  0  0  0
    8.9616  -14.6200   27.8023 C   0  0  0  0  0  0  0  0  0  0  0  0
    8.2411  -15.6267   27.7347 O   0  0  0  0  0  0  0  0  0  0  0  0
   10.0022  -14.5538   28.7225 O   0  0  0  0  0  0  0  0  0  0  0  0
  2  1  1  6
  2  7  1  0
  2  3  1  0
  3  4  1  0
  5  6  2  0
  5  4  1  0
  7 15  1  0
  7  8  2  0
  9  5  1  0
 11 10  1  0
 12 11  2  0
 13 11  1  0
 14 13  1  1
 15 14  1  0
 16 14  1  0
 17 16  2  0
 18 16  1  0
 18 19  1  0
 20 19  1  0
 21 22  1  0
 21 20  1  0
 22 23  1  1
 22 18  1  0
 23 25  1  0
 24 23  2  0
M  END
$$$$
