ENP.pdb
     RDKit          3D

 25 25  0  0  1  0  0  0  0  0999 V2000
    9.9553  -16.5673   20.5347 N   0  0  0  0  0  0  0  0  0  0  0  0
    8.7386  -15.9014   20.3073 C   0  0  1  0  0  0  0  0  0  0  0  0
    7.9176  -16.5143   19.2239 C   0  0  0  0  0  0  0  0  0  0  0  0
    8.6912  -17.3814   18.3009 C   0  0  0  0  0  0  0  0  0  0  0  0
    7.9323  -18.4989   17.7569 C   0  0  0  0  0  0  0  0  0  0  0  0
    7.0759  -18.4588   16.8750 O   0  0  0  0  0  0  0  0  0  0  0  0
    7.9080  -15.7045   21.5535 C   0  0  0  0  0  0  0  0  0  0  0  0
    6.7348  -15.3330   21.3683 O   0  0  0  0  0  0  0  0  0  0  0  0
    8.1981  -19.7841   18.2916 O   0  0  0  0  0  0  0  0  0  0  0  0
    5.3722  -18.2212   24.2431 N   0  0  0  0  0  0  0  0  0  0  0  0
    6.7623  -18.1956   23.9711 C   0  0  0  0  0  0  0  0  0  0  0  0
    7.2179  -19.0187   23.1470 O   0  0  0  0  0  0  0  0  0  0  0  0
    7.6105  -17.2239   24.6508 C   0  0  0  0  0  0  0  0  0  0  0  0
    7.6014  -15.8363   24.0163 C   0  0  2  0  0  0  0  0  0  0  0  0
    8.4229  -15.9256   22.8503 N   0  0  0  0  0  0  0  0  0  0  0  0
    8.1928  -14.9039   24.9964 C   0  0  0  0  0  0  0  0  0  0  0  0
    9.4507  -15.0783   25.2615 O   0  0  0  0  0  0  0  0  0  0  0  0
    7.5611  -13.8476   25.6795 N   0  0  0  0  0  0  0  0  0  0  0  0
    6.2484  -13.2669   25.5310 C   0  0  0  0  0  0  0  0  0  0  0  0
    5.9730  -12.4629   26.8047 C   0  0  0  0  0  0  0  0  0  0  0  0
    7.3664  -12.0674   27.2658 C   0  0  0  0  0  0  0  0  0  0  0  0
    8.2808  -13.1286   26.7573 C   0  0  1  0  0  0  0  0  0  0  0  0
    8.6181  -14.0984   27.8405 C   0  0  0  0  0  0  0  0  0  0  0  0
    8.1163  -15.2319   27.8140 O   0  0  0  0  0  0  0  0  0  0  0  0
    9.4851  -13.7310   28.8638 O   0  0  0  0  0  0  0  0  0  0  0  0
  2  1  1  1
  2  7  1  0
  2  3  1  0
  3  4  1  0
  5  6  2  0
  5  4  1  0
  7 15  1  0
  7  8  2  0
  9  5  1  0
 11 10  1  0
 12 11  2  0
 13 11  1  0
 14 13  1  1
 15 14  1  0
 16 14  1  0
 17 16  2  0
 18 16  1  0
 18 19  1  0
 20 19  1  0
 21 22  1  0
 21 20  1  0
 22 23  1  1
 22 18  1  0
 23 25  1  0
 24 23  2  0
M  END
$$$$
