ENP.pdb
     RDKit          3D

 25 25  0  0  1  0  0  0  0  0999 V2000
    7.7843  -14.1560   18.7691 N   0  0  0  0  0  0  0  0  0  0  0  0
    8.5075  -14.1605   19.9743 C   0  0  1  0  0  0  0  0  0  0  0  0
    9.2666  -12.9005   20.2180 C   0  0  0  0  0  0  0  0  0  0  0  0
   10.5388  -12.8089   19.4593 C   0  0  0  0  0  0  0  0  0  0  0  0
   11.6483  -13.5297   20.0676 C   0  0  0  0  0  0  0  0  0  0  0  0
   11.6755  -14.0544   21.1798 O   0  0  0  0  0  0  0  0  0  0  0  0
    7.6767  -14.5199   21.1835 C   0  0  0  0  0  0  0  0  0  0  0  0
    6.4712  -14.2169   21.1208 O   0  0  0  0  0  0  0  0  0  0  0  0
   12.8376  -13.6505   19.3066 O   0  0  0  0  0  0  0  0  0  0  0  0
    5.8087  -16.5087   25.4680 N   0  0  0  0  0  0  0  0  0  0  0  0
    6.6660  -17.4134   24.7947 C   0  0  0  0  0  0  0  0  0  0  0  0
    6.6891  -18.6030   25.1803 O   0  0  0  0  0  0  0  0  0  0  0  0
    7.4862  -16.9382   23.6869 C   0  0  0  0  0  0  0  0  0  0  0  0
    7.4478  -15.4262   23.4864 C   0  0  2  0  0  0  0  0  0  0  0  0
    8.2256  -15.1590   22.3174 N   0  0  0  0  0  0  0  0  0  0  0  0
    8.0718  -14.8119   24.6750 C   0  0  0  0  0  0  0  0  0  0  0  0
    9.2684  -15.2204   24.9658 O   0  0  0  0  0  0  0  0  0  0  0  0
    7.5297  -13.8366   25.5332 N   0  0  0  0  0  0  0  0  0  0  0  0
    6.1932  -13.3043   25.6467 C   0  0  0  0  0  0  0  0  0  0  0  0
    6.1079  -12.6078   27.0077 C   0  0  0  0  0  0  0  0  0  0  0  0
    7.5455  -12.1866   27.2655 C   0  0  0  0  0  0  0  0  0  0  0  0
    8.3954  -13.1672   26.5327 C   0  0  1  0  0  0  0  0  0  0  0  0
    8.9374  -14.1977   27.4666 C   0  0  0  0  0  0  0  0  0  0  0  0
    8.5044  -15.3577   27.4029 O   0  0  0  0  0  0  0  0  0  0  0  0
    9.9159  -13.8563   28.3938 O   0  0  0  0  0  0  0  0  0  0  0  0
  2  1  1  6
  2  7  1  0
  2  3  1  0
  3  4  1  0
  5  6  2  0
  5  4  1  0
  7 15  1  0
  7  8  2  0
  9  5  1  0
 11 10  1  0
 12 11  2  0
 13 11  1  0
 14 13  1  1
 15 14  1  0
 16 14  1  0
 17 16  2  0
 18 16  1  0
 18 19  1  0
 20 19  1  0
 21 22  1  0
 21 20  1  0
 22 23  1  1
 22 18  1  0
 23 25  1  0
 24 23  2  0
M  END
$$$$
