ENP.pdb
     RDKit          3D

 25 25  0  0  1  0  0  0  0  0999 V2000
   11.1398  -18.2218   22.5280 N   0  0  0  0  0  0  0  0  0  0  0  0
   10.7916  -17.0202   21.8875 C   0  0  1  0  0  0  0  0  0  0  0  0
   10.6065  -17.1622   20.4148 C   0  0  0  0  0  0  0  0  0  0  0  0
    9.6874  -18.2610   20.0276 C   0  0  0  0  0  0  0  0  0  0  0  0
    9.4209  -18.3390   18.5981 C   0  0  0  0  0  0  0  0  0  0  0  0
   10.1837  -18.7361   17.7186 O   0  0  0  0  0  0  0  0  0  0  0  0
    9.6034  -16.3212   22.5051 C   0  0  0  0  0  0  0  0  0  0  0  0
    9.2662  -15.2508   21.9672 O   0  0  0  0  0  0  0  0  0  0  0  0
    8.1444  -17.9144   18.1527 O   0  0  0  0  0  0  0  0  0  0  0  0
    6.6558  -19.4911   24.3144 N   0  0  0  0  0  0  0  0  0  0  0  0
    6.3179  -18.1161   24.2672 C   0  0  0  0  0  0  0  0  0  0  0  0
    5.3716  -17.7657   23.5281 O   0  0  0  0  0  0  0  0  0  0  0  0
    7.0728  -17.1618   25.0703 C   0  0  0  0  0  0  0  0  0  0  0  0
    7.8457  -16.1318   24.2518 C   0  0  2  0  0  0  0  0  0  0  0  0
    8.9138  -16.8426   23.6223 N   0  0  0  0  0  0  0  0  0  0  0  0
    8.3767  -15.1310   25.1984 C   0  0  0  0  0  0  0  0  0  0  0  0
    9.5573  -15.3719   25.6795 O   0  0  0  0  0  0  0  0  0  0  0  0
    7.7612  -13.9462   25.6443 N   0  0  0  0  0  0  0  0  0  0  0  0
    6.4984  -13.3398   25.2975 C   0  0  0  0  0  0  0  0  0  0  0  0
    6.1812  -12.3192   26.3940 C   0  0  0  0  0  0  0  0  0  0  0  0
    7.5592  -11.9152   26.8924 C   0  0  0  0  0  0  0  0  0  0  0  0
    8.4437  -13.0880   26.6415 C   0  0  1  0  0  0  0  0  0  0  0  0
    8.6463  -13.8739   27.8940 C   0  0  0  0  0  0  0  0  0  0  0  0
    9.4081  -13.4329   28.7671 O   0  0  0  0  0  0  0  0  0  0  0  0
    7.9862  -15.0844   28.0752 O   0  0  0  0  0  0  0  0  0  0  0  0
  2  1  1  1
  2  7  1  0
  2  3  1  0
  3  4  1  0
  5  6  2  0
  5  4  1  0
  7 15  1  0
  7  8  2  0
  9  5  1  0
 11 10  1  0
 12 11  2  0
 13 11  1  0
 14 13  1  1
 15 14  1  0
 16 14  1  0
 17 16  2  0
 18 16  1  0
 18 19  1  0
 20 19  1  0
 21 22  1  0
 21 20  1  0
 22 23  1  1
 22 18  1  0
 23 25  1  0
 24 23  2  0
M  END
$$$$
