ENP.pdb
     RDKit          3D

 25 25  0  0  1  0  0  0  0  0999 V2000
   10.8367  -16.5521   19.8930 N   0  0  0  0  0  0  0  0  0  0  0  0
   10.6224  -16.9590   21.2211 C   0  0  1  0  0  0  0  0  0  0  0  0
   11.8786  -17.0919   22.0134 C   0  0  0  0  0  0  0  0  0  0  0  0
   12.7440  -15.8871   21.9746 C   0  0  0  0  0  0  0  0  0  0  0  0
   14.0039  -16.0353   22.6897 C   0  0  0  0  0  0  0  0  0  0  0  0
   15.0091  -16.6350   22.3116 O   0  0  0  0  0  0  0  0  0  0  0  0
    9.6154  -16.1129   21.9640 C   0  0  0  0  0  0  0  0  0  0  0  0
    9.4321  -14.9683   21.5113 O   0  0  0  0  0  0  0  0  0  0  0  0
   14.1005  -15.4260   23.9655 O   0  0  0  0  0  0  0  0  0  0  0  0
    6.2738  -16.9644   21.6930 N   0  0  0  0  0  0  0  0  0  0  0  0
    6.0271  -17.4169   23.0125 C   0  0  0  0  0  0  0  0  0  0  0  0
    5.1366  -18.2782   23.1845 O   0  0  0  0  0  0  0  0  0  0  0  0
    6.8074  -16.8727   24.1173 C   0  0  0  0  0  0  0  0  0  0  0  0
    7.8528  -15.8445   23.6954 C   0  0  2  0  0  0  0  0  0  0  0  0
    8.9221  -16.5835   23.1013 N   0  0  0  0  0  0  0  0  0  0  0  0
    8.3134  -15.1617   24.9207 C   0  0  0  0  0  0  0  0  0  0  0  0
    9.3369  -15.6907   25.5173 O   0  0  0  0  0  0  0  0  0  0  0  0
    7.7800  -14.0066   25.5230 N   0  0  0  0  0  0  0  0  0  0  0  0
    6.7140  -13.1244   25.1135 C   0  0  0  0  0  0  0  0  0  0  0  0
    6.3072  -12.3176   26.3497 C   0  0  0  0  0  0  0  0  0  0  0  0
    7.5869  -12.2815   27.1692 C   0  0  0  0  0  0  0  0  0  0  0  0
    8.3401  -13.5144   26.8038 C   0  0  1  0  0  0  0  0  0  0  0  0
    8.1615  -14.5698   27.8440 C   0  0  0  0  0  0  0  0  0  0  0  0
    7.4305  -15.5409   27.5997 O   0  0  0  0  0  0  0  0  0  0  0  0
    8.8096  -14.4612   29.0696 O   0  0  0  0  0  0  0  0  0  0  0  0
  2  1  1  6
  2  7  1  0
  2  3  1  0
  3  4  1  0
  5  6  2  0
  5  4  1  0
  7 15  1  0
  7  8  2  0
  9  5  1  0
 11 10  1  0
 12 11  2  0
 13 11  1  0
 14 13  1  1
 15 14  1  0
 16 14  1  0
 17 16  2  0
 18 16  1  0
 18 19  1  0
 20 19  1  0
 21 22  1  0
 21 20  1  0
 22 23  1  1
 22 18  1  0
 23 25  1  0
 24 23  2  0
M  END
$$$$
