ENP.pdb
     RDKit          3D

 25 25  0  0  1  0  0  0  0  0999 V2000
   13.6159  -14.4472   18.7694 N   0  0  0  0  0  0  0  0  0  0  0  0
   12.7410  -15.2252   19.5470 C   0  0  1  0  0  0  0  0  0  0  0  0
   13.4306  -16.0237   20.6006 C   0  0  0  0  0  0  0  0  0  0  0  0
   14.7352  -15.4583   21.0258 C   0  0  0  0  0  0  0  0  0  0  0  0
   15.3524  -16.1593   22.1430 C   0  0  0  0  0  0  0  0  0  0  0  0
   16.4380  -15.9152   22.6674 O   0  0  0  0  0  0  0  0  0  0  0  0
   11.5936  -14.4433   20.1419 C   0  0  0  0  0  0  0  0  0  0  0  0
   11.8735  -13.3040   20.5570 O   0  0  0  0  0  0  0  0  0  0  0  0
   14.6356  -17.2468   22.7015 O   0  0  0  0  0  0  0  0  0  0  0  0
    8.7470  -13.0454   18.4330 N   0  0  0  0  0  0  0  0  0  0  0  0
    7.7540  -13.9451   18.8930 C   0  0  0  0  0  0  0  0  0  0  0  0
    6.7370  -14.1144   18.1850 O   0  0  0  0  0  0  0  0  0  0  0  0
    7.9433  -14.6381   20.1617 C   0  0  0  0  0  0  0  0  0  0  0  0
    9.2306  -14.2640   20.8906 C   0  0  2  0  0  0  0  0  0  0  0  0
   10.2835  -14.9651   20.2256 N   0  0  0  0  0  0  0  0  0  0  0  0
    9.0956  -14.7328   22.2840 C   0  0  0  0  0  0  0  0  0  0  0  0
    9.6130  -15.8930   22.5476 O   0  0  0  0  0  0  0  0  0  0  0  0
    8.4749  -14.0769   23.3638 N   0  0  0  0  0  0  0  0  0  0  0  0
    7.8382  -12.7851   23.4551 C   0  0  0  0  0  0  0  0  0  0  0  0
    6.9880  -12.7992   24.7285 C   0  0  0  0  0  0  0  0  0  0  0  0
    7.7208  -13.7919   25.6163 C   0  0  0  0  0  0  0  0  0  0  0  0
    8.4122  -14.7335   24.6910 C   0  0  1  0  0  0  0  0  0  0  0  0
    7.6436  -16.0065   24.5619 C   0  0  0  0  0  0  0  0  0  0  0  0
    7.0492  -16.2481   23.5010 O   0  0  0  0  0  0  0  0  0  0  0  0
    7.5986  -16.9071   25.6205 O   0  0  0  0  0  0  0  0  0  0  0  0
  2  1  1  1
  2  7  1  0
  2  3  1  0
  3  4  1  0
  5  6  2  0
  5  4  1  0
  7 15  1  0
  7  8  2  0
  9  5  1  0
 11 10  1  0
 12 11  2  0
 13 11  1  0
 14 13  1  6
 15 14  1  0
 16 14  1  0
 17 16  2  0
 18 16  1  0
 18 19  1  0
 20 19  1  0
 21 22  1  0
 21 20  1  0
 22 23  1  6
 22 18  1  0
 23 25  1  0
 24 23  2  0
M  END
$$$$
