ENP.pdb
     RDKit          3D

 25 25  0  0  1  0  0  0  0  0999 V2000
    8.8634  -15.4165   19.7771 N   0  0  0  0  0  0  0  0  0  0  0  0
    8.6369  -14.1518   20.3469 C   0  0  1  0  0  0  0  0  0  0  0  0
    8.0556  -13.1641   19.3930 C   0  0  0  0  0  0  0  0  0  0  0  0
    7.8021  -13.7144   18.0383 C   0  0  0  0  0  0  0  0  0  0  0  0
    8.9687  -14.3238   17.4150 C   0  0  0  0  0  0  0  0  0  0  0  0
    9.1763  -15.5228   17.2353 O   0  0  0  0  0  0  0  0  0  0  0  0
    7.8298  -14.1928   21.6231 C   0  0  0  0  0  0  0  0  0  0  0  0
    7.2282  -13.1436   21.9163 O   0  0  0  0  0  0  0  0  0  0  0  0
    9.9885  -13.4526   16.9576 O   0  0  0  0  0  0  0  0  0  0  0  0
    5.1838  -16.7716   22.2049 N   0  0  0  0  0  0  0  0  0  0  0  0
    5.8637  -17.4939   23.2163 C   0  0  0  0  0  0  0  0  0  0  0  0
    5.5931  -18.7066   23.3591 O   0  0  0  0  0  0  0  0  0  0  0  0
    6.8456  -16.8120   24.0509 C   0  0  0  0  0  0  0  0  0  0  0  0
    7.0633  -15.3464   23.6867 C   0  0  2  0  0  0  0  0  0  0  0  0
    7.7578  -15.3447   22.4377 N   0  0  0  0  0  0  0  0  0  0  0  0
    7.9023  -14.7528   24.7466 C   0  0  0  0  0  0  0  0  0  0  0  0
    9.1116  -15.2133   24.8409 O   0  0  0  0  0  0  0  0  0  0  0  0
    7.5535  -13.7480   25.6686 N   0  0  0  0  0  0  0  0  0  0  0  0
    6.3448  -12.9749   25.8232 C   0  0  0  0  0  0  0  0  0  0  0  0
    6.3863  -12.3638   27.2266 C   0  0  0  0  0  0  0  0  0  0  0  0
    7.8765  -12.2471   27.5034 C   0  0  0  0  0  0  0  0  0  0  0  0
    8.5253  -13.3249   26.7045 C   0  0  1  0  0  0  0  0  0  0  0  0
    8.8502  -14.4986   27.5672 C   0  0  0  0  0  0  0  0  0  0  0  0
    8.1504  -15.5190   27.4873 O   0  0  0  0  0  0  0  0  0  0  0  0
    9.9256  -14.4440   28.4472 O   0  0  0  0  0  0  0  0  0  0  0  0
  2  1  1  6
  2  7  1  0
  2  3  1  0
  3  4  1  0
  5  6  2  0
  5  4  1  0
  7 15  1  0
  7  8  2  0
  9  5  1  0
 11 10  1  0
 12 11  2  0
 13 11  1  0
 14 13  1  1
 15 14  1  0
 16 14  1  0
 17 16  2  0
 18 16  1  0
 18 19  1  0
 20 19  1  0
 21 22  1  0
 21 20  1  0
 22 23  1  1
 22 18  1  0
 23 25  1  0
 24 23  2  0
M  END
$$$$
