ENP.pdb
     RDKit          3D

 25 25  0  0  1  0  0  0  0  0999 V2000
    9.4182  -14.8551   20.0443 N   0  0  0  0  0  0  0  0  0  0  0  0
    8.4469  -13.9205   20.4424 C   0  0  1  0  0  0  0  0  0  0  0  0
    7.4062  -13.6648   19.4055 C   0  0  0  0  0  0  0  0  0  0  0  0
    7.9564  -13.2501   18.0912 C   0  0  0  0  0  0  0  0  0  0  0  0
    8.4707  -14.3498   17.2869 C   0  0  0  0  0  0  0  0  0  0  0  0
    8.1303  -15.5308   17.3351 O   0  0  0  0  0  0  0  0  0  0  0  0
    7.8029  -14.2376   21.7714 C   0  0  0  0  0  0  0  0  0  0  0  0
    6.9842  -13.3986   22.1894 O   0  0  0  0  0  0  0  0  0  0  0  0
    9.4760  -14.0427   16.3365 O   0  0  0  0  0  0  0  0  0  0  0  0
    5.9213  -17.9010   25.5564 N   0  0  0  0  0  0  0  0  0  0  0  0
    7.2922  -17.6020   25.3609 C   0  0  0  0  0  0  0  0  0  0  0  0
    8.0690  -17.7305   26.3326 O   0  0  0  0  0  0  0  0  0  0  0  0
    7.7519  -17.1584   24.0503 C   0  0  0  0  0  0  0  0  0  0  0  0
    7.5331  -15.6723   23.7828 C   0  0  2  0  0  0  0  0  0  0  0  0
    8.1055  -15.4095   22.4998 N   0  0  0  0  0  0  0  0  0  0  0  0
    8.2548  -14.9283   24.8341 C   0  0  0  0  0  0  0  0  0  0  0  0
    9.4849  -15.2846   25.0419 O   0  0  0  0  0  0  0  0  0  0  0  0
    7.7742  -13.8790   25.6398 N   0  0  0  0  0  0  0  0  0  0  0  0
    6.5757  -13.0802   25.5491 C   0  0  0  0  0  0  0  0  0  0  0  0
    6.3859  -12.4098   26.9126 C   0  0  0  0  0  0  0  0  0  0  0  0
    7.8071  -12.3056   27.4418 C   0  0  0  0  0  0  0  0  0  0  0  0
    8.5598  -13.4274   26.8126 C   0  0  1  0  0  0  0  0  0  0  0  0
    8.7011  -14.5679   27.7649 C   0  0  0  0  0  0  0  0  0  0  0  0
    8.0257  -15.5919   27.5852 O   0  0  0  0  0  0  0  0  0  0  0  0
    9.5811  -14.4786   28.8380 O   0  0  0  0  0  0  0  0  0  0  0  0
  2  1  1  6
  2  7  1  0
  2  3  1  0
  3  4  1  0
  5  6  2  0
  5  4  1  0
  7 15  1  0
  7  8  2  0
  9  5  1  0
 11 10  1  0
 12 11  2  0
 13 11  1  0
 14 13  1  1
 15 14  1  0
 16 14  1  0
 17 16  2  0
 18 16  1  0
 18 19  1  0
 20 19  1  0
 21 22  1  0
 21 20  1  0
 22 23  1  1
 22 18  1  0
 23 25  1  0
 24 23  2  0
M  END
$$$$
