KVL.pdb
     RDKit          3D

 25 24  0  0  1  0  0  0  0  0999 V2000
   16.0571  -13.2552  -19.3741 N   0  0  0  0  0  0  0  0  0  0  0  0
   16.4577  -12.6480  -18.1453 C   0  0  1  0  0  0  0  0  0  0  0  0
   16.7456  -13.5972  -17.0244 C   0  0  0  0  0  0  0  0  0  0  0  0
   15.5946  -14.4350  -16.5845 C   0  0  0  0  0  0  0  0  0  0  0  0
   14.8368  -13.9231  -15.3998 C   0  0  0  0  0  0  0  0  0  0  0  0
   13.6605  -14.8137  -15.0523 C   0  0  0  0  0  0  0  0  0  0  0  0
   13.0480  -14.2837  -13.8521 N   0  0  0  0  0  0  0  0  0  0  0  0
   17.5722  -11.6830  -18.3174 C   0  0  0  0  0  0  0  0  0  0  0  0
   18.5337  -12.0283  -19.0355 O   0  0  0  0  0  0  0  0  0  0  0  0
   17.2482   -7.4959  -18.0780 C   0  0  0  0  0  0  0  0  0  0  0  0
   18.3237   -8.2984  -18.7613 C   0  0  2  0  0  0  0  0  0  0  0  0
   17.9357   -8.7059  -20.1587 C   0  0  0  0  0  0  0  0  0  0  0  0
   18.7325   -9.5032  -17.9227 C   0  0  2  0  0  0  0  0  0  0  0  0
   17.6111  -10.3989  -17.7185 N   0  0  0  0  0  0  0  0  0  0  0  0
   19.2644   -9.0243  -16.6217 C   0  0  0  0  0  0  0  0  0  0  0  0
   18.4473   -8.8029  -15.6952 O   0  0  0  0  0  0  0  0  0  0  0  0
   21.9329  -10.8692  -13.5364 C   0  0  0  0  0  0  0  0  0  0  0  0
   22.6695  -10.4051  -14.8045 C   0  0  2  0  0  0  0  0  0  0  0  0
   24.0759  -10.8903  -14.6908 C   0  0  0  0  0  0  0  0  0  0  0  0
   22.5322   -8.9263  -14.8546 C   0  0  0  0  0  0  0  0  0  0  0  0
   21.1502   -8.4033  -15.0684 C   0  0  2  0  0  0  0  0  0  0  0  0
   20.6350   -8.8072  -16.3776 N   0  0  0  0  0  0  0  0  0  0  0  0
   21.1296   -6.9264  -15.0186 C   0  0  0  0  0  0  0  0  0  0  0  0
   21.1672   -6.2645  -16.0995 O   0  0  0  0  0  0  0  0  0  0  0  0
   21.0690   -6.1889  -13.8298 O   0  0  0  0  0  0  0  0  0  0  0  0
  2  1  1  6
  3  2  1  0
  4  3  1  0
  5  6  1  0
  5  4  1  0
  6  7  1  0
  8  2  1  0
  8  9  2  0
 11 13  1  0
 11 10  1  1
 12 11  1  0
 13 14  1  1
 14  8  1  0
 15 13  1  0
 16 15  2  0
 18 17  1  1
 18 20  1  0
 19 18  1  0
 21 20  1  6
 21 23  1  0
 21 22  1  0
 22 15  1  0
 23 25  1  0
 24 23  2  0
M  END
$$$$
