KVL.pdb
     RDKit          3D

 25 24  0  0  1  0  0  0  0  0999 V2000
   23.1142  -18.3437  -15.2143 N   0  0  0  0  0  0  0  0  0  0  0  0
   22.8547  -19.5371  -14.4743 C   0  0  1  0  0  0  0  0  0  0  0  0
   21.7390  -20.3867  -14.9973 C   0  0  0  0  0  0  0  0  0  0  0  0
   20.4803  -19.6591  -15.3236 C   0  0  0  0  0  0  0  0  0  0  0  0
   20.0106  -19.7808  -16.7394 C   0  0  0  0  0  0  0  0  0  0  0  0
   18.7947  -18.9168  -17.0086 C   0  0  0  0  0  0  0  0  0  0  0  0
   18.5271  -18.9662  -18.4308 N   0  0  0  0  0  0  0  0  0  0  0  0
   24.0754  -20.3511  -14.2495 C   0  0  0  0  0  0  0  0  0  0  0  0
   23.9547  -21.5940  -14.2601 O   0  0  0  0  0  0  0  0  0  0  0  0
   28.1050  -18.7460  -13.5208 C   0  0  0  0  0  0  0  0  0  0  0  0
   27.7815  -19.9141  -14.4144 C   0  0  2  0  0  0  0  0  0  0  0  0
   27.6592  -19.5135  -15.8613 C   0  0  0  0  0  0  0  0  0  0  0  0
   26.5378  -20.6514  -13.9332 C   0  0  2  0  0  0  0  0  0  0  0  0
   25.3641  -19.8054  -14.0247 N   0  0  0  0  0  0  0  0  0  0  0  0
   26.7552  -21.0965  -12.5334 C   0  0  0  0  0  0  0  0  0  0  0  0
   27.3763  -22.1708  -12.3450 O   0  0  0  0  0  0  0  0  0  0  0  0
   26.0205  -19.9826   -7.1508 C   0  0  0  0  0  0  0  0  0  0  0  0
   27.3833  -20.3291   -7.7742 C   0  0  2  0  0  0  0  0  0  0  0  0
   28.4128  -19.5502   -7.0259 C   0  0  0  0  0  0  0  0  0  0  0  0
   27.2854  -19.9895   -9.2175 C   0  0  0  0  0  0  0  0  0  0  0  0
   26.4208  -20.8832  -10.0440 C   0  0  2  0  0  0  0  0  0  0  0  0
   26.3004  -20.3755  -11.4115 N   0  0  0  0  0  0  0  0  0  0  0  0
   25.0575  -20.9701   -9.4800 C   0  0  0  0  0  0  0  0  0  0  0  0
   24.1434  -20.2201   -9.9379 O   0  0  0  0  0  0  0  0  0  0  0  0
   24.6965  -21.8463   -8.4493 O   0  0  0  0  0  0  0  0  0  0  0  0
  2  1  1  6
  3  2  1  0
  4  3  1  0
  5  6  1  0
  5  4  1  0
  6  7  1  0
  8  2  1  0
  8  9  2  0
 11 13  1  0
 11 10  1  1
 12 11  1  0
 13 14  1  1
 14  8  1  0
 15 13  1  0
 16 15  2  0
 18 17  1  1
 18 20  1  0
 19 18  1  0
 21 20  1  1
 21 23  1  0
 21 22  1  0
 22 15  1  0
 23 25  1  0
 24 23  2  0
M  END
$$$$
