KVL.pdb
     RDKit          3D

 25 24  0  0  1  0  0  0  0  0999 V2000
   20.8781  -32.1478   -9.9148 N   0  0  0  0  0  0  0  0  0  0  0  0
   21.2315  -33.5113  -10.1500 C   0  0  1  0  0  0  0  0  0  0  0  0
   21.3248  -33.9109  -11.5894 C   0  0  0  0  0  0  0  0  0  0  0  0
   20.0853  -33.7075  -12.3909 C   0  0  0  0  0  0  0  0  0  0  0  0
   19.3174  -34.9488  -12.7218 C   0  0  0  0  0  0  0  0  0  0  0  0
   18.1154  -34.6544  -13.5972 C   0  0  0  0  0  0  0  0  0  0  0  0
   17.4693  -35.9156  -13.8944 N   0  0  0  0  0  0  0  0  0  0  0  0
   22.4486  -33.9258   -9.4086 C   0  0  0  0  0  0  0  0  0  0  0  0
   22.8610  -35.0927   -9.5753 O   0  0  0  0  0  0  0  0  0  0  0  0
   25.8842  -32.5476   -9.5220 C   0  0  0  0  0  0  0  0  0  0  0  0
   25.5299  -32.6205   -8.0602 C   0  0  2  0  0  0  0  0  0  0  0  0
   26.7084  -32.9998   -7.2021 C   0  0  0  0  0  0  0  0  0  0  0  0
   24.3459  -33.5500   -7.8233 C   0  0  2  0  0  0  0  0  0  0  0  0
   23.1681  -33.0811   -8.5266 N   0  0  0  0  0  0  0  0  0  0  0  0
   24.0860  -33.6340   -6.3638 C   0  0  0  0  0  0  0  0  0  0  0  0
   23.3689  -32.7473   -5.8397 O   0  0  0  0  0  0  0  0  0  0  0  0
   21.7906  -37.0411   -2.4187 C   0  0  0  0  0  0  0  0  0  0  0  0
   22.8237  -35.9016   -2.4296 C   0  0  2  0  0  0  0  0  0  0  0  0
   22.2056  -34.7493   -1.7109 C   0  0  0  0  0  0  0  0  0  0  0  0
   23.1432  -35.6355   -3.8562 C   0  0  0  0  0  0  0  0  0  0  0  0
   24.3115  -34.7411   -4.1103 C   0  0  2  0  0  0  0  0  0  0  0  0
   24.6026  -34.6555   -5.5422 N   0  0  0  0  0  0  0  0  0  0  0  0
   25.5251  -35.2519   -3.4394 C   0  0  0  0  0  0  0  0  0  0  0  0
   26.2483  -36.1120   -4.0268 O   0  0  0  0  0  0  0  0  0  0  0  0
   25.9424  -34.8406   -2.1676 O   0  0  0  0  0  0  0  0  0  0  0  0
  2  1  1  6
  3  2  1  0
  4  3  1  0
  5  6  1  0
  5  4  1  0
  6  7  1  0
  8  2  1  0
  8  9  2  0
 11 13  1  0
 11 10  1  6
 12 11  1  0
 13 14  1  6
 14  8  1  0
 15 13  1  0
 16 15  2  0
 18 17  1  6
 18 20  1  0
 19 18  1  0
 21 20  1  6
 21 23  1  0
 21 22  1  0
 22 15  1  0
 23 25  1  0
 24 23  2  0
M  END
$$$$
