KVL.pdb
     RDKit          3D

 25 24  0  0  1  0  0  0  0  0999 V2000
   23.1082  -19.3198  -13.2451 N   0  0  0  0  0  0  0  0  0  0  0  0
   22.4351  -19.7862  -12.0753 C   0  0  1  0  0  0  0  0  0  0  0  0
   21.1954  -20.5870  -12.3244 C   0  0  0  0  0  0  0  0  0  0  0  0
   20.4687  -20.2647  -13.5847 C   0  0  0  0  0  0  0  0  0  0  0  0
   19.1417  -19.5944  -13.4135 C   0  0  0  0  0  0  0  0  0  0  0  0
   18.4461  -19.3685  -14.7412 C   0  0  0  0  0  0  0  0  0  0  0  0
   17.2340  -18.6206  -14.4803 N   0  0  0  0  0  0  0  0  0  0  0  0
   23.3396  -20.4948  -11.1357 C   0  0  0  0  0  0  0  0  0  0  0  0
   22.8345  -21.3455  -10.3736 O   0  0  0  0  0  0  0  0  0  0  0  0
   27.6941  -20.7530  -11.4512 C   0  0  0  0  0  0  0  0  0  0  0  0
   26.6902  -21.7383  -10.9136 C   0  0  2  0  0  0  0  0  0  0  0  0
   26.1390  -22.6399  -11.9872 C   0  0  0  0  0  0  0  0  0  0  0  0
   25.5750  -21.0325  -10.1519 C   0  0  2  0  0  0  0  0  0  0  0  0
   24.7358  -20.2655  -11.0515 N   0  0  0  0  0  0  0  0  0  0  0  0
   26.1806  -20.1517   -9.1212 C   0  0  0  0  0  0  0  0  0  0  0  0
   26.3427  -18.9392   -9.4020 O   0  0  0  0  0  0  0  0  0  0  0  0
   28.5138  -20.7074   -3.4488 C   0  0  0  0  0  0  0  0  0  0  0  0
   28.1132  -19.6650   -4.5065 C   0  0  2  0  0  0  0  0  0  0  0  0
   27.3431  -18.6018   -3.7973 C   0  0  0  0  0  0  0  0  0  0  0  0
   27.3400  -20.3938   -5.5453 C   0  0  0  0  0  0  0  0  0  0  0  0
   27.3041  -19.7634   -6.8983 C   0  0  2  0  0  0  0  0  0  0  0  0
   26.5802  -20.6082   -7.8495 N   0  0  0  0  0  0  0  0  0  0  0  0
   28.6700  -19.5675   -7.4274 C   0  0  0  0  0  0  0  0  0  0  0  0
   29.2257  -20.5000   -8.0826 O   0  0  0  0  0  0  0  0  0  0  0  0
   29.4114  -18.3927   -7.2512 O   0  0  0  0  0  0  0  0  0  0  0  0
  2  1  1  6
  3  2  1  0
  4  3  1  0
  5  6  1  0
  5  4  1  0
  6  7  1  0
  8  2  1  0
  8  9  2  0
 11 13  1  0
 11 10  1  6
 12 11  1  0
 13 14  1  6
 14  8  1  0
 15 13  1  0
 16 15  2  0
 18 17  1  1
 18 20  1  0
 19 18  1  0
 21 20  1  1
 21 23  1  0
 21 22  1  0
 22 15  1  0
 23 25  1  0
 24 23  2  0
M  END
$$$$
