KVL.pdb
     RDKit          3D

 25 24  0  0  1  0  0  0  0  0999 V2000
   28.1917  -21.6959  -18.3246 N   0  0  0  0  0  0  0  0  0  0  0  0
   27.9412  -22.4632  -17.1466 C   0  0  1  0  0  0  0  0  0  0  0  0
   28.7453  -23.7187  -17.0154 C   0  0  0  0  0  0  0  0  0  0  0  0
   28.4329  -24.7847  -18.0084 C   0  0  0  0  0  0  0  0  0  0  0  0
   28.1454  -26.1377  -17.4369 C   0  0  0  0  0  0  0  0  0  0  0  0
   29.2993  -26.6565  -16.6021 C   0  0  0  0  0  0  0  0  0  0  0  0
   28.9957  -28.0238  -16.2349 N   0  0  0  0  0  0  0  0  0  0  0  0
   28.0226  -21.6536  -15.9052 C   0  0  0  0  0  0  0  0  0  0  0  0
   28.9756  -20.8543  -15.7946 O   0  0  0  0  0  0  0  0  0  0  0  0
   25.2434  -19.5139  -15.4845 C   0  0  0  0  0  0  0  0  0  0  0  0
   26.5259  -19.3505  -14.7123 C   0  0  2  0  0  0  0  0  0  0  0  0
   27.6698  -18.9072  -15.5864 C   0  0  0  0  0  0  0  0  0  0  0  0
   26.8727  -20.6180  -13.9408 C   0  0  2  0  0  0  0  0  0  0  0  0
   27.0883  -21.7327  -14.8422 N   0  0  0  0  0  0  0  0  0  0  0  0
   25.7719  -20.9179  -12.9904 C   0  0  0  0  0  0  0  0  0  0  0  0
   24.8991  -21.7489  -13.3410 O   0  0  0  0  0  0  0  0  0  0  0  0
   26.2245  -21.6447   -8.4143 C   0  0  0  0  0  0  0  0  0  0  0  0
   26.1450  -20.1698   -8.8434 C   0  0  2  0  0  0  0  0  0  0  0  0
   26.3776  -19.3491   -7.6191 C   0  0  0  0  0  0  0  0  0  0  0  0
   24.8077  -19.9823   -9.4633 C   0  0  0  0  0  0  0  0  0  0  0  0
   24.5936  -20.6589  -10.7770 C   0  0  2  0  0  0  0  0  0  0  0  0
   25.6596  -20.3181  -11.7204 N   0  0  0  0  0  0  0  0  0  0  0  0
   23.3123  -20.2424  -11.3843 C   0  0  0  0  0  0  0  0  0  0  0  0
   23.3047  -19.3229  -12.2575 O   0  0  0  0  0  0  0  0  0  0  0  0
   22.0747  -20.8081  -11.0542 O   0  0  0  0  0  0  0  0  0  0  0  0
  2  1  1  6
  3  2  1  0
  4  3  1  0
  5  6  1  0
  5  4  1  0
  6  7  1  0
  8  2  1  0
  8  9  2  0
 11 13  1  0
 11 10  1  6
 12 11  1  0
 13 14  1  6
 14  8  1  0
 15 13  1  0
 16 15  2  0
 18 17  1  1
 18 20  1  0
 19 18  1  0
 21 20  1  1
 21 23  1  0
 21 22  1  0
 22 15  1  0
 23 25  1  0
 24 23  2  0
M  END
$$$$
