KVL.pdb
     RDKit          3D

 25 24  0  0  1  0  0  0  0  0999 V2000
   28.1423  -20.7641  -17.9055 N   0  0  0  0  0  0  0  0  0  0  0  0
   28.1493  -21.3133  -16.5873 C   0  0  1  0  0  0  0  0  0  0  0  0
   29.5044  -21.5733  -16.0075 C   0  0  0  0  0  0  0  0  0  0  0  0
   30.2917  -22.6459  -16.6783 C   0  0  0  0  0  0  0  0  0  0  0  0
   30.6592  -23.8138  -15.8175 C   0  0  0  0  0  0  0  0  0  0  0  0
   31.4813  -24.8381  -16.5741 C   0  0  0  0  0  0  0  0  0  0  0  0
   31.8418  -25.8865  -15.6428 N   0  0  0  0  0  0  0  0  0  0  0  0
   27.3100  -20.5402  -15.6381 C   0  0  0  0  0  0  0  0  0  0  0  0
   26.9630  -19.3888  -15.9746 O   0  0  0  0  0  0  0  0  0  0  0  0
   23.4119  -19.6640  -13.7496 C   0  0  0  0  0  0  0  0  0  0  0  0
   24.4981  -20.4542  -14.4303 C   0  0  2  0  0  0  0  0  0  0  0  0
   24.0887  -21.8785  -14.7005 C   0  0  0  0  0  0  0  0  0  0  0  0
   25.8038  -20.3886  -13.6475 C   0  0  2  0  0  0  0  0  0  0  0  0
   26.8806  -21.0276  -14.3782 N   0  0  0  0  0  0  0  0  0  0  0  0
   25.6060  -21.0413  -12.3285 C   0  0  0  0  0  0  0  0  0  0  0  0
   25.3697  -22.2738  -12.3091 O   0  0  0  0  0  0  0  0  0  0  0  0
   28.4052  -20.7390   -9.0303 C   0  0  0  0  0  0  0  0  0  0  0  0
   27.4027  -19.5744   -8.9623 C   0  0  2  0  0  0  0  0  0  0  0  0
   27.8788  -18.6551   -7.8877 C   0  0  0  0  0  0  0  0  0  0  0  0
   26.0699  -20.1796   -8.7066 C   0  0  0  0  0  0  0  0  0  0  0  0
   25.5060  -21.0129   -9.8098 C   0  0  2  0  0  0  0  0  0  0  0  0
   25.6704  -20.3481  -11.1035 N   0  0  0  0  0  0  0  0  0  0  0  0
   24.0605  -21.2470   -9.6105 C   0  0  0  0  0  0  0  0  0  0  0  0
   23.6733  -21.9857   -8.6554 O   0  0  0  0  0  0  0  0  0  0  0  0
   23.0636  -20.6945  -10.4240 O   0  0  0  0  0  0  0  0  0  0  0  0
  2  1  1  6
  3  2  1  0
  4  3  1  0
  5  6  1  0
  5  4  1  0
  6  7  1  0
  8  2  1  0
  8  9  2  0
 11 13  1  0
 11 10  1  1
 12 11  1  0
 13 14  1  6
 14  8  1  0
 15 13  1  0
 16 15  2  0
 18 17  1  1
 18 20  1  0
 19 18  1  0
 21 20  1  1
 21 23  1  0
 21 22  1  0
 22 15  1  0
 23 25  1  0
 24 23  2  0
M  END
$$$$
