KVL.pdb
     RDKit          3D

 25 24  0  0  1  0  0  0  0  0999 V2000
   18.7007  -23.1417  -15.1171 N   0  0  0  0  0  0  0  0  0  0  0  0
   19.7746  -22.2496  -15.4172 C   0  0  1  0  0  0  0  0  0  0  0  0
   19.4737  -20.7959  -15.2260 C   0  0  0  0  0  0  0  0  0  0  0  0
   18.0403  -20.4656  -14.9885 C   0  0  0  0  0  0  0  0  0  0  0  0
   17.6864  -20.0920  -13.5831 C   0  0  0  0  0  0  0  0  0  0  0  0
   18.0404  -18.6509  -13.2743 C   0  0  0  0  0  0  0  0  0  0  0  0
   16.8149  -17.9623  -12.9271 N   0  0  0  0  0  0  0  0  0  0  0  0
   21.0382  -22.6202  -14.7323 C   0  0  0  0  0  0  0  0  0  0  0  0
   20.9527  -23.2290  -13.6453 O   0  0  0  0  0  0  0  0  0  0  0  0
   23.5465  -25.0506  -15.8284 C   0  0  0  0  0  0  0  0  0  0  0  0
   24.2862  -23.7627  -15.5799 C   0  0  2  0  0  0  0  0  0  0  0  0
   25.7015  -23.9932  -15.1185 C   0  0  0  0  0  0  0  0  0  0  0  0
   23.5242  -22.8644  -14.6132 C   0  0  2  0  0  0  0  0  0  0  0  0
   22.3304  -22.3261  -15.2351 N   0  0  0  0  0  0  0  0  0  0  0  0
   24.4218  -21.7692  -14.1666 C   0  0  0  0  0  0  0  0  0  0  0  0
   24.5463  -20.7669  -14.9116 O   0  0  0  0  0  0  0  0  0  0  0  0
   24.5150  -19.8385  -10.1751 C   0  0  0  0  0  0  0  0  0  0  0  0
   25.3806  -21.1096  -10.1415 C   0  0  2  0  0  0  0  0  0  0  0  0
   25.8432  -21.2819   -8.7334 C   0  0  0  0  0  0  0  0  0  0  0  0
   26.4740  -20.9014  -11.1259 C   0  0  0  0  0  0  0  0  0  0  0  0
   26.0520  -20.7313  -12.5480 C   0  0  2  0  0  0  0  0  0  0  0  0
   25.1374  -21.7998  -12.9532 N   0  0  0  0  0  0  0  0  0  0  0  0
   27.2179  -20.7760  -13.4551 C   0  0  0  0  0  0  0  0  0  0  0  0
   27.6665  -21.8976  -13.8406 O   0  0  0  0  0  0  0  0  0  0  0  0
   27.8776  -19.6362  -13.9307 O   0  0  0  0  0  0  0  0  0  0  0  0
  2  1  1  1
  3  2  1  0
  4  3  1  0
  5  6  1  0
  5  4  1  0
  6  7  1  0
  8  2  1  0
  8  9  2  0
 11 13  1  0
 11 10  1  1
 12 11  1  0
 13 14  1  6
 14  8  1  0
 15 13  1  0
 16 15  2  0
 18 17  1  1
 18 20  1  0
 19 18  1  0
 21 20  1  1
 21 23  1  0
 21 22  1  0
 22 15  1  0
 23 25  1  0
 24 23  2  0
M  END
$$$$
