KVL.pdb
     RDKit          3D

 25 24  0  0  1  0  0  0  0  0999 V2000
   23.3485  -20.2173  -13.5619 N   0  0  0  0  0  0  0  0  0  0  0  0
   22.9358  -20.5241  -12.2297 C   0  0  1  0  0  0  0  0  0  0  0  0
   21.7732  -21.4599  -12.1174 C   0  0  0  0  0  0  0  0  0  0  0  0
   20.5197  -21.0049  -12.7821 C   0  0  0  0  0  0  0  0  0  0  0  0
   20.1600  -19.5676  -12.5711 C   0  0  0  0  0  0  0  0  0  0  0  0
   18.8246  -19.2202  -13.1985 C   0  0  0  0  0  0  0  0  0  0  0  0
   18.5176  -17.8496  -12.8469 N   0  0  0  0  0  0  0  0  0  0  0  0
   24.0586  -20.9737  -11.3692 C   0  0  0  0  0  0  0  0  0  0  0  0
   23.7853  -21.6972  -10.3888 O   0  0  0  0  0  0  0  0  0  0  0  0
   27.8810  -21.7236  -12.6966 C   0  0  0  0  0  0  0  0  0  0  0  0
   27.8339  -20.9807  -11.3876 C   0  0  2  0  0  0  0  0  0  0  0  0
   28.9450  -21.3886  -10.4557 C   0  0  0  0  0  0  0  0  0  0  0  0
   26.4699  -21.1177  -10.7222 C   0  0  2  0  0  0  0  0  0  0  0  0
   25.4163  -20.6329  -11.5920 N   0  0  0  0  0  0  0  0  0  0  0  0
   26.4819  -20.3638   -9.4430 C   0  0  0  0  0  0  0  0  0  0  0  0
   26.1019  -19.1677   -9.4590 O   0  0  0  0  0  0  0  0  0  0  0  0
   28.7013  -19.3586   -4.7757 C   0  0  0  0  0  0  0  0  0  0  0  0
   27.5436  -20.3402   -4.5267 C   0  0  2  0  0  0  0  0  0  0  0  0
   27.9704  -21.2409   -3.4162 C   0  0  0  0  0  0  0  0  0  0  0  0
   27.2930  -21.0330   -5.8172 C   0  0  0  0  0  0  0  0  0  0  0  0
   26.9261  -20.1581   -6.9702 C   0  0  2  0  0  0  0  0  0  0  0  0
   26.8971  -20.9226   -8.2181 N   0  0  0  0  0  0  0  0  0  0  0  0
   27.9081  -19.0667   -7.1400 C   0  0  0  0  0  0  0  0  0  0  0  0
   29.0002  -19.2973   -7.7414 O   0  0  0  0  0  0  0  0  0  0  0  0
   27.7100  -17.7622   -6.6712 O   0  0  0  0  0  0  0  0  0  0  0  0
  2  1  1  6
  3  2  1  0
  4  3  1  0
  5  6  1  0
  5  4  1  0
  6  7  1  0
  8  2  1  0
  8  9  2  0
 11 13  1  0
 11 10  1  6
 12 11  1  0
 13 14  1  6
 14  8  1  0
 15 13  1  0
 16 15  2  0
 18 17  1  6
 18 20  1  0
 19 18  1  0
 21 20  1  1
 21 23  1  0
 21 22  1  0
 22 15  1  0
 23 25  1  0
 24 23  2  0
M  END
$$$$
