KVL.pdb
     RDKit          3D

 25 24  0  0  1  0  0  0  0  0999 V2000
   18.2154  -12.4340  -17.3617 N   0  0  0  0  0  0  0  0  0  0  0  0
   18.8674  -11.1805  -17.5689 C   0  0  1  0  0  0  0  0  0  0  0  0
   18.0426  -10.1328  -18.2487 C   0  0  0  0  0  0  0  0  0  0  0  0
   18.0648  -10.1685  -19.7382 C   0  0  0  0  0  0  0  0  0  0  0  0
   17.8638  -11.5166  -20.3565 C   0  0  0  0  0  0  0  0  0  0  0  0
   17.8007  -11.4419  -21.8691 C   0  0  0  0  0  0  0  0  0  0  0  0
   17.5454  -12.7783  -22.3644 N   0  0  0  0  0  0  0  0  0  0  0  0
   19.4858  -10.6427  -16.3314 C   0  0  0  0  0  0  0  0  0  0  0  0
   18.8048  -10.6650  -15.2848 O   0  0  0  0  0  0  0  0  0  0  0  0
   23.1902   -9.4336  -13.4158 C   0  0  0  0  0  0  0  0  0  0  0  0
   22.6340  -10.1053  -14.6434 C   0  0  2  0  0  0  0  0  0  0  0  0
   23.6139  -10.1132  -15.7874 C   0  0  0  0  0  0  0  0  0  0  0  0
   21.3018   -9.4907  -15.0551 C   0  0  2  0  0  0  0  0  0  0  0  0
   20.7967  -10.1076  -16.2658 N   0  0  0  0  0  0  0  0  0  0  0  0
   21.4864   -8.0301  -15.2489 C   0  0  0  0  0  0  0  0  0  0  0  0
   22.0856   -7.6425  -16.2813 O   0  0  0  0  0  0  0  0  0  0  0  0
   20.1693   -4.5510  -17.0823 C   0  0  0  0  0  0  0  0  0  0  0  0
   19.2738   -5.1222  -15.9697 C   0  0  2  0  0  0  0  0  0  0  0  0
   17.9560   -4.4304  -16.0761 C   0  0  0  0  0  0  0  0  0  0  0  0
   19.9897   -4.8860  -14.6891 C   0  0  0  0  0  0  0  0  0  0  0  0
   21.2713   -5.6303  -14.5078 C   0  0  2  0  0  0  0  0  0  0  0  0
   21.0240   -7.0626  -14.3349 N   0  0  0  0  0  0  0  0  0  0  0  0
   21.9939   -5.1558  -13.3092 C   0  0  0  0  0  0  0  0  0  0  0  0
   21.9829   -5.8590  -12.2542 O   0  0  0  0  0  0  0  0  0  0  0  0
   22.7087   -3.9528  -13.2573 O   0  0  0  0  0  0  0  0  0  0  0  0
  2  1  1  1
  3  2  1  0
  4  3  1  0
  5  6  1  0
  5  4  1  0
  6  7  1  0
  8  2  1  0
  8  9  2  0
 11 13  1  0
 11 10  1  1
 12 11  1  0
 13 14  1  6
 14  8  1  0
 15 13  1  0
 16 15  2  0
 18 17  1  6
 18 20  1  0
 19 18  1  0
 21 20  1  1
 21 23  1  0
 21 22  1  0
 22 15  1  0
 23 25  1  0
 24 23  2  0
M  END
$$$$
