KVL.pdb
     RDKit          3D

 25 24  0  0  1  0  0  0  0  0999 V2000
   25.5496  -19.8426  -16.9253 N   0  0  0  0  0  0  0  0  0  0  0  0
   26.4031  -20.1422  -15.8203 C   0  0  1  0  0  0  0  0  0  0  0  0
   27.8207  -19.6831  -15.9614 C   0  0  0  0  0  0  0  0  0  0  0  0
   28.6205  -20.3883  -17.0022 C   0  0  0  0  0  0  0  0  0  0  0  0
   28.4200  -21.8694  -17.0795 C   0  0  0  0  0  0  0  0  0  0  0  0
   29.6056  -22.5688  -17.7142 C   0  0  0  0  0  0  0  0  0  0  0  0
   30.5026  -22.9662  -16.6493 N   0  0  0  0  0  0  0  0  0  0  0  0
   25.8353  -19.7055  -14.5203 C   0  0  0  0  0  0  0  0  0  0  0  0
   25.6994  -18.4790  -14.3286 O   0  0  0  0  0  0  0  0  0  0  0  0
   22.8999  -21.7131  -12.4095 C   0  0  0  0  0  0  0  0  0  0  0  0
   23.2989  -20.2626  -12.3408 C   0  0  2  0  0  0  0  0  0  0  0  0
   22.7114  -19.4517  -13.4662 C   0  0  0  0  0  0  0  0  0  0  0  0
   24.8133  -20.1077  -12.2736 C   0  0  2  0  0  0  0  0  0  0  0  0
   25.4397  -20.5924  -13.4879 N   0  0  0  0  0  0  0  0  0  0  0  0
   25.3197  -20.8489  -11.0908 C   0  0  0  0  0  0  0  0  0  0  0  0
   25.5348  -22.0794  -11.2127 O   0  0  0  0  0  0  0  0  0  0  0  0
   28.7464  -20.7687   -8.0020 C   0  0  0  0  0  0  0  0  0  0  0  0
   27.7625  -19.5894   -7.9180 C   0  0  2  0  0  0  0  0  0  0  0  0
   28.3073  -18.6420   -6.9021 C   0  0  0  0  0  0  0  0  0  0  0  0
   26.4389  -20.1683   -7.5702 C   0  0  0  0  0  0  0  0  0  0  0  0
   25.7961  -21.0123   -8.6209 C   0  0  2  0  0  0  0  0  0  0  0  0
   25.5694  -20.2414   -9.8443 N   0  0  0  0  0  0  0  0  0  0  0  0
   24.4847  -21.5183   -8.1644 C   0  0  0  0  0  0  0  0  0  0  0  0
   24.4393  -22.4781   -7.3370 O   0  0  0  0  0  0  0  0  0  0  0  0
   23.2578  -20.9969   -8.5928 O   0  0  0  0  0  0  0  0  0  0  0  0
  2  1  1  6
  3  2  1  0
  4  3  1  0
  5  6  1  0
  5  4  1  0
  6  7  1  0
  8  2  1  0
  8  9  2  0
 11 13  1  0
 11 10  1  6
 12 11  1  0
 13 14  1  6
 14  8  1  0
 15 13  1  0
 16 15  2  0
 18 17  1  1
 18 20  1  0
 19 18  1  0
 21 20  1  1
 21 23  1  0
 21 22  1  0
 22 15  1  0
 23 25  1  0
 24 23  2  0
M  END
$$$$
