KVL.pdb
     RDKit          3D

 25 24  0  0  1  0  0  0  0  0999 V2000
   25.8700  -19.0839  -15.6333 N   0  0  0  0  0  0  0  0  0  0  0  0
   26.9021  -18.9971  -14.6502 C   0  0  1  0  0  0  0  0  0  0  0  0
   27.9365  -17.9439  -14.8971 C   0  0  0  0  0  0  0  0  0  0  0  0
   28.3378  -17.7632  -16.3206 C   0  0  0  0  0  0  0  0  0  0  0  0
   29.6132  -18.4344  -16.7239 C   0  0  0  0  0  0  0  0  0  0  0  0
   30.2129  -17.8096  -17.9680 C   0  0  0  0  0  0  0  0  0  0  0  0
   29.3476  -18.1336  -19.0828 N   0  0  0  0  0  0  0  0  0  0  0  0
   26.3719  -18.9004  -13.2672 C   0  0  0  0  0  0  0  0  0  0  0  0
   26.0243  -17.7737  -12.8560 O   0  0  0  0  0  0  0  0  0  0  0  0
   24.4670  -22.0773  -11.2456 C   0  0  0  0  0  0  0  0  0  0  0  0
   24.2852  -20.5980  -11.0302 C   0  0  2  0  0  0  0  0  0  0  0  0
   23.2851  -19.9976  -11.9833 C   0  0  0  0  0  0  0  0  0  0  0  0
   25.6187  -19.8626  -11.0854 C   0  0  2  0  0  0  0  0  0  0  0  0
   26.2370  -20.0047  -12.3889 N   0  0  0  0  0  0  0  0  0  0  0  0
   26.5068  -20.3986  -10.0229 C   0  0  0  0  0  0  0  0  0  0  0  0
   27.1579  -21.4430  -10.2687 O   0  0  0  0  0  0  0  0  0  0  0  0
   27.7147  -20.3846   -4.7176 C   0  0  0  0  0  0  0  0  0  0  0  0
   28.8315  -19.8909   -5.6530 C   0  0  2  0  0  0  0  0  0  0  0  0
   29.5901  -18.8444   -4.9076 C   0  0  0  0  0  0  0  0  0  0  0  0
   28.1630  -19.4028   -6.8871 C   0  0  0  0  0  0  0  0  0  0  0  0
   27.3979  -20.4221   -7.6650 C   0  0  2  0  0  0  0  0  0  0  0  0
   26.6537  -19.7950   -8.7582 N   0  0  0  0  0  0  0  0  0  0  0  0
   26.4202  -21.1203   -6.8044 C   0  0  0  0  0  0  0  0  0  0  0  0
   25.2784  -20.6042   -6.6104 O   0  0  0  0  0  0  0  0  0  0  0  0
   26.6740  -22.3441   -6.1730 O   0  0  0  0  0  0  0  0  0  0  0  0
  2  1  1  6
  3  2  1  0
  4  3  1  0
  5  6  1  0
  5  4  1  0
  6  7  1  0
  8  2  1  0
  8  9  2  0
 11 13  1  0
 11 10  1  6
 12 11  1  0
 13 14  1  6
 14  8  1  0
 15 13  1  0
 16 15  2  0
 18 17  1  1
 18 20  1  0
 19 18  1  0
 21 20  1  1
 21 23  1  0
 21 22  1  0
 22 15  1  0
 23 25  1  0
 24 23  2  0
M  END
$$$$
