KVL.pdb
     RDKit          3D

 25 24  0  0  1  0  0  0  0  0999 V2000
   20.8174  -20.8803  -13.5519 N   0  0  0  0  0  0  0  0  0  0  0  0
   21.7941  -20.6044  -12.5473 C   0  0  1  0  0  0  0  0  0  0  0  0
   21.5400  -21.2364  -11.2146 C   0  0  0  0  0  0  0  0  0  0  0  0
   20.2367  -21.9462  -11.0817 C   0  0  0  0  0  0  0  0  0  0  0  0
   19.8566  -22.3467   -9.6906 C   0  0  0  0  0  0  0  0  0  0  0  0
   18.4646  -22.9441   -9.6340 C   0  0  0  0  0  0  0  0  0  0  0  0
   18.1892  -23.2854   -8.2541 N   0  0  0  0  0  0  0  0  0  0  0  0
   23.1802  -20.8761  -13.0032 C   0  0  0  0  0  0  0  0  0  0  0  0
   23.3779  -21.9082  -13.6778 O   0  0  0  0  0  0  0  0  0  0  0  0
   26.6720  -18.2169  -12.8263 C   0  0  0  0  0  0  0  0  0  0  0  0
   26.4805  -19.4612  -13.6525 C   0  0  2  0  0  0  0  0  0  0  0  0
   25.9004  -19.1649  -15.0108 C   0  0  0  0  0  0  0  0  0  0  0  0
   25.6505  -20.4987  -12.9063 C   0  0  2  0  0  0  0  0  0  0  0  0
   24.2883  -20.0387  -12.7204 N   0  0  0  0  0  0  0  0  0  0  0  0
   26.2932  -20.7762  -11.5969 C   0  0  0  0  0  0  0  0  0  0  0  0
   27.2502  -21.5878  -11.5690 O   0  0  0  0  0  0  0  0  0  0  0  0
   27.4178  -18.4885   -6.1140 C   0  0  0  0  0  0  0  0  0  0  0  0
   27.2411  -19.8213   -6.8610 C   0  0  2  0  0  0  0  0  0  0  0  0
   28.5678  -20.5042   -6.8489 C   0  0  0  0  0  0  0  0  0  0  0  0
   26.7379  -19.4813   -8.2172 C   0  0  0  0  0  0  0  0  0  0  0  0
   26.3492  -20.6358   -9.0806 C   0  0  2  0  0  0  0  0  0  0  0  0
   25.8834  -20.1759  -10.3898 N   0  0  0  0  0  0  0  0  0  0  0  0
   25.2519  -21.4111   -8.4651 C   0  0  0  0  0  0  0  0  0  0  0  0
   25.5063  -22.1994   -7.5051 O   0  0  0  0  0  0  0  0  0  0  0  0
   23.9165  -21.3324   -8.8791 O   0  0  0  0  0  0  0  0  0  0  0  0
  2  1  1  6
  3  2  1  0
  4  3  1  0
  5  6  1  0
  5  4  1  0
  6  7  1  0
  8  2  1  0
  8  9  2  0
 11 13  1  0
 11 10  1  1
 12 11  1  0
 13 14  1  1
 14  8  1  0
 15 13  1  0
 16 15  2  0
 18 17  1  1
 18 20  1  0
 19 18  1  0
 21 20  1  1
 21 23  1  0
 21 22  1  0
 22 15  1  0
 23 25  1  0
 24 23  2  0
M  END
$$$$
