NFR.pdb
     RDKit          3D

 31 31  0  0  1  0  0  0  0  0999 V2000
   28.7359  -17.7255  -16.8370 N   0  0  0  0  0  0  0  0  0  0  0  0
   28.2986  -17.6783  -15.4860 C   0  0  0  0  0  0  0  0  0  0  0  0
   28.7589  -16.7878  -14.7408 O   0  0  0  0  0  0  0  0  0  0  0  0
   27.3164  -18.6894  -15.0264 C   0  0  0  0  0  0  0  0  0  0  0  0
   27.9225  -19.6104  -14.0036 C   0  0  2  0  0  0  0  0  0  0  0  0
   28.9821  -20.3951  -14.5618 N   0  0  0  0  0  0  0  0  0  0  0  0
   26.8692  -20.4369  -13.3777 C   0  0  0  0  0  0  0  0  0  0  0  0
   26.6494  -21.5722  -13.8716 O   0  0  0  0  0  0  0  0  0  0  0  0
   26.1089  -20.0004  -12.2560 N   0  0  0  0  0  0  0  0  0  0  0  0
   25.0959  -20.8687  -11.6974 C   0  0  1  0  0  0  0  0  0  0  0  0
   24.7689  -20.4549  -10.2879 C   0  0  0  0  0  0  0  0  0  0  0  0
   25.9332  -20.5020   -9.3856 C   0  0  0  0  0  0  0  0  0  0  0  0
   26.2945  -19.4060   -8.6384 C   0  0  0  0  0  0  0  0  0  0  0  0
   27.3930  -19.4325   -7.7802 C   0  0  0  0  0  0  0  0  0  0  0  0
   28.1320  -20.5675   -7.6731 C   0  0  0  0  0  0  0  0  0  0  0  0
   27.8013  -21.6792   -8.4027 C   0  0  0  0  0  0  0  0  0  0  0  0
   26.6939  -21.6415   -9.2632 C   0  0  0  0  0  0  0  0  0  0  0  0
   23.8990  -20.8609  -12.5798 C   0  0  0  0  0  0  0  0  0  0  0  0
   23.5621  -19.8496  -13.2516 O   0  0  0  0  0  0  0  0  0  0  0  0
   19.6435  -27.9927  -15.4427 N   0  0  0  0  0  0  0  0  0  0  0  0
   20.8556  -27.6011  -14.8183 C   0  0  0  0  0  0  0  0  0  0  0  0
   21.6443  -28.5531  -14.4321 N   0  0  0  0  0  0  0  0  0  0  0  0
   21.1656  -26.2265  -14.6369 N   0  0  0  0  0  0  0  0  0  0  0  0
   20.2049  -25.2471  -15.0837 C   0  0  0  0  0  0  0  0  0  0  0  0
   20.5377  -23.8404  -14.7808 C   0  0  0  0  0  0  0  0  0  0  0  0
   21.6954  -23.4654  -13.9789 C   0  0  0  0  0  0  0  0  0  0  0  0
   21.9226  -22.0391  -13.6712 C   0  0  2  0  0  0  0  0  0  0  0  0
   23.0948  -22.0064  -12.6899 N   0  0  0  0  0  0  0  0  0  0  0  0
   20.8556  -21.4613  -12.8450 C   0  0  0  0  0  0  0  0  0  0  0  0
   19.7639  -20.8132  -13.3186 O   0  0  0  0  0  0  0  0  0  0  0  0
   20.9366  -21.5544  -11.5705 O   0  0  0  0  0  0  0  0  0  0  0  0
  2  1  1  0
  2  3  2  0
  4  5  1  0
  4  2  1  0
  5  6  1  6
  7  8  2  0
  7  5  1  0
  9  7  1  0
 10  9  1  0
 10 11  1  1
 11 12  1  0
 12 13  2  0
 12 17  1  0
 13 14  1  0
 14 15  2  0
 16 15  1  0
 17 16  2  0
 18 28  1  0
 18 10  1  0
 19 18  2  0
 20 21  1  0
 21 23  1  0
 22 21  2  0
 23 24  1  0
 25 24  1  0
 25 26  1  0
 27 26  1  1
 27 28  1  0
 27 29  1  0
 29 30  1  0
 31 29  2  0
M  END
$$$$
