NFR.pdb
     RDKit          3D

 31 31  0  0  1  0  0  0  0  0999 V2000
   26.3459  -19.0069  -20.0280 N   0  0  0  0  0  0  0  0  0  0  0  0
   27.0748  -19.1718  -18.8196 C   0  0  0  0  0  0  0  0  0  0  0  0
   28.2278  -18.6968  -18.7489 O   0  0  0  0  0  0  0  0  0  0  0  0
   26.4303  -19.9004  -17.7006 C   0  0  0  0  0  0  0  0  0  0  0  0
   27.3366  -20.9689  -17.1542 C   0  0  2  0  0  0  0  0  0  0  0  0
   27.3091  -22.1495  -17.9640 N   0  0  0  0  0  0  0  0  0  0  0  0
   27.0062  -21.2398  -15.7393 C   0  0  0  0  0  0  0  0  0  0  0  0
   26.2170  -22.1883  -15.4969 O   0  0  0  0  0  0  0  0  0  0  0  0
   27.5403  -20.4783  -14.6616 N   0  0  0  0  0  0  0  0  0  0  0  0
   27.1153  -20.7595  -13.3079 C   0  0  1  0  0  0  0  0  0  0  0  0
   28.0984  -20.1914  -12.3202 C   0  0  0  0  0  0  0  0  0  0  0  0
   27.7499  -20.4892  -10.9195 C   0  0  0  0  0  0  0  0  0  0  0  0
   28.0429  -21.7110  -10.3615 C   0  0  0  0  0  0  0  0  0  0  0  0
   27.7202  -22.0101   -9.0386 C   0  0  0  0  0  0  0  0  0  0  0  0
   27.0994  -21.0752   -8.2728 C   0  0  0  0  0  0  0  0  0  0  0  0
   26.7920  -19.8465   -8.7956 C   0  0  0  0  0  0  0  0  0  0  0  0
   27.1213  -19.5561  -10.1281 C   0  0  0  0  0  0  0  0  0  0  0  0
   25.7405  -20.2310  -13.1031 C   0  0  0  0  0  0  0  0  0  0  0  0
   25.4072  -19.0654  -13.4463 O   0  0  0  0  0  0  0  0  0  0  0  0
   23.5671  -20.8282  -16.9764 N   0  0  0  0  0  0  0  0  0  0  0  0
   22.4506  -19.9919  -17.2344 C   0  0  0  0  0  0  0  0  0  0  0  0
   21.9716  -20.0168  -18.4374 N   0  0  0  0  0  0  0  0  0  0  0  0
   21.9039  -19.1766  -16.2073 N   0  0  0  0  0  0  0  0  0  0  0  0
   22.2816  -19.4554  -14.8429 C   0  0  0  0  0  0  0  0  0  0  0  0
   22.0852  -20.8497  -14.3972 C   0  0  0  0  0  0  0  0  0  0  0  0
   22.4362  -21.2992  -13.0560 C   0  0  0  0  0  0  0  0  0  0  0  0
   23.3563  -20.4788  -12.2430 C   0  0  2  0  0  0  0  0  0  0  0  0
   24.7556  -21.0355  -12.5085 N   0  0  0  0  0  0  0  0  0  0  0  0
   23.2251  -20.7384  -10.8042 C   0  0  0  0  0  0  0  0  0  0  0  0
   22.4350  -20.0408   -9.9525 O   0  0  0  0  0  0  0  0  0  0  0  0
   23.9034  -21.6894  -10.2795 O   0  0  0  0  0  0  0  0  0  0  0  0
  2  1  1  0
  2  3  2  0
  4  5  1  0
  4  2  1  0
  5  6  1  6
  7  8  2  0
  7  5  1  0
  9  7  1  0
 10  9  1  0
 10 11  1  1
 11 12  1  0
 12 13  2  0
 12 17  1  0
 13 14  1  0
 14 15  2  0
 16 15  1  0
 17 16  2  0
 18 28  1  0
 18 10  1  0
 19 18  2  0
 20 21  1  0
 21 23  1  0
 22 21  2  0
 23 24  1  0
 25 24  1  0
 25 26  1  0
 27 26  1  6
 27 28  1  0
 27 29  1  0
 29 30  1  0
 31 29  2  0
M  END
$$$$
