NFR.pdb
     RDKit          3D

 31 31  0  0  1  0  0  0  0  0999 V2000
   28.6719  -19.8557  -18.7136 N   0  0  0  0  0  0  0  0  0  0  0  0
   27.2559  -19.8752  -18.5983 C   0  0  0  0  0  0  0  0  0  0  0  0
   26.5807  -19.2358  -19.4321 O   0  0  0  0  0  0  0  0  0  0  0  0
   26.6486  -20.6545  -17.4927 C   0  0  0  0  0  0  0  0  0  0  0  0
   27.7021  -21.3495  -16.6749 C   0  0  2  0  0  0  0  0  0  0  0  0
   28.1713  -22.5390  -17.3192 N   0  0  0  0  0  0  0  0  0  0  0  0
   27.1991  -21.6014  -15.3082 C   0  0  0  0  0  0  0  0  0  0  0  0
   27.1383  -22.7963  -14.9210 O   0  0  0  0  0  0  0  0  0  0  0  0
   26.7887  -20.5578  -14.4311 N   0  0  0  0  0  0  0  0  0  0  0  0
   26.4267  -20.8718  -13.0664 C   0  0  1  0  0  0  0  0  0  0  0  0
   26.8558  -19.7649  -12.1415 C   0  0  0  0  0  0  0  0  0  0  0  0
   26.5217  -20.0272  -10.7302 C   0  0  0  0  0  0  0  0  0  0  0  0
   25.2915  -19.6873  -10.2191 C   0  0  0  0  0  0  0  0  0  0  0  0
   24.9585  -19.9275   -8.8867 C   0  0  0  0  0  0  0  0  0  0  0  0
   25.8678  -20.5127   -8.0641 C   0  0  0  0  0  0  0  0  0  0  0  0
   27.1038  -20.8650   -8.5391 C   0  0  0  0  0  0  0  0  0  0  0  0
   27.4284  -20.6186   -9.8816 C   0  0  0  0  0  0  0  0  0  0  0  0
   24.9648  -21.1341  -12.9922 C   0  0  0  0  0  0  0  0  0  0  0  0
   24.3954  -21.4861  -11.9248 O   0  0  0  0  0  0  0  0  0  0  0  0
   24.9822  -25.5121  -16.0222 N   0  0  0  0  0  0  0  0  0  0  0  0
   23.7095  -26.1299  -16.1267 C   0  0  0  0  0  0  0  0  0  0  0  0
   23.6707  -27.4131  -15.9556 N   0  0  0  0  0  0  0  0  0  0  0  0
   22.5503  -25.3576  -16.4064 N   0  0  0  0  0  0  0  0  0  0  0  0
   22.6533  -23.9207  -16.3246 C   0  0  0  0  0  0  0  0  0  0  0  0
   23.1750  -23.3886  -15.0494 C   0  0  0  0  0  0  0  0  0  0  0  0
   22.3640  -22.5784  -14.1494 C   0  0  0  0  0  0  0  0  0  0  0  0
   22.6431  -21.1326  -14.0387 C   0  0  2  0  0  0  0  0  0  0  0  0
   24.1628  -20.9933  -14.1358 N   0  0  0  0  0  0  0  0  0  0  0  0
   22.4047  -20.6118  -12.6871 C   0  0  0  0  0  0  0  0  0  0  0  0
   21.3006  -19.9311  -12.2949 O   0  0  0  0  0  0  0  0  0  0  0  0
   23.2950  -20.7929  -11.7849 O   0  0  0  0  0  0  0  0  0  0  0  0
  2  1  1  0
  2  3  2  0
  4  5  1  0
  4  2  1  0
  5  6  1  6
  7  8  2  0
  7  5  1  0
  9  7  1  0
 10  9  1  0
 10 11  1  1
 11 12  1  0
 12 13  2  0
 12 17  1  0
 13 14  1  0
 14 15  2  0
 16 15  1  0
 17 16  2  0
 18 28  1  0
 18 10  1  0
 19 18  2  0
 20 21  1  0
 21 23  1  0
 22 21  2  0
 23 24  1  0
 25 24  1  0
 25 26  1  0
 27 26  1  1
 27 28  1  0
 27 29  1  0
 29 30  1  0
 31 29  2  0
M  END
$$$$
