NFR.pdb
     RDKit          3D

 31 31  0  0  1  0  0  0  0  0999 V2000
   29.9461  -21.2859  -18.8474 N   0  0  0  0  0  0  0  0  0  0  0  0
   28.5902  -20.8797  -18.9700 C   0  0  0  0  0  0  0  0  0  0  0  0
   28.2492  -20.2377  -19.9857 O   0  0  0  0  0  0  0  0  0  0  0  0
   27.6453  -21.2382  -17.8850 C   0  0  0  0  0  0  0  0  0  0  0  0
   28.3289  -22.0397  -16.8117 C   0  0  2  0  0  0  0  0  0  0  0  0
   28.5962  -23.3788  -17.2421 N   0  0  0  0  0  0  0  0  0  0  0  0
   27.5421  -21.9886  -15.5616 C   0  0  0  0  0  0  0  0  0  0  0  0
   26.6105  -22.8221  -15.4253 O   0  0  0  0  0  0  0  0  0  0  0  0
   27.7975  -21.0459  -14.5258 N   0  0  0  0  0  0  0  0  0  0  0  0
   26.9963  -21.0721  -13.3217 C   0  0  1  0  0  0  0  0  0  0  0  0
   27.7004  -20.3471  -12.2067 C   0  0  0  0  0  0  0  0  0  0  0  0
   26.9189  -20.3066  -10.9578 C   0  0  0  0  0  0  0  0  0  0  0  0
   26.2958  -19.1510  -10.5499 C   0  0  0  0  0  0  0  0  0  0  0  0
   25.5529  -19.0944   -9.3714 C   0  0  0  0  0  0  0  0  0  0  0  0
   25.4362  -20.2061   -8.5992 C   0  0  0  0  0  0  0  0  0  0  0  0
   26.0438  -21.3754   -8.9746 C   0  0  0  0  0  0  0  0  0  0  0  0
   26.7889  -21.4213  -10.1624 C   0  0  0  0  0  0  0  0  0  0  0  0
   25.6551  -20.4980  -13.6096 C   0  0  0  0  0  0  0  0  0  0  0  0
   25.4962  -19.4935  -14.3533 O   0  0  0  0  0  0  0  0  0  0  0  0
   23.8600  -25.6739  -16.2473 N   0  0  0  0  0  0  0  0  0  0  0  0
   22.5147  -25.7274  -15.8004 C   0  0  0  0  0  0  0  0  0  0  0  0
   22.0754  -26.8838  -15.4167 N   0  0  0  0  0  0  0  0  0  0  0  0
   21.7099  -24.5568  -15.7845 N   0  0  0  0  0  0  0  0  0  0  0  0
   22.3586  -23.2817  -15.9721 C   0  0  0  0  0  0  0  0  0  0  0  0
   22.7491  -22.5747  -14.7355 C   0  0  0  0  0  0  0  0  0  0  0  0
   22.6877  -21.1239  -14.6110 C   0  0  0  0  0  0  0  0  0  0  0  0
   23.1219  -20.4940  -13.3480 C   0  0  2  0  0  0  0  0  0  0  0  0
   24.5047  -21.0736  -13.0474 N   0  0  0  0  0  0  0  0  0  0  0  0
   22.3638  -20.9738  -12.1861 C   0  0  0  0  0  0  0  0  0  0  0  0
   21.2250  -20.4144  -11.7102 O   0  0  0  0  0  0  0  0  0  0  0  0
   22.7897  -21.9971  -11.5451 O   0  0  0  0  0  0  0  0  0  0  0  0
  2  1  1  0
  2  3  2  0
  4  5  1  0
  4  2  1  0
  5  6  1  6
  7  8  2  0
  7  5  1  0
  9  7  1  0
 10  9  1  0
 10 11  1  1
 11 12  1  0
 12 13  2  0
 12 17  1  0
 13 14  1  0
 14 15  2  0
 16 15  1  0
 17 16  2  0
 18 28  1  0
 18 10  1  0
 19 18  2  0
 20 21  1  0
 21 23  1  0
 22 21  2  0
 23 24  1  0
 25 24  1  0
 25 26  1  0
 27 26  1  6
 27 28  1  0
 27 29  1  0
 29 30  1  0
 31 29  2  0
M  END
$$$$
