NFR.pdb
     RDKit          3D

 31 31  0  0  1  0  0  0  0  0999 V2000
   19.0620  -21.8052  -11.6536 N   0  0  0  0  0  0  0  0  0  0  0  0
   19.7696  -22.2423  -12.8054 C   0  0  0  0  0  0  0  0  0  0  0  0
   19.2119  -23.0506  -13.5772 O   0  0  0  0  0  0  0  0  0  0  0  0
   21.1371  -21.7171  -13.0351 C   0  0  0  0  0  0  0  0  0  0  0  0
   21.5986  -20.8774  -11.8760 C   0  0  2  0  0  0  0  0  0  0  0  0
   20.7972  -19.7006  -11.7243 N   0  0  0  0  0  0  0  0  0  0  0  0
   23.0386  -20.5734  -12.0113 C   0  0  0  0  0  0  0  0  0  0  0  0
   23.3567  -19.4175  -12.3908 O   0  0  0  0  0  0  0  0  0  0  0  0
   24.0591  -21.5261  -11.7322 N   0  0  0  0  0  0  0  0  0  0  0  0
   25.4469  -21.1206  -11.7756 C   0  0  1  0  0  0  0  0  0  0  0  0
   26.2589  -21.9220  -10.7942 C   0  0  0  0  0  0  0  0  0  0  0  0
   26.6774  -21.1423   -9.6156 C   0  0  0  0  0  0  0  0  0  0  0  0
   25.7488  -20.6069   -8.7548 C   0  0  0  0  0  0  0  0  0  0  0  0
   26.1267  -19.8664   -7.6355 C   0  0  0  0  0  0  0  0  0  0  0  0
   27.4457  -19.6634   -7.3809 C   0  0  0  0  0  0  0  0  0  0  0  0
   28.3990  -20.1821   -8.2172 C   0  0  0  0  0  0  0  0  0  0  0  0
   28.0077  -20.9257   -9.3406 C   0  0  0  0  0  0  0  0  0  0  0  0
   25.9549  -21.2502  -13.1671 C   0  0  0  0  0  0  0  0  0  0  0  0
   25.6535  -22.2238  -13.9079 O   0  0  0  0  0  0  0  0  0  0  0  0
   28.7540  -16.4610  -19.6217 N   0  0  0  0  0  0  0  0  0  0  0  0
   28.1161  -15.9499  -18.4622 C   0  0  0  0  0  0  0  0  0  0  0  0
   27.2493  -15.0050  -18.6446 N   0  0  0  0  0  0  0  0  0  0  0  0
   28.4303  -16.4654  -17.1762 N   0  0  0  0  0  0  0  0  0  0  0  0
   29.2735  -17.6337  -17.0982 C   0  0  0  0  0  0  0  0  0  0  0  0
   28.5913  -18.8916  -16.7330 C   0  0  0  0  0  0  0  0  0  0  0  0
   27.8829  -19.0596  -15.4705 C   0  0  0  0  0  0  0  0  0  0  0  0
   27.2963  -20.3757  -15.1474 C   0  0  2  0  0  0  0  0  0  0  0  0
   26.8031  -20.2687  -13.7039 N   0  0  0  0  0  0  0  0  0  0  0  0
   28.3092  -21.4299  -15.0148 C   0  0  0  0  0  0  0  0  0  0  0  0
   28.5895  -22.3674  -15.9523 O   0  0  0  0  0  0  0  0  0  0  0  0
   28.9957  -21.5007  -13.9363 O   0  0  0  0  0  0  0  0  0  0  0  0
  2  1  1  0
  2  3  2  0
  4  5  1  0
  4  2  1  0
  5  6  1  6
  7  8  2  0
  7  5  1  0
  9  7  1  0
 10  9  1  0
 10 11  1  1
 11 12  1  0
 12 13  2  0
 12 17  1  0
 13 14  1  0
 14 15  2  0
 16 15  1  0
 17 16  2  0
 18 28  1  0
 18 10  1  0
 19 18  2  0
 20 21  1  0
 21 23  1  0
 22 21  2  0
 23 24  1  0
 25 24  1  0
 25 26  1  0
 27 26  1  1
 27 28  1  0
 27 29  1  0
 29 30  1  0
 31 29  2  0
M  END
$$$$
