NFR.pdb
     RDKit          3D

 31 31  0  0  1  0  0  0  0  0999 V2000
   20.8090  -22.8561   -6.3928 N   0  0  0  0  0  0  0  0  0  0  0  0
   20.7897  -22.5902   -7.7883 C   0  0  0  0  0  0  0  0  0  0  0  0
   19.8146  -22.9905   -8.4584 O   0  0  0  0  0  0  0  0  0  0  0  0
   21.9293  -21.8499   -8.3815 C   0  0  0  0  0  0  0  0  0  0  0  0
   23.0034  -21.5962   -7.3599 C   0  0  2  0  0  0  0  0  0  0  0  0
   22.4882  -20.9167   -6.2097 N   0  0  0  0  0  0  0  0  0  0  0  0
   24.1380  -20.8831   -7.9832 C   0  0  0  0  0  0  0  0  0  0  0  0
   23.8738  -19.8942   -8.7136 O   0  0  0  0  0  0  0  0  0  0  0  0
   25.4943  -21.2697   -7.7890 N   0  0  0  0  0  0  0  0  0  0  0  0
   26.5394  -20.6165   -8.5462 C   0  0  1  0  0  0  0  0  0  0  0  0
   27.8661  -20.7733   -7.8533 C   0  0  0  0  0  0  0  0  0  0  0  0
   27.9347  -20.0601   -6.5653 C   0  0  0  0  0  0  0  0  0  0  0  0
   27.9716  -18.6867   -6.5178 C   0  0  0  0  0  0  0  0  0  0  0  0
   28.0371  -17.9956   -5.3087 C   0  0  0  0  0  0  0  0  0  0  0  0
   28.0655  -18.6898   -4.1412 C   0  0  0  0  0  0  0  0  0  0  0  0
   28.0301  -20.0595   -4.1503 C   0  0  0  0  0  0  0  0  0  0  0  0
   27.9643  -20.7448   -5.3727 C   0  0  0  0  0  0  0  0  0  0  0  0
   26.5581  -21.1596   -9.9304 C   0  0  0  0  0  0  0  0  0  0  0  0
   26.3376  -22.3743  -10.1820 O   0  0  0  0  0  0  0  0  0  0  0  0
   24.5869  -24.0850  -16.2858 N   0  0  0  0  0  0  0  0  0  0  0  0
   23.8173  -24.6038  -15.2130 C   0  0  0  0  0  0  0  0  0  0  0  0
   23.5917  -25.8790  -15.2230 N   0  0  0  0  0  0  0  0  0  0  0  0
   23.3294  -23.7461  -14.1908 N   0  0  0  0  0  0  0  0  0  0  0  0
   23.6649  -22.3445  -14.2602 C   0  0  0  0  0  0  0  0  0  0  0  0
   25.0545  -22.0007  -13.8967 C   0  0  0  0  0  0  0  0  0  0  0  0
   25.3913  -21.3099  -12.6584 C   0  0  0  0  0  0  0  0  0  0  0  0
   26.7791  -20.8508  -12.4486 C   0  0  2  0  0  0  0  0  0  0  0  0
   26.8280  -20.3136  -11.0177 N   0  0  0  0  0  0  0  0  0  0  0  0
   27.0947  -19.6359  -13.2097 C   0  0  0  0  0  0  0  0  0  0  0  0
   27.8587  -19.5900  -14.3279 O   0  0  0  0  0  0  0  0  0  0  0  0
   26.6316  -18.5120  -12.8072 O   0  0  0  0  0  0  0  0  0  0  0  0
  2  1  1  0
  2  3  2  0
  4  5  1  0
  4  2  1  0
  5  6  1  1
  7  8  2  0
  7  5  1  0
  9  7  1  0
 10  9  1  0
 10 11  1  1
 11 12  1  0
 12 13  2  0
 12 17  1  0
 13 14  1  0
 14 15  2  0
 16 15  1  0
 17 16  2  0
 18 28  1  0
 18 10  1  0
 19 18  2  0
 20 21  1  0
 21 23  1  0
 22 21  2  0
 23 24  1  0
 25 24  1  0
 25 26  1  0
 27 26  1  6
 27 28  1  0
 27 29  1  0
 29 30  1  0
 31 29  2  0
M  END
$$$$
