NFR.pdb
     RDKit          3D

 31 31  0  0  1  0  0  0  0  0999 V2000
   31.1994  -21.2661  -19.2443 N   0  0  0  0  0  0  0  0  0  0  0  0
   29.8523  -21.6840  -19.0732 C   0  0  0  0  0  0  0  0  0  0  0  0
   29.1387  -21.8272  -20.0882 O   0  0  0  0  0  0  0  0  0  0  0  0
   29.3591  -21.9298  -17.6967 C   0  0  0  0  0  0  0  0  0  0  0  0
   28.0716  -21.1958  -17.4415 C   0  0  2  0  0  0  0  0  0  0  0  0
   28.1954  -19.7980  -17.7258 N   0  0  0  0  0  0  0  0  0  0  0  0
   27.6021  -21.4586  -16.0649 C   0  0  0  0  0  0  0  0  0  0  0  0
   27.4378  -22.6580  -15.7247 O   0  0  0  0  0  0  0  0  0  0  0  0
   27.3342  -20.4205  -15.1283 N   0  0  0  0  0  0  0  0  0  0  0  0
   26.7416  -20.7464  -13.8497 C   0  0  1  0  0  0  0  0  0  0  0  0
   27.4222  -19.9831  -12.7457 C   0  0  0  0  0  0  0  0  0  0  0  0
   26.7819  -20.1709  -11.4316 C   0  0  0  0  0  0  0  0  0  0  0  0
   27.2377  -21.1240  -10.5518 C   0  0  0  0  0  0  0  0  0  0  0  0
   26.6439  -21.3158   -9.3050 C   0  0  0  0  0  0  0  0  0  0  0  0
   25.5861  -20.5448   -8.9413 C   0  0  0  0  0  0  0  0  0  0  0  0
   25.1050  -19.5850   -9.7926 C   0  0  0  0  0  0  0  0  0  0  0  0
   25.7100  -19.4005  -11.0449 C   0  0  0  0  0  0  0  0  0  0  0  0
   25.2796  -20.4799  -13.9019 C   0  0  0  0  0  0  0  0  0  0  0  0
   24.8037  -19.4189  -14.3869 O   0  0  0  0  0  0  0  0  0  0  0  0
   18.2126  -22.2500  -12.2106 N   0  0  0  0  0  0  0  0  0  0  0  0
   17.7445  -22.7117  -13.4677 C   0  0  0  0  0  0  0  0  0  0  0  0
   16.5179  -22.4273  -13.7712 N   0  0  0  0  0  0  0  0  0  0  0  0
   18.5982  -23.4478  -14.3324 N   0  0  0  0  0  0  0  0  0  0  0  0
   19.9959  -23.5460  -13.9878 C   0  0  0  0  0  0  0  0  0  0  0  0
   20.8137  -22.3533  -14.2875 C   0  0  0  0  0  0  0  0  0  0  0  0
   22.2572  -22.3242  -14.0886 C   0  0  0  0  0  0  0  0  0  0  0  0
   22.8671  -21.1489  -13.4350 C   0  0  2  0  0  0  0  0  0  0  0  0
   24.3707  -21.4251  -13.4006 N   0  0  0  0  0  0  0  0  0  0  0  0
   22.5669  -21.0798  -11.9998 C   0  0  0  0  0  0  0  0  0  0  0  0
   21.6519  -20.2580  -11.4309 O   0  0  0  0  0  0  0  0  0  0  0  0
   23.2083  -21.8396  -11.1930 O   0  0  0  0  0  0  0  0  0  0  0  0
  2  1  1  0
  2  3  2  0
  4  5  1  0
  4  2  1  0
  5  6  1  1
  7  8  2  0
  7  5  1  0
  9  7  1  0
 10  9  1  0
 10 11  1  1
 11 12  1  0
 12 13  2  0
 12 17  1  0
 13 14  1  0
 14 15  2  0
 16 15  1  0
 17 16  2  0
 18 28  1  0
 18 10  1  0
 19 18  2  0
 20 21  1  0
 21 23  1  0
 22 21  2  0
 23 24  1  0
 25 24  1  0
 25 26  1  0
 27 26  1  1
 27 28  1  0
 27 29  1  0
 29 30  1  0
 31 29  2  0
M  END
$$$$
