NFR.pdb
     RDKit          3D

 31 31  0  0  1  0  0  0  0  0999 V2000
   19.6492  -15.2525  -17.4649 N   0  0  0  0  0  0  0  0  0  0  0  0
   19.2592  -15.0788  -16.1098 C   0  0  0  0  0  0  0  0  0  0  0  0
   18.5439  -15.9539  -15.5781 O   0  0  0  0  0  0  0  0  0  0  0  0
   19.7208  -13.8661  -15.3925 C   0  0  0  0  0  0  0  0  0  0  0  0
   20.4762  -12.9457  -16.3111 C   0  0  2  0  0  0  0  0  0  0  0  0
   21.6317  -13.5844  -16.8652 N   0  0  0  0  0  0  0  0  0  0  0  0
   20.8016  -11.6852  -15.6112 C   0  0  0  0  0  0  0  0  0  0  0  0
   21.1405  -11.7609  -14.4027 O   0  0  0  0  0  0  0  0  0  0  0  0
   20.7454  -10.4122  -16.2460 N   0  0  0  0  0  0  0  0  0  0  0  0
   21.0837   -9.2232  -15.4948 C   0  0  1  0  0  0  0  0  0  0  0  0
   22.1181   -8.4143  -16.2300 C   0  0  0  0  0  0  0  0  0  0  0  0
   21.7352   -8.1110  -17.6205 C   0  0  0  0  0  0  0  0  0  0  0  0
   21.4610   -9.1183  -18.5151 C   0  0  0  0  0  0  0  0  0  0  0  0
   21.0978   -8.8498  -19.8341 C   0  0  0  0  0  0  0  0  0  0  0  0
   21.0101   -7.5612  -20.2556 C   0  0  0  0  0  0  0  0  0  0  0  0
   21.2763   -6.5316  -19.3915 C   0  0  0  0  0  0  0  0  0  0  0  0
   21.6409   -6.8132  -18.0664 C   0  0  0  0  0  0  0  0  0  0  0  0
   19.8468   -8.4439  -15.2225 C   0  0  0  0  0  0  0  0  0  0  0  0
   18.7919   -8.5950  -15.8946 O   0  0  0  0  0  0  0  0  0  0  0  0
   14.9371   -7.6947   -8.4023 N   0  0  0  0  0  0  0  0  0  0  0  0
   14.3467   -6.7269   -9.2551 C   0  0  0  0  0  0  0  0  0  0  0  0
   13.1916   -6.2638   -8.8965 N   0  0  0  0  0  0  0  0  0  0  0  0
   15.0096   -6.3037  -10.4382 N   0  0  0  0  0  0  0  0  0  0  0  0
   16.0931   -7.1144  -10.9389 C   0  0  0  0  0  0  0  0  0  0  0  0
   16.7656   -6.6052  -12.1513 C   0  0  0  0  0  0  0  0  0  0  0  0
   17.9221   -7.2674  -12.7411 C   0  0  0  0  0  0  0  0  0  0  0  0
   18.5657   -6.6654  -13.9260 C   0  0  2  0  0  0  0  0  0  0  0  0
   19.8218   -7.4978  -14.1856 N   0  0  0  0  0  0  0  0  0  0  0  0
   19.1588   -5.3528  -13.6426 C   0  0  0  0  0  0  0  0  0  0  0  0
   18.5322   -4.1615  -13.7980 O   0  0  0  0  0  0  0  0  0  0  0  0
   20.3659   -5.2943  -13.2193 O   0  0  0  0  0  0  0  0  0  0  0  0
  2  1  1  0
  2  3  2  0
  4  5  1  0
  4  2  1  0
  5  6  1  1
  7  8  2  0
  7  5  1  0
  9  7  1  0
 10  9  1  0
 10 11  1  6
 11 12  1  0
 12 13  2  0
 12 17  1  0
 13 14  1  0
 14 15  2  0
 16 15  1  0
 17 16  2  0
 18 28  1  0
 18 10  1  0
 19 18  2  0
 20 21  1  0
 21 23  1  0
 22 21  2  0
 23 24  1  0
 25 24  1  0
 25 26  1  0
 27 26  1  1
 27 28  1  0
 27 29  1  0
 29 30  1  0
 31 29  2  0
M  END
$$$$
