NFR.pdb
     RDKit          3D

 31 31  0  0  1  0  0  0  0  0999 V2000
   23.4914   -4.9066  -14.7721 N   0  0  0  0  0  0  0  0  0  0  0  0
   22.2910   -5.5685  -15.1457 C   0  0  0  0  0  0  0  0  0  0  0  0
   21.2003   -5.0572  -14.8157 O   0  0  0  0  0  0  0  0  0  0  0  0
   22.3921   -6.8352  -15.9098 C   0  0  0  0  0  0  0  0  0  0  0  0
   23.8251   -7.1703  -16.2195 C   0  0  2  0  0  0  0  0  0  0  0  0
   24.3992   -6.2350  -17.1390 N   0  0  0  0  0  0  0  0  0  0  0  0
   23.9294   -8.5682  -16.6879 C   0  0  0  0  0  0  0  0  0  0  0  0
   23.9288   -8.7680  -17.9293 O   0  0  0  0  0  0  0  0  0  0  0  0
   24.0285   -9.6757  -15.7988 N   0  0  0  0  0  0  0  0  0  0  0  0
   24.2215  -11.0061  -16.3328 C   0  0  1  0  0  0  0  0  0  0  0  0
   25.2702  -11.7418  -15.5430 C   0  0  0  0  0  0  0  0  0  0  0  0
   26.6302  -11.5684  -16.0837 C   0  0  0  0  0  0  0  0  0  0  0  0
   27.3761  -10.4543  -15.7799 C   0  0  0  0  0  0  0  0  0  0  0  0
   28.6639  -10.2736  -16.2827 C   0  0  0  0  0  0  0  0  0  0  0  0
   29.2042  -11.2188  -17.0954 C   0  0  0  0  0  0  0  0  0  0  0  0
   28.4899  -12.3422  -17.4195 C   0  0  0  0  0  0  0  0  0  0  0  0
   27.1949  -12.5139  -16.9080 C   0  0  0  0  0  0  0  0  0  0  0  0
   22.9196  -11.7245  -16.3487 C   0  0  0  0  0  0  0  0  0  0  0  0
   22.1138  -11.6828  -15.3810 O   0  0  0  0  0  0  0  0  0  0  0  0
   18.6064  -14.4049  -23.5269 N   0  0  0  0  0  0  0  0  0  0  0  0
   19.6569  -13.5399  -23.1261 C   0  0  0  0  0  0  0  0  0  0  0  0
   20.2366  -12.8574  -24.0618 N   0  0  0  0  0  0  0  0  0  0  0  0
   20.0356  -13.4452  -21.7601 N   0  0  0  0  0  0  0  0  0  0  0  0
   19.2898  -14.2122  -20.7919 C   0  0  0  0  0  0  0  0  0  0  0  0
   19.6395  -13.9701  -19.3776 C   0  0  0  0  0  0  0  0  0  0  0  0
   20.8919  -13.3409  -18.9778 C   0  0  0  0  0  0  0  0  0  0  0  0
   21.1596  -13.1261  -17.5416 C   0  0  2  0  0  0  0  0  0  0  0  0
   22.5460  -12.4852  -17.4678 N   0  0  0  0  0  0  0  0  0  0  0  0
   21.3969  -14.3800  -16.8161 C   0  0  0  0  0  0  0  0  0  0  0  0
   20.5024  -14.9958  -16.0057 O   0  0  0  0  0  0  0  0  0  0  0  0
   22.5324  -14.9602  -16.9321 O   0  0  0  0  0  0  0  0  0  0  0  0
  2  1  1  0
  2  3  2  0
  4  5  1  0
  4  2  1  0
  5  6  1  6
  7  8  2  0
  7  5  1  0
  9  7  1  0
 10  9  1  0
 10 11  1  1
 11 12  1  0
 12 13  2  0
 12 17  1  0
 13 14  1  0
 14 15  2  0
 16 15  1  0
 17 16  2  0
 18 28  1  0
 18 10  1  0
 19 18  2  0
 20 21  1  0
 21 23  1  0
 22 21  2  0
 23 24  1  0
 25 24  1  0
 25 26  1  0
 27 26  1  6
 27 28  1  0
 27 29  1  0
 29 30  1  0
 31 29  2  0
M  END
$$$$
