NFR.pdb
     RDKit          3D

 31 31  0  0  1  0  0  0  0  0999 V2000
   29.0154  -21.6786  -17.2766 N   0  0  0  0  0  0  0  0  0  0  0  0
   27.6932  -21.2776  -17.6076 C   0  0  0  0  0  0  0  0  0  0  0  0
   27.5108  -20.6383  -18.6649 O   0  0  0  0  0  0  0  0  0  0  0  0
   26.5936  -21.6381  -16.6806 C   0  0  0  0  0  0  0  0  0  0  0  0
   27.1167  -22.3693  -15.4750 C   0  0  2  0  0  0  0  0  0  0  0  0
   27.3265  -23.7586  -15.7500 N   0  0  0  0  0  0  0  0  0  0  0  0
   26.2238  -22.1450  -14.3187 C   0  0  0  0  0  0  0  0  0  0  0  0
   25.5395  -23.1192  -13.9139 O   0  0  0  0  0  0  0  0  0  0  0  0
   26.1136  -20.8879  -13.6598 N   0  0  0  0  0  0  0  0  0  0  0  0
   25.2288  -20.7513  -12.5237 C   0  0  1  0  0  0  0  0  0  0  0  0
   25.7255  -19.6737  -11.5980 C   0  0  0  0  0  0  0  0  0  0  0  0
   26.7221  -20.1587  -10.6265 C   0  0  0  0  0  0  0  0  0  0  0  0
   27.9510  -20.6148  -11.0409 C   0  0  0  0  0  0  0  0  0  0  0  0
   28.9054  -21.0776  -10.1360 C   0  0  0  0  0  0  0  0  0  0  0  0
   28.6221  -21.0815   -8.8073 C   0  0  0  0  0  0  0  0  0  0  0  0
   27.4074  -20.6341   -8.3581 C   0  0  0  0  0  0  0  0  0  0  0  0
   26.4543  -20.1706   -9.2773 C   0  0  0  0  0  0  0  0  0  0  0  0
   23.8463  -20.4892  -13.0044 C   0  0  0  0  0  0  0  0  0  0  0  0
   23.5938  -19.6483  -13.9080 O   0  0  0  0  0  0  0  0  0  0  0  0
   18.4045  -26.8442  -13.1076 N   0  0  0  0  0  0  0  0  0  0  0  0
   18.9373  -26.1547  -11.9882 C   0  0  0  0  0  0  0  0  0  0  0  0
   18.7609  -26.7048  -10.8290 N   0  0  0  0  0  0  0  0  0  0  0  0
   19.6257  -24.9234  -12.1566 N   0  0  0  0  0  0  0  0  0  0  0  0
   19.8862  -24.4671  -13.5004 C   0  0  0  0  0  0  0  0  0  0  0  0
   20.6911  -23.2338  -13.6124 C   0  0  0  0  0  0  0  0  0  0  0  0
   20.5677  -22.1306  -12.6681 C   0  0  0  0  0  0  0  0  0  0  0  0
   21.3333  -20.8912  -12.9100 C   0  0  2  0  0  0  0  0  0  0  0  0
   22.7615  -21.1879  -12.4512 N   0  0  0  0  0  0  0  0  0  0  0  0
   20.9667  -19.8100  -11.9873 C   0  0  0  0  0  0  0  0  0  0  0  0
   20.1803  -18.7508  -12.2968 O   0  0  0  0  0  0  0  0  0  0  0  0
   21.4149  -19.8371  -10.7882 O   0  0  0  0  0  0  0  0  0  0  0  0
  2  1  1  0
  2  3  2  0
  4  5  1  0
  4  2  1  0
  5  6  1  6
  7  8  2  0
  7  5  1  0
  9  7  1  0
 10  9  1  0
 10 11  1  1
 11 12  1  0
 12 13  2  0
 12 17  1  0
 13 14  1  0
 14 15  2  0
 16 15  1  0
 17 16  2  0
 18 28  1  0
 18 10  1  0
 19 18  2  0
 20 21  1  0
 21 23  1  0
 22 21  2  0
 23 24  1  0
 25 24  1  0
 25 26  1  0
 27 26  1  1
 27 28  1  0
 27 29  1  0
 29 30  1  0
 31 29  2  0
M  END
$$$$
