NFR.pdb
     RDKit          3D

 31 31  0  0  1  0  0  0  0  0999 V2000
   25.5362  -25.3354  -10.9216 N   0  0  0  0  0  0  0  0  0  0  0  0
   24.3543  -24.9873  -11.6291 C   0  0  0  0  0  0  0  0  0  0  0  0
   23.5036  -25.8763  -11.8434 O   0  0  0  0  0  0  0  0  0  0  0  0
   24.1886  -23.5842  -12.0791 C   0  0  0  0  0  0  0  0  0  0  0  0
   25.4054  -22.7621  -11.7548 C   0  0  2  0  0  0  0  0  0  0  0  0
   25.6207  -22.6721  -10.3421 N   0  0  0  0  0  0  0  0  0  0  0  0
   25.3100  -21.4372  -12.4029 C   0  0  0  0  0  0  0  0  0  0  0  0
   24.2357  -20.7981  -12.2663 O   0  0  0  0  0  0  0  0  0  0  0  0
   26.3722  -20.8702  -13.1625 N   0  0  0  0  0  0  0  0  0  0  0  0
   26.1947  -19.5768  -13.7852 C   0  0  1  0  0  0  0  0  0  0  0  0
   27.5271  -18.9909  -14.1675 C   0  0  0  0  0  0  0  0  0  0  0  0
   27.4099  -17.7490  -14.9525 C   0  0  0  0  0  0  0  0  0  0  0  0
   27.8056  -17.7032  -16.2683 C   0  0  0  0  0  0  0  0  0  0  0  0
   27.7024  -16.5372  -17.0256 C   0  0  0  0  0  0  0  0  0  0  0  0
   27.1985  -15.4112  -16.4563 C   0  0  0  0  0  0  0  0  0  0  0  0
   26.7941  -15.4199  -15.1472 C   0  0  0  0  0  0  0  0  0  0  0  0
   26.9024  -16.5988  -14.3943 C   0  0  0  0  0  0  0  0  0  0  0  0
   25.2823  -19.7125  -14.9516 C   0  0  0  0  0  0  0  0  0  0  0  0
   25.3030  -20.7172  -15.7117 O   0  0  0  0  0  0  0  0  0  0  0  0
   19.4826  -21.3350  -15.3212 N   0  0  0  0  0  0  0  0  0  0  0  0
   18.4052  -20.7060  -15.9966 C   0  0  0  0  0  0  0  0  0  0  0  0
   17.4977  -21.4843  -16.4945 N   0  0  0  0  0  0  0  0  0  0  0  0
   18.3479  -19.2908  -16.1082 N   0  0  0  0  0  0  0  0  0  0  0  0
   19.4941  -18.5269  -15.6784 C   0  0  0  0  0  0  0  0  0  0  0  0
   20.7994  -18.9878  -16.1931 C   0  0  0  0  0  0  0  0  0  0  0  0
   22.0555  -18.3447  -15.8287 C   0  0  0  0  0  0  0  0  0  0  0  0
   23.3211  -18.8942  -16.3550 C   0  0  2  0  0  0  0  0  0  0  0  0
   24.3530  -18.7015  -15.2431 N   0  0  0  0  0  0  0  0  0  0  0  0
   23.9014  -18.0626  -17.4164 C   0  0  0  0  0  0  0  0  0  0  0  0
   24.1326  -18.4675  -18.6887 O   0  0  0  0  0  0  0  0  0  0  0  0
   24.2327  -16.8550  -17.1491 O   0  0  0  0  0  0  0  0  0  0  0  0
  2  1  1  0
  2  3  2  0
  4  5  1  0
  4  2  1  0
  5  6  1  1
  7  8  2  0
  7  5  1  0
  9  7  1  0
 10  9  1  0
 10 11  1  6
 11 12  1  0
 12 13  2  0
 12 17  1  0
 13 14  1  0
 14 15  2  0
 16 15  1  0
 17 16  2  0
 18 28  1  0
 18 10  1  0
 19 18  2  0
 20 21  1  0
 21 23  1  0
 22 21  2  0
 23 24  1  0
 25 24  1  0
 25 26  1  0
 27 26  1  1
 27 28  1  0
 27 29  1  0
 29 30  1  0
 31 29  2  0
M  END
$$$$
