KAK.pdb
     RDKit          3D

 24 23  0  0  1  0  0  0  0  0999 V2000
    9.3505  -15.2597   18.5351 N   0  0  0  0  0  0  0  0  0  0  0  0
    8.8752  -14.3713   19.5656 C   0  0  1  0  0  0  0  0  0  0  0  0
    7.5991  -13.7352   19.0705 C   0  0  0  0  0  0  0  0  0  0  0  0
    7.9194  -13.0517   17.7574 C   0  0  0  0  0  0  0  0  0  0  0  0
    7.5013  -13.8999   16.5742 C   0  0  0  0  0  0  0  0  0  0  0  0
    7.7812  -13.0600   15.3222 C   0  0  0  0  0  0  0  0  0  0  0  0
    7.3407  -13.7352   14.1280 N   0  0  0  0  0  0  0  0  0  0  0  0
    8.7048  -15.1063   20.8215 C   0  0  0  0  0  0  0  0  0  0  0  0
    8.2208  -14.4955   21.8063 O   0  0  0  0  0  0  0  0  0  0  0  0
    9.0680  -18.6762   21.9447 C   0  0  0  0  0  0  0  0  0  0  0  0
    8.8909  -17.2221   22.2217 C   0  0  2  0  0  0  0  0  0  0  0  0
    9.0542  -16.4702   20.9938 N   0  0  0  0  0  0  0  0  0  0  0  0
    9.8196  -16.7163   23.2807 C   0  0  0  0  0  0  0  0  0  0  0  0
   10.9843  -16.4190   22.9533 O   0  0  0  0  0  0  0  0  0  0  0  0
    9.3775  -16.5820   24.6190 N   0  0  0  0  0  0  0  0  0  0  0  0
   10.2682  -16.1790   25.6632 C   0  0  1  0  0  0  0  0  0  0  0  0
    9.5349  -15.6027   26.8756 C   0  0  0  0  0  0  0  0  0  0  0  0
   10.4965  -15.1993   27.9468 C   0  0  0  0  0  0  0  0  0  0  0  0
    9.8176  -14.6391   29.1539 C   0  0  0  0  0  0  0  0  0  0  0  0
   10.7398  -14.1976   30.2300 C   0  0  0  0  0  0  0  0  0  0  0  0
   10.1593  -13.6813   31.4169 N   0  0  0  0  0  0  0  0  0  0  0  0
   11.0714  -17.3421   26.1311 C   0  0  0  0  0  0  0  0  0  0  0  0
   10.5113  -18.6013   26.2675 O   0  0  0  0  0  0  0  0  0  0  0  0
   12.3006  -17.2386   26.4262 O   0  0  0  0  0  0  0  0  0  0  0  0
  2  1  1  6
  2  3  1  0
  3  4  1  0
  5  4  1  0
  5  6  1  0
  6  7  1  0
  8 12  1  0
  8  2  1  0
  9  8  2  0
 11 10  1  6
 11 13  1  0
 11 12  1  0
 13 15  1  0
 14 13  2  0
 15 16  1  0
 16 17  1  1
 16 22  1  0
 18 17  1  0
 19 20  1  0
 19 18  1  0
 21 20  1  0
 22 24  2  0
 22 23  1  0
M  END
$$$$
