KAK.pdb
     RDKit          3D

 24 23  0  0  1  0  0  0  0  0999 V2000
    8.1103  -17.3760   17.0387 N   0  0  0  0  0  0  0  0  0  0  0  0
    7.3628  -17.3454   18.2705 C   0  0  1  0  0  0  0  0  0  0  0  0
    7.1063  -18.7731   18.6873 C   0  0  0  0  0  0  0  0  0  0  0  0
    6.3203  -19.4310   17.5722 C   0  0  0  0  0  0  0  0  0  0  0  0
    5.0870  -20.1327   18.1021 C   0  0  0  0  0  0  0  0  0  0  0  0
    4.4213  -20.8037   16.8947 C   0  0  0  0  0  0  0  0  0  0  0  0
    3.2981  -21.6118   17.2966 N   0  0  0  0  0  0  0  0  0  0  0  0
    8.0905  -16.5710   19.2792 C   0  0  0  0  0  0  0  0  0  0  0  0
    9.3288  -16.7503   19.3864 O   0  0  0  0  0  0  0  0  0  0  0  0
    7.2370  -13.8932   21.7891 C   0  0  0  0  0  0  0  0  0  0  0  0
    8.1605  -14.9046   21.2001 C   0  0  2  0  0  0  0  0  0  0  0  0
    7.4797  -15.6279   20.1451 N   0  0  0  0  0  0  0  0  0  0  0  0
    8.7118  -15.8502   22.2208 C   0  0  0  0  0  0  0  0  0  0  0  0
    8.0349  -16.8500   22.5276 O   0  0  0  0  0  0  0  0  0  0  0  0
    9.9723  -15.6070   22.8180 N   0  0  0  0  0  0  0  0  0  0  0  0
   10.5893  -16.5686   23.6787 C   0  0  1  0  0  0  0  0  0  0  0  0
   12.1162  -16.5464   23.5910 C   0  0  0  0  0  0  0  0  0  0  0  0
   12.7204  -17.6385   24.4139 C   0  0  0  0  0  0  0  0  0  0  0  0
   14.2138  -17.6365   24.3728 C   0  0  0  0  0  0  0  0  0  0  0  0
   14.8514  -18.7648   25.0962 C   0  0  0  0  0  0  0  0  0  0  0  0
   16.2687  -18.7893   25.1495 N   0  0  0  0  0  0  0  0  0  0  0  0
   10.2136  -16.3062   25.0954 C   0  0  0  0  0  0  0  0  0  0  0  0
    9.4778  -15.1894   25.4548 O   0  0  0  0  0  0  0  0  0  0  0  0
   10.5465  -17.0872   26.0377 O   0  0  0  0  0  0  0  0  0  0  0  0
  2  1  1  6
  2  3  1  0
  3  4  1  0
  5  4  1  0
  5  6  1  0
  6  7  1  0
  8 12  1  0
  8  2  1  0
  9  8  2  0
 11 10  1  1
 11 13  1  0
 11 12  1  0
 13 15  1  0
 14 13  2  0
 15 16  1  0
 16 17  1  1
 16 22  1  0
 18 17  1  0
 19 20  1  0
 19 18  1  0
 21 20  1  0
 22 24  2  0
 22 23  1  0
M  END
$$$$
