KAK.pdb
     RDKit          3D

 24 23  0  0  1  0  0  0  0  0999 V2000
    2.9189  -20.2599   20.4063 N   0  0  0  0  0  0  0  0  0  0  0  0
    3.0717  -19.2054   21.3767 C   0  0  1  0  0  0  0  0  0  0  0  0
    2.1888  -19.5351   22.5555 C   0  0  0  0  0  0  0  0  0  0  0  0
    0.7668  -19.6190   22.0407 C   0  0  0  0  0  0  0  0  0  0  0  0
   -0.2016  -19.9902   23.1446 C   0  0  0  0  0  0  0  0  0  0  0  0
   -1.5994  -19.9736   22.5144 C   0  0  0  0  0  0  0  0  0  0  0  0
   -2.6112  -20.3418   23.4719 N   0  0  0  0  0  0  0  0  0  0  0  0
    4.4841  -19.0563   21.7366 C   0  0  0  0  0  0  0  0  0  0  0  0
    5.2184  -20.0742   21.6951 O   0  0  0  0  0  0  0  0  0  0  0  0
    6.7894  -16.1979   22.5467 C   0  0  0  0  0  0  0  0  0  0  0  0
    6.4679  -17.6525   22.4887 C   0  0  2  0  0  0  0  0  0  0  0  0
    5.0749  -17.8282   22.1304 N   0  0  0  0  0  0  0  0  0  0  0  0
    6.7810  -18.3668   23.7660 C   0  0  0  0  0  0  0  0  0  0  0  0
    6.0400  -18.1739   24.7487 O   0  0  0  0  0  0  0  0  0  0  0  0
    7.8937  -19.2385   23.8470 N   0  0  0  0  0  0  0  0  0  0  0  0
    8.1959  -19.9548   25.0478 C   0  0  1  0  0  0  0  0  0  0  0  0
    8.8446  -21.3134   24.7780 C   0  0  0  0  0  0  0  0  0  0  0  0
    9.1227  -22.0420   26.0534 C   0  0  0  0  0  0  0  0  0  0  0  0
    9.8266  -23.3417   25.8368 C   0  0  0  0  0  0  0  0  0  0  0  0
   10.0212  -24.1494   27.0668 C   0  0  0  0  0  0  0  0  0  0  0  0
   10.6370  -25.4193   26.9240 N   0  0  0  0  0  0  0  0  0  0  0  0
    9.1329  -19.1662   25.8946 C   0  0  0  0  0  0  0  0  0  0  0  0
    9.1394  -19.2877   27.2742 O   0  0  0  0  0  0  0  0  0  0  0  0
    9.9664  -18.3492   25.3983 O   0  0  0  0  0  0  0  0  0  0  0  0
  2  1  1  6
  2  3  1  0
  3  4  1  0
  5  4  1  0
  5  6  1  0
  6  7  1  0
  8 12  1  0
  8  2  1  0
  9  8  2  0
 11 10  1  1
 11 13  1  0
 11 12  1  0
 13 15  1  0
 14 13  2  0
 15 16  1  0
 16 17  1  6
 16 22  1  0
 18 17  1  0
 19 20  1  0
 19 18  1  0
 21 20  1  0
 22 24  2  0
 22 23  1  0
M  END
$$$$
