KAK.pdb
     RDKit          3D

 24 23  0  0  1  0  0  0  0  0999 V2000
    7.6913  -14.1734   20.5615 N   0  0  0  0  0  0  0  0  0  0  0  0
    7.0273  -14.5477   21.7847 C   0  0  1  0  0  0  0  0  0  0  0  0
    6.8660  -16.0483   21.7787 C   0  0  0  0  0  0  0  0  0  0  0  0
    7.1031  -16.5187   20.3586 C   0  0  0  0  0  0  0  0  0  0  0  0
    7.0368  -18.0285   20.2562 C   0  0  0  0  0  0  0  0  0  0  0  0
    7.2797  -18.3709   18.7814 C   0  0  0  0  0  0  0  0  0  0  0  0
    7.2915  -19.7959   18.5685 N   0  0  0  0  0  0  0  0  0  0  0  0
    7.7842  -14.0527   22.9374 C   0  0  0  0  0  0  0  0  0  0  0  0
    9.0287  -14.2209   22.9476 O   0  0  0  0  0  0  0  0  0  0  0  0
    7.1001  -11.9713   25.9806 C   0  0  0  0  0  0  0  0  0  0  0  0
    7.9010  -12.9925   25.2470 C   0  0  2  0  0  0  0  0  0  0  0  0
    7.1953  -13.3928   24.0464 N   0  0  0  0  0  0  0  0  0  0  0  0
    8.2324  -14.1843   26.0895 C   0  0  0  0  0  0  0  0  0  0  0  0
    7.3026  -14.9313   26.4492 O   0  0  0  0  0  0  0  0  0  0  0  0
    9.5719  -14.4488   26.4639 N   0  0  0  0  0  0  0  0  0  0  0  0
    9.9133  -15.5823   27.2669 C   0  0  1  0  0  0  0  0  0  0  0  0
   11.3203  -16.1084   26.9785 C   0  0  0  0  0  0  0  0  0  0  0  0
   11.6411  -17.2906   27.8355 C   0  0  0  0  0  0  0  0  0  0  0  0
   13.0346  -17.7905   27.6352 C   0  0  0  0  0  0  0  0  0  0  0  0
   13.4029  -18.9470   28.4896 C   0  0  0  0  0  0  0  0  0  0  0  0
   14.7117  -19.4748   28.3462 N   0  0  0  0  0  0  0  0  0  0  0  0
    9.8504  -15.2267   28.7113 C   0  0  0  0  0  0  0  0  0  0  0  0
    9.6797  -16.1930   29.6885 O   0  0  0  0  0  0  0  0  0  0  0  0
    9.9494  -14.0289   29.1164 O   0  0  0  0  0  0  0  0  0  0  0  0
  2  1  1  6
  2  3  1  0
  3  4  1  0
  5  4  1  0
  5  6  1  0
  6  7  1  0
  8 12  1  0
  8  2  1  0
  9  8  2  0
 11 10  1  1
 11 13  1  0
 11 12  1  0
 13 15  1  0
 14 13  2  0
 15 16  1  0
 16 17  1  6
 16 22  1  0
 18 17  1  0
 19 20  1  0
 19 18  1  0
 21 20  1  0
 22 24  2  0
 22 23  1  0
M  END
$$$$
