KAK.pdb
     RDKit          3D

 24 23  0  0  1  0  0  0  0  0999 V2000
    7.8422  -17.3510   16.9442 N   0  0  0  0  0  0  0  0  0  0  0  0
    7.1407  -17.2152   18.1958 C   0  0  1  0  0  0  0  0  0  0  0  0
    6.7685  -18.6002   18.6660 C   0  0  0  0  0  0  0  0  0  0  0  0
    7.7776  -19.5611   18.0723 C   0  0  0  0  0  0  0  0  0  0  0  0
    7.4280  -20.9999   18.3917 C   0  0  0  0  0  0  0  0  0  0  0  0
    8.4216  -21.8679   17.6104 C   0  0  0  0  0  0  0  0  0  0  0  0
    8.1412  -23.2707   17.7824 N   0  0  0  0  0  0  0  0  0  0  0  0
    7.9681  -16.4818   19.1571 C   0  0  0  0  0  0  0  0  0  0  0  0
    9.2158  -16.5229   19.0200 O   0  0  0  0  0  0  0  0  0  0  0  0
    7.3584  -14.1927   22.0846 C   0  0  0  0  0  0  0  0  0  0  0  0
    8.2396  -15.0529   21.2443 C   0  0  2  0  0  0  0  0  0  0  0  0
    7.4444  -15.7254   20.2369 N   0  0  0  0  0  0  0  0  0  0  0  0
    9.0224  -16.0423   22.0495 C   0  0  0  0  0  0  0  0  0  0  0  0
    8.5260  -17.1673   22.2492 O   0  0  0  0  0  0  0  0  0  0  0  0
   10.2948  -15.7001   22.5676 N   0  0  0  0  0  0  0  0  0  0  0  0
   11.1018  -16.6571   23.2597 C   0  0  1  0  0  0  0  0  0  0  0  0
   12.6000  -16.4134   23.0709 C   0  0  0  0  0  0  0  0  0  0  0  0
   13.4074  -17.5137   23.6811 C   0  0  0  0  0  0  0  0  0  0  0  0
   14.8789  -17.3057   23.5290 C   0  0  0  0  0  0  0  0  0  0  0  0
   15.7158  -18.4027   24.0760 C   0  0  0  0  0  0  0  0  0  0  0  0
   17.1228  -18.2788   23.9447 N   0  0  0  0  0  0  0  0  0  0  0  0
   10.8162  -16.6101   24.7202 C   0  0  0  0  0  0  0  0  0  0  0  0
   11.1633  -17.6550   25.5602 O   0  0  0  0  0  0  0  0  0  0  0  0
   10.2446  -15.6173   25.2645 O   0  0  0  0  0  0  0  0  0  0  0  0
  2  1  1  6
  2  3  1  0
  3  4  1  0
  5  4  1  0
  5  6  1  0
  6  7  1  0
  8 12  1  0
  8  2  1  0
  9  8  2  0
 11 10  1  1
 11 13  1  0
 11 12  1  0
 13 15  1  0
 14 13  2  0
 15 16  1  0
 16 17  1  1
 16 22  1  0
 18 17  1  0
 19 20  1  0
 19 18  1  0
 21 20  1  0
 22 24  2  0
 22 23  1  0
M  END
$$$$
