KAK.pdb
     RDKit          3D

 24 23  0  0  1  0  0  0  0  0999 V2000
    4.6768  -20.4047   20.7846 N   0  0  0  0  0  0  0  0  0  0  0  0
    6.0143  -20.2844   21.3078 C   0  0  1  0  0  0  0  0  0  0  0  0
    6.9127  -19.8502   20.1754 C   0  0  0  0  0  0  0  0  0  0  0  0
    7.1503  -21.0641   19.3013 C   0  0  0  0  0  0  0  0  0  0  0  0
    8.0953  -20.7494   18.1602 C   0  0  0  0  0  0  0  0  0  0  0  0
    9.4503  -20.4249   18.8005 C   0  0  0  0  0  0  0  0  0  0  0  0
   10.4658  -20.2126   17.8006 N   0  0  0  0  0  0  0  0  0  0  0  0
    6.0270  -19.3581   22.4429 C   0  0  0  0  0  0  0  0  0  0  0  0
    5.3585  -18.2989   22.3529 O   0  0  0  0  0  0  0  0  0  0  0  0
    7.1473  -19.4043   26.0040 C   0  0  0  0  0  0  0  0  0  0  0  0
    6.8332  -18.6582   24.7520 C   0  0  2  0  0  0  0  0  0  0  0  0
    6.7507  -19.5855   23.6416 N   0  0  0  0  0  0  0  0  0  0  0  0
    7.8195  -17.5705   24.4624 C   0  0  0  0  0  0  0  0  0  0  0  0
    8.7812  -17.8280   23.7135 O   0  0  0  0  0  0  0  0  0  0  0  0
    7.6563  -16.2835   25.0295 N   0  0  0  0  0  0  0  0  0  0  0  0
    8.6200  -15.2473   24.8206 C   0  0  1  0  0  0  0  0  0  0  0  0
    8.0342  -13.8478   25.0150 C   0  0  0  0  0  0  0  0  0  0  0  0
    7.3958  -13.7114   26.3599 C   0  0  0  0  0  0  0  0  0  0  0  0
    6.7397  -12.3840   26.5581 C   0  0  0  0  0  0  0  0  0  0  0  0
    6.0623  -12.2213   27.8687 C   0  0  0  0  0  0  0  0  0  0  0  0
    5.3848  -10.9979   28.1067 N   0  0  0  0  0  0  0  0  0  0  0  0
    9.7535  -15.3997   25.7740 C   0  0  0  0  0  0  0  0  0  0  0  0
   10.9799  -14.7994   25.5432 O   0  0  0  0  0  0  0  0  0  0  0  0
    9.6532  -16.0826   26.8381 O   0  0  0  0  0  0  0  0  0  0  0  0
  2  1  1  6
  2  3  1  0
  3  4  1  0
  5  4  1  0
  5  6  1  0
  6  7  1  0
  8 12  1  0
  8  2  1  0
  9  8  2  0
 11 10  1  1
 11 13  1  0
 11 12  1  0
 13 15  1  0
 14 13  2  0
 15 16  1  0
 16 17  1  1
 16 22  1  0
 18 17  1  0
 19 20  1  0
 19 18  1  0
 21 20  1  0
 22 24  2  0
 22 23  1  0
M  END
$$$$
