KAK.pdb
     RDKit          3D

 24 23  0  0  1  0  0  0  0  0999 V2000
    6.8026  -16.9758   20.7561 N   0  0  0  0  0  0  0  0  0  0  0  0
    8.0528  -16.4146   21.2024 C   0  0  1  0  0  0  0  0  0  0  0  0
    8.0591  -14.9525   20.8284 C   0  0  0  0  0  0  0  0  0  0  0  0
    8.3160  -14.8723   19.3379 C   0  0  0  0  0  0  0  0  0  0  0  0
    8.3798  -13.4356   18.8626 C   0  0  0  0  0  0  0  0  0  0  0  0
    8.6523  -13.4928   17.3547 C   0  0  0  0  0  0  0  0  0  0  0  0
    8.8103  -12.1726   16.7995 N   0  0  0  0  0  0  0  0  0  0  0  0
    8.2204  -16.6440   22.6397 C   0  0  0  0  0  0  0  0  0  0  0  0
    7.2644  -16.3585   23.4023 O   0  0  0  0  0  0  0  0  0  0  0  0
   10.4219  -18.7014   24.7688 C   0  0  0  0  0  0  0  0  0  0  0  0
    9.5611  -17.4923   24.6284 C   0  0  2  0  0  0  0  0  0  0  0  0
    9.4006  -17.1707   23.2246 N   0  0  0  0  0  0  0  0  0  0  0  0
   10.0886  -16.3139   25.3854 C   0  0  0  0  0  0  0  0  0  0  0  0
   10.9749  -15.6181   24.8542 O   0  0  0  0  0  0  0  0  0  0  0  0
    9.5872  -16.0046   26.6728 N   0  0  0  0  0  0  0  0  0  0  0  0
   10.0900  -14.8960   27.4240 C   0  0  1  0  0  0  0  0  0  0  0  0
    8.9834  -13.9510   27.8951 C   0  0  0  0  0  0  0  0  0  0  0  0
    8.1383  -13.4951   26.7493 C   0  0  0  0  0  0  0  0  0  0  0  0
    6.9937  -12.6367   27.1789 C   0  0  0  0  0  0  0  0  0  0  0  0
    6.1382  -12.1495   26.0681 C   0  0  0  0  0  0  0  0  0  0  0  0
    4.9898  -11.3911   26.4120 N   0  0  0  0  0  0  0  0  0  0  0  0
   10.8160  -15.3797   28.6306 C   0  0  0  0  0  0  0  0  0  0  0  0
   11.6052  -14.5317   29.3895 O   0  0  0  0  0  0  0  0  0  0  0  0
   10.7485  -16.5845   29.0211 O   0  0  0  0  0  0  0  0  0  0  0  0
  2  1  1  1
  2  3  1  0
  3  4  1  0
  5  4  1  0
  5  6  1  0
  6  7  1  0
  8 12  1  0
  8  2  1  0
  9  8  2  0
 11 10  1  6
 11 13  1  0
 11 12  1  0
 13 15  1  0
 14 13  2  0
 15 16  1  0
 16 17  1  1
 16 22  1  0
 18 17  1  0
 19 20  1  0
 19 18  1  0
 21 20  1  0
 22 24  2  0
 22 23  1  0
M  END
$$$$
