KAK.pdb
     RDKit          3D

 24 23  0  0  1  0  0  0  0  0999 V2000
    8.7825  -17.4412   17.2503 N   0  0  0  0  0  0  0  0  0  0  0  0
    7.8198  -17.2373   18.3032 C   0  0  1  0  0  0  0  0  0  0  0  0
    7.2986  -18.5918   18.7171 C   0  0  0  0  0  0  0  0  0  0  0  0
    6.5287  -19.1544   17.5404 C   0  0  0  0  0  0  0  0  0  0  0  0
    5.3887  -20.0414   17.9964 C   0  0  0  0  0  0  0  0  0  0  0  0
    4.6854  -20.5271   16.7233 C   0  0  0  0  0  0  0  0  0  0  0  0
    3.5829  -21.4012   17.0338 N   0  0  0  0  0  0  0  0  0  0  0  0
    8.4332  -16.4927   19.4058 C   0  0  0  0  0  0  0  0  0  0  0  0
    9.5843  -16.8270   19.7806 O   0  0  0  0  0  0  0  0  0  0  0  0
    7.4885  -13.5394   21.5476 C   0  0  0  0  0  0  0  0  0  0  0  0
    8.3650  -14.6958   21.2053 C   0  0  2  0  0  0  0  0  0  0  0  0
    7.8044  -15.4135   20.0783 N   0  0  0  0  0  0  0  0  0  0  0  0
    8.5875  -15.6173   22.3634 C   0  0  0  0  0  0  0  0  0  0  0  0
    7.6872  -16.4270   22.6564 O   0  0  0  0  0  0  0  0  0  0  0  0
    9.7940  -15.5637   23.1022 N   0  0  0  0  0  0  0  0  0  0  0  0
   10.0369  -16.4462   24.2015 C   0  0  1  0  0  0  0  0  0  0  0  0
   11.4924  -16.9105   24.2761 C   0  0  0  0  0  0  0  0  0  0  0  0
   11.6084  -18.3726   23.9870 C   0  0  0  0  0  0  0  0  0  0  0  0
   13.0239  -18.8502   23.9739 C   0  0  0  0  0  0  0  0  0  0  0  0
   13.1902  -20.2733   23.5863 C   0  0  0  0  0  0  0  0  0  0  0  0
   14.5129  -20.7809   23.5157 N   0  0  0  0  0  0  0  0  0  0  0  0
    9.7118  -15.7681   25.4865 C   0  0  0  0  0  0  0  0  0  0  0  0
    9.7291  -16.4515   26.6909 O   0  0  0  0  0  0  0  0  0  0  0  0
    9.4049  -14.5387   25.5422 O   0  0  0  0  0  0  0  0  0  0  0  0
  2  1  1  6
  2  3  1  0
  3  4  1  0
  5  4  1  0
  5  6  1  0
  6  7  1  0
  8 12  1  0
  8  2  1  0
  9  8  2  0
 11 10  1  1
 11 13  1  0
 11 12  1  0
 13 15  1  0
 14 13  2  0
 15 16  1  0
 16 17  1  1
 16 22  1  0
 18 17  1  0
 19 20  1  0
 19 18  1  0
 21 20  1  0
 22 24  2  0
 22 23  1  0
M  END
$$$$
