KAK.pdb
     RDKit          3D

 24 23  0  0  1  0  0  0  0  0999 V2000
    6.6773  -17.4734   17.5315 N   0  0  0  0  0  0  0  0  0  0  0  0
    8.0757  -17.7294   17.7679 C   0  0  1  0  0  0  0  0  0  0  0  0
    8.8142  -17.4711   16.4773 C   0  0  0  0  0  0  0  0  0  0  0  0
    7.7736  -17.1772   15.4167 C   0  0  0  0  0  0  0  0  0  0  0  0
    8.4166  -16.8014   14.0979 C   0  0  0  0  0  0  0  0  0  0  0  0
    7.2670  -16.5432   13.1166 C   0  0  0  0  0  0  0  0  0  0  0  0
    7.7506  -15.9996   11.8729 N   0  0  0  0  0  0  0  0  0  0  0  0
    8.5544  -16.9070   18.8820 C   0  0  0  0  0  0  0  0  0  0  0  0
    9.7630  -16.9975   19.2108 O   0  0  0  0  0  0  0  0  0  0  0  0
    7.1979  -14.1165   20.9901 C   0  0  0  0  0  0  0  0  0  0  0  0
    8.1694  -15.2211   20.7478 C   0  0  2  0  0  0  0  0  0  0  0  0
    7.7333  -16.0117   19.6144 N   0  0  0  0  0  0  0  0  0  0  0  0
    8.3746  -16.0872   21.9510 C   0  0  0  0  0  0  0  0  0  0  0  0
    7.5607  -17.0059   22.1642 O   0  0  0  0  0  0  0  0  0  0  0  0
    9.4690  -15.8611   22.8202 N   0  0  0  0  0  0  0  0  0  0  0  0
    9.7206  -16.7124   23.9418 C   0  0  1  0  0  0  0  0  0  0  0  0
   11.1091  -17.3526   23.8980 C   0  0  0  0  0  0  0  0  0  0  0  0
   11.3287  -18.2475   25.0752 C   0  0  0  0  0  0  0  0  0  0  0  0
   12.6948  -18.8516   25.0972 C   0  0  0  0  0  0  0  0  0  0  0  0
   12.9566  -19.7408   26.2564 C   0  0  0  0  0  0  0  0  0  0  0  0
   14.2506  -20.3122   26.3625 N   0  0  0  0  0  0  0  0  0  0  0  0
    9.6199  -15.9367   25.2087 C   0  0  0  0  0  0  0  0  0  0  0  0
    9.7264  -14.5560   25.2231 O   0  0  0  0  0  0  0  0  0  0  0  0
    9.4326  -16.4978   26.3306 O   0  0  0  0  0  0  0  0  0  0  0  0
  2  1  1  6
  2  3  1  0
  3  4  1  0
  5  4  1  0
  5  6  1  0
  6  7  1  0
  8 12  1  0
  8  2  1  0
  9  8  2  0
 11 10  1  1
 11 13  1  0
 11 12  1  0
 13 15  1  0
 14 13  2  0
 15 16  1  0
 16 17  1  6
 16 22  1  0
 18 17  1  0
 19 20  1  0
 19 18  1  0
 21 20  1  0
 22 24  2  0
 22 23  1  0
M  END
$$$$
