KAK.pdb
     RDKit          3D

 24 23  0  0  1  0  0  0  0  0999 V2000
    7.5441  -16.9020   16.2914 N   0  0  0  0  0  0  0  0  0  0  0  0
    6.8010  -16.6537   17.5011 C   0  0  1  0  0  0  0  0  0  0  0  0
    6.2916  -17.9811   18.0074 C   0  0  0  0  0  0  0  0  0  0  0  0
    5.2592  -18.4731   17.0144 C   0  0  0  0  0  0  0  0  0  0  0  0
    4.6825  -19.8104   17.4307 C   0  0  0  0  0  0  0  0  0  0  0  0
    3.6094  -20.1584   16.3921 C   0  0  0  0  0  0  0  0  0  0  0  0
    3.1598  -21.5196   16.5380 N   0  0  0  0  0  0  0  0  0  0  0  0
    7.6437  -15.9501   18.4714 C   0  0  0  0  0  0  0  0  0  0  0  0
    8.8161  -16.3632   18.6498 O   0  0  0  0  0  0  0  0  0  0  0  0
    7.2444  -12.9940   20.7767 C   0  0  0  0  0  0  0  0  0  0  0  0
    7.9754  -14.1964   20.2841 C   0  0  2  0  0  0  0  0  0  0  0  0
    7.2147  -14.8270   19.2243 N   0  0  0  0  0  0  0  0  0  0  0  0
    8.2802  -15.1763   21.3735 C   0  0  0  0  0  0  0  0  0  0  0  0
    7.3482  -15.8706   21.8223 O   0  0  0  0  0  0  0  0  0  0  0  0
    9.5977  -15.3049   21.8757 N   0  0  0  0  0  0  0  0  0  0  0  0
    9.9070  -16.2107   22.9387 C   0  0  1  0  0  0  0  0  0  0  0  0
   11.0543  -17.1606   22.5905 C   0  0  0  0  0  0  0  0  0  0  0  0
   10.7122  -18.0106   21.4093 C   0  0  0  0  0  0  0  0  0  0  0  0
   11.8628  -18.8391   20.9388 C   0  0  0  0  0  0  0  0  0  0  0  0
   11.5495  -19.7384   19.8002 C   0  0  0  0  0  0  0  0  0  0  0  0
   12.6242  -20.4654   19.2269 N   0  0  0  0  0  0  0  0  0  0  0  0
   10.3000  -15.4551   24.1599 C   0  0  0  0  0  0  0  0  0  0  0  0
   10.4370  -14.0771   24.1463 O   0  0  0  0  0  0  0  0  0  0  0  0
   10.5274  -16.0317   25.2664 O   0  0  0  0  0  0  0  0  0  0  0  0
  2  1  1  6
  2  3  1  0
  3  4  1  0
  5  4  1  0
  5  6  1  0
  6  7  1  0
  8 12  1  0
  8  2  1  0
  9  8  2  0
 11 10  1  1
 11 13  1  0
 11 12  1  0
 13 15  1  0
 14 13  2  0
 15 16  1  0
 16 17  1  6
 16 22  1  0
 18 17  1  0
 19 20  1  0
 19 18  1  0
 21 20  1  0
 22 24  2  0
 22 23  1  0
M  END
$$$$
