KAK.pdb
     RDKit          3D

 24 23  0  0  1  0  0  0  0  0999 V2000
    8.5900  -17.9240   18.2125 N   0  0  0  0  0  0  0  0  0  0  0  0
    9.7533  -17.6623   19.0221 C   0  0  1  0  0  0  0  0  0  0  0  0
   10.8805  -17.2779   18.0950 C   0  0  0  0  0  0  0  0  0  0  0  0
   11.5897  -18.5559   17.6979 C   0  0  0  0  0  0  0  0  0  0  0  0
   13.0730  -18.3268   17.4943 C   0  0  0  0  0  0  0  0  0  0  0  0
   13.6621  -19.6761   17.0656 C   0  0  0  0  0  0  0  0  0  0  0  0
   15.0848  -19.5850   16.8565 N   0  0  0  0  0  0  0  0  0  0  0  0
    9.4486  -16.6328   20.0191 C   0  0  0  0  0  0  0  0  0  0  0  0
   10.3867  -16.2031   20.7350 O   0  0  0  0  0  0  0  0  0  0  0  0
    6.3778  -14.7479   21.1275 C   0  0  0  0  0  0  0  0  0  0  0  0
    7.7971  -15.1741   21.2903 C   0  0  2  0  0  0  0  0  0  0  0  0
    8.1545  -16.0899   20.2259 N   0  0  0  0  0  0  0  0  0  0  0  0
    8.0691  -15.7850   22.6292 C   0  0  0  0  0  0  0  0  0  0  0  0
    8.0602  -17.0271   22.7254 O   0  0  0  0  0  0  0  0  0  0  0  0
    8.3292  -14.9646   23.7534 N   0  0  0  0  0  0  0  0  0  0  0  0
    8.6705  -15.5251   25.0244 C   0  0  1  0  0  0  0  0  0  0  0  0
    8.9937  -14.4590   26.0726 C   0  0  0  0  0  0  0  0  0  0  0  0
    9.4100  -15.0821   27.3662 C   0  0  0  0  0  0  0  0  0  0  0  0
    9.7171  -14.0724   28.4235 C   0  0  0  0  0  0  0  0  0  0  0  0
   10.1215  -14.6512   29.7291 C   0  0  0  0  0  0  0  0  0  0  0  0
   10.3801  -13.7482   30.7922 N   0  0  0  0  0  0  0  0  0  0  0  0
    7.5412  -16.3438   25.5452 C   0  0  0  0  0  0  0  0  0  0  0  0
    7.7609  -17.4992   26.2764 O   0  0  0  0  0  0  0  0  0  0  0  0
    6.3294  -16.0262   25.3465 O   0  0  0  0  0  0  0  0  0  0  0  0
  2  1  1  6
  2  3  1  0
  3  4  1  0
  5  4  1  0
  5  6  1  0
  6  7  1  0
  8 12  1  0
  8  2  1  0
  9  8  2  0
 11 10  1  1
 11 13  1  0
 11 12  1  0
 13 15  1  0
 14 13  2  0
 15 16  1  0
 16 17  1  1
 16 22  1  0
 18 17  1  0
 19 20  1  0
 19 18  1  0
 21 20  1  0
 22 24  2  0
 22 23  1  0
M  END
$$$$
