KAK.pdb
     RDKit          3D

 24 23  0  0  1  0  0  0  0  0999 V2000
    8.9264  -15.6457   20.4365 N   0  0  0  0  0  0  0  0  0  0  0  0
    7.8451  -15.6718   21.3891 C   0  0  1  0  0  0  0  0  0  0  0  0
    7.3390  -17.0914   21.4701 C   0  0  0  0  0  0  0  0  0  0  0  0
    6.8569  -17.4748   20.0863 C   0  0  0  0  0  0  0  0  0  0  0  0
    6.1612  -18.8202   20.0944 C   0  0  0  0  0  0  0  0  0  0  0  0
    5.6009  -19.0236   18.6817 C   0  0  0  0  0  0  0  0  0  0  0  0
    4.8734  -20.2631   18.5790 N   0  0  0  0  0  0  0  0  0  0  0  0
    8.3006  -15.1465   22.6787 C   0  0  0  0  0  0  0  0  0  0  0  0
    9.4213  -15.5161   23.1084 O   0  0  0  0  0  0  0  0  0  0  0  0
    6.8854  -12.8629   25.3248 C   0  0  0  0  0  0  0  0  0  0  0  0
    7.9011  -13.8295   24.8183 C   0  0  2  0  0  0  0  0  0  0  0  0
    7.5506  -14.2428   23.4744 N   0  0  0  0  0  0  0  0  0  0  0  0
    8.0669  -15.0181   25.7124 C   0  0  0  0  0  0  0  0  0  0  0  0
    7.1684  -15.8809   25.7221 O   0  0  0  0  0  0  0  0  0  0  0  0
    9.2195  -15.1510   26.5238 N   0  0  0  0  0  0  0  0  0  0  0  0
    9.4051  -16.2829   27.3786 C   0  0  1  0  0  0  0  0  0  0  0  0
   10.2063  -17.4021   26.7114 C   0  0  0  0  0  0  0  0  0  0  0  0
   11.5928  -16.9508   26.3812 C   0  0  0  0  0  0  0  0  0  0  0  0
   12.3913  -17.9992   25.6777 C   0  0  0  0  0  0  0  0  0  0  0  0
   13.7554  -17.5706   25.2793 C   0  0  0  0  0  0  0  0  0  0  0  0
   14.5578  -18.5098   24.5818 N   0  0  0  0  0  0  0  0  0  0  0  0
   10.1322  -15.8804   28.6139 C   0  0  0  0  0  0  0  0  0  0  0  0
   10.3847  -16.7838   29.6327 O   0  0  0  0  0  0  0  0  0  0  0  0
   10.5540  -14.6979   28.7939 O   0  0  0  0  0  0  0  0  0  0  0  0
  2  1  1  6
  2  3  1  0
  3  4  1  0
  5  4  1  0
  5  6  1  0
  6  7  1  0
  8 12  1  0
  8  2  1  0
  9  8  2  0
 11 10  1  1
 11 13  1  0
 11 12  1  0
 13 15  1  0
 14 13  2  0
 15 16  1  0
 16 17  1  6
 16 22  1  0
 18 17  1  0
 19 20  1  0
 19 18  1  0
 21 20  1  0
 22 24  2  0
 22 23  1  0
M  END
$$$$
