KAK.pdb
     RDKit          3D

 24 23  0  0  1  0  0  0  0  0999 V2000
    9.1608  -15.5133   14.9441 N   0  0  0  0  0  0  0  0  0  0  0  0
    8.2011  -15.8133   15.9766 C   0  0  1  0  0  0  0  0  0  0  0  0
    7.9831  -17.3067   15.9808 C   0  0  0  0  0  0  0  0  0  0  0  0
    6.8970  -17.6038   14.9678 C   0  0  0  0  0  0  0  0  0  0  0  0
    6.4815  -19.0598   15.0111 C   0  0  0  0  0  0  0  0  0  0  0  0
    5.4346  -19.2417   13.9056 C   0  0  0  0  0  0  0  0  0  0  0  0
    4.9338  -20.5924   13.8741 N   0  0  0  0  0  0  0  0  0  0  0  0
    8.6710  -15.2945   17.2637 C   0  0  0  0  0  0  0  0  0  0  0  0
    9.8483  -15.5546   17.6149 O   0  0  0  0  0  0  0  0  0  0  0  0
    7.3041  -13.0318   19.9429 C   0  0  0  0  0  0  0  0  0  0  0  0
    8.3065  -14.0078   19.4277 C   0  0  2  0  0  0  0  0  0  0  0  0
    7.8748  -14.5136   18.1403 N   0  0  0  0  0  0  0  0  0  0  0  0
    8.5630  -15.1330   20.3806 C   0  0  0  0  0  0  0  0  0  0  0  0
    7.8852  -16.1718   20.2655 O   0  0  0  0  0  0  0  0  0  0  0  0
    9.5534  -15.0115   21.3851 N   0  0  0  0  0  0  0  0  0  0  0  0
    9.7648  -16.0420   22.3544 C   0  0  1  0  0  0  0  0  0  0  0  0
   11.0764  -15.8707   23.1224 C   0  0  0  0  0  0  0  0  0  0  0  0
   11.3267  -17.0322   24.0298 C   0  0  0  0  0  0  0  0  0  0  0  0
   12.7812  -17.2976   24.2435 C   0  0  0  0  0  0  0  0  0  0  0  0
   13.0735  -18.4832   25.0875 C   0  0  0  0  0  0  0  0  0  0  0  0
   14.4362  -18.7869   25.3380 N   0  0  0  0  0  0  0  0  0  0  0  0
    8.6560  -16.0482   23.3482 C   0  0  0  0  0  0  0  0  0  0  0  0
    8.3424  -17.1835   24.0767 O   0  0  0  0  0  0  0  0  0  0  0  0
    7.9480  -15.0208   23.5758 O   0  0  0  0  0  0  0  0  0  0  0  0
  2  1  1  6
  2  3  1  0
  3  4  1  0
  5  4  1  0
  5  6  1  0
  6  7  1  0
  8 12  1  0
  8  2  1  0
  9  8  2  0
 11 10  1  1
 11 13  1  0
 11 12  1  0
 13 15  1  0
 14 13  2  0
 15 16  1  0
 16 17  1  1
 16 22  1  0
 18 17  1  0
 19 20  1  0
 19 18  1  0
 21 20  1  0
 22 24  2  0
 22 23  1  0
M  END
$$$$
