MWT.pdb
     RDKit          3D

 30 31  0  0  1  0  0  0  0  0999 V2000
   24.9244   -8.5253  -24.3354 C   0  0  0  0  0  0  0  0  0  0  0  0
   23.8820   -8.1524  -22.8987 S   0  0  0  0  0  0  0  0  0  0  0  0
   24.0886   -9.4766  -21.6766 C   0  0  0  0  0  0  0  0  0  0  0  0
   23.2551   -9.1229  -20.4859 C   0  0  0  0  0  0  0  0  0  0  0  0
   23.6293   -9.9662  -19.2539 C   0  0  2  0  0  0  0  0  0  0  0  0
   23.2224  -11.3161  -19.5717 N   0  0  0  0  0  0  0  0  0  0  0  0
   22.7752   -9.4287  -18.1693 C   0  0  0  0  0  0  0  0  0  0  0  0
   21.5772   -9.1728  -18.4557 O   0  0  0  0  0  0  0  0  0  0  0  0
   23.2825   -9.2112  -16.8672 N   0  0  0  0  0  0  0  0  0  0  0  0
   22.4868   -8.6269  -15.7796 C   0  0  1  0  0  0  0  0  0  0  0  0
   22.3160   -9.5915  -14.6760 C   0  0  0  0  0  0  0  0  0  0  0  0
   21.9048  -10.9498  -14.9956 C   0  0  0  0  0  0  0  0  0  0  0  0
   22.6754  -12.0893  -14.9257 C   0  0  0  0  0  0  0  0  0  0  0  0
   21.9518  -13.1640  -15.3317 N   0  0  0  0  0  0  0  0  0  0  0  0
   20.7244  -12.7186  -15.6599 C   0  0  0  0  0  0  0  0  0  0  0  0
   19.6232  -13.4062  -16.1136 C   0  0  0  0  0  0  0  0  0  0  0  0
   18.4191  -12.7455  -16.3839 C   0  0  0  0  0  0  0  0  0  0  0  0
   18.3470  -11.3813  -16.1887 C   0  0  0  0  0  0  0  0  0  0  0  0
   19.4547  -10.7156  -15.7374 C   0  0  0  0  0  0  0  0  0  0  0  0
   20.6752  -11.3453  -15.4575 C   0  0  0  0  0  0  0  0  0  0  0  0
   22.9246   -7.2727  -15.4688 C   0  0  0  0  0  0  0  0  0  0  0  0
   24.1121   -6.8693  -15.4587 O   0  0  0  0  0  0  0  0  0  0  0  0
   22.0048   -4.2120  -17.3444 C   0  0  0  0  0  0  0  0  0  0  0  0
   21.5340   -3.9894  -15.9032 C   0  0  1  0  0  0  0  0  0  0  0  0
   20.1654   -4.1992  -15.8113 O   0  0  0  0  0  0  0  0  0  0  0  0
   22.3100   -4.8967  -14.9722 C   0  0  2  0  0  0  0  0  0  0  0  0
   21.9449   -6.2823  -15.1389 N   0  0  0  0  0  0  0  0  0  0  0  0
   21.9466   -4.4254  -13.5843 C   0  0  0  0  0  0  0  0  0  0  0  0
   22.3995   -3.2018  -13.1613 O   0  0  0  0  0  0  0  0  0  0  0  0
   21.2482   -5.1229  -12.8218 O   0  0  0  0  0  0  0  0  0  0  0  0
  2  3  1  0
  2  1  1  0
  4  3  1  0
  5  4  1  0
  5  6  1  6
  7  8  2  0
  7  5  1  0
  9  7  1  0
 10  9  1  0
 10 11  1  1
 12 13  2  0
 12 11  1  0
 14 13  1  0
 15 20  2  0
 15 14  1  0
 16 15  1  0
 17 18  1  0
 17 16  2  0
 18 19  2  0
 19 20  1  0
 20 12  1  0
 21 10  1  0
 21 22  2  0
 24 23  1  6
 25 24  1  0
 26 27  1  1
 26 24  1  0
 27 21  1  0
 28 26  1  0
 29 28  1  0
 30 28  2  0
M  END
$$$$
