MWT.pdb
     RDKit          3D

 30 31  0  0  1  0  0  0  0  0999 V2000
   29.7989  -18.5567  -16.7377 C   0  0  0  0  0  0  0  0  0  0  0  0
   28.5344  -17.4500  -16.0549 S   0  0  0  0  0  0  0  0  0  0  0  0
   27.5353  -18.3818  -14.8620 C   0  0  0  0  0  0  0  0  0  0  0  0
   27.3647  -19.7659  -15.4032 C   0  0  0  0  0  0  0  0  0  0  0  0
   28.1309  -20.8064  -14.5670 C   0  0  2  0  0  0  0  0  0  0  0  0
   28.1278  -22.0159  -15.3582 N   0  0  0  0  0  0  0  0  0  0  0  0
   27.2922  -20.9958  -13.3606 C   0  0  0  0  0  0  0  0  0  0  0  0
   26.1364  -21.4619  -13.5326 O   0  0  0  0  0  0  0  0  0  0  0  0
   27.7680  -20.6672  -12.0700 N   0  0  0  0  0  0  0  0  0  0  0  0
   26.9576  -20.8061  -10.8529 C   0  0  1  0  0  0  0  0  0  0  0  0
   27.7692  -20.5467   -9.6481 C   0  0  0  0  0  0  0  0  0  0  0  0
   27.1175  -20.5838   -8.3480 C   0  0  0  0  0  0  0  0  0  0  0  0
   25.8537  -21.0528   -8.0653 C   0  0  0  0  0  0  0  0  0  0  0  0
   25.5854  -20.8949   -6.7437 N   0  0  0  0  0  0  0  0  0  0  0  0
   26.6694  -20.3288   -6.1806 C   0  0  0  0  0  0  0  0  0  0  0  0
   26.9080  -19.9768   -4.8728 C   0  0  0  0  0  0  0  0  0  0  0  0
   28.1275  -19.4073   -4.4883 C   0  0  0  0  0  0  0  0  0  0  0  0
   29.0995  -19.1999   -5.4456 C   0  0  0  0  0  0  0  0  0  0  0  0
   28.8418  -19.5565   -6.7418 C   0  0  0  0  0  0  0  0  0  0  0  0
   27.6326  -20.1280   -7.1612 C   0  0  0  0  0  0  0  0  0  0  0  0
   25.6709  -20.1373  -10.9917 C   0  0  0  0  0  0  0  0  0  0  0  0
   25.4773  -18.8994  -10.9368 O   0  0  0  0  0  0  0  0  0  0  0  0
   23.5616  -19.6949  -13.8411 C   0  0  0  0  0  0  0  0  0  0  0  0
   22.7326  -20.5422  -12.8700 C   0  0  1  0  0  0  0  0  0  0  0  0
   22.8026  -21.8813  -13.2268 O   0  0  0  0  0  0  0  0  0  0  0  0
   23.2160  -20.3070  -11.4547 C   0  0  2  0  0  0  0  0  0  0  0  0
   24.4961  -20.9256  -11.2107 N   0  0  0  0  0  0  0  0  0  0  0  0
   22.1585  -20.9342  -10.5778 C   0  0  0  0  0  0  0  0  0  0  0  0
   20.9100  -20.3675  -10.5387 O   0  0  0  0  0  0  0  0  0  0  0  0
   22.3979  -21.9493   -9.8938 O   0  0  0  0  0  0  0  0  0  0  0  0
  2  3  1  0
  2  1  1  0
  4  3  1  0
  5  4  1  0
  5  6  1  6
  7  8  2  0
  7  5  1  0
  9  7  1  0
 10  9  1  0
 10 11  1  1
 12 13  2  0
 12 11  1  0
 14 13  1  0
 15 20  2  0
 15 14  1  0
 16 15  1  0
 17 18  1  0
 17 16  2  0
 18 19  2  0
 19 20  1  0
 20 12  1  0
 21 10  1  0
 21 22  2  0
 24 23  1  6
 25 24  1  0
 26 27  1  6
 26 24  1  0
 27 21  1  0
 28 26  1  0
 29 28  1  0
 30 28  2  0
M  END
$$$$
