MWT.pdb
     RDKit          3D

 30 31  0  0  1  0  0  0  0  0999 V2000
   26.1792  -20.4014  -17.6715 C   0  0  0  0  0  0  0  0  0  0  0  0
   27.4967  -19.1986  -17.3439 S   0  0  0  0  0  0  0  0  0  0  0  0
   28.5033  -19.8071  -15.9632 C   0  0  0  0  0  0  0  0  0  0  0  0
   27.5655  -20.2805  -14.8983 C   0  0  0  0  0  0  0  0  0  0  0  0
   28.3184  -20.7675  -13.6472 C   0  0  2  0  0  0  0  0  0  0  0  0
   29.0040  -21.9730  -14.0539 N   0  0  0  0  0  0  0  0  0  0  0  0
   27.2457  -21.1036  -12.6823 C   0  0  0  0  0  0  0  0  0  0  0  0
   26.6400  -22.1928  -12.8539 O   0  0  0  0  0  0  0  0  0  0  0  0
   26.9147  -20.2386  -11.6135 N   0  0  0  0  0  0  0  0  0  0  0  0
   25.8352  -20.5163  -10.6569 C   0  0  1  0  0  0  0  0  0  0  0  0
   26.1946  -20.0428   -9.3062 C   0  0  0  0  0  0  0  0  0  0  0  0
   27.4352  -20.5140   -8.7102 C   0  0  0  0  0  0  0  0  0  0  0  0
   28.3593  -21.3634   -9.2775 C   0  0  0  0  0  0  0  0  0  0  0  0
   29.3722  -21.5966   -8.4039 N   0  0  0  0  0  0  0  0  0  0  0  0
   29.1014  -20.9016   -7.2831 C   0  0  0  0  0  0  0  0  0  0  0  0
   29.8159  -20.7914   -6.1132 C   0  0  0  0  0  0  0  0  0  0  0  0
   29.3592  -19.9909   -5.0596 C   0  0  0  0  0  0  0  0  0  0  0  0
   28.1707  -19.3055   -5.2079 C   0  0  0  0  0  0  0  0  0  0  0  0
   27.4743  -19.4295   -6.3799 C   0  0  0  0  0  0  0  0  0  0  0  0
   27.9021  -20.2220   -7.4539 C   0  0  0  0  0  0  0  0  0  0  0  0
   24.5339  -20.1577  -11.2049 C   0  0  0  0  0  0  0  0  0  0  0  0
   24.1363  -18.9939  -11.4504 O   0  0  0  0  0  0  0  0  0  0  0  0
   23.3046  -21.4590  -14.4783 C   0  0  0  0  0  0  0  0  0  0  0  0
   22.2295  -21.8117  -13.4449 C   0  0  1  0  0  0  0  0  0  0  0  0
   22.3119  -23.1562  -13.1115 O   0  0  0  0  0  0  0  0  0  0  0  0
   22.3808  -20.9173  -12.2328 C   0  0  2  0  0  0  0  0  0  0  0  0
   23.5940  -21.1954  -11.5036 N   0  0  0  0  0  0  0  0  0  0  0  0
   21.1757  -21.2236  -11.3758 C   0  0  0  0  0  0  0  0  0  0  0  0
   21.3547  -21.9176  -10.2063 O   0  0  0  0  0  0  0  0  0  0  0  0
   20.0302  -20.8604  -11.7095 O   0  0  0  0  0  0  0  0  0  0  0  0
  2  3  1  0
  2  1  1  0
  4  3  1  0
  5  4  1  0
  5  6  1  6
  7  8  2  0
  7  5  1  0
  9  7  1  0
 10  9  1  0
 10 11  1  1
 12 13  2  0
 12 11  1  0
 14 13  1  0
 15 20  2  0
 15 14  1  0
 16 15  1  0
 17 18  1  0
 17 16  2  0
 18 19  2  0
 19 20  1  0
 20 12  1  0
 21 10  1  0
 21 22  2  0
 24 23  1  6
 25 24  1  0
 26 27  1  1
 26 24  1  0
 27 21  1  0
 28 26  1  0
 29 28  1  0
 30 28  2  0
M  END
$$$$
