MWT.pdb
     RDKit          3D

 30 31  0  0  1  0  0  0  0  0999 V2000
   25.7204  -19.7756  -18.4288 C   0  0  0  0  0  0  0  0  0  0  0  0
   27.3431  -20.0097  -19.2047 S   0  0  0  0  0  0  0  0  0  0  0  0
   28.3910  -20.9651  -18.0739 C   0  0  0  0  0  0  0  0  0  0  0  0
   27.5808  -21.2592  -16.8513 C   0  0  0  0  0  0  0  0  0  0  0  0
   28.4189  -21.9514  -15.7616 C   0  0  2  0  0  0  0  0  0  0  0  0
   28.6652  -23.2876  -16.2542 N   0  0  0  0  0  0  0  0  0  0  0  0
   27.5169  -22.0095  -14.5878 C   0  0  0  0  0  0  0  0  0  0  0  0
   26.4901  -22.7293  -14.6882 O   0  0  0  0  0  0  0  0  0  0  0  0
   27.7958  -21.2872  -13.4043 N   0  0  0  0  0  0  0  0  0  0  0  0
   26.9413  -21.3357  -12.2105 C   0  0  1  0  0  0  0  0  0  0  0  0
   27.7484  -21.2168  -10.9808 C   0  0  0  0  0  0  0  0  0  0  0  0
   27.0805  -20.8478   -9.7423 C   0  0  0  0  0  0  0  0  0  0  0  0
   25.7233  -20.7560   -9.5258 C   0  0  0  0  0  0  0  0  0  0  0  0
   25.4833  -20.3542   -8.2512 N   0  0  0  0  0  0  0  0  0  0  0  0
   26.6778  -20.1893   -7.6525 C   0  0  0  0  0  0  0  0  0  0  0  0
   26.9803  -19.8071   -6.3665 C   0  0  0  0  0  0  0  0  0  0  0  0
   28.3081  -19.7121   -5.9337 C   0  0  0  0  0  0  0  0  0  0  0  0
   29.3228  -20.0091   -6.8206 C   0  0  0  0  0  0  0  0  0  0  0  0
   29.0004  -20.3867   -8.0963 C   0  0  0  0  0  0  0  0  0  0  0  0
   27.6827  -20.4915   -8.5625 C   0  0  0  0  0  0  0  0  0  0  0  0
   25.7647  -20.4907  -12.3642 C   0  0  0  0  0  0  0  0  0  0  0  0
   25.7583  -19.2366  -12.3775 O   0  0  0  0  0  0  0  0  0  0  0  0
   23.8827  -19.5525  -15.0255 C   0  0  0  0  0  0  0  0  0  0  0  0
   22.8617  -20.3234  -14.1821 C   0  0  1  0  0  0  0  0  0  0  0  0
   22.7162  -21.6135  -14.6720 O   0  0  0  0  0  0  0  0  0  0  0  0
   23.2942  -20.3137  -12.7313 C   0  0  2  0  0  0  0  0  0  0  0  0
   24.4806  -21.1053  -12.5155 N   0  0  0  0  0  0  0  0  0  0  0  0
   22.1275  -20.9072  -11.9781 C   0  0  0  0  0  0  0  0  0  0  0  0
   20.9359  -20.2281  -11.9622 O   0  0  0  0  0  0  0  0  0  0  0  0
   22.2272  -21.9943  -11.3749 O   0  0  0  0  0  0  0  0  0  0  0  0
  2  3  1  0
  2  1  1  0
  4  3  1  0
  5  4  1  0
  5  6  1  6
  7  8  2  0
  7  5  1  0
  9  7  1  0
 10  9  1  0
 10 11  1  1
 12 13  2  0
 12 11  1  0
 14 13  1  0
 15 20  2  0
 15 14  1  0
 16 15  1  0
 17 18  1  0
 17 16  2  0
 18 19  2  0
 19 20  1  0
 20 12  1  0
 21 10  1  0
 21 22  2  0
 24 23  1  6
 25 24  1  0
 26 27  1  6
 26 24  1  0
 27 21  1  0
 28 26  1  0
 29 28  1  0
 30 28  2  0
M  END
$$$$
