MWT.pdb
     RDKit          3D

 30 31  0  0  1  0  0  0  0  0999 V2000
   26.0594  -19.1301  -17.8633 C   0  0  0  0  0  0  0  0  0  0  0  0
   27.7861  -18.5888  -17.7382 S   0  0  0  0  0  0  0  0  0  0  0  0
   28.7066  -19.8153  -16.7698 C   0  0  0  0  0  0  0  0  0  0  0  0
   27.8059  -20.2899  -15.6738 C   0  0  0  0  0  0  0  0  0  0  0  0
   28.4979  -21.3289  -14.7733 C   0  0  2  0  0  0  0  0  0  0  0  0
   28.5472  -22.5445  -15.5535 N   0  0  0  0  0  0  0  0  0  0  0  0
   27.5672  -21.5034  -13.6339 C   0  0  0  0  0  0  0  0  0  0  0  0
   26.4687  -22.0686  -13.8716 O   0  0  0  0  0  0  0  0  0  0  0  0
   27.8970  -21.0542  -12.3341 N   0  0  0  0  0  0  0  0  0  0  0  0
   26.9909  -21.1782  -11.1846 C   0  0  1  0  0  0  0  0  0  0  0  0
   27.7414  -21.1255   -9.9152 C   0  0  0  0  0  0  0  0  0  0  0  0
   27.0253  -20.7823   -8.6964 C   0  0  0  0  0  0  0  0  0  0  0  0
   25.6612  -20.7861   -8.5053 C   0  0  0  0  0  0  0  0  0  0  0  0
   25.3687  -20.3780   -7.2437 N   0  0  0  0  0  0  0  0  0  0  0  0
   26.5365  -20.1141   -6.6281 C   0  0  0  0  0  0  0  0  0  0  0  0
   26.7861  -19.6856   -5.3454 C   0  0  0  0  0  0  0  0  0  0  0  0
   28.0951  -19.4849   -4.8919 C   0  0  0  0  0  0  0  0  0  0  0  0
   29.1452  -19.7240   -5.7547 C   0  0  0  0  0  0  0  0  0  0  0  0
   28.8752  -20.1492   -7.0275 C   0  0  0  0  0  0  0  0  0  0  0  0
   27.5777  -20.3596   -7.5141 C   0  0  0  0  0  0  0  0  0  0  0  0
   25.8142  -20.3340  -11.3418 C   0  0  0  0  0  0  0  0  0  0  0  0
   25.7831  -19.0868  -11.2130 O   0  0  0  0  0  0  0  0  0  0  0  0
   24.0053  -19.4206  -14.2314 C   0  0  0  0  0  0  0  0  0  0  0  0
   22.9810  -20.1881  -13.3889 C   0  0  1  0  0  0  0  0  0  0  0  0
   22.8623  -21.4904  -13.8531 O   0  0  0  0  0  0  0  0  0  0  0  0
   23.3884  -20.1411  -11.9316 C   0  0  2  0  0  0  0  0  0  0  0  0
   24.5603  -20.9410  -11.6716 N   0  0  0  0  0  0  0  0  0  0  0  0
   22.2011  -20.6971  -11.1820 C   0  0  0  0  0  0  0  0  0  0  0  0
   22.3197  -21.9169  -10.5660 O   0  0  0  0  0  0  0  0  0  0  0  0
   21.1236  -20.0728  -11.1139 O   0  0  0  0  0  0  0  0  0  0  0  0
  2  3  1  0
  2  1  1  0
  4  3  1  0
  5  4  1  0
  5  6  1  6
  7  8  2  0
  7  5  1  0
  9  7  1  0
 10  9  1  0
 10 11  1  1
 12 13  2  0
 12 11  1  0
 14 13  1  0
 15 20  2  0
 15 14  1  0
 16 15  1  0
 17 18  1  0
 17 16  2  0
 18 19  2  0
 19 20  1  0
 20 12  1  0
 21 10  1  0
 21 22  2  0
 24 23  1  6
 25 24  1  0
 26 27  1  6
 26 24  1  0
 27 21  1  0
 28 26  1  0
 29 28  1  0
 30 28  2  0
M  END
$$$$
