MWT.pdb
     RDKit          3D

 30 31  0  0  1  0  0  0  0  0999 V2000
   25.6158  -17.7386  -16.0178 C   0  0  0  0  0  0  0  0  0  0  0  0
   27.1885  -16.9219  -15.6312 S   0  0  0  0  0  0  0  0  0  0  0  0
   28.2556  -18.1054  -14.7649 C   0  0  0  0  0  0  0  0  0  0  0  0
   27.3759  -18.9599  -13.9084 C   0  0  0  0  0  0  0  0  0  0  0  0
   28.1936  -19.8383  -12.9446 C   0  0  2  0  0  0  0  0  0  0  0  0
   28.8492  -20.8199  -13.7786 N   0  0  0  0  0  0  0  0  0  0  0  0
   27.1737  -20.5015  -12.0992 C   0  0  0  0  0  0  0  0  0  0  0  0
   26.6502  -21.5529  -12.5500 O   0  0  0  0  0  0  0  0  0  0  0  0
   26.8024  -19.9768  -10.8395 N   0  0  0  0  0  0  0  0  0  0  0  0
   25.8116  -20.6135   -9.9617 C   0  0  1  0  0  0  0  0  0  0  0  0
   26.1245  -20.3574   -8.5425 C   0  0  0  0  0  0  0  0  0  0  0  0
   27.4863  -20.5745   -8.0794 C   0  0  0  0  0  0  0  0  0  0  0  0
   28.5129  -21.1782   -8.7715 C   0  0  0  0  0  0  0  0  0  0  0  0
   29.6285  -21.2246   -7.9990 N   0  0  0  0  0  0  0  0  0  0  0  0
   29.3214  -20.6544   -6.8187 C   0  0  0  0  0  0  0  0  0  0  0  0
   30.1014  -20.4434   -5.7059 C   0  0  0  0  0  0  0  0  0  0  0  0
   29.5848  -19.8075   -4.5708 C   0  0  0  0  0  0  0  0  0  0  0  0
   28.2697  -19.3897   -4.5794 C   0  0  0  0  0  0  0  0  0  0  0  0
   27.5101  -19.6101   -5.6966 C   0  0  0  0  0  0  0  0  0  0  0  0
   27.9949  -20.2436   -6.8491 C   0  0  0  0  0  0  0  0  0  0  0  0
   24.4539  -20.3810  -10.4358 C   0  0  0  0  0  0  0  0  0  0  0  0
   23.7389  -19.3890  -10.1571 O   0  0  0  0  0  0  0  0  0  0  0  0
   21.3464  -21.5010  -14.1388 C   0  0  0  0  0  0  0  0  0  0  0  0
   22.5945  -21.8872  -13.3379 C   0  0  1  0  0  0  0  0  0  0  0  0
   23.7222  -21.8002  -14.1419 O   0  0  0  0  0  0  0  0  0  0  0  0
   22.7024  -21.0038  -12.1132 C   0  0  2  0  0  0  0  0  0  0  0  0
   23.8423  -21.3462  -11.2982 N   0  0  0  0  0  0  0  0  0  0  0  0
   21.4230  -21.2481  -11.3488 C   0  0  0  0  0  0  0  0  0  0  0  0
   21.3340  -22.3556  -10.5445 O   0  0  0  0  0  0  0  0  0  0  0  0
   20.4539  -20.4678  -11.4351 O   0  0  0  0  0  0  0  0  0  0  0  0
  2  3  1  0
  2  1  1  0
  4  3  1  0
  5  4  1  0
  5  6  1  6
  7  8  2  0
  7  5  1  0
  9  7  1  0
 10  9  1  0
 10 11  1  1
 12 13  2  0
 12 11  1  0
 14 13  1  0
 15 20  2  0
 15 14  1  0
 16 15  1  0
 17 18  1  0
 17 16  2  0
 18 19  2  0
 19 20  1  0
 20 12  1  0
 21 10  1  0
 21 22  2  0
 24 23  1  6
 25 24  1  0
 26 27  1  1
 26 24  1  0
 27 21  1  0
 28 26  1  0
 29 28  1  0
 30 28  2  0
M  END
$$$$
