MWT.pdb
     RDKit          3D

 30 31  0  0  1  0  0  0  0  0999 V2000
   27.7551  -16.9547  -15.6718 C   0  0  0  0  0  0  0  0  0  0  0  0
   28.1470  -17.4554  -17.3706 S   0  0  0  0  0  0  0  0  0  0  0  0
   28.4162  -19.2488  -17.3960 C   0  0  0  0  0  0  0  0  0  0  0  0
   27.5884  -19.8428  -16.3008 C   0  0  0  0  0  0  0  0  0  0  0  0
   28.3554  -20.9318  -15.5294 C   0  0  2  0  0  0  0  0  0  0  0  0
   28.4202  -22.0654  -16.4235 N   0  0  0  0  0  0  0  0  0  0  0  0
   27.4785  -21.2518  -14.3790 C   0  0  0  0  0  0  0  0  0  0  0  0
   26.4227  -21.8911  -14.6226 O   0  0  0  0  0  0  0  0  0  0  0  0
   27.8116  -20.8562  -13.0627 N   0  0  0  0  0  0  0  0  0  0  0  0
   26.9139  -21.0399  -11.9146 C   0  0  1  0  0  0  0  0  0  0  0  0
   27.6652  -20.9863  -10.6457 C   0  0  0  0  0  0  0  0  0  0  0  0
   26.9265  -20.8006   -9.4063 C   0  0  0  0  0  0  0  0  0  0  0  0
   25.5769  -20.9904   -9.2071 C   0  0  0  0  0  0  0  0  0  0  0  0
   25.2505  -20.6878   -7.9243 N   0  0  0  0  0  0  0  0  0  0  0  0
   26.3824  -20.3066   -7.3031 C   0  0  0  0  0  0  0  0  0  0  0  0
   26.5912  -19.9147   -6.0016 C   0  0  0  0  0  0  0  0  0  0  0  0
   27.8692  -19.5696   -5.5465 C   0  0  0  0  0  0  0  0  0  0  0  0
   28.9302  -19.6270   -6.4270 C   0  0  0  0  0  0  0  0  0  0  0  0
   28.7009  -20.0188   -7.7185 C   0  0  0  0  0  0  0  0  0  0  0  0
   27.4351  -20.3703   -8.2072 C   0  0  0  0  0  0  0  0  0  0  0  0
   25.7054  -20.2380  -12.0511 C   0  0  0  0  0  0  0  0  0  0  0  0
   25.6450  -18.9864  -11.9972 O   0  0  0  0  0  0  0  0  0  0  0  0
   23.8371  -19.4027  -14.8054 C   0  0  0  0  0  0  0  0  0  0  0  0
   22.8290  -20.1895  -13.9612 C   0  0  1  0  0  0  0  0  0  0  0  0
   22.7254  -21.4905  -14.4326 O   0  0  0  0  0  0  0  0  0  0  0  0
   23.2450  -20.1456  -12.5062 C   0  0  2  0  0  0  0  0  0  0  0  0
   24.4528  -20.8969  -12.2662 N   0  0  0  0  0  0  0  0  0  0  0  0
   22.0889  -20.7640  -11.7567 C   0  0  0  0  0  0  0  0  0  0  0  0
   22.2503  -22.0074  -11.2005 O   0  0  0  0  0  0  0  0  0  0  0  0
   20.9990  -20.1699  -11.6357 O   0  0  0  0  0  0  0  0  0  0  0  0
  2  3  1  0
  2  1  1  0
  4  3  1  0
  5  4  1  0
  5  6  1  6
  7  8  2  0
  7  5  1  0
  9  7  1  0
 10  9  1  0
 10 11  1  1
 12 13  2  0
 12 11  1  0
 14 13  1  0
 15 20  2  0
 15 14  1  0
 16 15  1  0
 17 18  1  0
 17 16  2  0
 18 19  2  0
 19 20  1  0
 20 12  1  0
 21 10  1  0
 21 22  2  0
 24 23  1  6
 25 24  1  0
 26 27  1  6
 26 24  1  0
 27 21  1  0
 28 26  1  0
 29 28  1  0
 30 28  2  0
M  END
$$$$
