MWT.pdb
     RDKit          3D

 30 31  0  0  1  0  0  0  0  0999 V2000
   24.6212  -25.2366  -14.8709 C   0  0  0  0  0  0  0  0  0  0  0  0
   22.9599  -25.9172  -14.6127 S   0  0  0  0  0  0  0  0  0  0  0  0
   21.7782  -24.5431  -14.5410 C   0  0  0  0  0  0  0  0  0  0  0  0
   22.5307  -23.3258  -14.1058 C   0  0  0  0  0  0  0  0  0  0  0  0
   22.0272  -22.7948  -12.7517 C   0  0  2  0  0  0  0  0  0  0  0  0
   20.7357  -22.2060  -13.0238 N   0  0  0  0  0  0  0  0  0  0  0  0
   22.9953  -21.7326  -12.3923 C   0  0  0  0  0  0  0  0  0  0  0  0
   22.9333  -20.6563  -13.0407 O   0  0  0  0  0  0  0  0  0  0  0  0
   23.9496  -21.9183  -11.3651 N   0  0  0  0  0  0  0  0  0  0  0  0
   25.0109  -20.9478  -11.0661 C   0  0  1  0  0  0  0  0  0  0  0  0
   25.5029  -21.1154   -9.6850 C   0  0  0  0  0  0  0  0  0  0  0  0
   26.2835  -20.0424   -9.0888 C   0  0  0  0  0  0  0  0  0  0  0  0
   26.6397  -18.8487   -9.6765 C   0  0  0  0  0  0  0  0  0  0  0  0
   27.3941  -18.1160   -8.8176 N   0  0  0  0  0  0  0  0  0  0  0  0
   27.5216  -18.8335   -7.6856 C   0  0  0  0  0  0  0  0  0  0  0  0
   28.1757  -18.5330   -6.5138 C   0  0  0  0  0  0  0  0  0  0  0  0
   28.1722  -19.4245   -5.4346 C   0  0  0  0  0  0  0  0  0  0  0  0
   27.4983  -20.6222   -5.5595 C   0  0  0  0  0  0  0  0  0  0  0  0
   26.8544  -20.9026   -6.7346 C   0  0  0  0  0  0  0  0  0  0  0  0
   26.8382  -20.0336   -7.8342 C   0  0  0  0  0  0  0  0  0  0  0  0
   25.9780  -20.8661  -12.1525 C   0  0  0  0  0  0  0  0  0  0  0  0
   26.7065  -21.8027  -12.5587 O   0  0  0  0  0  0  0  0  0  0  0  0
   26.8666  -18.4299  -16.3574 C   0  0  0  0  0  0  0  0  0  0  0  0
   26.0593  -18.5868  -15.0644 C   0  0  1  0  0  0  0  0  0  0  0  0
   24.7609  -18.9784  -15.3580 O   0  0  0  0  0  0  0  0  0  0  0  0
   26.7555  -19.5728  -14.1505 C   0  0  2  0  0  0  0  0  0  0  0  0
   26.1446  -19.6241  -12.8448 N   0  0  0  0  0  0  0  0  0  0  0  0
   28.1730  -19.0631  -14.0431 C   0  0  0  0  0  0  0  0  0  0  0  0
   29.0229  -19.2427  -15.1045 O   0  0  0  0  0  0  0  0  0  0  0  0
   28.5815  -18.4869  -13.0151 O   0  0  0  0  0  0  0  0  0  0  0  0
  2  3  1  0
  2  1  1  0
  4  3  1  0
  5  4  1  0
  5  6  1  6
  7  8  2  0
  7  5  1  0
  9  7  1  0
 10  9  1  0
 10 11  1  1
 12 13  2  0
 12 11  1  0
 14 13  1  0
 15 20  2  0
 15 14  1  0
 16 15  1  0
 17 18  1  0
 17 16  2  0
 18 19  2  0
 19 20  1  0
 20 12  1  0
 21 10  1  0
 21 22  2  0
 24 23  1  6
 25 24  1  0
 26 27  1  1
 26 24  1  0
 27 21  1  0
 28 26  1  0
 29 28  1  0
 30 28  2  0
M  END
$$$$
