MWT.pdb
     RDKit          3D

 30 31  0  0  1  0  0  0  0  0999 V2000
   27.6944  -16.7092  -15.1072 C   0  0  0  0  0  0  0  0  0  0  0  0
   27.2565  -17.7563  -16.5220 S   0  0  0  0  0  0  0  0  0  0  0  0
   27.2578  -19.4875  -15.9809 C   0  0  0  0  0  0  0  0  0  0  0  0
   28.3218  -19.6316  -14.9394 C   0  0  0  0  0  0  0  0  0  0  0  0
   28.4370  -21.0813  -14.4351 C   0  0  2  0  0  0  0  0  0  0  0  0
   27.9606  -21.9071  -15.5213 N   0  0  0  0  0  0  0  0  0  0  0  0
   27.4872  -21.1506  -13.3004 C   0  0  0  0  0  0  0  0  0  0  0  0
   26.3466  -21.6266  -13.5349 O   0  0  0  0  0  0  0  0  0  0  0  0
   27.8449  -20.7011  -12.0080 N   0  0  0  0  0  0  0  0  0  0  0  0
   26.9148  -20.6946  -10.8711 C   0  0  1  0  0  0  0  0  0  0  0  0
   27.5813  -20.2045   -9.6491 C   0  0  0  0  0  0  0  0  0  0  0  0
   26.9043  -20.3703   -8.3723 C   0  0  0  0  0  0  0  0  0  0  0  0
   25.6073  -20.7862   -8.1675 C   0  0  0  0  0  0  0  0  0  0  0  0
   25.3252  -20.7880   -6.8393 N   0  0  0  0  0  0  0  0  0  0  0  0
   26.4332  -20.3765   -6.1948 C   0  0  0  0  0  0  0  0  0  0  0  0
   26.6698  -20.2187   -4.8493 C   0  0  0  0  0  0  0  0  0  0  0  0
   27.9166  -19.7894   -4.3798 C   0  0  0  0  0  0  0  0  0  0  0  0
   28.9180  -19.5225   -5.2911 C   0  0  0  0  0  0  0  0  0  0  0  0
   28.6618  -19.6850   -6.6259 C   0  0  0  0  0  0  0  0  0  0  0  0
   27.4258  -20.1125   -7.1300 C   0  0  0  0  0  0  0  0  0  0  0  0
   25.6244  -20.1302  -11.2431 C   0  0  0  0  0  0  0  0  0  0  0  0
   25.3923  -18.9200  -11.4764 O   0  0  0  0  0  0  0  0  0  0  0  0
   23.6003  -20.6686  -14.2742 C   0  0  0  0  0  0  0  0  0  0  0  0
   22.7688  -21.1875  -13.0963 C   0  0  1  0  0  0  0  0  0  0  0  0
   22.8740  -22.5685  -13.0106 O   0  0  0  0  0  0  0  0  0  0  0  0
   23.2172  -20.5050  -11.8215 C   0  0  2  0  0  0  0  0  0  0  0  0
   24.4928  -20.9989  -11.3636 N   0  0  0  0  0  0  0  0  0  0  0  0
   22.1407  -20.8281  -10.8129 C   0  0  0  0  0  0  0  0  0  0  0  0
   20.8838  -20.3111  -10.9980 O   0  0  0  0  0  0  0  0  0  0  0  0
   22.3719  -21.5503   -9.8226 O   0  0  0  0  0  0  0  0  0  0  0  0
  2  3  1  0
  2  1  1  0
  4  3  1  0
  5  4  1  0
  5  6  1  6
  7  8  2  0
  7  5  1  0
  9  7  1  0
 10  9  1  0
 10 11  1  1
 12 13  2  0
 12 11  1  0
 14 13  1  0
 15 20  2  0
 15 14  1  0
 16 15  1  0
 17 18  1  0
 17 16  2  0
 18 19  2  0
 19 20  1  0
 20 12  1  0
 21 10  1  0
 21 22  2  0
 24 23  1  6
 25 24  1  0
 26 27  1  1
 26 24  1  0
 27 21  1  0
 28 26  1  0
 29 28  1  0
 30 28  2  0
M  END
$$$$
