MWT.pdb
     RDKit          3D

 30 31  0  0  1  0  0  0  0  0999 V2000
   23.5224  -17.7700  -16.1059 C   0  0  0  0  0  0  0  0  0  0  0  0
   25.2368  -17.6688  -16.6893 S   0  0  0  0  0  0  0  0  0  0  0  0
   25.9626  -19.3302  -16.6385 C   0  0  0  0  0  0  0  0  0  0  0  0
   25.6040  -19.9368  -15.3190 C   0  0  0  0  0  0  0  0  0  0  0  0
   26.3590  -19.2673  -14.1567 C   0  0  2  0  0  0  0  0  0  0  0  0
   27.7594  -19.5204  -14.4091 N   0  0  0  0  0  0  0  0  0  0  0  0
   25.9234  -20.0185  -12.9564 C   0  0  0  0  0  0  0  0  0  0  0  0
   24.9114  -20.7560  -13.0770 O   0  0  0  0  0  0  0  0  0  0  0  0
   26.6137  -19.9123  -11.7266 N   0  0  0  0  0  0  0  0  0  0  0  0
   26.1494  -20.5448  -10.4848 C   0  0  1  0  0  0  0  0  0  0  0  0
   27.1805  -20.4576   -9.4328 C   0  0  0  0  0  0  0  0  0  0  0  0
   26.7952  -20.7259   -8.0559 C   0  0  0  0  0  0  0  0  0  0  0  0
   25.8570  -21.6342   -7.6178 C   0  0  0  0  0  0  0  0  0  0  0  0
   25.7529  -21.5772   -6.2652 N   0  0  0  0  0  0  0  0  0  0  0  0
   26.6184  -20.6392   -5.8368 C   0  0  0  0  0  0  0  0  0  0  0  0
   26.9033  -20.2115   -4.5612 C   0  0  0  0  0  0  0  0  0  0  0  0
   27.8645  -19.2208   -4.3286 C   0  0  0  0  0  0  0  0  0  0  0  0
   28.5313  -18.6709   -5.4044 C   0  0  0  0  0  0  0  0  0  0  0  0
   28.2322  -19.1100   -6.6660 C   0  0  0  0  0  0  0  0  0  0  0  0
   27.2759  -20.0989   -6.9346 C   0  0  0  0  0  0  0  0  0  0  0  0
   24.7837  -20.1507  -10.1658 C   0  0  0  0  0  0  0  0  0  0  0  0
   24.4031  -18.9915   -9.8757 O   0  0  0  0  0  0  0  0  0  0  0  0
   21.7093  -22.8331  -11.2225 C   0  0  0  0  0  0  0  0  0  0  0  0
   21.4798  -21.3255  -11.0718 C   0  0  1  0  0  0  0  0  0  0  0  0
   20.1381  -21.0701  -10.8262 O   0  0  0  0  0  0  0  0  0  0  0  0
   22.3696  -20.7862   -9.9721 C   0  0  2  0  0  0  0  0  0  0  0  0
   23.7528  -21.1440  -10.1714 N   0  0  0  0  0  0  0  0  0  0  0  0
   21.8444  -21.4208   -8.7063 C   0  0  0  0  0  0  0  0  0  0  0  0
   20.5704  -21.1217   -8.2956 O   0  0  0  0  0  0  0  0  0  0  0  0
   22.5424  -22.2051   -8.0330 O   0  0  0  0  0  0  0  0  0  0  0  0
  2  3  1  0
  2  1  1  0
  4  3  1  0
  5  4  1  0
  5  6  1  6
  7  8  2  0
  7  5  1  0
  9  7  1  0
 10  9  1  0
 10 11  1  1
 12 13  2  0
 12 11  1  0
 14 13  1  0
 15 20  2  0
 15 14  1  0
 16 15  1  0
 17 18  1  0
 17 16  2  0
 18 19  2  0
 19 20  1  0
 20 12  1  0
 21 10  1  0
 21 22  2  0
 24 23  1  1
 25 24  1  0
 26 27  1  6
 26 24  1  0
 27 21  1  0
 28 26  1  0
 29 28  1  0
 30 28  2  0
M  END
$$$$
