MWT.pdb
     RDKit          3D

 30 31  0  0  1  0  0  0  0  0999 V2000
   30.6773  -18.0362  -16.9204 C   0  0  0  0  0  0  0  0  0  0  0  0
   29.1158  -17.8802  -16.0109 S   0  0  0  0  0  0  0  0  0  0  0  0
   27.9672  -19.1474  -16.6146 C   0  0  0  0  0  0  0  0  0  0  0  0
   27.2985  -19.7526  -15.4212 C   0  0  0  0  0  0  0  0  0  0  0  0
   28.2515  -20.6706  -14.6349 C   0  0  2  0  0  0  0  0  0  0  0  0
   28.4488  -21.8314  -15.4729 N   0  0  0  0  0  0  0  0  0  0  0  0
   27.4810  -21.0503  -13.4279 C   0  0  0  0  0  0  0  0  0  0  0  0
   26.4668  -21.7748  -13.5989 O   0  0  0  0  0  0  0  0  0  0  0  0
   27.8666  -20.6178  -12.1378 N   0  0  0  0  0  0  0  0  0  0  0  0
   27.0433  -20.8246  -10.9390 C   0  0  1  0  0  0  0  0  0  0  0  0
   27.8409  -20.6289   -9.7130 C   0  0  0  0  0  0  0  0  0  0  0  0
   27.1656  -20.6884   -8.4259 C   0  0  0  0  0  0  0  0  0  0  0  0
   25.8703  -21.0902   -8.1851 C   0  0  0  0  0  0  0  0  0  0  0  0
   25.5894  -20.9805   -6.8612 N   0  0  0  0  0  0  0  0  0  0  0  0
   26.6965  -20.5120   -6.2552 C   0  0  0  0  0  0  0  0  0  0  0  0
   26.9336  -20.2399   -4.9282 C   0  0  0  0  0  0  0  0  0  0  0  0
   28.1793  -19.7678   -4.4982 C   0  0  0  0  0  0  0  0  0  0  0  0
   29.1789  -19.5754   -5.4300 C   0  0  0  0  0  0  0  0  0  0  0  0
   28.9221  -19.8513   -6.7460 C   0  0  0  0  0  0  0  0  0  0  0  0
   27.6872  -20.3244   -7.2106 C   0  0  0  0  0  0  0  0  0  0  0  0
   25.7561  -20.1526  -11.0557 C   0  0  0  0  0  0  0  0  0  0  0  0
   25.5710  -18.9124  -11.0347 O   0  0  0  0  0  0  0  0  0  0  0  0
   23.7046  -20.0444  -13.9764 C   0  0  0  0  0  0  0  0  0  0  0  0
   22.8277  -20.7236  -12.9191 C   0  0  1  0  0  0  0  0  0  0  0  0
   22.8415  -22.0993  -13.1009 O   0  0  0  0  0  0  0  0  0  0  0  0
   23.3054  -20.3300  -11.5375 C   0  0  2  0  0  0  0  0  0  0  0  0
   24.5704  -20.9402  -11.2085 N   0  0  0  0  0  0  0  0  0  0  0  0
   22.2285  -20.8261  -10.6022 C   0  0  0  0  0  0  0  0  0  0  0  0
   20.9909  -20.2366  -10.6462 O   0  0  0  0  0  0  0  0  0  0  0  0
   22.4424  -21.7543   -9.7970 O   0  0  0  0  0  0  0  0  0  0  0  0
  2  3  1  0
  2  1  1  0
  4  3  1  0
  5  4  1  0
  5  6  1  6
  7  8  2  0
  7  5  1  0
  9  7  1  0
 10  9  1  0
 10 11  1  1
 12 13  2  0
 12 11  1  0
 14 13  1  0
 15 20  2  0
 15 14  1  0
 16 15  1  0
 17 18  1  0
 17 16  2  0
 18 19  2  0
 19 20  1  0
 20 12  1  0
 21 10  1  0
 21 22  2  0
 24 23  1  6
 25 24  1  0
 26 27  1  1
 26 24  1  0
 27 21  1  0
 28 26  1  0
 29 28  1  0
 30 28  2  0
M  END
$$$$
