MWT.pdb
     RDKit          3D

 30 31  0  0  1  0  0  0  0  0999 V2000
   27.4317  -17.8249  -17.2819 C   0  0  0  0  0  0  0  0  0  0  0  0
   27.9748  -19.0121  -18.5411 S   0  0  0  0  0  0  0  0  0  0  0  0
   28.6701  -20.4633  -17.7043 C   0  0  0  0  0  0  0  0  0  0  0  0
   27.8227  -20.7375  -16.5025 C   0  0  0  0  0  0  0  0  0  0  0  0
   28.4994  -21.7285  -15.5386 C   0  0  2  0  0  0  0  0  0  0  0  0
   28.5451  -22.9870  -16.2477 N   0  0  0  0  0  0  0  0  0  0  0  0
   27.5587  -21.8306  -14.3987 C   0  0  0  0  0  0  0  0  0  0  0  0
   26.4854  -22.4569  -14.5948 O   0  0  0  0  0  0  0  0  0  0  0  0
   27.8521  -21.2493  -13.1433 N   0  0  0  0  0  0  0  0  0  0  0  0
   26.9070  -21.2403  -12.0189 C   0  0  1  0  0  0  0  0  0  0  0  0
   27.6160  -21.0600  -10.7373 C   0  0  0  0  0  0  0  0  0  0  0  0
   26.8342  -20.7877   -9.5411 C   0  0  0  0  0  0  0  0  0  0  0  0
   25.4626  -20.7043   -9.4463 C   0  0  0  0  0  0  0  0  0  0  0  0
   25.1034  -20.4050   -8.1715 N   0  0  0  0  0  0  0  0  0  0  0  0
   26.2361  -20.2972   -7.4519 C   0  0  0  0  0  0  0  0  0  0  0  0
   26.4158  -20.0222   -6.1165 C   0  0  0  0  0  0  0  0  0  0  0  0
   27.6970  -19.9717   -5.5547 C   0  0  0  0  0  0  0  0  0  0  0  0
   28.7908  -20.2030   -6.3635 C   0  0  0  0  0  0  0  0  0  0  0  0
   28.5903  -20.4742   -7.6902 C   0  0  0  0  0  0  0  0  0  0  0  0
   27.3224  -20.5319   -8.2850 C   0  0  0  0  0  0  0  0  0  0  0  0
   25.7480  -20.4055  -12.3052 C   0  0  0  0  0  0  0  0  0  0  0  0
   25.7399  -19.1523  -12.3532 O   0  0  0  0  0  0  0  0  0  0  0  0
   23.9066  -19.5399  -15.1260 C   0  0  0  0  0  0  0  0  0  0  0  0
   22.8893  -20.3059  -14.2736 C   0  0  1  0  0  0  0  0  0  0  0  0
   22.7746  -21.6121  -14.7276 O   0  0  0  0  0  0  0  0  0  0  0  0
   23.3025  -20.2462  -12.8183 C   0  0  2  0  0  0  0  0  0  0  0  0
   24.4853  -21.0303  -12.5595 N   0  0  0  0  0  0  0  0  0  0  0  0
   22.1254  -20.8129  -12.0607 C   0  0  0  0  0  0  0  0  0  0  0  0
   20.9494  -20.1072  -12.0411 O   0  0  0  0  0  0  0  0  0  0  0  0
   22.2027  -21.9016  -11.4571 O   0  0  0  0  0  0  0  0  0  0  0  0
  2  3  1  0
  2  1  1  0
  4  3  1  0
  5  4  1  0
  5  6  1  6
  7  8  2  0
  7  5  1  0
  9  7  1  0
 10  9  1  0
 10 11  1  1
 12 13  2  0
 12 11  1  0
 14 13  1  0
 15 20  2  0
 15 14  1  0
 16 15  1  0
 17 18  1  0
 17 16  2  0
 18 19  2  0
 19 20  1  0
 20 12  1  0
 21 10  1  0
 21 22  2  0
 24 23  1  6
 25 24  1  0
 26 27  1  6
 26 24  1  0
 27 21  1  0
 28 26  1  0
 29 28  1  0
 30 28  2  0
M  END
$$$$
