MWT.pdb
     RDKit          3D

 30 31  0  0  1  0  0  0  0  0999 V2000
   26.2596  -19.2371  -17.9907 C   0  0  0  0  0  0  0  0  0  0  0  0
   27.9286  -18.6557  -17.5831 S   0  0  0  0  0  0  0  0  0  0  0  0
   28.7953  -19.9723  -16.6859 C   0  0  0  0  0  0  0  0  0  0  0  0
   27.9103  -20.4069  -15.5610 C   0  0  0  0  0  0  0  0  0  0  0  0
   28.5990  -21.4470  -14.6593 C   0  0  2  0  0  0  0  0  0  0  0  0
   28.5898  -22.6793  -15.4144 N   0  0  0  0  0  0  0  0  0  0  0  0
   27.6986  -21.5706  -13.4894 C   0  0  0  0  0  0  0  0  0  0  0  0
   26.5599  -22.0659  -13.6915 O   0  0  0  0  0  0  0  0  0  0  0  0
   28.0993  -21.1503  -12.1999 N   0  0  0  0  0  0  0  0  0  0  0  0
   27.1917  -21.1152  -11.0455 C   0  0  1  0  0  0  0  0  0  0  0  0
   27.9390  -20.8740   -9.7961 C   0  0  0  0  0  0  0  0  0  0  0  0
   27.1970  -20.5011   -8.6017 C   0  0  0  0  0  0  0  0  0  0  0  0
   25.8283  -20.4678   -8.4506 C   0  0  0  0  0  0  0  0  0  0  0  0
   25.5101  -20.0406   -7.2016 N   0  0  0  0  0  0  0  0  0  0  0  0
   26.6660  -19.8014   -6.5543 C   0  0  0  0  0  0  0  0  0  0  0  0
   26.8894  -19.3677   -5.2686 C   0  0  0  0  0  0  0  0  0  0  0  0
   28.1895  -19.1969   -4.7787 C   0  0  0  0  0  0  0  0  0  0  0  0
   29.2576  -19.4710   -5.6083 C   0  0  0  0  0  0  0  0  0  0  0  0
   29.0137  -19.9008   -6.8849 C   0  0  0  0  0  0  0  0  0  0  0  0
   27.7257  -20.0820   -7.4074 C   0  0  0  0  0  0  0  0  0  0  0  0
   26.0085  -20.3123  -11.3238 C   0  0  0  0  0  0  0  0  0  0  0  0
   26.0020  -19.0957  -11.6285 O   0  0  0  0  0  0  0  0  0  0  0  0
   22.1236  -19.9851  -13.8384 C   0  0  0  0  0  0  0  0  0  0  0  0
   23.4566  -20.5341  -13.3190 C   0  0  1  0  0  0  0  0  0  0  0  0
   24.5117  -19.9556  -14.0101 O   0  0  0  0  0  0  0  0  0  0  0  0
   23.5559  -20.2926  -11.8278 C   0  0  2  0  0  0  0  0  0  0  0  0
   24.7174  -20.9267  -11.2535 N   0  0  0  0  0  0  0  0  0  0  0  0
   22.2958  -20.8969  -11.2554 C   0  0  0  0  0  0  0  0  0  0  0  0
   22.1578  -22.2615  -11.2541 O   0  0  0  0  0  0  0  0  0  0  0  0
   21.3856  -20.1835  -10.7882 O   0  0  0  0  0  0  0  0  0  0  0  0
  2  3  1  0
  2  1  1  0
  4  3  1  0
  5  4  1  0
  5  6  1  6
  7  8  2  0
  7  5  1  0
  9  7  1  0
 10  9  1  0
 10 11  1  1
 12 13  2  0
 12 11  1  0
 14 13  1  0
 15 20  2  0
 15 14  1  0
 16 15  1  0
 17 18  1  0
 17 16  2  0
 18 19  2  0
 19 20  1  0
 20 12  1  0
 21 10  1  0
 21 22  2  0
 24 23  1  6
 25 24  1  0
 26 27  1  1
 26 24  1  0
 27 21  1  0
 28 26  1  0
 29 28  1  0
 30 28  2  0
M  END
$$$$
