TPW.pdb
     RDKit          3D

 29 31  0  0  1  0  0  0  0  0999 V2000
   11.7827  -19.7060   19.3410 C   0  0  0  0  0  0  0  0  0  0  0  0
   12.3726  -18.4513   18.7507 C   0  0  1  0  0  0  0  0  0  0  0  0
   13.2439  -18.8026   17.7458 O   0  0  0  0  0  0  0  0  0  0  0  0
   11.1811  -17.6301   18.2231 C   0  0  2  0  0  0  0  0  0  0  0  0
   11.6508  -16.6322   17.3018 N   0  0  0  0  0  0  0  0  0  0  0  0
   10.3604  -17.1280   19.3288 C   0  0  0  0  0  0  0  0  0  0  0  0
   10.9987  -16.3903   20.1658 O   0  0  0  0  0  0  0  0  0  0  0  0
    8.9979  -17.3626   19.5577 N   0  0  0  0  0  0  0  0  0  0  0  0
    7.9065  -17.7060   18.6630 C   0  0  0  0  0  0  0  0  0  0  0  0
    7.2266  -18.8496   19.4503 C   0  0  0  0  0  0  0  0  0  0  0  0
    7.7463  -18.7278   20.8755 C   0  0  0  0  0  0  0  0  0  0  0  0
    8.3036  -17.3210   20.8451 C   0  0  1  0  0  0  0  0  0  0  0  0
    9.1247  -17.0751   22.0070 C   0  0  0  0  0  0  0  0  0  0  0  0
   10.3798  -17.3235   21.9575 O   0  0  0  0  0  0  0  0  0  0  0  0
    8.6793  -16.5651   23.2725 N   0  0  0  0  0  0  0  0  0  0  0  0
    9.6319  -16.2971   24.3492 C   0  0  1  0  0  0  0  0  0  0  0  0
    9.5369  -14.9007   24.8408 C   0  0  0  0  0  0  0  0  0  0  0  0
    8.1924  -14.4710   25.2640 C   0  0  0  0  0  0  0  0  0  0  0  0
    7.0907  -15.3341   25.3078 C   0  0  0  0  0  0  0  0  0  0  0  0
    6.0275  -14.6639   25.7736 N   0  0  0  0  0  0  0  0  0  0  0  0
    6.3977  -13.3909   26.0344 C   0  0  0  0  0  0  0  0  0  0  0  0
    5.6482  -12.3387   26.5146 C   0  0  0  0  0  0  0  0  0  0  0  0
    6.2525  -11.1127   26.6878 C   0  0  0  0  0  0  0  0  0  0  0  0
    7.6019  -10.9453   26.3798 C   0  0  0  0  0  0  0  0  0  0  0  0
    8.3228  -12.0255   25.9000 C   0  0  0  0  0  0  0  0  0  0  0  0
    7.7501  -13.2657   25.7164 C   0  0  0  0  0  0  0  0  0  0  0  0
    9.4716  -17.3292   25.3808 C   0  0  0  0  0  0  0  0  0  0  0  0
    8.4416  -18.2599   25.4298 O   0  0  0  0  0  0  0  0  0  0  0  0
   10.3175  -17.4175   26.3345 O   0  0  0  0  0  0  0  0  0  0  0  0
  2  1  1  6
  2  3  1  0
  4  5  1  1
  4  2  1  0
  6  4  1  0
  7  6  2  0
  8  9  1  0
  8  6  1  0
 10  9  1  0
 11 12  1  0
 11 10  1  0
 12  8  1  0
 12 13  1  1
 14 13  2  0
 15 13  1  0
 16 17  1  1
 16 15  1  0
 18 17  1  0
 19 18  2  0
 20 19  1  0
 21 20  1  0
 21 26  2  0
 22 21  1  0
 23 22  2  0
 23 24  1  0
 24 25  2  0
 25 26  1  0
 26 18  1  0
 27 16  1  0
 28 27  1  0
 29 27  2  0
M  END
$$$$
