TPW.pdb
     RDKit          3D

 29 31  0  0  1  0  0  0  0  0999 V2000
    5.5980  -17.7866   20.5018 C   0  0  0  0  0  0  0  0  0  0  0  0
    6.7282  -18.4679   19.7742 C   0  0  1  0  0  0  0  0  0  0  0  0
    6.1984  -19.3456   18.8571 O   0  0  0  0  0  0  0  0  0  0  0  0
    7.5368  -17.3437   19.0997 C   0  0  2  0  0  0  0  0  0  0  0  0
    8.2584  -17.8736   17.9756 N   0  0  0  0  0  0  0  0  0  0  0  0
    8.3480  -16.6198   20.0825 C   0  0  0  0  0  0  0  0  0  0  0  0
    8.9002  -17.3721   20.9665 O   0  0  0  0  0  0  0  0  0  0  0  0
    8.5747  -15.2387   20.1535 N   0  0  0  0  0  0  0  0  0  0  0  0
    8.6723  -14.2151   19.1275 C   0  0  0  0  0  0  0  0  0  0  0  0
    7.7824  -13.1046   19.7314 C   0  0  0  0  0  0  0  0  0  0  0  0
    7.6393  -13.4540   21.2056 C   0  0  0  0  0  0  0  0  0  0  0  0
    8.7743  -14.4424   21.3648 C   0  0  1  0  0  0  0  0  0  0  0  0
    8.6612  -15.1476   22.6197 C   0  0  0  0  0  0  0  0  0  0  0  0
    7.6511  -14.9321   23.3765 O   0  0  0  0  0  0  0  0  0  0  0  0
    9.5930  -16.1037   23.1466 N   0  0  0  0  0  0  0  0  0  0  0  0
   10.2061  -15.9068   24.4595 C   0  0  1  0  0  0  0  0  0  0  0  0
    9.8480  -14.5934   25.0491 C   0  0  0  0  0  0  0  0  0  0  0  0
    8.4455  -14.4568   25.4800 C   0  0  0  0  0  0  0  0  0  0  0  0
    7.5275  -15.5137   25.4474 C   0  0  0  0  0  0  0  0  0  0  0  0
    6.3554  -15.0912   25.9417 N   0  0  0  0  0  0  0  0  0  0  0  0
    6.4768  -13.7927   26.2950 C   0  0  0  0  0  0  0  0  0  0  0  0
    5.5401  -12.9379   26.8348 C   0  0  0  0  0  0  0  0  0  0  0  0
    5.9003  -11.6350   27.1012 C   0  0  0  0  0  0  0  0  0  0  0  0
    7.1940  -11.1940   26.8263 C   0  0  0  0  0  0  0  0  0  0  0  0
    8.1079  -12.0817   26.2846 C   0  0  0  0  0  0  0  0  0  0  0  0
    7.7815  -13.3919   26.0074 C   0  0  0  0  0  0  0  0  0  0  0  0
    9.8921  -17.0690   25.2996 C   0  0  0  0  0  0  0  0  0  0  0  0
    9.1123  -18.1510   24.9112 O   0  0  0  0  0  0  0  0  0  0  0  0
   10.3438  -17.1368   26.4930 O   0  0  0  0  0  0  0  0  0  0  0  0
  2  1  1  6
  2  3  1  0
  4  5  1  6
  4  2  1  0
  6  4  1  0
  7  6  2  0
  8  9  1  0
  8  6  1  0
 10  9  1  0
 11 12  1  0
 11 10  1  0
 12  8  1  0
 12 13  1  1
 14 13  2  0
 15 13  1  0
 16 17  1  1
 16 15  1  0
 18 17  1  0
 19 18  2  0
 20 19  1  0
 21 20  1  0
 21 26  2  0
 22 21  1  0
 23 22  2  0
 23 24  1  0
 24 25  2  0
 25 26  1  0
 26 18  1  0
 27 16  1  0
 28 27  1  0
 29 27  2  0
M  END
$$$$
