TPW.pdb
     RDKit          3D

 29 31  0  0  1  0  0  0  0  0999 V2000
   10.9512  -14.8824   18.9298 C   0  0  0  0  0  0  0  0  0  0  0  0
   10.2067  -13.5866   18.7361 C   0  0  1  0  0  0  0  0  0  0  0  0
   10.5902  -13.0310   17.5376 O   0  0  0  0  0  0  0  0  0  0  0  0
    8.7102  -13.9510   18.7531 C   0  0  2  0  0  0  0  0  0  0  0  0
    7.9265  -12.7946   18.4159 N   0  0  0  0  0  0  0  0  0  0  0  0
    8.3463  -14.6123   20.0093 C   0  0  0  0  0  0  0  0  0  0  0  0
    8.7655  -14.0080   21.0635 O   0  0  0  0  0  0  0  0  0  0  0  0
    7.6129  -15.7954   20.1718 N   0  0  0  0  0  0  0  0  0  0  0  0
    6.6078  -16.4381   19.3433 C   0  0  0  0  0  0  0  0  0  0  0  0
    7.1008  -17.9032   19.3625 C   0  0  0  0  0  0  0  0  0  0  0  0
    8.0653  -17.9930   20.5362 C   0  0  0  0  0  0  0  0  0  0  0  0
    7.6968  -16.7341   21.2912 C   0  0  1  0  0  0  0  0  0  0  0  0
    8.6864  -16.4393   22.3004 C   0  0  0  0  0  0  0  0  0  0  0  0
    9.8956  -16.2056   21.9501 O   0  0  0  0  0  0  0  0  0  0  0  0
    8.4662  -16.3786   23.7173 N   0  0  0  0  0  0  0  0  0  0  0  0
    9.5842  -16.1930   24.6417 C   0  0  1  0  0  0  0  0  0  0  0  0
    9.4670  -14.9290   25.4093 C   0  0  0  0  0  0  0  0  0  0  0  0
    8.0901  -14.5003   25.7121 C   0  0  0  0  0  0  0  0  0  0  0  0
    6.9981  -15.3768   25.7162 C   0  0  0  0  0  0  0  0  0  0  0  0
    5.8958  -14.7016   26.0706 N   0  0  0  0  0  0  0  0  0  0  0  0
    6.2312  -13.4125   26.2971 C   0  0  0  0  0  0  0  0  0  0  0  0
    5.4362  -12.3505   26.6707 C   0  0  0  0  0  0  0  0  0  0  0  0
    6.0119  -11.1088   26.8292 C   0  0  0  0  0  0  0  0  0  0  0  0
    7.3783  -10.9357   26.6132 C   0  0  0  0  0  0  0  0  0  0  0  0
    8.1451  -12.0262   26.2392 C   0  0  0  0  0  0  0  0  0  0  0  0
    7.6018  -13.2820   26.0733 C   0  0  0  0  0  0  0  0  0  0  0  0
    9.7182  -17.4044   25.4600 C   0  0  0  0  0  0  0  0  0  0  0  0
    8.8333  -18.4752   25.4572 O   0  0  0  0  0  0  0  0  0  0  0  0
   10.7077  -17.5309   26.2586 O   0  0  0  0  0  0  0  0  0  0  0  0
  2  1  1  6
  2  3  1  0
  4  5  1  1
  4  2  1  0
  6  4  1  0
  7  6  2  0
  8  9  1  0
  8  6  1  0
 10  9  1  0
 11 12  1  0
 11 10  1  0
 12  8  1  0
 12 13  1  1
 14 13  2  0
 15 13  1  0
 16 17  1  1
 16 15  1  0
 18 17  1  0
 19 18  2  0
 20 19  1  0
 21 20  1  0
 21 26  2  0
 22 21  1  0
 23 22  2  0
 23 24  1  0
 24 25  2  0
 25 26  1  0
 26 18  1  0
 27 16  1  0
 28 27  1  0
 29 27  2  0
M  END
$$$$
