TPW.pdb
     RDKit          3D

 29 31  0  0  1  0  0  0  0  0999 V2000
   11.0889  -14.9265   19.1898 C   0  0  0  0  0  0  0  0  0  0  0  0
   10.4461  -13.5775   18.9948 C   0  0  1  0  0  0  0  0  0  0  0  0
   10.9520  -13.0080   17.8494 O   0  0  0  0  0  0  0  0  0  0  0  0
    8.9320  -13.8405   18.8908 C   0  0  2  0  0  0  0  0  0  0  0  0
    8.2591  -12.6393   18.4791 N   0  0  0  0  0  0  0  0  0  0  0  0
    8.4219  -14.4573   20.1185 C   0  0  0  0  0  0  0  0  0  0  0  0
    8.7096  -13.8108   21.1917 O   0  0  0  0  0  0  0  0  0  0  0  0
    7.6782  -15.6392   20.2368 N   0  0  0  0  0  0  0  0  0  0  0  0
    6.6835  -16.2526   19.3743 C   0  0  0  0  0  0  0  0  0  0  0  0
    7.1666  -17.7211   19.3628 C   0  0  0  0  0  0  0  0  0  0  0  0
    8.1100  -17.8488   20.5500 C   0  0  0  0  0  0  0  0  0  0  0  0
    7.7367  -16.6079   21.3320 C   0  0  1  0  0  0  0  0  0  0  0  0
    8.7106  -16.3469   22.3655 C   0  0  0  0  0  0  0  0  0  0  0  0
    9.9178  -16.0703   22.0405 O   0  0  0  0  0  0  0  0  0  0  0  0
    8.4761  -16.3659   23.7813 N   0  0  0  0  0  0  0  0  0  0  0  0
    9.5815  -16.2081   24.7256 C   0  0  1  0  0  0  0  0  0  0  0  0
    9.4673  -14.9546   25.5108 C   0  0  0  0  0  0  0  0  0  0  0  0
    8.0910  -14.5053   25.7850 C   0  0  0  0  0  0  0  0  0  0  0  0
    6.9849  -15.3636   25.7574 C   0  0  0  0  0  0  0  0  0  0  0  0
    5.8859  -14.6727   26.0912 N   0  0  0  0  0  0  0  0  0  0  0  0
    6.2370  -13.3909   26.3347 C   0  0  0  0  0  0  0  0  0  0  0  0
    5.4511  -12.3185   26.6976 C   0  0  0  0  0  0  0  0  0  0  0  0
    6.0433  -11.0876   26.8784 C   0  0  0  0  0  0  0  0  0  0  0  0
    7.4170  -10.9357   26.6952 C   0  0  0  0  0  0  0  0  0  0  0  0
    8.1742  -12.0361   26.3311 C   0  0  0  0  0  0  0  0  0  0  0  0
    7.6144  -13.2816   26.1436 C   0  0  0  0  0  0  0  0  0  0  0  0
    9.6884  -17.4334   25.5271 C   0  0  0  0  0  0  0  0  0  0  0  0
    8.8182  -18.5140   25.4586 O   0  0  0  0  0  0  0  0  0  0  0  0
   10.6369  -17.5639   26.3733 O   0  0  0  0  0  0  0  0  0  0  0  0
  2  1  1  6
  2  3  1  0
  4  5  1  1
  4  2  1  0
  6  4  1  0
  7  6  2  0
  8  9  1  0
  8  6  1  0
 10  9  1  0
 11 12  1  0
 11 10  1  0
 12  8  1  0
 12 13  1  1
 14 13  2  0
 15 13  1  0
 16 17  1  1
 16 15  1  0
 18 17  1  0
 19 18  2  0
 20 19  1  0
 21 20  1  0
 21 26  2  0
 22 21  1  0
 23 22  2  0
 23 24  1  0
 24 25  2  0
 25 26  1  0
 26 18  1  0
 27 16  1  0
 28 27  1  0
 29 27  2  0
M  END
$$$$
