TPW.pdb
     RDKit          3D

 29 31  0  0  1  0  0  0  0  0999 V2000
    9.3656  -20.1461   18.3878 C   0  0  0  0  0  0  0  0  0  0  0  0
    9.3166  -19.1951   19.5558 C   0  0  1  0  0  0  0  0  0  0  0  0
   10.2303  -19.6055   20.4987 O   0  0  0  0  0  0  0  0  0  0  0  0
    9.6574  -17.8055   18.9856 C   0  0  2  0  0  0  0  0  0  0  0  0
   10.8750  -17.8791   18.2260 N   0  0  0  0  0  0  0  0  0  0  0  0
    9.6345  -16.7869   20.0392 C   0  0  0  0  0  0  0  0  0  0  0  0
   10.6571  -16.8111   20.8175 O   0  0  0  0  0  0  0  0  0  0  0  0
    8.6451  -15.8230   20.2755 N   0  0  0  0  0  0  0  0  0  0  0  0
    7.6150  -15.2572   19.4220 C   0  0  0  0  0  0  0  0  0  0  0  0
    6.3864  -15.3213   20.3582 C   0  0  0  0  0  0  0  0  0  0  0  0
    6.9511  -15.5109   21.7586 C   0  0  0  0  0  0  0  0  0  0  0  0
    8.3930  -15.1122   21.5295 C   0  0  1  0  0  0  0  0  0  0  0  0
    9.2106  -15.4940   22.6566 C   0  0  0  0  0  0  0  0  0  0  0  0
   10.3928  -15.0155   22.7702 O   0  0  0  0  0  0  0  0  0  0  0  0
    8.8395  -16.3921   23.7128 N   0  0  0  0  0  0  0  0  0  0  0  0
    9.6491  -16.4966   24.9261 C   0  0  1  0  0  0  0  0  0  0  0  0
    9.4849  -15.3148   25.8076 C   0  0  0  0  0  0  0  0  0  0  0  0
    8.1147  -14.7801   25.8968 C   0  0  0  0  0  0  0  0  0  0  0  0
    6.9728  -15.5549   25.6592 C   0  0  0  0  0  0  0  0  0  0  0  0
    5.8826  -14.8019   25.8615 N   0  0  0  0  0  0  0  0  0  0  0  0
    6.2743  -13.5601   26.2222 C   0  0  0  0  0  0  0  0  0  0  0  0
    5.5131  -12.4505   26.5201 C   0  0  0  0  0  0  0  0  0  0  0  0
    6.1488  -11.2741   26.8521 C   0  0  0  0  0  0  0  0  0  0  0  0
    7.5413  -11.2134   26.8841 C   0  0  0  0  0  0  0  0  0  0  0  0
    8.2727  -12.3487   26.5793 C   0  0  0  0  0  0  0  0  0  0  0  0
    7.6689  -13.5418   26.2447 C   0  0  0  0  0  0  0  0  0  0  0  0
    9.3685  -17.7888   25.5638 C   0  0  0  0  0  0  0  0  0  0  0  0
   10.1070  -18.3488   26.5985 O   0  0  0  0  0  0  0  0  0  0  0  0
    8.3801  -18.4959   25.1690 O   0  0  0  0  0  0  0  0  0  0  0  0
  2  1  1  6
  2  3  1  0
  4  5  1  1
  4  2  1  0
  6  4  1  0
  7  6  2  0
  8  9  1  0
  8  6  1  0
 10  9  1  0
 11 12  1  0
 11 10  1  0
 12  8  1  0
 12 13  1  1
 14 13  2  0
 15 13  1  0
 16 17  1  1
 16 15  1  0
 18 17  1  0
 19 18  2  0
 20 19  1  0
 21 20  1  0
 21 26  2  0
 22 21  1  0
 23 22  2  0
 23 24  1  0
 24 25  2  0
 25 26  1  0
 26 18  1  0
 27 16  1  0
 28 27  1  0
 29 27  2  0
M  END
$$$$
