TPW.pdb
     RDKit          3D

 29 31  0  0  1  0  0  0  0  0999 V2000
    9.6349  -13.1802   19.8945 C   0  0  0  0  0  0  0  0  0  0  0  0
    8.1486  -13.2809   19.6674 C   0  0  1  0  0  0  0  0  0  0  0  0
    7.8045  -12.4580   18.6202 O   0  0  0  0  0  0  0  0  0  0  0  0
    7.8667  -14.7629   19.3562 C   0  0  2  0  0  0  0  0  0  0  0  0
    6.5371  -14.9026   18.8294 N   0  0  0  0  0  0  0  0  0  0  0  0
    8.1770  -15.6090   20.5119 C   0  0  0  0  0  0  0  0  0  0  0  0
    7.7006  -15.1762   21.6246 O   0  0  0  0  0  0  0  0  0  0  0  0
    8.9144  -16.8005   20.5262 N   0  0  0  0  0  0  0  0  0  0  0  0
    9.1432  -17.8148   19.5120 C   0  0  0  0  0  0  0  0  0  0  0  0
   10.6698  -18.0224   19.6397 C   0  0  0  0  0  0  0  0  0  0  0  0
   11.0505  -17.4262   20.9872 C   0  0  0  0  0  0  0  0  0  0  0  0
    9.6896  -17.3405   21.6437 C   0  0  1  0  0  0  0  0  0  0  0  0
    9.7503  -16.5245   22.8334 C   0  0  0  0  0  0  0  0  0  0  0  0
   10.0622  -15.2866   22.7350 O   0  0  0  0  0  0  0  0  0  0  0  0
    9.4947  -16.9579   24.1776 N   0  0  0  0  0  0  0  0  0  0  0  0
   10.1248  -16.2862   25.3135 C   0  0  1  0  0  0  0  0  0  0  0  0
    9.7770  -14.8451   25.3701 C   0  0  0  0  0  0  0  0  0  0  0  0
    8.3499  -14.5488   25.5867 C   0  0  0  0  0  0  0  0  0  0  0  0
    7.3392  -15.5090   25.4547 C   0  0  0  0  0  0  0  0  0  0  0  0
    6.1601  -14.9486   25.7583 N   0  0  0  0  0  0  0  0  0  0  0  0
    6.3667  -13.6534   26.0832 C   0  0  0  0  0  0  0  0  0  0  0  0
    5.4585  -12.6846   26.4521 C   0  0  0  0  0  0  0  0  0  0  0  0
    5.9129  -11.4130   26.7257 C   0  0  0  0  0  0  0  0  0  0  0  0
    7.2719  -11.1171   26.6288 C   0  0  0  0  0  0  0  0  0  0  0  0
    8.1544  -12.1164   26.2556 C   0  0  0  0  0  0  0  0  0  0  0  0
    7.7340  -13.3990   25.9764 C   0  0  0  0  0  0  0  0  0  0  0  0
    9.8188  -17.0454   26.5321 C   0  0  0  0  0  0  0  0  0  0  0  0
    9.0570  -18.2059   26.5830 O   0  0  0  0  0  0  0  0  0  0  0  0
   10.2609  -16.6463   27.6627 O   0  0  0  0  0  0  0  0  0  0  0  0
  2  1  1  6
  2  3  1  0
  4  5  1  1
  4  2  1  0
  6  4  1  0
  7  6  2  0
  8  9  1  0
  8  6  1  0
 10  9  1  0
 11 12  1  0
 11 10  1  0
 12  8  1  0
 12 13  1  1
 14 13  2  0
 15 13  1  0
 16 17  1  1
 16 15  1  0
 18 17  1  0
 19 18  2  0
 20 19  1  0
 21 20  1  0
 21 26  2  0
 22 21  1  0
 23 22  2  0
 23 24  1  0
 24 25  2  0
 25 26  1  0
 26 18  1  0
 27 16  1  0
 28 27  1  0
 29 27  2  0
M  END
$$$$
