TPW.pdb
     RDKit          3D

 29 31  0  0  1  0  0  0  0  0999 V2000
    9.4619  -13.6527   16.7553 C   0  0  0  0  0  0  0  0  0  0  0  0
    9.4879  -14.2044   18.1574 C   0  0  1  0  0  0  0  0  0  0  0  0
   10.1919  -13.3376   18.9607 O   0  0  0  0  0  0  0  0  0  0  0  0
    8.0153  -14.3294   18.5912 C   0  0  2  0  0  0  0  0  0  0  0  0
    7.3998  -13.0309   18.5951 N   0  0  0  0  0  0  0  0  0  0  0  0
    7.9001  -15.0833   19.8427 C   0  0  0  0  0  0  0  0  0  0  0  0
    8.2323  -14.4179   20.8910 O   0  0  0  0  0  0  0  0  0  0  0  0
    7.4789  -16.4099   20.0064 N   0  0  0  0  0  0  0  0  0  0  0  0
    6.6089  -17.2591   19.2117 C   0  0  0  0  0  0  0  0  0  0  0  0
    7.4356  -18.5644   19.1600 C   0  0  0  0  0  0  0  0  0  0  0  0
    8.4599  -18.4422   20.2788 C   0  0  0  0  0  0  0  0  0  0  0  0
    7.8476  -17.3211   21.0904 C   0  0  1  0  0  0  0  0  0  0  0  0
    8.7956  -16.8166   22.0555 C   0  0  0  0  0  0  0  0  0  0  0  0
    9.9337  -16.3859   21.6574 O   0  0  0  0  0  0  0  0  0  0  0  0
    8.6063  -16.7409   23.4762 N   0  0  0  0  0  0  0  0  0  0  0  0
    9.6410  -16.1742   24.3404 C   0  0  1  0  0  0  0  0  0  0  0  0
    9.4104  -14.7344   24.6133 C   0  0  0  0  0  0  0  0  0  0  0  0
    8.0874  -14.4022   25.1709 C   0  0  0  0  0  0  0  0  0  0  0  0
    7.0507  -15.3356   25.2921 C   0  0  0  0  0  0  0  0  0  0  0  0
    5.9962  -14.7461   25.8728 N   0  0  0  0  0  0  0  0  0  0  0  0
    6.3092  -13.4579   26.1339 C   0  0  0  0  0  0  0  0  0  0  0  0
    5.5440  -12.4673   26.7107 C   0  0  0  0  0  0  0  0  0  0  0  0
    6.0842  -11.2089   26.8616 C   0  0  0  0  0  0  0  0  0  0  0  0
    7.3855  -10.9477   26.4350 C   0  0  0  0  0  0  0  0  0  0  0  0
    8.1242  -11.9680   25.8605 C   0  0  0  0  0  0  0  0  0  0  0  0
    7.6153  -13.2384   25.6959 C   0  0  0  0  0  0  0  0  0  0  0  0
    9.7649  -17.0189   25.5347 C   0  0  0  0  0  0  0  0  0  0  0  0
   10.7911  -16.9417   26.4677 O   0  0  0  0  0  0  0  0  0  0  0  0
    8.8873  -17.9152   25.7783 O   0  0  0  0  0  0  0  0  0  0  0  0
  2  1  1  6
  2  3  1  0
  4  5  1  1
  4  2  1  0
  6  4  1  0
  7  6  2  0
  8  9  1  0
  8  6  1  0
 10  9  1  0
 11 12  1  0
 11 10  1  0
 12  8  1  0
 12 13  1  1
 14 13  2  0
 15 13  1  0
 16 17  1  1
 16 15  1  0
 18 17  1  0
 19 18  2  0
 20 19  1  0
 21 20  1  0
 21 26  2  0
 22 21  1  0
 23 22  2  0
 23 24  1  0
 24 25  2  0
 25 26  1  0
 26 18  1  0
 27 16  1  0
 28 27  1  0
 29 27  2  0
M  END
$$$$
