TPW.pdb
     RDKit          3D

 29 31  0  0  1  0  0  0  0  0999 V2000
    7.2469  -20.2267   20.0739 C   0  0  0  0  0  0  0  0  0  0  0  0
    8.4282  -19.4807   20.6387 C   0  0  1  0  0  0  0  0  0  0  0  0
    9.4699  -20.3634   20.8056 O   0  0  0  0  0  0  0  0  0  0  0  0
    8.7616  -18.3781   19.6162 C   0  0  2  0  0  0  0  0  0  0  0  0
    9.6532  -18.8983   18.6165 N   0  0  0  0  0  0  0  0  0  0  0  0
    9.2160  -17.1587   20.2904 C   0  0  0  0  0  0  0  0  0  0  0  0
   10.4236  -17.2169   20.7269 O   0  0  0  0  0  0  0  0  0  0  0  0
    8.4926  -15.9768   20.4997 N   0  0  0  0  0  0  0  0  0  0  0  0
    7.4682  -15.3115   19.7139 C   0  0  0  0  0  0  0  0  0  0  0  0
    6.4257  -14.9798   20.8062 C   0  0  0  0  0  0  0  0  0  0  0  0
    7.1672  -15.1075   22.1290 C   0  0  0  0  0  0  0  0  0  0  0  0
    8.6006  -15.0720   21.6446 C   0  0  1  0  0  0  0  0  0  0  0  0
    9.5023  -15.4769   22.6971 C   0  0  0  0  0  0  0  0  0  0  0  0
   10.6512  -14.9200   22.7936 O   0  0  0  0  0  0  0  0  0  0  0  0
    9.2536  -16.4803   23.6928 N   0  0  0  0  0  0  0  0  0  0  0  0
    9.9320  -16.4350   24.9875 C   0  0  1  0  0  0  0  0  0  0  0  0
    9.7260  -15.1383   25.6780 C   0  0  0  0  0  0  0  0  0  0  0  0
    8.3236  -14.7005   25.7924 C   0  0  0  0  0  0  0  0  0  0  0  0
    7.2348  -15.5378   25.5197 C   0  0  0  0  0  0  0  0  0  0  0  0
    6.0977  -14.8691   25.7571 N   0  0  0  0  0  0  0  0  0  0  0  0
    6.4074  -13.6219   26.1746 C   0  0  0  0  0  0  0  0  0  0  0  0
    5.5752  -12.5804   26.5238 C   0  0  0  0  0  0  0  0  0  0  0  0
    6.1325  -11.3808   26.9096 C   0  0  0  0  0  0  0  0  0  0  0  0
    7.5180  -11.2292   26.9439 C   0  0  0  0  0  0  0  0  0  0  0  0
    8.3221  -12.2981   26.5866 C   0  0  0  0  0  0  0  0  0  0  0  0
    7.7978  -13.5120   26.1974 C   0  0  0  0  0  0  0  0  0  0  0  0
    9.5382  -17.6184   25.7617 C   0  0  0  0  0  0  0  0  0  0  0  0
   10.1431  -18.0444   26.9373 O   0  0  0  0  0  0  0  0  0  0  0  0
    8.5709  -18.3516   25.3623 O   0  0  0  0  0  0  0  0  0  0  0  0
  2  1  1  6
  2  3  1  0
  4  5  1  6
  4  2  1  0
  6  4  1  0
  7  6  2  0
  8  9  1  0
  8  6  1  0
 10  9  1  0
 11 12  1  0
 11 10  1  0
 12  8  1  0
 12 13  1  1
 14 13  2  0
 15 13  1  0
 16 17  1  1
 16 15  1  0
 18 17  1  0
 19 18  2  0
 20 19  1  0
 21 20  1  0
 21 26  2  0
 22 21  1  0
 23 22  2  0
 23 24  1  0
 24 25  2  0
 25 26  1  0
 26 18  1  0
 27 16  1  0
 28 27  1  0
 29 27  2  0
M  END
$$$$
