TPW.pdb
     RDKit          3D

 29 31  0  0  1  0  0  0  0  0999 V2000
   11.0476  -14.9587   19.0664 C   0  0  0  0  0  0  0  0  0  0  0  0
   10.3919  -13.6055   18.9673 C   0  0  1  0  0  0  0  0  0  0  0  0
   10.8701  -12.9632   17.8489 O   0  0  0  0  0  0  0  0  0  0  0  0
    8.8777  -13.8737   18.8782 C   0  0  2  0  0  0  0  0  0  0  0  0
    8.1966  -12.6747   18.4740 N   0  0  0  0  0  0  0  0  0  0  0  0
    8.3820  -14.4932   20.1105 C   0  0  0  0  0  0  0  0  0  0  0  0
    8.6872  -13.8522   21.1820 O   0  0  0  0  0  0  0  0  0  0  0  0
    7.6349  -15.6723   20.2344 N   0  0  0  0  0  0  0  0  0  0  0  0
    6.6482  -16.2940   19.3685 C   0  0  0  0  0  0  0  0  0  0  0  0
    7.1286  -17.7633   19.3790 C   0  0  0  0  0  0  0  0  0  0  0  0
    8.0592  -17.8788   20.5776 C   0  0  0  0  0  0  0  0  0  0  0  0
    7.6799  -16.6284   21.3412 C   0  0  1  0  0  0  0  0  0  0  0  0
    8.6432  -16.3572   22.3820 C   0  0  0  0  0  0  0  0  0  0  0  0
    9.7394  -15.7639   22.0890 O   0  0  0  0  0  0  0  0  0  0  0  0
    8.5138  -16.6936   23.7712 N   0  0  0  0  0  0  0  0  0  0  0  0
    9.5622  -16.3411   24.7279 C   0  0  1  0  0  0  0  0  0  0  0  0
    9.4882  -14.9162   25.1339 C   0  0  0  0  0  0  0  0  0  0  0  0
    8.1585  -14.4520   25.5670 C   0  0  0  0  0  0  0  0  0  0  0  0
    7.0531  -15.3025   25.6917 C   0  0  0  0  0  0  0  0  0  0  0  0
    6.0071  -14.5977   26.1454 N   0  0  0  0  0  0  0  0  0  0  0  0
    6.3922  -13.3144   26.3202 C   0  0  0  0  0  0  0  0  0  0  0  0
    5.6625  -12.2300   26.7572 C   0  0  0  0  0  0  0  0  0  0  0  0
    6.2787  -11.0006   26.8410 C   0  0  0  0  0  0  0  0  0  0  0  0
    7.6201  -10.8620   26.4874 C   0  0  0  0  0  0  0  0  0  0  0  0
    8.3211  -11.9742   26.0532 C   0  0  0  0  0  0  0  0  0  0  0  0
    7.7360  -13.2187   25.9590 C   0  0  0  0  0  0  0  0  0  0  0  0
    9.5248  -17.3035   25.8358 C   0  0  0  0  0  0  0  0  0  0  0  0
    8.5664  -18.2949   26.0039 O   0  0  0  0  0  0  0  0  0  0  0  0
   10.4197  -17.2653   26.7471 O   0  0  0  0  0  0  0  0  0  0  0  0
  2  1  1  6
  2  3  1  0
  4  5  1  1
  4  2  1  0
  6  4  1  0
  7  6  2  0
  8  9  1  0
  8  6  1  0
 10  9  1  0
 11 12  1  0
 11 10  1  0
 12  8  1  0
 12 13  1  1
 14 13  2  0
 15 13  1  0
 16 17  1  1
 16 15  1  0
 18 17  1  0
 19 18  2  0
 20 19  1  0
 21 20  1  0
 21 26  2  0
 22 21  1  0
 23 22  2  0
 23 24  1  0
 24 25  2  0
 25 26  1  0
 26 18  1  0
 27 16  1  0
 28 27  1  0
 29 27  2  0
M  END
$$$$
