TPW.pdb
     RDKit          3D

 29 31  0  0  1  0  0  0  0  0999 V2000
    7.7642  -12.7276   19.5337 C   0  0  0  0  0  0  0  0  0  0  0  0
    8.1515  -13.5174   20.7573 C   0  0  1  0  0  0  0  0  0  0  0  0
    7.5657  -12.9403   21.8600 O   0  0  0  0  0  0  0  0  0  0  0  0
    7.6430  -14.9510   20.5150 C   0  0  2  0  0  0  0  0  0  0  0  0
    6.2202  -14.9325   20.3135 N   0  0  0  0  0  0  0  0  0  0  0  0
    8.1175  -15.8592   21.5629 C   0  0  0  0  0  0  0  0  0  0  0  0
    7.6015  -15.6436   22.7202 O   0  0  0  0  0  0  0  0  0  0  0  0
    9.0444  -16.9025   21.4351 N   0  0  0  0  0  0  0  0  0  0  0  0
    9.4106  -17.7457   20.3106 C   0  0  0  0  0  0  0  0  0  0  0  0
   10.9535  -17.7037   20.3989 C   0  0  0  0  0  0  0  0  0  0  0  0
   11.2675  -17.2030   21.8013 C   0  0  0  0  0  0  0  0  0  0  0  0
    9.9310  -17.4222   22.4767 C   0  0  1  0  0  0  0  0  0  0  0  0
    9.8884  -16.7433   23.7503 C   0  0  0  0  0  0  0  0  0  0  0  0
   10.2447  -15.5157   23.8239 O   0  0  0  0  0  0  0  0  0  0  0  0
    9.4788  -17.3093   25.0040 N   0  0  0  0  0  0  0  0  0  0  0  0
    9.9067  -16.7145   26.2696 C   0  0  1  0  0  0  0  0  0  0  0  0
    8.7551  -16.3624   27.1360 C   0  0  0  0  0  0  0  0  0  0  0  0
    7.7667  -15.4516   26.5320 C   0  0  0  0  0  0  0  0  0  0  0  0
    6.6572  -15.8987   25.8040 C   0  0  0  0  0  0  0  0  0  0  0  0
    5.9264  -14.8408   25.4254 N   0  0  0  0  0  0  0  0  0  0  0  0
    6.5224  -13.7170   25.8808 C   0  0  0  0  0  0  0  0  0  0  0  0
    6.1455  -12.3999   25.7303 C   0  0  0  0  0  0  0  0  0  0  0  0
    6.9336  -11.4128   26.2808 C   0  0  0  0  0  0  0  0  0  0  0  0
    8.0935  -11.7477   26.9780 C   0  0  0  0  0  0  0  0  0  0  0  0
    8.4398  -13.0818   27.1090 C   0  0  0  0  0  0  0  0  0  0  0  0
    7.6736  -14.0941   26.5723 C   0  0  0  0  0  0  0  0  0  0  0  0
   10.8995  -17.6009   26.8890 C   0  0  0  0  0  0  0  0  0  0  0  0
   11.2861  -18.8402   26.3947 O   0  0  0  0  0  0  0  0  0  0  0  0
   11.4797  -17.2532   27.9731 O   0  0  0  0  0  0  0  0  0  0  0  0
  2  1  1  6
  2  3  1  0
  4  5  1  1
  4  2  1  0
  6  4  1  0
  7  6  2  0
  8  9  1  0
  8  6  1  0
 10  9  1  0
 11 12  1  0
 11 10  1  0
 12  8  1  0
 12 13  1  1
 14 13  2  0
 15 13  1  0
 16 17  1  1
 16 15  1  0
 18 17  1  0
 19 18  2  0
 20 19  1  0
 21 20  1  0
 21 26  2  0
 22 21  1  0
 23 22  2  0
 23 24  1  0
 24 25  2  0
 25 26  1  0
 26 18  1  0
 27 16  1  0
 28 27  1  0
 29 27  2  0
M  END
$$$$
