TPW.pdb
     RDKit          3D

 29 31  0  0  1  0  0  0  0  0999 V2000
    5.7767  -19.2403   19.8720 C   0  0  0  0  0  0  0  0  0  0  0  0
    6.6849  -18.4431   20.7723 C   0  0  1  0  0  0  0  0  0  0  0  0
    7.2705  -19.2969   21.6780 O   0  0  0  0  0  0  0  0  0  0  0  0
    7.7226  -17.7795   19.8473 C   0  0  2  0  0  0  0  0  0  0  0  0
    8.5126  -18.7914   19.2014 N   0  0  0  0  0  0  0  0  0  0  0  0
    8.4824  -16.7518   20.5647 C   0  0  0  0  0  0  0  0  0  0  0  0
    9.2245  -17.2086   21.5096 O   0  0  0  0  0  0  0  0  0  0  0  0
    8.4818  -15.3698   20.3326 N   0  0  0  0  0  0  0  0  0  0  0  0
    8.3171  -14.5873   19.1200 C   0  0  0  0  0  0  0  0  0  0  0  0
    7.3117  -13.5132   19.5948 C   0  0  0  0  0  0  0  0  0  0  0  0
    7.3592  -13.5548   21.1153 C   0  0  0  0  0  0  0  0  0  0  0  0
    8.6523  -14.3117   21.3290 C   0  0  1  0  0  0  0  0  0  0  0  0
    8.7689  -14.7398   22.7030 C   0  0  0  0  0  0  0  0  0  0  0  0
    8.0850  -14.1478   23.6092 O   0  0  0  0  0  0  0  0  0  0  0  0
    9.6035  -15.7974   23.1978 N   0  0  0  0  0  0  0  0  0  0  0  0
   10.0152  -15.8325   24.6006 C   0  0  1  0  0  0  0  0  0  0  0  0
    8.9129  -16.2682   25.4928 C   0  0  0  0  0  0  0  0  0  0  0  0
    7.7625  -15.3505   25.5684 C   0  0  0  0  0  0  0  0  0  0  0  0
    6.4684  -15.7099   25.1721 C   0  0  0  0  0  0  0  0  0  0  0  0
    5.6386  -14.6828   25.4027 N   0  0  0  0  0  0  0  0  0  0  0  0
    6.3480  -13.6636   25.9353 C   0  0  0  0  0  0  0  0  0  0  0  0
    5.9283  -12.4095   26.3233 C   0  0  0  0  0  0  0  0  0  0  0  0
    6.8526  -11.5242   26.8334 C   0  0  0  0  0  0  0  0  0  0  0  0
    8.1906  -11.8972   26.9525 C   0  0  0  0  0  0  0  0  0  0  0  0
    8.5749  -13.1658   26.5528 C   0  0  0  0  0  0  0  0  0  0  0  0
    7.6763  -14.0764   26.0398 C   0  0  0  0  0  0  0  0  0  0  0  0
   11.2466  -16.6249   24.7052 C   0  0  0  0  0  0  0  0  0  0  0  0
   11.9634  -16.8408   25.8753 O   0  0  0  0  0  0  0  0  0  0  0  0
   11.7426  -17.1769   23.6650 O   0  0  0  0  0  0  0  0  0  0  0  0
  2  1  1  6
  2  3  1  0
  4  5  1  1
  4  2  1  0
  6  4  1  0
  7  6  2  0
  8  9  1  0
  8  6  1  0
 10  9  1  0
 11 12  1  0
 11 10  1  0
 12  8  1  0
 12 13  1  1
 14 13  2  0
 15 13  1  0
 16 17  1  1
 16 15  1  0
 18 17  1  0
 19 18  2  0
 20 19  1  0
 21 20  1  0
 21 26  2  0
 22 21  1  0
 23 22  2  0
 23 24  1  0
 24 25  2  0
 25 26  1  0
 26 18  1  0
 27 16  1  0
 28 27  1  0
 29 27  2  0
M  END
$$$$
