TPW.pdb
     RDKit          3D

 29 31  0  0  1  0  0  0  0  0999 V2000
   11.3124  -14.9098   19.2138 C   0  0  0  0  0  0  0  0  0  0  0  0
   10.6180  -13.5901   18.9970 C   0  0  1  0  0  0  0  0  0  0  0  0
   11.1386  -12.9962   17.8707 O   0  0  0  0  0  0  0  0  0  0  0  0
    9.1216  -13.9194   18.8390 C   0  0  2  0  0  0  0  0  0  0  0  0
    8.4148  -12.7539   18.3839 N   0  0  0  0  0  0  0  0  0  0  0  0
    8.5909  -14.5412   20.0554 C   0  0  0  0  0  0  0  0  0  0  0  0
    8.8942  -13.9209   21.1396 O   0  0  0  0  0  0  0  0  0  0  0  0
    7.8131  -15.7029   20.1527 N   0  0  0  0  0  0  0  0  0  0  0  0
    6.8376  -16.2981   19.2560 C   0  0  0  0  0  0  0  0  0  0  0  0
    7.2831  -17.7783   19.2741 C   0  0  0  0  0  0  0  0  0  0  0  0
    8.1756  -17.9200   20.4985 C   0  0  0  0  0  0  0  0  0  0  0  0
    7.8037  -16.6638   21.2562 C   0  0  1  0  0  0  0  0  0  0  0  0
    8.7426  -16.4190   22.3255 C   0  0  0  0  0  0  0  0  0  0  0  0
    9.9501  -16.0988   22.0448 O   0  0  0  0  0  0  0  0  0  0  0  0
    8.4714  -16.5002   23.7325 N   0  0  0  0  0  0  0  0  0  0  0  0
    9.5393  -16.3098   24.7132 C   0  0  1  0  0  0  0  0  0  0  0  0
    9.4612  -14.9817   25.3696 C   0  0  0  0  0  0  0  0  0  0  0  0
    8.1043  -14.5364   25.7327 C   0  0  0  0  0  0  0  0  0  0  0  0
    6.9991  -15.3956   25.7656 C   0  0  0  0  0  0  0  0  0  0  0  0
    5.9225  -14.7091   26.1735 N   0  0  0  0  0  0  0  0  0  0  0  0
    6.2875  -13.4293   26.4070 C   0  0  0  0  0  0  0  0  0  0  0  0
    5.5251  -12.3612   26.8282 C   0  0  0  0  0  0  0  0  0  0  0  0
    6.1268  -11.1315   26.9837 C   0  0  0  0  0  0  0  0  0  0  0  0
    7.4864  -10.9764   26.7171 C   0  0  0  0  0  0  0  0  0  0  0  0
    8.2201  -12.0724   26.2963 C   0  0  0  0  0  0  0  0  0  0  0  0
    7.6503  -13.3167   26.1319 C   0  0  0  0  0  0  0  0  0  0  0  0
    9.5385  -17.4553   25.6313 C   0  0  0  0  0  0  0  0  0  0  0  0
    8.5832  -18.4635   25.6538 O   0  0  0  0  0  0  0  0  0  0  0  0
   10.4661  -17.5785   26.5015 O   0  0  0  0  0  0  0  0  0  0  0  0
  2  1  1  6
  2  3  1  0
  4  5  1  1
  4  2  1  0
  6  4  1  0
  7  6  2  0
  8  9  1  0
  8  6  1  0
 10  9  1  0
 11 12  1  0
 11 10  1  0
 12  8  1  0
 12 13  1  1
 14 13  2  0
 15 13  1  0
 16 17  1  1
 16 15  1  0
 18 17  1  0
 19 18  2  0
 20 19  1  0
 21 20  1  0
 21 26  2  0
 22 21  1  0
 23 22  2  0
 23 24  1  0
 24 25  2  0
 25 26  1  0
 26 18  1  0
 27 16  1  0
 28 27  1  0
 29 27  2  0
M  END
$$$$
