TPW.pdb
     RDKit          3D

 29 31  0  0  1  0  0  0  0  0999 V2000
    9.9068  -13.6913   16.6228 C   0  0  0  0  0  0  0  0  0  0  0  0
    9.7829  -14.2142   18.0307 C   0  0  1  0  0  0  0  0  0  0  0  0
   10.4804  -13.3816   18.8747 O   0  0  0  0  0  0  0  0  0  0  0  0
    8.2753  -14.2282   18.3465 C   0  0  2  0  0  0  0  0  0  0  0  0
    7.7384  -12.9029   18.2037 N   0  0  0  0  0  0  0  0  0  0  0  0
    8.0162  -14.8757   19.6355 C   0  0  0  0  0  0  0  0  0  0  0  0
    8.3680  -14.1776   20.6559 O   0  0  0  0  0  0  0  0  0  0  0  0
    7.4437  -16.1349   19.8603 N   0  0  0  0  0  0  0  0  0  0  0  0
    6.5159  -16.9347   19.0798 C   0  0  0  0  0  0  0  0  0  0  0  0
    7.1932  -18.3228   19.1458 C   0  0  0  0  0  0  0  0  0  0  0  0
    8.1805  -18.2396   20.3009 C   0  0  0  0  0  0  0  0  0  0  0  0
    7.6659  -17.0077   21.0136 C   0  0  1  0  0  0  0  0  0  0  0  0
    8.6260  -16.5471   21.9887 C   0  0  0  0  0  0  0  0  0  0  0  0
    9.6500  -15.8827   21.6019 O   0  0  0  0  0  0  0  0  0  0  0  0
    8.5685  -16.7592   23.4070 N   0  0  0  0  0  0  0  0  0  0  0  0
    9.5945  -16.2049   24.2894 C   0  0  1  0  0  0  0  0  0  0  0  0
    9.3706  -14.7648   24.5664 C   0  0  0  0  0  0  0  0  0  0  0  0
    8.0475  -14.4272   25.1202 C   0  0  0  0  0  0  0  0  0  0  0  0
    7.0067  -15.3564   25.2386 C   0  0  0  0  0  0  0  0  0  0  0  0
    5.9530  -14.7627   25.8163 N   0  0  0  0  0  0  0  0  0  0  0  0
    6.2704  -13.4757   26.0781 C   0  0  0  0  0  0  0  0  0  0  0  0
    5.5075  -12.4821   26.6527 C   0  0  0  0  0  0  0  0  0  0  0  0
    6.0523  -11.2257   26.8050 C   0  0  0  0  0  0  0  0  0  0  0  0
    7.3558  -10.9698   26.3821 C   0  0  0  0  0  0  0  0  0  0  0  0
    8.0920  -11.9931   25.8097 C   0  0  0  0  0  0  0  0  0  0  0  0
    7.5785  -13.2615   25.6438 C   0  0  0  0  0  0  0  0  0  0  0  0
    9.6941  -17.0566   25.4810 C   0  0  0  0  0  0  0  0  0  0  0  0
   10.7027  -16.9867   26.4336 O   0  0  0  0  0  0  0  0  0  0  0  0
    8.8104  -17.9524   25.7029 O   0  0  0  0  0  0  0  0  0  0  0  0
  2  1  1  6
  2  3  1  0
  4  5  1  1
  4  2  1  0
  6  4  1  0
  7  6  2  0
  8  9  1  0
  8  6  1  0
 10  9  1  0
 11 12  1  0
 11 10  1  0
 12  8  1  0
 12 13  1  1
 14 13  2  0
 15 13  1  0
 16 17  1  1
 16 15  1  0
 18 17  1  0
 19 18  2  0
 20 19  1  0
 21 20  1  0
 21 26  2  0
 22 21  1  0
 23 22  2  0
 23 24  1  0
 24 25  2  0
 25 26  1  0
 26 18  1  0
 27 16  1  0
 28 27  1  0
 29 27  2  0
M  END
$$$$
