TPW.pdb
     RDKit          3D

 29 31  0  0  1  0  0  0  0  0999 V2000
   11.0331  -14.3782   19.2217 C   0  0  0  0  0  0  0  0  0  0  0  0
   10.0654  -13.2597   18.9327 C   0  0  1  0  0  0  0  0  0  0  0  0
   10.4569  -12.6237   17.7775 O   0  0  0  0  0  0  0  0  0  0  0  0
    8.6824  -13.9224   18.7889 C   0  0  2  0  0  0  0  0  0  0  0  0
    7.7225  -12.9484   18.3472 N   0  0  0  0  0  0  0  0  0  0  0  0
    8.3220  -14.6522   20.0076 C   0  0  0  0  0  0  0  0  0  0  0  0
    8.6058  -14.0315   21.0968 O   0  0  0  0  0  0  0  0  0  0  0  0
    7.7200  -15.9142   20.1024 N   0  0  0  0  0  0  0  0  0  0  0  0
    6.8518  -16.6479   19.1981 C   0  0  0  0  0  0  0  0  0  0  0  0
    7.5072  -18.0477   19.2287 C   0  0  0  0  0  0  0  0  0  0  0  0
    8.3966  -18.0540   20.4635 C   0  0  0  0  0  0  0  0  0  0  0  0
    7.8374  -16.8624   21.2106 C   0  0  1  0  0  0  0  0  0  0  0  0
    8.7184  -16.4802   22.2888 C   0  0  0  0  0  0  0  0  0  0  0  0
    9.6070  -15.5802   22.0895 O   0  0  0  0  0  0  0  0  0  0  0  0
    8.7192  -17.0180   23.6195 N   0  0  0  0  0  0  0  0  0  0  0  0
    9.6486  -16.5145   24.6301 C   0  0  1  0  0  0  0  0  0  0  0  0
    9.4979  -15.0545   24.8458 C   0  0  0  0  0  0  0  0  0  0  0  0
    8.1575  -14.6148   25.2717 C   0  0  0  0  0  0  0  0  0  0  0  0
    7.0380  -15.4559   25.2675 C   0  0  0  0  0  0  0  0  0  0  0  0
    5.9832  -14.7835   25.7491 N   0  0  0  0  0  0  0  0  0  0  0  0
    6.3762  -13.5303   26.0665 C   0  0  0  0  0  0  0  0  0  0  0  0
    5.6426  -12.4835   26.5818 C   0  0  0  0  0  0  0  0  0  0  0  0
    6.2695  -11.2785   26.8123 C   0  0  0  0  0  0  0  0  0  0  0  0
    7.6256  -11.1266   26.5264 C   0  0  0  0  0  0  0  0  0  0  0  0
    8.3301  -12.2008   26.0101 C   0  0  0  0  0  0  0  0  0  0  0  0
    7.7345  -13.4203   25.7689 C   0  0  0  0  0  0  0  0  0  0  0  0
    9.5127  -17.3363   25.8389 C   0  0  0  0  0  0  0  0  0  0  0  0
    8.5615  -18.3306   26.0290 O   0  0  0  0  0  0  0  0  0  0  0  0
   10.3050  -17.1590   26.8256 O   0  0  0  0  0  0  0  0  0  0  0  0
  2  1  1  6
  2  3  1  0
  4  5  1  1
  4  2  1  0
  6  4  1  0
  7  6  2  0
  8  9  1  0
  8  6  1  0
 10  9  1  0
 11 12  1  0
 11 10  1  0
 12  8  1  0
 12 13  1  1
 14 13  2  0
 15 13  1  0
 16 17  1  1
 16 15  1  0
 18 17  1  0
 19 18  2  0
 20 19  1  0
 21 20  1  0
 21 26  2  0
 22 21  1  0
 23 22  2  0
 23 24  1  0
 24 25  2  0
 25 26  1  0
 26 18  1  0
 27 16  1  0
 28 27  1  0
 29 27  2  0
M  END
$$$$
