TPW.pdb
     RDKit          3D

 29 31  0  0  1  0  0  0  0  0999 V2000
    6.9876  -18.8226   19.7901 C   0  0  0  0  0  0  0  0  0  0  0  0
    8.3907  -18.9359   19.2521 C   0  0  1  0  0  0  0  0  0  0  0  0
    8.3729  -19.7404   18.1365 O   0  0  0  0  0  0  0  0  0  0  0  0
    8.8356  -17.4985   18.9225 C   0  0  2  0  0  0  0  0  0  0  0  0
    9.8165  -17.5240   17.8726 N   0  0  0  0  0  0  0  0  0  0  0  0
    9.2337  -16.7819   20.1373 C   0  0  0  0  0  0  0  0  0  0  0  0
   10.0471  -17.4328   20.8903 O   0  0  0  0  0  0  0  0  0  0  0  0
    8.8316  -15.5034   20.5467 N   0  0  0  0  0  0  0  0  0  0  0  0
    8.4799  -14.3086   19.7993 C   0  0  0  0  0  0  0  0  0  0  0  0
    7.1879  -13.8729   20.5278 C   0  0  0  0  0  0  0  0  0  0  0  0
    7.1992  -14.6157   21.8560 C   0  0  0  0  0  0  0  0  0  0  0  0
    8.6511  -15.0378   21.9222 C   0  0  1  0  0  0  0  0  0  0  0  0
    8.8471  -16.0210   22.9612 C   0  0  0  0  0  0  0  0  0  0  0  0
    7.8437  -16.6832   23.4016 O   0  0  0  0  0  0  0  0  0  0  0  0
   10.0917  -16.3572   23.5920 N   0  0  0  0  0  0  0  0  0  0  0  0
   10.2906  -16.1323   25.0233 C   0  0  1  0  0  0  0  0  0  0  0  0
    9.9309  -14.7501   25.4242 C   0  0  0  0  0  0  0  0  0  0  0  0
    8.4912  -14.5048   25.6208 C   0  0  0  0  0  0  0  0  0  0  0  0
    7.5148  -15.4933   25.4467 C   0  0  0  0  0  0  0  0  0  0  0  0
    6.3129  -14.9785   25.7413 N   0  0  0  0  0  0  0  0  0  0  0  0
    6.4714  -13.6857   26.1009 C   0  0  0  0  0  0  0  0  0  0  0  0
    5.5258  -12.7558   26.4757 C   0  0  0  0  0  0  0  0  0  0  0  0
    5.9337  -11.4774   26.7881 C   0  0  0  0  0  0  0  0  0  0  0  0
    7.2839  -11.1359   26.7240 C   0  0  0  0  0  0  0  0  0  0  0  0
    8.2050  -12.0970   26.3438 C   0  0  0  0  0  0  0  0  0  0  0  0
    7.8315  -13.3852   26.0261 C   0  0  0  0  0  0  0  0  0  0  0  0
    9.5948  -17.1926   25.7627 C   0  0  0  0  0  0  0  0  0  0  0  0
    8.8403  -18.2075   25.1881 O   0  0  0  0  0  0  0  0  0  0  0  0
    9.6526  -17.2265   27.0388 O   0  0  0  0  0  0  0  0  0  0  0  0
  2  1  1  6
  2  3  1  0
  4  5  1  6
  4  2  1  0
  6  4  1  0
  7  6  2  0
  8  9  1  0
  8  6  1  0
 10  9  1  0
 11 12  1  0
 11 10  1  0
 12  8  1  0
 12 13  1  1
 14 13  2  0
 15 13  1  0
 16 17  1  1
 16 15  1  0
 18 17  1  0
 19 18  2  0
 20 19  1  0
 21 20  1  0
 21 26  2  0
 22 21  1  0
 23 22  2  0
 23 24  1  0
 24 25  2  0
 25 26  1  0
 26 18  1  0
 27 16  1  0
 28 27  1  0
 29 27  2  0
M  END
$$$$
