LDN.pdb
     RDKit          3D

 25 24  0  0  1  0  0  0  0  0999 V2000
    9.0022  -12.3602   19.2514 C   0  0  0  0  0  0  0  0  0  0  0  0
    8.0031  -13.4836   19.3196 C   0  0  2  0  0  0  0  0  0  0  0  0
    6.6127  -12.8892   19.3222 C   0  0  0  0  0  0  0  0  0  0  0  0
    8.1562  -14.3789   20.5142 C   0  0  0  0  0  0  0  0  0  0  0  0
    9.6093  -14.6770   20.8309 C   0  0  2  0  0  0  0  0  0  0  0  0
   10.2310  -15.3435   19.6985 N   0  0  0  0  0  0  0  0  0  0  0  0
    9.6806  -15.5016   22.0568 C   0  0  0  0  0  0  0  0  0  0  0  0
    8.8389  -15.3061   23.0069 O   0  0  0  0  0  0  0  0  0  0  0  0
   10.6419  -16.5112   22.2389 N   0  0  0  0  0  0  0  0  0  0  0  0
   10.9039  -17.2772   23.4059 C   0  0  1  0  0  0  0  0  0  0  0  0
   11.9512  -18.3800   23.2096 C   0  0  0  0  0  0  0  0  0  0  0  0
   11.5746  -19.2952   22.1087 C   0  0  0  0  0  0  0  0  0  0  0  0
   12.4209  -19.5154   21.2001 O   0  0  0  0  0  0  0  0  0  0  0  0
   11.4324  -16.4598   24.5503 C   0  0  0  0  0  0  0  0  0  0  0  0
   12.1005  -15.4579   24.2004 O   0  0  0  0  0  0  0  0  0  0  0  0
   10.3411  -19.9269   22.0164 O   0  0  0  0  0  0  0  0  0  0  0  0
   10.3948  -14.0329   28.8779 N   0  0  0  0  0  0  0  0  0  0  0  0
    9.6637  -13.8922   27.6779 C   0  0  0  0  0  0  0  0  0  0  0  0
    8.8672  -12.9369   27.5557 O   0  0  0  0  0  0  0  0  0  0  0  0
    9.8356  -14.8570   26.5819 C   0  0  0  0  0  0  0  0  0  0  0  0
   10.9254  -15.8373   26.9167 C   0  0  2  0  0  0  0  0  0  0  0  0
   11.1955  -16.7870   25.8831 N   0  0  0  0  0  0  0  0  0  0  0  0
   10.6685  -16.4651   28.2287 C   0  0  0  0  0  0  0  0  0  0  0  0
   10.2723  -17.8357   28.2732 O   0  0  0  0  0  0  0  0  0  0  0  0
   10.7575  -15.9288   29.3345 O   0  0  0  0  0  0  0  0  0  0  0  0
  2  1  1  1
  2  3  1  0
  4  5  1  0
  4  2  1  0
  5  6  1  6
  5  7  1  0
  7  8  2  0
  9  7  1  0
  9 10  1  0
 10 14  1  0
 10 11  1  6
 12 11  1  0
 13 12  2  0
 14 15  2  0
 16 12  1  0
 17 18  1  0
 18 20  1  0
 19 18  2  0
 21 20  1  6
 21 23  1  0
 22 21  1  0
 22 14  1  0
 23 25  2  0
 23 24  1  0
M  END
$$$$
