LDN.pdb
     RDKit          3D

 25 24  0  0  1  0  0  0  0  0999 V2000
    7.4581  -13.1427   22.6607 C   0  0  0  0  0  0  0  0  0  0  0  0
    8.0935  -13.8249   21.4793 C   0  0  2  0  0  0  0  0  0  0  0  0
    8.2240  -12.8190   20.3578 C   0  0  0  0  0  0  0  0  0  0  0  0
    7.3438  -15.0243   20.9777 C   0  0  0  0  0  0  0  0  0  0  0  0
    8.2192  -15.9513   20.1562 C   0  0  2  0  0  0  0  0  0  0  0  0
    7.4028  -16.9961   19.5602 N   0  0  0  0  0  0  0  0  0  0  0  0
    9.2792  -16.5130   21.0215 C   0  0  0  0  0  0  0  0  0  0  0  0
    9.0407  -17.5618   21.7231 O   0  0  0  0  0  0  0  0  0  0  0  0
   10.5624  -15.9465   21.1165 N   0  0  0  0  0  0  0  0  0  0  0  0
   11.7724  -16.5704   21.5213 C   0  0  1  0  0  0  0  0  0  0  0  0
   13.0110  -16.0929   20.7537 C   0  0  0  0  0  0  0  0  0  0  0  0
   14.2178  -16.8566   21.1434 C   0  0  0  0  0  0  0  0  0  0  0  0
   15.2274  -16.2144   21.5418 O   0  0  0  0  0  0  0  0  0  0  0  0
   12.1130  -16.3321   22.9650 C   0  0  0  0  0  0  0  0  0  0  0  0
   13.2396  -16.7654   23.3052 O   0  0  0  0  0  0  0  0  0  0  0  0
   14.3048  -18.2419   21.0956 O   0  0  0  0  0  0  0  0  0  0  0  0
    9.3964  -17.5207   27.0656 N   0  0  0  0  0  0  0  0  0  0  0  0
    8.6894  -17.5244   25.8432 C   0  0  0  0  0  0  0  0  0  0  0  0
    7.5476  -18.0309   25.7990 O   0  0  0  0  0  0  0  0  0  0  0  0
    9.2866  -16.9393   24.6339 C   0  0  0  0  0  0  0  0  0  0  0  0
   10.6097  -16.3045   24.9609 C   0  0  2  0  0  0  0  0  0  0  0  0
   11.2515  -15.6823   23.8455 N   0  0  0  0  0  0  0  0  0  0  0  0
   11.4803  -17.2640   25.6700 C   0  0  0  0  0  0  0  0  0  0  0  0
   11.7778  -17.0396   27.0480 O   0  0  0  0  0  0  0  0  0  0  0  0
   12.0031  -18.2754   25.1986 O   0  0  0  0  0  0  0  0  0  0  0  0
  2  1  1  1
  2  3  1  0
  4  5  1  0
  4  2  1  0
  5  6  1  1
  5  7  1  0
  7  8  2  0
  9  7  1  0
  9 10  1  0
 10 14  1  0
 10 11  1  6
 12 11  1  0
 13 12  2  0
 14 15  2  0
 16 12  1  0
 17 18  1  0
 18 20  1  0
 19 18  2  0
 21 20  1  6
 21 23  1  0
 22 21  1  0
 22 14  1  0
 23 25  2  0
 23 24  1  0
M  END
$$$$
