LDN.pdb
     RDKit          3D

 25 24  0  0  1  0  0  0  0  0999 V2000
    8.4766  -11.8909   18.9388 C   0  0  0  0  0  0  0  0  0  0  0  0
    7.7296  -13.1878   19.0961 C   0  0  2  0  0  0  0  0  0  0  0  0
    6.4890  -12.9296   19.9212 C   0  0  0  0  0  0  0  0  0  0  0  0
    8.5243  -14.2883   19.7362 C   0  0  0  0  0  0  0  0  0  0  0  0
    9.9339  -14.3802   19.1837 C   0  0  2  0  0  0  0  0  0  0  0  0
    9.8895  -14.4192   17.7313 N   0  0  0  0  0  0  0  0  0  0  0  0
   10.5981  -15.5779   19.7425 C   0  0  0  0  0  0  0  0  0  0  0  0
   10.5996  -15.7726   21.0118 O   0  0  0  0  0  0  0  0  0  0  0  0
   11.2404  -16.5356   18.9382 N   0  0  0  0  0  0  0  0  0  0  0  0
   12.0013  -17.6625   19.3487 C   0  0  1  0  0  0  0  0  0  0  0  0
   12.3704  -18.6186   18.2081 C   0  0  0  0  0  0  0  0  0  0  0  0
   12.9951  -19.8587   18.7214 C   0  0  0  0  0  0  0  0  0  0  0  0
   12.4307  -20.4604   19.6752 O   0  0  0  0  0  0  0  0  0  0  0  0
   13.3190  -17.2981   19.9717 C   0  0  0  0  0  0  0  0  0  0  0  0
   14.0142  -18.2834   20.3159 O   0  0  0  0  0  0  0  0  0  0  0  0
   14.1692  -20.4000   18.2140 O   0  0  0  0  0  0  0  0  0  0  0  0
   15.7383  -15.4943   18.1513 N   0  0  0  0  0  0  0  0  0  0  0  0
   15.8675  -14.2969   18.8886 C   0  0  0  0  0  0  0  0  0  0  0  0
   16.3219  -13.2780   18.3251 O   0  0  0  0  0  0  0  0  0  0  0  0
   15.4723  -14.2455   20.3038 C   0  0  0  0  0  0  0  0  0  0  0  0
   14.9654  -15.5881   20.7523 C   0  0  2  0  0  0  0  0  0  0  0  0
   13.7312  -15.9794   20.1466 N   0  0  0  0  0  0  0  0  0  0  0  0
   14.9366  -15.6616   22.2272 C   0  0  0  0  0  0  0  0  0  0  0  0
   13.7074  -15.9796   22.8794 O   0  0  0  0  0  0  0  0  0  0  0  0
   15.8821  -15.4741   22.9949 O   0  0  0  0  0  0  0  0  0  0  0  0
  2  1  1  1
  2  3  1  0
  4  5  1  0
  4  2  1  0
  5  6  1  6
  5  7  1  0
  7  8  2  0
  9  7  1  0
  9 10  1  0
 10 14  1  0
 10 11  1  6
 12 11  1  0
 13 12  2  0
 14 15  2  0
 16 12  1  0
 17 18  1  0
 18 20  1  0
 19 18  2  0
 21 20  1  1
 21 23  1  0
 22 21  1  0
 22 14  1  0
 23 25  2  0
 23 24  1  0
M  END
$$$$
