LDN.pdb
     RDKit          3D

 25 24  0  0  1  0  0  0  0  0999 V2000
    7.5190  -12.5193   20.7380 C   0  0  0  0  0  0  0  0  0  0  0  0
    8.5233  -13.2743   19.9096 C   0  0  2  0  0  0  0  0  0  0  0  0
    9.2633  -12.2868   19.0357 C   0  0  0  0  0  0  0  0  0  0  0  0
    7.9323  -14.3485   19.0443 C   0  0  0  0  0  0  0  0  0  0  0  0
    8.9900  -15.2566   18.4465 C   0  0  2  0  0  0  0  0  0  0  0  0
    8.3575  -16.2547   17.5999 N   0  0  0  0  0  0  0  0  0  0  0  0
    9.7688  -15.8805   19.5384 C   0  0  0  0  0  0  0  0  0  0  0  0
   10.5066  -15.1497   20.2938 O   0  0  0  0  0  0  0  0  0  0  0  0
    9.7410  -17.2619   19.7985 N   0  0  0  0  0  0  0  0  0  0  0  0
   10.5019  -17.9943   20.7482 C   0  0  1  0  0  0  0  0  0  0  0  0
   10.0104  -19.4294   20.9724 C   0  0  0  0  0  0  0  0  0  0  0  0
   10.8068  -20.1187   22.0126 C   0  0  0  0  0  0  0  0  0  0  0  0
   11.2623  -19.4324   22.9676 O   0  0  0  0  0  0  0  0  0  0  0  0
   11.9460  -18.1500   20.3639 C   0  0  0  0  0  0  0  0  0  0  0  0
   12.1259  -18.7323   19.2680 O   0  0  0  0  0  0  0  0  0  0  0  0
   11.0836  -21.4797   21.9990 O   0  0  0  0  0  0  0  0  0  0  0  0
   15.3183  -13.9033   19.2179 N   0  0  0  0  0  0  0  0  0  0  0  0
   14.9485  -15.2623   19.1146 C   0  0  0  0  0  0  0  0  0  0  0  0
   15.6453  -16.0344   18.4214 O   0  0  0  0  0  0  0  0  0  0  0  0
   13.7578  -15.7670   19.8138 C   0  0  0  0  0  0  0  0  0  0  0  0
   14.1177  -16.9516   20.6671 C   0  0  2  0  0  0  0  0  0  0  0  0
   12.9916  -17.6833   21.1567 N   0  0  0  0  0  0  0  0  0  0  0  0
   15.0579  -16.5519   21.7336 C   0  0  0  0  0  0  0  0  0  0  0  0
   14.5929  -15.7024   22.7822 O   0  0  0  0  0  0  0  0  0  0  0  0
   16.2430  -16.8746   21.8329 O   0  0  0  0  0  0  0  0  0  0  0  0
  2  1  1  6
  2  3  1  0
  4  5  1  0
  4  2  1  0
  5  6  1  1
  5  7  1  0
  7  8  2  0
  9  7  1  0
  9 10  1  0
 10 14  1  0
 10 11  1  6
 12 11  1  0
 13 12  2  0
 14 15  2  0
 16 12  1  0
 17 18  1  0
 18 20  1  0
 19 18  2  0
 21 20  1  1
 21 23  1  0
 22 21  1  0
 22 14  1  0
 23 25  2  0
 23 24  1  0
M  END
$$$$
