LDN.pdb
     RDKit          3D

 25 24  0  0  1  0  0  0  0  0999 V2000
    7.9111  -12.8131   19.0749 C   0  0  0  0  0  0  0  0  0  0  0  0
    7.5334  -13.5108   20.3537 C   0  0  2  0  0  0  0  0  0  0  0  0
    7.4428  -12.4781   21.4546 C   0  0  0  0  0  0  0  0  0  0  0  0
    8.4833  -14.5939   20.7740 C   0  0  0  0  0  0  0  0  0  0  0  0
    8.5461  -15.7294   19.7703 C   0  0  2  0  0  0  0  0  0  0  0  0
    7.2421  -16.3632   19.6651 N   0  0  0  0  0  0  0  0  0  0  0  0
    9.5890  -16.6912   20.1888 C   0  0  0  0  0  0  0  0  0  0  0  0
    9.2559  -17.7582   20.8211 O   0  0  0  0  0  0  0  0  0  0  0  0
   10.9554  -16.4941   19.9230 N   0  0  0  0  0  0  0  0  0  0  0  0
   12.0499  -17.3283   20.2745 C   0  0  1  0  0  0  0  0  0  0  0  0
   13.3326  -17.0458   19.4830 C   0  0  0  0  0  0  0  0  0  0  0  0
   14.3524  -18.0942   19.7118 C   0  0  0  0  0  0  0  0  0  0  0  0
   14.0149  -19.1243   20.3562 O   0  0  0  0  0  0  0  0  0  0  0  0
   12.4624  -17.1971   21.7132 C   0  0  0  0  0  0  0  0  0  0  0  0
   12.9276  -16.0720   22.0136 O   0  0  0  0  0  0  0  0  0  0  0  0
   15.6625  -18.0103   19.2582 O   0  0  0  0  0  0  0  0  0  0  0  0
   12.6423  -16.8198   26.4040 N   0  0  0  0  0  0  0  0  0  0  0  0
   11.5755  -17.7189   26.1856 C   0  0  0  0  0  0  0  0  0  0  0  0
   10.7061  -17.8628   27.0720 O   0  0  0  0  0  0  0  0  0  0  0  0
   11.4848  -18.4787   24.9302 C   0  0  0  0  0  0  0  0  0  0  0  0
   12.6337  -18.1290   24.0255 C   0  0  2  0  0  0  0  0  0  0  0  0
   12.3341  -18.2359   22.6319 N   0  0  0  0  0  0  0  0  0  0  0  0
   13.8448  -18.8779   24.4176 C   0  0  0  0  0  0  0  0  0  0  0  0
   14.9561  -18.1617   24.9559 O   0  0  0  0  0  0  0  0  0  0  0  0
   14.0209  -20.0946   24.3331 O   0  0  0  0  0  0  0  0  0  0  0  0
  2  1  1  6
  2  3  1  0
  4  5  1  0
  4  2  1  0
  5  6  1  1
  5  7  1  0
  7  8  2  0
  9  7  1  0
  9 10  1  0
 10 14  1  0
 10 11  1  6
 12 11  1  0
 13 12  2  0
 14 15  2  0
 16 12  1  0
 17 18  1  0
 18 20  1  0
 19 18  2  0
 21 20  1  1
 21 23  1  0
 22 21  1  0
 22 14  1  0
 23 25  2  0
 23 24  1  0
M  END
$$$$
