LDN.pdb
     RDKit          3D

 25 24  0  0  1  0  0  0  0  0999 V2000
    9.0600  -11.9238   20.0782 C   0  0  0  0  0  0  0  0  0  0  0  0
    8.3676  -13.1604   19.5719 C   0  0  2  0  0  0  0  0  0  0  0  0
    7.0326  -12.7570   18.9873 C   0  0  0  0  0  0  0  0  0  0  0  0
    8.1477  -14.2190   20.6126 C   0  0  0  0  0  0  0  0  0  0  0  0
    9.3417  -14.3807   21.5340 C   0  0  2  0  0  0  0  0  0  0  0  0
   10.5191  -14.7261   20.7545 N   0  0  0  0  0  0  0  0  0  0  0  0
    9.0364  -15.4125   22.5490 C   0  0  0  0  0  0  0  0  0  0  0  0
    7.9324  -15.3573   23.2026 O   0  0  0  0  0  0  0  0  0  0  0  0
    9.9108  -16.4742   22.8403 N   0  0  0  0  0  0  0  0  0  0  0  0
    9.7075  -17.5635   23.7289 C   0  0  1  0  0  0  0  0  0  0  0  0
   10.5809  -18.7879   23.4293 C   0  0  0  0  0  0  0  0  0  0  0  0
   10.3056  -19.3329   22.0808 C   0  0  0  0  0  0  0  0  0  0  0  0
    9.1067  -19.5611   21.7628 O   0  0  0  0  0  0  0  0  0  0  0  0
   10.0114  -17.2297   25.1618 C   0  0  0  0  0  0  0  0  0  0  0  0
    9.6587  -18.1117   25.9806 O   0  0  0  0  0  0  0  0  0  0  0  0
   11.2917  -19.6093   21.1426 O   0  0  0  0  0  0  0  0  0  0  0  0
    9.1296  -12.4913   27.3905 N   0  0  0  0  0  0  0  0  0  0  0  0
    9.1114  -13.7218   26.6979 C   0  0  0  0  0  0  0  0  0  0  0  0
    8.8328  -13.7334   25.4795 O   0  0  0  0  0  0  0  0  0  0  0  0
    9.4167  -14.9775   27.3990 C   0  0  0  0  0  0  0  0  0  0  0  0
   10.7047  -15.5602   26.8870 C   0  0  2  0  0  0  0  0  0  0  0  0
   10.6345  -16.0443   25.5439 N   0  0  0  0  0  0  0  0  0  0  0  0
   11.2315  -16.5605   27.8374 C   0  0  0  0  0  0  0  0  0  0  0  0
   11.4689  -16.1709   29.1899 O   0  0  0  0  0  0  0  0  0  0  0  0
   11.5025  -17.7381   27.5959 O   0  0  0  0  0  0  0  0  0  0  0  0
  2  1  1  1
  2  3  1  0
  4  5  1  0
  4  2  1  0
  5  6  1  6
  5  7  1  0
  7  8  2  0
  9  7  1  0
  9 10  1  0
 10 14  1  0
 10 11  1  6
 12 11  1  0
 13 12  2  0
 14 15  2  0
 16 12  1  0
 17 18  1  0
 18 20  1  0
 19 18  2  0
 21 20  1  1
 21 23  1  0
 22 21  1  0
 22 14  1  0
 23 25  2  0
 23 24  1  0
M  END
$$$$
