LDN.pdb
     RDKit          3D

 25 24  0  0  1  0  0  0  0  0999 V2000
    8.2126  -12.2584   20.6447 C   0  0  0  0  0  0  0  0  0  0  0  0
    8.4246  -13.0477   19.3811 C   0  0  2  0  0  0  0  0  0  0  0  0
    7.4736  -12.5285   18.3262 C   0  0  0  0  0  0  0  0  0  0  0  0
    8.2281  -14.5277   19.5331 C   0  0  0  0  0  0  0  0  0  0  0  0
    9.0174  -15.0993   20.6955 C   0  0  2  0  0  0  0  0  0  0  0  0
    9.5082  -14.0178   21.5336 N   0  0  0  0  0  0  0  0  0  0  0  0
   10.1237  -15.9291   20.1708 C   0  0  0  0  0  0  0  0  0  0  0  0
    9.8612  -16.9753   19.4738 O   0  0  0  0  0  0  0  0  0  0  0  0
   11.4770  -15.6243   20.3994 N   0  0  0  0  0  0  0  0  0  0  0  0
   12.6240  -16.3701   20.0181 C   0  0  1  0  0  0  0  0  0  0  0  0
   13.2025  -15.9762   18.6537 C   0  0  0  0  0  0  0  0  0  0  0  0
   13.5711  -14.5430   18.6148 C   0  0  0  0  0  0  0  0  0  0  0  0
   13.9850  -14.0044   19.6774 O   0  0  0  0  0  0  0  0  0  0  0  0
   13.7769  -16.2205   20.9698 C   0  0  0  0  0  0  0  0  0  0  0  0
   14.8739  -16.6230   20.5148 O   0  0  0  0  0  0  0  0  0  0  0  0
   13.4875  -13.7539   17.4749 O   0  0  0  0  0  0  0  0  0  0  0  0
   10.8192  -18.3768   25.2842 N   0  0  0  0  0  0  0  0  0  0  0  0
   12.0189  -17.7365   24.9035 C   0  0  0  0  0  0  0  0  0  0  0  0
   12.9785  -17.7103   25.7039 O   0  0  0  0  0  0  0  0  0  0  0  0
   12.1415  -17.1069   23.5806 C   0  0  0  0  0  0  0  0  0  0  0  0
   13.4840  -16.4444   23.4413 C   0  0  2  0  0  0  0  0  0  0  0  0
   13.6364  -15.6776   22.2446 N   0  0  0  0  0  0  0  0  0  0  0  0
   14.5674  -17.4280   23.6419 C   0  0  0  0  0  0  0  0  0  0  0  0
   14.7099  -18.4990   22.7091 O   0  0  0  0  0  0  0  0  0  0  0  0
   15.3968  -17.4380   24.5532 O   0  0  0  0  0  0  0  0  0  0  0  0
  2  1  1  1
  2  3  1  0
  4  5  1  0
  4  2  1  0
  5  6  1  6
  5  7  1  0
  7  8  2  0
  9  7  1  0
  9 10  1  0
 10 14  1  0
 10 11  1  6
 12 11  1  0
 13 12  2  0
 14 15  2  0
 16 12  1  0
 17 18  1  0
 18 20  1  0
 19 18  2  0
 21 20  1  6
 21 23  1  0
 22 21  1  0
 22 14  1  0
 23 25  2  0
 23 24  1  0
M  END
$$$$
