LDN.pdb
     RDKit          3D

 25 24  0  0  1  0  0  0  0  0999 V2000
    6.9603  -13.0187   18.9537 C   0  0  0  0  0  0  0  0  0  0  0  0
    7.9070  -12.9827   20.1230 C   0  0  2  0  0  0  0  0  0  0  0  0
    8.8272  -11.7941   19.9584 C   0  0  0  0  0  0  0  0  0  0  0  0
    8.7338  -14.2237   20.2910 C   0  0  0  0  0  0  0  0  0  0  0  0
    7.8826  -15.4616   20.5005 C   0  0  2  0  0  0  0  0  0  0  0  0
    7.0529  -15.2917   21.6819 N   0  0  0  0  0  0  0  0  0  0  0  0
    8.7639  -16.6438   20.6171 C   0  0  0  0  0  0  0  0  0  0  0  0
    8.8193  -17.2913   21.7247 O   0  0  0  0  0  0  0  0  0  0  0  0
    9.5601  -17.1060   19.5545 N   0  0  0  0  0  0  0  0  0  0  0  0
   10.3697  -18.2719   19.5035 C   0  0  1  0  0  0  0  0  0  0  0  0
    9.8961  -19.3197   18.4890 C   0  0  0  0  0  0  0  0  0  0  0  0
   10.6684  -20.5770   18.6081 C   0  0  0  0  0  0  0  0  0  0  0  0
   11.5042  -20.6771   19.5471 O   0  0  0  0  0  0  0  0  0  0  0  0
   11.7940  -17.9930   19.1150 C   0  0  0  0  0  0  0  0  0  0  0  0
   11.9827  -17.9139   17.8777 O   0  0  0  0  0  0  0  0  0  0  0  0
   10.5274  -21.6556   17.7445 O   0  0  0  0  0  0  0  0  0  0  0  0
   14.6839  -13.7484   18.9026 N   0  0  0  0  0  0  0  0  0  0  0  0
   13.8578  -14.8498   18.5885 C   0  0  0  0  0  0  0  0  0  0  0  0
   13.9035  -15.3402   17.4398 O   0  0  0  0  0  0  0  0  0  0  0  0
   12.9531  -15.4164   19.5995 C   0  0  0  0  0  0  0  0  0  0  0  0
   13.5715  -16.6343   20.2280 C   0  0  2  0  0  0  0  0  0  0  0  0
   12.8130  -17.8329   20.0506 N   0  0  0  0  0  0  0  0  0  0  0  0
   13.9138  -16.3681   21.6398 C   0  0  0  0  0  0  0  0  0  0  0  0
   13.2545  -17.1135   22.6632 O   0  0  0  0  0  0  0  0  0  0  0  0
   14.7318  -15.5477   22.0597 O   0  0  0  0  0  0  0  0  0  0  0  0
  2  1  1  6
  2  3  1  0
  4  5  1  0
  4  2  1  0
  5  6  1  1
  5  7  1  0
  7  8  2  0
  9  7  1  0
  9 10  1  0
 10 14  1  0
 10 11  1  6
 12 11  1  0
 13 12  2  0
 14 15  2  0
 16 12  1  0
 17 18  1  0
 18 20  1  0
 19 18  2  0
 21 20  1  1
 21 23  1  0
 22 21  1  0
 22 14  1  0
 23 25  2  0
 23 24  1  0
M  END
$$$$
