LDN.pdb
     RDKit          3D

 25 24  0  0  1  0  0  0  0  0999 V2000
    5.9018  -12.1595   24.5245 C   0  0  0  0  0  0  0  0  0  0  0  0
    6.1024  -12.8418   25.8507 C   0  0  2  0  0  0  0  0  0  0  0  0
    6.5068  -11.8002   26.8696 C   0  0  0  0  0  0  0  0  0  0  0  0
    7.1273  -13.9379   25.8364 C   0  0  0  0  0  0  0  0  0  0  0  0
    6.7521  -15.0681   24.8969 C   0  0  2  0  0  0  0  0  0  0  0  0
    5.5986  -15.7797   25.4224 N   0  0  0  0  0  0  0  0  0  0  0  0
    7.9159  -15.9648   24.7256 C   0  0  0  0  0  0  0  0  0  0  0  0
    7.9920  -17.0488   25.4098 O   0  0  0  0  0  0  0  0  0  0  0  0
    8.9649  -15.6862   23.8320 N   0  0  0  0  0  0  0  0  0  0  0  0
   10.1195  -16.4671   23.5590 C   0  0  1  0  0  0  0  0  0  0  0  0
   10.8402  -16.0871   22.2599 C   0  0  0  0  0  0  0  0  0  0  0  0
   11.9145  -17.0521   21.9340 C   0  0  0  0  0  0  0  0  0  0  0  0
   12.0869  -18.0355   22.7044 O   0  0  0  0  0  0  0  0  0  0  0  0
   11.1785  -16.3577   24.6192 C   0  0  0  0  0  0  0  0  0  0  0  0
   11.8212  -15.2812   24.5940 O   0  0  0  0  0  0  0  0  0  0  0  0
   12.7464  -16.9383   20.8276 O   0  0  0  0  0  0  0  0  0  0  0  0
   12.1616  -14.5938   27.6924 N   0  0  0  0  0  0  0  0  0  0  0  0
   10.8957  -15.0838   28.0819 C   0  0  0  0  0  0  0  0  0  0  0  0
   10.2055  -14.4224   28.8871 O   0  0  0  0  0  0  0  0  0  0  0  0
   10.3918  -16.3575   27.5477 C   0  0  0  0  0  0  0  0  0  0  0  0
   11.5203  -17.1594   26.9611 C   0  0  2  0  0  0  0  0  0  0  0  0
   11.4200  -17.3650   25.5501 N   0  0  0  0  0  0  0  0  0  0  0  0
   11.7091  -18.4135   27.7180 C   0  0  0  0  0  0  0  0  0  0  0  0
   12.7182  -18.4669   28.7263 O   0  0  0  0  0  0  0  0  0  0  0  0
   11.0770  -19.4622   27.5800 O   0  0  0  0  0  0  0  0  0  0  0  0
  2  1  1  6
  2  3  1  0
  4  5  1  0
  4  2  1  0
  5  6  1  1
  5  7  1  0
  7  8  2  0
  9  7  1  0
  9 10  1  0
 10 14  1  0
 10 11  1  6
 12 11  1  0
 13 12  2  0
 14 15  2  0
 16 12  1  0
 17 18  1  0
 18 20  1  0
 19 18  2  0
 21 20  1  1
 21 23  1  0
 22 21  1  0
 22 14  1  0
 23 25  2  0
 23 24  1  0
M  END
$$$$
