LDN.pdb
     RDKit          3D

 25 24  0  0  1  0  0  0  0  0999 V2000
    9.0077  -12.8494   18.7351 C   0  0  0  0  0  0  0  0  0  0  0  0
    7.8525  -13.4147   19.5166 C   0  0  2  0  0  0  0  0  0  0  0  0
    7.1503  -12.2777   20.2243 C   0  0  0  0  0  0  0  0  0  0  0  0
    8.2362  -14.4579   20.5248 C   0  0  0  0  0  0  0  0  0  0  0  0
    8.9744  -15.6248   19.8970 C   0  0  2  0  0  0  0  0  0  0  0  0
    8.1208  -16.2738   18.9155 N   0  0  0  0  0  0  0  0  0  0  0  0
    9.3953  -16.5628   20.9605 C   0  0  0  0  0  0  0  0  0  0  0  0
    8.6093  -17.5118   21.3217 O   0  0  0  0  0  0  0  0  0  0  0  0
   10.6390  -16.4677   21.6092 N   0  0  0  0  0  0  0  0  0  0  0  0
   11.1169  -17.2247   22.7119 C   0  0  1  0  0  0  0  0  0  0  0  0
   12.6214  -17.0764   22.9689 C   0  0  0  0  0  0  0  0  0  0  0  0
   13.4159  -17.8863   22.0181 C   0  0  0  0  0  0  0  0  0  0  0  0
   14.5352  -17.4408   21.6450 O   0  0  0  0  0  0  0  0  0  0  0  0
   10.4761  -16.8475   24.0174 C   0  0  0  0  0  0  0  0  0  0  0  0
   10.7708  -15.6973   24.4208 O   0  0  0  0  0  0  0  0  0  0  0  0
   13.0007  -19.1107   21.5105 O   0  0  0  0  0  0  0  0  0  0  0  0
    6.6318  -18.3711   24.1382 N   0  0  0  0  0  0  0  0  0  0  0  0
    7.0394  -17.2682   24.9203 C   0  0  0  0  0  0  0  0  0  0  0  0
    6.8394  -16.1101   24.4951 O   0  0  0  0  0  0  0  0  0  0  0  0
    7.6917  -17.4763   26.2214 C   0  0  0  0  0  0  0  0  0  0  0  0
    9.1863  -17.4919   26.0583 C   0  0  2  0  0  0  0  0  0  0  0  0
    9.6258  -17.7022   24.7146 N   0  0  0  0  0  0  0  0  0  0  0  0
    9.8001  -18.4273   27.0226 C   0  0  0  0  0  0  0  0  0  0  0  0
    9.5191  -18.2695   28.4131 O   0  0  0  0  0  0  0  0  0  0  0  0
   10.5562  -19.3651   26.7632 O   0  0  0  0  0  0  0  0  0  0  0  0
  2  1  1  1
  2  3  1  0
  4  5  1  0
  4  2  1  0
  5  6  1  6
  5  7  1  0
  7  8  2  0
  9  7  1  0
  9 10  1  0
 10 14  1  0
 10 11  1  1
 12 11  1  0
 13 12  2  0
 14 15  2  0
 16 12  1  0
 17 18  1  0
 18 20  1  0
 19 18  2  0
 21 20  1  6
 21 23  1  0
 22 21  1  0
 22 14  1  0
 23 25  2  0
 23 24  1  0
M  END
$$$$
