LDN.pdb
     RDKit          3D

 25 24  0  0  1  0  0  0  0  0999 V2000
    9.1854  -12.0028   19.7147 C   0  0  0  0  0  0  0  0  0  0  0  0
    8.4763  -13.2936   19.4050 C   0  0  2  0  0  0  0  0  0  0  0  0
    7.0609  -12.9732   18.9803 C   0  0  0  0  0  0  0  0  0  0  0  0
    8.4377  -14.2696   20.5443 C   0  0  0  0  0  0  0  0  0  0  0  0
    9.7965  -14.4560   21.1923 C   0  0  2  0  0  0  0  0  0  0  0  0
   10.7805  -14.7966   20.1780 N   0  0  0  0  0  0  0  0  0  0  0  0
    9.6995  -15.5027   22.2329 C   0  0  0  0  0  0  0  0  0  0  0  0
    8.7159  -15.4923   23.0584 O   0  0  0  0  0  0  0  0  0  0  0  0
   10.6483  -16.5316   22.3666 N   0  0  0  0  0  0  0  0  0  0  0  0
   10.6400  -17.6242   23.2742 C   0  0  1  0  0  0  0  0  0  0  0  0
   11.3146  -18.8915   22.7353 C   0  0  0  0  0  0  0  0  0  0  0  0
   11.2380  -20.0026   23.7105 C   0  0  0  0  0  0  0  0  0  0  0  0
   10.2054  -20.0960   24.4285 O   0  0  0  0  0  0  0  0  0  0  0  0
   11.3597  -17.3366   24.5612 C   0  0  0  0  0  0  0  0  0  0  0  0
   11.8594  -18.3487   25.1075 O   0  0  0  0  0  0  0  0  0  0  0  0
   12.2385  -20.9504   23.8827 O   0  0  0  0  0  0  0  0  0  0  0  0
   10.2401  -13.3933   28.6784 N   0  0  0  0  0  0  0  0  0  0  0  0
    9.9059  -14.6789   28.1990 C   0  0  0  0  0  0  0  0  0  0  0  0
    9.5269  -15.5534   29.0075 O   0  0  0  0  0  0  0  0  0  0  0  0
   10.0011  -14.9887   26.7649 C   0  0  0  0  0  0  0  0  0  0  0  0
   11.2749  -15.7334   26.4761 C   0  0  2  0  0  0  0  0  0  0  0  0
   11.4643  -16.0550   25.0963 N   0  0  0  0  0  0  0  0  0  0  0  0
   11.4006  -16.9044   27.3673 C   0  0  0  0  0  0  0  0  0  0  0  0
   12.4084  -16.8985   28.3783 O   0  0  0  0  0  0  0  0  0  0  0  0
   10.7146  -17.9277   27.3439 O   0  0  0  0  0  0  0  0  0  0  0  0
  2  1  1  1
  2  3  1  0
  4  5  1  0
  4  2  1  0
  5  6  1  6
  5  7  1  0
  7  8  2  0
  9  7  1  0
  9 10  1  0
 10 14  1  0
 10 11  1  6
 12 11  1  0
 13 12  2  0
 14 15  2  0
 16 12  1  0
 17 18  1  0
 18 20  1  0
 19 18  2  0
 21 20  1  6
 21 23  1  0
 22 21  1  0
 22 14  1  0
 23 25  2  0
 23 24  1  0
M  END
$$$$
