LDN.pdb
     RDKit          3D

 25 24  0  0  1  0  0  0  0  0999 V2000
    9.1125  -11.9589   19.1451 C   0  0  0  0  0  0  0  0  0  0  0  0
    8.2427  -13.1711   18.9480 C   0  0  2  0  0  0  0  0  0  0  0  0
    6.8114  -12.7886   19.2507 C   0  0  0  0  0  0  0  0  0  0  0  0
    8.6238  -14.3524   19.7916 C   0  0  0  0  0  0  0  0  0  0  0  0
   10.1206  -14.5978   19.8004 C   0  0  2  0  0  0  0  0  0  0  0  0
   10.5916  -14.8029   18.4406 N   0  0  0  0  0  0  0  0  0  0  0  0
   10.4174  -15.7621   20.6630 C   0  0  0  0  0  0  0  0  0  0  0  0
    9.7607  -15.9320   21.7534 O   0  0  0  0  0  0  0  0  0  0  0  0
   11.4016  -16.7138   20.3430 N   0  0  0  0  0  0  0  0  0  0  0  0
   11.6839  -17.9424   20.9974 C   0  0  1  0  0  0  0  0  0  0  0  0
   12.7187  -18.8137   20.2752 C   0  0  0  0  0  0  0  0  0  0  0  0
   12.2910  -19.1301   18.8937 C   0  0  0  0  0  0  0  0  0  0  0  0
   11.1240  -19.5746   18.7176 O   0  0  0  0  0  0  0  0  0  0  0  0
   12.2436  -17.7672   22.3806 C   0  0  0  0  0  0  0  0  0  0  0  0
   13.2734  -17.0534   22.4314 O   0  0  0  0  0  0  0  0  0  0  0  0
   13.1008  -18.9668   17.7772 O   0  0  0  0  0  0  0  0  0  0  0  0
   11.0250  -15.7448   24.4276 N   0  0  0  0  0  0  0  0  0  0  0  0
   10.5371  -16.4813   25.5293 C   0  0  0  0  0  0  0  0  0  0  0  0
    9.6333  -15.9915   26.2401 O   0  0  0  0  0  0  0  0  0  0  0  0
   11.0838  -17.8104   25.8395 C   0  0  0  0  0  0  0  0  0  0  0  0
   12.1463  -18.1824   24.8428 C   0  0  2  0  0  0  0  0  0  0  0  0
   11.6640  -18.3455   23.5072 N   0  0  0  0  0  0  0  0  0  0  0  0
   12.9218  -19.3431   25.3253 C   0  0  0  0  0  0  0  0  0  0  0  0
   13.6243  -19.2384   26.5635 O   0  0  0  0  0  0  0  0  0  0  0  0
   13.0420  -20.4351   24.7671 O   0  0  0  0  0  0  0  0  0  0  0  0
  2  1  1  1
  2  3  1  0
  4  5  1  0
  4  2  1  0
  5  6  1  6
  5  7  1  0
  7  8  2  0
  9  7  1  0
  9 10  1  0
 10 14  1  0
 10 11  1  6
 12 11  1  0
 13 12  2  0
 14 15  2  0
 16 12  1  0
 17 18  1  0
 18 20  1  0
 19 18  2  0
 21 20  1  1
 21 23  1  0
 22 21  1  0
 22 14  1  0
 23 25  2  0
 23 24  1  0
M  END
$$$$
