LDN.pdb
     RDKit          3D

 25 24  0  0  1  0  0  0  0  0999 V2000
    6.8173  -11.9582   24.8799 C   0  0  0  0  0  0  0  0  0  0  0  0
    6.3916  -12.8513   26.0139 C   0  0  2  0  0  0  0  0  0  0  0  0
    6.5968  -12.1065   27.3138 C   0  0  0  0  0  0  0  0  0  0  0  0
    7.1199  -14.1618   26.0791 C   0  0  0  0  0  0  0  0  0  0  0  0
    6.9491  -14.9817   24.8144 C   0  0  2  0  0  0  0  0  0  0  0  0
    5.5967  -15.5111   24.7525 N   0  0  0  0  0  0  0  0  0  0  0  0
    7.9599  -16.0614   24.7946 C   0  0  0  0  0  0  0  0  0  0  0  0
    7.7088  -17.1809   25.3713 O   0  0  0  0  0  0  0  0  0  0  0  0
    9.2078  -15.9227   24.1619 N   0  0  0  0  0  0  0  0  0  0  0  0
   10.2741  -16.8591   24.1035 C   0  0  1  0  0  0  0  0  0  0  0  0
   11.4458  -16.4201   23.2169 C   0  0  0  0  0  0  0  0  0  0  0  0
   12.4182  -17.5188   23.0207 C   0  0  0  0  0  0  0  0  0  0  0  0
   13.4009  -17.3165   22.2566 O   0  0  0  0  0  0  0  0  0  0  0  0
   10.9006  -17.1346   25.4409 C   0  0  0  0  0  0  0  0  0  0  0  0
   12.0604  -16.6752   25.5692 O   0  0  0  0  0  0  0  0  0  0  0  0
   12.3121  -18.7629   23.6291 O   0  0  0  0  0  0  0  0  0  0  0  0
   10.4225  -21.9746   28.3006 N   0  0  0  0  0  0  0  0  0  0  0  0
   11.3074  -21.2711   27.4542 C   0  0  0  0  0  0  0  0  0  0  0  0
   12.5275  -21.5406   27.4860 O   0  0  0  0  0  0  0  0  0  0  0  0
   10.8025  -20.2328   26.5440 C   0  0  0  0  0  0  0  0  0  0  0  0
   10.8316  -18.8894   27.2186 C   0  0  2  0  0  0  0  0  0  0  0  0
   10.2457  -17.8363   26.4500 N   0  0  0  0  0  0  0  0  0  0  0  0
   12.1976  -18.5765   27.6849 C   0  0  0  0  0  0  0  0  0  0  0  0
   13.2666  -18.5714   26.7390 O   0  0  0  0  0  0  0  0  0  0  0  0
   12.5417  -18.3087   28.8375 O   0  0  0  0  0  0  0  0  0  0  0  0
  2  1  1  6
  2  3  1  0
  4  5  1  0
  4  2  1  0
  5  6  1  1
  5  7  1  0
  7  8  2  0
  9  7  1  0
  9 10  1  0
 10 14  1  0
 10 11  1  6
 12 11  1  0
 13 12  2  0
 14 15  2  0
 16 12  1  0
 17 18  1  0
 18 20  1  0
 19 18  2  0
 21 20  1  6
 21 23  1  0
 22 21  1  0
 22 14  1  0
 23 25  2  0
 23 24  1  0
M  END
$$$$
