LDN.pdb
     RDKit          3D

 25 24  0  0  1  0  0  0  0  0999 V2000
    9.0568  -12.5195   18.0961 C   0  0  0  0  0  0  0  0  0  0  0  0
    7.8613  -13.3807   18.4026 C   0  0  2  0  0  0  0  0  0  0  0  0
    7.1545  -12.8076   19.6103 C   0  0  0  0  0  0  0  0  0  0  0  0
    8.1852  -14.8229   18.6623 C   0  0  0  0  0  0  0  0  0  0  0  0
    8.9283  -15.4657   17.5067 C   0  0  2  0  0  0  0  0  0  0  0  0
    8.1297  -15.3690   16.2960 N   0  0  0  0  0  0  0  0  0  0  0  0
    9.2353  -16.8718   17.8480 C   0  0  0  0  0  0  0  0  0  0  0  0
    8.5792  -17.8223   17.2865 O   0  0  0  0  0  0  0  0  0  0  0  0
   10.2307  -17.2292   18.7743 N   0  0  0  0  0  0  0  0  0  0  0  0
   11.2984  -18.1509   18.6074 C   0  0  1  0  0  0  0  0  0  0  0  0
   12.1879  -17.8660   17.3912 C   0  0  0  0  0  0  0  0  0  0  0  0
   11.6753  -18.5377   16.1757 C   0  0  0  0  0  0  0  0  0  0  0  0
   11.1296  -19.6673   16.3036 O   0  0  0  0  0  0  0  0  0  0  0  0
   12.2511  -18.1775   19.7688 C   0  0  0  0  0  0  0  0  0  0  0  0
   13.2098  -18.9737   19.6285 O   0  0  0  0  0  0  0  0  0  0  0  0
   11.7604  -17.9966   14.8993 O   0  0  0  0  0  0  0  0  0  0  0  0
   13.0210  -14.5144   20.6285 N   0  0  0  0  0  0  0  0  0  0  0  0
   12.4029  -14.9400   21.8247 C   0  0  0  0  0  0  0  0  0  0  0  0
   11.3078  -14.4388   22.1588 O   0  0  0  0  0  0  0  0  0  0  0  0
   13.0375  -15.9619   22.6701 C   0  0  0  0  0  0  0  0  0  0  0  0
   13.0180  -17.2964   21.9778 C   0  0  2  0  0  0  0  0  0  0  0  0
   12.0833  -17.3825   20.8998 N   0  0  0  0  0  0  0  0  0  0  0  0
   12.8687  -18.3861   22.9635 C   0  0  0  0  0  0  0  0  0  0  0  0
   13.8948  -18.5838   23.9359 O   0  0  0  0  0  0  0  0  0  0  0  0
   11.9288  -19.1780   23.0527 O   0  0  0  0  0  0  0  0  0  0  0  0
  2  1  1  1
  2  3  1  0
  4  5  1  0
  4  2  1  0
  5  6  1  6
  5  7  1  0
  7  8  2  0
  9  7  1  0
  9 10  1  0
 10 14  1  0
 10 11  1  6
 12 11  1  0
 13 12  2  0
 14 15  2  0
 16 12  1  0
 17 18  1  0
 18 20  1  0
 19 18  2  0
 21 20  1  1
 21 23  1  0
 22 21  1  0
 22 14  1  0
 23 25  2  0
 23 24  1  0
M  END
$$$$
