PMW.pdb
     RDKit          3D

 30 32  0  0  1  0  0  0  0  0999 V2000
   27.6934  -23.1458  -19.1414 N   0  0  0  0  0  0  0  0  0  0  0  0
   28.1269  -24.0403  -20.2045 C   0  0  0  0  0  0  0  0  0  0  0  0
   29.6415  -23.8356  -20.1172 C   0  0  0  0  0  0  0  0  0  0  0  0
   29.9060  -23.5041  -18.6626 C   0  0  0  0  0  0  0  0  0  0  0  0
   28.5472  -23.5888  -18.0553 C   0  0  1  0  0  0  0  0  0  0  0  0
   28.3697  -22.7930  -16.8341 C   0  0  0  0  0  0  0  0  0  0  0  0
   28.8752  -23.1132  -15.7333 O   0  0  0  0  0  0  0  0  0  0  0  0
   28.5130  -18.0006  -12.3781 C   0  0  0  0  0  0  0  0  0  0  0  0
   28.9745  -18.1801  -14.1199 S   0  0  0  0  0  0  0  0  0  0  0  0
   27.4055  -18.3254  -15.0654 C   0  0  0  0  0  0  0  0  0  0  0  0
   27.6390  -19.3533  -16.1134 C   0  0  0  0  0  0  0  0  0  0  0  0
   27.4791  -20.7808  -15.6705 C   0  0  2  0  0  0  0  0  0  0  0  0
   27.6064  -21.6018  -16.8309 N   0  0  0  0  0  0  0  0  0  0  0  0
   26.2713  -21.0351  -14.8729 C   0  0  0  0  0  0  0  0  0  0  0  0
   25.1435  -20.9868  -15.4259 O   0  0  0  0  0  0  0  0  0  0  0  0
   26.2639  -21.3414  -13.4850 N   0  0  0  0  0  0  0  0  0  0  0  0
   25.0323  -21.6354  -12.7421 C   0  0  1  0  0  0  0  0  0  0  0  0
   25.3623  -22.2754  -11.4291 C   0  0  0  0  0  0  0  0  0  0  0  0
   25.6825  -21.3086  -10.3768 C   0  0  0  0  0  0  0  0  0  0  0  0
   24.7779  -20.4043   -9.7953 C   0  0  0  0  0  0  0  0  0  0  0  0
   25.4203  -19.6422   -8.8971 N   0  0  0  0  0  0  0  0  0  0  0  0
   26.7133  -19.9957   -8.8500 C   0  0  0  0  0  0  0  0  0  0  0  0
   27.7941  -19.5566   -8.0986 C   0  0  0  0  0  0  0  0  0  0  0  0
   29.0283  -20.1235   -8.2391 C   0  0  0  0  0  0  0  0  0  0  0  0
   29.2080  -21.1556   -9.1474 C   0  0  0  0  0  0  0  0  0  0  0  0
   28.1384  -21.5718   -9.8755 C   0  0  0  0  0  0  0  0  0  0  0  0
   26.8844  -21.0334   -9.7689 C   0  0  0  0  0  0  0  0  0  0  0  0
   24.1572  -20.4753  -12.6408 C   0  0  0  0  0  0  0  0  0  0  0  0
   22.7579  -20.6249  -12.5537 O   0  0  0  0  0  0  0  0  0  0  0  0
   24.5648  -19.2930  -12.6236 O   0  0  0  0  0  0  0  0  0  0  0  0
  1  2  1  0
  3  2  1  0
  4  3  1  0
  5  6  1  1
  5  4  1  0
  5  1  1  0
  6  7  2  0
  9  8  1  0
 10 11  1  0
 10  9  1  0
 12 11  1  6
 12 14  1  0
 13 12  1  0
 13  6  1  0
 14 15  2  0
 14 16  1  0
 16 17  1  0
 17 28  1  0
 17 18  1  1
 19 18  1  0
 20 19  2  0
 21 20  1  0
 22 21  1  0
 22 27  2  0
 23 22  1  0
 24 23  2  0
 24 25  1  0
 25 26  2  0
 26 27  1  0
 27 19  1  0
 28 30  2  0
 28 29  1  0
M  END
$$$$
