PMW.pdb
     RDKit          3D

 30 32  0  0  1  0  0  0  0  0999 V2000
   27.5204  -20.4555  -16.3057 N   0  0  0  0  0  0  0  0  0  0  0  0
   28.8829  -20.0657  -15.9744 C   0  0  0  0  0  0  0  0  0  0  0  0
   28.8253  -18.5795  -16.3369 C   0  0  0  0  0  0  0  0  0  0  0  0
   27.3840  -18.1769  -16.0997 C   0  0  0  0  0  0  0  0  0  0  0  0
   26.7710  -19.4378  -15.5932 C   0  0  1  0  0  0  0  0  0  0  0  0
   25.3225  -19.5460  -15.8081 C   0  0  0  0  0  0  0  0  0  0  0  0
   24.4967  -18.7590  -15.2899 O   0  0  0  0  0  0  0  0  0  0  0  0
   22.2857  -22.4626  -20.5736 C   0  0  0  0  0  0  0  0  0  0  0  0
   23.1724  -20.9258  -20.9358 S   0  0  0  0  0  0  0  0  0  0  0  0
   23.5228  -20.1290  -19.3174 C   0  0  0  0  0  0  0  0  0  0  0  0
   23.1772  -21.1281  -18.2725 C   0  0  0  0  0  0  0  0  0  0  0  0
   23.3644  -20.6739  -16.8519 C   0  0  2  0  0  0  0  0  0  0  0  0
   24.7687  -20.5601  -16.6245 N   0  0  0  0  0  0  0  0  0  0  0  0
   22.6495  -21.4864  -15.8577 C   0  0  0  0  0  0  0  0  0  0  0  0
   22.8709  -22.7222  -15.7943 O   0  0  0  0  0  0  0  0  0  0  0  0
   21.6979  -20.9829  -14.9298 N   0  0  0  0  0  0  0  0  0  0  0  0
   20.9613  -21.8464  -13.9987 C   0  0  1  0  0  0  0  0  0  0  0  0
   21.9168  -22.6844  -13.2067 C   0  0  0  0  0  0  0  0  0  0  0  0
   22.6462  -21.9263  -12.1879 C   0  0  0  0  0  0  0  0  0  0  0  0
   22.0671  -21.0708  -11.2355 C   0  0  0  0  0  0  0  0  0  0  0  0
   23.0320  -20.5105  -10.4903 N   0  0  0  0  0  0  0  0  0  0  0  0
   24.2304  -20.9525  -10.8996 C   0  0  0  0  0  0  0  0  0  0  0  0
   25.5295  -20.7154  -10.4736 C   0  0  0  0  0  0  0  0  0  0  0  0
   26.5915  -21.3329  -11.0695 C   0  0  0  0  0  0  0  0  0  0  0  0
   26.3714  -22.2123  -12.1187 C   0  0  0  0  0  0  0  0  0  0  0  0
   25.0925  -22.4314  -12.5233 C   0  0  0  0  0  0  0  0  0  0  0  0
   23.9982  -21.8351  -11.9569 C   0  0  0  0  0  0  0  0  0  0  0  0
   20.0058  -21.1007  -13.1909 C   0  0  0  0  0  0  0  0  0  0  0  0
   19.9718  -19.6914  -13.2201 O   0  0  0  0  0  0  0  0  0  0  0  0
   19.1670  -21.6342  -12.4319 O   0  0  0  0  0  0  0  0  0  0  0  0
  1  2  1  0
  3  2  1  0
  4  3  1  0
  5  6  1  6
  5  4  1  0
  5  1  1  0
  6  7  2  0
  9  8  1  0
 10 11  1  0
 10  9  1  0
 12 11  1  6
 12 14  1  0
 13 12  1  0
 13  6  1  0
 14 15  2  0
 14 16  1  0
 16 17  1  0
 17 28  1  0
 17 18  1  1
 19 18  1  0
 20 19  2  0
 21 20  1  0
 22 21  1  0
 22 27  2  0
 23 22  1  0
 24 23  2  0
 24 25  1  0
 25 26  2  0
 26 27  1  0
 27 19  1  0
 28 30  2  0
 28 29  1  0
M  END
$$$$
