PMW.pdb
     RDKit          3D

 30 32  0  0  1  0  0  0  0  0999 V2000
   31.0168  -20.7150  -10.0960 N   0  0  0  0  0  0  0  0  0  0  0  0
   32.3267  -21.1136  -10.5894 C   0  0  0  0  0  0  0  0  0  0  0  0
   32.5575  -22.3646   -9.7376 C   0  0  0  0  0  0  0  0  0  0  0  0
   31.1711  -22.9148   -9.4710 C   0  0  0  0  0  0  0  0  0  0  0  0
   30.2941  -21.9673  -10.2162 C   0  0  1  0  0  0  0  0  0  0  0  0
   28.9180  -21.8781   -9.7117 C   0  0  0  0  0  0  0  0  0  0  0  0
   28.1205  -22.8442   -9.7346 O   0  0  0  0  0  0  0  0  0  0  0  0
   28.7261  -19.9051   -3.5052 C   0  0  0  0  0  0  0  0  0  0  0  0
   27.8027  -19.1689   -4.8780 S   0  0  0  0  0  0  0  0  0  0  0  0
   27.9439  -20.3362   -6.2902 C   0  0  0  0  0  0  0  0  0  0  0  0
   27.1397  -19.7564   -7.3977 C   0  0  0  0  0  0  0  0  0  0  0  0
   27.0770  -20.5785   -8.6546 C   0  0  2  0  0  0  0  0  0  0  0  0
   28.4067  -20.6785   -9.1629 N   0  0  0  0  0  0  0  0  0  0  0  0
   26.0835  -20.1136   -9.6327 C   0  0  0  0  0  0  0  0  0  0  0  0
   26.1527  -18.9384  -10.0735 O   0  0  0  0  0  0  0  0  0  0  0  0
   25.0152  -20.9005  -10.1422 N   0  0  0  0  0  0  0  0  0  0  0  0
   24.0604  -20.3964  -11.1369 C   0  0  1  0  0  0  0  0  0  0  0  0
   24.4142  -20.9103  -12.4982 C   0  0  0  0  0  0  0  0  0  0  0  0
   23.5454  -20.3928  -13.5574 C   0  0  0  0  0  0  0  0  0  0  0  0
   23.5709  -19.0842  -14.0686 C   0  0  0  0  0  0  0  0  0  0  0  0
   22.6123  -18.9467  -14.9972 N   0  0  0  0  0  0  0  0  0  0  0  0
   21.9469  -20.1035  -15.1317 C   0  0  0  0  0  0  0  0  0  0  0  0
   20.8997  -20.5110  -15.9460 C   0  0  0  0  0  0  0  0  0  0  0  0
   20.4194  -21.7880  -15.8920 C   0  0  0  0  0  0  0  0  0  0  0  0
   20.9854  -22.6953  -15.0095 C   0  0  0  0  0  0  0  0  0  0  0  0
   22.0094  -22.2783  -14.2190 C   0  0  0  0  0  0  0  0  0  0  0  0
   22.5226  -21.0094  -14.2381 C   0  0  0  0  0  0  0  0  0  0  0  0
   22.6775  -20.6349  -10.7465 C   0  0  0  0  0  0  0  0  0  0  0  0
   21.6360  -19.8084  -11.2161 O   0  0  0  0  0  0  0  0  0  0  0  0
   22.3161  -21.5617   -9.9883 O   0  0  0  0  0  0  0  0  0  0  0  0
  1  2  1  0
  3  2  1  0
  4  3  1  0
  5  6  1  1
  5  4  1  0
  5  1  1  0
  6  7  2  0
  9  8  1  0
 10 11  1  0
 10  9  1  0
 12 11  1  1
 12 14  1  0
 13 12  1  0
 13  6  1  0
 14 15  2  0
 14 16  1  0
 16 17  1  0
 17 28  1  0
 17 18  1  6
 19 18  1  0
 20 19  2  0
 21 20  1  0
 22 21  1  0
 22 27  2  0
 23 22  1  0
 24 23  2  0
 24 25  1  0
 25 26  2  0
 26 27  1  0
 27 19  1  0
 28 30  2  0
 28 29  1  0
M  END
$$$$
