PMW.pdb
     RDKit          3D

 30 32  0  0  1  0  0  0  0  0999 V2000
   30.9554  -20.5297  -10.5427 N   0  0  0  0  0  0  0  0  0  0  0  0
   32.1417  -20.8532  -11.3212 C   0  0  0  0  0  0  0  0  0  0  0  0
   32.4780  -22.2239  -10.7282 C   0  0  0  0  0  0  0  0  0  0  0  0
   31.1435  -22.8012  -10.3020 C   0  0  0  0  0  0  0  0  0  0  0  0
   30.1804  -21.7433  -10.7208 C   0  0  1  0  0  0  0  0  0  0  0  0
   28.9204  -21.7267   -9.9671 C   0  0  0  0  0  0  0  0  0  0  0  0
   28.1145  -22.6861   -9.9670 O   0  0  0  0  0  0  0  0  0  0  0  0
   26.2444  -19.4398   -3.1960 C   0  0  0  0  0  0  0  0  0  0  0  0
   27.4628  -19.2732   -4.5253 S   0  0  0  0  0  0  0  0  0  0  0  0
   26.6538  -19.8858   -6.0573 C   0  0  0  0  0  0  0  0  0  0  0  0
   27.6850  -19.8361   -7.1267 C   0  0  0  0  0  0  0  0  0  0  0  0
   27.3661  -20.6130   -8.3734 C   0  0  2  0  0  0  0  0  0  0  0  0
   28.5388  -20.6100   -9.1867 N   0  0  0  0  0  0  0  0  0  0  0  0
   26.1445  -20.1754   -9.0632 C   0  0  0  0  0  0  0  0  0  0  0  0
   25.9456  -18.9483   -9.2499 O   0  0  0  0  0  0  0  0  0  0  0  0
   25.1334  -21.0449   -9.5548 N   0  0  0  0  0  0  0  0  0  0  0  0
   24.0905  -20.6037  -10.4891 C   0  0  1  0  0  0  0  0  0  0  0  0
   24.3808  -21.1165  -11.8658 C   0  0  0  0  0  0  0  0  0  0  0  0
   25.1255  -20.1655  -12.6939 C   0  0  0  0  0  0  0  0  0  0  0  0
   24.6226  -18.9558  -13.2018 C   0  0  0  0  0  0  0  0  0  0  0  0
   25.5619  -18.3590  -13.9512 N   0  0  0  0  0  0  0  0  0  0  0  0
   26.6709  -19.1132  -13.9674 C   0  0  0  0  0  0  0  0  0  0  0  0
   27.9178  -18.9613  -14.5572 C   0  0  0  0  0  0  0  0  0  0  0  0
   28.8980  -19.8963  -14.3863 C   0  0  0  0  0  0  0  0  0  0  0  0
   28.6463  -21.0180  -13.6110 C   0  0  0  0  0  0  0  0  0  0  0  0
   27.4190  -21.1506  -13.0421 C   0  0  0  0  0  0  0  0  0  0  0  0
   26.4068  -20.2404  -13.1861 C   0  0  0  0  0  0  0  0  0  0  0  0
   22.7504  -20.9079  -10.0060 C   0  0  0  0  0  0  0  0  0  0  0  0
   22.5482  -21.4789   -8.7327 O   0  0  0  0  0  0  0  0  0  0  0  0
   21.7068  -20.6937  -10.6613 O   0  0  0  0  0  0  0  0  0  0  0  0
  1  2  1  0
  3  2  1  0
  4  3  1  0
  5  6  1  1
  5  4  1  0
  5  1  1  0
  6  7  2  0
  9  8  1  0
 10 11  1  0
 10  9  1  0
 12 11  1  1
 12 14  1  0
 13 12  1  0
 13  6  1  0
 14 15  2  0
 14 16  1  0
 16 17  1  0
 17 28  1  0
 17 18  1  6
 19 18  1  0
 20 19  2  0
 21 20  1  0
 22 21  1  0
 22 27  2  0
 23 22  1  0
 24 23  2  0
 24 25  1  0
 25 26  2  0
 26 27  1  0
 27 19  1  0
 28 30  2  0
 28 29  1  0
M  END
$$$$
