PMW.pdb
     RDKit          3D

 30 32  0  0  1  0  0  0  0  0999 V2000
   23.5971  -16.0997  -14.8283 N   0  0  0  0  0  0  0  0  0  0  0  0
   23.6706  -14.7762  -15.4292 C   0  0  0  0  0  0  0  0  0  0  0  0
   25.1035  -14.3951  -15.0482 C   0  0  0  0  0  0  0  0  0  0  0  0
   25.8509  -15.7114  -14.9798 C   0  0  0  0  0  0  0  0  0  0  0  0
   24.8045  -16.7022  -15.3615 C   0  0  1  0  0  0  0  0  0  0  0  0
   25.0314  -18.0613  -14.8541 C   0  0  0  0  0  0  0  0  0  0  0  0
   24.1626  -18.9624  -14.9092 O   0  0  0  0  0  0  0  0  0  0  0  0
   30.6130  -20.6969  -14.0422 C   0  0  0  0  0  0  0  0  0  0  0  0
   29.5722  -22.1768  -13.9667 S   0  0  0  0  0  0  0  0  0  0  0  0
   27.9350  -21.6343  -13.3328 C   0  0  0  0  0  0  0  0  0  0  0  0
   27.6653  -20.3068  -13.9448 C   0  0  0  0  0  0  0  0  0  0  0  0
   26.4052  -19.6253  -13.4896 C   0  0  2  0  0  0  0  0  0  0  0  0
   26.2620  -18.4361  -14.2654 N   0  0  0  0  0  0  0  0  0  0  0  0
   26.3194  -19.4199  -12.0369 C   0  0  0  0  0  0  0  0  0  0  0  0
   27.2045  -18.7434  -11.4547 O   0  0  0  0  0  0  0  0  0  0  0  0
   25.2901  -19.9351  -11.2030 N   0  0  0  0  0  0  0  0  0  0  0  0
   25.5596  -20.5686   -9.9064 C   0  0  1  0  0  0  0  0  0  0  0  0
   26.5173  -19.7338   -9.1136 C   0  0  0  0  0  0  0  0  0  0  0  0
   26.7882  -20.2718   -7.7788 C   0  0  0  0  0  0  0  0  0  0  0  0
   26.2730  -21.4725   -7.2618 C   0  0  0  0  0  0  0  0  0  0  0  0
   26.6932  -21.6334   -5.9978 N   0  0  0  0  0  0  0  0  0  0  0  0
   27.4669  -20.5960   -5.6453 C   0  0  0  0  0  0  0  0  0  0  0  0
   28.1599  -20.2748   -4.4868 C   0  0  0  0  0  0  0  0  0  0  0  0
   28.9093  -19.1364   -4.4053 C   0  0  0  0  0  0  0  0  0  0  0  0
   28.9808  -18.2845   -5.4970 C   0  0  0  0  0  0  0  0  0  0  0  0
   28.2945  -18.6145   -6.6228 C   0  0  0  0  0  0  0  0  0  0  0  0
   27.5309  -19.7435   -6.7498 C   0  0  0  0  0  0  0  0  0  0  0  0
   24.3365  -20.9163   -9.1959 C   0  0  0  0  0  0  0  0  0  0  0  0
   23.1293  -21.1369   -9.8902 O   0  0  0  0  0  0  0  0  0  0  0  0
   24.2628  -21.0424   -7.9537 O   0  0  0  0  0  0  0  0  0  0  0  0
  1  2  1  0
  3  2  1  0
  4  3  1  0
  5  6  1  1
  5  4  1  0
  5  1  1  0
  6  7  2  0
  9  8  1  0
 10 11  1  0
 10  9  1  0
 12 11  1  1
 12 14  1  0
 13 12  1  0
 13  6  1  0
 14 15  2  0
 14 16  1  0
 16 17  1  0
 17 28  1  0
 17 18  1  1
 19 18  1  0
 20 19  2  0
 21 20  1  0
 22 21  1  0
 22 27  2  0
 23 22  1  0
 24 23  2  0
 24 25  1  0
 25 26  2  0
 26 27  1  0
 27 19  1  0
 28 30  2  0
 28 29  1  0
M  END
$$$$
