PMW.pdb
     RDKit          3D

 30 32  0  0  1  0  0  0  0  0999 V2000
   19.4617  -13.8865  -17.1409 N   0  0  0  0  0  0  0  0  0  0  0  0
   19.8515  -15.2622  -17.4122 C   0  0  0  0  0  0  0  0  0  0  0  0
   20.3958  -15.1043  -18.8344 C   0  0  0  0  0  0  0  0  0  0  0  0
   20.9264  -13.6862  -18.8924 C   0  0  0  0  0  0  0  0  0  0  0  0
   20.6779  -13.1869  -17.5100 C   0  0  1  0  0  0  0  0  0  0  0  0
   20.5491  -11.7285  -17.3977 C   0  0  0  0  0  0  0  0  0  0  0  0
   21.5334  -10.9675  -17.2495 O   0  0  0  0  0  0  0  0  0  0  0  0
   14.8795   -8.8072  -18.4235 C   0  0  0  0  0  0  0  0  0  0  0  0
   16.0715   -7.6625  -19.1637 S   0  0  0  0  0  0  0  0  0  0  0  0
   17.6294   -7.8356  -18.2046 C   0  0  0  0  0  0  0  0  0  0  0  0
   17.9425   -9.2882  -18.1685 C   0  0  0  0  0  0  0  0  0  0  0  0
   19.1451   -9.6736  -17.3533 C   0  0  2  0  0  0  0  0  0  0  0  0
   19.2877  -11.0902  -17.4511 N   0  0  0  0  0  0  0  0  0  0  0  0
   19.1354   -9.1550  -15.9783 C   0  0  0  0  0  0  0  0  0  0  0  0
   18.4087   -9.7076  -15.1141 O   0  0  0  0  0  0  0  0  0  0  0  0
   19.9002   -8.0472  -15.5224 N   0  0  0  0  0  0  0  0  0  0  0  0
   19.8256   -7.5418  -14.1462 C   0  0  1  0  0  0  0  0  0  0  0  0
   21.1823   -7.5682  -13.5127 C   0  0  0  0  0  0  0  0  0  0  0  0
   22.1109   -6.5937  -14.0896 C   0  0  0  0  0  0  0  0  0  0  0  0
   22.0953   -5.2093  -13.8500 C   0  0  0  0  0  0  0  0  0  0  0  0
   23.0588   -4.6181  -14.5728 N   0  0  0  0  0  0  0  0  0  0  0  0
   23.7192   -5.5435  -15.2845 C   0  0  0  0  0  0  0  0  0  0  0  0
   24.7926   -5.4835  -16.1618 C   0  0  0  0  0  0  0  0  0  0  0  0
   25.2929   -6.6129  -16.7434 C   0  0  0  0  0  0  0  0  0  0  0  0
   24.7205   -7.8424  -16.4547 C   0  0  0  0  0  0  0  0  0  0  0  0
   23.6692   -7.8820  -15.5941 C   0  0  0  0  0  0  0  0  0  0  0  0
   23.1345   -6.7769  -14.9886 C   0  0  0  0  0  0  0  0  0  0  0  0
   19.1512   -6.2532  -14.0659 C   0  0  0  0  0  0  0  0  0  0  0  0
   18.6479   -5.7704  -12.8405 O   0  0  0  0  0  0  0  0  0  0  0  0
   18.9711   -5.4975  -15.0462 O   0  0  0  0  0  0  0  0  0  0  0  0
  1  2  1  0
  3  2  1  0
  4  3  1  0
  5  6  1  6
  5  4  1  0
  5  1  1  0
  6  7  2  0
  9  8  1  0
 10 11  1  0
 10  9  1  0
 12 11  1  1
 12 14  1  0
 13 12  1  0
 13  6  1  0
 14 15  2  0
 14 16  1  0
 16 17  1  0
 17 28  1  0
 17 18  1  6
 19 18  1  0
 20 19  2  0
 21 20  1  0
 22 21  1  0
 22 27  2  0
 23 22  1  0
 24 23  2  0
 24 25  1  0
 25 26  2  0
 26 27  1  0
 27 19  1  0
 28 30  2  0
 28 29  1  0
M  END
$$$$
