PMW.pdb
     RDKit          3D

 30 32  0  0  1  0  0  0  0  0999 V2000
   31.8581  -22.9026  -13.2136 N   0  0  0  0  0  0  0  0  0  0  0  0
   33.0870  -23.6773  -13.3017 C   0  0  0  0  0  0  0  0  0  0  0  0
   34.0213  -22.7795  -12.4864 C   0  0  0  0  0  0  0  0  0  0  0  0
   33.1203  -22.0922  -11.4805 C   0  0  0  0  0  0  0  0  0  0  0  0
   31.7844  -22.6812  -11.7816 C   0  0  1  0  0  0  0  0  0  0  0  0
   30.6424  -21.8427  -11.3958 C   0  0  0  0  0  0  0  0  0  0  0  0
   30.4367  -21.4734  -10.2163 O   0  0  0  0  0  0  0  0  0  0  0  0
   27.3014  -19.9778  -16.1403 C   0  0  0  0  0  0  0  0  0  0  0  0
   28.1421  -18.5066  -15.5014 S   0  0  0  0  0  0  0  0  0  0  0  0
   28.9834  -19.0164  -13.9492 C   0  0  0  0  0  0  0  0  0  0  0  0
   28.0624  -19.9585  -13.2609 C   0  0  0  0  0  0  0  0  0  0  0  0
   28.5878  -20.5707  -11.9926 C   0  0  2  0  0  0  0  0  0  0  0  0
   29.6954  -21.3976  -12.3479 N   0  0  0  0  0  0  0  0  0  0  0  0
   27.5658  -21.2386  -11.1746 C   0  0  0  0  0  0  0  0  0  0  0  0
   27.7154  -22.4474  -10.8636 O   0  0  0  0  0  0  0  0  0  0  0  0
   26.3833  -20.6191  -10.6868 N   0  0  0  0  0  0  0  0  0  0  0  0
   25.5553  -21.2090   -9.6277 C   0  0  1  0  0  0  0  0  0  0  0  0
   26.3988  -21.5319   -8.4333 C   0  0  0  0  0  0  0  0  0  0  0  0
   26.7107  -20.3616   -7.6099 C   0  0  0  0  0  0  0  0  0  0  0  0
   26.3828  -19.0317   -7.9229 C   0  0  0  0  0  0  0  0  0  0  0  0
   26.8572  -18.2163   -6.9688 N   0  0  0  0  0  0  0  0  0  0  0  0
   27.4868  -18.9396   -6.0310 C   0  0  0  0  0  0  0  0  0  0  0  0
   28.1275  -18.6106   -4.8449 C   0  0  0  0  0  0  0  0  0  0  0  0
   28.6758  -19.5743   -4.0481 C   0  0  0  0  0  0  0  0  0  0  0  0
   28.5929  -20.9052   -4.4279 C   0  0  0  0  0  0  0  0  0  0  0  0
   27.9627  -21.2087   -5.5933 C   0  0  0  0  0  0  0  0  0  0  0  0
   27.3995  -20.2772   -6.4233 C   0  0  0  0  0  0  0  0  0  0  0  0
   24.3793  -20.4023   -9.3311 C   0  0  0  0  0  0  0  0  0  0  0  0
   24.1816  -19.1499   -9.9480 O   0  0  0  0  0  0  0  0  0  0  0  0
   23.4809  -20.7457   -8.5314 O   0  0  0  0  0  0  0  0  0  0  0  0
  1  2  1  0
  3  2  1  0
  4  3  1  0
  5  6  1  6
  5  4  1  0
  5  1  1  0
  6  7  2  0
  9  8  1  0
 10 11  1  0
 10  9  1  0
 12 11  1  6
 12 14  1  0
 13 12  1  0
 13  6  1  0
 14 15  2  0
 14 16  1  0
 16 17  1  0
 17 28  1  0
 17 18  1  1
 19 18  1  0
 20 19  2  0
 21 20  1  0
 22 21  1  0
 22 27  2  0
 23 22  1  0
 24 23  2  0
 24 25  1  0
 25 26  2  0
 26 27  1  0
 27 19  1  0
 28 30  2  0
 28 29  1  0
M  END
$$$$
