PMW.pdb
     RDKit          3D

 30 32  0  0  1  0  0  0  0  0999 V2000
   15.5557  -23.4962   -0.0928 N   0  0  0  0  0  0  0  0  0  0  0  0
   14.9584  -23.8282   -1.3777 C   0  0  0  0  0  0  0  0  0  0  0  0
   13.4755  -23.7479   -1.0055 C   0  0  0  0  0  0  0  0  0  0  0  0
   13.4086  -22.7190    0.1049 C   0  0  0  0  0  0  0  0  0  0  0  0
   14.8285  -22.2841    0.2343 C   0  0  1  0  0  0  0  0  0  0  0  0
   15.1882  -21.7455    1.5521 C   0  0  0  0  0  0  0  0  0  0  0  0
   14.7903  -20.6310    1.9638 O   0  0  0  0  0  0  0  0  0  0  0  0
   19.6968  -24.6091    5.3542 C   0  0  0  0  0  0  0  0  0  0  0  0
   18.3419  -24.2484    6.5003 S   0  0  0  0  0  0  0  0  0  0  0  0
   17.4963  -22.7491    5.8568 C   0  0  0  0  0  0  0  0  0  0  0  0
   17.0694  -23.0692    4.4695 C   0  0  0  0  0  0  0  0  0  0  0  0
   16.3626  -21.9639    3.7358 C   0  0  2  0  0  0  0  0  0  0  0  0
   16.0168  -22.4649    2.4451 N   0  0  0  0  0  0  0  0  0  0  0  0
   17.0898  -20.6869    3.7197 C   0  0  0  0  0  0  0  0  0  0  0  0
   17.8841  -20.4395    2.7773 O   0  0  0  0  0  0  0  0  0  0  0  0
   16.9712  -19.6721    4.7076 N   0  0  0  0  0  0  0  0  0  0  0  0
   17.5765  -18.3429    4.5589 C   0  0  1  0  0  0  0  0  0  0  0  0
   17.1391  -17.7183    3.2700 C   0  0  0  0  0  0  0  0  0  0  0  0
   17.7006  -16.3833    3.0526 C   0  0  0  0  0  0  0  0  0  0  0  0
   17.0787  -15.1701    3.3926 C   0  0  0  0  0  0  0  0  0  0  0  0
   17.8570  -14.1453    3.0131 N   0  0  0  0  0  0  0  0  0  0  0  0
   18.9719  -14.6169    2.4354 C   0  0  0  0  0  0  0  0  0  0  0  0
   20.0951  -14.0079    1.8940 C   0  0  0  0  0  0  0  0  0  0  0  0
   21.1209  -14.7482    1.3802 C   0  0  0  0  0  0  0  0  0  0  0  0
   21.0417  -16.1324    1.3981 C   0  0  0  0  0  0  0  0  0  0  0  0
   19.9337  -16.7115    1.9313 C   0  0  0  0  0  0  0  0  0  0  0  0
   18.8818  -16.0105    2.4565 C   0  0  0  0  0  0  0  0  0  0  0  0
   17.3678  -17.5056    5.7324 C   0  0  0  0  0  0  0  0  0  0  0  0
   16.5506  -17.9364    6.7976 O   0  0  0  0  0  0  0  0  0  0  0  0
   17.8805  -16.3747    5.8830 O   0  0  0  0  0  0  0  0  0  0  0  0
  1  2  1  0
  3  2  1  0
  4  3  1  0
  5  6  1  1
  5  4  1  0
  5  1  1  0
  6  7  2  0
  9  8  1  0
 10 11  1  0
 10  9  1  0
 12 11  1  6
 12 14  1  0
 13 12  1  0
 13  6  1  0
 14 15  2  0
 14 16  1  0
 16 17  1  0
 17 28  1  0
 17 18  1  6
 19 18  1  0
 20 19  2  0
 21 20  1  0
 22 21  1  0
 22 27  2  0
 23 22  1  0
 24 23  2  0
 24 25  1  0
 25 26  2  0
 26 27  1  0
 27 19  1  0
 28 30  2  0
 28 29  1  0
M  END
$$$$
