PMW.pdb
     RDKit          3D

 30 32  0  0  1  0  0  0  0  0999 V2000
   28.0002  -19.7515  -16.5064 N   0  0  0  0  0  0  0  0  0  0  0  0
   28.8541  -19.4123  -17.6351 C   0  0  0  0  0  0  0  0  0  0  0  0
   28.5844  -17.9080  -17.7244 C   0  0  0  0  0  0  0  0  0  0  0  0
   28.2695  -17.4844  -16.3041 C   0  0  0  0  0  0  0  0  0  0  0  0
   28.4258  -18.7555  -15.5411 C   0  0  1  0  0  0  0  0  0  0  0  0
   27.6623  -18.8177  -14.2884 C   0  0  0  0  0  0  0  0  0  0  0  0
   27.8319  -18.0087  -13.3468 O   0  0  0  0  0  0  0  0  0  0  0  0
   22.0773  -21.1716  -14.7880 C   0  0  0  0  0  0  0  0  0  0  0  0
   21.7057  -19.9330  -13.5203 S   0  0  0  0  0  0  0  0  0  0  0  0
   23.2615  -19.6614  -12.5809 C   0  0  0  0  0  0  0  0  0  0  0  0
   24.3725  -19.7901  -13.5600 C   0  0  0  0  0  0  0  0  0  0  0  0
   25.7584  -19.7445  -12.9799 C   0  0  2  0  0  0  0  0  0  0  0  0
   26.6770  -19.8093  -14.0701 N   0  0  0  0  0  0  0  0  0  0  0  0
   26.0024  -20.7302  -11.9175 C   0  0  0  0  0  0  0  0  0  0  0  0
   25.7627  -21.9451  -12.1342 O   0  0  0  0  0  0  0  0  0  0  0  0
   26.5020  -20.4225  -10.6230 N   0  0  0  0  0  0  0  0  0  0  0  0
   26.5553  -21.4081   -9.5362 C   0  0  1  0  0  0  0  0  0  0  0  0
   27.8334  -21.2621   -8.7698 C   0  0  0  0  0  0  0  0  0  0  0  0
   27.7508  -20.2812   -7.6855 C   0  0  0  0  0  0  0  0  0  0  0  0
   26.9314  -19.1399   -7.6770 C   0  0  0  0  0  0  0  0  0  0  0  0
   27.1404  -18.4460   -6.5478 N   0  0  0  0  0  0  0  0  0  0  0  0
   28.0616  -19.0711   -5.7996 C   0  0  0  0  0  0  0  0  0  0  0  0
   28.6221  -18.8039   -4.5587 C   0  0  0  0  0  0  0  0  0  0  0  0
   29.5464  -19.6433   -4.0062 C   0  0  0  0  0  0  0  0  0  0  0  0
   29.9338  -20.7829   -4.6944 C   0  0  0  0  0  0  0  0  0  0  0  0
   29.3751  -21.0280   -5.9090 C   0  0  0  0  0  0  0  0  0  0  0  0
   28.4465  -20.2155   -6.5017 C   0  0  0  0  0  0  0  0  0  0  0  0
   25.3552  -21.3867   -8.7109 C   0  0  0  0  0  0  0  0  0  0  0  0
   24.2846  -20.5178   -9.0059 O   0  0  0  0  0  0  0  0  0  0  0  0
   25.1851  -22.1138   -7.7075 O   0  0  0  0  0  0  0  0  0  0  0  0
  1  2  1  0
  3  2  1  0
  4  3  1  0
  5  6  1  1
  5  4  1  0
  5  1  1  0
  6  7  2  0
  9  8  1  0
 10 11  1  0
 10  9  1  0
 12 11  1  6
 12 14  1  0
 13 12  1  0
 13  6  1  0
 14 15  2  0
 14 16  1  0
 16 17  1  0
 17 28  1  0
 17 18  1  1
 19 18  1  0
 20 19  2  0
 21 20  1  0
 22 21  1  0
 22 27  2  0
 23 22  1  0
 24 23  2  0
 24 25  1  0
 25 26  2  0
 26 27  1  0
 27 19  1  0
 28 30  2  0
 28 29  1  0
M  END
$$$$
