PMW.pdb
     RDKit          3D

 30 32  0  0  1  0  0  0  0  0999 V2000
   28.2051  -19.8962  -16.7819 N   0  0  0  0  0  0  0  0  0  0  0  0
   28.3487  -19.8109  -18.2277 C   0  0  0  0  0  0  0  0  0  0  0  0
   29.5407  -20.7504  -18.4282 C   0  0  0  0  0  0  0  0  0  0  0  0
   29.4340  -21.7595  -17.3029 C   0  0  0  0  0  0  0  0  0  0  0  0
   28.1897  -21.3355  -16.5999 C   0  0  1  0  0  0  0  0  0  0  0  0
   28.1190  -21.7272  -15.1865 C   0  0  0  0  0  0  0  0  0  0  0  0
   27.5961  -22.7991  -14.8024 O   0  0  0  0  0  0  0  0  0  0  0  0
   32.5149  -22.6162  -10.3799 C   0  0  0  0  0  0  0  0  0  0  0  0
   31.6636  -21.0307  -10.1778 S   0  0  0  0  0  0  0  0  0  0  0  0
   29.9178  -21.3053  -10.6813 C   0  0  0  0  0  0  0  0  0  0  0  0
   29.8666  -21.1004  -12.1527 C   0  0  0  0  0  0  0  0  0  0  0  0
   28.5061  -21.2259  -12.7793 C   0  0  2  0  0  0  0  0  0  0  0  0
   28.6450  -20.9045  -14.1628 N   0  0  0  0  0  0  0  0  0  0  0  0
   27.4482  -20.4803  -12.0831 C   0  0  0  0  0  0  0  0  0  0  0  0
   27.2381  -19.2782  -12.3845 O   0  0  0  0  0  0  0  0  0  0  0  0
   26.6129  -21.0149  -11.0650 N   0  0  0  0  0  0  0  0  0  0  0  0
   25.5560  -20.2332  -10.4116 C   0  0  1  0  0  0  0  0  0  0  0  0
   24.6803  -19.5881  -11.4409 C   0  0  0  0  0  0  0  0  0  0  0  0
   23.6481  -20.4834  -11.9677 C   0  0  0  0  0  0  0  0  0  0  0  0
   22.4434  -20.8105  -11.3226 C   0  0  0  0  0  0  0  0  0  0  0  0
   21.7575  -21.6877  -12.0711 N   0  0  0  0  0  0  0  0  0  0  0  0
   22.4475  -21.9622  -13.1881 C   0  0  0  0  0  0  0  0  0  0  0  0
   22.1965  -22.7692  -14.2886 C   0  0  0  0  0  0  0  0  0  0  0  0
   23.0834  -22.8469  -15.3238 C   0  0  0  0  0  0  0  0  0  0  0  0
   24.2559  -22.1081  -15.2774 C   0  0  0  0  0  0  0  0  0  0  0  0
   24.4854  -21.3240  -14.1912 C   0  0  0  0  0  0  0  0  0  0  0  0
   23.6264  -21.2155  -13.1310 C   0  0  0  0  0  0  0  0  0  0  0  0
   24.8346  -21.0069   -9.4102 C   0  0  0  0  0  0  0  0  0  0  0  0
   23.9097  -20.3909   -8.5422 O   0  0  0  0  0  0  0  0  0  0  0  0
   24.9741  -22.2390   -9.2463 O   0  0  0  0  0  0  0  0  0  0  0  0
  1  2  1  0
  3  2  1  0
  4  3  1  0
  5  6  1  1
  5  4  1  0
  5  1  1  0
  6  7  2  0
  9  8  1  0
 10 11  1  0
 10  9  1  0
 12 11  1  1
 12 14  1  0
 13 12  1  0
 13  6  1  0
 14 15  2  0
 14 16  1  0
 16 17  1  0
 17 28  1  0
 17 18  1  6
 19 18  1  0
 20 19  2  0
 21 20  1  0
 22 21  1  0
 22 27  2  0
 23 22  1  0
 24 23  2  0
 24 25  1  0
 25 26  2  0
 26 27  1  0
 27 19  1  0
 28 30  2  0
 28 29  1  0
M  END
$$$$
