PMW.pdb
     RDKit          3D

 30 32  0  0  1  0  0  0  0  0999 V2000
   28.2206  -19.7413  -13.6889 N   0  0  0  0  0  0  0  0  0  0  0  0
   28.8105  -19.6258  -15.0143 C   0  0  0  0  0  0  0  0  0  0  0  0
   29.1096  -21.1004  -15.2970 C   0  0  0  0  0  0  0  0  0  0  0  0
   28.0493  -21.8658  -14.5317 C   0  0  0  0  0  0  0  0  0  0  0  0
   27.2318  -20.7762  -13.9263 C   0  0  1  0  0  0  0  0  0  0  0  0
   26.5064  -21.1571  -12.7078 C   0  0  0  0  0  0  0  0  0  0  0  0
   25.4708  -21.8622  -12.7243 O   0  0  0  0  0  0  0  0  0  0  0  0
   27.9200  -18.6264   -6.2711 C   0  0  0  0  0  0  0  0  0  0  0  0
   27.6572  -20.4053   -6.4849 S   0  0  0  0  0  0  0  0  0  0  0  0
   26.3403  -20.5917   -7.7530 C   0  0  0  0  0  0  0  0  0  0  0  0
   27.0225  -20.5796   -9.0735 C   0  0  0  0  0  0  0  0  0  0  0  0
   26.1721  -20.9760  -10.2479 C   0  0  2  0  0  0  0  0  0  0  0  0
   26.9419  -20.7436  -11.4268 N   0  0  0  0  0  0  0  0  0  0  0  0
   24.8361  -20.3639  -10.2614 C   0  0  0  0  0  0  0  0  0  0  0  0
   24.7264  -19.1162  -10.1537 O   0  0  0  0  0  0  0  0  0  0  0  0
   23.6154  -21.0805  -10.3898 N   0  0  0  0  0  0  0  0  0  0  0  0
   22.4694  -20.5691  -11.1514 C   0  0  1  0  0  0  0  0  0  0  0  0
   22.9022  -20.1687  -12.5280 C   0  0  0  0  0  0  0  0  0  0  0  0
   21.8111  -19.6369  -13.3474 C   0  0  0  0  0  0  0  0  0  0  0  0
   20.8843  -18.6622  -12.9409 C   0  0  0  0  0  0  0  0  0  0  0  0
   20.0009  -18.4445  -13.9270 N   0  0  0  0  0  0  0  0  0  0  0  0
   20.2944  -19.2281  -14.9752 C   0  0  0  0  0  0  0  0  0  0  0  0
   19.7304  -19.3874  -16.2330 C   0  0  0  0  0  0  0  0  0  0  0  0
   20.2593  -20.2622  -17.1381 C   0  0  0  0  0  0  0  0  0  0  0  0
   21.3789  -21.0059  -16.7974 C   0  0  0  0  0  0  0  0  0  0  0  0
   21.9171  -20.8376  -15.5607 C   0  0  0  0  0  0  0  0  0  0  0  0
   21.4211  -19.9739  -14.6217 C   0  0  0  0  0  0  0  0  0  0  0  0
   21.3339  -21.4810  -11.1212 C   0  0  0  0  0  0  0  0  0  0  0  0
   21.5232  -22.8773  -11.0721 O   0  0  0  0  0  0  0  0  0  0  0  0
   20.1397  -21.1094  -11.1361 O   0  0  0  0  0  0  0  0  0  0  0  0
  1  2  1  0
  3  2  1  0
  4  3  1  0
  5  6  1  1
  5  4  1  0
  5  1  1  0
  6  7  2  0
  9  8  1  0
 10 11  1  0
 10  9  1  0
 12 11  1  1
 12 14  1  0
 13 12  1  0
 13  6  1  0
 14 15  2  0
 14 16  1  0
 16 17  1  0
 17 28  1  0
 17 18  1  6
 19 18  1  0
 20 19  2  0
 21 20  1  0
 22 21  1  0
 22 27  2  0
 23 22  1  0
 24 23  2  0
 24 25  1  0
 25 26  2  0
 26 27  1  0
 27 19  1  0
 28 30  2  0
 28 29  1  0
M  END
$$$$
