PMW.pdb
     RDKit          3D

 30 32  0  0  1  0  0  0  0  0999 V2000
   27.8509  -20.9619  -15.6761 N   0  0  0  0  0  0  0  0  0  0  0  0
   28.6053  -20.0616  -16.5355 C   0  0  0  0  0  0  0  0  0  0  0  0
   27.8046  -18.7729  -16.3315 C   0  0  0  0  0  0  0  0  0  0  0  0
   27.2423  -18.8823  -14.9287 C   0  0  0  0  0  0  0  0  0  0  0  0
   27.7976  -20.1817  -14.4539 C   0  0  1  0  0  0  0  0  0  0  0  0
   27.0141  -20.8353  -13.3981 C   0  0  0  0  0  0  0  0  0  0  0  0
   26.3117  -21.8526  -13.6022 O   0  0  0  0  0  0  0  0  0  0  0  0
   28.0135  -20.1057   -7.1047 C   0  0  0  0  0  0  0  0  0  0  0  0
   26.2525  -19.6893   -7.1722 S   0  0  0  0  0  0  0  0  0  0  0  0
   25.5643  -20.5583   -8.6378 C   0  0  0  0  0  0  0  0  0  0  0  0
   26.4767  -20.2581   -9.7722 C   0  0  0  0  0  0  0  0  0  0  0  0
   26.0121  -20.7290  -11.1220 C   0  0  2  0  0  0  0  0  0  0  0  0
   27.0074  -20.3464  -12.0705 N   0  0  0  0  0  0  0  0  0  0  0  0
   24.6461  -20.3141  -11.4703 C   0  0  0  0  0  0  0  0  0  0  0  0
   24.3239  -19.1029  -11.3730 O   0  0  0  0  0  0  0  0  0  0  0  0
   23.6217  -21.1893  -11.9229 N   0  0  0  0  0  0  0  0  0  0  0  0
   22.2769  -20.7216  -12.2806 C   0  0  1  0  0  0  0  0  0  0  0  0
   22.3678  -19.5675  -13.2305 C   0  0  0  0  0  0  0  0  0  0  0  0
   23.0675  -19.8942  -14.4748 C   0  0  0  0  0  0  0  0  0  0  0  0
   23.2393  -21.1858  -15.0006 C   0  0  0  0  0  0  0  0  0  0  0  0
   23.9627  -21.1183  -16.1286 N   0  0  0  0  0  0  0  0  0  0  0  0
   24.2821  -19.8406  -16.3825 C   0  0  0  0  0  0  0  0  0  0  0  0
   24.9848  -19.2195  -17.4052 C   0  0  0  0  0  0  0  0  0  0  0  0
   25.1442  -17.8637  -17.4299 C   0  0  0  0  0  0  0  0  0  0  0  0
   24.5961  -17.0916  -16.4170 C   0  0  0  0  0  0  0  0  0  0  0  0
   23.9121  -17.7172  -15.4229 C   0  0  0  0  0  0  0  0  0  0  0  0
   23.7278  -19.0719  -15.3566 C   0  0  0  0  0  0  0  0  0  0  0  0
   21.4168  -21.8060  -12.7348 C   0  0  0  0  0  0  0  0  0  0  0  0
   21.9357  -23.0953  -12.9726 O   0  0  0  0  0  0  0  0  0  0  0  0
   20.1897  -21.6830  -12.9431 O   0  0  0  0  0  0  0  0  0  0  0  0
  1  2  1  0
  3  2  1  0
  4  3  1  0
  5  6  1  1
  5  4  1  0
  5  1  1  0
  6  7  2  0
  9  8  1  0
 10 11  1  0
 10  9  1  0
 12 11  1  1
 12 14  1  0
 13 12  1  0
 13  6  1  0
 14 15  2  0
 14 16  1  0
 16 17  1  0
 17 28  1  0
 17 18  1  6
 19 18  1  0
 20 19  2  0
 21 20  1  0
 22 21  1  0
 22 27  2  0
 23 22  1  0
 24 23  2  0
 24 25  1  0
 25 26  2  0
 26 27  1  0
 27 19  1  0
 28 30  2  0
 28 29  1  0
M  END
$$$$
