PMW.pdb
     RDKit          3D

 30 32  0  0  1  0  0  0  0  0999 V2000
   27.7787  -20.3370  -17.2632 N   0  0  0  0  0  0  0  0  0  0  0  0
   28.4970  -21.2217  -18.1685 C   0  0  0  0  0  0  0  0  0  0  0  0
   29.5911  -21.7288  -17.2254 C   0  0  0  0  0  0  0  0  0  0  0  0
   28.9625  -21.6960  -15.8472 C   0  0  0  0  0  0  0  0  0  0  0  0
   27.5782  -21.2206  -16.1300 C   0  0  1  0  0  0  0  0  0  0  0  0
   26.9152  -20.5541  -15.0020 C   0  0  0  0  0  0  0  0  0  0  0  0
   27.1914  -19.3856  -14.6439 O   0  0  0  0  0  0  0  0  0  0  0  0
   21.2521  -19.3534  -14.1027 C   0  0  0  0  0  0  0  0  0  0  0  0
   21.3841  -20.0688  -12.4444 S   0  0  0  0  0  0  0  0  0  0  0  0
   23.1675  -20.0411  -12.0022 C   0  0  0  0  0  0  0  0  0  0  0  0
   23.9020  -20.5692  -13.1816 C   0  0  0  0  0  0  0  0  0  0  0  0
   25.3955  -20.6523  -13.0331 C   0  0  2  0  0  0  0  0  0  0  0  0
   25.9122  -21.2029  -14.2441 N   0  0  0  0  0  0  0  0  0  0  0  0
   25.8451  -21.3353  -11.8120 C   0  0  0  0  0  0  0  0  0  0  0  0
   26.0185  -22.5802  -11.8279 O   0  0  0  0  0  0  0  0  0  0  0  0
   26.1106  -20.6924  -10.5725 N   0  0  0  0  0  0  0  0  0  0  0  0
   26.4146  -21.4327   -9.3418 C   0  0  1  0  0  0  0  0  0  0  0  0
   27.8240  -21.1638   -8.9130 C   0  0  0  0  0  0  0  0  0  0  0  0
   27.9284  -20.1359   -7.8752 C   0  0  0  0  0  0  0  0  0  0  0  0
   27.1442  -18.9727   -7.7956 C   0  0  0  0  0  0  0  0  0  0  0  0
   27.5376  -18.2376   -6.7444 N   0  0  0  0  0  0  0  0  0  0  0  0
   28.5486  -18.8559   -6.1161 C   0  0  0  0  0  0  0  0  0  0  0  0
   29.2973  -18.5519   -4.9880 C   0  0  0  0  0  0  0  0  0  0  0  0
   30.2770  -19.3926   -4.5435 C   0  0  0  0  0  0  0  0  0  0  0  0
   30.5307  -20.5709   -5.2291 C   0  0  0  0  0  0  0  0  0  0  0  0
   29.7883  -20.8516   -6.3324 C   0  0  0  0  0  0  0  0  0  0  0  0
   28.7976  -20.0394   -6.8147 C   0  0  0  0  0  0  0  0  0  0  0  0
   25.4186  -21.2105   -8.3024 C   0  0  0  0  0  0  0  0  0  0  0  0
   25.4094  -21.9871   -7.1256 O   0  0  0  0  0  0  0  0  0  0  0  0
   24.5217  -20.3413   -8.3694 O   0  0  0  0  0  0  0  0  0  0  0  0
  1  2  1  0
  3  2  1  0
  4  3  1  0
  5  6  1  1
  5  4  1  0
  5  1  1  0
  6  7  2  0
  9  8  1  0
 10 11  1  0
 10  9  1  0
 12 11  1  6
 12 14  1  0
 13 12  1  0
 13  6  1  0
 14 15  2  0
 14 16  1  0
 16 17  1  0
 17 28  1  0
 17 18  1  1
 19 18  1  0
 20 19  2  0
 21 20  1  0
 22 21  1  0
 22 27  2  0
 23 22  1  0
 24 23  2  0
 24 25  1  0
 25 26  2  0
 26 27  1  0
 27 19  1  0
 28 30  2  0
 28 29  1  0
M  END
$$$$
