HEW.pdb
     RDKit          3D

 34 36  0  0  1  0  0  0  0  0999 V2000
   13.3383  -18.2322    3.8243 N   0  0  0  0  0  0  0  0  0  0  0  0
   14.4416  -19.1609    4.0836 C   0  0  1  0  0  0  0  0  0  0  0  0
   15.2796  -19.2904    2.8920 C   0  0  0  0  0  0  0  0  0  0  0  0
   16.1961  -18.1530    2.5890 C   0  0  0  0  0  0  0  0  0  0  0  0
   16.2991  -16.9600    3.2511 C   0  0  0  0  0  0  0  0  0  0  0  0
   17.2548  -16.2247    2.6891 N   0  0  0  0  0  0  0  0  0  0  0  0
   17.7497  -16.9570    1.6762 C   0  0  0  0  0  0  0  0  0  0  0  0
   17.1111  -18.1317    1.6082 N   0  0  0  0  0  0  0  0  0  0  0  0
   15.0621  -18.9510    5.4008 C   0  0  0  0  0  0  0  0  0  0  0  0
   14.5870  -18.0418    6.1917 O   0  0  0  0  0  0  0  0  0  0  0  0
   16.1631  -19.7398    5.8040 N   0  0  0  0  0  0  0  0  0  0  0  0
   16.8899  -19.6076    7.0197 C   0  0  1  0  0  0  0  0  0  0  0  0
   17.4121  -20.7237    7.7752 C   0  0  0  0  0  0  0  0  0  0  0  0
   18.0989  -20.5944    9.0657 C   0  0  0  0  0  0  0  0  0  0  0  0
   19.4338  -21.1757    9.2371 C   0  0  0  0  0  0  0  0  0  0  0  0
   20.1136  -21.5704    8.2131 O   0  0  0  0  0  0  0  0  0  0  0  0
   17.7852  -18.3858    7.0119 C   0  0  0  0  0  0  0  0  0  0  0  0
   18.0930  -17.8614    5.9161 O   0  0  0  0  0  0  0  0  0  0  0  0
   20.0652  -21.3536   10.4480 O   0  0  0  0  0  0  0  0  0  0  0  0
   18.3069  -17.7861    8.1809 N   0  0  0  0  0  0  0  0  0  0  0  0
   18.8657  -16.4309    8.1605 C   0  0  1  0  0  0  0  0  0  0  0  0
   17.7900  -15.5626    7.5743 C   0  0  0  0  0  0  0  0  0  0  0  0
   18.1909  -14.6404    6.5145 C   0  0  0  0  0  0  0  0  0  0  0  0
   17.5585  -14.4946    5.2956 C   0  0  0  0  0  0  0  0  0  0  0  0
   18.2259  -13.5827    4.5752 N   0  0  0  0  0  0  0  0  0  0  0  0
   19.2895  -13.1203    5.2946 C   0  0  0  0  0  0  0  0  0  0  0  0
   20.2680  -12.1941    5.0486 C   0  0  0  0  0  0  0  0  0  0  0  0
   21.2329  -11.9079    5.9919 C   0  0  0  0  0  0  0  0  0  0  0  0
   21.2130  -12.5648    7.2034 C   0  0  0  0  0  0  0  0  0  0  0  0
   20.2483  -13.4861    7.4594 C   0  0  0  0  0  0  0  0  0  0  0  0
   19.2675  -13.7833    6.5109 C   0  0  0  0  0  0  0  0  0  0  0  0
   19.4153  -15.9967    9.4284 C   0  0  0  0  0  0  0  0  0  0  0  0
   20.4767  -15.1051    9.5718 O   0  0  0  0  0  0  0  0  0  0  0  0
   18.9096  -16.4471   10.4893 O   0  0  0  0  0  0  0  0  0  0  0  0
  2  1  1  6
  2  9  1  0
  2  3  1  0
  3  4  1  0
  4  5  2  0
  5  6  1  0
  7  6  1  0
  8  4  1  0
  8  7  2  0
  9 10  2  0
 11 12  1  0
 11  9  1  0
 12 13  1  6
 13 14  1  0
 14 15  1  0
 15 16  2  0
 15 19  1  0
 17 12  1  0
 18 17  2  0
 20 17  1  0
 21 22  1  1
 21 20  1  0
 22 23  1  0
 23 31  1  0
 24 23  2  0
 24 25  1  0
 25 26  1  0
 26 27  1  0
 27 28  2  0
 29 28  1  0
 30 29  2  0
 31 26  2  0
 31 30  1  0
 32 33  1  0
 32 21  1  0
 34 32  2  0
M  END
$$$$
