HEW.pdb
     RDKit          3D

 34 36  0  0  1  0  0  0  0  0999 V2000
   21.9217   -5.2323  -19.7257 N   0  0  0  0  0  0  0  0  0  0  0  0
   22.0228   -6.6659  -19.4394 C   0  0  1  0  0  0  0  0  0  0  0  0
   23.4265   -7.0761  -19.4193 C   0  0  0  0  0  0  0  0  0  0  0  0
   24.1761   -6.9675  -20.7046 C   0  0  0  0  0  0  0  0  0  0  0  0
   24.3317   -7.9266  -21.6680 C   0  0  0  0  0  0  0  0  0  0  0  0
   25.0445   -7.4288  -22.6749 N   0  0  0  0  0  0  0  0  0  0  0  0
   25.3346   -6.1590  -22.3421 C   0  0  0  0  0  0  0  0  0  0  0  0
   24.8099   -5.8702  -21.1447 N   0  0  0  0  0  0  0  0  0  0  0  0
   21.1149   -7.0951  -18.3645 C   0  0  0  0  0  0  0  0  0  0  0  0
   20.9119   -6.3138  -17.3515 O   0  0  0  0  0  0  0  0  0  0  0  0
   20.4629   -8.3466  -18.4394 N   0  0  0  0  0  0  0  0  0  0  0  0
   19.5433   -8.8721  -17.4898 C   0  0  1  0  0  0  0  0  0  0  0  0
   18.5842   -9.9129  -17.7830 C   0  0  0  0  0  0  0  0  0  0  0  0
   17.5178  -10.3313  -16.8657 C   0  0  0  0  0  0  0  0  0  0  0  0
   16.5815  -11.3826  -17.2750 C   0  0  0  0  0  0  0  0  0  0  0  0
   15.3300  -11.1161  -17.4458 O   0  0  0  0  0  0  0  0  0  0  0  0
   20.1485   -8.9537  -16.1036 C   0  0  0  0  0  0  0  0  0  0  0  0
   21.2029   -9.6098  -15.9353 O   0  0  0  0  0  0  0  0  0  0  0  0
   16.9247  -12.6964  -17.5043 O   0  0  0  0  0  0  0  0  0  0  0  0
   19.5925   -8.3271  -14.9649 N   0  0  0  0  0  0  0  0  0  0  0  0
   20.1169   -8.5816  -13.6199 C   0  0  1  0  0  0  0  0  0  0  0  0
   21.5789   -8.2464  -13.6896 C   0  0  0  0  0  0  0  0  0  0  0  0
   21.9247   -6.8425  -13.8988 C   0  0  0  0  0  0  0  0  0  0  0  0
   21.3066   -5.7650  -13.2955 C   0  0  0  0  0  0  0  0  0  0  0  0
   21.8704   -4.6386  -13.7533 N   0  0  0  0  0  0  0  0  0  0  0  0
   22.8520   -4.9496  -14.6490 C   0  0  0  0  0  0  0  0  0  0  0  0
   23.7307   -4.2025  -15.3877 C   0  0  0  0  0  0  0  0  0  0  0  0
   24.6518   -4.8021  -16.2213 C   0  0  0  0  0  0  0  0  0  0  0  0
   24.6894   -6.1769  -16.3132 C   0  0  0  0  0  0  0  0  0  0  0  0
   23.8229   -6.9290  -15.5863 C   0  0  0  0  0  0  0  0  0  0  0  0
   22.8864   -6.3315  -14.7402 C   0  0  0  0  0  0  0  0  0  0  0  0
   19.3660   -7.9416  -12.5593 C   0  0  0  0  0  0  0  0  0  0  0  0
   18.3158   -7.0469  -12.7564 O   0  0  0  0  0  0  0  0  0  0  0  0
   19.6700   -8.2006  -11.3658 O   0  0  0  0  0  0  0  0  0  0  0  0
  2  1  1  1
  2  9  1  0
  2  3  1  0
  3  4  1  0
  4  5  2  0
  5  6  1  0
  7  6  1  0
  8  4  1  0
  8  7  2  0
  9 10  2  0
 11 12  1  0
 11  9  1  0
 12 13  1  6
 13 14  1  0
 14 15  1  0
 15 16  2  0
 15 19  1  0
 17 12  1  0
 18 17  2  0
 20 17  1  0
 21 22  1  6
 21 20  1  0
 22 23  1  0
 23 31  1  0
 24 23  2  0
 24 25  1  0
 25 26  1  0
 26 27  1  0
 27 28  2  0
 29 28  1  0
 30 29  2  0
 31 26  2  0
 31 30  1  0
 32 33  1  0
 32 21  1  0
 34 32  2  0
M  END
$$$$
