HEW.pdb
     RDKit          3D

 34 36  0  0  1  0  0  0  0  0999 V2000
   23.7174  -17.6497  -17.5446 N   0  0  0  0  0  0  0  0  0  0  0  0
   24.7227  -17.4674  -16.4942 C   0  0  1  0  0  0  0  0  0  0  0  0
   25.4758  -16.2357  -16.7283 C   0  0  0  0  0  0  0  0  0  0  0  0
   26.2136  -16.1354  -18.0210 C   0  0  0  0  0  0  0  0  0  0  0  0
   26.9900  -17.0900  -18.6194 C   0  0  0  0  0  0  0  0  0  0  0  0
   27.4499  -16.6225  -19.7769 N   0  0  0  0  0  0  0  0  0  0  0  0
   26.9616  -15.3764  -19.9029 C   0  0  0  0  0  0  0  0  0  0  0  0
   26.2082  -15.0720  -18.8388 N   0  0  0  0  0  0  0  0  0  0  0  0
   24.2014  -17.7678  -15.1518 C   0  0  0  0  0  0  0  0  0  0  0  0
   23.6634  -16.8212  -14.4502 O   0  0  0  0  0  0  0  0  0  0  0  0
   24.2798  -19.0802  -14.6339 N   0  0  0  0  0  0  0  0  0  0  0  0
   23.8520  -19.5006  -13.3440 C   0  0  1  0  0  0  0  0  0  0  0  0
   22.5246  -19.9928  -13.0527 C   0  0  0  0  0  0  0  0  0  0  0  0
   22.1268  -20.5741  -11.7652 C   0  0  0  0  0  0  0  0  0  0  0  0
   20.7493  -21.0386  -11.5750 C   0  0  0  0  0  0  0  0  0  0  0  0
   19.7650  -20.2040  -11.6104 O   0  0  0  0  0  0  0  0  0  0  0  0
   24.9585  -20.2014  -12.5831 C   0  0  0  0  0  0  0  0  0  0  0  0
   25.3902  -21.2991  -13.0065 O   0  0  0  0  0  0  0  0  0  0  0  0
   20.3842  -22.3468  -11.3476 O   0  0  0  0  0  0  0  0  0  0  0  0
   25.5480  -19.6901  -11.4044 N   0  0  0  0  0  0  0  0  0  0  0  0
   26.5820  -20.4364  -10.6812 C   0  0  1  0  0  0  0  0  0  0  0  0
   27.0934  -19.4953   -9.6288 C   0  0  0  0  0  0  0  0  0  0  0  0
   26.8364  -19.8587   -8.2374 C   0  0  0  0  0  0  0  0  0  0  0  0
   25.8357  -20.7039   -7.8001 C   0  0  0  0  0  0  0  0  0  0  0  0
   25.8897  -20.7729   -6.4628 N   0  0  0  0  0  0  0  0  0  0  0  0
   26.9088  -19.9891   -6.0050 C   0  0  0  0  0  0  0  0  0  0  0  0
   27.4037  -19.7126   -4.7582 C   0  0  0  0  0  0  0  0  0  0  0  0
   28.4854  -18.8732   -4.5900 C   0  0  0  0  0  0  0  0  0  0  0  0
   29.0793  -18.3025   -5.6951 C   0  0  0  0  0  0  0  0  0  0  0  0
   28.5976  -18.5682   -6.9369 C   0  0  0  0  0  0  0  0  0  0  0  0
   27.5027  -19.4159   -7.1177 C   0  0  0  0  0  0  0  0  0  0  0  0
   26.1571  -21.7412  -10.2175 C   0  0  0  0  0  0  0  0  0  0  0  0
   27.0149  -22.8004   -9.9269 O   0  0  0  0  0  0  0  0  0  0  0  0
   24.9264  -21.9523  -10.0594 O   0  0  0  0  0  0  0  0  0  0  0  0
  2  1  1  6
  2  9  1  0
  2  3  1  0
  3  4  1  0
  4  5  2  0
  5  6  1  0
  7  6  1  0
  8  4  1  0
  8  7  2  0
  9 10  2  0
 11 12  1  0
 11  9  1  0
 12 13  1  6
 13 14  1  0
 14 15  1  0
 15 16  2  0
 15 19  1  0
 17 12  1  0
 18 17  2  0
 20 17  1  0
 21 22  1  1
 21 20  1  0
 22 23  1  0
 23 31  1  0
 24 23  2  0
 24 25  1  0
 25 26  1  0
 26 27  1  0
 27 28  2  0
 29 28  1  0
 30 29  2  0
 31 26  2  0
 31 30  1  0
 32 33  1  0
 32 21  1  0
 34 32  2  0
M  END
$$$$
