HEW.pdb
     RDKit          3D

 34 36  0  0  1  0  0  0  0  0999 V2000
   25.2372  -17.5077  -17.7332 N   0  0  0  0  0  0  0  0  0  0  0  0
   25.6895  -17.6929  -16.3518 C   0  0  1  0  0  0  0  0  0  0  0  0
   25.9183  -16.3938  -15.7199 C   0  0  0  0  0  0  0  0  0  0  0  0
   26.7831  -15.4300  -16.4607 C   0  0  0  0  0  0  0  0  0  0  0  0
   26.4351  -14.2053  -16.9618 C   0  0  0  0  0  0  0  0  0  0  0  0
   27.4984  -13.6428  -17.5300 N   0  0  0  0  0  0  0  0  0  0  0  0
   28.5113  -14.5148  -17.3843 C   0  0  0  0  0  0  0  0  0  0  0  0
   28.0846  -15.6049  -16.7347 N   0  0  0  0  0  0  0  0  0  0  0  0
   24.9310  -18.7338  -15.6412 C   0  0  0  0  0  0  0  0  0  0  0  0
   23.6494  -18.6066  -15.5031 O   0  0  0  0  0  0  0  0  0  0  0  0
   25.5934  -19.8678  -15.1196 N   0  0  0  0  0  0  0  0  0  0  0  0
   24.9726  -21.0216  -14.5655 C   0  0  1  0  0  0  0  0  0  0  0  0
   24.8776  -22.2939  -15.2449 C   0  0  0  0  0  0  0  0  0  0  0  0
   26.0359  -23.1003  -15.6473 C   0  0  0  0  0  0  0  0  0  0  0  0
   26.1074  -24.5111  -15.2554 C   0  0  0  0  0  0  0  0  0  0  0  0
   25.1681  -25.0436  -14.5478 O   0  0  0  0  0  0  0  0  0  0  0  0
   25.2078  -21.1272  -13.0729 C   0  0  0  0  0  0  0  0  0  0  0  0
   26.3793  -21.2564  -12.6471 O   0  0  0  0  0  0  0  0  0  0  0  0
   27.1343  -25.3680  -15.5835 O   0  0  0  0  0  0  0  0  0  0  0  0
   24.1740  -21.0890  -12.1096 N   0  0  0  0  0  0  0  0  0  0  0  0
   24.4599  -21.2065  -10.6765 C   0  0  1  0  0  0  0  0  0  0  0  0
   25.4561  -20.1239  -10.3765 C   0  0  0  0  0  0  0  0  0  0  0  0
   26.7918  -20.5511   -9.9672 C   0  0  0  0  0  0  0  0  0  0  0  0
   27.6341  -21.3643  -10.6995 C   0  0  0  0  0  0  0  0  0  0  0  0
   28.7554  -21.5635   -9.9930 N   0  0  0  0  0  0  0  0  0  0  0  0
   28.6723  -20.8965   -8.8052 C   0  0  0  0  0  0  0  0  0  0  0  0
   29.5208  -20.7510   -7.7399 C   0  0  0  0  0  0  0  0  0  0  0  0
   29.1718  -19.9812   -6.6498 C   0  0  0  0  0  0  0  0  0  0  0  0
   27.9482  -19.3470   -6.6312 C   0  0  0  0  0  0  0  0  0  0  0  0
   27.0974  -19.4838   -7.6811 C   0  0  0  0  0  0  0  0  0  0  0  0
   27.4412  -20.2614   -8.7890 C   0  0  0  0  0  0  0  0  0  0  0  0
   23.2800  -21.2379   -9.8368 C   0  0  0  0  0  0  0  0  0  0  0  0
   23.1958  -21.8885   -8.6073 O   0  0  0  0  0  0  0  0  0  0  0  0
   22.2454  -20.6389  -10.2301 O   0  0  0  0  0  0  0  0  0  0  0  0
  2  1  1  6
  2  9  1  0
  2  3  1  0
  3  4  1  0
  4  5  2  0
  5  6  1  0
  7  6  1  0
  8  4  1  0
  8  7  2  0
  9 10  2  0
 11 12  1  0
 11  9  1  0
 12 13  1  6
 13 14  1  0
 14 15  1  0
 15 16  2  0
 15 19  1  0
 17 12  1  0
 18 17  2  0
 20 17  1  0
 21 22  1  1
 21 20  1  0
 22 23  1  0
 23 31  1  0
 24 23  2  0
 24 25  1  0
 25 26  1  0
 26 27  1  0
 27 28  2  0
 29 28  1  0
 30 29  2  0
 31 26  2  0
 31 30  1  0
 32 33  1  0
 32 21  1  0
 34 32  2  0
M  END
$$$$
