HEW.pdb
     RDKit          3D

 34 36  0  0  1  0  0  0  0  0999 V2000
   20.8092  -20.4692  -16.8086 N   0  0  0  0  0  0  0  0  0  0  0  0
   21.0844  -20.9896  -15.4667 C   0  0  1  0  0  0  0  0  0  0  0  0
   22.1661  -20.2269  -14.8445 C   0  0  0  0  0  0  0  0  0  0  0  0
   23.4029  -20.0320  -15.6556 C   0  0  0  0  0  0  0  0  0  0  0  0
   24.0152  -20.9353  -16.4810 C   0  0  0  0  0  0  0  0  0  0  0  0
   25.0772  -20.3673  -17.0461 N   0  0  0  0  0  0  0  0  0  0  0  0
   25.1294  -19.1093  -16.5749 C   0  0  0  0  0  0  0  0  0  0  0  0
   24.1143  -18.8969  -15.7282 N   0  0  0  0  0  0  0  0  0  0  0  0
   19.8578  -21.2803  -14.7085 C   0  0  0  0  0  0  0  0  0  0  0  0
   19.2235  -20.3124  -14.1266 O   0  0  0  0  0  0  0  0  0  0  0  0
   19.3704  -22.6039  -14.6215 N   0  0  0  0  0  0  0  0  0  0  0  0
   18.1985  -23.0232  -13.9329 C   0  0  1  0  0  0  0  0  0  0  0  0
   16.8993  -23.1540  -14.5527 C   0  0  0  0  0  0  0  0  0  0  0  0
   16.3376  -22.1830  -15.4990 C   0  0  0  0  0  0  0  0  0  0  0  0
   16.9575  -22.0139  -16.8167 C   0  0  0  0  0  0  0  0  0  0  0  0
   17.2835  -23.0428  -17.5250 O   0  0  0  0  0  0  0  0  0  0  0  0
   18.5032  -24.0818  -12.8931 C   0  0  0  0  0  0  0  0  0  0  0  0
   19.4411  -24.8872  -13.0985 O   0  0  0  0  0  0  0  0  0  0  0  0
   17.2435  -20.8007  -17.4021 O   0  0  0  0  0  0  0  0  0  0  0  0
   17.7864  -24.2246  -11.6831 N   0  0  0  0  0  0  0  0  0  0  0  0
   18.2775  -25.0823  -10.6005 C   0  0  1  0  0  0  0  0  0  0  0  0
   19.6949  -24.6499  -10.3582 C   0  0  0  0  0  0  0  0  0  0  0  0
   19.8950  -23.5233   -9.4499 C   0  0  0  0  0  0  0  0  0  0  0  0
   19.7598  -23.5657   -8.0762 C   0  0  0  0  0  0  0  0  0  0  0  0
   19.9896  -22.3394   -7.5870 N   0  0  0  0  0  0  0  0  0  0  0  0
   20.2756  -21.4842   -8.6114 C   0  0  0  0  0  0  0  0  0  0  0  0
   20.5938  -20.1535   -8.6728 C   0  0  0  0  0  0  0  0  0  0  0  0
   20.8583  -19.5381   -9.8786 C   0  0  0  0  0  0  0  0  0  0  0  0
   20.8016  -20.2741  -11.0426 C   0  0  0  0  0  0  0  0  0  0  0  0
   20.4866  -21.5945  -10.9953 C   0  0  0  0  0  0  0  0  0  0  0  0
   20.2165  -22.2266   -9.7797 C   0  0  0  0  0  0  0  0  0  0  0  0
   17.4152  -25.1218   -9.4372 C   0  0  0  0  0  0  0  0  0  0  0  0
   17.5426  -26.0241   -8.3829 O   0  0  0  0  0  0  0  0  0  0  0  0
   16.4767  -24.2873   -9.3554 O   0  0  0  0  0  0  0  0  0  0  0  0
  2  1  1  6
  2  9  1  0
  2  3  1  0
  3  4  1  0
  4  5  2  0
  5  6  1  0
  7  6  1  0
  8  4  1  0
  8  7  2  0
  9 10  2  0
 11 12  1  0
 11  9  1  0
 12 13  1  6
 13 14  1  0
 14 15  1  0
 15 16  2  0
 15 19  1  0
 17 12  1  0
 18 17  2  0
 20 17  1  0
 21 22  1  1
 21 20  1  0
 22 23  1  0
 23 31  1  0
 24 23  2  0
 24 25  1  0
 25 26  1  0
 26 27  1  0
 27 28  2  0
 29 28  1  0
 30 29  2  0
 31 26  2  0
 31 30  1  0
 32 33  1  0
 32 21  1  0
 34 32  2  0
M  END
$$$$
