HEW.pdb
     RDKit          3D

 34 36  0  0  1  0  0  0  0  0999 V2000
   28.3334  -21.3340  -17.0189 N   0  0  0  0  0  0  0  0  0  0  0  0
   27.8333  -21.8342  -15.7356 C   0  0  1  0  0  0  0  0  0  0  0  0
   28.9162  -22.4748  -14.9900 C   0  0  0  0  0  0  0  0  0  0  0  0
   29.6801  -23.5420  -15.6994 C   0  0  0  0  0  0  0  0  0  0  0  0
   30.9914  -23.5162  -16.0891 C   0  0  0  0  0  0  0  0  0  0  0  0
   31.3027  -24.6735  -16.6668 N   0  0  0  0  0  0  0  0  0  0  0  0
   30.1871  -25.4231  -16.6384 C   0  0  0  0  0  0  0  0  0  0  0  0
   29.1950  -24.7421  -16.0514 N   0  0  0  0  0  0  0  0  0  0  0  0
   26.9415  -20.8774  -15.0625 C   0  0  0  0  0  0  0  0  0  0  0  0
   27.4116  -19.7368  -14.6678 O   0  0  0  0  0  0  0  0  0  0  0  0
   25.5806  -21.1962  -14.8545 N   0  0  0  0  0  0  0  0  0  0  0  0
   24.6301  -20.4027  -14.1542 C   0  0  1  0  0  0  0  0  0  0  0  0
   23.4546  -19.8230  -14.7636 C   0  0  0  0  0  0  0  0  0  0  0  0
   22.4041  -19.1189  -14.0191 C   0  0  0  0  0  0  0  0  0  0  0  0
   21.2119  -18.6409  -14.7258 C   0  0  0  0  0  0  0  0  0  0  0  0
   21.1315  -18.7305  -16.0112 O   0  0  0  0  0  0  0  0  0  0  0  0
   24.4206  -20.8931  -12.7364 C   0  0  0  0  0  0  0  0  0  0  0  0
   24.0814  -22.0844  -12.5464 O   0  0  0  0  0  0  0  0  0  0  0  0
   20.1128  -18.0735  -14.1206 O   0  0  0  0  0  0  0  0  0  0  0  0
   24.5854  -20.0808  -11.5913 N   0  0  0  0  0  0  0  0  0  0  0  0
   24.2190  -20.5601  -10.2552 C   0  0  1  0  0  0  0  0  0  0  0  0
   25.2109  -19.9330   -9.3184 C   0  0  0  0  0  0  0  0  0  0  0  0
   26.5522  -20.5116   -9.2937 C   0  0  0  0  0  0  0  0  0  0  0  0
   27.0042  -21.5260  -10.1144 C   0  0  0  0  0  0  0  0  0  0  0  0
   28.2701  -21.8127   -9.7807 N   0  0  0  0  0  0  0  0  0  0  0  0
   28.6663  -21.0061   -8.7536 C   0  0  0  0  0  0  0  0  0  0  0  0
   29.8358  -20.8701   -8.0537 C   0  0  0  0  0  0  0  0  0  0  0  0
   29.9613  -19.9328   -7.0494 C   0  0  0  0  0  0  0  0  0  0  0  0
   28.8920  -19.1185   -6.7441 C   0  0  0  0  0  0  0  0  0  0  0  0
   27.7266  -19.2438   -7.4303 C   0  0  0  0  0  0  0  0  0  0  0  0
   27.5892  -20.1900   -8.4482 C   0  0  0  0  0  0  0  0  0  0  0  0
   22.8217  -20.3753   -9.9212 C   0  0  0  0  0  0  0  0  0  0  0  0
   21.8661  -19.8249  -10.7733 O   0  0  0  0  0  0  0  0  0  0  0  0
   22.4229  -20.7323   -8.7821 O   0  0  0  0  0  0  0  0  0  0  0  0
  2  1  1  6
  2  9  1  0
  2  3  1  0
  3  4  1  0
  4  5  2  0
  5  6  1  0
  7  6  1  0
  8  4  1  0
  8  7  2  0
  9 10  2  0
 11 12  1  0
 11  9  1  0
 12 13  1  6
 13 14  1  0
 14 15  1  0
 15 16  2  0
 15 19  1  0
 17 12  1  0
 18 17  2  0
 20 17  1  0
 21 22  1  1
 21 20  1  0
 22 23  1  0
 23 31  1  0
 24 23  2  0
 24 25  1  0
 25 26  1  0
 26 27  1  0
 27 28  2  0
 29 28  1  0
 30 29  2  0
 31 26  2  0
 31 30  1  0
 32 33  1  0
 32 21  1  0
 34 32  2  0
M  END
$$$$
