HEW.pdb
     RDKit          3D

 34 36  0  0  1  0  0  0  0  0999 V2000
   27.5928  -21.0803  -15.9903 N   0  0  0  0  0  0  0  0  0  0  0  0
   28.0791  -21.3202  -14.6290 C   0  0  1  0  0  0  0  0  0  0  0  0
   29.5389  -21.4096  -14.6258 C   0  0  0  0  0  0  0  0  0  0  0  0
   30.1502  -22.4426  -15.5118 C   0  0  0  0  0  0  0  0  0  0  0  0
   30.4784  -23.7322  -15.1934 C   0  0  0  0  0  0  0  0  0  0  0  0
   30.9745  -24.3393  -16.2682 N   0  0  0  0  0  0  0  0  0  0  0  0
   30.9565  -23.4304  -17.2586 C   0  0  0  0  0  0  0  0  0  0  0  0
   30.4564  -22.2736  -16.8069 N   0  0  0  0  0  0  0  0  0  0  0  0
   27.3899  -20.4933  -13.6264 C   0  0  0  0  0  0  0  0  0  0  0  0
   27.7981  -19.2835  -13.4082 O   0  0  0  0  0  0  0  0  0  0  0  0
   26.2863  -21.0113  -12.9119 N   0  0  0  0  0  0  0  0  0  0  0  0
   25.4941  -20.3059  -11.9641 C   0  0  1  0  0  0  0  0  0  0  0  0
   24.3711  -19.4659  -12.3140 C   0  0  0  0  0  0  0  0  0  0  0  0
   24.1675  -18.8755  -13.6421 C   0  0  0  0  0  0  0  0  0  0  0  0
   23.4593  -19.6395  -14.6735 C   0  0  0  0  0  0  0  0  0  0  0  0
   24.0093  -19.8590  -15.8206 O   0  0  0  0  0  0  0  0  0  0  0  0
   25.3080  -21.0956  -10.6850 C   0  0  0  0  0  0  0  0  0  0  0  0
   25.2160  -22.3439  -10.7460 O   0  0  0  0  0  0  0  0  0  0  0  0
   22.1971  -20.1715  -14.5314 O   0  0  0  0  0  0  0  0  0  0  0  0
   25.2297  -20.5070   -9.4021 N   0  0  0  0  0  0  0  0  0  0  0  0
   24.6362  -21.2219   -8.2681 C   0  0  1  0  0  0  0  0  0  0  0  0
   25.3887  -20.7489   -7.0579 C   0  0  0  0  0  0  0  0  0  0  0  0
   26.7343  -20.2253   -7.2805 C   0  0  0  0  0  0  0  0  0  0  0  0
   27.2720  -19.8888   -8.5072 C   0  0  0  0  0  0  0  0  0  0  0  0
   28.5336  -19.4765   -8.3212 N   0  0  0  0  0  0  0  0  0  0  0  0
   28.8423  -19.5328   -6.9930 C   0  0  0  0  0  0  0  0  0  0  0  0
   29.9612  -19.2211   -6.2672 C   0  0  0  0  0  0  0  0  0  0  0  0
   29.9847  -19.3650   -4.8955 C   0  0  0  0  0  0  0  0  0  0  0  0
   28.8634  -19.8304   -4.2430 C   0  0  0  0  0  0  0  0  0  0  0  0
   27.7477  -20.1436   -4.9514 C   0  0  0  0  0  0  0  0  0  0  0  0
   27.7140  -20.0021   -6.3403 C   0  0  0  0  0  0  0  0  0  0  0  0
   23.1924  -21.1285   -8.1979 C   0  0  0  0  0  0  0  0  0  0  0  0
   22.3940  -20.4455   -9.1135 O   0  0  0  0  0  0  0  0  0  0  0  0
   22.5979  -21.7001   -7.2471 O   0  0  0  0  0  0  0  0  0  0  0  0
  2  1  1  6
  2  9  1  0
  2  3  1  0
  3  4  1  0
  4  5  2  0
  5  6  1  0
  7  6  1  0
  8  4  1  0
  8  7  2  0
  9 10  2  0
 11 12  1  0
 11  9  1  0
 12 13  1  6
 13 14  1  0
 14 15  1  0
 15 16  2  0
 15 19  1  0
 17 12  1  0
 18 17  2  0
 20 17  1  0
 21 22  1  1
 21 20  1  0
 22 23  1  0
 23 31  1  0
 24 23  2  0
 24 25  1  0
 25 26  1  0
 26 27  1  0
 27 28  2  0
 29 28  1  0
 30 29  2  0
 31 26  2  0
 31 30  1  0
 32 33  1  0
 32 21  1  0
 34 32  2  0
M  END
$$$$
