HEW.pdb
     RDKit          3D

 34 36  0  0  1  0  0  0  0  0999 V2000
   22.8042  -13.5443  -20.3480 N   0  0  0  0  0  0  0  0  0  0  0  0
   22.9730  -13.0238  -18.9887 C   0  0  1  0  0  0  0  0  0  0  0  0
   24.3625  -12.6208  -18.7743 C   0  0  0  0  0  0  0  0  0  0  0  0
   25.4136  -13.6154  -19.1370 C   0  0  0  0  0  0  0  0  0  0  0  0
   26.3668  -13.5097  -20.1129 C   0  0  0  0  0  0  0  0  0  0  0  0
   27.1334  -14.5969  -20.1003 N   0  0  0  0  0  0  0  0  0  0  0  0
   26.6605  -15.3824  -19.1171 C   0  0  0  0  0  0  0  0  0  0  0  0
   25.6140  -14.7926  -18.5259 N   0  0  0  0  0  0  0  0  0  0  0  0
   21.8765  -12.1311  -18.5828 C   0  0  0  0  0  0  0  0  0  0  0  0
   21.4810  -11.1991  -19.3906 O   0  0  0  0  0  0  0  0  0  0  0  0
   21.2538  -12.2934  -17.3247 N   0  0  0  0  0  0  0  0  0  0  0  0
   20.1610  -11.5324  -16.8247 C   0  0  1  0  0  0  0  0  0  0  0  0
   18.8813  -12.0973  -16.4608 C   0  0  0  0  0  0  0  0  0  0  0  0
   18.7165  -13.3655  -15.7409 C   0  0  0  0  0  0  0  0  0  0  0  0
   17.5640  -13.5503  -14.8538 C   0  0  0  0  0  0  0  0  0  0  0  0
   16.7439  -12.5781  -14.6330 O   0  0  0  0  0  0  0  0  0  0  0  0
   20.6233  -10.4041  -15.9259 C   0  0  0  0  0  0  0  0  0  0  0  0
   21.7633  -10.4633  -15.4090 O   0  0  0  0  0  0  0  0  0  0  0  0
   17.2565  -14.7207  -14.1964 O   0  0  0  0  0  0  0  0  0  0  0  0
   19.8393   -9.2668  -15.6255 N   0  0  0  0  0  0  0  0  0  0  0  0
   20.4100   -8.1054  -14.9365 C   0  0  1  0  0  0  0  0  0  0  0  0
   21.6940   -7.8046  -15.6544 C   0  0  0  0  0  0  0  0  0  0  0  0
   22.4176   -6.6058  -15.2379 C   0  0  0  0  0  0  0  0  0  0  0  0
   22.1409   -5.8505  -14.1154 C   0  0  0  0  0  0  0  0  0  0  0  0
   22.9903   -4.8145  -14.0784 N   0  0  0  0  0  0  0  0  0  0  0  0
   23.8262   -4.8693  -15.1558 C   0  0  0  0  0  0  0  0  0  0  0  0
   24.8650   -4.0887  -15.5888 C   0  0  0  0  0  0  0  0  0  0  0  0
   25.5625   -4.4020  -16.7369 C   0  0  0  0  0  0  0  0  0  0  0  0
   25.2088   -5.5197  -17.4617 C   0  0  0  0  0  0  0  0  0  0  0  0
   24.1801   -6.3017  -17.0433 C   0  0  0  0  0  0  0  0  0  0  0  0
   23.4673   -5.9927  -15.8829 C   0  0  0  0  0  0  0  0  0  0  0  0
   19.4909   -6.9965  -14.7821 C   0  0  0  0  0  0  0  0  0  0  0  0
   19.4060   -6.1851  -13.6523 O   0  0  0  0  0  0  0  0  0  0  0  0
   18.7036   -6.7313  -15.7276 O   0  0  0  0  0  0  0  0  0  0  0  0
  2  1  1  6
  2  9  1  0
  2  3  1  0
  3  4  1  0
  4  5  2  0
  5  6  1  0
  7  6  1  0
  8  4  1  0
  8  7  2  0
  9 10  2  0
 11 12  1  0
 11  9  1  0
 12 13  1  1
 13 14  1  0
 14 15  1  0
 15 16  2  0
 15 19  1  0
 17 12  1  0
 18 17  2  0
 20 17  1  0
 21 22  1  6
 21 20  1  0
 22 23  1  0
 23 31  1  0
 24 23  2  0
 24 25  1  0
 25 26  1  0
 26 27  1  0
 27 28  2  0
 29 28  1  0
 30 29  2  0
 31 26  2  0
 31 30  1  0
 32 33  1  0
 32 21  1  0
 34 32  2  0
M  END
$$$$
