AEG.pdb
     RDKit          3D

 19 18  0  0  1  0  0  0  0  0999 V2000
   26.3775  -10.4007  -14.9064 C   0  0  0  0  0  0  0  0  0  0  0  0
   25.1877  -10.9907  -15.6455 C   0  0  2  0  0  0  0  0  0  0  0  0
   25.5907  -11.5089  -16.9376 N   0  0  0  0  0  0  0  0  0  0  0  0
   24.1756   -9.9385  -15.8367 C   0  0  0  0  0  0  0  0  0  0  0  0
   24.2611   -9.1800  -16.8304 O   0  0  0  0  0  0  0  0  0  0  0  0
   23.0848   -9.7524  -14.9127 N   0  0  0  0  0  0  0  0  0  0  0  0
   22.0673   -8.8002  -15.2544 C   0  0  1  0  0  0  0  0  0  0  0  0
   20.7149   -9.4043  -15.4322 C   0  0  0  0  0  0  0  0  0  0  0  0
   19.6954   -8.4433  -15.9899 C   0  0  0  0  0  0  0  0  0  0  0  0
   18.4069   -9.1796  -16.0900 C   0  0  0  0  0  0  0  0  0  0  0  0
   18.2456  -10.3508  -15.6519 O   0  0  0  0  0  0  0  0  0  0  0  0
   21.9358   -7.7442  -14.1868 C   0  0  0  0  0  0  0  0  0  0  0  0
   21.9265   -8.0191  -12.9654 O   0  0  0  0  0  0  0  0  0  0  0  0
   17.3033   -8.5871  -16.6856 O   0  0  0  0  0  0  0  0  0  0  0  0
   21.8179   -6.3812  -14.5629 N   0  0  0  0  0  0  0  0  0  0  0  0
   21.7194   -5.3124  -13.6114 C   0  0  0  0  0  0  0  0  0  0  0  0
   21.7149   -4.0313  -14.3367 C   0  0  0  0  0  0  0  0  0  0  0  0
   21.8156   -4.0109  -15.7040 O   0  0  0  0  0  0  0  0  0  0  0  0
   21.6190   -2.9660  -13.6991 O   0  0  0  0  0  0  0  0  0  0  0  0
  2  1  1  6
  2  4  1  0
  2  3  1  0
  4  5  2  0
  6  4  1  0
  7  6  1  0
  7  8  1  1
  9  8  1  0
 10  9  1  0
 11 10  2  0
 12  7  1  0
 13 12  2  0
 14 10  1  0
 15 12  1  0
 16 15  1  0
 17 16  1  0
 18 17  1  0
 19 17  2  0
M  END
$$$$
