AEG.pdb
     RDKit          3D

 19 18  0  0  1  0  0  0  0  0999 V2000
   20.9061  -11.7440  -18.6066 C   0  0  0  0  0  0  0  0  0  0  0  0
   20.1230  -10.8507  -17.6586 C   0  0  2  0  0  0  0  0  0  0  0  0
   18.7060  -10.9001  -17.9584 N   0  0  0  0  0  0  0  0  0  0  0  0
   20.6033   -9.4662  -17.8020 C   0  0  0  0  0  0  0  0  0  0  0  0
   20.9152   -9.0410  -18.9386 O   0  0  0  0  0  0  0  0  0  0  0  0
   20.7269   -8.5805  -16.6712 N   0  0  0  0  0  0  0  0  0  0  0  0
   21.0582   -7.2075  -16.9236 C   0  0  1  0  0  0  0  0  0  0  0  0
   20.3394   -6.2442  -16.0400 C   0  0  0  0  0  0  0  0  0  0  0  0
   18.8428   -6.2601  -16.2245 C   0  0  0  0  0  0  0  0  0  0  0  0
   18.2339   -5.9754  -14.8977 C   0  0  0  0  0  0  0  0  0  0  0  0
   18.9103   -5.6593  -13.8816 O   0  0  0  0  0  0  0  0  0  0  0  0
   22.5325   -6.9630  -16.7266 C   0  0  0  0  0  0  0  0  0  0  0  0
   23.0561   -5.8376  -16.8901 O   0  0  0  0  0  0  0  0  0  0  0  0
   16.8597   -6.0490  -14.7247 O   0  0  0  0  0  0  0  0  0  0  0  0
   23.3736   -8.0385  -16.3402 N   0  0  0  0  0  0  0  0  0  0  0  0
   24.7999   -7.9210  -16.2441 C   0  0  0  0  0  0  0  0  0  0  0  0
   25.3620   -9.2387  -15.9047 C   0  0  0  0  0  0  0  0  0  0  0  0
   24.5365  -10.3217  -15.7448 O   0  0  0  0  0  0  0  0  0  0  0  0
   26.5930   -9.3624  -15.7641 O   0  0  0  0  0  0  0  0  0  0  0  0
  2  1  1  6
  2  4  1  0
  2  3  1  0
  4  5  2  0
  6  4  1  0
  7  6  1  0
  7  8  1  1
  9  8  1  0
 10  9  1  0
 11 10  2  0
 12  7  1  0
 13 12  2  0
 14 10  1  0
 15 12  1  0
 16 15  1  0
 17 16  1  0
 18 17  1  0
 19 17  2  0
M  END
$$$$
