AEG.pdb
     RDKit          3D

 19 18  0  0  1  0  0  0  0  0999 V2000
   15.5374   -9.1676  -14.2906 C   0  0  0  0  0  0  0  0  0  0  0  0
   16.3481  -10.2082  -15.0454 C   0  0  2  0  0  0  0  0  0  0  0  0
   16.0898  -11.5365  -14.5266 N   0  0  0  0  0  0  0  0  0  0  0  0
   17.7796   -9.8971  -14.8969 C   0  0  0  0  0  0  0  0  0  0  0  0
   18.4306  -10.4363  -13.9720 O   0  0  0  0  0  0  0  0  0  0  0  0
   18.4588   -8.9876  -15.7856 N   0  0  0  0  0  0  0  0  0  0  0  0
   19.8742   -8.8174  -15.6230 C   0  0  1  0  0  0  0  0  0  0  0  0
   20.6133   -8.6718  -16.9105 C   0  0  0  0  0  0  0  0  0  0  0  0
   20.5026   -9.8789  -17.8076 C   0  0  0  0  0  0  0  0  0  0  0  0
   21.1170   -9.5141  -19.1122 C   0  0  0  0  0  0  0  0  0  0  0  0
   20.5464   -9.7033  -20.2205 O   0  0  0  0  0  0  0  0  0  0  0  0
   20.1797   -7.5895  -14.8038 C   0  0  0  0  0  0  0  0  0  0  0  0
   19.4233   -6.5921  -14.7780 O   0  0  0  0  0  0  0  0  0  0  0  0
   22.3764   -8.9350  -19.1585 O   0  0  0  0  0  0  0  0  0  0  0  0
   21.3654   -7.5458  -14.0258 N   0  0  0  0  0  0  0  0  0  0  0  0
   21.7085   -6.4365  -13.1837 C   0  0  0  0  0  0  0  0  0  0  0  0
   22.1131   -5.3042  -14.0333 C   0  0  0  0  0  0  0  0  0  0  0  0
   22.5770   -4.1455  -13.4655 O   0  0  0  0  0  0  0  0  0  0  0  0
   22.0309   -5.4066  -15.2715 O   0  0  0  0  0  0  0  0  0  0  0  0
  2  1  1  1
  2  4  1  0
  2  3  1  0
  4  5  2  0
  6  4  1  0
  7  6  1  0
  7  8  1  6
  9  8  1  0
 10  9  1  0
 11 10  2  0
 12  7  1  0
 13 12  2  0
 14 10  1  0
 15 12  1  0
 16 15  1  0
 17 16  1  0
 18 17  1  0
 19 17  2  0
M  END
$$$$
