AEG.pdb
     RDKit          3D

 19 18  0  0  1  0  0  0  0  0999 V2000
   19.4426  -10.9005  -18.6128 C   0  0  0  0  0  0  0  0  0  0  0  0
   20.7818  -11.5911  -18.4137 C   0  0  2  0  0  0  0  0  0  0  0  0
   20.5945  -12.9854  -18.0656 N   0  0  0  0  0  0  0  0  0  0  0  0
   21.5120  -10.9123  -17.3301 C   0  0  0  0  0  0  0  0  0  0  0  0
   21.0743  -10.9840  -16.1583 O   0  0  0  0  0  0  0  0  0  0  0  0
   22.7197  -10.1643  -17.5759 N   0  0  0  0  0  0  0  0  0  0  0  0
   23.3821   -9.5659  -16.4525 C   0  0  1  0  0  0  0  0  0  0  0  0
   24.8452   -9.8515  -16.3963 C   0  0  0  0  0  0  0  0  0  0  0  0
   25.1661  -11.3134  -16.2119 C   0  0  0  0  0  0  0  0  0  0  0  0
   26.6442  -11.4530  -16.3013 C   0  0  0  0  0  0  0  0  0  0  0  0
   27.2675  -11.5040  -17.3961 O   0  0  0  0  0  0  0  0  0  0  0  0
   23.2312   -8.0663  -16.4729 C   0  0  0  0  0  0  0  0  0  0  0  0
   23.5759   -7.3682  -17.4535 O   0  0  0  0  0  0  0  0  0  0  0  0
   27.4134  -11.5338  -15.1500 O   0  0  0  0  0  0  0  0  0  0  0  0
   22.6787   -7.4042  -15.3462 N   0  0  0  0  0  0  0  0  0  0  0  0
   22.5905   -5.9763  -15.2430 C   0  0  0  0  0  0  0  0  0  0  0  0
   21.9397   -5.6327  -13.9679 C   0  0  0  0  0  0  0  0  0  0  0  0
   22.6954   -5.2813  -12.8790 O   0  0  0  0  0  0  0  0  0  0  0  0
   20.6976   -5.6636  -13.8855 O   0  0  0  0  0  0  0  0  0  0  0  0
  2  1  1  1
  2  4  1  0
  2  3  1  0
  4  5  2  0
  6  4  1  0
  7  6  1  0
  7  8  1  6
  9  8  1  0
 10  9  1  0
 11 10  2  0
 12  7  1  0
 13 12  2  0
 14 10  1  0
 15 12  1  0
 16 15  1  0
 17 16  1  0
 18 17  1  0
 19 17  2  0
M  END
$$$$
