AEG.pdb
     RDKit          3D

 19 18  0  0  1  0  0  0  0  0999 V2000
   24.3757  -11.0763  -15.1986 C   0  0  0  0  0  0  0  0  0  0  0  0
   23.3497  -11.3449  -16.2873 C   0  0  2  0  0  0  0  0  0  0  0  0
   23.9972  -11.5210  -17.5718 N   0  0  0  0  0  0  0  0  0  0  0  0
   22.4230  -10.2030  -16.3614 C   0  0  0  0  0  0  0  0  0  0  0  0
   22.6854   -9.2506  -17.1320 O   0  0  0  0  0  0  0  0  0  0  0  0
   21.2183  -10.1458  -15.5716 N   0  0  0  0  0  0  0  0  0  0  0  0
   20.3101   -9.0598  -15.8055 C   0  0  1  0  0  0  0  0  0  0  0  0
   18.8754   -9.4283  -15.6289 C   0  0  0  0  0  0  0  0  0  0  0  0
   18.4256  -10.5466  -16.5351 C   0  0  0  0  0  0  0  0  0  0  0  0
   18.6082  -11.8187  -15.7863 C   0  0  0  0  0  0  0  0  0  0  0  0
   19.3300  -12.7659  -16.2008 O   0  0  0  0  0  0  0  0  0  0  0  0
   20.5848   -7.9144  -14.8650 C   0  0  0  0  0  0  0  0  0  0  0  0
   20.8410   -8.0861  -13.6516 O   0  0  0  0  0  0  0  0  0  0  0  0
   17.9733  -12.0150  -14.5690 O   0  0  0  0  0  0  0  0  0  0  0  0
   20.5566   -6.5839  -15.3573 N   0  0  0  0  0  0  0  0  0  0  0  0
   20.6756   -5.4331  -14.5095 C   0  0  0  0  0  0  0  0  0  0  0  0
   22.0973   -5.0642  -14.4082 C   0  0  0  0  0  0  0  0  0  0  0  0
   23.0508   -5.8017  -15.0616 O   0  0  0  0  0  0  0  0  0  0  0  0
   22.4274   -4.0772  -13.7246 O   0  0  0  0  0  0  0  0  0  0  0  0
  2  1  1  1
  2  4  1  0
  2  3  1  0
  4  5  2  0
  6  4  1  0
  7  6  1  0
  7  8  1  1
  9  8  1  0
 10  9  1  0
 11 10  2  0
 12  7  1  0
 13 12  2  0
 14 10  1  0
 15 12  1  0
 16 15  1  0
 17 16  1  0
 18 17  1  0
 19 17  2  0
M  END
$$$$
