AEG.pdb
     RDKit          3D

 19 18  0  0  1  0  0  0  0  0999 V2000
   26.4301  -10.4741  -15.0271 C   0  0  0  0  0  0  0  0  0  0  0  0
   25.2482  -10.9158  -15.8745 C   0  0  2  0  0  0  0  0  0  0  0  0
   25.6830  -11.3013  -17.2021 N   0  0  0  0  0  0  0  0  0  0  0  0
   24.2933   -9.7999  -15.9795 C   0  0  0  0  0  0  0  0  0  0  0  0
   24.5037   -8.8906  -16.8155 O   0  0  0  0  0  0  0  0  0  0  0  0
   23.1190   -9.7198  -15.1470 N   0  0  0  0  0  0  0  0  0  0  0  0
   22.1977   -8.6454  -15.3828 C   0  0  1  0  0  0  0  0  0  0  0  0
   20.7688   -9.0734  -15.4033 C   0  0  0  0  0  0  0  0  0  0  0  0
   20.4419  -10.0252  -16.5264 C   0  0  0  0  0  0  0  0  0  0  0  0
   19.1246  -10.6399  -16.2115 C   0  0  0  0  0  0  0  0  0  0  0  0
   18.0542  -10.3131  -16.7921 O   0  0  0  0  0  0  0  0  0  0  0  0
   22.3200   -7.5859  -14.3177 C   0  0  0  0  0  0  0  0  0  0  0  0
   22.4373   -7.8632  -13.1025 O   0  0  0  0  0  0  0  0  0  0  0  0
   19.0228  -11.6242  -15.2397 O   0  0  0  0  0  0  0  0  0  0  0  0
   22.3042   -6.2165  -14.6892 N   0  0  0  0  0  0  0  0  0  0  0  0
   22.3528   -5.1463  -13.7356 C   0  0  0  0  0  0  0  0  0  0  0  0
   21.4650   -4.0643  -14.1921 C   0  0  0  0  0  0  0  0  0  0  0  0
   21.3550   -2.9073  -13.4644 O   0  0  0  0  0  0  0  0  0  0  0  0
   20.8146   -4.2075  -15.2442 O   0  0  0  0  0  0  0  0  0  0  0  0
  2  1  1  1
  2  4  1  0
  2  3  1  0
  4  5  2  0
  6  4  1  0
  7  6  1  0
  7  8  1  1
  9  8  1  0
 10  9  1  0
 11 10  2  0
 12  7  1  0
 13 12  2  0
 14 10  1  0
 15 12  1  0
 16 15  1  0
 17 16  1  0
 18 17  1  0
 19 17  2  0
M  END
$$$$
