AEG.pdb
     RDKit          3D

 19 18  0  0  1  0  0  0  0  0999 V2000
   24.1125  -11.5430  -14.5397 C   0  0  0  0  0  0  0  0  0  0  0  0
   22.8140  -11.6005  -15.3273 C   0  0  2  0  0  0  0  0  0  0  0  0
   23.0362  -12.1626  -16.6445 N   0  0  0  0  0  0  0  0  0  0  0  0
   22.2784  -10.2357  -15.4641 C   0  0  0  0  0  0  0  0  0  0  0  0
   22.7542   -9.4762  -16.3397 O   0  0  0  0  0  0  0  0  0  0  0  0
   21.2195   -9.7435  -14.6186 N   0  0  0  0  0  0  0  0  0  0  0  0
   20.6749   -8.4476  -14.9062 C   0  0  1  0  0  0  0  0  0  0  0  0
   19.1836   -8.4115  -14.9150 C   0  0  0  0  0  0  0  0  0  0  0  0
   18.5710   -9.1479  -16.0798 C   0  0  0  0  0  0  0  0  0  0  0  0
   17.0945   -9.0223  -15.9508 C   0  0  0  0  0  0  0  0  0  0  0  0
   16.4478   -8.0240  -16.3689 O   0  0  0  0  0  0  0  0  0  0  0  0
   21.1293   -7.4331  -13.8881 C   0  0  0  0  0  0  0  0  0  0  0  0
   21.2766   -7.7141  -12.6769 O   0  0  0  0  0  0  0  0  0  0  0  0
   16.3535  -10.0285  -15.3490 O   0  0  0  0  0  0  0  0  0  0  0  0
   21.4057   -6.1041  -14.3012 N   0  0  0  0  0  0  0  0  0  0  0  0
   21.9051   -5.0959  -13.4116 C   0  0  0  0  0  0  0  0  0  0  0  0
   22.1625   -3.8686  -14.1830 C   0  0  0  0  0  0  0  0  0  0  0  0
   22.6064   -2.7356  -13.5512 O   0  0  0  0  0  0  0  0  0  0  0  0
   21.9740   -3.8672  -15.4138 O   0  0  0  0  0  0  0  0  0  0  0  0
  2  1  1  1
  2  4  1  0
  2  3  1  0
  4  5  2  0
  6  4  1  0
  7  6  1  0
  7  8  1  1
  9  8  1  0
 10  9  1  0
 11 10  2  0
 12  7  1  0
 13 12  2  0
 14 10  1  0
 15 12  1  0
 16 15  1  0
 17 16  1  0
 18 17  1  0
 19 17  2  0
M  END
$$$$
