AEG.pdb
     RDKit          3D

 19 18  0  0  1  0  0  0  0  0999 V2000
   20.0892  -11.6736  -20.1059 C   0  0  0  0  0  0  0  0  0  0  0  0
   21.1726  -11.2908  -19.1111 C   0  0  2  0  0  0  0  0  0  0  0  0
   21.5509  -12.4303  -18.2993 N   0  0  0  0  0  0  0  0  0  0  0  0
   20.6626  -10.2195  -18.2393 C   0  0  0  0  0  0  0  0  0  0  0  0
   20.3126   -9.1297  -18.7492 O   0  0  0  0  0  0  0  0  0  0  0  0
   20.5529  -10.3852  -16.8114 N   0  0  0  0  0  0  0  0  0  0  0  0
   20.0363   -9.2887  -16.0435 C   0  0  1  0  0  0  0  0  0  0  0  0
   18.9524   -9.6779  -15.0952 C   0  0  0  0  0  0  0  0  0  0  0  0
   17.5656   -9.4906  -15.6571 C   0  0  0  0  0  0  0  0  0  0  0  0
   16.8273  -10.7629  -15.4373 C   0  0  0  0  0  0  0  0  0  0  0  0
   17.1483  -11.6031  -14.5535 O   0  0  0  0  0  0  0  0  0  0  0  0
   21.1240   -8.6454  -15.2218 C   0  0  0  0  0  0  0  0  0  0  0  0
   22.0721   -9.2987  -14.7302 O   0  0  0  0  0  0  0  0  0  0  0  0
   15.7265  -11.0807  -16.2187 O   0  0  0  0  0  0  0  0  0  0  0  0
   21.0876   -7.2464  -14.9873 N   0  0  0  0  0  0  0  0  0  0  0  0
   22.0709   -6.5589  -14.2013 C   0  0  0  0  0  0  0  0  0  0  0  0
   21.6815   -5.1437  -14.0876 C   0  0  0  0  0  0  0  0  0  0  0  0
   22.3614   -4.3057  -13.2416 O   0  0  0  0  0  0  0  0  0  0  0  0
   20.7300   -4.7131  -14.7656 O   0  0  0  0  0  0  0  0  0  0  0  0
  2  1  1  6
  2  4  1  0
  2  3  1  0
  4  5  2  0
  6  4  1  0
  7  6  1  0
  7  8  1  1
  9  8  1  0
 10  9  1  0
 11 10  2  0
 12  7  1  0
 13 12  2  0
 14 10  1  0
 15 12  1  0
 16 15  1  0
 17 16  1  0
 18 17  1  0
 19 17  2  0
M  END
$$$$
