AEG.pdb
     RDKit          3D

 19 18  0  0  1  0  0  0  0  0999 V2000
   15.9228   -6.2886  -15.6650 C   0  0  0  0  0  0  0  0  0  0  0  0
   17.0523   -7.1727  -16.1676 C   0  0  2  0  0  0  0  0  0  0  0  0
   16.6667   -8.5693  -16.1319 N   0  0  0  0  0  0  0  0  0  0  0  0
   18.2329   -6.9712  -15.3110 C   0  0  0  0  0  0  0  0  0  0  0  0
   18.1173   -7.0972  -14.0698 O   0  0  0  0  0  0  0  0  0  0  0  0
   19.5230   -6.6318  -15.8576 N   0  0  0  0  0  0  0  0  0  0  0  0
   20.6321   -6.5290  -14.9532 C   0  0  1  0  0  0  0  0  0  0  0  0
   21.7451   -7.4744  -15.2580 C   0  0  0  0  0  0  0  0  0  0  0  0
   21.4678   -8.8909  -14.8212 C   0  0  0  0  0  0  0  0  0  0  0  0
   22.6315   -9.7159  -15.2424 C   0  0  0  0  0  0  0  0  0  0  0  0
   23.6934   -9.2230  -15.7107 O   0  0  0  0  0  0  0  0  0  0  0  0
   21.2205   -5.1414  -14.9761 C   0  0  0  0  0  0  0  0  0  0  0  0
   21.3413   -4.4787  -16.0314 O   0  0  0  0  0  0  0  0  0  0  0  0
   22.5902  -11.0978  -15.1317 O   0  0  0  0  0  0  0  0  0  0  0  0
   21.6587   -4.5481  -13.7640 N   0  0  0  0  0  0  0  0  0  0  0  0
   22.2743   -3.2540  -13.7038 C   0  0  0  0  0  0  0  0  0  0  0  0
   21.2207   -2.2262  -13.7370 C   0  0  0  0  0  0  0  0  0  0  0  0
   21.1654   -1.2617  -12.7640 O   0  0  0  0  0  0  0  0  0  0  0  0
   20.3799   -2.2394  -14.6553 O   0  0  0  0  0  0  0  0  0  0  0  0
  2  1  1  1
  2  4  1  0
  2  3  1  0
  4  5  2  0
  6  4  1  0
  7  6  1  0
  7  8  1  6
  9  8  1  0
 10  9  1  0
 11 10  2  0
 12  7  1  0
 13 12  2  0
 14 10  1  0
 15 12  1  0
 16 15  1  0
 17 16  1  0
 18 17  1  0
 19 17  2  0
M  END
$$$$
