AEG.pdb
     RDKit          3D

 19 18  0  0  1  0  0  0  0  0999 V2000
   21.6070  -20.2619  -17.1940 C   0  0  0  0  0  0  0  0  0  0  0  0
   22.0583  -19.5744  -15.9159 C   0  0  2  0  0  0  0  0  0  0  0  0
   22.6990  -18.3086  -16.2118 N   0  0  0  0  0  0  0  0  0  0  0  0
   23.0112  -20.4504  -15.2140 C   0  0  0  0  0  0  0  0  0  0  0  0
   22.6478  -21.5991  -14.8700 O   0  0  0  0  0  0  0  0  0  0  0  0
   24.3547  -20.0263  -14.9085 N   0  0  0  0  0  0  0  0  0  0  0  0
   25.2149  -20.9512  -14.2276 C   0  0  1  0  0  0  0  0  0  0  0  0
   26.5437  -21.1286  -14.8821 C   0  0  0  0  0  0  0  0  0  0  0  0
   26.4701  -21.8398  -16.2099 C   0  0  0  0  0  0  0  0  0  0  0  0
   27.8636  -21.9792  -16.7109 C   0  0  0  0  0  0  0  0  0  0  0  0
   28.8633  -21.4961  -16.1134 O   0  0  0  0  0  0  0  0  0  0  0  0
   25.4820  -20.4999  -12.8145 C   0  0  0  0  0  0  0  0  0  0  0  0
   25.6206  -19.2940  -12.5076 O   0  0  0  0  0  0  0  0  0  0  0  0
   28.1218  -22.6662  -17.8878 O   0  0  0  0  0  0  0  0  0  0  0  0
   25.5825  -21.4656  -11.7798 N   0  0  0  0  0  0  0  0  0  0  0  0
   25.7682  -21.1184  -10.4005 C   0  0  0  0  0  0  0  0  0  0  0  0
   24.4492  -20.8900   -9.7878 C   0  0  0  0  0  0  0  0  0  0  0  0
   24.3475  -20.6174   -8.4478 O   0  0  0  0  0  0  0  0  0  0  0  0
   23.4263  -20.9460  -10.4956 O   0  0  0  0  0  0  0  0  0  0  0  0
  2  1  1  6
  2  4  1  0
  2  3  1  0
  4  5  2  0
  6  4  1  0
  7  6  1  0
  7  8  1  6
  9  8  1  0
 10  9  1  0
 11 10  2  0
 12  7  1  0
 13 12  2  0
 14 10  1  0
 15 12  1  0
 16 15  1  0
 17 16  1  0
 18 17  1  0
 19 17  2  0
M  END
$$$$
