AEG.pdb
     RDKit          3D

 19 18  0  0  1  0  0  0  0  0999 V2000
   25.4511  -33.3595  -12.5634 C   0  0  0  0  0  0  0  0  0  0  0  0
   24.0347  -33.5391  -12.0423 C   0  0  2  0  0  0  0  0  0  0  0  0
   23.1133  -32.6718  -12.7489 N   0  0  0  0  0  0  0  0  0  0  0  0
   24.0094  -33.2108  -10.6072 C   0  0  0  0  0  0  0  0  0  0  0  0
   23.7384  -32.0404  -10.2515 O   0  0  0  0  0  0  0  0  0  0  0  0
   24.2880  -34.1978   -9.5939 N   0  0  0  0  0  0  0  0  0  0  0  0
   24.2193  -33.7907   -8.2197 C   0  0  1  0  0  0  0  0  0  0  0  0
   23.1470  -34.4779   -7.4429 C   0  0  0  0  0  0  0  0  0  0  0  0
   21.7621  -33.9621   -7.7431 C   0  0  0  0  0  0  0  0  0  0  0  0
   21.3708  -33.0733   -6.6165 C   0  0  0  0  0  0  0  0  0  0  0  0
   22.0563  -32.9491   -5.5655 O   0  0  0  0  0  0  0  0  0  0  0  0
   25.5190  -34.0690   -7.5087 C   0  0  0  0  0  0  0  0  0  0  0  0
   26.4305  -34.7599   -8.0179 O   0  0  0  0  0  0  0  0  0  0  0  0
   20.2040  -32.3266   -6.6830 O   0  0  0  0  0  0  0  0  0  0  0  0
   25.7345  -33.5344   -6.2121 N   0  0  0  0  0  0  0  0  0  0  0  0
   26.9556  -33.7188   -5.4826 C   0  0  0  0  0  0  0  0  0  0  0  0
   26.8381  -33.0383   -4.1824 C   0  0  0  0  0  0  0  0  0  0  0  0
   27.8506  -33.1269   -3.2621 O   0  0  0  0  0  0  0  0  0  0  0  0
   25.8122  -32.3814   -3.9247 O   0  0  0  0  0  0  0  0  0  0  0  0
  2  1  1  6
  2  4  1  0
  2  3  1  0
  4  5  2  0
  6  4  1  0
  7  6  1  0
  7  8  1  1
  9  8  1  0
 10  9  1  0
 11 10  2  0
 12  7  1  0
 13 12  2  0
 14 10  1  0
 15 12  1  0
 16 15  1  0
 17 16  1  0
 18 17  1  0
 19 17  2  0
M  END
$$$$
