AEG.pdb
     RDKit          3D

 19 18  0  0  1  0  0  0  0  0999 V2000
   14.3134  -12.1282  -11.5306 C   0  0  0  0  0  0  0  0  0  0  0  0
   13.6927  -11.2739  -10.4375 C   0  0  2  0  0  0  0  0  0  0  0  0
   12.2581  -11.1729  -10.6163 N   0  0  0  0  0  0  0  0  0  0  0  0
   14.2861   -9.9274  -10.4899 C   0  0  0  0  0  0  0  0  0  0  0  0
   13.8139   -9.0806  -11.2835 O   0  0  0  0  0  0  0  0  0  0  0  0
   15.3984   -9.5509   -9.6535 N   0  0  0  0  0  0  0  0  0  0  0  0
   15.8881   -8.2055   -9.7488 C   0  0  1  0  0  0  0  0  0  0  0  0
   15.6499   -7.3916   -8.5215 C   0  0  0  0  0  0  0  0  0  0  0  0
   16.0940   -5.9567   -8.6557 C   0  0  0  0  0  0  0  0  0  0  0  0
   14.9190   -5.1020   -8.3380 C   0  0  0  0  0  0  0  0  0  0  0  0
   13.7953   -5.5689   -8.0077 O   0  0  0  0  0  0  0  0  0  0  0  0
   17.3741   -8.1886  -10.0013 C   0  0  0  0  0  0  0  0  0  0  0  0
   18.1943   -8.7372   -9.2307 O   0  0  0  0  0  0  0  0  0  0  0  0
   15.0195   -3.7198   -8.3944 O   0  0  0  0  0  0  0  0  0  0  0  0
   17.8797   -7.5306  -11.1522 N   0  0  0  0  0  0  0  0  0  0  0  0
   19.2729   -7.5093  -11.4928 C   0  0  0  0  0  0  0  0  0  0  0  0
   19.4405   -6.7727  -12.7564 C   0  0  0  0  0  0  0  0  0  0  0  0
   20.6934   -6.5599  -13.2712 O   0  0  0  0  0  0  0  0  0  0  0  0
   18.4359   -6.3443  -13.3544 O   0  0  0  0  0  0  0  0  0  0  0  0
  2  1  1  6
  2  4  1  0
  2  3  1  0
  4  5  2  0
  6  4  1  0
  7  6  1  0
  7  8  1  1
  9  8  1  0
 10  9  1  0
 11 10  2  0
 12  7  1  0
 13 12  2  0
 14 10  1  0
 15 12  1  0
 16 15  1  0
 17 16  1  0
 18 17  1  0
 19 17  2  0
M  END
$$$$
