AEG.pdb
     RDKit          3D

 19 18  0  0  1  0  0  0  0  0999 V2000
   23.2842  -12.3802  -19.3344 C   0  0  0  0  0  0  0  0  0  0  0  0
   23.6567  -11.7708  -17.9928 C   0  0  2  0  0  0  0  0  0  0  0  0
   23.3099  -12.6663  -16.9074 N   0  0  0  0  0  0  0  0  0  0  0  0
   22.9301  -10.5008  -17.8277 C   0  0  0  0  0  0  0  0  0  0  0  0
   23.0864   -9.5913  -18.6752 O   0  0  0  0  0  0  0  0  0  0  0  0
   22.0408  -10.2696  -16.7168 N   0  0  0  0  0  0  0  0  0  0  0  0
   21.4110   -8.9845  -16.6139 C   0  0  1  0  0  0  0  0  0  0  0  0
   19.9283   -9.0528  -16.4649 C   0  0  0  0  0  0  0  0  0  0  0  0
   19.2813  -10.0855  -17.3532 C   0  0  0  0  0  0  0  0  0  0  0  0
   18.6869  -11.1190  -16.4639 C   0  0  0  0  0  0  0  0  0  0  0  0
   17.6058  -10.9510  -15.8371 O   0  0  0  0  0  0  0  0  0  0  0  0
   21.9338   -8.2208  -15.4242 C   0  0  0  0  0  0  0  0  0  0  0  0
   22.1323   -8.7604  -14.3120 O   0  0  0  0  0  0  0  0  0  0  0  0
   19.3182  -12.3412  -16.2869 O   0  0  0  0  0  0  0  0  0  0  0  0
   22.2178   -6.8365  -15.5523 N   0  0  0  0  0  0  0  0  0  0  0  0
   22.9034   -6.0817  -14.5436 C   0  0  0  0  0  0  0  0  0  0  0  0
   21.9749   -5.0855  -13.9842 C   0  0  0  0  0  0  0  0  0  0  0  0
   22.4101   -4.1858  -13.0455 O   0  0  0  0  0  0  0  0  0  0  0  0
   20.7912   -5.0661  -14.3699 O   0  0  0  0  0  0  0  0  0  0  0  0
  2  1  1  6
  2  4  1  0
  2  3  1  0
  4  5  2  0
  6  4  1  0
  7  6  1  0
  7  8  1  1
  9  8  1  0
 10  9  1  0
 11 10  2  0
 12  7  1  0
 13 12  2  0
 14 10  1  0
 15 12  1  0
 16 15  1  0
 17 16  1  0
 18 17  1  0
 19 17  2  0
M  END
$$$$
