MFP.pdb
     RDKit          3D

 27 28  0  0  1  0  0  0  0  0999 V2000
   25.1613  -19.6677  -20.7665 C   0  0  0  0  0  0  0  0  0  0  0  0
   26.8429  -19.0627  -21.1429 S   0  0  0  0  0  0  0  0  0  0  0  0
   27.9678  -19.7508  -19.9317 C   0  0  0  0  0  0  0  0  0  0  0  0
   27.2682  -20.3410  -18.7238 C   0  0  0  0  0  0  0  0  0  0  0  0
   28.2665  -20.7676  -17.6821 C   0  0  2  0  0  0  0  0  0  0  0  0
   28.9893  -21.9067  -18.2156 N   0  0  0  0  0  0  0  0  0  0  0  0
   27.6975  -21.1354  -16.3926 C   0  0  0  0  0  0  0  0  0  0  0  0
   27.0589  -22.2207  -16.2501 O   0  0  0  0  0  0  0  0  0  0  0  0
   27.8001  -20.3402  -15.2097 N   0  0  0  0  0  0  0  0  0  0  0  0
   27.0473  -20.5843  -14.0018 C   0  0  1  0  0  0  0  0  0  0  0  0
   27.7210  -20.0278  -12.7936 C   0  0  0  0  0  0  0  0  0  0  0  0
   26.9402  -20.3071  -11.5786 C   0  0  0  0  0  0  0  0  0  0  0  0
   26.0216  -19.3327  -11.1729 C   0  0  0  0  0  0  0  0  0  0  0  0
   25.2108  -19.4729  -10.0849 C   0  0  0  0  0  0  0  0  0  0  0  0
   25.3021  -20.6339   -9.3488 C   0  0  0  0  0  0  0  0  0  0  0  0
   26.2101  -21.6063   -9.7431 C   0  0  0  0  0  0  0  0  0  0  0  0
   27.0298  -21.4700  -10.8391 C   0  0  0  0  0  0  0  0  0  0  0  0
   25.6172  -20.3141  -14.0717 C   0  0  0  0  0  0  0  0  0  0  0  0
   25.2716  -19.0886  -14.2934 O   0  0  0  0  0  0  0  0  0  0  0  0
   24.5357  -21.2052  -13.9299 N   0  0  0  0  0  0  0  0  0  0  0  0
   24.6033  -22.5971  -13.5992 C   0  0  0  0  0  0  0  0  0  0  0  0
   23.1610  -23.1357  -13.6967 C   0  0  0  0  0  0  0  0  0  0  0  0
   22.5133  -22.1031  -14.6330 C   0  0  0  0  0  0  0  0  0  0  0  0
   23.1521  -20.8464  -14.0961 C   0  0  1  0  0  0  0  0  0  0  0  0
   22.4880  -20.5562  -12.7989 C   0  0  0  0  0  0  0  0  0  0  0  0
   22.9895  -20.8007  -11.6786 O   0  0  0  0  0  0  0  0  0  0  0  0
   21.2274  -19.9748  -12.8565 O   0  0  0  0  0  0  0  0  0  0  0  0
  2  1  1  0
  3  2  1  0
  3  4  1  0
  4  5  1  0
  5  6  1  6
  7  5  1  0
  7  8  2  0
  9  7  1  0
 10  9  1  0
 10 11  1  1
 12 13  2  0
 12 11  1  0
 14 13  1  0
 15 14  2  0
 16 15  1  0
 16 17  2  0
 17 12  1  0
 18 10  1  0
 19 18  2  0
 20 18  1  0
 20 24  1  0
 21 20  1  0
 22 21  1  0
 22 23  1  0
 23 24  1  0
 24 25  1  1
 25 27  1  0
 26 25  2  0
M  END
$$$$
