MFP.pdb
     RDKit          3D

 27 28  0  0  1  0  0  0  0  0999 V2000
   38.4251  -29.5168    6.2358 C   0  0  0  0  0  0  0  0  0  0  0  0
   39.7303  -28.9051    5.1142 S   0  0  0  0  0  0  0  0  0  0  0  0
   39.2049  -27.3250    4.4558 C   0  0  0  0  0  0  0  0  0  0  0  0
   38.5815  -26.4145    5.4946 C   0  0  0  0  0  0  0  0  0  0  0  0
   38.1351  -25.1192    4.8728 C   0  0  2  0  0  0  0  0  0  0  0  0
   39.3220  -24.3169    4.6439 N   0  0  0  0  0  0  0  0  0  0  0  0
   37.1909  -24.3442    5.6662 C   0  0  0  0  0  0  0  0  0  0  0  0
   37.5984  -23.5009    6.5200 O   0  0  0  0  0  0  0  0  0  0  0  0
   35.7699  -24.4543    5.5629 N   0  0  0  0  0  0  0  0  0  0  0  0
   34.8382  -23.6582    6.3268 C   0  0  1  0  0  0  0  0  0  0  0  0
   33.4745  -23.6500    5.7237 C   0  0  0  0  0  0  0  0  0  0  0  0
   33.1392  -22.3185    5.1958 C   0  0  0  0  0  0  0  0  0  0  0  0
   33.4400  -22.0709    3.8520 C   0  0  0  0  0  0  0  0  0  0  0  0
   33.1561  -20.8936    3.2243 C   0  0  0  0  0  0  0  0  0  0  0  0
   32.5417  -19.8982    3.9521 C   0  0  0  0  0  0  0  0  0  0  0  0
   32.2392  -20.1340    5.2856 C   0  0  0  0  0  0  0  0  0  0  0  0
   32.5232  -21.3191    5.9233 C   0  0  0  0  0  0  0  0  0  0  0  0
   34.8569  -23.8577    7.7700 C   0  0  0  0  0  0  0  0  0  0  0  0
   34.9377  -25.0799    8.1827 O   0  0  0  0  0  0  0  0  0  0  0  0
   34.7975  -22.9000    8.8011 N   0  0  0  0  0  0  0  0  0  0  0  0
   34.6478  -21.4833    8.6541 C   0  0  0  0  0  0  0  0  0  0  0  0
   34.7706  -20.8857   10.0711 C   0  0  0  0  0  0  0  0  0  0  0  0
   35.5494  -21.9916   10.8012 C   0  0  0  0  0  0  0  0  0  0  0  0
   34.8765  -23.2033   10.2056 C   0  0  1  0  0  0  0  0  0  0  0  0
   33.5342  -23.2937   10.8365 C   0  0  0  0  0  0  0  0  0  0  0  0
   32.4586  -23.0470   10.2463 O   0  0  0  0  0  0  0  0  0  0  0  0
   33.4935  -23.6795   12.1706 O   0  0  0  0  0  0  0  0  0  0  0  0
  2  1  1  0
  3  2  1  0
  3  4  1  0
  4  5  1  0
  5  6  1  1
  7  5  1  0
  7  8  2  0
  9  7  1  0
 10  9  1  0
 10 11  1  6
 12 13  2  0
 12 11  1  0
 14 13  1  0
 15 14  2  0
 16 15  1  0
 16 17  2  0
 17 12  1  0
 18 10  1  0
 19 18  2  0
 20 18  1  0
 20 24  1  0
 21 20  1  0
 22 21  1  0
 22 23  1  0
 23 24  1  0
 24 25  1  1
 25 27  1  0
 26 25  2  0
M  END
$$$$
