MFP.pdb
     RDKit          3D

 27 28  0  0  1  0  0  0  0  0999 V2000
   29.3145  -21.2904  -15.7715 C   0  0  0  0  0  0  0  0  0  0  0  0
   28.4576  -22.8872  -15.5437 S   0  0  0  0  0  0  0  0  0  0  0  0
   26.9810  -22.5947  -14.5740 C   0  0  0  0  0  0  0  0  0  0  0  0
   27.1487  -21.5092  -13.5299 C   0  0  0  0  0  0  0  0  0  0  0  0
   25.8984  -21.3606  -12.7063 C   0  0  2  0  0  0  0  0  0  0  0  0
   24.8593  -20.8555  -13.5837 N   0  0  0  0  0  0  0  0  0  0  0  0
   26.0151  -20.4723  -11.5577 C   0  0  0  0  0  0  0  0  0  0  0  0
   26.1151  -19.2186  -11.7136 O   0  0  0  0  0  0  0  0  0  0  0  0
   26.0272  -20.9105  -10.1976 N   0  0  0  0  0  0  0  0  0  0  0  0
   26.2230  -20.0346   -9.0662 C   0  0  1  0  0  0  0  0  0  0  0  0
   24.9757  -19.3088   -8.6908 C   0  0  0  0  0  0  0  0  0  0  0  0
   23.8696  -20.2491   -8.4531 C   0  0  0  0  0  0  0  0  0  0  0  0
   22.9529  -20.4317   -9.4943 C   0  0  0  0  0  0  0  0  0  0  0  0
   21.8989  -21.2945   -9.4231 C   0  0  0  0  0  0  0  0  0  0  0  0
   21.7295  -22.0229   -8.2661 C   0  0  0  0  0  0  0  0  0  0  0  0
   22.6333  -21.8490   -7.2277 C   0  0  0  0  0  0  0  0  0  0  0  0
   23.6977  -20.9805   -7.2943 C   0  0  0  0  0  0  0  0  0  0  0  0
   26.9548  -20.5970   -7.9388 C   0  0  0  0  0  0  0  0  0  0  0  0
   26.9680  -21.8859   -7.8445 O   0  0  0  0  0  0  0  0  0  0  0  0
   27.6616  -19.9333   -6.9171 N   0  0  0  0  0  0  0  0  0  0  0  0
   27.7213  -18.5210   -6.6875 C   0  0  0  0  0  0  0  0  0  0  0  0
   28.7243  -18.3119   -5.5341 C   0  0  0  0  0  0  0  0  0  0  0  0
   29.5567  -19.6013   -5.6175 C   0  0  0  0  0  0  0  0  0  0  0  0
   28.4551  -20.5891   -5.9115 C   0  0  1  0  0  0  0  0  0  0  0  0
   27.7072  -20.7780   -4.6416 C   0  0  0  0  0  0  0  0  0  0  0  0
   28.1769  -21.3293   -3.6209 O   0  0  0  0  0  0  0  0  0  0  0  0
   26.4017  -20.3039   -4.6066 O   0  0  0  0  0  0  0  0  0  0  0  0
  2  1  1  0
  3  2  1  0
  3  4  1  0
  4  5  1  0
  5  6  1  6
  7  5  1  0
  7  8  2  0
  9  7  1  0
 10  9  1  0
 10 11  1  1
 12 13  2  0
 12 11  1  0
 14 13  1  0
 15 14  2  0
 16 15  1  0
 16 17  2  0
 17 12  1  0
 18 10  1  0
 19 18  2  0
 20 18  1  0
 20 24  1  0
 21 20  1  0
 22 21  1  0
 22 23  1  0
 23 24  1  0
 24 25  1  1
 25 27  1  0
 26 25  2  0
M  END
$$$$
