MFP.pdb
     RDKit          3D

 27 28  0  0  1  0  0  0  0  0999 V2000
   22.1434  -18.5934  -13.0909 C   0  0  0  0  0  0  0  0  0  0  0  0
   22.3825  -20.2841  -13.7391 S   0  0  0  0  0  0  0  0  0  0  0  0
   24.0505  -20.8021  -13.3450 C   0  0  0  0  0  0  0  0  0  0  0  0
   24.4591  -20.4911  -11.9192 C   0  0  0  0  0  0  0  0  0  0  0  0
   25.9196  -20.7827  -11.7048 C   0  0  2  0  0  0  0  0  0  0  0  0
   26.2316  -21.9945  -12.4390 N   0  0  0  0  0  0  0  0  0  0  0  0
   26.3182  -20.9605  -10.3151 C   0  0  0  0  0  0  0  0  0  0  0  0
   26.2356  -22.0946   -9.7556 O   0  0  0  0  0  0  0  0  0  0  0  0
   26.8219  -19.9153   -9.4808 N   0  0  0  0  0  0  0  0  0  0  0  0
   27.2183  -20.0979   -8.1042 C   0  0  1  0  0  0  0  0  0  0  0  0
   28.3150  -19.1703   -7.7041 C   0  0  0  0  0  0  0  0  0  0  0  0
   28.7331  -19.4158   -6.3153 C   0  0  0  0  0  0  0  0  0  0  0  0
   28.2424  -18.5432   -5.3378 C   0  0  0  0  0  0  0  0  0  0  0  0
   28.5229  -18.6712   -4.0090 C   0  0  0  0  0  0  0  0  0  0  0  0
   29.3307  -19.7135   -3.6105 C   0  0  0  0  0  0  0  0  0  0  0  0
   29.8224  -20.5845   -4.5723 C   0  0  0  0  0  0  0  0  0  0  0  0
   29.5427  -20.4600   -5.9132 C   0  0  0  0  0  0  0  0  0  0  0  0
   26.1364  -20.2050   -7.1341 C   0  0  0  0  0  0  0  0  0  0  0  0
   25.2312  -19.2834   -7.1750 O   0  0  0  0  0  0  0  0  0  0  0  0
   25.9271  -21.1801   -6.1395 N   0  0  0  0  0  0  0  0  0  0  0  0
   26.8496  -22.1896   -5.7143 C   0  0  0  0  0  0  0  0  0  0  0  0
   26.0901  -23.0713   -4.7015 C   0  0  0  0  0  0  0  0  0  0  0  0
   24.6297  -22.7980   -5.0955 C   0  0  0  0  0  0  0  0  0  0  0  0
   24.7196  -21.3172   -5.3688 C   0  0  1  0  0  0  0  0  0  0  0  0
   24.8196  -20.6488   -4.0455 C   0  0  0  0  0  0  0  0  0  0  0  0
   25.8762  -20.1728   -3.5729 O   0  0  0  0  0  0  0  0  0  0  0  0
   23.6509  -20.5568   -3.2999 O   0  0  0  0  0  0  0  0  0  0  0  0
  2  1  1  0
  3  2  1  0
  3  4  1  0
  4  5  1  0
  5  6  1  6
  7  5  1  0
  7  8  2  0
  9  7  1  0
 10  9  1  0
 10 11  1  1
 12 13  2  0
 12 11  1  0
 14 13  1  0
 15 14  2  0
 16 15  1  0
 16 17  2  0
 17 12  1  0
 18 10  1  0
 19 18  2  0
 20 18  1  0
 20 24  1  0
 21 20  1  0
 22 21  1  0
 22 23  1  0
 23 24  1  0
 24 25  1  1
 25 27  1  0
 26 25  2  0
M  END
$$$$
