MFP.pdb
     RDKit          3D

 27 28  0  0  1  0  0  0  0  0999 V2000
   27.0043  -23.8807  -20.0992 C   0  0  0  0  0  0  0  0  0  0  0  0
   26.8158  -22.7168  -21.4941 S   0  0  0  0  0  0  0  0  0  0  0  0
   26.9636  -21.0508  -20.8547 C   0  0  0  0  0  0  0  0  0  0  0  0
   27.0819  -20.9911  -19.3450 C   0  0  0  0  0  0  0  0  0  0  0  0
   27.1702  -19.5660  -18.8707 C   0  0  2  0  0  0  0  0  0  0  0  0
   28.5154  -19.0995  -19.1489 N   0  0  0  0  0  0  0  0  0  0  0  0
   26.8875  -19.3654  -17.4559 C   0  0  0  0  0  0  0  0  0  0  0  0
   27.8240  -19.3494  -16.6022 O   0  0  0  0  0  0  0  0  0  0  0  0
   25.5790  -19.1740  -16.9144 N   0  0  0  0  0  0  0  0  0  0  0  0
   25.3069  -18.9489  -15.5141 C   0  0  1  0  0  0  0  0  0  0  0  0
   24.6026  -17.6564  -15.2759 C   0  0  0  0  0  0  0  0  0  0  0  0
   25.4811  -16.5145  -15.5731 C   0  0  0  0  0  0  0  0  0  0  0  0
   25.0721  -15.6424  -16.5879 C   0  0  0  0  0  0  0  0  0  0  0  0
   25.7721  -14.5279  -16.9466 C   0  0  0  0  0  0  0  0  0  0  0  0
   26.9415  -14.2479  -16.2742 C   0  0  0  0  0  0  0  0  0  0  0  0
   27.3556  -15.1066  -15.2661 C   0  0  0  0  0  0  0  0  0  0  0  0
   26.6537  -16.2315  -14.9005 C   0  0  0  0  0  0  0  0  0  0  0  0
   24.7560  -20.0792  -14.7779 C   0  0  0  0  0  0  0  0  0  0  0  0
   23.9717  -20.8688  -15.4350 O   0  0  0  0  0  0  0  0  0  0  0  0
   24.9534  -20.4454  -13.4323 N   0  0  0  0  0  0  0  0  0  0  0  0
   25.7053  -19.7298  -12.4455 C   0  0  0  0  0  0  0  0  0  0  0  0
   25.7149  -20.6153  -11.1823 C   0  0  0  0  0  0  0  0  0  0  0  0
   25.4423  -22.0040  -11.7823 C   0  0  0  0  0  0  0  0  0  0  0  0
   24.4118  -21.6287  -12.8180 C   0  0  1  0  0  0  0  0  0  0  0  0
   23.1525  -21.3514  -12.0796 C   0  0  0  0  0  0  0  0  0  0  0  0
   22.4329  -22.2310  -11.5556 O   0  0  0  0  0  0  0  0  0  0  0  0
   22.7668  -20.0206  -11.9760 O   0  0  0  0  0  0  0  0  0  0  0  0
  2  1  1  0
  3  2  1  0
  3  4  1  0
  4  5  1  0
  5  6  1  1
  7  5  1  0
  7  8  2  0
  9  7  1  0
 10  9  1  0
 10 11  1  6
 12 13  2  0
 12 11  1  0
 14 13  1  0
 15 14  2  0
 16 15  1  0
 16 17  2  0
 17 12  1  0
 18 10  1  0
 19 18  2  0
 20 18  1  0
 20 24  1  0
 21 20  1  0
 22 21  1  0
 22 23  1  0
 23 24  1  0
 24 25  1  1
 25 27  1  0
 26 25  2  0
M  END
$$$$
