MFP.pdb
     RDKit          3D

 27 28  0  0  1  0  0  0  0  0999 V2000
   22.0972  -22.5529  -12.0814 C   0  0  0  0  0  0  0  0  0  0  0  0
   22.2065  -21.4866  -13.5601 S   0  0  0  0  0  0  0  0  0  0  0  0
   23.4756  -20.2574  -13.2692 C   0  0  0  0  0  0  0  0  0  0  0  0
   24.5087  -20.6856  -12.2464 C   0  0  0  0  0  0  0  0  0  0  0  0
   25.4771  -19.5694  -11.9637 C   0  0  2  0  0  0  0  0  0  0  0  0
   26.2271  -19.3277  -13.1819 N   0  0  0  0  0  0  0  0  0  0  0  0
   26.4148  -19.8229  -10.8782 C   0  0  0  0  0  0  0  0  0  0  0  0
   27.5095  -20.4243  -11.0926 O   0  0  0  0  0  0  0  0  0  0  0  0
   26.2006  -19.4331   -9.5202 N   0  0  0  0  0  0  0  0  0  0  0  0
   27.1310  -19.6926   -8.4466 C   0  0  1  0  0  0  0  0  0  0  0  0
   26.7042  -19.0627   -7.1643 C   0  0  0  0  0  0  0  0  0  0  0  0
   27.7551  -19.1836   -6.1419 C   0  0  0  0  0  0  0  0  0  0  0  0
   27.8291  -20.3936   -5.4433 C   0  0  0  0  0  0  0  0  0  0  0  0
   28.7715  -20.6542   -4.4922 C   0  0  0  0  0  0  0  0  0  0  0  0
   29.6973  -19.6750   -4.2059 C   0  0  0  0  0  0  0  0  0  0  0  0
   29.6324  -18.4715   -4.8934 C   0  0  0  0  0  0  0  0  0  0  0  0
   28.6844  -18.2035   -5.8532 C   0  0  0  0  0  0  0  0  0  0  0  0
   27.5933  -21.0683   -8.3171 C   0  0  0  0  0  0  0  0  0  0  0  0
   26.6806  -21.9827   -8.2794 O   0  0  0  0  0  0  0  0  0  0  0  0
   28.9103  -21.5589   -8.2238 N   0  0  0  0  0  0  0  0  0  0  0  0
   30.1076  -20.7893   -8.0645 C   0  0  0  0  0  0  0  0  0  0  0  0
   31.2792  -21.7895   -8.1472 C   0  0  0  0  0  0  0  0  0  0  0  0
   30.6332  -22.9517   -8.9183 C   0  0  0  0  0  0  0  0  0  0  0  0
   29.2704  -22.9513   -8.2714 C   0  0  1  0  0  0  0  0  0  0  0  0
   29.4466  -23.5320   -6.9151 C   0  0  0  0  0  0  0  0  0  0  0  0
   29.2628  -22.9035   -5.8486 O   0  0  0  0  0  0  0  0  0  0  0  0
   29.8419  -24.8623   -6.8494 O   0  0  0  0  0  0  0  0  0  0  0  0
  2  1  1  0
  3  2  1  0
  3  4  1  0
  4  5  1  0
  5  6  1  6
  7  5  1  0
  7  8  2  0
  9  7  1  0
 10  9  1  0
 10 11  1  1
 12 13  2  0
 12 11  1  0
 14 13  1  0
 15 14  2  0
 16 15  1  0
 16 17  2  0
 17 12  1  0
 18 10  1  0
 19 18  2  0
 20 18  1  0
 20 24  1  0
 21 20  1  0
 22 21  1  0
 22 23  1  0
 23 24  1  0
 24 25  1  1
 25 27  1  0
 26 25  2  0
M  END
$$$$
