MFP.pdb
     RDKit          3D

 27 28  0  0  1  0  0  0  0  0999 V2000
   18.8478  -12.5022  -21.9119 C   0  0  0  0  0  0  0  0  0  0  0  0
   18.4377  -11.1186  -20.7924 S   0  0  0  0  0  0  0  0  0  0  0  0
   19.7027  -11.0298  -19.5283 C   0  0  0  0  0  0  0  0  0  0  0  0
   19.4340   -9.9713  -18.4775 C   0  0  0  0  0  0  0  0  0  0  0  0
   20.5903   -9.8602  -17.5213 C   0  0  2  0  0  0  0  0  0  0  0  0
   20.7551  -11.1552  -16.8886 N   0  0  0  0  0  0  0  0  0  0  0  0
   20.4419   -8.8473  -16.4850 C   0  0  0  0  0  0  0  0  0  0  0  0
   19.6017   -8.9950  -15.5478 O   0  0  0  0  0  0  0  0  0  0  0  0
   21.1996   -7.6372  -16.4260 N   0  0  0  0  0  0  0  0  0  0  0  0
   20.9965   -6.6017  -15.4401 C   0  0  1  0  0  0  0  0  0  0  0  0
   22.1165   -6.5285  -14.4584 C   0  0  0  0  0  0  0  0  0  0  0  0
   22.0833   -7.6725  -13.5342 C   0  0  0  0  0  0  0  0  0  0  0  0
   22.8923   -8.7700  -13.8485 C   0  0  0  0  0  0  0  0  0  0  0  0
   22.9833   -9.8834  -13.0658 C   0  0  0  0  0  0  0  0  0  0  0  0
   22.2401   -9.9283  -11.9067 C   0  0  0  0  0  0  0  0  0  0  0  0
   21.4346   -8.8449  -11.5861 C   0  0  0  0  0  0  0  0  0  0  0  0
   21.3392   -7.7199  -12.3716 C   0  0  0  0  0  0  0  0  0  0  0  0
   20.5565   -5.3092  -15.9488 C   0  0  0  0  0  0  0  0  0  0  0  0
   21.2883   -4.7713  -16.8684 O   0  0  0  0  0  0  0  0  0  0  0  0
   19.4329   -4.5440  -15.5800 N   0  0  0  0  0  0  0  0  0  0  0  0
   18.4444   -4.8811  -14.6000 C   0  0  0  0  0  0  0  0  0  0  0  0
   17.3687   -3.7776  -14.6729 C   0  0  0  0  0  0  0  0  0  0  0  0
   17.5859   -3.2345  -16.0943 C   0  0  0  0  0  0  0  0  0  0  0  0
   19.0933   -3.2642  -16.1435 C   0  0  1  0  0  0  0  0  0  0  0  0
   19.5657   -2.1363  -15.2994 C   0  0  0  0  0  0  0  0  0  0  0  0
   19.4061   -0.9276  -15.5822 O   0  0  0  0  0  0  0  0  0  0  0  0
   20.2258   -2.4678  -14.1226 O   0  0  0  0  0  0  0  0  0  0  0  0
  2  1  1  0
  3  2  1  0
  3  4  1  0
  4  5  1  0
  5  6  1  1
  7  5  1  0
  7  8  2  0
  9  7  1  0
 10  9  1  0
 10 11  1  6
 12 13  2  0
 12 11  1  0
 14 13  1  0
 15 14  2  0
 16 15  1  0
 16 17  2  0
 17 12  1  0
 18 10  1  0
 19 18  2  0
 20 18  1  0
 20 24  1  0
 21 20  1  0
 22 21  1  0
 22 23  1  0
 23 24  1  0
 24 25  1  1
 25 27  1  0
 26 25  2  0
M  END
$$$$
