MFP.pdb
     RDKit          3D

 27 28  0  0  1  0  0  0  0  0999 V2000
   37.1609  -28.3763    2.7556 C   0  0  0  0  0  0  0  0  0  0  0  0
   38.8684  -28.2073    3.3814 S   0  0  0  0  0  0  0  0  0  0  0  0
   39.1866  -26.4694    3.6724 C   0  0  0  0  0  0  0  0  0  0  0  0
   38.2797  -25.8560    4.7203 C   0  0  0  0  0  0  0  0  0  0  0  0
   38.4741  -24.3657    4.7909 C   0  0  2  0  0  0  0  0  0  0  0  0
   39.7442  -24.1254    5.4495 N   0  0  0  0  0  0  0  0  0  0  0  0
   37.4318  -23.6380    5.5021 C   0  0  0  0  0  0  0  0  0  0  0  0
   37.4856  -23.4897    6.7595 O   0  0  0  0  0  0  0  0  0  0  0  0
   36.2930  -23.0436    4.8762 N   0  0  0  0  0  0  0  0  0  0  0  0
   35.2755  -22.3017    5.5831 C   0  0  1  0  0  0  0  0  0  0  0  0
   34.4488  -21.4635    4.6680 C   0  0  0  0  0  0  0  0  0  0  0  0
   33.4614  -20.6758    5.4220 C   0  0  0  0  0  0  0  0  0  0  0  0
   33.8420  -19.3899    5.8214 C   0  0  0  0  0  0  0  0  0  0  0  0
   33.0176  -18.5398    6.4982 C   0  0  0  0  0  0  0  0  0  0  0  0
   31.7451  -18.9706    6.8036 C   0  0  0  0  0  0  0  0  0  0  0  0
   31.3580  -20.2442    6.4119 C   0  0  0  0  0  0  0  0  0  0  0  0
   32.1853  -21.1054    5.7293 C   0  0  0  0  0  0  0  0  0  0  0  0
   34.5094  -23.0473    6.5731 C   0  0  0  0  0  0  0  0  0  0  0  0
   33.9325  -24.1283    6.1621 O   0  0  0  0  0  0  0  0  0  0  0  0
   34.2989  -22.7595    7.9358 N   0  0  0  0  0  0  0  0  0  0  0  0
   34.6231  -21.5440    8.6202 C   0  0  0  0  0  0  0  0  0  0  0  0
   34.3116  -21.7902   10.1110 C   0  0  0  0  0  0  0  0  0  0  0  0
   34.3792  -23.3239   10.1865 C   0  0  0  0  0  0  0  0  0  0  0  0
   33.7042  -23.6665    8.8816 C   0  0  1  0  0  0  0  0  0  0  0  0
   32.2543  -23.4048    9.0746 C   0  0  0  0  0  0  0  0  0  0  0  0
   31.6630  -22.3769    8.6747 O   0  0  0  0  0  0  0  0  0  0  0  0
   31.5257  -24.3787    9.7460 O   0  0  0  0  0  0  0  0  0  0  0  0
  2  1  1  0
  3  2  1  0
  3  4  1  0
  4  5  1  0
  5  6  1  1
  7  5  1  0
  7  8  2  0
  9  7  1  0
 10  9  1  0
 10 11  1  6
 12 13  2  0
 12 11  1  0
 14 13  1  0
 15 14  2  0
 16 15  1  0
 16 17  2  0
 17 12  1  0
 18 10  1  0
 19 18  2  0
 20 18  1  0
 20 24  1  0
 21 20  1  0
 22 21  1  0
 22 23  1  0
 23 24  1  0
 24 25  1  1
 25 27  1  0
 26 25  2  0
M  END
$$$$
