QDT.pdb
     RDKit          3D

 25 24  0  0  1  0  0  0  0  0999 V2000
    9.5808  -12.7380   18.9868 N   0  0  0  0  0  0  0  0  0  0  0  0
    8.3731  -12.8953   18.2597 C   0  0  0  0  0  0  0  0  0  0  0  0
    8.3832  -12.6731   17.0375 O   0  0  0  0  0  0  0  0  0  0  0  0
    7.1558  -13.3060   18.9544 C   0  0  0  0  0  0  0  0  0  0  0  0
    7.2962  -13.8329   20.3388 C   0  0  0  0  0  0  0  0  0  0  0  0
    8.0700  -15.0947   20.3707 C   0  0  2  0  0  0  0  0  0  0  0  0
    7.5107  -16.1253   19.5478 N   0  0  0  0  0  0  0  0  0  0  0  0
    8.1816  -15.6474   21.7742 C   0  0  0  0  0  0  0  0  0  0  0  0
    7.1670  -15.7828   22.5048 O   0  0  0  0  0  0  0  0  0  0  0  0
    9.4472  -16.0337   22.3144 N   0  0  0  0  0  0  0  0  0  0  0  0
    9.6285  -16.4480   23.6756 C   0  0  1  0  0  0  0  0  0  0  0  0
   10.7819  -17.3911   23.8530 C   0  0  0  0  0  0  0  0  0  0  0  0
   10.8961  -17.9632   25.1837 C   0  0  0  0  0  0  0  0  0  0  0  0
   10.7646  -17.2521   26.2000 O   0  0  0  0  0  0  0  0  0  0  0  0
    9.6842  -15.2971   24.6139 C   0  0  0  0  0  0  0  0  0  0  0  0
   10.6878  -14.5400   24.6217 O   0  0  0  0  0  0  0  0  0  0  0  0
   11.1524  -19.3061   25.3544 O   0  0  0  0  0  0  0  0  0  0  0  0
    6.9231  -12.5313   25.1737 C   0  0  0  0  0  0  0  0  0  0  0  0
    7.2323  -13.2940   26.4230 C   0  0  1  0  0  0  0  0  0  0  0  0
    6.3495  -14.3416   26.6608 O   0  0  0  0  0  0  0  0  0  0  0  0
    8.6296  -13.8923   26.4187 C   0  0  2  0  0  0  0  0  0  0  0  0
    8.6200  -15.0293   25.5112 N   0  0  0  0  0  0  0  0  0  0  0  0
    8.9282  -14.3107   27.8010 C   0  0  0  0  0  0  0  0  0  0  0  0
    9.0300  -13.3582   28.7895 O   0  0  0  0  0  0  0  0  0  0  0  0
    9.0855  -15.5192   28.0622 O   0  0  0  0  0  0  0  0  0  0  0  0
  2  1  1  0
  2  3  2  0
  4  5  1  0
  4  2  1  0
  5  6  1  0
  6  7  1  6
  8  6  1  0
  8  9  2  0
 10  8  1  0
 11 10  1  0
 11 12  1  6
 13 12  1  0
 14 13  2  0
 15 11  1  0
 16 15  2  0
 17 13  1  0
 19 20  1  0
 19 18  1  6
 21 19  1  0
 21 22  1  6
 22 15  1  0
 23 24  1  0
 23 21  1  0
 25 23  2  0
M  END
$$$$
