QDT.pdb
     RDKit          3D

 25 24  0  0  1  0  0  0  0  0999 V2000
    9.5993  -12.8446   18.3647 N   0  0  0  0  0  0  0  0  0  0  0  0
    8.4524  -13.3997   17.7411 C   0  0  0  0  0  0  0  0  0  0  0  0
    8.5672  -13.8656   16.5953 O   0  0  0  0  0  0  0  0  0  0  0  0
    7.1744  -13.4081   18.4480 C   0  0  0  0  0  0  0  0  0  0  0  0
    7.1887  -13.7564   19.8945 C   0  0  0  0  0  0  0  0  0  0  0  0
    8.2736  -14.7099   20.2196 C   0  0  2  0  0  0  0  0  0  0  0  0
    8.2331  -15.9064   19.4329 N   0  0  0  0  0  0  0  0  0  0  0  0
    8.2379  -15.1236   21.6740 C   0  0  0  0  0  0  0  0  0  0  0  0
    7.2915  -14.7794   22.4273 O   0  0  0  0  0  0  0  0  0  0  0  0
    9.2817  -15.9206   22.2382 N   0  0  0  0  0  0  0  0  0  0  0  0
    9.2819  -16.3667   23.6014 C   0  0  1  0  0  0  0  0  0  0  0  0
   10.2623  -17.4735   23.8561 C   0  0  0  0  0  0  0  0  0  0  0  0
    9.9577  -18.7199   23.1744 C   0  0  0  0  0  0  0  0  0  0  0  0
    8.7842  -19.0137   22.8708 O   0  0  0  0  0  0  0  0  0  0  0  0
    9.4280  -15.2437   24.5634 C   0  0  0  0  0  0  0  0  0  0  0  0
   10.4863  -14.5654   24.5824 O   0  0  0  0  0  0  0  0  0  0  0  0
   10.9592  -19.6076   22.8469 O   0  0  0  0  0  0  0  0  0  0  0  0
    7.0509  -12.1843   25.3037 C   0  0  0  0  0  0  0  0  0  0  0  0
    7.2168  -13.0828   26.4884 C   0  0  1  0  0  0  0  0  0  0  0  0
    6.1977  -14.0202   26.6148 O   0  0  0  0  0  0  0  0  0  0  0  0
    8.5236  -13.8585   26.4625 C   0  0  2  0  0  0  0  0  0  0  0  0
    8.3901  -14.9149   25.4712 N   0  0  0  0  0  0  0  0  0  0  0  0
    8.7278  -14.4125   27.8139 C   0  0  0  0  0  0  0  0  0  0  0  0
    9.0188  -13.5628   28.8570 O   0  0  0  0  0  0  0  0  0  0  0  0
    8.6355  -15.6415   28.0001 O   0  0  0  0  0  0  0  0  0  0  0  0
  2  1  1  0
  2  3  2  0
  4  5  1  0
  4  2  1  0
  5  6  1  0
  6  7  1  6
  8  6  1  0
  8  9  2  0
 10  8  1  0
 11 10  1  0
 11 12  1  6
 13 12  1  0
 14 13  2  0
 15 11  1  0
 16 15  2  0
 17 13  1  0
 19 20  1  0
 19 18  1  6
 21 19  1  0
 21 22  1  6
 22 15  1  0
 23 24  1  0
 23 21  1  0
 25 23  2  0
M  END
$$$$
