QDT.pdb
     RDKit          3D

 25 24  0  0  1  0  0  0  0  0999 V2000
    6.6782  -13.0257   17.4073 N   0  0  0  0  0  0  0  0  0  0  0  0
    7.5051  -14.1781   17.3860 C   0  0  0  0  0  0  0  0  0  0  0  0
    7.3047  -15.0359   16.5101 O   0  0  0  0  0  0  0  0  0  0  0  0
    8.5594  -14.3334   18.3847 C   0  0  0  0  0  0  0  0  0  0  0  0
    8.6994  -13.2657   19.4116 C   0  0  0  0  0  0  0  0  0  0  0  0
    9.7420  -13.5962   20.4094 C   0  0  2  0  0  0  0  0  0  0  0  0
   10.8289  -14.3547   19.8656 N   0  0  0  0  0  0  0  0  0  0  0  0
    9.1763  -14.3848   21.5696 C   0  0  0  0  0  0  0  0  0  0  0  0
    8.0984  -14.0485   22.1233 O   0  0  0  0  0  0  0  0  0  0  0  0
    9.8516  -15.5393   22.0734 N   0  0  0  0  0  0  0  0  0  0  0  0
    9.4321  -16.2458   23.2492 C   0  0  1  0  0  0  0  0  0  0  0  0
   10.0069  -17.6288   23.3388 C   0  0  0  0  0  0  0  0  0  0  0  0
    9.6176  -18.3697   24.5265 C   0  0  0  0  0  0  0  0  0  0  0  0
    8.4521  -18.3080   24.9664 O   0  0  0  0  0  0  0  0  0  0  0  0
    9.6491  -15.4572   24.4898 C   0  0  0  0  0  0  0  0  0  0  0  0
   10.8173  -15.2345   24.8971 O   0  0  0  0  0  0  0  0  0  0  0  0
   10.5276  -19.1587   25.1954 O   0  0  0  0  0  0  0  0  0  0  0  0
    7.5488  -12.0893   25.7013 C   0  0  0  0  0  0  0  0  0  0  0  0
    7.5202  -13.2743   26.6141 C   0  0  1  0  0  0  0  0  0  0  0  0
    6.4015  -14.0803   26.4345 O   0  0  0  0  0  0  0  0  0  0  0  0
    8.7361  -14.1721   26.4540 C   0  0  2  0  0  0  0  0  0  0  0  0
    8.5571  -14.9440   25.2339 N   0  0  0  0  0  0  0  0  0  0  0  0
    8.7904  -15.0470   27.6401 C   0  0  0  0  0  0  0  0  0  0  0  0
    8.9850  -14.4900   28.8837 O   0  0  0  0  0  0  0  0  0  0  0  0
    8.6601  -16.2794   27.5073 O   0  0  0  0  0  0  0  0  0  0  0  0
  2  1  1  0
  2  3  2  0
  4  5  1  0
  4  2  1  0
  5  6  1  0
  6  7  1  6
  8  6  1  0
  8  9  2  0
 10  8  1  0
 11 10  1  0
 11 12  1  1
 13 12  1  0
 14 13  2  0
 15 11  1  0
 16 15  2  0
 17 13  1  0
 19 20  1  0
 19 18  1  6
 21 19  1  0
 21 22  1  6
 22 15  1  0
 23 24  1  0
 23 21  1  0
 25 23  2  0
M  END
$$$$
