QDT.pdb
     RDKit          3D

 25 24  0  0  1  0  0  0  0  0999 V2000
    9.3990  -13.0416   18.0034 N   0  0  0  0  0  0  0  0  0  0  0  0
    8.0804  -13.3185   17.5596 C   0  0  0  0  0  0  0  0  0  0  0  0
    7.6925  -12.8063   16.4965 O   0  0  0  0  0  0  0  0  0  0  0  0
    7.2143  -14.1857   18.3539 C   0  0  0  0  0  0  0  0  0  0  0  0
    7.7640  -14.7331   19.6236 C   0  0  0  0  0  0  0  0  0  0  0  0
    8.1933  -16.1422   19.4743 C   0  0  2  0  0  0  0  0  0  0  0  0
    7.1175  -17.0332   19.1565 N   0  0  0  0  0  0  0  0  0  0  0  0
    8.8546  -16.6620   20.7313 C   0  0  0  0  0  0  0  0  0  0  0  0
    8.2054  -17.3145   21.5883 O   0  0  0  0  0  0  0  0  0  0  0  0
   10.2415  -16.4267   20.9843 N   0  0  0  0  0  0  0  0  0  0  0  0
   10.9192  -16.9010   22.1562 C   0  0  1  0  0  0  0  0  0  0  0  0
   12.4117  -16.9207   22.0030 C   0  0  0  0  0  0  0  0  0  0  0  0
   13.1229  -17.5667   23.0929 C   0  0  0  0  0  0  0  0  0  0  0  0
   12.5031  -18.1121   24.0279 O   0  0  0  0  0  0  0  0  0  0  0  0
   10.4823  -16.1925   23.3871 C   0  0  0  0  0  0  0  0  0  0  0  0
   10.9751  -15.0729   23.6769 O   0  0  0  0  0  0  0  0  0  0  0  0
   14.5001  -17.5920   23.1193 O   0  0  0  0  0  0  0  0  0  0  0  0
    7.5060  -14.4991   24.5371 C   0  0  0  0  0  0  0  0  0  0  0  0
    7.6866  -15.7033   25.4063 C   0  0  1  0  0  0  0  0  0  0  0  0
    6.9690  -16.8107   24.9682 O   0  0  0  0  0  0  0  0  0  0  0  0
    9.1386  -16.1390   25.5167 C   0  0  2  0  0  0  0  0  0  0  0  0
    9.5114  -16.7559   24.2529 N   0  0  0  0  0  0  0  0  0  0  0  0
    9.2203  -17.1030   26.6298 C   0  0  0  0  0  0  0  0  0  0  0  0
    9.0094  -16.6682   27.9186 O   0  0  0  0  0  0  0  0  0  0  0  0
    9.4788  -18.2995   26.3954 O   0  0  0  0  0  0  0  0  0  0  0  0
  2  1  1  0
  2  3  2  0
  4  5  1  0
  4  2  1  0
  5  6  1  0
  6  7  1  1
  8  6  1  0
  8  9  2  0
 10  8  1  0
 11 10  1  0
 11 12  1  6
 13 12  1  0
 14 13  2  0
 15 11  1  0
 16 15  2  0
 17 13  1  0
 19 20  1  0
 19 18  1  6
 21 19  1  0
 21 22  1  6
 22 15  1  0
 23 24  1  0
 23 21  1  0
 25 23  2  0
M  END
$$$$
