QDT.pdb
     RDKit          3D

 25 24  0  0  1  0  0  0  0  0999 V2000
   14.7171  -14.9988   10.6203 N   0  0  0  0  0  0  0  0  0  0  0  0
   13.7680  -14.0328   11.0425 C   0  0  0  0  0  0  0  0  0  0  0  0
   13.8725  -12.8716   10.6138 O   0  0  0  0  0  0  0  0  0  0  0  0
   12.7029  -14.4168   11.9651 C   0  0  0  0  0  0  0  0  0  0  0  0
   11.4075  -14.8553   11.3789 C   0  0  0  0  0  0  0  0  0  0  0  0
   11.3913  -16.3108   11.1084 C   0  0  2  0  0  0  0  0  0  0  0  0
   10.1670  -16.7659   10.5201 N   0  0  0  0  0  0  0  0  0  0  0  0
   11.6143  -17.1167   12.3688 C   0  0  0  0  0  0  0  0  0  0  0  0
   10.7085  -17.2415   13.2323 O   0  0  0  0  0  0  0  0  0  0  0  0
   12.8646  -17.7629   12.6175 N   0  0  0  0  0  0  0  0  0  0  0  0
   13.0739  -18.6827   13.6980 C   0  0  1  0  0  0  0  0  0  0  0  0
   14.2755  -19.5588   13.4981 C   0  0  0  0  0  0  0  0  0  0  0  0
   14.4351  -20.6031   14.4956 C   0  0  0  0  0  0  0  0  0  0  0  0
   15.1578  -20.4274   15.4968 O   0  0  0  0  0  0  0  0  0  0  0  0
   13.0747  -18.0083   15.0221 C   0  0  0  0  0  0  0  0  0  0  0  0
   13.7274  -16.9466   15.1868 O   0  0  0  0  0  0  0  0  0  0  0  0
   13.7911  -21.8134   14.3588 O   0  0  0  0  0  0  0  0  0  0  0  0
    9.8406  -17.5948   17.3903 C   0  0  0  0  0  0  0  0  0  0  0  0
   11.0021  -18.2348   18.0827 C   0  0  1  0  0  0  0  0  0  0  0  0
   10.9139  -19.6214   18.1376 O   0  0  0  0  0  0  0  0  0  0  0  0
   12.3337  -17.9071   17.4271 C   0  0  2  0  0  0  0  0  0  0  0  0
   12.3482  -18.5399   16.1172 N   0  0  0  0  0  0  0  0  0  0  0  0
   13.3928  -18.4502   18.2979 C   0  0  0  0  0  0  0  0  0  0  0  0
   13.6740  -17.8257   19.4919 O   0  0  0  0  0  0  0  0  0  0  0  0
   14.0228  -19.4668   17.9469 O   0  0  0  0  0  0  0  0  0  0  0  0
  2  1  1  0
  2  3  2  0
  4  5  1  0
  4  2  1  0
  5  6  1  0
  6  7  1  1
  8  6  1  0
  8  9  2  0
 10  8  1  0
 11 10  1  0
 11 12  1  6
 13 12  1  0
 14 13  2  0
 15 11  1  0
 16 15  2  0
 17 13  1  0
 19 20  1  0
 19 18  1  6
 21 19  1  0
 21 22  1  6
 22 15  1  0
 23 24  1  0
 23 21  1  0
 25 23  2  0
M  END
$$$$
