QDT.pdb
     RDKit          3D

 25 24  0  0  1  0  0  0  0  0999 V2000
    6.2433  -18.3980   15.4410 N   0  0  0  0  0  0  0  0  0  0  0  0
    7.4829  -18.8663   14.9348 C   0  0  0  0  0  0  0  0  0  0  0  0
    7.5710  -19.1188   13.7217 O   0  0  0  0  0  0  0  0  0  0  0  0
    8.6156  -19.0446   15.8395 C   0  0  0  0  0  0  0  0  0  0  0  0
    8.4271  -18.6602   17.2646 C   0  0  0  0  0  0  0  0  0  0  0  0
    9.3460  -17.5711   17.6661 C   0  0  2  0  0  0  0  0  0  0  0  0
   10.6078  -17.6136   16.9891 N   0  0  0  0  0  0  0  0  0  0  0  0
    9.6290  -17.5968   19.1517 C   0  0  0  0  0  0  0  0  0  0  0  0
    8.7129  -17.8087   19.9869 O   0  0  0  0  0  0  0  0  0  0  0  0
   10.9499  -17.3805   19.6531 N   0  0  0  0  0  0  0  0  0  0  0  0
   11.2706  -17.3792   21.0511 C   0  0  1  0  0  0  0  0  0  0  0  0
   12.7257  -17.6282   21.3193 C   0  0  0  0  0  0  0  0  0  0  0  0
   13.2388  -18.8696   20.7657 C   0  0  0  0  0  0  0  0  0  0  0  0
   14.1030  -18.8609   19.8663 O   0  0  0  0  0  0  0  0  0  0  0  0
   10.7623  -16.1681   21.7462 C   0  0  0  0  0  0  0  0  0  0  0  0
   11.5276  -15.1915   21.9488 O   0  0  0  0  0  0  0  0  0  0  0  0
   12.7824  -20.0870   21.2216 O   0  0  0  0  0  0  0  0  0  0  0  0
    7.9636  -13.6653   21.0274 C   0  0  0  0  0  0  0  0  0  0  0  0
    7.6640  -14.4490   22.2661 C   0  0  1  0  0  0  0  0  0  0  0  0
    6.8571  -15.5573   22.0341 O   0  0  0  0  0  0  0  0  0  0  0  0
    8.9169  -14.9580   22.9599 C   0  0  2  0  0  0  0  0  0  0  0  0
    9.4190  -16.0868   22.1917 N   0  0  0  0  0  0  0  0  0  0  0  0
    8.5248  -15.3667   24.3216 C   0  0  0  0  0  0  0  0  0  0  0  0
    8.0332  -14.4242   25.1961 O   0  0  0  0  0  0  0  0  0  0  0  0
    8.6412  -16.5582   24.6685 O   0  0  0  0  0  0  0  0  0  0  0  0
  2  1  1  0
  2  3  2  0
  4  5  1  0
  4  2  1  0
  5  6  1  0
  6  7  1  6
  8  6  1  0
  8  9  2  0
 10  8  1  0
 11 10  1  0
 11 12  1  6
 13 12  1  0
 14 13  2  0
 15 11  1  0
 16 15  2  0
 17 13  1  0
 19 20  1  0
 19 18  1  6
 21 19  1  0
 21 22  1  6
 22 15  1  0
 23 24  1  0
 23 21  1  0
 25 23  2  0
M  END
$$$$
