QDT.pdb
     RDKit          3D

 25 24  0  0  1  0  0  0  0  0999 V2000
    8.1336  -12.5199   17.5401 N   0  0  0  0  0  0  0  0  0  0  0  0
    7.6674  -13.8185   17.2108 C   0  0  0  0  0  0  0  0  0  0  0  0
    7.5686  -14.1270   16.0116 O   0  0  0  0  0  0  0  0  0  0  0  0
    7.3128  -14.7538   18.2750 C   0  0  0  0  0  0  0  0  0  0  0  0
    7.3943  -14.2653   19.6781 C   0  0  0  0  0  0  0  0  0  0  0  0
    8.6454  -14.7001   20.3396 C   0  0  2  0  0  0  0  0  0  0  0  0
    9.3088  -15.7689   19.6542 N   0  0  0  0  0  0  0  0  0  0  0  0
    8.3975  -15.1586   21.7595 C   0  0  0  0  0  0  0  0  0  0  0  0
    7.4160  -14.7330   22.4207 O   0  0  0  0  0  0  0  0  0  0  0  0
    9.2737  -16.0921   22.3949 N   0  0  0  0  0  0  0  0  0  0  0  0
    9.1732  -16.4481   23.7807 C   0  0  1  0  0  0  0  0  0  0  0  0
   10.0565  -17.6016   24.1555 C   0  0  0  0  0  0  0  0  0  0  0  0
    9.9072  -18.0568   25.5272 C   0  0  0  0  0  0  0  0  0  0  0  0
    8.8320  -17.9015   26.1402 O   0  0  0  0  0  0  0  0  0  0  0  0
    9.3522  -15.2782   24.6792 C   0  0  0  0  0  0  0  0  0  0  0  0
   10.4573  -14.6804   24.7207 O   0  0  0  0  0  0  0  0  0  0  0  0
   10.9509  -18.6714   26.1839 O   0  0  0  0  0  0  0  0  0  0  0  0
    6.9610  -12.1023   25.0811 C   0  0  0  0  0  0  0  0  0  0  0  0
    7.1284  -12.8904   26.3417 C   0  0  1  0  0  0  0  0  0  0  0  0
    6.1087  -13.8115   26.5541 O   0  0  0  0  0  0  0  0  0  0  0  0
    8.4345  -13.6668   26.3834 C   0  0  2  0  0  0  0  0  0  0  0  0
    8.2939  -14.8145   25.5005 N   0  0  0  0  0  0  0  0  0  0  0  0
    8.6467  -14.0869   27.7810 C   0  0  0  0  0  0  0  0  0  0  0  0
    8.8469  -13.1320   28.7519 O   0  0  0  0  0  0  0  0  0  0  0  0
    8.6430  -15.2991   28.0709 O   0  0  0  0  0  0  0  0  0  0  0  0
  2  1  1  0
  2  3  2  0
  4  5  1  0
  4  2  1  0
  5  6  1  0
  6  7  1  6
  8  6  1  0
  8  9  2  0
 10  8  1  0
 11 10  1  0
 11 12  1  1
 13 12  1  0
 14 13  2  0
 15 11  1  0
 16 15  2  0
 17 13  1  0
 19 20  1  0
 19 18  1  6
 21 19  1  0
 21 22  1  6
 22 15  1  0
 23 24  1  0
 23 21  1  0
 25 23  2  0
M  END
$$$$
