QDT.pdb
     RDKit          3D

 25 24  0  0  1  0  0  0  0  0999 V2000
   14.9120  -20.6954   13.1387 N   0  0  0  0  0  0  0  0  0  0  0  0
   14.0931  -19.6803   12.5810 C   0  0  0  0  0  0  0  0  0  0  0  0
   13.8760  -19.6983   11.3579 O   0  0  0  0  0  0  0  0  0  0  0  0
   13.5321  -18.6444   13.4442 C   0  0  0  0  0  0  0  0  0  0  0  0
   13.8839  -18.6858   14.8894 C   0  0  0  0  0  0  0  0  0  0  0  0
   12.9854  -17.8314   15.6984 C   0  0  2  0  0  0  0  0  0  0  0  0
   12.3775  -16.7742   14.9467 N   0  0  0  0  0  0  0  0  0  0  0  0
   13.7142  -17.1974   16.8624 C   0  0  0  0  0  0  0  0  0  0  0  0
   14.2846  -17.8998   17.7358 O   0  0  0  0  0  0  0  0  0  0  0  0
   13.7769  -15.7767   17.0055 N   0  0  0  0  0  0  0  0  0  0  0  0
   14.5430  -15.1216   18.0259 C   0  0  1  0  0  0  0  0  0  0  0  0
   15.4242  -14.0322   17.4894 C   0  0  0  0  0  0  0  0  0  0  0  0
   16.5315  -14.4977   16.6718 C   0  0  0  0  0  0  0  0  0  0  0  0
   17.2462  -15.4498   17.0437 O   0  0  0  0  0  0  0  0  0  0  0  0
   13.6991  -14.6647   19.1604 C   0  0  0  0  0  0  0  0  0  0  0  0
   14.2214  -14.0526   20.1262 O   0  0  0  0  0  0  0  0  0  0  0  0
   16.8183  -13.8976   15.4652 O   0  0  0  0  0  0  0  0  0  0  0  0
   10.1763  -12.7740   19.1067 C   0  0  0  0  0  0  0  0  0  0  0  0
   10.1168  -14.1094   19.7785 C   0  0  1  0  0  0  0  0  0  0  0  0
    9.6605  -15.1246   18.9453 O   0  0  0  0  0  0  0  0  0  0  0  0
   11.4647  -14.5593   20.3180 C   0  0  2  0  0  0  0  0  0  0  0  0
   12.3022  -14.9055   19.1798 N   0  0  0  0  0  0  0  0  0  0  0  0
   11.2196  -15.7302   21.1804 C   0  0  0  0  0  0  0  0  0  0  0  0
   10.5086  -15.5734   22.3486 O   0  0  0  0  0  0  0  0  0  0  0  0
   11.6566  -16.8485   20.8459 O   0  0  0  0  0  0  0  0  0  0  0  0
  2  1  1  0
  2  3  2  0
  4  5  1  0
  4  2  1  0
  5  6  1  0
  6  7  1  6
  8  6  1  0
  8  9  2  0
 10  8  1  0
 11 10  1  0
 11 12  1  6
 13 12  1  0
 14 13  2  0
 15 11  1  0
 16 15  2  0
 17 13  1  0
 19 20  1  0
 19 18  1  6
 21 19  1  0
 21 22  1  6
 22 15  1  0
 23 24  1  0
 23 21  1  0
 25 23  2  0
M  END
$$$$
