QDT.pdb
     RDKit          3D

 25 24  0  0  1  0  0  0  0  0999 V2000
    9.8405  -12.7437   18.7774 N   0  0  0  0  0  0  0  0  0  0  0  0
    8.6116  -13.0127   18.1221 C   0  0  0  0  0  0  0  0  0  0  0  0
    8.6219  -13.1950   16.8933 O   0  0  0  0  0  0  0  0  0  0  0  0
    7.3732  -13.0646   18.8947 C   0  0  0  0  0  0  0  0  0  0  0  0
    7.4356  -13.6560   20.2586 C   0  0  0  0  0  0  0  0  0  0  0  0
    7.8177  -15.0858   20.2207 C   0  0  2  0  0  0  0  0  0  0  0  0
    6.8662  -15.9103   19.5371 N   0  0  0  0  0  0  0  0  0  0  0  0
    7.9929  -15.6553   21.6110 C   0  0  0  0  0  0  0  0  0  0  0  0
    7.0216  -16.1432   22.2436 O   0  0  0  0  0  0  0  0  0  0  0  0
    9.2715  -15.6563   22.2499 N   0  0  0  0  0  0  0  0  0  0  0  0
    9.4828  -16.1314   23.5867 C   0  0  1  0  0  0  0  0  0  0  0  0
   10.6657  -17.0469   23.7037 C   0  0  0  0  0  0  0  0  0  0  0  0
   10.8857  -17.5835   25.0359 C   0  0  0  0  0  0  0  0  0  0  0  0
   11.8030  -17.1461   25.7591 O   0  0  0  0  0  0  0  0  0  0  0  0
    9.5170  -15.0268   24.5801 C   0  0  0  0  0  0  0  0  0  0  0  0
   10.4206  -14.1549   24.5204 O   0  0  0  0  0  0  0  0  0  0  0  0
   10.0853  -18.5891   25.5321 O   0  0  0  0  0  0  0  0  0  0  0  0
    6.8825  -12.3808   25.4213 C   0  0  0  0  0  0  0  0  0  0  0  0
    7.1532  -13.2495   26.6089 C   0  0  1  0  0  0  0  0  0  0  0  0
    6.2561  -14.3044   26.7348 O   0  0  0  0  0  0  0  0  0  0  0  0
    8.5453  -13.8594   26.5891 C   0  0  2  0  0  0  0  0  0  0  0  0
    8.5432  -14.9317   25.6059 N   0  0  0  0  0  0  0  0  0  0  0  0
    8.8143  -14.3740   27.9448 C   0  0  0  0  0  0  0  0  0  0  0  0
    8.9797  -13.4876   28.9848 O   0  0  0  0  0  0  0  0  0  0  0  0
    8.8896  -15.6031   28.1372 O   0  0  0  0  0  0  0  0  0  0  0  0
  2  1  1  0
  2  3  2  0
  4  5  1  0
  4  2  1  0
  5  6  1  0
  6  7  1  1
  8  6  1  0
  8  9  2  0
 10  8  1  0
 11 10  1  0
 11 12  1  6
 13 12  1  0
 14 13  2  0
 15 11  1  0
 16 15  2  0
 17 13  1  0
 19 20  1  0
 19 18  1  6
 21 19  1  0
 21 22  1  6
 22 15  1  0
 23 24  1  0
 23 21  1  0
 25 23  2  0
M  END
$$$$
