QDT.pdb
     RDKit          3D

 25 24  0  0  1  0  0  0  0  0999 V2000
    9.7913  -13.3909   18.7738 N   0  0  0  0  0  0  0  0  0  0  0  0
    8.4988  -13.1590   18.2375 C   0  0  0  0  0  0  0  0  0  0  0  0
    8.3986  -12.8776   17.0317 O   0  0  0  0  0  0  0  0  0  0  0  0
    7.3265  -13.2499   19.1038 C   0  0  0  0  0  0  0  0  0  0  0  0
    7.5411  -13.6809   20.5117 C   0  0  0  0  0  0  0  0  0  0  0  0
    7.8463  -15.1266   20.6035 C   0  0  2  0  0  0  0  0  0  0  0  0
    6.8205  -15.9600   20.0507 N   0  0  0  0  0  0  0  0  0  0  0  0
    8.0609  -15.5635   22.0355 C   0  0  0  0  0  0  0  0  0  0  0  0
    7.0895  -15.7754   22.8057 O   0  0  0  0  0  0  0  0  0  0  0  0
    9.3780  -15.7494   22.5586 N   0  0  0  0  0  0  0  0  0  0  0  0
    9.6384  -16.1494   23.9112 C   0  0  1  0  0  0  0  0  0  0  0  0
   10.9041  -16.9423   24.0550 C   0  0  0  0  0  0  0  0  0  0  0  0
   10.8306  -18.2978   23.5371 C   0  0  0  0  0  0  0  0  0  0  0  0
    9.7383  -18.7956   23.1981 O   0  0  0  0  0  0  0  0  0  0  0  0
    9.5698  -15.0087   24.8610 C   0  0  0  0  0  0  0  0  0  0  0  0
   10.4358  -14.0986   24.8145 O   0  0  0  0  0  0  0  0  0  0  0  0
   11.9669  -19.0661   23.4083 O   0  0  0  0  0  0  0  0  0  0  0  0
    6.9773  -12.3471   25.4150 C   0  0  0  0  0  0  0  0  0  0  0  0
    7.0946  -13.1855   26.6485 C   0  0  1  0  0  0  0  0  0  0  0  0
    6.1572  -14.2108   26.7080 O   0  0  0  0  0  0  0  0  0  0  0  0
    8.4616  -13.8340   26.7937 C   0  0  2  0  0  0  0  0  0  0  0  0
    8.5388  -14.9212   25.8300 N   0  0  0  0  0  0  0  0  0  0  0  0
    8.5612  -14.3345   28.1773 C   0  0  0  0  0  0  0  0  0  0  0  0
    8.6280  -13.4369   29.2187 O   0  0  0  0  0  0  0  0  0  0  0  0
    8.5839  -15.5621   28.3919 O   0  0  0  0  0  0  0  0  0  0  0  0
  2  1  1  0
  2  3  2  0
  4  5  1  0
  4  2  1  0
  5  6  1  0
  6  7  1  1
  8  6  1  0
  8  9  2  0
 10  8  1  0
 11 10  1  0
 11 12  1  6
 13 12  1  0
 14 13  2  0
 15 11  1  0
 16 15  2  0
 17 13  1  0
 19 20  1  0
 19 18  1  6
 21 19  1  0
 21 22  1  6
 22 15  1  0
 23 24  1  0
 23 21  1  0
 25 23  2  0
M  END
$$$$
