QDT.pdb
     RDKit          3D

 25 24  0  0  1  0  0  0  0  0999 V2000
    8.2014  -12.6778   16.4200 N   0  0  0  0  0  0  0  0  0  0  0  0
    7.6194  -13.8094   17.0467 C   0  0  0  0  0  0  0  0  0  0  0  0
    7.8441  -14.9336   16.5682 O   0  0  0  0  0  0  0  0  0  0  0  0
    6.7743  -13.6323   18.2247 C   0  0  0  0  0  0  0  0  0  0  0  0
    7.0171  -14.5271   19.3885 C   0  0  0  0  0  0  0  0  0  0  0  0
    8.2863  -14.2009   20.0772 C   0  0  2  0  0  0  0  0  0  0  0  0
    9.4177  -14.1700   19.1990 N   0  0  0  0  0  0  0  0  0  0  0  0
    8.5957  -15.1903   21.1786 C   0  0  0  0  0  0  0  0  0  0  0  0
    7.8179  -15.3446   22.1547 O   0  0  0  0  0  0  0  0  0  0  0  0
    9.7850  -15.9823   21.1435 N   0  0  0  0  0  0  0  0  0  0  0  0
   10.1296  -16.9303   22.1633 C   0  0  1  0  0  0  0  0  0  0  0  0
   11.2377  -17.8553   21.7540 C   0  0  0  0  0  0  0  0  0  0  0  0
   11.5592  -18.8827   22.7297 C   0  0  0  0  0  0  0  0  0  0  0  0
   11.3534  -18.6978   23.9459 O   0  0  0  0  0  0  0  0  0  0  0  0
   10.3849  -16.2810   23.4753 C   0  0  0  0  0  0  0  0  0  0  0  0
   11.4787  -15.6985   23.6865 O   0  0  0  0  0  0  0  0  0  0  0  0
   12.0996  -20.0867   22.3340 O   0  0  0  0  0  0  0  0  0  0  0  0
    7.1746  -15.0889   25.6944 C   0  0  0  0  0  0  0  0  0  0  0  0
    8.5585  -14.5773   25.9421 C   0  0  1  0  0  0  0  0  0  0  0  0
    8.7231  -14.0266   27.2081 O   0  0  0  0  0  0  0  0  0  0  0  0
    9.6213  -15.6534   25.7918 C   0  0  2  0  0  0  0  0  0  0  0  0
    9.4128  -16.3030   24.5069 N   0  0  0  0  0  0  0  0  0  0  0  0
    9.4425  -16.6006   26.9079 C   0  0  0  0  0  0  0  0  0  0  0  0
    9.7005  -16.1866   28.1950 O   0  0  0  0  0  0  0  0  0  0  0  0
    9.0605  -17.7645   26.6776 O   0  0  0  0  0  0  0  0  0  0  0  0
  2  1  1  0
  2  3  2  0
  4  5  1  0
  4  2  1  0
  5  6  1  0
  6  7  1  6
  8  6  1  0
  8  9  2  0
 10  8  1  0
 11 10  1  0
 11 12  1  6
 13 12  1  0
 14 13  2  0
 15 11  1  0
 16 15  2  0
 17 13  1  0
 19 20  1  0
 19 18  1  1
 21 19  1  0
 21 22  1  6
 22 15  1  0
 23 24  1  0
 23 21  1  0
 25 23  2  0
M  END
$$$$
