QDT.pdb
     RDKit          3D

 25 24  0  0  1  0  0  0  0  0999 V2000
    8.1476  -16.9978   18.2501 N   0  0  0  0  0  0  0  0  0  0  0  0
    8.1517  -18.3142   17.7218 C   0  0  0  0  0  0  0  0  0  0  0  0
    7.4276  -18.5632   16.7435 O   0  0  0  0  0  0  0  0  0  0  0  0
    8.9931  -19.3393   18.3337 C   0  0  0  0  0  0  0  0  0  0  0  0
    9.7928  -18.9528   19.5275 C   0  0  0  0  0  0  0  0  0  0  0  0
   11.0198  -18.2145   19.1515 C   0  0  2  0  0  0  0  0  0  0  0  0
   11.6030  -18.6691   17.9245 N   0  0  0  0  0  0  0  0  0  0  0  0
   12.0835  -18.3148   20.2221 C   0  0  0  0  0  0  0  0  0  0  0  0
   12.8951  -19.2753   20.2477 O   0  0  0  0  0  0  0  0  0  0  0  0
   12.1991  -17.3184   21.2402 N   0  0  0  0  0  0  0  0  0  0  0  0
   13.1760  -17.3744   22.2889 C   0  0  1  0  0  0  0  0  0  0  0  0
   13.6457  -16.0181   22.7261 C   0  0  0  0  0  0  0  0  0  0  0  0
   14.8701  -16.0254   23.5083 C   0  0  0  0  0  0  0  0  0  0  0  0
   15.4129  -17.0987   23.8385 O   0  0  0  0  0  0  0  0  0  0  0  0
   12.7334  -18.2187   23.4289 C   0  0  0  0  0  0  0  0  0  0  0  0
   11.7260  -17.8866   24.1035 O   0  0  0  0  0  0  0  0  0  0  0  0
   15.4611  -14.8454   23.9040 O   0  0  0  0  0  0  0  0  0  0  0  0
   14.6423  -22.0179   24.0905 C   0  0  0  0  0  0  0  0  0  0  0  0
   13.2039  -21.7195   24.3740 C   0  0  1  0  0  0  0  0  0  0  0  0
   12.6509  -22.5484   25.3438 O   0  0  0  0  0  0  0  0  0  0  0  0
   12.9783  -20.2904   24.8400 C   0  0  2  0  0  0  0  0  0  0  0  0
   13.4285  -19.4038   23.7780 N   0  0  0  0  0  0  0  0  0  0  0  0
   13.7717  -20.1029   26.0689 C   0  0  0  0  0  0  0  0  0  0  0  0
   13.4771  -20.8517   27.1857 O   0  0  0  0  0  0  0  0  0  0  0  0
   14.6994  -19.2707   26.0864 O   0  0  0  0  0  0  0  0  0  0  0  0
  2  1  1  0
  2  3  2  0
  4  5  1  0
  4  2  1  0
  5  6  1  0
  6  7  1  6
  8  6  1  0
  8  9  2  0
 10  8  1  0
 11 10  1  0
 11 12  1  1
 13 12  1  0
 14 13  2  0
 15 11  1  0
 16 15  2  0
 17 13  1  0
 19 20  1  0
 19 18  1  1
 21 19  1  0
 21 22  1  6
 22 15  1  0
 23 24  1  0
 23 21  1  0
 25 23  2  0
M  END
$$$$
