QDT.pdb
     RDKit          3D

 25 24  0  0  1  0  0  0  0  0999 V2000
    6.8074  -13.6162   19.3797 N   0  0  0  0  0  0  0  0  0  0  0  0
    7.0619  -13.0396   18.1089 C   0  0  0  0  0  0  0  0  0  0  0  0
    6.4175  -12.0314   17.7751 O   0  0  0  0  0  0  0  0  0  0  0  0
    8.0607  -13.6380   17.2272 C   0  0  0  0  0  0  0  0  0  0  0  0
    8.8034  -14.8247   17.7315 C   0  0  0  0  0  0  0  0  0  0  0  0
    9.9084  -15.2079   16.8238 C   0  0  2  0  0  0  0  0  0  0  0  0
    9.5695  -16.2810   15.9374 N   0  0  0  0  0  0  0  0  0  0  0  0
   11.1426  -15.6276   17.5908 C   0  0  0  0  0  0  0  0  0  0  0  0
   11.4058  -16.8412   17.7901 O   0  0  0  0  0  0  0  0  0  0  0  0
   12.0500  -14.6551   18.1141 N   0  0  0  0  0  0  0  0  0  0  0  0
   13.1645  -14.9896   18.9527 C   0  0  1  0  0  0  0  0  0  0  0  0
   14.3916  -14.1821   18.6471 C   0  0  0  0  0  0  0  0  0  0  0  0
   15.5797  -14.5869   19.3791 C   0  0  0  0  0  0  0  0  0  0  0  0
   15.7498  -15.7754   19.7169 O   0  0  0  0  0  0  0  0  0  0  0  0
   12.8125  -14.9668   20.3961 C   0  0  0  0  0  0  0  0  0  0  0  0
   13.5300  -14.3300   21.2085 O   0  0  0  0  0  0  0  0  0  0  0  0
   16.5473  -13.6664   19.7174 O   0  0  0  0  0  0  0  0  0  0  0  0
    9.3192  -14.2253   22.0964 C   0  0  0  0  0  0  0  0  0  0  0  0
    9.8277  -15.5944   22.4208 C   0  0  1  0  0  0  0  0  0  0  0  0
    9.2868  -16.5880   21.6125 O   0  0  0  0  0  0  0  0  0  0  0  0
   11.3387  -15.7068   22.2998 C   0  0  2  0  0  0  0  0  0  0  0  0
   11.6731  -15.6543   20.8849 N   0  0  0  0  0  0  0  0  0  0  0  0
   11.7283  -16.9980   22.8963 C   0  0  0  0  0  0  0  0  0  0  0  0
   11.6182  -17.1758   24.2568 O   0  0  0  0  0  0  0  0  0  0  0  0
   12.1526  -17.9148   22.1663 O   0  0  0  0  0  0  0  0  0  0  0  0
  2  1  1  0
  2  3  2  0
  4  5  1  0
  4  2  1  0
  5  6  1  0
  6  7  1  1
  8  6  1  0
  8  9  2  0
 10  8  1  0
 11 10  1  0
 11 12  1  1
 13 12  1  0
 14 13  2  0
 15 11  1  0
 16 15  2  0
 17 13  1  0
 19 20  1  0
 19 18  1  6
 21 19  1  0
 21 22  1  6
 22 15  1  0
 23 24  1  0
 23 21  1  0
 25 23  2  0
M  END
$$$$
