QDT.pdb
     RDKit          3D

 25 24  0  0  1  0  0  0  0  0999 V2000
    6.9442  -12.4158   18.3431 N   0  0  0  0  0  0  0  0  0  0  0  0
    7.6503  -13.5098   17.7806 C   0  0  0  0  0  0  0  0  0  0  0  0
    7.5226  -13.7369   16.5660 O   0  0  0  0  0  0  0  0  0  0  0  0
    8.4994  -14.3400   18.6308 C   0  0  0  0  0  0  0  0  0  0  0  0
    8.5626  -14.0052   20.0792 C   0  0  0  0  0  0  0  0  0  0  0  0
    9.4448  -14.9351   20.8202 C   0  0  2  0  0  0  0  0  0  0  0  0
   10.6398  -15.2745   20.1068 N   0  0  0  0  0  0  0  0  0  0  0  0
    8.7370  -16.2284   21.1580 C   0  0  0  0  0  0  0  0  0  0  0  0
    7.6822  -16.2355   21.8427 O   0  0  0  0  0  0  0  0  0  0  0  0
    9.2469  -17.4855   20.7079 N   0  0  0  0  0  0  0  0  0  0  0  0
    8.6021  -18.7381   20.9769 C   0  0  1  0  0  0  0  0  0  0  0  0
    8.4180  -19.5789   19.7479 C   0  0  0  0  0  0  0  0  0  0  0  0
    7.9471  -18.8508   18.5821 C   0  0  0  0  0  0  0  0  0  0  0  0
    8.7464  -18.4422   17.7162 O   0  0  0  0  0  0  0  0  0  0  0  0
    9.2549  -19.4834   22.0843 C   0  0  0  0  0  0  0  0  0  0  0  0
    8.7794  -20.5815   22.4697 O   0  0  0  0  0  0  0  0  0  0  0  0
    6.6050  -18.5941   18.4056 O   0  0  0  0  0  0  0  0  0  0  0  0
   12.6584  -20.9229   22.3032 C   0  0  0  0  0  0  0  0  0  0  0  0
   12.5211  -19.9155   23.4007 C   0  0  1  0  0  0  0  0  0  0  0  0
   13.0482  -18.6709   23.0742 O   0  0  0  0  0  0  0  0  0  0  0  0
   11.0763  -19.6841   23.8122 C   0  0  2  0  0  0  0  0  0  0  0  0
   10.4152  -18.9797   22.7244 N   0  0  0  0  0  0  0  0  0  0  0  0
   11.0990  -18.8718   25.0429 C   0  0  0  0  0  0  0  0  0  0  0  0
   11.5860  -19.4208   26.2074 O   0  0  0  0  0  0  0  0  0  0  0  0
   10.6785  -17.6987   25.0188 O   0  0  0  0  0  0  0  0  0  0  0  0
  2  1  1  0
  2  3  2  0
  4  5  1  0
  4  2  1  0
  5  6  1  0
  6  7  1  6
  8  6  1  0
  8  9  2  0
 10  8  1  0
 11 10  1  0
 11 12  1  6
 13 12  1  0
 14 13  2  0
 15 11  1  0
 16 15  2  0
 17 13  1  0
 19 20  1  0
 19 18  1  6
 21 19  1  0
 21 22  1  6
 22 15  1  0
 23 24  1  0
 23 21  1  0
 25 23  2  0
M  END
$$$$
