QDT.pdb
     RDKit          3D

 25 24  0  0  1  0  0  0  0  0999 V2000
    7.7615  -13.3867   14.8018 N   0  0  0  0  0  0  0  0  0  0  0  0
    7.5908  -14.1690   15.9726 C   0  0  0  0  0  0  0  0  0  0  0  0
    6.8759  -15.1830   15.9096 O   0  0  0  0  0  0  0  0  0  0  0  0
    8.2471  -13.7693   17.2147 C   0  0  0  0  0  0  0  0  0  0  0  0
    7.8094  -14.4353   18.4712 C   0  0  0  0  0  0  0  0  0  0  0  0
    8.5482  -13.9266   19.6490 C   0  0  2  0  0  0  0  0  0  0  0  0
    9.8308  -13.3785   19.3219 N   0  0  0  0  0  0  0  0  0  0  0  0
    8.7692  -15.0094   20.6816 C   0  0  0  0  0  0  0  0  0  0  0  0
    7.8100  -15.6854   21.1339 O   0  0  0  0  0  0  0  0  0  0  0  0
   10.0787  -15.2983   21.1763 N   0  0  0  0  0  0  0  0  0  0  0  0
   10.3431  -16.3070   22.1611 C   0  0  1  0  0  0  0  0  0  0  0  0
   11.6889  -16.9496   21.9959 C   0  0  0  0  0  0  0  0  0  0  0  0
   11.8577  -17.6891   20.7567 C   0  0  0  0  0  0  0  0  0  0  0  0
   10.9390  -18.4026   20.3063 O   0  0  0  0  0  0  0  0  0  0  0  0
   10.1108  -15.8197   23.5455 C   0  0  0  0  0  0  0  0  0  0  0  0
   11.0711  -15.3796   24.2269 O   0  0  0  0  0  0  0  0  0  0  0  0
   13.0378  -17.6197   20.0491 O   0  0  0  0  0  0  0  0  0  0  0  0
    7.4436  -13.3115   25.0564 C   0  0  0  0  0  0  0  0  0  0  0  0
    7.2895  -14.7018   25.5869 C   0  0  1  0  0  0  0  0  0  0  0  0
    6.3208  -15.4416   24.9180 O   0  0  0  0  0  0  0  0  0  0  0  0
    8.5777  -15.5057   25.5190 C   0  0  2  0  0  0  0  0  0  0  0  0
    8.8164  -15.8396   24.1233 N   0  0  0  0  0  0  0  0  0  0  0  0
    8.3779  -16.7178   26.3348 C   0  0  0  0  0  0  0  0  0  0  0  0
    8.3210  -16.6093   27.7058 O   0  0  0  0  0  0  0  0  0  0  0  0
    8.2626  -17.8271   25.7783 O   0  0  0  0  0  0  0  0  0  0  0  0
  2  1  1  0
  2  3  2  0
  4  5  1  0
  4  2  1  0
  5  6  1  0
  6  7  1  6
  8  6  1  0
  8  9  2  0
 10  8  1  0
 11 10  1  0
 11 12  1  1
 13 12  1  0
 14 13  2  0
 15 11  1  0
 16 15  2  0
 17 13  1  0
 19 20  1  0
 19 18  1  6
 21 19  1  0
 21 22  1  6
 22 15  1  0
 23 24  1  0
 23 21  1  0
 25 23  2  0
M  END
$$$$
