SHI.pdb
     RDKit          3D

 25 25  0  0  1  0  0  0  0  0999 V2000
    9.5302  -15.0513   19.4619 O   0  0  0  0  0  0  0  0  0  0  0  0
    9.6767  -16.4120   19.1055 C   0  0  0  0  0  0  0  0  0  0  0  0
    8.3364  -17.0615   19.3791 C   0  0  2  0  0  0  0  0  0  0  0  0
    7.3075  -16.5490   18.4950 N   0  0  0  0  0  0  0  0  0  0  0  0
    7.9410  -16.9574   20.8040 C   0  0  0  0  0  0  0  0  0  0  0  0
    7.0404  -16.1476   21.1413 O   0  0  0  0  0  0  0  0  0  0  0  0
    8.5261  -17.7312   21.8420 N   0  0  0  0  0  0  0  0  0  0  0  0
    8.1359  -17.6758   23.2136 C   0  0  1  0  0  0  0  0  0  0  0  0
    8.5897  -18.8527   24.0331 C   0  0  0  0  0  0  0  0  0  0  0  0
    7.9632  -18.8931   25.3726 C   0  0  0  0  0  0  0  0  0  0  0  0
    6.6957  -18.4688   25.6926 C   0  0  0  0  0  0  0  0  0  0  0  0
    6.4970  -18.6727   27.0247 N   0  0  0  0  0  0  0  0  0  0  0  0
    7.6082  -19.2096   27.5263 C   0  0  0  0  0  0  0  0  0  0  0  0
    8.4847  -19.3404   26.5343 N   0  0  0  0  0  0  0  0  0  0  0  0
    8.5434  -16.3953   23.8701 C   0  0  0  0  0  0  0  0  0  0  0  0
    9.6413  -15.8831   23.5421 O   0  0  0  0  0  0  0  0  0  0  0  0
    6.1312  -11.2403   25.7232 C   0  0  0  0  0  0  0  0  0  0  0  0
    7.3606  -12.1254   25.8436 C   0  0  0  0  0  0  0  0  0  0  0  0
    6.9734  -13.5106   25.4032 C   0  0  2  0  0  0  0  0  0  0  0  0
    5.8883  -14.0049   26.3433 C   0  0  0  0  0  0  0  0  0  0  0  0
    8.1480  -14.4257   25.3485 C   0  0  2  0  0  0  0  0  0  0  0  0
    7.7609  -15.7420   24.8305 N   0  0  0  0  0  0  0  0  0  0  0  0
    8.8753  -14.6182   26.6075 C   0  0  0  0  0  0  0  0  0  0  0  0
    8.8715  -15.8614   27.2142 O   0  0  0  0  0  0  0  0  0  0  0  0
    9.5029  -13.6949   27.1569 O   0  0  0  0  0  0  0  0  0  0  0  0
  1  2  1  0
  3  2  1  0
  3  4  1  6
  5  6  2  0
  5  3  1  0
  7  5  1  0
  8  7  1  0
  8  9  1  1
 10  9  1  0
 11 10  2  0
 12 11  1  0
 12 13  1  0
 13 14  2  0
 14 10  1  0
 15  8  1  0
 16 15  2  0
 18 19  1  0
 18 17  1  0
 19 21  1  0
 19 20  1  1
 21 22  1  1
 22 15  1  0
 23 24  1  0
 23 21  1  0
 25 23  2  0
M  END
$$$$
