SHI.pdb
     RDKit          3D

 25 25  0  0  1  0  0  0  0  0999 V2000
    9.4846  -12.0856   20.1170 O   0  0  0  0  0  0  0  0  0  0  0  0
    9.6813  -13.1858   19.2505 C   0  0  0  0  0  0  0  0  0  0  0  0
    8.4361  -14.0391   19.3703 C   0  0  2  0  0  0  0  0  0  0  0  0
    7.2469  -13.2994   18.9941 N   0  0  0  0  0  0  0  0  0  0  0  0
    8.3018  -14.6531   20.7130 C   0  0  0  0  0  0  0  0  0  0  0  0
    7.3227  -14.3482   21.4404 O   0  0  0  0  0  0  0  0  0  0  0  0
    9.2288  -15.5874   21.2478 N   0  0  0  0  0  0  0  0  0  0  0  0
    9.0378  -16.3171   22.4593 C   0  0  1  0  0  0  0  0  0  0  0  0
    9.8396  -17.5865   22.5491 C   0  0  0  0  0  0  0  0  0  0  0  0
    9.3191  -18.6557   21.6691 C   0  0  0  0  0  0  0  0  0  0  0  0
    8.2025  -18.5829   20.8711 C   0  0  0  0  0  0  0  0  0  0  0  0
    8.0607  -19.7708   20.2197 N   0  0  0  0  0  0  0  0  0  0  0  0
    9.0600  -20.5663   20.5981 C   0  0  0  0  0  0  0  0  0  0  0  0
    9.8121  -19.8956   21.4664 N   0  0  0  0  0  0  0  0  0  0  0  0
    9.2607  -15.4727   23.6734 C   0  0  0  0  0  0  0  0  0  0  0  0
   10.2694  -14.7262   23.7005 O   0  0  0  0  0  0  0  0  0  0  0  0
    5.5906  -12.3836   25.5052 C   0  0  0  0  0  0  0  0  0  0  0  0
    6.9319  -12.9819   25.1153 C   0  0  0  0  0  0  0  0  0  0  0  0
    7.4119  -13.8215   26.2674 C   0  0  2  0  0  0  0  0  0  0  0  0
    7.6116  -12.8984   27.4564 C   0  0  0  0  0  0  0  0  0  0  0  0
    8.6415  -14.5891   25.9222 C   0  0  2  0  0  0  0  0  0  0  0  0
    8.4004  -15.4749   24.7786 N   0  0  0  0  0  0  0  0  0  0  0  0
    9.2334  -15.3809   27.0057 C   0  0  0  0  0  0  0  0  0  0  0  0
    8.9550  -16.7332   27.0929 O   0  0  0  0  0  0  0  0  0  0  0  0
    9.9852  -14.8764   27.8593 O   0  0  0  0  0  0  0  0  0  0  0  0
  1  2  1  0
  3  2  1  0
  3  4  1  1
  5  6  2  0
  5  3  1  0
  7  5  1  0
  8  7  1  0
  8  9  1  6
 10  9  1  0
 11 10  2  0
 12 11  1  0
 12 13  1  0
 13 14  2  0
 14 10  1  0
 15  8  1  0
 16 15  2  0
 18 19  1  0
 18 17  1  0
 19 21  1  0
 19 20  1  1
 21 22  1  6
 22 15  1  0
 23 24  1  0
 23 21  1  0
 25 23  2  0
M  END
$$$$
