SHI.pdb
     RDKit          3D

 25 25  0  0  1  0  0  0  0  0999 V2000
   10.4582  -13.0252   20.0880 O   0  0  0  0  0  0  0  0  0  0  0  0
   10.0304  -13.9907   19.1473 C   0  0  0  0  0  0  0  0  0  0  0  0
    8.5167  -13.9617   19.1786 C   0  0  2  0  0  0  0  0  0  0  0  0
    8.0029  -12.6555   18.8143 N   0  0  0  0  0  0  0  0  0  0  0  0
    7.9717  -14.4263   20.4766 C   0  0  0  0  0  0  0  0  0  0  0  0
    7.2972  -13.6368   21.1855 O   0  0  0  0  0  0  0  0  0  0  0  0
    8.1649  -15.7377   20.9875 N   0  0  0  0  0  0  0  0  0  0  0  0
    7.6406  -16.2106   22.2278 C   0  0  1  0  0  0  0  0  0  0  0  0
    7.6270  -17.7087   22.3619 C   0  0  0  0  0  0  0  0  0  0  0  0
    6.7605  -18.3654   21.3587 C   0  0  0  0  0  0  0  0  0  0  0  0
    5.5844  -17.8699   20.8485 C   0  0  0  0  0  0  0  0  0  0  0  0
    5.0898  -18.7706   19.9542 N   0  0  0  0  0  0  0  0  0  0  0  0
    5.9317  -19.8019   19.9047 C   0  0  0  0  0  0  0  0  0  0  0  0
    6.9314  -19.5562   20.7471 N   0  0  0  0  0  0  0  0  0  0  0  0
    8.3183  -15.5878   23.4066 C   0  0  0  0  0  0  0  0  0  0  0  0
    9.5479  -15.3488   23.3268 O   0  0  0  0  0  0  0  0  0  0  0  0
    5.8341  -11.7695   26.0857 C   0  0  0  0  0  0  0  0  0  0  0  0
    6.8861  -12.5935   25.3620 C   0  0  0  0  0  0  0  0  0  0  0  0
    7.4510  -13.5817   26.3453 C   0  0  2  0  0  0  0  0  0  0  0  0
    8.1538  -12.7934   27.4363 C   0  0  0  0  0  0  0  0  0  0  0  0
    8.3456  -14.5739   25.6853 C   0  0  2  0  0  0  0  0  0  0  0  0
    7.6488  -15.2594   24.5921 N   0  0  0  0  0  0  0  0  0  0  0  0
    8.9436  -15.5867   26.5615 C   0  0  0  0  0  0  0  0  0  0  0  0
   10.1315  -15.3088   27.2138 O   0  0  0  0  0  0  0  0  0  0  0  0
    8.4168  -16.6994   26.7425 O   0  0  0  0  0  0  0  0  0  0  0  0
  1  2  1  0
  3  2  1  0
  3  4  1  1
  5  6  2  0
  5  3  1  0
  7  5  1  0
  8  7  1  0
  8  9  1  1
 10  9  1  0
 11 10  2  0
 12 11  1  0
 12 13  1  0
 13 14  2  0
 14 10  1  0
 15  8  1  0
 16 15  2  0
 18 19  1  0
 18 17  1  0
 19 21  1  0
 19 20  1  1
 21 22  1  6
 22 15  1  0
 23 24  1  0
 23 21  1  0
 25 23  2  0
M  END
$$$$
