SHI.pdb
     RDKit          3D

 25 25  0  0  1  0  0  0  0  0999 V2000
    9.0754  -14.7307   20.0445 O   0  0  0  0  0  0  0  0  0  0  0  0
    8.5540  -15.9504   19.5539 C   0  0  0  0  0  0  0  0  0  0  0  0
    7.1026  -15.9868   19.9843 C   0  0  2  0  0  0  0  0  0  0  0  0
    6.3758  -14.8292   19.4998 N   0  0  0  0  0  0  0  0  0  0  0  0
    6.9542  -16.1576   21.4493 C   0  0  0  0  0  0  0  0  0  0  0  0
    6.3950  -15.2578   22.1262 O   0  0  0  0  0  0  0  0  0  0  0  0
    7.4131  -17.2994   22.1593 N   0  0  0  0  0  0  0  0  0  0  0  0
    7.2913  -17.4808   23.5696 C   0  0  1  0  0  0  0  0  0  0  0  0
    7.6081  -18.8729   24.0432 C   0  0  0  0  0  0  0  0  0  0  0  0
    7.3630  -19.0547   25.4908 C   0  0  0  0  0  0  0  0  0  0  0  0
    6.8708  -18.1097   26.3589 C   0  0  0  0  0  0  0  0  0  0  0  0
    6.7924  -18.6651   27.6003 N   0  0  0  0  0  0  0  0  0  0  0  0
    7.2231  -19.9227   27.5135 C   0  0  0  0  0  0  0  0  0  0  0  0
    7.5642  -20.1532   26.2486 N   0  0  0  0  0  0  0  0  0  0  0  0
    8.0821  -16.4744   24.3433 C   0  0  0  0  0  0  0  0  0  0  0  0
    9.2167  -16.1529   23.9133 O   0  0  0  0  0  0  0  0  0  0  0  0
    5.6124  -12.2525   26.4563 C   0  0  0  0  0  0  0  0  0  0  0  0
    6.6074  -13.1457   25.7341 C   0  0  0  0  0  0  0  0  0  0  0  0
    7.4826  -13.7914   26.7732 C   0  0  2  0  0  0  0  0  0  0  0  0
    8.2369  -12.6855   27.4899 C   0  0  0  0  0  0  0  0  0  0  0  0
    8.3887  -14.8146   26.1797 C   0  0  2  0  0  0  0  0  0  0  0  0
    7.6188  -15.8750   25.5212 N   0  0  0  0  0  0  0  0  0  0  0  0
    9.3467  -15.4388   27.0982 C   0  0  0  0  0  0  0  0  0  0  0  0
   10.6138  -14.9001   27.2319 O   0  0  0  0  0  0  0  0  0  0  0  0
    9.0594  -16.4463   27.7696 O   0  0  0  0  0  0  0  0  0  0  0  0
  1  2  1  0
  3  2  1  0
  3  4  1  1
  5  6  2  0
  5  3  1  0
  7  5  1  0
  8  7  1  0
  8  9  1  6
 10  9  1  0
 11 10  2  0
 12 11  1  0
 12 13  1  0
 13 14  2  0
 14 10  1  0
 15  8  1  0
 16 15  2  0
 18 19  1  0
 18 17  1  0
 19 21  1  0
 19 20  1  6
 21 22  1  1
 22 15  1  0
 23 24  1  0
 23 21  1  0
 25 23  2  0
M  END
$$$$
