SHI.pdb
     RDKit          3D

 25 25  0  0  1  0  0  0  0  0999 V2000
    9.0906  -12.5355   18.2309 O   0  0  0  0  0  0  0  0  0  0  0  0
    8.6000  -12.8531   19.5188 C   0  0  0  0  0  0  0  0  0  0  0  0
    8.2431  -14.3241   19.4783 C   0  0  2  0  0  0  0  0  0  0  0  0
    7.0907  -14.5680   18.6326 N   0  0  0  0  0  0  0  0  0  0  0  0
    8.0636  -14.8971   20.8337 C   0  0  0  0  0  0  0  0  0  0  0  0
    6.9509  -14.7935   21.4096 O   0  0  0  0  0  0  0  0  0  0  0  0
    9.0908  -15.5734   21.5450 N   0  0  0  0  0  0  0  0  0  0  0  0
    8.8995  -16.2792   22.7705 C   0  0  1  0  0  0  0  0  0  0  0  0
    9.6318  -17.5907   22.8491 C   0  0  0  0  0  0  0  0  0  0  0  0
    9.1742  -18.5636   21.8329 C   0  0  0  0  0  0  0  0  0  0  0  0
    8.1880  -19.5072   21.9941 C   0  0  0  0  0  0  0  0  0  0  0  0
    8.0661  -20.2054   20.8308 N   0  0  0  0  0  0  0  0  0  0  0  0
    8.9507  -19.7139   19.9644 C   0  0  0  0  0  0  0  0  0  0  0  0
    9.6129  -18.7305   20.5676 N   0  0  0  0  0  0  0  0  0  0  0  0
    9.2092  -15.4367   23.9668 C   0  0  0  0  0  0  0  0  0  0  0  0
   10.3189  -14.8518   24.0099 O   0  0  0  0  0  0  0  0  0  0  0  0
    5.9755  -11.8672   25.9974 C   0  0  0  0  0  0  0  0  0  0  0  0
    7.1827  -12.6561   25.5180 C   0  0  0  0  0  0  0  0  0  0  0  0
    7.6010  -13.5764   26.6319 C   0  0  2  0  0  0  0  0  0  0  0  0
    7.9685  -12.7142   27.8265 C   0  0  0  0  0  0  0  0  0  0  0  0
    8.7061  -14.4857   26.2170 C   0  0  2  0  0  0  0  0  0  0  0  0
    8.3230  -15.2695   25.0383 N   0  0  0  0  0  0  0  0  0  0  0  0
    9.2045  -15.4062   27.2444 C   0  0  0  0  0  0  0  0  0  0  0  0
   10.0993  -14.9479   28.1946 O   0  0  0  0  0  0  0  0  0  0  0  0
    8.8488  -16.5975   27.2940 O   0  0  0  0  0  0  0  0  0  0  0  0
  1  2  1  0
  3  2  1  0
  3  4  1  6
  5  6  2  0
  5  3  1  0
  7  5  1  0
  8  7  1  0
  8  9  1  6
 10  9  1  0
 11 10  2  0
 12 11  1  0
 12 13  1  0
 13 14  2  0
 14 10  1  0
 15  8  1  0
 16 15  2  0
 18 19  1  0
 18 17  1  0
 19 21  1  0
 19 20  1  1
 21 22  1  6
 22 15  1  0
 23 24  1  0
 23 21  1  0
 25 23  2  0
M  END
$$$$
