SHI.pdb
     RDKit          3D

 25 25  0  0  1  0  0  0  0  0999 V2000
   11.8876  -18.3349   22.9723 O   0  0  0  0  0  0  0  0  0  0  0  0
   11.2951  -18.6109   21.7181 C   0  0  0  0  0  0  0  0  0  0  0  0
   11.4733  -17.3572   20.8877 C   0  0  2  0  0  0  0  0  0  0  0  0
   12.8756  -17.0622   20.6654 N   0  0  0  0  0  0  0  0  0  0  0  0
   10.7493  -16.1964   21.4587 C   0  0  0  0  0  0  0  0  0  0  0  0
   11.3930  -15.2917   22.0485 O   0  0  0  0  0  0  0  0  0  0  0  0
    9.3402  -16.0324   21.3828 N   0  0  0  0  0  0  0  0  0  0  0  0
    8.6202  -14.9332   21.9396 C   0  0  1  0  0  0  0  0  0  0  0  0
    7.3535  -14.5887   21.2054 C   0  0  0  0  0  0  0  0  0  0  0  0
    7.5701  -14.3801   19.7569 C   0  0  0  0  0  0  0  0  0  0  0  0
    8.0576  -13.2413   19.1615 C   0  0  0  0  0  0  0  0  0  0  0  0
    8.1069  -13.4465   17.8158 N   0  0  0  0  0  0  0  0  0  0  0  0
    7.6629  -14.6789   17.5737 C   0  0  0  0  0  0  0  0  0  0  0  0
    7.3421  -15.2357   18.7383 N   0  0  0  0  0  0  0  0  0  0  0  0
    8.3445  -15.1138   23.3984 C   0  0  0  0  0  0  0  0  0  0  0  0
    8.7829  -16.1460   23.9622 O   0  0  0  0  0  0  0  0  0  0  0  0
    6.4757  -10.8317   26.3618 C   0  0  0  0  0  0  0  0  0  0  0  0
    7.4048  -11.9694   25.9719 C   0  0  0  0  0  0  0  0  0  0  0  0
    6.6699  -13.2614   26.2029 C   0  0  2  0  0  0  0  0  0  0  0  0
    6.4753  -13.4176   27.7007 C   0  0  0  0  0  0  0  0  0  0  0  0
    7.3774  -14.4211   25.5907 C   0  0  2  0  0  0  0  0  0  0  0  0
    7.6228  -14.1891   24.1636 N   0  0  0  0  0  0  0  0  0  0  0  0
    6.7278  -15.7272   25.7435 C   0  0  0  0  0  0  0  0  0  0  0  0
    7.1233  -16.5700   26.7667 O   0  0  0  0  0  0  0  0  0  0  0  0
    5.8241  -16.1102   24.9788 O   0  0  0  0  0  0  0  0  0  0  0  0
  1  2  1  0
  3  2  1  0
  3  4  1  1
  5  6  2  0
  5  3  1  0
  7  5  1  0
  8  7  1  0
  8  9  1  6
 10  9  1  0
 11 10  2  0
 12 11  1  0
 12 13  1  0
 13 14  2  0
 14 10  1  0
 15  8  1  0
 16 15  2  0
 18 19  1  0
 18 17  1  0
 19 21  1  0
 19 20  1  1
 21 22  1  6
 22 15  1  0
 23 24  1  0
 23 21  1  0
 25 23  2  0
M  END
$$$$
