SHI.pdb
     RDKit          3D

 25 25  0  0  1  0  0  0  0  0999 V2000
    8.7479  -15.6284   19.6120 O   0  0  0  0  0  0  0  0  0  0  0  0
    9.1347  -16.9751   19.4198 C   0  0  0  0  0  0  0  0  0  0  0  0
    7.9310  -17.8128   19.7973 C   0  0  2  0  0  0  0  0  0  0  0  0
    6.9129  -17.7752   18.7653 N   0  0  0  0  0  0  0  0  0  0  0  0
    7.3839  -17.4455   21.1253 C   0  0  0  0  0  0  0  0  0  0  0  0
    6.2529  -16.9020   21.2025 O   0  0  0  0  0  0  0  0  0  0  0  0
    8.0690  -17.6720   22.3491 N   0  0  0  0  0  0  0  0  0  0  0  0
    7.5265  -17.4108   23.6429 C   0  0  1  0  0  0  0  0  0  0  0  0
    7.4626  -18.6158   24.5410 C   0  0  0  0  0  0  0  0  0  0  0  0
    6.4410  -19.5959   24.1119 C   0  0  0  0  0  0  0  0  0  0  0  0
    5.5296  -19.4314   23.0964 C   0  0  0  0  0  0  0  0  0  0  0  0
    4.7663  -20.5568   23.0166 N   0  0  0  0  0  0  0  0  0  0  0  0
    5.1868  -21.4034   23.9553 C   0  0  0  0  0  0  0  0  0  0  0  0
    6.1900  -20.8250   24.6097 N   0  0  0  0  0  0  0  0  0  0  0  0
    8.2220  -16.2817   24.3344 C   0  0  0  0  0  0  0  0  0  0  0  0
    9.4639  -16.1716   24.1897 O   0  0  0  0  0  0  0  0  0  0  0  0
    5.7447  -11.7961   27.0699 C   0  0  0  0  0  0  0  0  0  0  0  0
    6.2596  -13.1841   26.7268 C   0  0  0  0  0  0  0  0  0  0  0  0
    7.4747  -13.0201   25.8554 C   0  0  2  0  0  0  0  0  0  0  0  0
    6.9999  -12.5694   24.4853 C   0  0  0  0  0  0  0  0  0  0  0  0
    8.2919  -14.2648   25.8002 C   0  0  2  0  0  0  0  0  0  0  0  0
    7.5560  -15.3437   25.1332 N   0  0  0  0  0  0  0  0  0  0  0  0
    8.7893  -14.7677   27.0850 C   0  0  0  0  0  0  0  0  0  0  0  0
    9.7187  -14.0275   27.7936 O   0  0  0  0  0  0  0  0  0  0  0  0
    8.4025  -15.8475   27.5674 O   0  0  0  0  0  0  0  0  0  0  0  0
  1  2  1  0
  3  2  1  0
  3  4  1  6
  5  6  2  0
  5  3  1  0
  7  5  1  0
  8  7  1  0
  8  9  1  1
 10  9  1  0
 11 10  2  0
 12 11  1  0
 12 13  1  0
 13 14  2  0
 14 10  1  0
 15  8  1  0
 16 15  2  0
 18 19  1  0
 18 17  1  0
 19 21  1  0
 19 20  1  6
 21 22  1  1
 22 15  1  0
 23 24  1  0
 23 21  1  0
 25 23  2  0
M  END
$$$$
