SHI.pdb
     RDKit          3D

 25 25  0  0  1  0  0  0  0  0999 V2000
    9.5273  -15.6621   18.7376 O   0  0  0  0  0  0  0  0  0  0  0  0
    8.2452  -15.4807   19.3062 C   0  0  0  0  0  0  0  0  0  0  0  0
    7.7437  -16.8663   19.6549 C   0  0  2  0  0  0  0  0  0  0  0  0
    6.6577  -17.2729   18.7842 N   0  0  0  0  0  0  0  0  0  0  0  0
    7.3782  -16.9886   21.0864 C   0  0  0  0  0  0  0  0  0  0  0  0
    6.2272  -16.6527   21.4645 O   0  0  0  0  0  0  0  0  0  0  0  0
    8.2635  -17.4725   22.0865 N   0  0  0  0  0  0  0  0  0  0  0  0
    7.9520  -17.5506   23.4770 C   0  0  1  0  0  0  0  0  0  0  0  0
    8.2564  -18.8832   24.1046 C   0  0  0  0  0  0  0  0  0  0  0  0
    7.9700  -18.9114   25.5557 C   0  0  0  0  0  0  0  0  0  0  0  0
    6.7740  -18.5989   26.1565 C   0  0  0  0  0  0  0  0  0  0  0  0
    6.9170  -18.7471   27.5030 N   0  0  0  0  0  0  0  0  0  0  0  0
    8.1672  -19.1413   27.7404 C   0  0  0  0  0  0  0  0  0  0  0  0
    8.7955  -19.2387   26.5720 N   0  0  0  0  0  0  0  0  0  0  0  0
    8.5833  -16.4470   24.2646 C   0  0  0  0  0  0  0  0  0  0  0  0
    9.7499  -16.0950   23.9638 O   0  0  0  0  0  0  0  0  0  0  0  0
    5.8940  -12.1751   26.0551 C   0  0  0  0  0  0  0  0  0  0  0  0
    6.9971  -13.0378   25.4648 C   0  0  0  0  0  0  0  0  0  0  0  0
    7.6925  -13.7348   26.6021 C   0  0  2  0  0  0  0  0  0  0  0  0
    8.3745  -12.6712   27.4443 C   0  0  0  0  0  0  0  0  0  0  0  0
    8.6382  -14.7801   26.1192 C   0  0  2  0  0  0  0  0  0  0  0  0
    7.9371  -15.7892   25.3188 N   0  0  0  0  0  0  0  0  0  0  0  0
    9.4212  -15.4682   27.1510 C   0  0  0  0  0  0  0  0  0  0  0  0
   10.6928  -15.0171   27.4564 O   0  0  0  0  0  0  0  0  0  0  0  0
    8.9798  -16.4538   27.7691 O   0  0  0  0  0  0  0  0  0  0  0  0
  1  2  1  0
  3  2  1  0
  3  4  1  6
  5  6  2  0
  5  3  1  0
  7  5  1  0
  8  7  1  0
  8  9  1  1
 10  9  1  0
 11 10  2  0
 12 11  1  0
 12 13  1  0
 13 14  2  0
 14 10  1  0
 15  8  1  0
 16 15  2  0
 18 19  1  0
 18 17  1  0
 19 21  1  0
 19 20  1  6
 21 22  1  1
 22 15  1  0
 23 24  1  0
 23 21  1  0
 25 23  2  0
M  END
$$$$
