SHI.pdb
     RDKit          3D

 25 25  0  0  1  0  0  0  0  0999 V2000
   10.5829  -12.5603   19.3840 O   0  0  0  0  0  0  0  0  0  0  0  0
   10.2969  -13.8699   18.9333 C   0  0  0  0  0  0  0  0  0  0  0  0
    8.7888  -14.0022   18.9654 C   0  0  2  0  0  0  0  0  0  0  0  0
    8.1385  -12.7556   18.6107 N   0  0  0  0  0  0  0  0  0  0  0  0
    8.2978  -14.5313   20.2603 C   0  0  0  0  0  0  0  0  0  0  0  0
    7.4694  -13.8637   20.9302 O   0  0  0  0  0  0  0  0  0  0  0  0
    8.7106  -15.7744   20.8103 N   0  0  0  0  0  0  0  0  0  0  0  0
    8.2145  -16.3271   22.0290 C   0  0  1  0  0  0  0  0  0  0  0  0
    8.5239  -17.7871   22.2164 C   0  0  0  0  0  0  0  0  0  0  0  0
    8.0510  -18.3102   23.5169 C   0  0  0  0  0  0  0  0  0  0  0  0
    8.8386  -18.7634   24.5480 C   0  0  0  0  0  0  0  0  0  0  0  0
    8.0268  -19.1598   25.5675 N   0  0  0  0  0  0  0  0  0  0  0  0
    6.7658  -18.9610   25.1869 C   0  0  0  0  0  0  0  0  0  0  0  0
    6.7835  -18.4520   23.9581 N   0  0  0  0  0  0  0  0  0  0  0  0
    8.6483  -15.5443   23.2272 C   0  0  0  0  0  0  0  0  0  0  0  0
    9.7754  -14.9925   23.1997 O   0  0  0  0  0  0  0  0  0  0  0  0
    6.7682  -11.4976   27.0850 C   0  0  0  0  0  0  0  0  0  0  0  0
    7.7803  -12.6215   26.9363 C   0  0  0  0  0  0  0  0  0  0  0  0
    7.3196  -13.5077   25.8116 C   0  0  2  0  0  0  0  0  0  0  0  0
    5.9608  -14.0669   26.1946 C   0  0  0  0  0  0  0  0  0  0  0  0
    8.3133  -14.5734   25.5001 C   0  0  2  0  0  0  0  0  0  0  0  0
    7.8597  -15.3978   24.3753 N   0  0  0  0  0  0  0  0  0  0  0  0
    8.6762  -15.4615   26.6095 C   0  0  0  0  0  0  0  0  0  0  0  0
    9.5454  -15.0115   27.5871 O   0  0  0  0  0  0  0  0  0  0  0  0
    8.2267  -16.6177   26.7057 O   0  0  0  0  0  0  0  0  0  0  0  0
  1  2  1  0
  3  2  1  0
  3  4  1  1
  5  6  2  0
  5  3  1  0
  7  5  1  0
  8  7  1  0
  8  9  1  1
 10  9  1  0
 11 10  2  0
 12 11  1  0
 12 13  1  0
 13 14  2  0
 14 10  1  0
 15  8  1  0
 16 15  2  0
 18 19  1  0
 18 17  1  0
 19 21  1  0
 19 20  1  1
 21 22  1  6
 22 15  1  0
 23 24  1  0
 23 21  1  0
 25 23  2  0
M  END
$$$$
