SHI.pdb
     RDKit          3D

 25 25  0  0  1  0  0  0  0  0999 V2000
   10.5338  -12.9636   20.0337 O   0  0  0  0  0  0  0  0  0  0  0  0
   10.1606  -13.7335   18.9076 C   0  0  0  0  0  0  0  0  0  0  0  0
    8.6736  -13.9832   19.0473 C   0  0  2  0  0  0  0  0  0  0  0  0
    7.9006  -12.8196   18.6582 N   0  0  0  0  0  0  0  0  0  0  0  0
    8.3080  -14.4601   20.4025 C   0  0  0  0  0  0  0  0  0  0  0  0
    7.4310  -13.8460   21.0616 O   0  0  0  0  0  0  0  0  0  0  0  0
    8.8969  -15.5940   21.0237 N   0  0  0  0  0  0  0  0  0  0  0  0
    8.3926  -16.2291   22.1980 C   0  0  1  0  0  0  0  0  0  0  0  0
    8.7033  -17.6981   22.2879 C   0  0  0  0  0  0  0  0  0  0  0  0
    8.1219  -18.4756   21.1717 C   0  0  0  0  0  0  0  0  0  0  0  0
    6.7859  -18.7133   20.9532 C   0  0  0  0  0  0  0  0  0  0  0  0
    6.6617  -19.4674   19.8256 N   0  0  0  0  0  0  0  0  0  0  0  0
    7.8849  -19.6962   19.3501 C   0  0  0  0  0  0  0  0  0  0  0  0
    8.7574  -19.1009   20.1585 N   0  0  0  0  0  0  0  0  0  0  0  0
    8.8159  -15.5292   23.4500 C   0  0  0  0  0  0  0  0  0  0  0  0
    9.9694  -15.0363   23.4938 O   0  0  0  0  0  0  0  0  0  0  0  0
    5.4355  -12.1955   25.6229 C   0  0  0  0  0  0  0  0  0  0  0  0
    6.6764  -12.8848   25.0803 C   0  0  0  0  0  0  0  0  0  0  0  0
    7.2527  -13.7280   26.1846 C   0  0  2  0  0  0  0  0  0  0  0  0
    7.6418  -12.7962   27.3186 C   0  0  0  0  0  0  0  0  0  0  0  0
    8.3915  -14.5637   25.7103 C   0  0  2  0  0  0  0  0  0  0  0  0
    7.9893  -15.3974   24.5729 N   0  0  0  0  0  0  0  0  0  0  0  0
    9.0232  -15.4243   26.7160 C   0  0  0  0  0  0  0  0  0  0  0  0
   10.0547  -14.9244   27.4905 O   0  0  0  0  0  0  0  0  0  0  0  0
    8.6623  -16.6006   26.9010 O   0  0  0  0  0  0  0  0  0  0  0  0
  1  2  1  0
  3  2  1  0
  3  4  1  1
  5  6  2  0
  5  3  1  0
  7  5  1  0
  8  7  1  0
  8  9  1  1
 10  9  1  0
 11 10  2  0
 12 11  1  0
 12 13  1  0
 13 14  2  0
 14 10  1  0
 15  8  1  0
 16 15  2  0
 18 19  1  0
 18 17  1  0
 19 21  1  0
 19 20  1  1
 21 22  1  6
 22 15  1  0
 23 24  1  0
 23 21  1  0
 25 23  2  0
M  END
$$$$
