SHI.pdb
     RDKit          3D

 25 25  0  0  1  0  0  0  0  0999 V2000
    8.1137  -13.6326   18.9637 O   0  0  0  0  0  0  0  0  0  0  0  0
    9.0765  -14.6683   18.9482 C   0  0  0  0  0  0  0  0  0  0  0  0
    8.2974  -15.9636   19.0400 C   0  0  2  0  0  0  0  0  0  0  0  0
    7.2526  -16.0272   18.0364 N   0  0  0  0  0  0  0  0  0  0  0  0
    7.7682  -16.2065   20.4032 C   0  0  0  0  0  0  0  0  0  0  0  0
    6.5437  -16.0381   20.6334 O   0  0  0  0  0  0  0  0  0  0  0  0
    8.5718  -16.6279   21.4963 N   0  0  0  0  0  0  0  0  0  0  0  0
    8.0737  -16.9394   22.7969 C   0  0  1  0  0  0  0  0  0  0  0  0
    8.2686  -18.3736   23.2061 C   0  0  0  0  0  0  0  0  0  0  0  0
    7.7187  -18.6658   24.5481 C   0  0  0  0  0  0  0  0  0  0  0  0
    8.4433  -18.9275   25.6863 C   0  0  0  0  0  0  0  0  0  0  0  0
    7.5720  -19.1461   26.7104 N   0  0  0  0  0  0  0  0  0  0  0  0
    6.3360  -19.0249   26.2284 C   0  0  0  0  0  0  0  0  0  0  0  0
    6.4271  -18.7372   24.9329 N   0  0  0  0  0  0  0  0  0  0  0  0
    8.6106  -16.0200   23.8473 C   0  0  0  0  0  0  0  0  0  0  0  0
    9.7946  -15.6183   23.7359 O   0  0  0  0  0  0  0  0  0  0  0  0
    5.6357  -12.1245   25.9779 C   0  0  0  0  0  0  0  0  0  0  0  0
    6.8006  -12.8948   25.3786 C   0  0  0  0  0  0  0  0  0  0  0  0
    7.3985  -13.7428   26.4677 C   0  0  2  0  0  0  0  0  0  0  0  0
    7.9409  -12.8066   27.5331 C   0  0  0  0  0  0  0  0  0  0  0  0
    8.4336  -14.6763   25.9411 C   0  0  2  0  0  0  0  0  0  0  0  0
    7.8580  -15.5869   24.9461 N   0  0  0  0  0  0  0  0  0  0  0  0
    9.1510  -15.4747   26.9406 C   0  0  0  0  0  0  0  0  0  0  0  0
   10.3532  -15.0140   27.4466 O   0  0  0  0  0  0  0  0  0  0  0  0
    8.7140  -16.5634   27.3555 O   0  0  0  0  0  0  0  0  0  0  0  0
  1  2  1  0
  3  2  1  0
  3  4  1  6
  5  6  2  0
  5  3  1  0
  7  5  1  0
  8  7  1  0
  8  9  1  1
 10  9  1  0
 11 10  2  0
 12 11  1  0
 12 13  1  0
 13 14  2  0
 14 10  1  0
 15  8  1  0
 16 15  2  0
 18 19  1  0
 18 17  1  0
 19 21  1  0
 19 20  1  1
 21 22  1  6
 22 15  1  0
 23 24  1  0
 23 21  1  0
 25 23  2  0
M  END
$$$$
