SHI.pdb
     RDKit          3D

 25 25  0  0  1  0  0  0  0  0999 V2000
    9.0911  -15.5159   17.9967 O   0  0  0  0  0  0  0  0  0  0  0  0
    8.3138  -15.2972   19.1577 C   0  0  0  0  0  0  0  0  0  0  0  0
    7.7336  -16.6451   19.5313 C   0  0  2  0  0  0  0  0  0  0  0  0
    6.6169  -16.9982   18.6762 N   0  0  0  0  0  0  0  0  0  0  0  0
    7.3752  -16.7249   20.9676 C   0  0  0  0  0  0  0  0  0  0  0  0
    6.2263  -16.3770   21.3414 O   0  0  0  0  0  0  0  0  0  0  0  0
    8.2652  -17.1800   21.9771 N   0  0  0  0  0  0  0  0  0  0  0  0
    7.9150  -17.3526   23.3498 C   0  0  1  0  0  0  0  0  0  0  0  0
    8.1812  -18.7322   23.8867 C   0  0  0  0  0  0  0  0  0  0  0  0
    7.9127  -18.8436   25.3372 C   0  0  0  0  0  0  0  0  0  0  0  0
    8.8277  -19.1570   26.3136 C   0  0  0  0  0  0  0  0  0  0  0  0
    8.1892  -19.1600   27.5169 N   0  0  0  0  0  0  0  0  0  0  0  0
    6.9099  -18.8570   27.3015 C   0  0  0  0  0  0  0  0  0  0  0  0
    6.7473  -18.6680   25.9949 N   0  0  0  0  0  0  0  0  0  0  0  0
    8.5422  -16.3201   24.2314 C   0  0  0  0  0  0  0  0  0  0  0  0
    9.7455  -16.0224   24.0339 O   0  0  0  0  0  0  0  0  0  0  0  0
    5.8200  -12.0642   26.1077 C   0  0  0  0  0  0  0  0  0  0  0  0
    6.9016  -12.9449   25.5044 C   0  0  0  0  0  0  0  0  0  0  0  0
    7.5796  -13.6754   26.6311 C   0  0  2  0  0  0  0  0  0  0  0  0
    8.2468  -12.6373   27.5159 C   0  0  0  0  0  0  0  0  0  0  0  0
    8.5341  -14.7050   26.1321 C   0  0  2  0  0  0  0  0  0  0  0  0
    7.8534  -15.6711   25.2638 N   0  0  0  0  0  0  0  0  0  0  0  0
    9.2782  -15.4455   27.1563 C   0  0  0  0  0  0  0  0  0  0  0  0
   10.5243  -14.9947   27.5535 O   0  0  0  0  0  0  0  0  0  0  0  0
    8.8259  -16.4757   27.6876 O   0  0  0  0  0  0  0  0  0  0  0  0
  1  2  1  0
  3  2  1  0
  3  4  1  6
  5  6  2  0
  5  3  1  0
  7  5  1  0
  8  7  1  0
  8  9  1  1
 10  9  1  0
 11 10  2  0
 12 11  1  0
 12 13  1  0
 13 14  2  0
 14 10  1  0
 15  8  1  0
 16 15  2  0
 18 19  1  0
 18 17  1  0
 19 21  1  0
 19 20  1  6
 21 22  1  1
 22 15  1  0
 23 24  1  0
 23 21  1  0
 25 23  2  0
M  END
$$$$
