SHI.pdb
     RDKit          3D

 25 25  0  0  1  0  0  0  0  0999 V2000
    7.0494  -16.3307   18.1470 O   0  0  0  0  0  0  0  0  0  0  0  0
    7.3115  -14.9459   18.2638 C   0  0  0  0  0  0  0  0  0  0  0  0
    8.3976  -14.8137   19.3106 C   0  0  2  0  0  0  0  0  0  0  0  0
    9.5789  -15.5732   18.9492 N   0  0  0  0  0  0  0  0  0  0  0  0
    7.9147  -15.1582   20.6691 C   0  0  0  0  0  0  0  0  0  0  0  0
    6.9839  -14.4894   21.1858 O   0  0  0  0  0  0  0  0  0  0  0  0
    8.4462  -16.2211   21.4477 N   0  0  0  0  0  0  0  0  0  0  0  0
    7.9255  -16.6430   22.7077 C   0  0  1  0  0  0  0  0  0  0  0  0
    8.0812  -18.1141   22.9793 C   0  0  0  0  0  0  0  0  0  0  0  0
    7.4501  -18.5314   24.2506 C   0  0  0  0  0  0  0  0  0  0  0  0
    6.7170  -17.7341   25.0967 C   0  0  0  0  0  0  0  0  0  0  0  0
    6.3111  -18.4890   26.1555 N   0  0  0  0  0  0  0  0  0  0  0  0
    6.7763  -19.7247   25.9788 C   0  0  0  0  0  0  0  0  0  0  0  0
    7.4582  -19.7470   24.8369 N   0  0  0  0  0  0  0  0  0  0  0  0
    8.4719  -15.8419   23.8463 C   0  0  0  0  0  0  0  0  0  0  0  0
    9.6967  -15.5673   23.8453 O   0  0  0  0  0  0  0  0  0  0  0  0
    5.6476  -11.7258   25.5695 C   0  0  0  0  0  0  0  0  0  0  0  0
    6.7936  -12.6149   25.1160 C   0  0  0  0  0  0  0  0  0  0  0  0
    7.2328  -13.4355   26.2976 C   0  0  2  0  0  0  0  0  0  0  0  0
    7.7526  -12.4771   27.3545 C   0  0  0  0  0  0  0  0  0  0  0  0
    8.2355  -14.4692   25.9154 C   0  0  2  0  0  0  0  0  0  0  0  0
    7.6849  -15.3847   24.9107 N   0  0  0  0  0  0  0  0  0  0  0  0
    8.7917  -15.2661   27.0139 C   0  0  0  0  0  0  0  0  0  0  0  0
    9.9159  -14.8154   27.6823 O   0  0  0  0  0  0  0  0  0  0  0  0
    8.2848  -16.3447   27.3716 O   0  0  0  0  0  0  0  0  0  0  0  0
  1  2  1  0
  3  2  1  0
  3  4  1  6
  5  6  2  0
  5  3  1  0
  7  5  1  0
  8  7  1  0
  8  9  1  1
 10  9  1  0
 11 10  2  0
 12 11  1  0
 12 13  1  0
 13 14  2  0
 14 10  1  0
 15  8  1  0
 16 15  2  0
 18 19  1  0
 18 17  1  0
 19 21  1  0
 19 20  1  1
 21 22  1  6
 22 15  1  0
 23 24  1  0
 23 21  1  0
 25 23  2  0
M  END
$$$$
