SHI.pdb
     RDKit          3D

 25 25  0  0  1  0  0  0  0  0999 V2000
    8.4266  -15.9132   17.1987 O   0  0  0  0  0  0  0  0  0  0  0  0
    7.7071  -14.9574   17.9528 C   0  0  0  0  0  0  0  0  0  0  0  0
    8.5692  -14.6409   19.1568 C   0  0  2  0  0  0  0  0  0  0  0  0
    9.9228  -15.1318   18.9846 N   0  0  0  0  0  0  0  0  0  0  0  0
    7.9655  -15.1206   20.4229 C   0  0  0  0  0  0  0  0  0  0  0  0
    6.8062  -14.7500   20.7379 O   0  0  0  0  0  0  0  0  0  0  0  0
    8.6254  -15.9939   21.3285 N   0  0  0  0  0  0  0  0  0  0  0  0
    8.0743  -16.4490   22.5638 C   0  0  1  0  0  0  0  0  0  0  0  0
    8.1673  -17.9359   22.7714 C   0  0  0  0  0  0  0  0  0  0  0  0
    7.3842  -18.7027   21.7778 C   0  0  0  0  0  0  0  0  0  0  0  0
    6.0206  -18.8743   21.7718 C   0  0  0  0  0  0  0  0  0  0  0  0
    5.6881  -19.6419   20.6966 N   0  0  0  0  0  0  0  0  0  0  0  0
    6.8112  -19.9432   20.0466 C   0  0  0  0  0  0  0  0  0  0  0  0
    7.8254  -19.3792   20.6966 N   0  0  0  0  0  0  0  0  0  0  0  0
    8.6403  -15.7218   23.7417 C   0  0  0  0  0  0  0  0  0  0  0  0
    9.8641  -15.4428   23.7354 O   0  0  0  0  0  0  0  0  0  0  0  0
    6.1705  -11.6167   25.9455 C   0  0  0  0  0  0  0  0  0  0  0  0
    7.2348  -12.5513   25.3951 C   0  0  0  0  0  0  0  0  0  0  0  0
    7.5708  -13.5479   26.4706 C   0  0  2  0  0  0  0  0  0  0  0  0
    8.1564  -12.7794   27.6420 C   0  0  0  0  0  0  0  0  0  0  0  0
    8.4797  -14.6185   25.9729 C   0  0  2  0  0  0  0  0  0  0  0  0
    7.8726  -15.3380   24.8485 N   0  0  0  0  0  0  0  0  0  0  0  0
    8.9242  -15.6012   26.9668 C   0  0  0  0  0  0  0  0  0  0  0  0
   10.0481  -15.3392   27.7297 O   0  0  0  0  0  0  0  0  0  0  0  0
    8.3218  -16.6741   27.1519 O   0  0  0  0  0  0  0  0  0  0  0  0
  1  2  1  0
  3  2  1  0
  3  4  1  6
  5  6  2  0
  5  3  1  0
  7  5  1  0
  8  7  1  0
  8  9  1  1
 10  9  1  0
 11 10  2  0
 12 11  1  0
 12 13  1  0
 13 14  2  0
 14 10  1  0
 15  8  1  0
 16 15  2  0
 18 19  1  0
 18 17  1  0
 19 21  1  0
 19 20  1  1
 21 22  1  6
 22 15  1  0
 23 24  1  0
 23 21  1  0
 25 23  2  0
M  END
$$$$
