DAQ.pdb
     RDKit          3D

 23 22  0  0  1  0  0  0  0  0999 V2000
    6.0814  -17.3665   17.9057 N   0  0  0  0  0  0  0  0  0  0  0  0
    7.5035  -17.5746   17.7888 C   0  0  1  0  0  0  0  0  0  0  0  0
    7.9346  -17.5651   16.3174 C   0  0  0  0  0  0  0  0  0  0  0  0
    7.1024  -18.5282   15.5631 C   0  0  0  0  0  0  0  0  0  0  0  0
    6.6131  -19.5381   16.1123 O   0  0  0  0  0  0  0  0  0  0  0  0
    8.2678  -16.5348   18.5213 C   0  0  0  0  0  0  0  0  0  0  0  0
    9.5142  -16.6658   18.6057 O   0  0  0  0  0  0  0  0  0  0  0  0
    6.8529  -18.3179   14.2206 O   0  0  0  0  0  0  0  0  0  0  0  0
    7.4432  -13.1648   19.9543 C   0  0  0  0  0  0  0  0  0  0  0  0
    8.2518  -14.4511   19.8368 C   0  0  2  0  0  0  0  0  0  0  0  0
    7.5691  -15.4548   19.0858 N   0  0  0  0  0  0  0  0  0  0  0  0
    8.5650  -14.9497   21.2250 C   0  0  0  0  0  0  0  0  0  0  0  0
    7.7223  -15.6514   21.8511 O   0  0  0  0  0  0  0  0  0  0  0  0
   11.8563  -19.0129   22.7325 N   0  0  0  0  0  0  0  0  0  0  0  0
   10.6518  -18.9898   23.4844 C   0  0  0  0  0  0  0  0  0  0  0  0
   10.5169  -19.9108   24.3303 O   0  0  0  0  0  0  0  0  0  0  0  0
    9.6251  -17.9666   23.2975 C   0  0  0  0  0  0  0  0  0  0  0  0
    9.8920  -16.9778   22.2350 C   0  0  0  0  0  0  0  0  0  0  0  0
   10.4178  -15.6494   22.6967 C   0  0  2  0  0  0  0  0  0  0  0  0
    9.7959  -14.6495   21.8572 N   0  0  0  0  0  0  0  0  0  0  0  0
   11.9020  -15.5953   22.4446 C   0  0  0  0  0  0  0  0  0  0  0  0
   12.8369  -15.8972   23.4225 O   0  0  0  0  0  0  0  0  0  0  0  0
   12.3626  -15.2669   21.3127 O   0  0  0  0  0  0  0  0  0  0  0  0
  2  1  1  6
  2  3  1  0
  3  4  1  0
  4  5  2  0
  6 11  1  0
  6  2  1  0
  7  6  2  0
  8  4  1  0
 10  9  1  1
 10 12  1  0
 10 11  1  0
 12 20  1  0
 13 12  2  0
 15 14  1  0
 15 17  1  0
 16 15  2  0
 18 17  1  0
 19 21  1  0
 19 18  1  6
 20 19  1  0
 21 22  1  0
 23 21  2  0
M  END
$$$$
