DAQ.pdb
     RDKit          3D

 23 22  0  0  1  0  0  0  0  0999 V2000
   11.4356  -14.7581   18.0132 N   0  0  0  0  0  0  0  0  0  0  0  0
   11.6896  -15.1113   19.3880 C   0  0  1  0  0  0  0  0  0  0  0  0
   13.0299  -14.5339   19.8583 C   0  0  0  0  0  0  0  0  0  0  0  0
   14.1262  -15.1774   19.1013 C   0  0  0  0  0  0  0  0  0  0  0  0
   15.0934  -14.5175   18.6657 O   0  0  0  0  0  0  0  0  0  0  0  0
   10.6129  -14.6209   20.2838 C   0  0  0  0  0  0  0  0  0  0  0  0
   10.7809  -13.5189   20.8626 O   0  0  0  0  0  0  0  0  0  0  0  0
   14.0919  -16.5380   18.8639 O   0  0  0  0  0  0  0  0  0  0  0  0
    7.1086  -15.7639   21.0472 C   0  0  0  0  0  0  0  0  0  0  0  0
    8.3889  -14.9725   21.2853 C   0  0  2  0  0  0  0  0  0  0  0  0
    9.4588  -15.4053   20.4452 N   0  0  0  0  0  0  0  0  0  0  0  0
    8.7707  -15.1029   22.7382 C   0  0  0  0  0  0  0  0  0  0  0  0
    9.8265  -15.7143   23.0634 O   0  0  0  0  0  0  0  0  0  0  0  0
    6.3999  -10.3046   26.5853 N   0  0  0  0  0  0  0  0  0  0  0  0
    6.4091  -11.7240   26.5440 C   0  0  0  0  0  0  0  0  0  0  0  0
    5.5601  -12.2983   27.2729 O   0  0  0  0  0  0  0  0  0  0  0  0
    7.3407  -12.4826   25.7117 C   0  0  0  0  0  0  0  0  0  0  0  0
    7.3953  -13.9344   25.9710 C   0  0  0  0  0  0  0  0  0  0  0  0
    8.3788  -14.7091   25.1423 C   0  0  2  0  0  0  0  0  0  0  0  0
    7.9670  -14.5510   23.7652 N   0  0  0  0  0  0  0  0  0  0  0  0
    8.2645  -16.1715   25.4858 C   0  0  0  0  0  0  0  0  0  0  0  0
    8.9807  -16.7537   26.5201 O   0  0  0  0  0  0  0  0  0  0  0  0
    7.4986  -16.9394   24.8342 O   0  0  0  0  0  0  0  0  0  0  0  0
  2  1  1  6
  2  3  1  0
  3  4  1  0
  4  5  2  0
  6 11  1  0
  6  2  1  0
  7  6  2  0
  8  4  1  0
 10  9  1  1
 10 12  1  0
 10 11  1  0
 12 20  1  0
 13 12  2  0
 15 14  1  0
 15 17  1  0
 16 15  2  0
 18 17  1  0
 19 21  1  0
 19 18  1  1
 20 19  1  0
 21 22  1  0
 23 21  2  0
M  END
$$$$
