DAQ.pdb
     RDKit          3D

 23 22  0  0  1  0  0  0  0  0999 V2000
   10.9726  -19.4430   19.5131 N   0  0  0  0  0  0  0  0  0  0  0  0
   11.6773  -18.2572   19.9331 C   0  0  1  0  0  0  0  0  0  0  0  0
   11.9380  -17.3293   18.7406 C   0  0  0  0  0  0  0  0  0  0  0  0
   13.0877  -17.8474   17.9667 C   0  0  0  0  0  0  0  0  0  0  0  0
   14.0510  -17.1138   17.6591 O   0  0  0  0  0  0  0  0  0  0  0  0
   10.9187  -17.5108   20.9673 C   0  0  0  0  0  0  0  0  0  0  0  0
   11.3714  -16.4031   21.3491 O   0  0  0  0  0  0  0  0  0  0  0  0
   13.1090  -19.1703   17.5691 O   0  0  0  0  0  0  0  0  0  0  0  0
    7.6121  -18.0267   22.7013 C   0  0  0  0  0  0  0  0  0  0  0  0
    8.9970  -17.4210   22.5072 C   0  0  2  0  0  0  0  0  0  0  0  0
    9.7337  -18.0715   21.4720 N   0  0  0  0  0  0  0  0  0  0  0  0
    9.7422  -17.4978   23.8159 C   0  0  0  0  0  0  0  0  0  0  0  0
   10.5986  -18.4063   24.0049 O   0  0  0  0  0  0  0  0  0  0  0  0
    9.7887  -12.9632   28.3304 N   0  0  0  0  0  0  0  0  0  0  0  0
   10.5397  -14.0449   28.8619 C   0  0  0  0  0  0  0  0  0  0  0  0
   11.0653  -13.8456   29.9871 O   0  0  0  0  0  0  0  0  0  0  0  0
   10.7001  -15.3151   28.1571 C   0  0  0  0  0  0  0  0  0  0  0  0
   10.0260  -15.4109   26.8478 C   0  0  0  0  0  0  0  0  0  0  0  0
   10.2462  -16.6894   26.0921 C   0  0  2  0  0  0  0  0  0  0  0  0
    9.5061  -16.5662   24.8558 N   0  0  0  0  0  0  0  0  0  0  0  0
    9.6432  -17.8292   26.8710 C   0  0  0  0  0  0  0  0  0  0  0  0
   10.3916  -18.6357   27.7143 O   0  0  0  0  0  0  0  0  0  0  0  0
    8.4103  -18.1010   26.7857 O   0  0  0  0  0  0  0  0  0  0  0  0
  2  1  1  6
  2  3  1  0
  3  4  1  0
  4  5  2  0
  6 11  1  0
  6  2  1  0
  7  6  2  0
  8  4  1  0
 10  9  1  1
 10 12  1  0
 10 11  1  0
 12 20  1  0
 13 12  2  0
 15 14  1  0
 15 17  1  0
 16 15  2  0
 18 17  1  0
 19 21  1  0
 19 18  1  1
 20 19  1  0
 21 22  1  0
 23 21  2  0
M  END
$$$$
