DAQ.pdb
     RDKit          3D

 23 22  0  0  1  0  0  0  0  0999 V2000
    8.7765  -17.3335   16.8829 N   0  0  0  0  0  0  0  0  0  0  0  0
    7.8316  -17.2994   17.9717 C   0  0  1  0  0  0  0  0  0  0  0  0
    7.5419  -18.7153   18.4839 C   0  0  0  0  0  0  0  0  0  0  0  0
    7.0930  -19.5566   17.3527 C   0  0  0  0  0  0  0  0  0  0  0  0
    6.6413  -19.0518   16.3029 O   0  0  0  0  0  0  0  0  0  0  0  0
    8.3293  -16.4720   19.0985 C   0  0  0  0  0  0  0  0  0  0  0  0
    9.5054  -16.6607   19.4970 O   0  0  0  0  0  0  0  0  0  0  0  0
    7.1695  -20.9329   17.4464 O   0  0  0  0  0  0  0  0  0  0  0  0
    6.8055  -13.7536   21.2361 C   0  0  0  0  0  0  0  0  0  0  0  0
    7.8658  -14.7627   20.8120 C   0  0  2  0  0  0  0  0  0  0  0  0
    7.4690  -15.5186   19.6680 N   0  0  0  0  0  0  0  0  0  0  0  0
    8.1522  -15.6763   21.9769 C   0  0  0  0  0  0  0  0  0  0  0  0
    8.0536  -16.9276   21.8398 O   0  0  0  0  0  0  0  0  0  0  0  0
   14.2284  -16.0829   24.3283 N   0  0  0  0  0  0  0  0  0  0  0  0
   13.1173  -16.6637   23.6615 C   0  0  0  0  0  0  0  0  0  0  0  0
   13.3544  -17.1537   22.5276 O   0  0  0  0  0  0  0  0  0  0  0  0
   11.7773  -16.6969   24.2439 C   0  0  0  0  0  0  0  0  0  0  0  0
   10.7221  -16.0234   23.4624 C   0  0  0  0  0  0  0  0  0  0  0  0
    9.3660  -15.9720   24.1048 C   0  0  2  0  0  0  0  0  0  0  0  0
    8.5347  -15.1639   23.2404 N   0  0  0  0  0  0  0  0  0  0  0  0
    9.4766  -15.2578   25.4265 C   0  0  0  0  0  0  0  0  0  0  0  0
    8.9045  -14.0159   25.6543 O   0  0  0  0  0  0  0  0  0  0  0  0
   10.1060  -15.7702   26.3973 O   0  0  0  0  0  0  0  0  0  0  0  0
  2  1  1  6
  2  3  1  0
  3  4  1  0
  4  5  2  0
  6 11  1  0
  6  2  1  0
  7  6  2  0
  8  4  1  0
 10  9  1  1
 10 12  1  0
 10 11  1  0
 12 20  1  0
 13 12  2  0
 15 14  1  0
 15 17  1  0
 16 15  2  0
 18 17  1  0
 19 21  1  0
 19 18  1  6
 20 19  1  0
 21 22  1  0
 23 21  2  0
M  END
$$$$
