DAQ.pdb
     RDKit          3D

 23 22  0  0  1  0  0  0  0  0999 V2000
    7.8163  -17.4437   18.7798 N   0  0  0  0  0  0  0  0  0  0  0  0
    9.1838  -17.0289   18.9727 C   0  0  1  0  0  0  0  0  0  0  0  0
    9.9830  -17.1707   17.6718 C   0  0  0  0  0  0  0  0  0  0  0  0
    9.9429  -18.5824   17.2308 C   0  0  0  0  0  0  0  0  0  0  0  0
   10.5736  -19.4738   17.8377 O   0  0  0  0  0  0  0  0  0  0  0  0
    9.2656  -15.6219   19.4372 C   0  0  0  0  0  0  0  0  0  0  0  0
   10.3900  -15.1738   19.7726 O   0  0  0  0  0  0  0  0  0  0  0  0
    9.1951  -18.9364   16.1244 O   0  0  0  0  0  0  0  0  0  0  0  0
    6.8746  -12.7253   19.5121 C   0  0  0  0  0  0  0  0  0  0  0  0
    8.1091  -13.5062   19.9463 C   0  0  2  0  0  0  0  0  0  0  0  0
    8.0889  -14.8558   19.4818 N   0  0  0  0  0  0  0  0  0  0  0  0
    8.1983  -13.4655   21.4510 C   0  0  0  0  0  0  0  0  0  0  0  0
    8.2608  -12.3568   22.0521 O   0  0  0  0  0  0  0  0  0  0  0  0
    6.1993  -12.4464   25.4928 N   0  0  0  0  0  0  0  0  0  0  0  0
    6.7387  -13.5051   26.2704 C   0  0  0  0  0  0  0  0  0  0  0  0
    7.0102  -13.2230   27.4657 O   0  0  0  0  0  0  0  0  0  0  0  0
    6.9693  -14.8430   25.7291 C   0  0  0  0  0  0  0  0  0  0  0  0
    7.0534  -14.9333   24.2585 C   0  0  0  0  0  0  0  0  0  0  0  0
    8.3765  -14.5585   23.6559 C   0  0  2  0  0  0  0  0  0  0  0  0
    8.2142  -14.6530   22.2221 N   0  0  0  0  0  0  0  0  0  0  0  0
    9.4076  -15.5780   24.0648 C   0  0  0  0  0  0  0  0  0  0  0  0
    9.9516  -16.4888   23.1727 O   0  0  0  0  0  0  0  0  0  0  0  0
    9.8251  -15.6454   25.2573 O   0  0  0  0  0  0  0  0  0  0  0  0
  2  1  1  6
  2  3  1  0
  3  4  1  0
  4  5  2  0
  6 11  1  0
  6  2  1  0
  7  6  2  0
  8  4  1  0
 10  9  1  1
 10 12  1  0
 10 11  1  0
 12 20  1  0
 13 12  2  0
 15 14  1  0
 15 17  1  0
 16 15  2  0
 18 17  1  0
 19 21  1  0
 19 18  1  1
 20 19  1  0
 21 22  1  0
 23 21  2  0
M  END
$$$$
