DAQ.pdb
     RDKit          3D

 23 22  0  0  1  0  0  0  0  0999 V2000
    7.3645  -15.6050   21.2202 N   0  0  0  0  0  0  0  0  0  0  0  0
    8.6565  -15.9743   21.7434 C   0  0  1  0  0  0  0  0  0  0  0  0
    9.7503  -15.7594   20.6906 C   0  0  0  0  0  0  0  0  0  0  0  0
    9.4901  -16.6456   19.5347 C   0  0  0  0  0  0  0  0  0  0  0  0
    8.4738  -17.3703   19.4837 O   0  0  0  0  0  0  0  0  0  0  0  0
    8.9961  -15.1916   22.9575 C   0  0  0  0  0  0  0  0  0  0  0  0
   10.2099  -15.0341   23.2396 O   0  0  0  0  0  0  0  0  0  0  0  0
   10.3832  -16.6821   18.4812 O   0  0  0  0  0  0  0  0  0  0  0  0
    6.9867  -13.1877   25.4392 C   0  0  0  0  0  0  0  0  0  0  0  0
    8.2254  -13.9003   24.9096 C   0  0  2  0  0  0  0  0  0  0  0  0
    7.9520  -14.6633   23.7347 N   0  0  0  0  0  0  0  0  0  0  0  0
    8.7729  -14.7857   26.0005 C   0  0  0  0  0  0  0  0  0  0  0  0
    8.1298  -15.8078   26.3694 O   0  0  0  0  0  0  0  0  0  0  0  0
   11.6340  -18.1033   26.9542 N   0  0  0  0  0  0  0  0  0  0  0  0
   12.3766  -17.2463   26.0996 C   0  0  0  0  0  0  0  0  0  0  0  0
   12.8534  -17.7826   25.0666 O   0  0  0  0  0  0  0  0  0  0  0  0
   12.5820  -15.8286   26.3895 C   0  0  0  0  0  0  0  0  0  0  0  0
   11.9723  -15.3355   27.6397 C   0  0  0  0  0  0  0  0  0  0  0  0
   10.4722  -15.3688   27.6919 C   0  0  2  0  0  0  0  0  0  0  0  0
   10.0070  -14.5001   26.6335 N   0  0  0  0  0  0  0  0  0  0  0  0
   10.0141  -14.7775   28.9996 C   0  0  0  0  0  0  0  0  0  0  0  0
   10.0797  -15.4727   30.1970 O   0  0  0  0  0  0  0  0  0  0  0  0
    9.5434  -13.6045   29.0589 O   0  0  0  0  0  0  0  0  0  0  0  0
  2  1  1  6
  2  3  1  0
  3  4  1  0
  4  5  2  0
  6 11  1  0
  6  2  1  0
  7  6  2  0
  8  4  1  0
 10  9  1  1
 10 12  1  0
 10 11  1  0
 12 20  1  0
 13 12  2  0
 15 14  1  0
 15 17  1  0
 16 15  2  0
 18 17  1  0
 19 21  1  0
 19 18  1  1
 20 19  1  0
 21 22  1  0
 23 21  2  0
M  END
$$$$
