DAQ.pdb
     RDKit          3D

 23 22  0  0  1  0  0  0  0  0999 V2000
    8.9005  -17.1239   16.8307 N   0  0  0  0  0  0  0  0  0  0  0  0
    7.8966  -16.9009   17.8416 C   0  0  1  0  0  0  0  0  0  0  0  0
    7.3113  -18.2317   18.3286 C   0  0  0  0  0  0  0  0  0  0  0  0
    6.7095  -18.9446   17.1802 C   0  0  0  0  0  0  0  0  0  0  0  0
    6.1387  -18.3280   16.2557 O   0  0  0  0  0  0  0  0  0  0  0  0
    8.4498  -16.1637   19.0047 C   0  0  0  0  0  0  0  0  0  0  0  0
    9.5695  -16.5169   19.4511 O   0  0  0  0  0  0  0  0  0  0  0  0
    6.7732  -20.3233   17.1166 O   0  0  0  0  0  0  0  0  0  0  0  0
    7.2813  -13.2009   21.0360 C   0  0  0  0  0  0  0  0  0  0  0  0
    8.1844  -14.3754   20.6793 C   0  0  2  0  0  0  0  0  0  0  0  0
    7.7021  -15.1088   19.5536 N   0  0  0  0  0  0  0  0  0  0  0  0
    8.3029  -15.2733   21.8849 C   0  0  0  0  0  0  0  0  0  0  0  0
    7.4602  -16.1945   22.0740 O   0  0  0  0  0  0  0  0  0  0  0  0
   13.3250  -18.0488   23.6585 N   0  0  0  0  0  0  0  0  0  0  0  0
   12.4664  -18.2708   24.7675 C   0  0  0  0  0  0  0  0  0  0  0  0
   12.8796  -19.0947   25.6233 O   0  0  0  0  0  0  0  0  0  0  0  0
   11.1809  -17.5919   24.9178 C   0  0  0  0  0  0  0  0  0  0  0  0
   10.8318  -16.6369   23.8482 C   0  0  0  0  0  0  0  0  0  0  0  0
    9.4547  -16.0437   23.9265 C   0  0  2  0  0  0  0  0  0  0  0  0
    9.3482  -15.1113   22.8263 N   0  0  0  0  0  0  0  0  0  0  0  0
    9.3327  -15.2550   25.2041 C   0  0  0  0  0  0  0  0  0  0  0  0
    9.0179  -15.8448   26.4185 O   0  0  0  0  0  0  0  0  0  0  0  0
    9.5152  -14.0030   25.2210 O   0  0  0  0  0  0  0  0  0  0  0  0
  2  1  1  6
  2  3  1  0
  3  4  1  0
  4  5  2  0
  6 11  1  0
  6  2  1  0
  7  6  2  0
  8  4  1  0
 10  9  1  1
 10 12  1  0
 10 11  1  0
 12 20  1  0
 13 12  2  0
 15 14  1  0
 15 17  1  0
 16 15  2  0
 18 17  1  0
 19 21  1  0
 19 18  1  1
 20 19  1  0
 21 22  1  0
 23 21  2  0
M  END
$$$$
