DAQ.pdb
     RDKit          3D

 23 22  0  0  1  0  0  0  0  0999 V2000
   10.1703  -15.1395   17.5518 N   0  0  0  0  0  0  0  0  0  0  0  0
   10.2357  -16.0797   18.6431 C   0  0  1  0  0  0  0  0  0  0  0  0
   11.6401  -16.6847   18.7553 C   0  0  0  0  0  0  0  0  0  0  0  0
   11.9488  -17.4248   17.5118 C   0  0  0  0  0  0  0  0  0  0  0  0
   11.0825  -18.1095   16.9277 O   0  0  0  0  0  0  0  0  0  0  0  0
    9.8823  -15.4401   19.9347 C   0  0  0  0  0  0  0  0  0  0  0  0
   10.7633  -14.7629   20.5203 O   0  0  0  0  0  0  0  0  0  0  0  0
   13.2200  -17.3656   16.9739 O   0  0  0  0  0  0  0  0  0  0  0  0
    6.6763  -15.0695   21.8825 C   0  0  0  0  0  0  0  0  0  0  0  0
    8.1817  -14.9885   21.6600 C   0  0  2  0  0  0  0  0  0  0  0  0
    8.5854  -15.6181   20.4442 N   0  0  0  0  0  0  0  0  0  0  0  0
    8.8760  -15.6211   22.8396 C   0  0  0  0  0  0  0  0  0  0  0  0
    9.5575  -16.6727   22.6844 O   0  0  0  0  0  0  0  0  0  0  0  0
   10.5950  -14.5322   30.0166 N   0  0  0  0  0  0  0  0  0  0  0  0
    9.9392  -14.2941   28.7798 C   0  0  0  0  0  0  0  0  0  0  0  0
    9.2361  -13.2527   28.7246 O   0  0  0  0  0  0  0  0  0  0  0  0
   10.0645  -15.1938   27.6348 C   0  0  0  0  0  0  0  0  0  0  0  0
    9.4091  -14.7436   26.3915 C   0  0  0  0  0  0  0  0  0  0  0  0
    9.5120  -15.6807   25.2230 C   0  0  2  0  0  0  0  0  0  0  0  0
    8.7849  -15.0614   24.1372 N   0  0  0  0  0  0  0  0  0  0  0  0
    8.8093  -16.9688   25.5643 C   0  0  0  0  0  0  0  0  0  0  0  0
    9.4546  -18.0317   26.1768 O   0  0  0  0  0  0  0  0  0  0  0  0
    7.5828  -17.1353   25.3016 O   0  0  0  0  0  0  0  0  0  0  0  0
  2  1  1  6
  2  3  1  0
  3  4  1  0
  4  5  2  0
  6 11  1  0
  6  2  1  0
  7  6  2  0
  8  4  1  0
 10  9  1  1
 10 12  1  0
 10 11  1  0
 12 20  1  0
 13 12  2  0
 15 14  1  0
 15 17  1  0
 16 15  2  0
 18 17  1  0
 19 21  1  0
 19 18  1  1
 20 19  1  0
 21 22  1  0
 23 21  2  0
M  END
$$$$
