DAQ.pdb
     RDKit          3D

 23 22  0  0  1  0  0  0  0  0999 V2000
   10.0212  -18.6192   20.3223 N   0  0  0  0  0  0  0  0  0  0  0  0
   10.8936  -17.9106   21.2256 C   0  0  1  0  0  0  0  0  0  0  0  0
   11.2472  -16.5275   20.6660 C   0  0  0  0  0  0  0  0  0  0  0  0
   12.3000  -16.6765   19.6372 C   0  0  0  0  0  0  0  0  0  0  0  0
   12.8362  -17.7811   19.4074 O   0  0  0  0  0  0  0  0  0  0  0  0
   10.2733  -17.7447   22.5635 C   0  0  0  0  0  0  0  0  0  0  0  0
   10.2824  -16.6009   23.0822 O   0  0  0  0  0  0  0  0  0  0  0  0
   12.7085  -15.5771   18.9070 O   0  0  0  0  0  0  0  0  0  0  0  0
    8.4634  -20.0628   24.9328 C   0  0  0  0  0  0  0  0  0  0  0  0
    9.1586  -18.7763   24.5041 C   0  0  2  0  0  0  0  0  0  0  0  0
    9.7059  -18.8674   23.1888 N   0  0  0  0  0  0  0  0  0  0  0  0
   10.2394  -18.4578   25.5063 C   0  0  0  0  0  0  0  0  0  0  0  0
   11.4211  -18.8583   25.3124 O   0  0  0  0  0  0  0  0  0  0  0  0
    9.8962  -13.6079   29.4240 N   0  0  0  0  0  0  0  0  0  0  0  0
    9.8532  -13.7784   28.0149 C   0  0  0  0  0  0  0  0  0  0  0  0
    9.4683  -12.7797   27.3542 O   0  0  0  0  0  0  0  0  0  0  0  0
   10.2295  -15.0297   27.3602 C   0  0  0  0  0  0  0  0  0  0  0  0
   10.6830  -16.1107   28.2567 C   0  0  0  0  0  0  0  0  0  0  0  0
   11.0448  -17.4051   27.5875 C   0  0  2  0  0  0  0  0  0  0  0  0
    9.9635  -17.7108   26.6772 N   0  0  0  0  0  0  0  0  0  0  0  0
   11.0886  -18.4973   28.6242 C   0  0  0  0  0  0  0  0  0  0  0  0
   10.1333  -19.4993   28.6939 O   0  0  0  0  0  0  0  0  0  0  0  0
   12.0131  -18.5449   29.4868 O   0  0  0  0  0  0  0  0  0  0  0  0
  2  1  1  6
  2  3  1  0
  3  4  1  0
  4  5  2  0
  6 11  1  0
  6  2  1  0
  7  6  2  0
  8  4  1  0
 10  9  1  1
 10 12  1  0
 10 11  1  0
 12 20  1  0
 13 12  2  0
 15 14  1  0
 15 17  1  0
 16 15  2  0
 18 17  1  0
 19 21  1  0
 19 18  1  1
 20 19  1  0
 21 22  1  0
 23 21  2  0
M  END
$$$$
