DAQ.pdb
     RDKit          3D

 23 22  0  0  1  0  0  0  0  0999 V2000
    9.1198  -17.1354   16.4898 N   0  0  0  0  0  0  0  0  0  0  0  0
    8.0260  -16.5683   17.2391 C   0  0  1  0  0  0  0  0  0  0  0  0
    6.9781  -17.6390   17.5650 C   0  0  0  0  0  0  0  0  0  0  0  0
    6.5217  -18.2683   16.3061 C   0  0  0  0  0  0  0  0  0  0  0  0
    6.0522  -17.5881   15.3693 O   0  0  0  0  0  0  0  0  0  0  0  0
    8.4951  -15.9523   18.5051 C   0  0  0  0  0  0  0  0  0  0  0  0
    9.4130  -16.5292   19.1393 O   0  0  0  0  0  0  0  0  0  0  0  0
    6.6112  -19.6381   16.1500 O   0  0  0  0  0  0  0  0  0  0  0  0
    7.5885  -12.8028   20.3862 C   0  0  0  0  0  0  0  0  0  0  0  0
    8.3328  -14.1079   20.1312 C   0  0  2  0  0  0  0  0  0  0  0  0
    7.8960  -14.7576   18.9376 N   0  0  0  0  0  0  0  0  0  0  0  0
    8.1432  -15.0097   21.3247 C   0  0  0  0  0  0  0  0  0  0  0  0
    7.3400  -15.9821   21.2627 O   0  0  0  0  0  0  0  0  0  0  0  0
   13.4984  -18.3484   22.9057 N   0  0  0  0  0  0  0  0  0  0  0  0
   12.1568  -18.3326   22.4406 C   0  0  0  0  0  0  0  0  0  0  0  0
   11.9557  -18.8886   21.3305 O   0  0  0  0  0  0  0  0  0  0  0  0
   11.0683  -17.7131   23.1940 C   0  0  0  0  0  0  0  0  0  0  0  0
   10.3848  -16.5892   22.5251 C   0  0  0  0  0  0  0  0  0  0  0  0
    9.2819  -15.9369   23.3076 C   0  0  2  0  0  0  0  0  0  0  0  0
    8.8507  -14.7949   22.5323 N   0  0  0  0  0  0  0  0  0  0  0  0
    9.8425  -15.4190   24.6064 C   0  0  0  0  0  0  0  0  0  0  0  0
   10.4590  -14.1820   24.7131 O   0  0  0  0  0  0  0  0  0  0  0  0
    9.7726  -16.1026   25.6689 O   0  0  0  0  0  0  0  0  0  0  0  0
  2  1  1  1
  2  3  1  0
  3  4  1  0
  4  5  2  0
  6 11  1  0
  6  2  1  0
  7  6  2  0
  8  4  1  0
 10  9  1  1
 10 12  1  0
 10 11  1  0
 12 20  1  0
 13 12  2  0
 15 14  1  0
 15 17  1  0
 16 15  2  0
 18 17  1  0
 19 21  1  0
 19 18  1  6
 20 19  1  0
 21 22  1  0
 23 21  2  0
M  END
$$$$
