DAQ.pdb
     RDKit          3D

 23 22  0  0  1  0  0  0  0  0999 V2000
    9.5544  -15.7327   17.9876 N   0  0  0  0  0  0  0  0  0  0  0  0
    8.7359  -14.7012   18.5753 C   0  0  1  0  0  0  0  0  0  0  0  0
    7.5329  -14.3856   17.6785 C   0  0  0  0  0  0  0  0  0  0  0  0
    8.0113  -14.1150   16.3049 C   0  0  0  0  0  0  0  0  0  0  0  0
    8.9104  -14.8047   15.7792 O   0  0  0  0  0  0  0  0  0  0  0  0
    8.2446  -15.0957   19.9189 C   0  0  0  0  0  0  0  0  0  0  0  0
    7.4995  -14.2943   20.5354 O   0  0  0  0  0  0  0  0  0  0  0  0
    7.4596  -13.0789   15.5761 O   0  0  0  0  0  0  0  0  0  0  0  0
    8.4291  -18.2692   21.9429 C   0  0  0  0  0  0  0  0  0  0  0  0
    8.1421  -16.7918   21.7037 C   0  0  2  0  0  0  0  0  0  0  0  0
    8.6316  -16.3412   20.4408 N   0  0  0  0  0  0  0  0  0  0  0  0
    8.7592  -15.9952   22.8255 C   0  0  0  0  0  0  0  0  0  0  0  0
    9.9851  -15.6947   22.7894 O   0  0  0  0  0  0  0  0  0  0  0  0
    5.5024  -12.0992   26.5531 N   0  0  0  0  0  0  0  0  0  0  0  0
    6.8287  -12.0567   27.0587 C   0  0  0  0  0  0  0  0  0  0  0  0
    7.0375  -11.2246   27.9785 O   0  0  0  0  0  0  0  0  0  0  0  0
    7.8939  -12.9195   26.5517 C   0  0  0  0  0  0  0  0  0  0  0  0
    7.5308  -13.7829   25.4112 C   0  0  0  0  0  0  0  0  0  0  0  0
    8.6061  -14.7126   24.9279 C   0  0  2  0  0  0  0  0  0  0  0  0
    7.9920  -15.5673   23.9362 N   0  0  0  0  0  0  0  0  0  0  0  0
    9.0478  -15.5879   26.0716 C   0  0  0  0  0  0  0  0  0  0  0  0
   10.0745  -15.2308   26.9318 O   0  0  0  0  0  0  0  0  0  0  0  0
    8.4912  -16.7016   26.2969 O   0  0  0  0  0  0  0  0  0  0  0  0
  2  1  1  6
  2  3  1  0
  3  4  1  0
  4  5  2  0
  6 11  1  0
  6  2  1  0
  7  6  2  0
  8  4  1  0
 10  9  1  1
 10 12  1  0
 10 11  1  0
 12 20  1  0
 13 12  2  0
 15 14  1  0
 15 17  1  0
 16 15  2  0
 18 17  1  0
 19 21  1  0
 19 18  1  1
 20 19  1  0
 21 22  1  0
 23 21  2  0
M  END
$$$$
