DAQ.pdb
     RDKit          3D

 23 22  0  0  1  0  0  0  0  0999 V2000
    9.8069  -14.9679   17.7907 N   0  0  0  0  0  0  0  0  0  0  0  0
    8.8270  -14.0795   18.3649 C   0  0  1  0  0  0  0  0  0  0  0  0
    7.6942  -13.8039   17.3690 C   0  0  0  0  0  0  0  0  0  0  0  0
    8.2390  -13.8415   15.9939 C   0  0  0  0  0  0  0  0  0  0  0  0
    9.2134  -14.5649   15.6976 O   0  0  0  0  0  0  0  0  0  0  0  0
    8.2474  -14.6403   19.6105 C   0  0  0  0  0  0  0  0  0  0  0  0
    7.4023  -13.9505   20.2329 O   0  0  0  0  0  0  0  0  0  0  0  0
    7.6666  -13.0638   15.0059 O   0  0  0  0  0  0  0  0  0  0  0  0
    8.5052  -17.9546   21.3844 C   0  0  0  0  0  0  0  0  0  0  0  0
    8.1850  -16.4700   21.2601 C   0  0  2  0  0  0  0  0  0  0  0  0
    8.6663  -15.9112   20.0379 N   0  0  0  0  0  0  0  0  0  0  0  0
    8.7819  -15.7496   22.4428 C   0  0  0  0  0  0  0  0  0  0  0  0
    9.9507  -15.2769   22.3727 O   0  0  0  0  0  0  0  0  0  0  0  0
    5.4068  -12.3512   26.4170 N   0  0  0  0  0  0  0  0  0  0  0  0
    6.7231  -12.2957   26.9468 C   0  0  0  0  0  0  0  0  0  0  0  0
    6.8944  -11.4991   27.9049 O   0  0  0  0  0  0  0  0  0  0  0  0
    7.8193  -13.1073   26.4217 C   0  0  0  0  0  0  0  0  0  0  0  0
    7.4836  -13.9717   25.2736 C   0  0  0  0  0  0  0  0  0  0  0  0
    8.6210  -14.7665   24.7002 C   0  0  2  0  0  0  0  0  0  0  0  0
    8.0587  -15.5849   23.6490 N   0  0  0  0  0  0  0  0  0  0  0  0
    9.1553  -15.6931   25.7611 C   0  0  0  0  0  0  0  0  0  0  0  0
   10.2051  -15.3450   26.5967 O   0  0  0  0  0  0  0  0  0  0  0  0
    8.6601  -16.8444   25.9350 O   0  0  0  0  0  0  0  0  0  0  0  0
  2  1  1  6
  2  3  1  0
  3  4  1  0
  4  5  2  0
  6 11  1  0
  6  2  1  0
  7  6  2  0
  8  4  1  0
 10  9  1  1
 10 12  1  0
 10 11  1  0
 12 20  1  0
 13 12  2  0
 15 14  1  0
 15 17  1  0
 16 15  2  0
 18 17  1  0
 19 21  1  0
 19 18  1  1
 20 19  1  0
 21 22  1  0
 23 21  2  0
M  END
$$$$
