DAQ.pdb
     RDKit          3D

 23 22  0  0  1  0  0  0  0  0999 V2000
   11.9734  -15.0366   17.8610 N   0  0  0  0  0  0  0  0  0  0  0  0
   12.2118  -15.5050   19.2038 C   0  0  1  0  0  0  0  0  0  0  0  0
   13.3382  -14.7033   19.8667 C   0  0  0  0  0  0  0  0  0  0  0  0
   14.6190  -15.0264   19.2001 C   0  0  0  0  0  0  0  0  0  0  0  0
   14.6749  -15.8391   18.2529 O   0  0  0  0  0  0  0  0  0  0  0  0
   10.9907  -15.4025   20.0408 C   0  0  0  0  0  0  0  0  0  0  0  0
   10.3918  -14.2992   20.0812 O   0  0  0  0  0  0  0  0  0  0  0  0
   15.7868  -14.4226   19.6248 O   0  0  0  0  0  0  0  0  0  0  0  0
    8.7609  -17.9035   21.7035 C   0  0  0  0  0  0  0  0  0  0  0  0
    9.3516  -16.5124   21.5086 C   0  0  2  0  0  0  0  0  0  0  0  0
   10.5593  -16.5370   20.7481 N   0  0  0  0  0  0  0  0  0  0  0  0
    9.5925  -15.8989   22.8649 C   0  0  0  0  0  0  0  0  0  0  0  0
   10.7434  -15.9387   23.3828 O   0  0  0  0  0  0  0  0  0  0  0  0
    5.3847  -12.2171   25.9839 N   0  0  0  0  0  0  0  0  0  0  0  0
    6.5170  -12.3125   26.8355 C   0  0  0  0  0  0  0  0  0  0  0  0
    6.4453  -11.6717   27.9154 O   0  0  0  0  0  0  0  0  0  0  0  0
    7.6980  -13.1019   26.4917 C   0  0  0  0  0  0  0  0  0  0  0  0
    7.6705  -13.7524   25.1673 C   0  0  0  0  0  0  0  0  0  0  0  0
    8.8562  -14.6124   24.8375 C   0  0  2  0  0  0  0  0  0  0  0  0
    8.5493  -15.2693   23.5863 N   0  0  0  0  0  0  0  0  0  0  0  0
    8.9942  -15.6813   25.8900 C   0  0  0  0  0  0  0  0  0  0  0  0
    9.8314  -15.5457   26.9865 O   0  0  0  0  0  0  0  0  0  0  0  0
    8.3419  -16.7629   25.8148 O   0  0  0  0  0  0  0  0  0  0  0  0
  2  1  1  6
  2  3  1  0
  3  4  1  0
  4  5  2  0
  6 11  1  0
  6  2  1  0
  7  6  2  0
  8  4  1  0
 10  9  1  1
 10 12  1  0
 10 11  1  0
 12 20  1  0
 13 12  2  0
 15 14  1  0
 15 17  1  0
 16 15  2  0
 18 17  1  0
 19 21  1  0
 19 18  1  1
 20 19  1  0
 21 22  1  0
 23 21  2  0
M  END
$$$$
