DAQ.pdb
     RDKit          3D

 23 22  0  0  1  0  0  0  0  0999 V2000
    7.3416  -15.7396   15.4342 N   0  0  0  0  0  0  0  0  0  0  0  0
    8.7658  -15.5242   15.3651 C   0  0  1  0  0  0  0  0  0  0  0  0
    9.1306  -14.6984   14.1257 C   0  0  0  0  0  0  0  0  0  0  0  0
    8.7144  -15.4365   12.9129 C   0  0  0  0  0  0  0  0  0  0  0  0
    8.6334  -16.6831   12.9032 O   0  0  0  0  0  0  0  0  0  0  0  0
    9.2701  -14.8268   16.5740 C   0  0  0  0  0  0  0  0  0  0  0  0
   10.5083  -14.6437   16.6783 O   0  0  0  0  0  0  0  0  0  0  0  0
    8.4055  -14.7435   11.7582 O   0  0  0  0  0  0  0  0  0  0  0  0
    7.6298  -13.3142   19.6213 C   0  0  0  0  0  0  0  0  0  0  0  0
    8.7867  -13.8378   18.7788 C   0  0  2  0  0  0  0  0  0  0  0  0
    8.3466  -14.4038   17.5444 N   0  0  0  0  0  0  0  0  0  0  0  0
    9.5465  -14.8583   19.5881 C   0  0  0  0  0  0  0  0  0  0  0  0
    9.2436  -16.0816   19.5102 O   0  0  0  0  0  0  0  0  0  0  0  0
   15.4681  -14.0739   21.0461 N   0  0  0  0  0  0  0  0  0  0  0  0
   14.7813  -14.4138   19.8505 C   0  0  0  0  0  0  0  0  0  0  0  0
   15.4123  -14.2139   18.7810 O   0  0  0  0  0  0  0  0  0  0  0  0
   13.4265  -14.9620   19.8481 C   0  0  0  0  0  0  0  0  0  0  0  0
   12.7758  -15.0680   21.1684 C   0  0  0  0  0  0  0  0  0  0  0  0
   11.3394  -15.5048   21.1552 C   0  0  2  0  0  0  0  0  0  0  0  0
   10.6067  -14.4790   20.4467 N   0  0  0  0  0  0  0  0  0  0  0  0
   10.8238  -15.5364   22.5703 C   0  0  0  0  0  0  0  0  0  0  0  0
    9.8782  -14.6386   23.0407 O   0  0  0  0  0  0  0  0  0  0  0  0
   11.2393  -16.3968   23.3998 O   0  0  0  0  0  0  0  0  0  0  0  0
  2  1  1  1
  2  3  1  0
  3  4  1  0
  4  5  2  0
  6 11  1  0
  6  2  1  0
  7  6  2  0
  8  4  1  0
 10  9  1  1
 10 12  1  0
 10 11  1  0
 12 20  1  0
 13 12  2  0
 15 14  1  0
 15 17  1  0
 16 15  2  0
 18 17  1  0
 19 21  1  0
 19 18  1  1
 20 19  1  0
 21 22  1  0
 23 21  2  0
M  END
$$$$
