DAQ.pdb
     RDKit          3D

 23 22  0  0  1  0  0  0  0  0999 V2000
    8.1986  -14.3099   20.6660 N   0  0  0  0  0  0  0  0  0  0  0  0
    7.3966  -14.7643   21.7748 C   0  0  1  0  0  0  0  0  0  0  0  0
    7.3269  -16.2957   21.8030 C   0  0  0  0  0  0  0  0  0  0  0  0
    7.8687  -16.8282   20.5334 C   0  0  0  0  0  0  0  0  0  0  0  0
    8.3039  -17.9961   20.4484 O   0  0  0  0  0  0  0  0  0  0  0  0
    7.9366  -14.2828   23.0705 C   0  0  0  0  0  0  0  0  0  0  0  0
    9.1575  -14.4611   23.3057 O   0  0  0  0  0  0  0  0  0  0  0  0
    7.8998  -16.0261   19.4088 O   0  0  0  0  0  0  0  0  0  0  0  0
    6.4884  -12.3493   25.9696 C   0  0  0  0  0  0  0  0  0  0  0  0
    7.5287  -13.1930   25.2427 C   0  0  2  0  0  0  0  0  0  0  0  0
    7.0646  -13.6519   23.9732 N   0  0  0  0  0  0  0  0  0  0  0  0
    7.9016  -14.3589   26.1232 C   0  0  0  0  0  0  0  0  0  0  0  0
    7.5263  -15.5262   25.8214 O   0  0  0  0  0  0  0  0  0  0  0  0
   10.4746  -16.8054   24.2696 N   0  0  0  0  0  0  0  0  0  0  0  0
   11.2877  -17.2595   25.3416 C   0  0  0  0  0  0  0  0  0  0  0  0
   11.8661  -18.3617   25.1611 O   0  0  0  0  0  0  0  0  0  0  0  0
   11.4514  -16.5041   26.5820 C   0  0  0  0  0  0  0  0  0  0  0  0
   10.6837  -15.2470   26.6726 C   0  0  0  0  0  0  0  0  0  0  0  0
    9.5904  -15.2223   27.7014 C   0  0  2  0  0  0  0  0  0  0  0  0
    8.6725  -14.1804   27.2975 N   0  0  0  0  0  0  0  0  0  0  0  0
   10.1766  -14.8216   29.0300 C   0  0  0  0  0  0  0  0  0  0  0  0
   10.4957  -15.7443   30.0141 O   0  0  0  0  0  0  0  0  0  0  0  0
   10.4049  -13.6081   29.3060 O   0  0  0  0  0  0  0  0  0  0  0  0
  2  1  1  6
  2  3  1  0
  3  4  1  0
  4  5  2  0
  6 11  1  0
  6  2  1  0
  7  6  2  0
  8  4  1  0
 10  9  1  1
 10 12  1  0
 10 11  1  0
 12 20  1  0
 13 12  2  0
 15 14  1  0
 15 17  1  0
 16 15  2  0
 18 17  1  0
 19 21  1  0
 19 18  1  6
 20 19  1  0
 21 22  1  0
 23 21  2  0
M  END
$$$$
