KVS.pdb
     RDKit          3D

 23 22  0  0  1  0  0  0  0  0999 V2000
   18.3933  -13.2175  -17.0330 N   0  0  0  0  0  0  0  0  0  0  0  0
   18.8645  -11.9096  -17.4417 C   0  0  1  0  0  0  0  0  0  0  0  0
   17.7430  -11.0039  -17.9137 C   0  0  0  0  0  0  0  0  0  0  0  0
   17.1119  -11.6202  -19.1131 C   0  0  0  0  0  0  0  0  0  0  0  0
   15.9743  -10.8234  -19.6850 C   0  0  0  0  0  0  0  0  0  0  0  0
   15.2890  -11.5160  -20.8314 C   0  0  0  0  0  0  0  0  0  0  0  0
   14.3360  -10.6222  -21.4587 N   0  0  0  0  0  0  0  0  0  0  0  0
   19.6083  -11.2706  -16.3157 C   0  0  0  0  0  0  0  0  0  0  0  0
   19.1558  -11.3376  -15.1453 O   0  0  0  0  0  0  0  0  0  0  0  0
   23.8458   -9.9619  -14.3645 C   0  0  0  0  0  0  0  0  0  0  0  0
   22.9513  -10.6271  -15.3433 C   0  0  1  0  0  0  0  0  0  0  0  0
   22.7903  -12.0807  -14.9078 C   0  0  0  0  0  0  0  0  0  0  0  0
   21.5708  -10.0169  -15.3475 C   0  0  2  0  0  0  0  0  0  0  0  0
   20.8282  -10.5750  -16.5039 N   0  0  0  0  0  0  0  0  0  0  0  0
   21.5613   -8.5545  -15.5235 C   0  0  0  0  0  0  0  0  0  0  0  0
   21.7884   -8.0703  -16.6684 O   0  0  0  0  0  0  0  0  0  0  0  0
   19.8538   -4.3198  -15.0730 O   0  0  0  0  0  0  0  0  0  0  0  0
   19.8828   -5.7036  -14.8038 C   0  0  0  0  0  0  0  0  0  0  0  0
   21.3373   -6.1853  -14.7911 C   0  0  2  0  0  0  0  0  0  0  0  0
   21.3124   -7.6035  -14.5031 N   0  0  0  0  0  0  0  0  0  0  0  0
   22.1189   -5.4326  -13.7790 C   0  0  0  0  0  0  0  0  0  0  0  0
   22.2155   -5.8558  -12.6007 O   0  0  0  0  0  0  0  0  0  0  0  0
   22.7639   -4.2485  -14.0930 O   0  0  0  0  0  0  0  0  0  0  0  0
  2  1  1  1
  3  2  1  0
  4  3  1  0
  5  4  1  0
  6  5  1  0
  7  6  1  0
  8  2  1  0
  8  9  2  0
 11 10  1  1
 11 12  1  0
 13 14  1  6
 13 11  1  0
 14  8  1  0
 15 13  1  0
 16 15  2  0
 18 17  1  0
 19 18  1  1
 19 20  1  0
 20 15  1  0
 21 19  1  0
 21 23  1  0
 22 21  2  0
M  END
$$$$
