KVS.pdb
     RDKit          3D

 23 22  0  0  1  0  0  0  0  0999 V2000
   21.9731  -15.2768  -16.4766 N   0  0  0  0  0  0  0  0  0  0  0  0
   21.8673  -14.0252  -17.1990 C   0  0  1  0  0  0  0  0  0  0  0  0
   20.4801  -13.7914  -17.7663 C   0  0  0  0  0  0  0  0  0  0  0  0
   20.1725  -14.8864  -18.7272 C   0  0  0  0  0  0  0  0  0  0  0  0
   18.8068  -14.7937  -19.3456 C   0  0  0  0  0  0  0  0  0  0  0  0
   18.5267  -15.9037  -20.3217 C   0  0  0  0  0  0  0  0  0  0  0  0
   17.2274  -15.7146  -20.9355 N   0  0  0  0  0  0  0  0  0  0  0  0
   22.2592  -12.8956  -16.3045 C   0  0  0  0  0  0  0  0  0  0  0  0
   21.7175  -12.7693  -15.1778 O   0  0  0  0  0  0  0  0  0  0  0  0
   25.6067   -9.4379  -15.1905 C   0  0  0  0  0  0  0  0  0  0  0  0
   25.1367  -10.6354  -15.9294 C   0  0  1  0  0  0  0  0  0  0  0  0
   25.8779  -11.8449  -15.3671 C   0  0  0  0  0  0  0  0  0  0  0  0
   23.6641  -10.8864  -15.7134 C   0  0  2  0  0  0  0  0  0  0  0  0
   23.2343  -11.9351  -16.6704 N   0  0  0  0  0  0  0  0  0  0  0  0
   22.8102   -9.7161  -15.9796 C   0  0  0  0  0  0  0  0  0  0  0  0
   22.6786   -9.3069  -17.1679 O   0  0  0  0  0  0  0  0  0  0  0  0
   19.5772   -6.3868  -14.5849 O   0  0  0  0  0  0  0  0  0  0  0  0
   20.3360   -7.5303  -14.2613 C   0  0  0  0  0  0  0  0  0  0  0  0
   21.3668   -7.7819  -15.3665 C   0  0  2  0  0  0  0  0  0  0  0  0
   22.0953   -8.9788  -15.0033 N   0  0  0  0  0  0  0  0  0  0  0  0
   22.2677   -6.6111  -15.5050 C   0  0  0  0  0  0  0  0  0  0  0  0
   23.2641   -6.4777  -14.7525 O   0  0  0  0  0  0  0  0  0  0  0  0
   22.0456   -5.6326  -16.4589 O   0  0  0  0  0  0  0  0  0  0  0  0
  2  1  1  1
  3  2  1  0
  4  3  1  0
  5  4  1  0
  6  5  1  0
  7  6  1  0
  8  2  1  0
  8  9  2  0
 11 10  1  1
 11 12  1  0
 13 14  1  6
 13 11  1  0
 14  8  1  0
 15 13  1  0
 16 15  2  0
 18 17  1  0
 19 18  1  1
 19 20  1  0
 20 15  1  0
 21 19  1  0
 21 23  1  0
 22 21  2  0
M  END
$$$$
