KVS.pdb
     RDKit          3D

 23 22  0  0  1  0  0  0  0  0999 V2000
   22.6182  -20.1039  -14.0936 N   0  0  0  0  0  0  0  0  0  0  0  0
   21.5506  -19.7592  -13.1766 C   0  0  1  0  0  0  0  0  0  0  0  0
   20.2205  -19.5542  -13.8763 C   0  0  0  0  0  0  0  0  0  0  0  0
   20.4726  -19.4126  -15.3369 C   0  0  0  0  0  0  0  0  0  0  0  0
   20.6285  -20.7190  -16.0616 C   0  0  0  0  0  0  0  0  0  0  0  0
   20.6746  -20.5601  -17.5569 C   0  0  0  0  0  0  0  0  0  0  0  0
   21.0366  -21.8162  -18.1829 N   0  0  0  0  0  0  0  0  0  0  0  0
   21.4284  -20.8167  -12.1295 C   0  0  0  0  0  0  0  0  0  0  0  0
   21.5923  -22.0247  -12.4342 O   0  0  0  0  0  0  0  0  0  0  0  0
   21.7127  -21.9030   -7.3368 C   0  0  0  0  0  0  0  0  0  0  0  0
   21.7742  -20.9686   -8.4875 C   0  0  1  0  0  0  0  0  0  0  0  0
   23.2463  -20.6941   -8.7807 C   0  0  0  0  0  0  0  0  0  0  0  0
   21.1860  -21.5771   -9.7372 C   0  0  2  0  0  0  0  0  0  0  0  0
   21.1292  -20.5205  -10.7767 N   0  0  0  0  0  0  0  0  0  0  0  0
   19.8056  -22.0649   -9.5750 C   0  0  0  0  0  0  0  0  0  0  0  0
   18.8592  -21.2292   -9.5214 O   0  0  0  0  0  0  0  0  0  0  0  0
   16.6005  -25.7014   -9.1540 O   0  0  0  0  0  0  0  0  0  0  0  0
   17.9123  -25.2879   -9.4645 C   0  0  0  0  0  0  0  0  0  0  0  0
   18.0428  -23.7837   -9.2038 C   0  0  2  0  0  0  0  0  0  0  0  0
   19.4190  -23.4241   -9.4717 N   0  0  0  0  0  0  0  0  0  0  0  0
   17.6546  -23.4689   -7.8067 C   0  0  0  0  0  0  0  0  0  0  0  0
   18.4917  -23.5559   -6.8748 O   0  0  0  0  0  0  0  0  0  0  0  0
   16.3686  -23.0718   -7.4821 O   0  0  0  0  0  0  0  0  0  0  0  0
  2  1  1  6
  3  2  1  0
  4  3  1  0
  5  4  1  0
  6  5  1  0
  7  6  1  0
  8  2  1  0
  8  9  2  0
 11 10  1  1
 11 12  1  0
 13 14  1  6
 13 11  1  0
 14  8  1  0
 15 13  1  0
 16 15  2  0
 18 17  1  0
 19 18  1  1
 19 20  1  0
 20 15  1  0
 21 19  1  0
 21 23  1  0
 22 21  2  0
M  END
$$$$
