KVS.pdb
     RDKit          3D

 23 22  0  0  1  0  0  0  0  0999 V2000
   24.8694  -21.8428  -11.6153 N   0  0  0  0  0  0  0  0  0  0  0  0
   24.8433  -21.7469  -13.0609 C   0  0  1  0  0  0  0  0  0  0  0  0
   23.7279  -22.5658  -13.6823 C   0  0  0  0  0  0  0  0  0  0  0  0
   24.2614  -23.9163  -14.0119 C   0  0  0  0  0  0  0  0  0  0  0  0
   24.6475  -24.0880  -15.4533 C   0  0  0  0  0  0  0  0  0  0  0  0
   25.9986  -24.7263  -15.6281 C   0  0  0  0  0  0  0  0  0  0  0  0
   26.3606  -24.7556  -17.0312 N   0  0  0  0  0  0  0  0  0  0  0  0
   24.7230  -20.3148  -13.4660 C   0  0  0  0  0  0  0  0  0  0  0  0
   24.1042  -19.5039  -12.7323 O   0  0  0  0  0  0  0  0  0  0  0  0
   26.5676  -16.4713  -15.8049 C   0  0  0  0  0  0  0  0  0  0  0  0
   26.5785  -17.8769  -15.3304 C   0  0  1  0  0  0  0  0  0  0  0  0
   27.3812  -17.9198  -14.0334 C   0  0  0  0  0  0  0  0  0  0  0  0
   25.1902  -18.3693  -15.0014 C   0  0  2  0  0  0  0  0  0  0  0  0
   25.2847  -19.8110  -14.6653 N   0  0  0  0  0  0  0  0  0  0  0  0
   24.2379  -18.2727  -16.1209 C   0  0  0  0  0  0  0  0  0  0  0  0
   24.6019  -18.6425  -17.2732 O   0  0  0  0  0  0  0  0  0  0  0  0
   20.3577  -17.0213  -15.6753 O   0  0  0  0  0  0  0  0  0  0  0  0
   20.6219  -17.9038  -16.7429 C   0  0  0  0  0  0  0  0  0  0  0  0
   22.0691  -17.7139  -17.2089 C   0  0  2  0  0  0  0  0  0  0  0  0
   22.9079  -17.7921  -16.0320 N   0  0  0  0  0  0  0  0  0  0  0  0
   22.2181  -16.4117  -17.9044 C   0  0  0  0  0  0  0  0  0  0  0  0
   22.8557  -15.4706  -17.3710 O   0  0  0  0  0  0  0  0  0  0  0  0
   21.6655  -16.1883  -19.1540 O   0  0  0  0  0  0  0  0  0  0  0  0
  2  1  1  1
  3  2  1  0
  4  3  1  0
  5  4  1  0
  6  5  1  0
  7  6  1  0
  8  2  1  0
  8  9  2  0
 11 10  1  1
 11 12  1  0
 13 14  1  6
 13 11  1  0
 14  8  1  0
 15 13  1  0
 16 15  2  0
 18 17  1  0
 19 18  1  1
 19 20  1  0
 20 15  1  0
 21 19  1  0
 21 23  1  0
 22 21  2  0
M  END
$$$$
