KVS.pdb
     RDKit          3D

 23 22  0  0  1  0  0  0  0  0999 V2000
   20.2848  -19.9797  -12.9038 N   0  0  0  0  0  0  0  0  0  0  0  0
   21.2973  -20.9907  -13.1328 C   0  0  1  0  0  0  0  0  0  0  0  0
   21.2596  -21.5489  -14.5427 C   0  0  0  0  0  0  0  0  0  0  0  0
   20.4871  -22.8215  -14.5259 C   0  0  0  0  0  0  0  0  0  0  0  0
   19.7124  -23.0518  -13.2598 C   0  0  0  0  0  0  0  0  0  0  0  0
   18.9683  -24.3593  -13.2552 C   0  0  0  0  0  0  0  0  0  0  0  0
   18.1907  -24.4885  -12.0389 N   0  0  0  0  0  0  0  0  0  0  0  0
   22.6466  -20.4252  -12.8346 C   0  0  0  0  0  0  0  0  0  0  0  0
   22.9476  -19.2728  -13.2349 O   0  0  0  0  0  0  0  0  0  0  0  0
   26.9438  -20.7083  -10.3922 C   0  0  0  0  0  0  0  0  0  0  0  0
   25.5447  -21.1425  -10.6258 C   0  0  1  0  0  0  0  0  0  0  0  0
   24.6923  -20.5830   -9.4905 C   0  0  0  0  0  0  0  0  0  0  0  0
   24.9880  -20.5767  -11.9096 C   0  0  2  0  0  0  0  0  0  0  0  0
   23.6295  -21.1392  -12.1055 N   0  0  0  0  0  0  0  0  0  0  0  0
   25.7583  -20.9425  -13.1107 C   0  0  0  0  0  0  0  0  0  0  0  0
   25.9089  -22.1639  -13.3978 O   0  0  0  0  0  0  0  0  0  0  0  0
   27.4900  -18.2042  -15.7174 O   0  0  0  0  0  0  0  0  0  0  0  0
   27.0264  -19.4318  -16.2334 C   0  0  0  0  0  0  0  0  0  0  0  0
   27.1251  -20.5064  -15.1457 C   0  0  2  0  0  0  0  0  0  0  0  0
   26.3667  -20.0306  -14.0085 N   0  0  0  0  0  0  0  0  0  0  0  0
   28.5455  -20.7531  -14.7947 C   0  0  0  0  0  0  0  0  0  0  0  0
   28.9976  -20.4063  -13.6757 O   0  0  0  0  0  0  0  0  0  0  0  0
   29.4159  -21.3681  -15.6784 O   0  0  0  0  0  0  0  0  0  0  0  0
  2  1  1  6
  3  2  1  0
  4  3  1  0
  5  4  1  0
  6  5  1  0
  7  6  1  0
  8  2  1  0
  8  9  2  0
 11 10  1  1
 11 12  1  0
 13 14  1  6
 13 11  1  0
 14  8  1  0
 15 13  1  0
 16 15  2  0
 18 17  1  0
 19 18  1  6
 19 20  1  0
 20 15  1  0
 21 19  1  0
 21 23  1  0
 22 21  2  0
M  END
$$$$
