KVS.pdb
     RDKit          3D

 23 22  0  0  1  0  0  0  0  0999 V2000
   21.2271  -21.2417  -21.4337 N   0  0  0  0  0  0  0  0  0  0  0  0
   20.5408  -21.7188  -20.2500 C   0  0  1  0  0  0  0  0  0  0  0  0
   20.8017  -23.1872  -19.9733 C   0  0  0  0  0  0  0  0  0  0  0  0
   21.3839  -23.8020  -21.1980 C   0  0  0  0  0  0  0  0  0  0  0  0
   22.6509  -24.5713  -20.9548 C   0  0  0  0  0  0  0  0  0  0  0  0
   22.5438  -25.5311  -19.8012 C   0  0  0  0  0  0  0  0  0  0  0  0
   23.8131  -26.1959  -19.5837 N   0  0  0  0  0  0  0  0  0  0  0  0
   20.9377  -20.8905  -19.0727 C   0  0  0  0  0  0  0  0  0  0  0  0
   22.0877  -20.3871  -19.0175 O   0  0  0  0  0  0  0  0  0  0  0  0
   19.4565  -17.8308  -18.0316 C   0  0  0  0  0  0  0  0  0  0  0  0
   19.4983  -18.6195  -16.7759 C   0  0  1  0  0  0  0  0  0  0  0  0
   18.1175  -19.2363  -16.5722 C   0  0  0  0  0  0  0  0  0  0  0  0
   20.4790  -19.7635  -16.8637 C   0  0  2  0  0  0  0  0  0  0  0  0
   20.0624  -20.6371  -17.9878 N   0  0  0  0  0  0  0  0  0  0  0  0
   20.5075  -20.6229  -15.6677 C   0  0  0  0  0  0  0  0  0  0  0  0
   19.7854  -21.6595  -15.6365 O   0  0  0  0  0  0  0  0  0  0  0  0
   22.3636  -21.7666  -11.3148 O   0  0  0  0  0  0  0  0  0  0  0  0
   22.3916  -20.9264  -12.4469 C   0  0  0  0  0  0  0  0  0  0  0  0
   21.2666  -21.3319  -13.4048 C   0  0  2  0  0  0  0  0  0  0  0  0
   21.2920  -20.3972  -14.5096 N   0  0  0  0  0  0  0  0  0  0  0  0
   19.9608  -21.3147  -12.7003 C   0  0  0  0  0  0  0  0  0  0  0  0
   19.3336  -20.2385  -12.5415 O   0  0  0  0  0  0  0  0  0  0  0  0
   19.3916  -22.4721  -12.1973 O   0  0  0  0  0  0  0  0  0  0  0  0
  2  1  1  6
  3  2  1  0
  4  3  1  0
  5  4  1  0
  6  5  1  0
  7  6  1  0
  8  2  1  0
  8  9  2  0
 11 10  1  6
 11 12  1  0
 13 14  1  6
 13 11  1  0
 14  8  1  0
 15 13  1  0
 16 15  2  0
 18 17  1  0
 19 18  1  1
 19 20  1  0
 20 15  1  0
 21 19  1  0
 21 23  1  0
 22 21  2  0
M  END
$$$$
