KVS.pdb
     RDKit          3D

 23 22  0  0  1  0  0  0  0  0999 V2000
   28.0801  -21.1563  -16.1430 N   0  0  0  0  0  0  0  0  0  0  0  0
   27.6001  -20.1918  -15.1740 C   0  0  1  0  0  0  0  0  0  0  0  0
   27.0118  -18.9530  -15.8222 C   0  0  0  0  0  0  0  0  0  0  0  0
   28.1268  -18.1318  -16.3690 C   0  0  0  0  0  0  0  0  0  0  0  0
   28.7913  -18.7271  -17.5775 C   0  0  0  0  0  0  0  0  0  0  0  0
   29.7938  -17.8025  -18.2126 C   0  0  0  0  0  0  0  0  0  0  0  0
   30.5409  -18.5028  -19.2384 N   0  0  0  0  0  0  0  0  0  0  0  0
   26.5932  -20.8377  -14.2804 C   0  0  0  0  0  0  0  0  0  0  0  0
   25.7893  -21.6832  -14.7473 O   0  0  0  0  0  0  0  0  0  0  0  0
   25.8430  -19.4112  -10.3552 C   0  0  0  0  0  0  0  0  0  0  0  0
   25.7715  -20.8703  -10.6135 C   0  0  1  0  0  0  0  0  0  0  0  0
   24.6231  -21.4307   -9.7796 C   0  0  0  0  0  0  0  0  0  0  0  0
   25.4495  -21.1699  -12.0574 C   0  0  2  0  0  0  0  0  0  0  0  0
   26.4951  -20.5385  -12.8990 N   0  0  0  0  0  0  0  0  0  0  0  0
   24.1653  -20.6115  -12.5145 C   0  0  0  0  0  0  0  0  0  0  0  0
   24.0837  -19.3746  -12.7597 O   0  0  0  0  0  0  0  0  0  0  0  0
   20.1483  -20.6574  -14.9015 O   0  0  0  0  0  0  0  0  0  0  0  0
   21.3836  -21.2098  -14.5052 C   0  0  0  0  0  0  0  0  0  0  0  0
   21.7497  -20.6827  -13.1139 C   0  0  2  0  0  0  0  0  0  0  0  0
   22.9718  -21.3481  -12.7157 N   0  0  0  0  0  0  0  0  0  0  0  0
   20.6450  -20.9443  -12.1585 C   0  0  0  0  0  0  0  0  0  0  0  0
   20.6851  -21.9366  -11.3900 O   0  0  0  0  0  0  0  0  0  0  0  0
   19.5408  -20.1129  -12.0795 O   0  0  0  0  0  0  0  0  0  0  0  0
  2  1  1  6
  3  2  1  0
  4  3  1  0
  5  4  1  0
  6  5  1  0
  7  6  1  0
  8  2  1  0
  8  9  2  0
 11 10  1  6
 11 12  1  0
 13 14  1  6
 13 11  1  0
 14  8  1  0
 15 13  1  0
 16 15  2  0
 18 17  1  0
 19 18  1  6
 19 20  1  0
 20 15  1  0
 21 19  1  0
 21 23  1  0
 22 21  2  0
M  END
$$$$
