KVS.pdb
     RDKit          3D

 23 22  0  0  1  0  0  0  0  0999 V2000
   20.4204  -12.9974  -18.1050 N   0  0  0  0  0  0  0  0  0  0  0  0
   20.7063  -11.6034  -18.3781 C   0  0  1  0  0  0  0  0  0  0  0  0
   19.6877  -10.9669  -19.3045 C   0  0  0  0  0  0  0  0  0  0  0  0
   19.8348  -11.5741  -20.6560 C   0  0  0  0  0  0  0  0  0  0  0  0
   18.9918  -12.7981  -20.8732 C   0  0  0  0  0  0  0  0  0  0  0  0
   19.0533  -13.3113  -22.2861 C   0  0  0  0  0  0  0  0  0  0  0  0
   18.2309  -14.4967  -22.4244 N   0  0  0  0  0  0  0  0  0  0  0  0
   20.7832  -10.8466  -17.0932 C   0  0  0  0  0  0  0  0  0  0  0  0
   19.8574  -10.9452  -16.2494 O   0  0  0  0  0  0  0  0  0  0  0  0
   22.8204  -11.3978  -14.4273 C   0  0  0  0  0  0  0  0  0  0  0  0
   23.0575   -9.9518  -14.6587 C   0  0  1  0  0  0  0  0  0  0  0  0
   24.3255   -9.8206  -15.4975 C   0  0  0  0  0  0  0  0  0  0  0  0
   21.9408   -9.3197  -15.4535 C   0  0  2  0  0  0  0  0  0  0  0  0
   21.8735  -10.0018  -16.7689 N   0  0  0  0  0  0  0  0  0  0  0  0
   22.1458   -7.8904  -15.7449 C   0  0  0  0  0  0  0  0  0  0  0  0
   22.4745   -7.5409  -16.9140 O   0  0  0  0  0  0  0  0  0  0  0  0
   20.8250   -3.9268  -16.6546 O   0  0  0  0  0  0  0  0  0  0  0  0
   20.9273   -5.2868  -16.2965 C   0  0  0  0  0  0  0  0  0  0  0  0
   22.0359   -5.4522  -15.2521 C   0  0  2  0  0  0  0  0  0  0  0  0
   22.0045   -6.8314  -14.8142 N   0  0  0  0  0  0  0  0  0  0  0  0
   21.8231   -4.5124  -14.1237 C   0  0  0  0  0  0  0  0  0  0  0  0
   21.1547   -4.8596  -13.1191 O   0  0  0  0  0  0  0  0  0  0  0  0
   22.3481   -3.2314  -14.1366 O   0  0  0  0  0  0  0  0  0  0  0  0
  2  1  1  1
  3  2  1  0
  4  3  1  0
  5  4  1  0
  6  5  1  0
  7  6  1  0
  8  2  1  0
  8  9  2  0
 11 10  1  6
 11 12  1  0
 13 14  1  6
 13 11  1  0
 14  8  1  0
 15 13  1  0
 16 15  2  0
 18 17  1  0
 19 18  1  6
 19 20  1  0
 20 15  1  0
 21 19  1  0
 21 23  1  0
 22 21  2  0
M  END
$$$$
