KVS.pdb
     RDKit          3D

 23 22  0  0  1  0  0  0  0  0999 V2000
   25.2298  -16.7311  -15.3945 N   0  0  0  0  0  0  0  0  0  0  0  0
   24.3027  -15.6983  -15.8108 C   0  0  1  0  0  0  0  0  0  0  0  0
   22.8703  -16.0025  -15.4152 C   0  0  0  0  0  0  0  0  0  0  0  0
   22.4224  -17.2125  -16.1583 C   0  0  0  0  0  0  0  0  0  0  0  0
   20.9451  -17.4712  -16.0750 C   0  0  0  0  0  0  0  0  0  0  0  0
   20.4990  -18.6173  -16.9416 C   0  0  0  0  0  0  0  0  0  0  0  0
   19.1389  -18.9941  -16.6122 N   0  0  0  0  0  0  0  0  0  0  0  0
   24.7292  -14.3841  -15.2447 C   0  0  0  0  0  0  0  0  0  0  0  0
   25.0190  -14.2892  -14.0257 O   0  0  0  0  0  0  0  0  0  0  0  0
   26.9839  -10.1579  -15.7711 C   0  0  0  0  0  0  0  0  0  0  0  0
   26.5857  -11.5492  -16.0976 C   0  0  1  0  0  0  0  0  0  0  0  0
   27.6574  -12.4795  -15.5368 C   0  0  0  0  0  0  0  0  0  0  0  0
   25.2849  -11.9314  -15.4342 C   0  0  2  0  0  0  0  0  0  0  0  0
   24.8260  -13.2094  -16.0310 N   0  0  0  0  0  0  0  0  0  0  0  0
   24.1943  -10.9651  -15.6501 C   0  0  0  0  0  0  0  0  0  0  0  0
   23.7392  -10.8003  -16.8174 O   0  0  0  0  0  0  0  0  0  0  0  0
   20.8973   -7.8278  -13.9365 O   0  0  0  0  0  0  0  0  0  0  0  0
   21.9811   -8.6872  -13.6628 C   0  0  0  0  0  0  0  0  0  0  0  0
   22.5508   -9.2178  -14.9824 C   0  0  2  0  0  0  0  0  0  0  0  0
   23.5817  -10.1762  -14.6451 N   0  0  0  0  0  0  0  0  0  0  0  0
   23.0858   -8.0994  -15.7976 C   0  0  0  0  0  0  0  0  0  0  0  0
   24.2468   -7.6630  -15.6017 O   0  0  0  0  0  0  0  0  0  0  0  0
   22.3328   -7.5018  -16.7939 O   0  0  0  0  0  0  0  0  0  0  0  0
  2  1  1  1
  3  2  1  0
  4  3  1  0
  5  4  1  0
  6  5  1  0
  7  6  1  0
  8  2  1  0
  8  9  2  0
 11 10  1  1
 11 12  1  0
 13 14  1  6
 13 11  1  0
 14  8  1  0
 15 13  1  0
 16 15  2  0
 18 17  1  0
 19 18  1  1
 19 20  1  0
 20 15  1  0
 21 19  1  0
 21 23  1  0
 22 21  2  0
M  END
$$$$
