KVS.pdb
     RDKit          3D

 23 22  0  0  1  0  0  0  0  0999 V2000
   19.7652  -20.8732  -11.3172 N   0  0  0  0  0  0  0  0  0  0  0  0
   20.8527  -21.8308  -11.3103 C   0  0  1  0  0  0  0  0  0  0  0  0
   20.5517  -23.0653  -12.1387 C   0  0  0  0  0  0  0  0  0  0  0  0
   19.6383  -23.9454  -11.3590 C   0  0  0  0  0  0  0  0  0  0  0  0
   18.6562  -24.7091  -12.2008 C   0  0  0  0  0  0  0  0  0  0  0  0
   17.8251  -25.6765  -11.4029 C   0  0  0  0  0  0  0  0  0  0  0  0
   16.9678  -26.4448  -12.2835 N   0  0  0  0  0  0  0  0  0  0  0  0
   22.1026  -21.1731  -11.7949 C   0  0  0  0  0  0  0  0  0  0  0  0
   22.0580  -20.3771  -12.7661 O   0  0  0  0  0  0  0  0  0  0  0  0
   24.8087  -19.7625   -9.3874 C   0  0  0  0  0  0  0  0  0  0  0  0
   25.4888  -20.4812  -10.4927 C   0  0  1  0  0  0  0  0  0  0  0  0
   25.8642  -21.8682   -9.9792 C   0  0  0  0  0  0  0  0  0  0  0  0
   24.5743  -20.6862  -11.6758 C   0  0  2  0  0  0  0  0  0  0  0  0
   23.3676  -21.4065  -11.2010 N   0  0  0  0  0  0  0  0  0  0  0  0
   25.1526  -21.5188  -12.7445 C   0  0  0  0  0  0  0  0  0  0  0  0
   25.2500  -22.7664  -12.5690 O   0  0  0  0  0  0  0  0  0  0  0  0
   24.3071  -21.8213  -16.3457 O   0  0  0  0  0  0  0  0  0  0  0  0
   25.1215  -22.7224  -15.6294 C   0  0  0  0  0  0  0  0  0  0  0  0
   26.2480  -21.9462  -14.9394 C   0  0  2  0  0  0  0  0  0  0  0  0
   25.6251  -21.0449  -13.9935 N   0  0  0  0  0  0  0  0  0  0  0  0
   27.0580  -21.2142  -15.9442 C   0  0  0  0  0  0  0  0  0  0  0  0
   27.0547  -19.9590  -15.9775 O   0  0  0  0  0  0  0  0  0  0  0  0
   27.8392  -21.8810  -16.8726 O   0  0  0  0  0  0  0  0  0  0  0  0
  2  1  1  6
  3  2  1  0
  4  3  1  0
  5  4  1  0
  6  5  1  0
  7  6  1  0
  8  2  1  0
  8  9  2  0
 11 10  1  1
 11 12  1  0
 13 14  1  1
 13 11  1  0
 14  8  1  0
 15 13  1  0
 16 15  2  0
 18 17  1  0
 19 18  1  6
 19 20  1  0
 20 15  1  0
 21 19  1  0
 21 23  1  0
 22 21  2  0
M  END
$$$$
