KVS.pdb
     RDKit          3D

 23 22  0  0  1  0  0  0  0  0999 V2000
   20.3066  -11.8007  -16.7367 N   0  0  0  0  0  0  0  0  0  0  0  0
   20.1323  -10.4582  -17.2533 C   0  0  1  0  0  0  0  0  0  0  0  0
   18.7319   -9.9207  -17.0275 C   0  0  0  0  0  0  0  0  0  0  0  0
   17.7755  -10.7533  -17.8077 C   0  0  0  0  0  0  0  0  0  0  0  0
   16.3354  -10.3680  -17.6234 C   0  0  0  0  0  0  0  0  0  0  0  0
   15.3837  -11.2948  -18.3296 C   0  0  0  0  0  0  0  0  0  0  0  0
   15.4326  -12.6138  -17.7309 N   0  0  0  0  0  0  0  0  0  0  0  0
   21.1428   -9.5486  -16.6361 C   0  0  0  0  0  0  0  0  0  0  0  0
   21.5168   -9.7364  -15.4513 O   0  0  0  0  0  0  0  0  0  0  0  0
   24.9307   -6.5238  -17.2706 C   0  0  0  0  0  0  0  0  0  0  0  0
   23.8955   -7.4826  -17.7288 C   0  0  1  0  0  0  0  0  0  0  0  0
   24.5607   -8.8490  -17.8664 C   0  0  0  0  0  0  0  0  0  0  0  0
   22.7859   -7.6370  -16.7174 C   0  0  2  0  0  0  0  0  0  0  0  0
   21.7156   -8.4574  -17.3352 N   0  0  0  0  0  0  0  0  0  0  0  0
   22.1513   -6.3673  -16.3239 C   0  0  0  0  0  0  0  0  0  0  0  0
   21.6269   -5.6389  -17.2136 O   0  0  0  0  0  0  0  0  0  0  0  0
   21.5673   -5.1025  -12.3801 O   0  0  0  0  0  0  0  0  0  0  0  0
   20.6275   -4.8213  -13.3929 C   0  0  0  0  0  0  0  0  0  0  0  0
   21.3614   -4.6303  -14.7242 C   0  0  2  0  0  0  0  0  0  0  0  0
   22.0650   -5.8643  -15.0021 N   0  0  0  0  0  0  0  0  0  0  0  0
   22.2895   -3.4759  -14.6382 C   0  0  0  0  0  0  0  0  0  0  0  0
   23.5327   -3.6524  -14.6454 O   0  0  0  0  0  0  0  0  0  0  0  0
   21.8243   -2.1751  -14.5478 O   0  0  0  0  0  0  0  0  0  0  0  0
  2  1  1  1
  3  2  1  0
  4  3  1  0
  5  4  1  0
  6  5  1  0
  7  6  1  0
  8  2  1  0
  8  9  2  0
 11 10  1  1
 11 12  1  0
 13 14  1  6
 13 11  1  0
 14  8  1  0
 15 13  1  0
 16 15  2  0
 18 17  1  0
 19 18  1  1
 19 20  1  0
 20 15  1  0
 21 19  1  0
 21 23  1  0
 22 21  2  0
M  END
$$$$
