KVS.pdb
     RDKit          3D

 23 22  0  0  1  0  0  0  0  0999 V2000
   18.5550  -22.9639  -12.8365 N   0  0  0  0  0  0  0  0  0  0  0  0
   19.6554  -22.1044  -12.4493 C   0  0  1  0  0  0  0  0  0  0  0  0
   20.5434  -22.7304  -11.3908 C   0  0  0  0  0  0  0  0  0  0  0  0
   19.7562  -22.8656  -10.1342 C   0  0  0  0  0  0  0  0  0  0  0  0
   19.3817  -24.2800   -9.7946 C   0  0  0  0  0  0  0  0  0  0  0  0
   18.5544  -24.3847   -8.5424 C   0  0  0  0  0  0  0  0  0  0  0  0
   18.2760  -25.7748   -8.2412 N   0  0  0  0  0  0  0  0  0  0  0  0
   20.4596  -21.7458  -13.6552 C   0  0  0  0  0  0  0  0  0  0  0  0
   20.5635  -22.5605  -14.6063 O   0  0  0  0  0  0  0  0  0  0  0  0
   19.7908  -18.9993  -15.8654 C   0  0  0  0  0  0  0  0  0  0  0  0
   21.2345  -18.8566  -15.5555 C   0  0  1  0  0  0  0  0  0  0  0  0
   21.3664  -17.8321  -14.4324 C   0  0  0  0  0  0  0  0  0  0  0  0
   21.8289  -20.1458  -15.0427 C   0  0  2  0  0  0  0  0  0  0  0  0
   21.1281  -20.5034  -13.7852 N   0  0  0  0  0  0  0  0  0  0  0  0
   23.2588  -20.0535  -14.7012 C   0  0  0  0  0  0  0  0  0  0  0  0
   23.5942  -19.8780  -13.4955 O   0  0  0  0  0  0  0  0  0  0  0  0
   26.9157  -22.0668  -13.9239 O   0  0  0  0  0  0  0  0  0  0  0  0
   25.6178  -21.7294  -14.3596 C   0  0  0  0  0  0  0  0  0  0  0  0
   25.6774  -20.4253  -15.1618 C   0  0  2  0  0  0  0  0  0  0  0  0
   24.3330  -20.1471  -15.6204 N   0  0  0  0  0  0  0  0  0  0  0  0
   26.6270  -20.5613  -16.2937 C   0  0  0  0  0  0  0  0  0  0  0  0
   26.2876  -21.1569  -17.3457 O   0  0  0  0  0  0  0  0  0  0  0  0
   27.9090  -20.0420  -16.2326 O   0  0  0  0  0  0  0  0  0  0  0  0
  2  1  1  6
  3  2  1  0
  4  3  1  0
  5  4  1  0
  6  5  1  0
  7  6  1  0
  8  2  1  0
  8  9  2  0
 11 10  1  1
 11 12  1  0
 13 14  1  1
 13 11  1  0
 14  8  1  0
 15 13  1  0
 16 15  2  0
 18 17  1  0
 19 18  1  6
 19 20  1  0
 20 15  1  0
 21 19  1  0
 21 23  1  0
 22 21  2  0
M  END
$$$$
