VVP.pdb
     RDKit          3D

 22 22  0  0  1  0  0  0  0  0999 V2000
   17.3176  -15.5394  -18.3797 C   0  0  0  0  0  0  0  0  0  0  0  0
   17.6804  -16.2384  -17.1228 C   0  0  2  0  0  0  0  0  0  0  0  0
   16.5245  -17.0963  -16.6460 C   0  0  0  0  0  0  0  0  0  0  0  0
   18.0935  -15.3362  -15.9973 C   0  0  2  0  0  0  0  0  0  0  0  0
   16.9593  -14.5341  -15.5812 N   0  0  0  0  0  0  0  0  0  0  0  0
   19.2212  -14.4601  -16.3094 C   0  0  0  0  0  0  0  0  0  0  0  0
   20.3402  -14.9449  -16.5509 O   0  0  0  0  0  0  0  0  0  0  0  0
   18.4739  -10.8191  -18.0848 C   0  0  0  0  0  0  0  0  0  0  0  0
   19.7995  -11.4839  -17.9920 C   0  0  1  0  0  0  0  0  0  0  0  0
   20.8588  -10.4744  -18.3816 C   0  0  0  0  0  0  0  0  0  0  0  0
   20.1507  -12.1111  -16.6522 C   0  0  2  0  0  0  0  0  0  0  0  0
   19.0629  -13.0661  -16.3421 N   0  0  0  0  0  0  0  0  0  0  0  0
   20.2817  -11.1226  -15.5806 C   0  0  0  0  0  0  0  0  0  0  0  0
   19.1721  -10.7482  -15.0508 O   0  0  0  0  0  0  0  0  0  0  0  0
   21.4355  -10.5321  -15.0478 N   0  0  0  0  0  0  0  0  0  0  0  0
   22.7966  -10.5935  -15.6332 C   0  0  0  0  0  0  0  0  0  0  0  0
   23.7657  -10.5656  -14.5090 C   0  0  0  0  0  0  0  0  0  0  0  0
   22.9260  -10.3090  -13.2838 C   0  0  0  0  0  0  0  0  0  0  0  0
   21.6336   -9.7577  -13.8456 C   0  0  1  0  0  0  0  0  0  0  0  0
   21.9510   -8.3259  -14.2302 C   0  0  0  0  0  0  0  0  0  0  0  0
   22.2158   -8.0667  -15.4311 O   0  0  0  0  0  0  0  0  0  0  0  0
   21.9460   -7.3437  -13.2751 O   0  0  0  0  0  0  0  0  0  0  0  0
  2  1  1  6
  2  3  1  0
  4  6  1  0
  4  2  1  0
  4  5  1  6
  6 12  1  0
  6  7  2  0
  9  8  1  1
  9 11  1  0
 10  9  1  0
 11 13  1  0
 11 12  1  1
 13 14  2  0
 13 15  1  0
 15 19  1  0
 15 16  1  0
 16 17  1  0
 18 17  1  0
 19 18  1  0
 19 20  1  6
 21 20  2  0
 22 20  1  0
M  END
$$$$
