VVP.pdb
     RDKit          3D

 22 22  0  0  1  0  0  0  0  0999 V2000
   27.7426  -25.4282  -16.5705 C   0  0  0  0  0  0  0  0  0  0  0  0
   27.4150  -24.4418  -17.6287 C   0  0  2  0  0  0  0  0  0  0  0  0
   27.4966  -25.0917  -18.9964 C   0  0  0  0  0  0  0  0  0  0  0  0
   28.2805  -23.2162  -17.6368 C   0  0  2  0  0  0  0  0  0  0  0  0
   29.6394  -23.5879  -17.9810 N   0  0  0  0  0  0  0  0  0  0  0  0
   28.2831  -22.4715  -16.3791 C   0  0  0  0  0  0  0  0  0  0  0  0
   29.2384  -22.5804  -15.5910 O   0  0  0  0  0  0  0  0  0  0  0  0
   28.3698  -18.8636  -15.7844 C   0  0  0  0  0  0  0  0  0  0  0  0
   27.1235  -19.3895  -15.1695 C   0  0  1  0  0  0  0  0  0  0  0  0
   25.9786  -19.1149  -16.1218 C   0  0  0  0  0  0  0  0  0  0  0  0
   27.1289  -20.8584  -14.7773 C   0  0  2  0  0  0  0  0  0  0  0  0
   27.2156  -21.6259  -16.0402 N   0  0  0  0  0  0  0  0  0  0  0  0
   25.9355  -21.2486  -14.0249 C   0  0  0  0  0  0  0  0  0  0  0  0
   25.1396  -22.0438  -14.6466 O   0  0  0  0  0  0  0  0  0  0  0  0
   25.5393  -20.8872  -12.7303 N   0  0  0  0  0  0  0  0  0  0  0  0
   26.2122  -19.8952  -11.8572 C   0  0  0  0  0  0  0  0  0  0  0  0
   26.0219  -20.3374  -10.4530 C   0  0  0  0  0  0  0  0  0  0  0  0
   25.0754  -21.5070  -10.5432 C   0  0  0  0  0  0  0  0  0  0  0  0
   24.4458  -21.3524  -11.9105 C   0  0  1  0  0  0  0  0  0  0  0  0
   23.4370  -20.2314  -11.7546 C   0  0  0  0  0  0  0  0  0  0  0  0
   23.7441  -19.0810  -12.1571 O   0  0  0  0  0  0  0  0  0  0  0  0
   22.2176  -20.4828  -11.1830 O   0  0  0  0  0  0  0  0  0  0  0  0
  2  1  1  1
  2  3  1  0
  4  6  1  0
  4  2  1  0
  4  5  1  1
  6 12  1  0
  6  7  2  0
  9  8  1  6
  9 11  1  0
 10  9  1  0
 11 13  1  0
 11 12  1  6
 13 14  2  0
 13 15  1  0
 15 19  1  0
 15 16  1  0
 16 17  1  0
 18 17  1  0
 19 18  1  0
 19 20  1  1
 21 20  2  0
 22 20  1  0
M  END
$$$$
