VVP.pdb
     RDKit          3D

 22 22  0  0  1  0  0  0  0  0999 V2000
   15.7127   -7.3283   -7.8344 C   0  0  0  0  0  0  0  0  0  0  0  0
   14.8337   -6.4195   -8.6099 C   0  0  2  0  0  0  0  0  0  0  0  0
   13.6631   -5.9674   -7.7585 C   0  0  0  0  0  0  0  0  0  0  0  0
   14.2938   -7.0009   -9.8834 C   0  0  2  0  0  0  0  0  0  0  0  0
   13.4946   -8.1718   -9.5780 N   0  0  0  0  0  0  0  0  0  0  0  0
   15.3161   -7.3521  -10.8672 C   0  0  0  0  0  0  0  0  0  0  0  0
   15.6584   -8.5380  -11.0157 O   0  0  0  0  0  0  0  0  0  0  0  0
   15.2432   -7.2197  -14.4860 C   0  0  0  0  0  0  0  0  0  0  0  0
   16.3236   -6.3100  -14.0244 C   0  0  1  0  0  0  0  0  0  0  0  0
   15.7721   -4.8999  -14.0028 C   0  0  0  0  0  0  0  0  0  0  0  0
   16.9579   -6.6378  -12.6821 C   0  0  2  0  0  0  0  0  0  0  0  0
   15.9259   -6.3649  -11.6565 N   0  0  0  0  0  0  0  0  0  0  0  0
   18.1616   -5.8485  -12.4162 C   0  0  0  0  0  0  0  0  0  0  0  0
   17.9652   -4.7724  -11.7412 O   0  0  0  0  0  0  0  0  0  0  0  0
   19.4907   -6.0969  -12.7843 N   0  0  0  0  0  0  0  0  0  0  0  0
   19.9610   -7.1905  -13.6686 C   0  0  0  0  0  0  0  0  0  0  0  0
   21.3193   -7.5785  -13.2121 C   0  0  0  0  0  0  0  0  0  0  0  0
   21.6771   -6.5592  -12.1608 C   0  0  0  0  0  0  0  0  0  0  0  0
   20.7148   -5.4215  -12.4240 C   0  0  1  0  0  0  0  0  0  0  0  0
   21.2652   -4.7159  -13.6478 C   0  0  0  0  0  0  0  0  0  0  0  0
   22.2285   -3.9213  -13.5057 O   0  0  0  0  0  0  0  0  0  0  0  0
   20.7118   -4.9496  -14.8791 O   0  0  0  0  0  0  0  0  0  0  0  0
  2  1  1  1
  2  3  1  0
  4  6  1  0
  4  2  1  0
  4  5  1  1
  6 12  1  0
  6  7  2  0
  9  8  1  1
  9 11  1  0
 10  9  1  0
 11 13  1  0
 11 12  1  1
 13 14  2  0
 13 15  1  0
 15 19  1  0
 15 16  1  0
 16 17  1  0
 18 17  1  0
 19 18  1  0
 19 20  1  6
 21 20  2  0
 22 20  1  0
M  END
$$$$
