VVP.pdb
     RDKit          3D

 22 22  0  0  1  0  0  0  0  0999 V2000
   18.6804  -26.3173  -14.3051 C   0  0  0  0  0  0  0  0  0  0  0  0
   17.9707  -27.5181  -13.8008 C   0  0  2  0  0  0  0  0  0  0  0  0
   17.2026  -28.1855  -14.9252 C   0  0  0  0  0  0  0  0  0  0  0  0
   17.0200  -27.2588  -12.6694 C   0  0  2  0  0  0  0  0  0  0  0  0
   15.9813  -26.3486  -13.1115 N   0  0  0  0  0  0  0  0  0  0  0  0
   17.6501  -26.7289  -11.4616 C   0  0  0  0  0  0  0  0  0  0  0  0
   18.5597  -27.3649  -10.9015 O   0  0  0  0  0  0  0  0  0  0  0  0
   18.9311  -23.0106  -10.8504 C   0  0  0  0  0  0  0  0  0  0  0  0
   17.9015  -23.4424   -9.8700 C   0  0  1  0  0  0  0  0  0  0  0  0
   16.5713  -22.8599  -10.2994 C   0  0  0  0  0  0  0  0  0  0  0  0
   17.7628  -24.9402   -9.6485 C   0  0  2  0  0  0  0  0  0  0  0  0
   17.2431  -25.5018  -10.9157 N   0  0  0  0  0  0  0  0  0  0  0  0
   16.8652  -25.2685   -8.5398 C   0  0  0  0  0  0  0  0  0  0  0  0
   15.7035  -25.6918   -8.8909 O   0  0  0  0  0  0  0  0  0  0  0  0
   17.0891  -25.1935   -7.1585 N   0  0  0  0  0  0  0  0  0  0  0  0
   18.3311  -24.7204   -6.5006 C   0  0  0  0  0  0  0  0  0  0  0  0
   18.4738  -25.4712   -5.2280 C   0  0  0  0  0  0  0  0  0  0  0  0
   17.1915  -26.2527   -5.0968 C   0  0  0  0  0  0  0  0  0  0  0  0
   16.2444  -25.5462   -6.0422 C   0  0  1  0  0  0  0  0  0  0  0  0
   15.8356  -24.2798   -5.3159 C   0  0  0  0  0  0  0  0  0  0  0  0
   16.4426  -23.2105   -5.5761 O   0  0  0  0  0  0  0  0  0  0  0  0
   14.8219  -24.3160   -4.3949 O   0  0  0  0  0  0  0  0  0  0  0  0
  2  1  1  6
  2  3  1  0
  4  6  1  0
  4  2  1  0
  4  5  1  6
  6 12  1  0
  6  7  2  0
  9  8  1  6
  9 11  1  0
 10  9  1  0
 11 13  1  0
 11 12  1  6
 13 14  2  0
 13 15  1  0
 15 19  1  0
 15 16  1  0
 16 17  1  0
 18 17  1  0
 19 18  1  0
 19 20  1  1
 21 20  2  0
 22 20  1  0
M  END
$$$$
