VVP.pdb
     RDKit          3D

 22 22  0  0  1  0  0  0  0  0999 V2000
   29.1181  -29.2137  -23.5885 C   0  0  0  0  0  0  0  0  0  0  0  0
   29.3474  -29.6653  -22.1944 C   0  0  2  0  0  0  0  0  0  0  0  0
   28.1967  -30.5360  -21.7281 C   0  0  0  0  0  0  0  0  0  0  0  0
   29.5364  -28.5601  -21.1975 C   0  0  2  0  0  0  0  0  0  0  0  0
   30.8109  -27.9100  -21.4342 N   0  0  0  0  0  0  0  0  0  0  0  0
   29.4595  -28.9871  -19.8017 C   0  0  0  0  0  0  0  0  0  0  0  0
   30.3422  -29.7204  -19.3236 O   0  0  0  0  0  0  0  0  0  0  0  0
   28.5858  -26.6282  -16.7126 C   0  0  0  0  0  0  0  0  0  0  0  0
   27.6767  -27.7979  -16.8277 C   0  0  1  0  0  0  0  0  0  0  0  0
   26.3887  -27.3294  -17.4715 C   0  0  0  0  0  0  0  0  0  0  0  0
   28.2185  -29.0062  -17.5748 C   0  0  2  0  0  0  0  0  0  0  0  0
   28.3958  -28.5805  -18.9814 N   0  0  0  0  0  0  0  0  0  0  0  0
   27.3266  -30.1646  -17.5017 C   0  0  0  0  0  0  0  0  0  0  0  0
   26.4409  -30.2254  -18.4312 O   0  0  0  0  0  0  0  0  0  0  0  0
   27.3015  -31.2139  -16.5733 N   0  0  0  0  0  0  0  0  0  0  0  0
   28.1745  -31.3456  -15.3818 C   0  0  0  0  0  0  0  0  0  0  0  0
   28.3912  -32.7953  -15.1474 C   0  0  0  0  0  0  0  0  0  0  0  0
   27.4769  -33.4842  -16.1280 C   0  0  0  0  0  0  0  0  0  0  0  0
   26.4882  -32.4053  -16.5132 C   0  0  1  0  0  0  0  0  0  0  0  0
   25.5443  -32.2968  -15.3318 C   0  0  0  0  0  0  0  0  0  0  0  0
   25.6301  -31.2940  -14.5790 O   0  0  0  0  0  0  0  0  0  0  0  0
   24.6205  -33.2819  -15.1013 O   0  0  0  0  0  0  0  0  0  0  0  0
  2  1  1  6
  2  3  1  0
  4  6  1  0
  4  2  1  0
  4  5  1  1
  6 12  1  0
  6  7  2  0
  9  8  1  6
  9 11  1  0
 10  9  1  0
 11 13  1  0
 11 12  1  6
 13 14  2  0
 13 15  1  0
 15 19  1  0
 15 16  1  0
 16 17  1  0
 18 17  1  0
 19 18  1  0
 19 20  1  1
 21 20  2  0
 22 20  1  0
M  END
$$$$
