VVP.pdb
     RDKit          3D

 22 22  0  0  1  0  0  0  0  0999 V2000
   29.1134  -21.4686  -12.2367 C   0  0  0  0  0  0  0  0  0  0  0  0
   28.0324  -20.8923  -13.0731 C   0  0  2  0  0  0  0  0  0  0  0  0
   28.3241  -19.4359  -13.3785 C   0  0  0  0  0  0  0  0  0  0  0  0
   26.6586  -20.9830  -12.4767 C   0  0  2  0  0  0  0  0  0  0  0  0
   25.6772  -20.5722  -13.4620 N   0  0  0  0  0  0  0  0  0  0  0  0
   26.4787  -20.2011  -11.2549 C   0  0  0  0  0  0  0  0  0  0  0  0
   26.2883  -18.9744  -11.3211 O   0  0  0  0  0  0  0  0  0  0  0  0
   23.8284  -19.9224   -9.3389 C   0  0  0  0  0  0  0  0  0  0  0  0
   24.8450  -20.3371   -8.3377 C   0  0  1  0  0  0  0  0  0  0  0  0
   24.6219  -21.8010   -8.0212 C   0  0  0  0  0  0  0  0  0  0  0  0
   26.2999  -20.1052   -8.7135 C   0  0  2  0  0  0  0  0  0  0  0  0
   26.5172  -20.8158   -9.9938 N   0  0  0  0  0  0  0  0  0  0  0  0
   27.2327  -20.5921   -7.6959 C   0  0  0  0  0  0  0  0  0  0  0  0
   27.6813  -21.7798   -7.8967 O   0  0  0  0  0  0  0  0  0  0  0  0
   27.7090  -19.9529   -6.5434 N   0  0  0  0  0  0  0  0  0  0  0  0
   27.3092  -18.6079   -6.0636 C   0  0  0  0  0  0  0  0  0  0  0  0
   28.4820  -18.0156   -5.3726 C   0  0  0  0  0  0  0  0  0  0  0  0
   29.4984  -19.1274   -5.3189 C   0  0  0  0  0  0  0  0  0  0  0  0
   28.6761  -20.3750   -5.5582 C   0  0  1  0  0  0  0  0  0  0  0  0
   27.9609  -20.6323   -4.2464 C   0  0  0  0  0  0  0  0  0  0  0  0
   26.7160  -20.4673   -4.1936 O   0  0  0  0  0  0  0  0  0  0  0  0
   28.6719  -21.0361   -3.1471 O   0  0  0  0  0  0  0  0  0  0  0  0
  2  1  1  1
  2  3  1  0
  4  6  1  0
  4  2  1  0
  4  5  1  6
  6 12  1  0
  6  7  2  0
  9  8  1  6
  9 11  1  0
 10  9  1  0
 11 13  1  0
 11 12  1  6
 13 14  2  0
 13 15  1  0
 15 19  1  0
 15 16  1  0
 16 17  1  0
 18 17  1  0
 19 18  1  0
 19 20  1  1
 21 20  2  0
 22 20  1  0
M  END
$$$$
