VVP.pdb
     RDKit          3D

 22 22  0  0  1  0  0  0  0  0999 V2000
   13.5050  -28.6079   -9.4379 C   0  0  0  0  0  0  0  0  0  0  0  0
   13.6997  -27.2019   -9.8683 C   0  0  2  0  0  0  0  0  0  0  0  0
   12.9629  -26.9434  -11.1682 C   0  0  0  0  0  0  0  0  0  0  0  0
   15.1315  -26.7909  -10.0481 C   0  0  2  0  0  0  0  0  0  0  0  0
   15.7194  -27.5534  -11.1326 N   0  0  0  0  0  0  0  0  0  0  0  0
   15.9553  -26.9347   -8.8493 C   0  0  0  0  0  0  0  0  0  0  0  0
   16.6320  -27.9632   -8.6764 O   0  0  0  0  0  0  0  0  0  0  0  0
   17.4717  -23.6016   -5.9056 C   0  0  0  0  0  0  0  0  0  0  0  0
   17.7887  -24.7662   -6.7722 C   0  0  1  0  0  0  0  0  0  0  0  0
   19.2096  -25.1982   -6.4762 C   0  0  0  0  0  0  0  0  0  0  0  0
   16.8534  -25.9606   -6.6712 C   0  0  2  0  0  0  0  0  0  0  0  0
   15.9977  -25.9221   -7.8785 N   0  0  0  0  0  0  0  0  0  0  0  0
   16.0294  -25.9345   -5.4616 C   0  0  0  0  0  0  0  0  0  0  0  0
   14.9320  -25.2739   -5.5684 O   0  0  0  0  0  0  0  0  0  0  0  0
   16.2596  -26.5263   -4.2124 N   0  0  0  0  0  0  0  0  0  0  0  0
   17.5075  -27.2040   -3.7850 C   0  0  0  0  0  0  0  0  0  0  0  0
   17.1262  -28.2811   -2.8372 C   0  0  0  0  0  0  0  0  0  0  0  0
   15.6505  -28.0823   -2.6028 C   0  0  0  0  0  0  0  0  0  0  0  0
   15.4053  -26.6596   -3.0563 C   0  0  1  0  0  0  0  0  0  0  0  0
   15.9507  -25.7912   -1.9396 C   0  0  0  0  0  0  0  0  0  0  0  0
   17.0801  -25.2589   -2.0838 O   0  0  0  0  0  0  0  0  0  0  0  0
   15.2148  -25.6001   -0.7999 O   0  0  0  0  0  0  0  0  0  0  0  0
  2  1  1  6
  2  3  1  0
  4  6  1  0
  4  2  1  0
  4  5  1  6
  6 12  1  0
  6  7  2  0
  9  8  1  1
  9 11  1  0
 10  9  1  0
 11 13  1  0
 11 12  1  6
 13 14  2  0
 13 15  1  0
 15 19  1  0
 15 16  1  0
 16 17  1  0
 18 17  1  0
 19 18  1  0
 19 20  1  1
 21 20  2  0
 22 20  1  0
M  END
$$$$
