VVP.pdb
     RDKit          3D

 22 22  0  0  1  0  0  0  0  0999 V2000
   16.1990  -14.2437  -15.2765 C   0  0  0  0  0  0  0  0  0  0  0  0
   17.3020  -13.2749  -15.4881 C   0  0  2  0  0  0  0  0  0  0  0  0
   17.2121  -12.1474  -14.4781 C   0  0  0  0  0  0  0  0  0  0  0  0
   17.3573  -12.6740  -16.8618 C   0  0  2  0  0  0  0  0  0  0  0  0
   17.5345  -13.7277  -17.8423 N   0  0  0  0  0  0  0  0  0  0  0  0
   18.4005  -11.6652  -17.0373 C   0  0  0  0  0  0  0  0  0  0  0  0
   19.5839  -12.0119  -17.1954 O   0  0  0  0  0  0  0  0  0  0  0  0
   18.9966   -9.4060  -19.7894 C   0  0  0  0  0  0  0  0  0  0  0  0
   18.7367   -8.5813  -18.5811 C   0  0  1  0  0  0  0  0  0  0  0  0
   17.2802   -8.1675  -18.5999 C   0  0  0  0  0  0  0  0  0  0  0  0
   19.0767   -9.2156  -17.2418 C   0  0  2  0  0  0  0  0  0  0  0  0
   18.0881  -10.2971  -17.0307 N   0  0  0  0  0  0  0  0  0  0  0  0
   19.0308   -8.2600  -16.1340 C   0  0  0  0  0  0  0  0  0  0  0  0
   17.8737   -8.1125  -15.5939 O   0  0  0  0  0  0  0  0  0  0  0  0
   20.0606   -7.4904  -15.5764 N   0  0  0  0  0  0  0  0  0  0  0  0
   21.4326   -7.3443  -16.1199 C   0  0  0  0  0  0  0  0  0  0  0  0
   22.3491   -7.1528  -14.9679 C   0  0  0  0  0  0  0  0  0  0  0  0
   21.4409   -7.0176  -13.7725 C   0  0  0  0  0  0  0  0  0  0  0  0
   20.0969   -6.6815  -14.3812 C   0  0  1  0  0  0  0  0  0  0  0  0
   20.1990   -5.2219  -14.7786 C   0  0  0  0  0  0  0  0  0  0  0  0
   20.3070   -4.9329  -15.9970 O   0  0  0  0  0  0  0  0  0  0  0  0
   20.1732   -4.2472  -13.8161 O   0  0  0  0  0  0  0  0  0  0  0  0
  2  1  1  6
  2  3  1  0
  4  6  1  0
  4  2  1  0
  4  5  1  6
  6 12  1  0
  6  7  2  0
  9  8  1  6
  9 11  1  0
 10  9  1  0
 11 13  1  0
 11 12  1  1
 13 14  2  0
 13 15  1  0
 15 19  1  0
 15 16  1  0
 16 17  1  0
 18 17  1  0
 19 18  1  0
 19 20  1  6
 21 20  2  0
 22 20  1  0
M  END
$$$$
