VVP.pdb
     RDKit          3D

 22 22  0  0  1  0  0  0  0  0999 V2000
   21.1409  -20.6152  -17.4220 C   0  0  0  0  0  0  0  0  0  0  0  0
   21.3965  -19.2553  -16.8876 C   0  0  2  0  0  0  0  0  0  0  0  0
   21.2756  -18.2248  -17.9935 C   0  0  0  0  0  0  0  0  0  0  0  0
   22.7306  -19.0802  -16.2238 C   0  0  2  0  0  0  0  0  0  0  0  0
   22.8485  -20.0178  -15.1237 N   0  0  0  0  0  0  0  0  0  0  0  0
   22.9901  -17.7258  -15.7392 C   0  0  0  0  0  0  0  0  0  0  0  0
   22.3496  -17.2748  -14.7738 O   0  0  0  0  0  0  0  0  0  0  0  0
   26.0873  -16.3365  -14.3561 C   0  0  0  0  0  0  0  0  0  0  0  0
   25.7200  -15.5026  -15.5298 C   0  0  1  0  0  0  0  0  0  0  0  0
   26.5916  -15.9224  -16.6947 C   0  0  0  0  0  0  0  0  0  0  0  0
   24.2573  -15.5232  -15.9445 C   0  0  2  0  0  0  0  0  0  0  0  0
   23.9595  -16.9155  -16.3499 N   0  0  0  0  0  0  0  0  0  0  0  0
   23.9663  -14.5996  -17.0421 C   0  0  0  0  0  0  0  0  0  0  0  0
   24.1886  -15.0689  -18.2179 O   0  0  0  0  0  0  0  0  0  0  0  0
   23.4783  -13.2868  -16.9976 N   0  0  0  0  0  0  0  0  0  0  0  0
   23.3540  -12.4430  -15.7845 C   0  0  0  0  0  0  0  0  0  0  0  0
   22.1840  -11.5508  -15.9814 C   0  0  0  0  0  0  0  0  0  0  0  0
   21.7563  -11.7869  -17.4074 C   0  0  0  0  0  0  0  0  0  0  0  0
   22.9699  -12.4301  -18.0425 C   0  0  1  0  0  0  0  0  0  0  0  0
   23.9472  -11.2925  -18.2643 C   0  0  0  0  0  0  0  0  0  0  0  0
   24.9885  -11.2440  -17.5622 O   0  0  0  0  0  0  0  0  0  0  0  0
   23.6863  -10.3418  -19.2157 O   0  0  0  0  0  0  0  0  0  0  0  0
  2  1  1  6
  2  3  1  0
  4  6  1  0
  4  2  1  0
  4  5  1  1
  6 12  1  0
  6  7  2  0
  9  8  1  1
  9 11  1  0
 10  9  1  0
 11 13  1  0
 11 12  1  6
 13 14  2  0
 13 15  1  0
 15 19  1  0
 15 16  1  0
 16 17  1  0
 18 17  1  0
 19 18  1  0
 19 20  1  1
 21 20  2  0
 22 20  1  0
M  END
$$$$
