VVP.pdb
     RDKit          3D

 22 22  0  0  1  0  0  0  0  0999 V2000
   25.6813  -13.7608  -16.1552 C   0  0  0  0  0  0  0  0  0  0  0  0
   24.5489  -14.3038  -15.3659 C   0  0  2  0  0  0  0  0  0  0  0  0
   24.9455  -15.6120  -14.7094 C   0  0  0  0  0  0  0  0  0  0  0  0
   23.2886  -14.5315  -16.1474 C   0  0  2  0  0  0  0  0  0  0  0  0
   23.4999  -15.6028  -17.1017 N   0  0  0  0  0  0  0  0  0  0  0  0
   22.7901  -13.3483  -16.8462 C   0  0  0  0  0  0  0  0  0  0  0  0
   23.2813  -13.0153  -17.9386 O   0  0  0  0  0  0  0  0  0  0  0  0
   19.8305  -12.6164  -18.5849 C   0  0  0  0  0  0  0  0  0  0  0  0
   19.8754  -11.6382  -17.4674 C   0  0  1  0  0  0  0  0  0  0  0  0
   18.9703  -12.1446  -16.3640 C   0  0  0  0  0  0  0  0  0  0  0  0
   21.2500  -11.3175  -16.9023 C   0  0  2  0  0  0  0  0  0  0  0  0
   21.7557  -12.5721  -16.3012 N   0  0  0  0  0  0  0  0  0  0  0  0
   21.2164  -10.2502  -15.9011 C   0  0  0  0  0  0  0  0  0  0  0  0
   21.1277  -10.6527  -14.6836 O   0  0  0  0  0  0  0  0  0  0  0  0
   21.2717   -8.8609  -16.0760 N   0  0  0  0  0  0  0  0  0  0  0  0
   21.1933   -8.1408  -17.3699 C   0  0  0  0  0  0  0  0  0  0  0  0
   22.0134   -6.9098  -17.2441 C   0  0  0  0  0  0  0  0  0  0  0  0
   22.4137   -6.8614  -15.7916 C   0  0  0  0  0  0  0  0  0  0  0  0
   21.4284   -7.7919  -15.1184 C   0  0  1  0  0  0  0  0  0  0  0  0
   20.1339   -7.0063  -15.0428 C   0  0  0  0  0  0  0  0  0  0  0  0
   19.2201   -7.2653  -15.8659 O   0  0  0  0  0  0  0  0  0  0  0  0
   19.9780   -6.0344  -14.0898 O   0  0  0  0  0  0  0  0  0  0  0  0
  2  1  1  6
  2  3  1  0
  4  6  1  0
  4  2  1  0
  4  5  1  6
  6 12  1  0
  6  7  2  0
  9  8  1  6
  9 11  1  0
 10  9  1  0
 11 13  1  0
 11 12  1  1
 13 14  2  0
 13 15  1  0
 15 19  1  0
 15 16  1  0
 16 17  1  0
 18 17  1  0
 19 18  1  0
 19 20  1  6
 21 20  2  0
 22 20  1  0
M  END
$$$$
