VVP.pdb
     RDKit          3D

 22 22  0  0  1  0  0  0  0  0999 V2000
   20.4772  -13.5873  -20.6892 C   0  0  0  0  0  0  0  0  0  0  0  0
   20.1050  -12.7720  -19.5073 C   0  0  2  0  0  0  0  0  0  0  0  0
   19.9752  -11.3119  -19.8959 C   0  0  0  0  0  0  0  0  0  0  0  0
   21.0556  -12.8693  -18.3506 C   0  0  2  0  0  0  0  0  0  0  0  0
   21.1127  -14.2424  -17.8876 N   0  0  0  0  0  0  0  0  0  0  0  0
   20.7321  -11.9902  -17.2285 C   0  0  0  0  0  0  0  0  0  0  0  0
   19.7359  -12.2211  -16.5215 O   0  0  0  0  0  0  0  0  0  0  0  0
   22.7444  -11.4696  -14.3087 C   0  0  0  0  0  0  0  0  0  0  0  0
   22.5045  -10.1150  -14.8703 C   0  0  1  0  0  0  0  0  0  0  0  0
   23.7613   -9.6775  -15.5929 C   0  0  0  0  0  0  0  0  0  0  0  0
   21.3016   -9.9652  -15.7880 C   0  0  2  0  0  0  0  0  0  0  0  0
   21.5338  -10.8776  -16.9305 N   0  0  0  0  0  0  0  0  0  0  0  0
   21.1173   -8.5925  -16.2616 C   0  0  0  0  0  0  0  0  0  0  0  0
   21.8844   -8.2476  -17.2335 O   0  0  0  0  0  0  0  0  0  0  0  0
   20.2273   -7.6066  -15.8148 N   0  0  0  0  0  0  0  0  0  0  0  0
   19.3241   -7.7130  -14.6435 C   0  0  0  0  0  0  0  0  0  0  0  0
   18.1093   -6.9148  -14.9449 C   0  0  0  0  0  0  0  0  0  0  0  0
   18.4233   -6.2112  -16.2404 C   0  0  0  0  0  0  0  0  0  0  0  0
   19.9313   -6.2928  -16.3349 C   0  0  1  0  0  0  0  0  0  0  0  0
   20.4435   -5.2513  -15.3594 C   0  0  0  0  0  0  0  0  0  0  0  0
   20.9442   -5.6352  -14.2724 O   0  0  0  0  0  0  0  0  0  0  0  0
   20.3547   -3.9200  -15.6705 O   0  0  0  0  0  0  0  0  0  0  0  0
  2  1  1  6
  2  3  1  0
  4  6  1  0
  4  2  1  0
  4  5  1  1
  6 12  1  0
  6  7  2  0
  9  8  1  6
  9 11  1  0
 10  9  1  0
 11 13  1  0
 11 12  1  6
 13 14  2  0
 13 15  1  0
 15 19  1  0
 15 16  1  0
 16 17  1  0
 18 17  1  0
 19 18  1  0
 19 20  1  1
 21 20  2  0
 22 20  1  0
M  END
$$$$
