VVP.pdb
     RDKit          3D

 22 22  0  0  1  0  0  0  0  0999 V2000
   23.7617  -21.2905   -9.3930 C   0  0  0  0  0  0  0  0  0  0  0  0
   24.4366  -20.4267  -10.3922 C   0  0  2  0  0  0  0  0  0  0  0  0
   23.4134  -19.7888  -11.3119 C   0  0  0  0  0  0  0  0  0  0  0  0
   25.4608  -21.1241  -11.2381 C   0  0  2  0  0  0  0  0  0  0  0  0
   26.4198  -21.7933  -10.3804 N   0  0  0  0  0  0  0  0  0  0  0  0
   26.1691  -20.2498  -12.1711 C   0  0  0  0  0  0  0  0  0  0  0  0
   27.0265  -19.4532  -11.7518 O   0  0  0  0  0  0  0  0  0  0  0  0
   28.3552  -21.2410  -14.9474 C   0  0  0  0  0  0  0  0  0  0  0  0
   27.2668  -20.4048  -15.5165 C   0  0  1  0  0  0  0  0  0  0  0  0
   26.2472  -21.3288  -16.1488 C   0  0  0  0  0  0  0  0  0  0  0  0
   26.5743  -19.4495  -14.5575 C   0  0  2  0  0  0  0  0  0  0  0  0
   25.8967  -20.2929  -13.5471 N   0  0  0  0  0  0  0  0  0  0  0  0
   25.6065  -18.5782  -15.2257 C   0  0  0  0  0  0  0  0  0  0  0  0
   24.4138  -19.0514  -15.3012 O   0  0  0  0  0  0  0  0  0  0  0  0
   25.7892  -17.3075  -15.7876 N   0  0  0  0  0  0  0  0  0  0  0  0
   27.0904  -16.6343  -16.0175 C   0  0  0  0  0  0  0  0  0  0  0  0
   26.8671  -15.1739  -15.8726 C   0  0  0  0  0  0  0  0  0  0  0  0
   25.3738  -15.0256  -15.7300 C   0  0  0  0  0  0  0  0  0  0  0  0
   24.8325  -16.3353  -16.2607 C   0  0  1  0  0  0  0  0  0  0  0  0
   24.9474  -16.2263  -17.7685 C   0  0  0  0  0  0  0  0  0  0  0  0
   25.8807  -16.8352  -18.3497 O   0  0  0  0  0  0  0  0  0  0  0  0
   24.0434  -15.4737  -18.4710 O   0  0  0  0  0  0  0  0  0  0  0  0
  2  1  1  1
  2  3  1  0
  4  6  1  0
  4  2  1  0
  4  5  1  1
  6 12  1  0
  6  7  2  0
  9  8  1  1
  9 11  1  0
 10  9  1  0
 11 13  1  0
 11 12  1  1
 13 14  2  0
 13 15  1  0
 15 19  1  0
 15 16  1  0
 16 17  1  0
 18 17  1  0
 19 18  1  0
 19 20  1  6
 21 20  2  0
 22 20  1  0
M  END
$$$$
