WPW.pdb
     RDKit          3D

 36 40  0  0  1  0  0  0  0  0999 V2000
    6.2386  -18.2380   24.7196 N   0  0  0  0  0  0  0  0  0  0  0  0
    6.9150  -16.9873   24.4298 C   0  0  1  0  0  0  0  0  0  0  0  0
    7.6121  -16.5273   25.6852 C   0  0  0  0  0  0  0  0  0  0  0  0
    6.9883  -15.2561   26.1272 C   0  0  0  0  0  0  0  0  0  0  0  0
    5.7589  -15.1376   26.7910 C   0  0  0  0  0  0  0  0  0  0  0  0
    5.5477  -13.8430   27.0685 N   0  0  0  0  0  0  0  0  0  0  0  0
    6.5603  -13.0796   26.6313 C   0  0  0  0  0  0  0  0  0  0  0  0
    6.7922  -11.7123   26.6741 C   0  0  0  0  0  0  0  0  0  0  0  0
    7.9502  -11.2319   26.1119 C   0  0  0  0  0  0  0  0  0  0  0  0
    8.8618  -12.0812   25.5188 C   0  0  0  0  0  0  0  0  0  0  0  0
    8.6011  -13.4358   25.4933 C   0  0  0  0  0  0  0  0  0  0  0  0
    7.4636  -13.9681   26.0398 C   0  0  0  0  0  0  0  0  0  0  0  0
    7.7869  -17.0971   23.2524 C   0  0  0  0  0  0  0  0  0  0  0  0
    8.4054  -18.1783   23.0856 O   0  0  0  0  0  0  0  0  0  0  0  0
    7.9371  -16.0558   22.3408 N   0  0  0  0  0  0  0  0  0  0  0  0
    7.0503  -14.9325   22.1338 C   0  0  0  0  0  0  0  0  0  0  0  0
    7.1818  -14.6556   20.6167 C   0  0  0  0  0  0  0  0  0  0  0  0
    8.6805  -14.7853   20.4702 C   0  0  0  0  0  0  0  0  0  0  0  0
    9.0348  -15.9216   21.4037 C   0  0  1  0  0  0  0  0  0  0  0  0
   10.3397  -15.7171   22.0609 C   0  0  0  0  0  0  0  0  0  0  0  0
   10.7670  -14.5345   22.2023 O   0  0  0  0  0  0  0  0  0  0  0  0
   11.1787  -16.7450   22.5600 N   0  0  0  0  0  0  0  0  0  0  0  0
   12.4576  -16.5074   23.2244 C   0  0  1  0  0  0  0  0  0  0  0  0
   12.3476  -15.5042   24.3006 C   0  0  0  0  0  0  0  0  0  0  0  0
   11.5252  -15.9831   25.4252 C   0  0  0  0  0  0  0  0  0  0  0  0
   11.1311  -17.3050   25.6843 C   0  0  0  0  0  0  0  0  0  0  0  0
   10.3523  -17.3621   26.7685 N   0  0  0  0  0  0  0  0  0  0  0  0
   10.2148  -16.0960   27.2473 C   0  0  0  0  0  0  0  0  0  0  0  0
    9.5290  -15.6248   28.3532 C   0  0  0  0  0  0  0  0  0  0  0  0
    9.5703  -14.2811   28.6335 C   0  0  0  0  0  0  0  0  0  0  0  0
   10.2827  -13.4002   27.8317 C   0  0  0  0  0  0  0  0  0  0  0  0
   10.9577  -13.8837   26.7372 C   0  0  0  0  0  0  0  0  0  0  0  0
   10.9262  -15.2385   26.4380 C   0  0  0  0  0  0  0  0  0  0  0  0
   13.1266  -17.7278   23.6062 C   0  0  0  0  0  0  0  0  0  0  0  0
   14.4218  -17.8532   24.0775 O   0  0  0  0  0  0  0  0  0  0  0  0
   12.4757  -18.8277   23.5013 O   0  0  0  0  0  0  0  0  0  0  0  0
  2  1  1  1
  2  3  1  0
  3  4  1  0
  4  5  2  0
  5  6  1  0
  7  8  2  0
  7  6  1  0
  9  8  1  0
 10  9  2  0
 11 10  1  0
 11 12  2  0
 12  4  1  0
 12  7  1  0
 13  2  1  0
 13 14  2  0
 15 13  1  0
 16 15  1  0
 17 18  1  0
 17 16  1  0
 18 19  1  0
 19 15  1  0
 19 20  1  1
 20 22  1  0
 21 20  2  0
 22 23  1  0
 23 34  1  0
 23 24  1  1
 24 25  1  0
 25 26  2  0
 26 27  1  0
 28 29  2  0
 28 27  1  0
 30 29  1  0
 31 30  2  0
 32 31  1  0
 32 33  2  0
 33 25  1  0
 33 28  1  0
 34 36  2  0
 34 35  1  0
M  END
$$$$
