WPW.pdb
     RDKit          3D

 36 40  0  0  1  0  0  0  0  0999 V2000
    6.6829  -18.2050   25.1758 N   0  0  0  0  0  0  0  0  0  0  0  0
    6.4276  -17.4337   23.9735 C   0  0  1  0  0  0  0  0  0  0  0  0
    5.6215  -16.2183   24.3563 C   0  0  0  0  0  0  0  0  0  0  0  0
    6.4210  -15.4076   25.3069 C   0  0  0  0  0  0  0  0  0  0  0  0
    7.5382  -15.8575   26.0249 C   0  0  0  0  0  0  0  0  0  0  0  0
    8.0228  -14.8348   26.7438 N   0  0  0  0  0  0  0  0  0  0  0  0
    7.2994  -13.7210   26.5554 C   0  0  0  0  0  0  0  0  0  0  0  0
    7.3984  -12.4377   27.0737 C   0  0  0  0  0  0  0  0  0  0  0  0
    6.4702  -11.5045   26.6794 C   0  0  0  0  0  0  0  0  0  0  0  0
    5.4641  -11.8286   25.7925 C   0  0  0  0  0  0  0  0  0  0  0  0
    5.3940  -13.1137   25.2954 C   0  0  0  0  0  0  0  0  0  0  0  0
    6.2936  -14.0824   25.6536 C   0  0  0  0  0  0  0  0  0  0  0  0
    7.6658  -17.1389   23.2397 C   0  0  0  0  0  0  0  0  0  0  0  0
    8.5675  -18.0142   23.2452 O   0  0  0  0  0  0  0  0  0  0  0  0
    7.8552  -15.9417   22.5550 N   0  0  0  0  0  0  0  0  0  0  0  0
    7.0449  -14.7465   22.6312 C   0  0  0  0  0  0  0  0  0  0  0  0
    7.1364  -14.1676   21.1987 C   0  0  0  0  0  0  0  0  0  0  0  0
    8.6148  -14.3579   20.9485 C   0  0  0  0  0  0  0  0  0  0  0  0
    8.9220  -15.6841   21.6080 C   0  0  1  0  0  0  0  0  0  0  0  0
   10.2632  -15.7039   22.2223 C   0  0  0  0  0  0  0  0  0  0  0  0
   10.9878  -14.6711   22.1260 O   0  0  0  0  0  0  0  0  0  0  0  0
   10.8288  -16.7966   22.9263 N   0  0  0  0  0  0  0  0  0  0  0  0
   12.0946  -16.7355   23.6525 C   0  0  1  0  0  0  0  0  0  0  0  0
   12.1131  -15.6464   24.6476 C   0  0  0  0  0  0  0  0  0  0  0  0
   11.6041  -16.0831   25.9593 C   0  0  0  0  0  0  0  0  0  0  0  0
   11.2313  -17.3834   26.3336 C   0  0  0  0  0  0  0  0  0  0  0  0
   10.7738  -17.4010   27.5889 N   0  0  0  0  0  0  0  0  0  0  0  0
   10.8327  -16.1296   28.0695 C   0  0  0  0  0  0  0  0  0  0  0  0
   10.4961  -15.6243   29.3131 C   0  0  0  0  0  0  0  0  0  0  0  0
   10.6769  -14.2844   29.5533 C   0  0  0  0  0  0  0  0  0  0  0  0
   11.1872  -13.4406   28.5765 C   0  0  0  0  0  0  0  0  0  0  0  0
   11.5159  -13.9576   27.3469 C   0  0  0  0  0  0  0  0  0  0  0  0
   11.3389  -15.3092   27.0861 C   0  0  0  0  0  0  0  0  0  0  0  0
   12.5131  -18.0202   24.1595 C   0  0  0  0  0  0  0  0  0  0  0  0
   13.7272  -18.3256   24.7494 O   0  0  0  0  0  0  0  0  0  0  0  0
   11.6935  -19.0014   24.0592 O   0  0  0  0  0  0  0  0  0  0  0  0
  2  1  1  1
  2  3  1  0
  3  4  1  0
  4  5  2  0
  5  6  1  0
  7  8  2  0
  7  6  1  0
  9  8  1  0
 10  9  2  0
 11 10  1  0
 11 12  2  0
 12  4  1  0
 12  7  1  0
 13  2  1  0
 13 14  2  0
 15 13  1  0
 16 15  1  0
 17 18  1  0
 17 16  1  0
 18 19  1  0
 19 15  1  0
 19 20  1  1
 20 22  1  0
 21 20  2  0
 22 23  1  0
 23 34  1  0
 23 24  1  1
 24 25  1  0
 25 26  2  0
 26 27  1  0
 28 29  2  0
 28 27  1  0
 30 29  1  0
 31 30  2  0
 32 31  1  0
 32 33  2  0
 33 25  1  0
 33 28  1  0
 34 36  2  0
 34 35  1  0
M  END
$$$$
