WPW.pdb
     RDKit          3D

 36 40  0  0  1  0  0  0  0  0999 V2000
    6.3454  -18.4787   24.4461 N   0  0  0  0  0  0  0  0  0  0  0  0
    6.8357  -17.1312   24.2234 C   0  0  1  0  0  0  0  0  0  0  0  0
    7.1818  -16.5290   25.5616 C   0  0  0  0  0  0  0  0  0  0  0  0
    6.2664  -15.3891   25.8120 C   0  0  0  0  0  0  0  0  0  0  0  0
    4.9663  -15.4842   26.3286 C   0  0  0  0  0  0  0  0  0  0  0  0
    4.4674  -14.2464   26.4573 N   0  0  0  0  0  0  0  0  0  0  0  0
    5.3520  -13.3207   26.0578 C   0  0  0  0  0  0  0  0  0  0  0  0
    5.2980  -11.9357   25.9937 C   0  0  0  0  0  0  0  0  0  0  0  0
    6.3961  -11.2643   25.5128 C   0  0  0  0  0  0  0  0  0  0  0  0
    7.5251  -11.9434   25.1027 C   0  0  0  0  0  0  0  0  0  0  0  0
    7.5466  -13.3207   25.1798 C   0  0  0  0  0  0  0  0  0  0  0  0
    6.4807  -14.0396   25.6522 C   0  0  0  0  0  0  0  0  0  0  0  0
    7.9268  -17.1018   23.2399 C   0  0  0  0  0  0  0  0  0  0  0  0
    8.7057  -18.0875   23.2057 O   0  0  0  0  0  0  0  0  0  0  0  0
    8.1102  -16.0330   22.3670 N   0  0  0  0  0  0  0  0  0  0  0  0
    7.3294  -14.8186   22.2864 C   0  0  0  0  0  0  0  0  0  0  0  0
    7.3682  -14.4751   20.7777 C   0  0  0  0  0  0  0  0  0  0  0  0
    8.8295  -14.7435   20.5000 C   0  0  0  0  0  0  0  0  0  0  0  0
    9.1383  -15.9574   21.3480 C   0  0  1  0  0  0  0  0  0  0  0  0
   10.5052  -15.9176   21.9018 C   0  0  0  0  0  0  0  0  0  0  0  0
   11.2029  -14.8784   21.7163 O   0  0  0  0  0  0  0  0  0  0  0  0
   11.1240  -16.9585   22.6388 N   0  0  0  0  0  0  0  0  0  0  0  0
   12.3734  -16.8056   23.3799 C   0  0  1  0  0  0  0  0  0  0  0  0
   12.2850  -15.7512   24.4081 C   0  0  0  0  0  0  0  0  0  0  0  0
   11.6677  -16.2394   25.6534 C   0  0  0  0  0  0  0  0  0  0  0  0
   11.3729  -17.5702   25.9883 C   0  0  0  0  0  0  0  0  0  0  0  0
   10.7752  -17.6360   27.1814 N   0  0  0  0  0  0  0  0  0  0  0  0
   10.6621  -16.3672   27.6591 C   0  0  0  0  0  0  0  0  0  0  0  0
   10.1380  -15.9012   28.8522 C   0  0  0  0  0  0  0  0  0  0  0  0
   10.1674  -14.5518   29.1049 C   0  0  0  0  0  0  0  0  0  0  0  0
   10.7099  -13.6599   28.1902 C   0  0  0  0  0  0  0  0  0  0  0  0
   11.2257  -14.1383   27.0102 C   0  0  0  0  0  0  0  0  0  0  0  0
   11.2035  -15.4989   26.7375 C   0  0  0  0  0  0  0  0  0  0  0  0
   12.9030  -18.0625   23.8516 C   0  0  0  0  0  0  0  0  0  0  0  0
   12.2488  -19.2817   23.8804 O   0  0  0  0  0  0  0  0  0  0  0  0
   14.1033  -18.0770   24.3030 O   0  0  0  0  0  0  0  0  0  0  0  0
  2  1  1  1
  2  3  1  0
  3  4  1  0
  4  5  2  0
  5  6  1  0
  7  8  2  0
  7  6  1  0
  9  8  1  0
 10  9  2  0
 11 10  1  0
 11 12  2  0
 12  4  1  0
 12  7  1  0
 13  2  1  0
 13 14  2  0
 15 13  1  0
 16 15  1  0
 17 18  1  0
 17 16  1  0
 18 19  1  0
 19 15  1  0
 19 20  1  1
 20 22  1  0
 21 20  2  0
 22 23  1  0
 23 34  1  0
 23 24  1  1
 24 25  1  0
 25 26  2  0
 26 27  1  0
 28 29  2  0
 28 27  1  0
 30 29  1  0
 31 30  2  0
 32 31  1  0
 32 33  2  0
 33 25  1  0
 33 28  1  0
 34 36  2  0
 34 35  1  0
M  END
$$$$
