WPW.pdb
     RDKit          3D

 36 40  0  0  1  0  0  0  0  0999 V2000
    8.6871  -18.7633   18.4214 N   0  0  0  0  0  0  0  0  0  0  0  0
    7.8646  -18.2255   19.4892 C   0  0  1  0  0  0  0  0  0  0  0  0
    7.3667  -19.3772   20.3255 C   0  0  0  0  0  0  0  0  0  0  0  0
    5.9152  -19.5462   20.0711 C   0  0  0  0  0  0  0  0  0  0  0  0
    5.3499  -20.1642   18.9464 C   0  0  0  0  0  0  0  0  0  0  0  0
    4.0168  -20.1701   19.0885 N   0  0  0  0  0  0  0  0  0  0  0  0
    3.6473  -19.5923   20.2413 C   0  0  0  0  0  0  0  0  0  0  0  0
    2.4078  -19.3562   20.8187 C   0  0  0  0  0  0  0  0  0  0  0  0
    2.3685  -18.7149   22.0331 C   0  0  0  0  0  0  0  0  0  0  0  0
    3.5268  -18.3134   22.6665 C   0  0  0  0  0  0  0  0  0  0  0  0
    4.7432  -18.5637   22.0655 C   0  0  0  0  0  0  0  0  0  0  0  0
    4.8402  -19.2005   20.8567 C   0  0  0  0  0  0  0  0  0  0  0  0
    8.5660  -17.1797   20.2460 C   0  0  0  0  0  0  0  0  0  0  0  0
    9.8050  -17.3120   20.4096 O   0  0  0  0  0  0  0  0  0  0  0  0
    7.9040  -16.0733   20.7709 N   0  0  0  0  0  0  0  0  0  0  0  0
    6.4767  -15.8495   20.8330 C   0  0  0  0  0  0  0  0  0  0  0  0
    6.3538  -14.3156   20.6666 C   0  0  0  0  0  0  0  0  0  0  0  0
    7.4745  -13.8766   21.5807 C   0  0  0  0  0  0  0  0  0  0  0  0
    8.5517  -14.9133   21.3505 C   0  0  1  0  0  0  0  0  0  0  0  0
    9.3023  -15.2206   22.5828 C   0  0  0  0  0  0  0  0  0  0  0  0
   10.2874  -14.4880   22.8896 O   0  0  0  0  0  0  0  0  0  0  0  0
    9.0167  -16.2840   23.4756 N   0  0  0  0  0  0  0  0  0  0  0  0
    9.7653  -16.5466   24.7020 C   0  0  1  0  0  0  0  0  0  0  0  0
    9.9209  -15.3349   25.5292 C   0  0  0  0  0  0  0  0  0  0  0  0
    8.6231  -14.7726   25.9413 C   0  0  0  0  0  0  0  0  0  0  0  0
    7.4060  -15.4589   26.0747 C   0  0  0  0  0  0  0  0  0  0  0  0
    6.4266  -14.6204   26.4253 N   0  0  0  0  0  0  0  0  0  0  0  0
    6.9649  -13.3755   26.5318 C   0  0  0  0  0  0  0  0  0  0  0  0
    6.3793  -12.1722   26.8846 C   0  0  0  0  0  0  0  0  0  0  0  0
    7.1638  -11.0465   26.9404 C   0  0  0  0  0  0  0  0  0  0  0  0
    8.5203  -11.0995   26.6514 C   0  0  0  0  0  0  0  0  0  0  0  0
    9.0864  -12.3016   26.3022 C   0  0  0  0  0  0  0  0  0  0  0  0
    8.3086  -13.4493   26.2396 C   0  0  0  0  0  0  0  0  0  0  0  0
    9.2834  -17.7043   25.4163 C   0  0  0  0  0  0  0  0  0  0  0  0
    8.1758  -18.4727   25.1029 O   0  0  0  0  0  0  0  0  0  0  0  0
    9.9288  -18.0781   26.4595 O   0  0  0  0  0  0  0  0  0  0  0  0
  2  1  1  6
  2  3  1  0
  3  4  1  0
  4  5  2  0
  5  6  1  0
  7  8  2  0
  7  6  1  0
  9  8  1  0
 10  9  2  0
 11 10  1  0
 11 12  2  0
 12  4  1  0
 12  7  1  0
 13  2  1  0
 13 14  2  0
 15 13  1  0
 16 15  1  0
 17 18  1  0
 17 16  1  0
 18 19  1  0
 19 15  1  0
 19 20  1  1
 20 22  1  0
 21 20  2  0
 22 23  1  0
 23 34  1  0
 23 24  1  1
 24 25  1  0
 25 26  2  0
 26 27  1  0
 28 29  2  0
 28 27  1  0
 30 29  1  0
 31 30  2  0
 32 31  1  0
 32 33  2  0
 33 25  1  0
 33 28  1  0
 34 36  2  0
 34 35  1  0
M  END
$$$$
