WPW.pdb
     RDKit          3D

 36 40  0  0  1  0  0  0  0  0999 V2000
    6.3277  -18.1402   24.8392 N   0  0  0  0  0  0  0  0  0  0  0  0
    6.9743  -16.8809   24.5205 C   0  0  1  0  0  0  0  0  0  0  0  0
    7.5631  -16.3195   25.7900 C   0  0  0  0  0  0  0  0  0  0  0  0
    6.7404  -15.1604   26.2141 C   0  0  0  0  0  0  0  0  0  0  0  0
    5.4637  -15.2323   26.7894 C   0  0  0  0  0  0  0  0  0  0  0  0
    5.0567  -13.9883   27.0800 N   0  0  0  0  0  0  0  0  0  0  0  0
    5.9814  -13.0802   26.7348 C   0  0  0  0  0  0  0  0  0  0  0  0
    6.0183  -11.6960   26.8251 C   0  0  0  0  0  0  0  0  0  0  0  0
    7.1345  -11.0441   26.3594 C   0  0  0  0  0  0  0  0  0  0  0  0
    8.1935  -11.7414   25.8150 C   0  0  0  0  0  0  0  0  0  0  0  0
    8.1253  -13.1173   25.7402 C   0  0  0  0  0  0  0  0  0  0  0  0
    7.0376  -13.8174   26.1905 C   0  0  0  0  0  0  0  0  0  0  0  0
    7.9306  -17.0217   23.4140 C   0  0  0  0  0  0  0  0  0  0  0  0
    8.6098  -18.0779   23.3632 O   0  0  0  0  0  0  0  0  0  0  0  0
    8.0946  -16.0356   22.4451 N   0  0  0  0  0  0  0  0  0  0  0  0
    7.2683  -14.8690   22.2281 C   0  0  0  0  0  0  0  0  0  0  0  0
    7.3339  -14.6719   20.6944 C   0  0  0  0  0  0  0  0  0  0  0  0
    8.8117  -14.9037   20.4778 C   0  0  0  0  0  0  0  0  0  0  0  0
    9.1459  -16.0156   21.4473 C   0  0  1  0  0  0  0  0  0  0  0  0
   10.4946  -15.8644   22.0257 C   0  0  0  0  0  0  0  0  0  0  0  0
   11.0332  -14.7195   22.0133 O   0  0  0  0  0  0  0  0  0  0  0  0
   11.2610  -16.9057   22.6071 N   0  0  0  0  0  0  0  0  0  0  0  0
   12.5017  -16.6931   23.3480 C   0  0  1  0  0  0  0  0  0  0  0  0
   12.3603  -15.6507   24.3825 C   0  0  0  0  0  0  0  0  0  0  0  0
   11.5397  -16.1032   25.5193 C   0  0  0  0  0  0  0  0  0  0  0  0
   11.1325  -17.4165   25.8009 C   0  0  0  0  0  0  0  0  0  0  0  0
   10.3600  -17.4483   26.8906 N   0  0  0  0  0  0  0  0  0  0  0  0
   10.2396  -16.1737   27.3508 C   0  0  0  0  0  0  0  0  0  0  0  0
    9.5660  -15.6781   28.4536 C   0  0  0  0  0  0  0  0  0  0  0  0
    9.6240  -14.3309   28.7131 C   0  0  0  0  0  0  0  0  0  0  0  0
   10.3412  -13.4702   27.8937 C   0  0  0  0  0  0  0  0  0  0  0  0
   11.0039  -13.9779   26.8026 C   0  0  0  0  0  0  0  0  0  0  0  0
   10.9554  -15.3366   26.5243 C   0  0  0  0  0  0  0  0  0  0  0  0
   13.0959  -17.9238   23.8119 C   0  0  0  0  0  0  0  0  0  0  0  0
   12.5428  -19.1907   23.7449 O   0  0  0  0  0  0  0  0  0  0  0  0
   14.2569  -17.8636   24.3531 O   0  0  0  0  0  0  0  0  0  0  0  0
  2  1  1  1
  2  3  1  0
  3  4  1  0
  4  5  2  0
  5  6  1  0
  7  8  2  0
  7  6  1  0
  9  8  1  0
 10  9  2  0
 11 10  1  0
 11 12  2  0
 12  4  1  0
 12  7  1  0
 13  2  1  0
 13 14  2  0
 15 13  1  0
 16 15  1  0
 17 18  1  0
 17 16  1  0
 18 19  1  0
 19 15  1  0
 19 20  1  1
 20 22  1  0
 21 20  2  0
 22 23  1  0
 23 34  1  0
 23 24  1  1
 24 25  1  0
 25 26  2  0
 26 27  1  0
 28 29  2  0
 28 27  1  0
 30 29  1  0
 31 30  2  0
 32 31  1  0
 32 33  2  0
 33 25  1  0
 33 28  1  0
 34 36  2  0
 34 35  1  0
M  END
$$$$
