WPW.pdb
     RDKit          3D

 36 40  0  0  1  0  0  0  0  0999 V2000
    5.8445  -18.8067   21.4715 N   0  0  0  0  0  0  0  0  0  0  0  0
    6.8318  -17.7531   21.3270 C   0  0  1  0  0  0  0  0  0  0  0  0
    6.1173  -16.4268   21.3888 C   0  0  0  0  0  0  0  0  0  0  0  0
    6.7915  -15.4889   20.4582 C   0  0  0  0  0  0  0  0  0  0  0  0
    6.9577  -15.6849   19.0797 C   0  0  0  0  0  0  0  0  0  0  0  0
    7.5700  -14.6080   18.5670 N   0  0  0  0  0  0  0  0  0  0  0  0
    7.8284  -13.6965   19.5165 C   0  0  0  0  0  0  0  0  0  0  0  0
    8.4410  -12.4519   19.4821 C   0  0  0  0  0  0  0  0  0  0  0  0
    8.5649  -11.7560   20.6602 C   0  0  0  0  0  0  0  0  0  0  0  0
    8.0951  -12.2755   21.8491 C   0  0  0  0  0  0  0  0  0  0  0  0
    7.4906  -13.5156   21.8489 C   0  0  0  0  0  0  0  0  0  0  0  0
    7.3398  -14.2513   20.7034 C   0  0  0  0  0  0  0  0  0  0  0  0
    7.9324  -17.8993   22.2892 C   0  0  0  0  0  0  0  0  0  0  0  0
    7.6346  -18.2037   23.4716 O   0  0  0  0  0  0  0  0  0  0  0  0
    9.2638  -17.7138   21.9272 N   0  0  0  0  0  0  0  0  0  0  0  0
    9.7822  -17.3838   20.6183 C   0  0  0  0  0  0  0  0  0  0  0  0
   11.1454  -18.1159   20.5852 C   0  0  0  0  0  0  0  0  0  0  0  0
   11.6429  -17.7762   21.9714 C   0  0  0  0  0  0  0  0  0  0  0  0
   10.3954  -17.8372   22.8247 C   0  0  1  0  0  0  0  0  0  0  0  0
   10.4023  -16.8226   23.8958 C   0  0  0  0  0  0  0  0  0  0  0  0
   10.5913  -15.6118   23.5808 O   0  0  0  0  0  0  0  0  0  0  0  0
   10.2129  -17.0835   25.2762 N   0  0  0  0  0  0  0  0  0  0  0  0
   10.6753  -16.2037   26.3465 C   0  0  1  0  0  0  0  0  0  0  0  0
   10.0165  -14.8842   26.3057 C   0  0  0  0  0  0  0  0  0  0  0  0
    8.5685  -14.9775   26.5602 C   0  0  0  0  0  0  0  0  0  0  0  0
    7.7868  -16.1428   26.5915 C   0  0  0  0  0  0  0  0  0  0  0  0
    6.5025  -15.8448   26.8078 N   0  0  0  0  0  0  0  0  0  0  0  0
    6.4045  -14.4928   26.9242 C   0  0  0  0  0  0  0  0  0  0  0  0
    5.3036  -13.6911   27.1702 C   0  0  0  0  0  0  0  0  0  0  0  0
    5.4830  -12.3330   27.2661 C   0  0  0  0  0  0  0  0  0  0  0  0
    6.7394  -11.7610   27.1216 C   0  0  0  0  0  0  0  0  0  0  0  0
    7.8220  -12.5706   26.8770 C   0  0  0  0  0  0  0  0  0  0  0  0
    7.6593  -13.9451   26.7759 C   0  0  0  0  0  0  0  0  0  0  0  0
   10.6641  -16.8414   27.6411 C   0  0  0  0  0  0  0  0  0  0  0  0
   11.1361  -16.3152   28.8309 O   0  0  0  0  0  0  0  0  0  0  0  0
   10.1757  -18.0243   27.7237 O   0  0  0  0  0  0  0  0  0  0  0  0
  2  1  1  1
  2  3  1  0
  3  4  1  0
  4  5  2  0
  5  6  1  0
  7  8  2  0
  7  6  1  0
  9  8  1  0
 10  9  2  0
 11 10  1  0
 11 12  2  0
 12  4  1  0
 12  7  1  0
 13  2  1  0
 13 14  2  0
 15 13  1  0
 16 15  1  0
 17 18  1  0
 17 16  1  0
 18 19  1  0
 19 15  1  0
 19 20  1  1
 20 22  1  0
 21 20  2  0
 22 23  1  0
 23 34  1  0
 23 24  1  1
 24 25  1  0
 25 26  2  0
 26 27  1  0
 28 29  2  0
 28 27  1  0
 30 29  1  0
 31 30  2  0
 32 31  1  0
 32 33  2  0
 33 25  1  0
 33 28  1  0
 34 36  2  0
 34 35  1  0
M  END
$$$$
