WPW.pdb
     RDKit          3D

 36 40  0  0  1  0  0  0  0  0999 V2000
    6.0495  -18.3762   24.4044 N   0  0  0  0  0  0  0  0  0  0  0  0
    6.7279  -17.1007   24.2683 C   0  0  1  0  0  0  0  0  0  0  0  0
    7.2729  -16.7109   25.6191 C   0  0  0  0  0  0  0  0  0  0  0  0
    6.6055  -15.4577   26.0484 C   0  0  0  0  0  0  0  0  0  0  0  0
    5.2862  -15.3525   26.5114 C   0  0  0  0  0  0  0  0  0  0  0  0
    5.0531  -14.0757   26.8475 N   0  0  0  0  0  0  0  0  0  0  0  0
    6.1356  -13.3116   26.6384 C   0  0  0  0  0  0  0  0  0  0  0  0
    6.3792  -11.9578   26.8206 C   0  0  0  0  0  0  0  0  0  0  0  0
    7.6210  -11.4711   26.4909 C   0  0  0  0  0  0  0  0  0  0  0  0
    8.6036  -12.3010   25.9911 C   0  0  0  0  0  0  0  0  0  0  0  0
    8.3291  -13.6425   25.8223 C   0  0  0  0  0  0  0  0  0  0  0  0
    7.1092  -14.1805   26.1360 C   0  0  0  0  0  0  0  0  0  0  0  0
    7.7263  -17.1245   23.1908 C   0  0  0  0  0  0  0  0  0  0  0  0
    8.3995  -18.1756   23.0448 O   0  0  0  0  0  0  0  0  0  0  0  0
    7.9355  -16.0356   22.3490 N   0  0  0  0  0  0  0  0  0  0  0  0
    7.1264  -14.8425   22.2359 C   0  0  0  0  0  0  0  0  0  0  0  0
    7.2548  -14.4713   20.7388 C   0  0  0  0  0  0  0  0  0  0  0  0
    8.7384  -14.6933   20.5548 C   0  0  0  0  0  0  0  0  0  0  0  0
    9.0261  -15.9129   21.4021 C   0  0  1  0  0  0  0  0  0  0  0  0
   10.3516  -15.8443   22.0462 C   0  0  0  0  0  0  0  0  0  0  0  0
   10.9599  -14.7350   22.0616 O   0  0  0  0  0  0  0  0  0  0  0  0
   11.0226  -16.9298   22.6635 N   0  0  0  0  0  0  0  0  0  0  0  0
   12.3233  -16.8218   23.3191 C   0  0  1  0  0  0  0  0  0  0  0  0
   12.3771  -15.6916   24.2659 C   0  0  0  0  0  0  0  0  0  0  0  0
   11.6393  -15.9726   25.5097 C   0  0  0  0  0  0  0  0  0  0  0  0
   11.1513  -17.2151   25.9434 C   0  0  0  0  0  0  0  0  0  0  0  0
   10.4926  -17.0870   27.0987 N   0  0  0  0  0  0  0  0  0  0  0  0
   10.5290  -15.7741   27.4534 C   0  0  0  0  0  0  0  0  0  0  0  0
   10.0149  -15.1308   28.5657 C   0  0  0  0  0  0  0  0  0  0  0  0
   10.2142  -13.7785   28.6983 C   0  0  0  0  0  0  0  0  0  0  0  0
   10.9164  -13.0574   27.7425 C   0  0  0  0  0  0  0  0  0  0  0  0
   11.4198  -13.7107   26.6438 C   0  0  0  0  0  0  0  0  0  0  0  0
   11.2271  -15.0767   26.4928 C   0  0  0  0  0  0  0  0  0  0  0  0
   12.7867  -18.0786   23.8563 C   0  0  0  0  0  0  0  0  0  0  0  0
   14.0500  -18.3569   24.3483 O   0  0  0  0  0  0  0  0  0  0  0  0
   11.9615  -19.0597   23.8865 O   0  0  0  0  0  0  0  0  0  0  0  0
  2  1  1  1
  2  3  1  0
  3  4  1  0
  4  5  2  0
  5  6  1  0
  7  8  2  0
  7  6  1  0
  9  8  1  0
 10  9  2  0
 11 10  1  0
 11 12  2  0
 12  4  1  0
 12  7  1  0
 13  2  1  0
 13 14  2  0
 15 13  1  0
 16 15  1  0
 17 18  1  0
 17 16  1  0
 18 19  1  0
 19 15  1  0
 19 20  1  1
 20 22  1  0
 21 20  2  0
 22 23  1  0
 23 34  1  0
 23 24  1  1
 24 25  1  0
 25 26  2  0
 26 27  1  0
 28 29  2  0
 28 27  1  0
 30 29  1  0
 31 30  2  0
 32 31  1  0
 32 33  2  0
 33 25  1  0
 33 28  1  0
 34 36  2  0
 34 35  1  0
M  END
$$$$
