WPW.pdb
     RDKit          3D

 36 40  0  0  1  0  0  0  0  0999 V2000
    6.3079  -19.8098   21.0651 N   0  0  0  0  0  0  0  0  0  0  0  0
    6.0835  -18.4130   21.3880 C   0  0  1  0  0  0  0  0  0  0  0  0
    5.2572  -18.3479   22.6476 C   0  0  0  0  0  0  0  0  0  0  0  0
    4.0202  -19.1388   22.4365 C   0  0  0  0  0  0  0  0  0  0  0  0
    3.5616  -20.1736   23.2642 C   0  0  0  0  0  0  0  0  0  0  0  0
    2.3927  -20.6189   22.7815 N   0  0  0  0  0  0  0  0  0  0  0  0
    2.0345  -19.9477   21.6768 C   0  0  0  0  0  0  0  0  0  0  0  0
    0.9386  -20.0466   20.8314 C   0  0  0  0  0  0  0  0  0  0  0  0
    0.8723  -19.1993   19.7518 C   0  0  0  0  0  0  0  0  0  0  0  0
    1.8658  -18.2730   19.5091 C   0  0  0  0  0  0  0  0  0  0  0  0
    2.9420  -18.2001   20.3693 C   0  0  0  0  0  0  0  0  0  0  0  0
    3.0576  -19.0193   21.4610 C   0  0  0  0  0  0  0  0  0  0  0  0
    7.3411  -17.6554   21.4428 C   0  0  0  0  0  0  0  0  0  0  0  0
    8.4131  -18.3101   21.4817 O   0  0  0  0  0  0  0  0  0  0  0  0
    7.3690  -16.2636   21.4510 N   0  0  0  0  0  0  0  0  0  0  0  0
    6.2916  -15.3598   21.1147 C   0  0  0  0  0  0  0  0  0  0  0  0
    7.0280  -14.1557   20.4795 C   0  0  0  0  0  0  0  0  0  0  0  0
    8.1747  -14.0238   21.4553 C   0  0  0  0  0  0  0  0  0  0  0  0
    8.5226  -15.4562   21.7951 C   0  0  1  0  0  0  0  0  0  0  0  0
    8.9422  -15.6095   23.2011 C   0  0  0  0  0  0  0  0  0  0  0  0
    8.0783  -15.9642   24.0549 O   0  0  0  0  0  0  0  0  0  0  0  0
   10.2525  -15.3916   23.6963 N   0  0  0  0  0  0  0  0  0  0  0  0
   10.6457  -15.5942   25.0883 C   0  0  1  0  0  0  0  0  0  0  0  0
   10.2305  -14.4729   25.9526 C   0  0  0  0  0  0  0  0  0  0  0  0
    8.7661  -14.3894   26.0900 C   0  0  0  0  0  0  0  0  0  0  0  0
    7.8246  -15.3686   25.7372 C   0  0  0  0  0  0  0  0  0  0  0  0
    6.5819  -14.9318   25.9612 N   0  0  0  0  0  0  0  0  0  0  0  0
    6.6699  -13.6698   26.4618 C   0  0  0  0  0  0  0  0  0  0  0  0
    5.6779  -12.7960   26.8712 C   0  0  0  0  0  0  0  0  0  0  0  0
    6.0419  -11.5690   27.3691 C   0  0  0  0  0  0  0  0  0  0  0  0
    7.3761  -11.1987   27.4661 C   0  0  0  0  0  0  0  0  0  0  0  0
    8.3488  -12.0773   27.0549 C   0  0  0  0  0  0  0  0  0  0  0  0
    7.9993  -13.3211   26.5481 C   0  0  0  0  0  0  0  0  0  0  0  0
   10.2904  -16.9011   25.5870 C   0  0  0  0  0  0  0  0  0  0  0  0
   11.1378  -17.9803   25.7677 O   0  0  0  0  0  0  0  0  0  0  0  0
    9.0642  -17.1127   25.8971 O   0  0  0  0  0  0  0  0  0  0  0  0
  2  1  1  1
  2  3  1  0
  3  4  1  0
  4  5  2  0
  5  6  1  0
  7  8  2  0
  7  6  1  0
  9  8  1  0
 10  9  2  0
 11 10  1  0
 11 12  2  0
 12  4  1  0
 12  7  1  0
 13  2  1  0
 13 14  2  0
 15 13  1  0
 16 15  1  0
 17 18  1  0
 17 16  1  0
 18 19  1  0
 19 15  1  0
 19 20  1  1
 20 22  1  0
 21 20  2  0
 22 23  1  0
 23 34  1  0
 23 24  1  1
 24 25  1  0
 25 26  2  0
 26 27  1  0
 28 29  2  0
 28 27  1  0
 30 29  1  0
 31 30  2  0
 32 31  1  0
 32 33  2  0
 33 25  1  0
 33 28  1  0
 34 36  2  0
 34 35  1  0
M  END
$$$$
