WPW.pdb
     RDKit          3D

 36 40  0  0  1  0  0  0  0  0999 V2000
    6.0332  -18.4024   23.9450 N   0  0  0  0  0  0  0  0  0  0  0  0
    6.5901  -17.0639   24.0067 C   0  0  1  0  0  0  0  0  0  0  0  0
    6.8186  -16.7155   25.4558 C   0  0  0  0  0  0  0  0  0  0  0  0
    6.0132  -15.5127   25.7799 C   0  0  0  0  0  0  0  0  0  0  0  0
    4.6542  -15.5089   26.1252 C   0  0  0  0  0  0  0  0  0  0  0  0
    4.2860  -14.2476   26.3924 N   0  0  0  0  0  0  0  0  0  0  0  0
    5.3146  -13.3990   26.2474 C   0  0  0  0  0  0  0  0  0  0  0  0
    5.4266  -12.0242   26.3990 C   0  0  0  0  0  0  0  0  0  0  0  0
    6.6472  -11.4414   26.1578 C   0  0  0  0  0  0  0  0  0  0  0  0
    7.7361  -12.1973   25.7744 C   0  0  0  0  0  0  0  0  0  0  0  0
    7.5912  -13.5621   25.6332 C   0  0  0  0  0  0  0  0  0  0  0  0
    6.3981  -14.1945   25.8622 C   0  0  0  0  0  0  0  0  0  0  0  0
    7.7763  -16.9250   23.1510 C   0  0  0  0  0  0  0  0  0  0  0  0
    8.5900  -17.8825   23.1250 O   0  0  0  0  0  0  0  0  0  0  0  0
    8.0107  -15.7850   22.3872 N   0  0  0  0  0  0  0  0  0  0  0  0
    7.0930  -14.6997   22.1215 C   0  0  0  0  0  0  0  0  0  0  0  0
    7.4797  -14.2545   20.6905 C   0  0  0  0  0  0  0  0  0  0  0  0
    8.9852  -14.2802   20.8214 C   0  0  0  0  0  0  0  0  0  0  0  0
    9.2485  -15.4875   21.6939 C   0  0  1  0  0  0  0  0  0  0  0  0
   10.3903  -15.2790   22.6046 C   0  0  0  0  0  0  0  0  0  0  0  0
   10.3116  -14.3622   23.4732 O   0  0  0  0  0  0  0  0  0  0  0  0
   11.5946  -16.0266   22.5973 N   0  0  0  0  0  0  0  0  0  0  0  0
   12.2192  -16.5842   23.7941 C   0  0  1  0  0  0  0  0  0  0  0  0
   11.2252  -17.1338   24.7358 C   0  0  0  0  0  0  0  0  0  0  0  0
   11.4954  -16.7316   26.1270 C   0  0  0  0  0  0  0  0  0  0  0  0
   11.8870  -17.5621   27.1886 C   0  0  0  0  0  0  0  0  0  0  0  0
   11.9993  -16.8611   28.3205 N   0  0  0  0  0  0  0  0  0  0  0  0
   11.6895  -15.5666   28.0388 C   0  0  0  0  0  0  0  0  0  0  0  0
   11.6736  -14.4499   28.8562 C   0  0  0  0  0  0  0  0  0  0  0  0
   11.3426  -13.2347   28.3088 C   0  0  0  0  0  0  0  0  0  0  0  0
   11.0280  -13.1136   26.9624 C   0  0  0  0  0  0  0  0  0  0  0  0
   11.0479  -14.2317   26.1646 C   0  0  0  0  0  0  0  0  0  0  0  0
   11.3789  -15.4682   26.7009 C   0  0  0  0  0  0  0  0  0  0  0  0
   13.3166  -17.4716   23.4926 C   0  0  0  0  0  0  0  0  0  0  0  0
   14.6098  -17.3893   23.9787 O   0  0  0  0  0  0  0  0  0  0  0  0
   13.0981  -18.4446   22.6862 O   0  0  0  0  0  0  0  0  0  0  0  0
  2  1  1  1
  2  3  1  0
  3  4  1  0
  4  5  2  0
  5  6  1  0
  7  8  2  0
  7  6  1  0
  9  8  1  0
 10  9  2  0
 11 10  1  0
 11 12  2  0
 12  4  1  0
 12  7  1  0
 13  2  1  0
 13 14  2  0
 15 13  1  0
 16 15  1  0
 17 18  1  0
 17 16  1  0
 18 19  1  0
 19 15  1  0
 19 20  1  1
 20 22  1  0
 21 20  2  0
 22 23  1  0
 23 34  1  0
 23 24  1  6
 24 25  1  0
 25 26  2  0
 26 27  1  0
 28 29  2  0
 28 27  1  0
 30 29  1  0
 31 30  2  0
 32 31  1  0
 32 33  2  0
 33 25  1  0
 33 28  1  0
 34 36  2  0
 34 35  1  0
M  END
$$$$
