WPW.pdb
     RDKit          3D

 36 40  0  0  1  0  0  0  0  0999 V2000
    6.4702  -18.2912   24.8150 N   0  0  0  0  0  0  0  0  0  0  0  0
    6.9062  -16.9448   24.4941 C   0  0  1  0  0  0  0  0  0  0  0  0
    7.2034  -16.2258   25.7857 C   0  0  0  0  0  0  0  0  0  0  0  0
    6.2044  -15.1430   25.9585 C   0  0  0  0  0  0  0  0  0  0  0  0
    4.9108  -15.3006   26.4762 C   0  0  0  0  0  0  0  0  0  0  0  0
    4.3210  -14.0975   26.5224 N   0  0  0  0  0  0  0  0  0  0  0  0
    5.1381  -13.1365   26.0662 C   0  0  0  0  0  0  0  0  0  0  0  0
    4.9826  -11.7664   25.9117 C   0  0  0  0  0  0  0  0  0  0  0  0
    6.0319  -11.0480   25.3915 C   0  0  0  0  0  0  0  0  0  0  0  0
    7.2111  -11.6667   25.0300 C   0  0  0  0  0  0  0  0  0  0  0  0
    7.3335  -13.0308   25.1967 C   0  0  0  0  0  0  0  0  0  0  0  0
    6.3199  -13.7946   25.7117 C   0  0  0  0  0  0  0  0  0  0  0  0
    8.0116  -16.9439   23.5264 C   0  0  0  0  0  0  0  0  0  0  0  0
    8.8200  -17.9053   23.5661 O   0  0  0  0  0  0  0  0  0  0  0  0
    8.1769  -15.9273   22.5898 N   0  0  0  0  0  0  0  0  0  0  0  0
    7.3765  -14.7327   22.4371 C   0  0  0  0  0  0  0  0  0  0  0  0
    7.4084  -14.4809   20.9103 C   0  0  0  0  0  0  0  0  0  0  0  0
    8.8735  -14.7422   20.6466 C   0  0  0  0  0  0  0  0  0  0  0  0
    9.2027  -15.8973   21.5661 C   0  0  1  0  0  0  0  0  0  0  0  0
   10.5693  -15.8020   22.1139 C   0  0  0  0  0  0  0  0  0  0  0  0
   11.1416  -14.6735   22.1188 O   0  0  0  0  0  0  0  0  0  0  0  0
   11.3181  -16.8810   22.6472 N   0  0  0  0  0  0  0  0  0  0  0  0
   12.6372  -16.7389   23.2581 C   0  0  1  0  0  0  0  0  0  0  0  0
   12.6540  -15.7064   24.3119 C   0  0  0  0  0  0  0  0  0  0  0  0
   12.1139  -16.2059   25.5883 C   0  0  0  0  0  0  0  0  0  0  0  0
   11.8517  -17.5409   25.9333 C   0  0  0  0  0  0  0  0  0  0  0  0
   11.3241  -17.6176   27.1584 N   0  0  0  0  0  0  0  0  0  0  0  0
   11.2263  -16.3519   27.6477 C   0  0  0  0  0  0  0  0  0  0  0  0
   10.7668  -15.8962   28.8710 C   0  0  0  0  0  0  0  0  0  0  0  0
   10.7975  -14.5475   29.1279 C   0  0  0  0  0  0  0  0  0  0  0  0
   11.2781  -13.6465   28.1878 C   0  0  0  0  0  0  0  0  0  0  0  0
   11.7300  -14.1149   26.9780 C   0  0  0  0  0  0  0  0  0  0  0  0
   11.7054  -15.4745   26.7006 C   0  0  0  0  0  0  0  0  0  0  0  0
   13.2148  -18.0033   23.6461 C   0  0  0  0  0  0  0  0  0  0  0  0
   14.5288  -18.2399   24.0105 O   0  0  0  0  0  0  0  0  0  0  0  0
   12.4520  -19.0341   23.6566 O   0  0  0  0  0  0  0  0  0  0  0  0
  2  1  1  1
  2  3  1  0
  3  4  1  0
  4  5  2  0
  5  6  1  0
  7  8  2  0
  7  6  1  0
  9  8  1  0
 10  9  2  0
 11 10  1  0
 11 12  2  0
 12  4  1  0
 12  7  1  0
 13  2  1  0
 13 14  2  0
 15 13  1  0
 16 15  1  0
 17 18  1  0
 17 16  1  0
 18 19  1  0
 19 15  1  0
 19 20  1  1
 20 22  1  0
 21 20  2  0
 22 23  1  0
 23 34  1  0
 23 24  1  1
 24 25  1  0
 25 26  2  0
 26 27  1  0
 28 29  2  0
 28 27  1  0
 30 29  1  0
 31 30  2  0
 32 31  1  0
 32 33  2  0
 33 25  1  0
 33 28  1  0
 34 36  2  0
 34 35  1  0
M  END
$$$$
