WPW.pdb
     RDKit          3D

 36 40  0  0  1  0  0  0  0  0999 V2000
    6.1867  -17.6368   24.7862 N   0  0  0  0  0  0  0  0  0  0  0  0
    6.9221  -16.4476   24.3981 C   0  0  1  0  0  0  0  0  0  0  0  0
    7.4071  -15.7641   25.6515 C   0  0  0  0  0  0  0  0  0  0  0  0
    6.4607  -14.6715   25.9842 C   0  0  0  0  0  0  0  0  0  0  0  0
    5.1357  -14.8407   26.4107 C   0  0  0  0  0  0  0  0  0  0  0  0
    4.6102  -13.6323   26.6582 N   0  0  0  0  0  0  0  0  0  0  0  0
    5.5004  -12.6567   26.4237 C   0  0  0  0  0  0  0  0  0  0  0  0
    5.4274  -11.2746   26.5232 C   0  0  0  0  0  0  0  0  0  0  0  0
    6.5393  -10.5397   26.1898 C   0  0  0  0  0  0  0  0  0  0  0  0
    7.7003  -11.1535   25.7662 C   0  0  0  0  0  0  0  0  0  0  0  0
    7.7400  -12.5298   25.6786 C   0  0  0  0  0  0  0  0  0  0  0  0
    6.6615  -13.3106   25.9999 C   0  0  0  0  0  0  0  0  0  0  0  0
    7.9765  -16.7511   23.4210 C   0  0  0  0  0  0  0  0  0  0  0  0
    8.6156  -17.8229   23.5692 O   0  0  0  0  0  0  0  0  0  0  0  0
    8.2735  -15.8987   22.3612 N   0  0  0  0  0  0  0  0  0  0  0  0
    7.5677  -14.6977   21.9734 C   0  0  0  0  0  0  0  0  0  0  0  0
    7.7206  -14.6818   20.4333 C   0  0  0  0  0  0  0  0  0  0  0  0
    9.1793  -15.0622   20.3251 C   0  0  0  0  0  0  0  0  0  0  0  0
    9.3664  -16.0818   21.4268 C   0  0  1  0  0  0  0  0  0  0  0  0
   10.6957  -15.9821   22.0589 C   0  0  0  0  0  0  0  0  0  0  0  0
   11.2253  -14.8390   22.1764 O   0  0  0  0  0  0  0  0  0  0  0  0
   11.4522  -17.0720   22.5581 N   0  0  0  0  0  0  0  0  0  0  0  0
   12.7753  -16.9412   23.1629 C   0  0  1  0  0  0  0  0  0  0  0  0
   12.8101  -15.8971   24.2047 C   0  0  0  0  0  0  0  0  0  0  0  0
   12.0778  -16.2981   25.4185 C   0  0  0  0  0  0  0  0  0  0  0  0
   11.7305  -17.6013   25.8071 C   0  0  0  0  0  0  0  0  0  0  0  0
   11.0300  -17.5844   26.9447 N   0  0  0  0  0  0  0  0  0  0  0  0
   10.8991  -16.2867   27.3317 C   0  0  0  0  0  0  0  0  0  0  0  0
   10.2815  -15.7400   28.4431 C   0  0  0  0  0  0  0  0  0  0  0  0
   10.3136  -14.3778   28.6141 C   0  0  0  0  0  0  0  0  0  0  0  0
   10.9501  -13.5522   27.6977 C   0  0  0  0  0  0  0  0  0  0  0  0
   11.5579  -14.1104   26.5994 C   0  0  0  0  0  0  0  0  0  0  0  0
   11.5345  -15.4850   26.4098 C   0  0  0  0  0  0  0  0  0  0  0  0
   13.3369  -18.2089   23.5633 C   0  0  0  0  0  0  0  0  0  0  0  0
   12.7113  -19.4430   23.5290 O   0  0  0  0  0  0  0  0  0  0  0  0
   14.5399  -18.2196   24.0074 O   0  0  0  0  0  0  0  0  0  0  0  0
  2  1  1  1
  2  3  1  0
  3  4  1  0
  4  5  2  0
  5  6  1  0
  7  8  2  0
  7  6  1  0
  9  8  1  0
 10  9  2  0
 11 10  1  0
 11 12  2  0
 12  4  1  0
 12  7  1  0
 13  2  1  0
 13 14  2  0
 15 13  1  0
 16 15  1  0
 17 18  1  0
 17 16  1  0
 18 19  1  0
 19 15  1  0
 19 20  1  1
 20 22  1  0
 21 20  2  0
 22 23  1  0
 23 34  1  0
 23 24  1  1
 24 25  1  0
 25 26  2  0
 26 27  1  0
 28 29  2  0
 28 27  1  0
 30 29  1  0
 31 30  2  0
 32 31  1  0
 32 33  2  0
 33 25  1  0
 33 28  1  0
 34 36  2  0
 34 35  1  0
M  END
$$$$
