WPW.pdb
     RDKit          3D

 36 40  0  0  1  0  0  0  0  0999 V2000
    6.2414  -18.9805   22.6110 N   0  0  0  0  0  0  0  0  0  0  0  0
    7.0262  -17.7707   22.7727 C   0  0  1  0  0  0  0  0  0  0  0  0
    6.3291  -16.8881   23.7769 C   0  0  0  0  0  0  0  0  0  0  0  0
    6.7971  -15.4945   23.5788 C   0  0  0  0  0  0  0  0  0  0  0  0
    7.1679  -14.9244   22.3525 C   0  0  0  0  0  0  0  0  0  0  0  0
    7.4890  -13.6393   22.5599 N   0  0  0  0  0  0  0  0  0  0  0  0
    7.3584  -13.3072   23.8529 C   0  0  0  0  0  0  0  0  0  0  0  0
    7.5766  -12.1249   24.5458 C   0  0  0  0  0  0  0  0  0  0  0  0
    7.3562  -12.1166   25.9019 C   0  0  0  0  0  0  0  0  0  0  0  0
    6.9297  -13.2502   26.5630 C   0  0  0  0  0  0  0  0  0  0  0  0
    6.7218  -14.4095   25.8446 C   0  0  0  0  0  0  0  0  0  0  0  0
    6.9247  -14.4732   24.4915 C   0  0  0  0  0  0  0  0  0  0  0  0
    8.4295  -18.0675   23.0908 C   0  0  0  0  0  0  0  0  0  0  0  0
    8.6564  -18.8357   24.0592 O   0  0  0  0  0  0  0  0  0  0  0  0
    9.4856  -17.5304   22.3599 N   0  0  0  0  0  0  0  0  0  0  0  0
    9.4063  -16.7172   21.1668 C   0  0  0  0  0  0  0  0  0  0  0  0
   10.6699  -17.1311   20.3746 C   0  0  0  0  0  0  0  0  0  0  0  0
   11.6743  -17.1527   21.5038 C   0  0  0  0  0  0  0  0  0  0  0  0
   10.8898  -17.7111   22.6705 C   0  0  1  0  0  0  0  0  0  0  0  0
   11.2860  -17.0988   23.9529 C   0  0  0  0  0  0  0  0  0  0  0  0
   11.3618  -15.8377   24.0231 O   0  0  0  0  0  0  0  0  0  0  0  0
   11.5967  -17.8074   25.1407 N   0  0  0  0  0  0  0  0  0  0  0  0
   12.5565  -17.3471   26.1410 C   0  0  1  0  0  0  0  0  0  0  0  0
   12.1849  -16.0361   26.7067 C   0  0  0  0  0  0  0  0  0  0  0  0
   10.7780  -15.9969   27.1418 C   0  0  0  0  0  0  0  0  0  0  0  0
    9.8502  -17.0495   27.1064 C   0  0  0  0  0  0  0  0  0  0  0  0
    8.6544  -16.6403   27.5399 N   0  0  0  0  0  0  0  0  0  0  0  0
    8.7608  -15.3246   27.8690 C   0  0  0  0  0  0  0  0  0  0  0  0
    7.8192  -14.4492   28.3814 C   0  0  0  0  0  0  0  0  0  0  0  0
    8.1967  -13.1571   28.6532 C   0  0  0  0  0  0  0  0  0  0  0  0
    9.4950  -12.7232   28.4236 C   0  0  0  0  0  0  0  0  0  0  0  0
   10.4176  -13.6043   27.9141 C   0  0  0  0  0  0  0  0  0  0  0  0
   10.0536  -14.9136   27.6324 C   0  0  0  0  0  0  0  0  0  0  0  0
   12.8723  -18.3575   27.1219 C   0  0  0  0  0  0  0  0  0  0  0  0
   12.2792  -19.6008   27.2550 O   0  0  0  0  0  0  0  0  0  0  0  0
   13.7927  -18.0981   27.9764 O   0  0  0  0  0  0  0  0  0  0  0  0
  2  1  1  1
  2  3  1  0
  3  4  1  0
  4  5  2  0
  5  6  1  0
  7  8  2  0
  7  6  1  0
  9  8  1  0
 10  9  2  0
 11 10  1  0
 11 12  2  0
 12  4  1  0
 12  7  1  0
 13  2  1  0
 13 14  2  0
 15 13  1  0
 16 15  1  0
 17 18  1  0
 17 16  1  0
 18 19  1  0
 19 15  1  0
 19 20  1  1
 20 22  1  0
 21 20  2  0
 22 23  1  0
 23 34  1  0
 23 24  1  1
 24 25  1  0
 25 26  2  0
 26 27  1  0
 28 29  2  0
 28 27  1  0
 30 29  1  0
 31 30  2  0
 32 31  1  0
 32 33  2  0
 33 25  1  0
 33 28  1  0
 34 36  2  0
 34 35  1  0
M  END
$$$$
