HDS.pdb
     RDKit          3D

 25 25  0  0  1  0  0  0  0  0999 V2000
    9.0048  -17.2035   18.9175 N   0  0  0  0  0  0  0  0  0  0  0  0
    9.7485  -16.3085   19.7479 C   0  0  1  0  0  0  0  0  0  0  0  0
    8.8079  -15.3533   20.4480 C   0  0  0  0  0  0  0  0  0  0  0  0
    8.2168  -14.4691   19.3980 C   0  0  0  0  0  0  0  0  0  0  0  0
    8.4349  -14.4772   18.0363 C   0  0  0  0  0  0  0  0  0  0  0  0
    7.7076  -13.5218   17.4737 N   0  0  0  0  0  0  0  0  0  0  0  0
    7.0141  -12.8815   18.4254 C   0  0  0  0  0  0  0  0  0  0  0  0
    7.3244  -13.4574   19.5909 N   0  0  0  0  0  0  0  0  0  0  0  0
   10.6078  -17.0425   20.7069 C   0  0  0  0  0  0  0  0  0  0  0  0
   10.0486  -17.8312   21.5104 O   0  0  0  0  0  0  0  0  0  0  0  0
   12.0081  -16.9048   20.7660 N   0  0  0  0  0  0  0  0  0  0  0  0
   12.8459  -17.5055   21.7663 C   0  0  1  0  0  0  0  0  0  0  0  0
   14.2995  -17.3806   21.4285 C   0  0  0  0  0  0  0  0  0  0  0  0
   14.6894  -18.0751   20.1812 C   0  0  0  0  0  0  0  0  0  0  0  0
   14.2987  -19.2203   19.8512 O   0  0  0  0  0  0  0  0  0  0  0  0
   12.6414  -16.9087   23.1116 C   0  0  0  0  0  0  0  0  0  0  0  0
   13.3051  -15.8760   23.3871 O   0  0  0  0  0  0  0  0  0  0  0  0
   15.5467  -17.4150   19.3151 O   0  0  0  0  0  0  0  0  0  0  0  0
    9.1731  -17.0573   25.0243 O   0  0  0  0  0  0  0  0  0  0  0  0
   10.1627  -16.1757   25.4523 C   0  0  0  0  0  0  0  0  0  0  0  0
   11.5265  -16.8251   25.3706 C   0  0  2  0  0  0  0  0  0  0  0  0
   11.7493  -17.4419   24.0774 N   0  0  0  0  0  0  0  0  0  0  0  0
   11.6052  -17.8602   26.4152 C   0  0  0  0  0  0  0  0  0  0  0  0
   11.8182  -19.1794   26.0881 O   0  0  0  0  0  0  0  0  0  0  0  0
   11.4762  -17.5313   27.6146 O   0  0  0  0  0  0  0  0  0  0  0  0
  2  1  1  1
  3  2  1  0
  4  3  1  0
  5  4  2  0
  6  7  1  0
  6  5  1  0
  7  8  2  0
  8  4  1  0
  9 10  2  0
  9  2  1  0
 11  9  1  0
 12 16  1  0
 12 11  1  0
 12 13  1  6
 14 13  1  0
 14 15  2  0
 16 22  1  0
 17 16  2  0
 18 14  1  0
 20 19  1  0
 21 20  1  6
 21 23  1  0
 22 21  1  0
 23 25  2  0
 23 24  1  0
M  END
$$$$
