HDS.pdb
     RDKit          3D

 25 25  0  0  1  0  0  0  0  0999 V2000
    8.4059  -16.9774   19.4615 N   0  0  0  0  0  0  0  0  0  0  0  0
    9.3530  -16.1371   20.1253 C   0  0  1  0  0  0  0  0  0  0  0  0
    8.6597  -14.9069   20.6669 C   0  0  0  0  0  0  0  0  0  0  0  0
    8.0880  -14.1731   19.4971 C   0  0  0  0  0  0  0  0  0  0  0  0
    6.7719  -13.8585   19.2316 C   0  0  0  0  0  0  0  0  0  0  0  0
    6.7053  -13.1997   18.0829 N   0  0  0  0  0  0  0  0  0  0  0  0
    7.9412  -13.0695   17.5805 C   0  0  0  0  0  0  0  0  0  0  0  0
    8.7776  -13.6603   18.4394 N   0  0  0  0  0  0  0  0  0  0  0  0
   10.0849  -16.8720   21.1841 C   0  0  0  0  0  0  0  0  0  0  0  0
    9.4261  -17.6484   21.9213 O   0  0  0  0  0  0  0  0  0  0  0  0
   11.4699  -16.7481   21.4072 N   0  0  0  0  0  0  0  0  0  0  0  0
   12.1903  -17.4136   22.4567 C   0  0  1  0  0  0  0  0  0  0  0  0
   13.6687  -17.3989   22.2181 C   0  0  0  0  0  0  0  0  0  0  0  0
   14.0952  -18.1795   21.0353 C   0  0  0  0  0  0  0  0  0  0  0  0
   14.6435  -17.6907   20.0188 O   0  0  0  0  0  0  0  0  0  0  0  0
   11.9414  -16.8065   23.7899 C   0  0  0  0  0  0  0  0  0  0  0  0
   12.6025  -15.7771   24.0830 O   0  0  0  0  0  0  0  0  0  0  0  0
   13.8741  -19.5476   21.0502 O   0  0  0  0  0  0  0  0  0  0  0  0
    8.4550  -17.2973   25.7440 O   0  0  0  0  0  0  0  0  0  0  0  0
    9.3121  -16.2766   26.1481 C   0  0  0  0  0  0  0  0  0  0  0  0
   10.7556  -16.7078   26.0118 C   0  0  2  0  0  0  0  0  0  0  0  0
   11.0106  -17.3268   24.7257 N   0  0  0  0  0  0  0  0  0  0  0  0
   11.0465  -17.6811   27.0782 C   0  0  0  0  0  0  0  0  0  0  0  0
   11.0223  -17.3071   28.4020 O   0  0  0  0  0  0  0  0  0  0  0  0
   11.3188  -18.8623   26.7720 O   0  0  0  0  0  0  0  0  0  0  0  0
  2  1  1  1
  3  2  1  0
  4  3  1  0
  5  4  2  0
  6  7  1  0
  6  5  1  0
  7  8  2  0
  8  4  1  0
  9 10  2  0
  9  2  1  0
 11  9  1  0
 12 16  1  0
 12 11  1  0
 12 13  1  6
 14 13  1  0
 14 15  2  0
 16 22  1  0
 17 16  2  0
 18 14  1  0
 20 19  1  0
 21 20  1  6
 21 23  1  0
 22 21  1  0
 23 25  2  0
 23 24  1  0
M  END
$$$$
