HDS.pdb
     RDKit          3D

 25 25  0  0  1  0  0  0  0  0999 V2000
    9.9738  -19.9347   16.2119 N   0  0  0  0  0  0  0  0  0  0  0  0
   10.7257  -18.8270   16.7132 C   0  0  1  0  0  0  0  0  0  0  0  0
   10.0138  -17.5324   16.3899 C   0  0  0  0  0  0  0  0  0  0  0  0
   10.1106  -17.3344   14.9116 C   0  0  0  0  0  0  0  0  0  0  0  0
   11.1167  -16.7364   14.1824 C   0  0  0  0  0  0  0  0  0  0  0  0
   10.8012  -16.7727   12.8950 N   0  0  0  0  0  0  0  0  0  0  0  0
    9.6140  -17.3782   12.7519 C   0  0  0  0  0  0  0  0  0  0  0  0
    9.1973  -17.7178   13.9756 N   0  0  0  0  0  0  0  0  0  0  0  0
   10.9951  -18.9638   18.1643 C   0  0  0  0  0  0  0  0  0  0  0  0
   10.0167  -19.1745   18.9249 O   0  0  0  0  0  0  0  0  0  0  0  0
   12.2801  -18.8710   18.7331 N   0  0  0  0  0  0  0  0  0  0  0  0
   12.5792  -19.1107   20.1174 C   0  0  1  0  0  0  0  0  0  0  0  0
   13.9628  -19.6519   20.3062 C   0  0  0  0  0  0  0  0  0  0  0  0
   14.3029  -19.9569   21.7138 C   0  0  0  0  0  0  0  0  0  0  0  0
   15.4213  -19.7422   22.2392 O   0  0  0  0  0  0  0  0  0  0  0  0
   12.4569  -17.8831   20.9457 C   0  0  0  0  0  0  0  0  0  0  0  0
   13.2109  -16.9188   20.6555 O   0  0  0  0  0  0  0  0  0  0  0  0
   13.3173  -20.5195   22.5092 O   0  0  0  0  0  0  0  0  0  0  0  0
    9.2999  -17.2878   23.5853 O   0  0  0  0  0  0  0  0  0  0  0  0
   10.0102  -16.1855   23.1159 C   0  0  0  0  0  0  0  0  0  0  0  0
   11.4498  -16.5580   22.8385 C   0  0  2  0  0  0  0  0  0  0  0  0
   11.5462  -17.7551   22.0260 N   0  0  0  0  0  0  0  0  0  0  0  0
   12.1182  -16.7992   24.1285 C   0  0  0  0  0  0  0  0  0  0  0  0
   12.3716  -15.7632   24.9975 O   0  0  0  0  0  0  0  0  0  0  0  0
   12.4583  -17.9628   24.4342 O   0  0  0  0  0  0  0  0  0  0  0  0
  2  1  1  1
  3  2  1  0
  4  3  1  0
  5  4  2  0
  6  7  1  0
  6  5  1  0
  7  8  2  0
  8  4  1  0
  9 10  2  0
  9  2  1  0
 11  9  1  0
 12 16  1  0
 12 11  1  0
 12 13  1  6
 14 13  1  0
 14 15  2  0
 16 22  1  0
 17 16  2  0
 18 14  1  0
 20 19  1  0
 21 20  1  1
 21 23  1  0
 22 21  1  0
 23 25  2  0
 23 24  1  0
M  END
$$$$
