HDS.pdb
     RDKit          3D

 25 25  0  0  1  0  0  0  0  0999 V2000
    9.4724  -16.8599   18.5966 N   0  0  0  0  0  0  0  0  0  0  0  0
    9.4153  -16.0700   19.7868 C   0  0  1  0  0  0  0  0  0  0  0  0
    8.0053  -15.5688   20.0055 C   0  0  0  0  0  0  0  0  0  0  0  0
    7.7540  -14.5040   18.9872 C   0  0  0  0  0  0  0  0  0  0  0  0
    8.5885  -14.0461   17.9894 C   0  0  0  0  0  0  0  0  0  0  0  0
    7.9699  -13.0907   17.3093 N   0  0  0  0  0  0  0  0  0  0  0  0
    6.7488  -12.9034   17.8294 C   0  0  0  0  0  0  0  0  0  0  0  0
    6.6202  -13.7612   18.8463 N   0  0  0  0  0  0  0  0  0  0  0  0
    9.9264  -16.8165   20.9609 C   0  0  0  0  0  0  0  0  0  0  0  0
    9.0853  -17.3485   21.7288 O   0  0  0  0  0  0  0  0  0  0  0  0
   11.2948  -16.9609   21.2604 N   0  0  0  0  0  0  0  0  0  0  0  0
   11.8114  -17.6817   22.3904 C   0  0  1  0  0  0  0  0  0  0  0  0
   13.2228  -18.1315   22.1706 C   0  0  0  0  0  0  0  0  0  0  0  0
   13.3751  -19.1287   21.0879 C   0  0  0  0  0  0  0  0  0  0  0  0
   13.9319  -18.9054   19.9865 O   0  0  0  0  0  0  0  0  0  0  0  0
   11.7826  -16.8768   23.6391 C   0  0  0  0  0  0  0  0  0  0  0  0
   12.5214  -15.8595   23.6820 O   0  0  0  0  0  0  0  0  0  0  0  0
   12.8670  -20.3999   21.3043 O   0  0  0  0  0  0  0  0  0  0  0  0
    8.6069  -16.8194   26.0787 O   0  0  0  0  0  0  0  0  0  0  0  0
    9.5836  -15.8422   26.2543 C   0  0  0  0  0  0  0  0  0  0  0  0
   10.9587  -16.4069   25.9743 C   0  0  2  0  0  0  0  0  0  0  0  0
   10.9752  -17.1994   24.7602 N   0  0  0  0  0  0  0  0  0  0  0  0
   11.3436  -17.2620   27.1100 C   0  0  0  0  0  0  0  0  0  0  0  0
   11.5493  -16.7258   28.3602 O   0  0  0  0  0  0  0  0  0  0  0  0
   11.4843  -18.4914   26.9312 O   0  0  0  0  0  0  0  0  0  0  0  0
  2  1  1  6
  3  2  1  0
  4  3  1  0
  5  4  2  0
  6  7  1  0
  6  5  1  0
  7  8  2  0
  8  4  1  0
  9 10  2  0
  9  2  1  0
 11  9  1  0
 12 16  1  0
 12 11  1  0
 12 13  1  6
 14 13  1  0
 14 15  2  0
 16 22  1  0
 17 16  2  0
 18 14  1  0
 20 19  1  0
 21 20  1  1
 21 23  1  0
 22 21  1  0
 23 25  2  0
 23 24  1  0
M  END
$$$$
