HDS.pdb
     RDKit          3D

 25 25  0  0  1  0  0  0  0  0999 V2000
    7.6483  -16.7310   19.2404 N   0  0  0  0  0  0  0  0  0  0  0  0
    8.9072  -16.1175   19.5282 C   0  0  1  0  0  0  0  0  0  0  0  0
    8.7050  -14.6546   19.8542 C   0  0  0  0  0  0  0  0  0  0  0  0
    8.1613  -14.0010   18.6250 C   0  0  0  0  0  0  0  0  0  0  0  0
    7.0674  -13.1710   18.4978 C   0  0  0  0  0  0  0  0  0  0  0  0
    6.9382  -12.8134   17.2275 N   0  0  0  0  0  0  0  0  0  0  0  0
    7.9164  -13.3839   16.5103 C   0  0  0  0  0  0  0  0  0  0  0  0
    8.6565  -14.1033   17.3596 N   0  0  0  0  0  0  0  0  0  0  0  0
    9.6265  -16.8320   20.6094 C   0  0  0  0  0  0  0  0  0  0  0  0
    8.9703  -17.1682   21.6275 O   0  0  0  0  0  0  0  0  0  0  0  0
   10.9969  -17.1523   20.5578 N   0  0  0  0  0  0  0  0  0  0  0  0
   11.7073  -17.8665   21.5818 C   0  0  1  0  0  0  0  0  0  0  0  0
   13.1106  -18.1886   21.1696 C   0  0  0  0  0  0  0  0  0  0  0  0
   13.8483  -19.0217   22.1452 C   0  0  0  0  0  0  0  0  0  0  0  0
   15.0510  -18.8550   22.4591 O   0  0  0  0  0  0  0  0  0  0  0  0
   11.7735  -17.1108   22.8595 C   0  0  0  0  0  0  0  0  0  0  0  0
   12.5305  -16.1066   22.8925 O   0  0  0  0  0  0  0  0  0  0  0  0
   13.1633  -20.0601   22.7564 O   0  0  0  0  0  0  0  0  0  0  0  0
    8.8176  -17.1185   25.6103 O   0  0  0  0  0  0  0  0  0  0  0  0
    9.8335  -16.1719   25.7186 C   0  0  0  0  0  0  0  0  0  0  0  0
   11.1566  -16.7576   25.2777 C   0  0  2  0  0  0  0  0  0  0  0  0
   11.0357  -17.4658   24.0182 N   0  0  0  0  0  0  0  0  0  0  0  0
   11.6102  -17.6992   26.3153 C   0  0  0  0  0  0  0  0  0  0  0  0
   11.9061  -17.2619   27.5857 O   0  0  0  0  0  0  0  0  0  0  0  0
   11.7266  -18.9118   26.0336 O   0  0  0  0  0  0  0  0  0  0  0  0
  2  1  1  1
  3  2  1  0
  4  3  1  0
  5  4  2  0
  6  7  1  0
  6  5  1  0
  7  8  2  0
  8  4  1  0
  9 10  2  0
  9  2  1  0
 11  9  1  0
 12 16  1  0
 12 11  1  0
 12 13  1  6
 14 13  1  0
 14 15  2  0
 16 22  1  0
 17 16  2  0
 18 14  1  0
 20 19  1  0
 21 20  1  1
 21 23  1  0
 22 21  1  0
 23 25  2  0
 23 24  1  0
M  END
$$$$
