HDS.pdb
     RDKit          3D

 25 25  0  0  1  0  0  0  0  0999 V2000
    9.3887  -17.0240   19.3600 N   0  0  0  0  0  0  0  0  0  0  0  0
   10.1084  -16.3039   20.3637 C   0  0  1  0  0  0  0  0  0  0  0  0
    9.1529  -15.4603   21.1777 C   0  0  0  0  0  0  0  0  0  0  0  0
    8.7569  -14.2979   20.3258 C   0  0  0  0  0  0  0  0  0  0  0  0
    9.1206  -14.0133   19.0264 C   0  0  0  0  0  0  0  0  0  0  0  0
    8.5426  -12.8805   18.6511 N   0  0  0  0  0  0  0  0  0  0  0  0
    7.8062  -12.4074   19.6663 C   0  0  0  0  0  0  0  0  0  0  0  0
    7.9377  -13.2682   20.6803 N   0  0  0  0  0  0  0  0  0  0  0  0
   10.9098  -17.2130   21.2170 C   0  0  0  0  0  0  0  0  0  0  0  0
   10.3259  -18.2000   21.7320 O   0  0  0  0  0  0  0  0  0  0  0  0
   12.2813  -17.0318   21.4802 N   0  0  0  0  0  0  0  0  0  0  0  0
   13.0804  -17.9101   22.2884 C   0  0  1  0  0  0  0  0  0  0  0  0
   14.5444  -17.6324   22.1387 C   0  0  0  0  0  0  0  0  0  0  0  0
   15.0826  -17.9471   20.7965 C   0  0  0  0  0  0  0  0  0  0  0  0
   15.8422  -17.1962   20.1393 O   0  0  0  0  0  0  0  0  0  0  0  0
   12.7472  -17.8127   23.7332 C   0  0  0  0  0  0  0  0  0  0  0  0
   12.8842  -16.6871   24.2780 O   0  0  0  0  0  0  0  0  0  0  0  0
   14.7228  -19.1568   20.2236 O   0  0  0  0  0  0  0  0  0  0  0  0
   10.1908  -20.3613   25.4468 O   0  0  0  0  0  0  0  0  0  0  0  0
   10.5006  -19.2035   26.1562 C   0  0  0  0  0  0  0  0  0  0  0  0
   11.9356  -18.7944   25.9081 C   0  0  2  0  0  0  0  0  0  0  0  0
   12.2911  -18.9107   24.5072 N   0  0  0  0  0  0  0  0  0  0  0  0
   12.8082  -19.6788   26.6990 C   0  0  0  0  0  0  0  0  0  0  0  0
   12.7331  -19.7011   28.0726 O   0  0  0  0  0  0  0  0  0  0  0  0
   13.6269  -20.4178   26.1103 O   0  0  0  0  0  0  0  0  0  0  0  0
  2  1  1  6
  3  2  1  0
  4  3  1  0
  5  4  2  0
  6  7  1  0
  6  5  1  0
  7  8  2  0
  8  4  1  0
  9 10  2  0
  9  2  1  0
 11  9  1  0
 12 16  1  0
 12 11  1  0
 12 13  1  1
 14 13  1  0
 14 15  2  0
 16 22  1  0
 17 16  2  0
 18 14  1  0
 20 19  1  0
 21 20  1  6
 21 23  1  0
 22 21  1  0
 23 25  2  0
 23 24  1  0
M  END
$$$$
