HDS.pdb
     RDKit          3D

 25 25  0  0  1  0  0  0  0  0999 V2000
   10.4528  -15.3152   20.5821 N   0  0  0  0  0  0  0  0  0  0  0  0
    9.4576  -14.8864   21.5146 C   0  0  1  0  0  0  0  0  0  0  0  0
    8.0784  -15.1099   20.9355 C   0  0  0  0  0  0  0  0  0  0  0  0
    8.0063  -14.3355   19.6593 C   0  0  0  0  0  0  0  0  0  0  0  0
    9.0015  -13.6275   19.0189 C   0  0  0  0  0  0  0  0  0  0  0  0
    8.5088  -13.0891   17.9119 N   0  0  0  0  0  0  0  0  0  0  0  0
    7.2149  -13.4211   17.8018 C   0  0  0  0  0  0  0  0  0  0  0  0
    6.9126  -14.1766   18.8621 N   0  0  0  0  0  0  0  0  0  0  0  0
    9.6209  -15.5510   22.8294 C   0  0  0  0  0  0  0  0  0  0  0  0
    8.6746  -15.4631   23.6523 O   0  0  0  0  0  0  0  0  0  0  0  0
   10.7718  -16.2710   23.2039 N   0  0  0  0  0  0  0  0  0  0  0  0
   10.9571  -16.9088   24.4776 C   0  0  1  0  0  0  0  0  0  0  0  0
   12.0906  -17.8872   24.4546 C   0  0  0  0  0  0  0  0  0  0  0  0
   11.7772  -19.1553   23.7590 C   0  0  0  0  0  0  0  0  0  0  0  0
   12.4158  -19.6071   22.7788 O   0  0  0  0  0  0  0  0  0  0  0  0
   11.2229  -15.9343   25.5674 C   0  0  0  0  0  0  0  0  0  0  0  0
   12.2196  -15.1792   25.4301 O   0  0  0  0  0  0  0  0  0  0  0  0
   10.7022  -19.8975   24.2221 O   0  0  0  0  0  0  0  0  0  0  0  0
    8.3923  -14.1393   27.6874 O   0  0  0  0  0  0  0  0  0  0  0  0
    9.7089  -13.6852   27.7013 C   0  0  0  0  0  0  0  0  0  0  0  0
   10.6730  -14.8485   27.7745 C   0  0  2  0  0  0  0  0  0  0  0  0
   10.4182  -15.8218   26.7305 N   0  0  0  0  0  0  0  0  0  0  0  0
   10.5093  -15.4984   29.0860 C   0  0  0  0  0  0  0  0  0  0  0  0
   10.8053  -14.8264   30.2494 O   0  0  0  0  0  0  0  0  0  0  0  0
   10.0954  -16.6770   29.1383 O   0  0  0  0  0  0  0  0  0  0  0  0
  2  1  1  6
  3  2  1  0
  4  3  1  0
  5  4  2  0
  6  7  1  0
  6  5  1  0
  7  8  2  0
  8  4  1  0
  9 10  2  0
  9  2  1  0
 11  9  1  0
 12 16  1  0
 12 11  1  0
 12 13  1  6
 14 13  1  0
 14 15  2  0
 16 22  1  0
 17 16  2  0
 18 14  1  0
 20 19  1  0
 21 20  1  1
 21 23  1  0
 22 21  1  0
 23 25  2  0
 23 24  1  0
M  END
$$$$
