HDS.pdb
     RDKit          3D

 25 25  0  0  1  0  0  0  0  0999 V2000
    8.8652  -17.3258   19.1970 N   0  0  0  0  0  0  0  0  0  0  0  0
    9.7055  -16.4311   19.9300 C   0  0  1  0  0  0  0  0  0  0  0  0
    8.8615  -15.3949   20.6379 C   0  0  0  0  0  0  0  0  0  0  0  0
    8.2491  -14.5310   19.5832 C   0  0  0  0  0  0  0  0  0  0  0  0
    8.4422  -14.5630   18.2181 C   0  0  0  0  0  0  0  0  0  0  0  0
    7.7023  -13.6196   17.6519 N   0  0  0  0  0  0  0  0  0  0  0  0
    7.0246  -12.9639   18.6046 C   0  0  0  0  0  0  0  0  0  0  0  0
    7.3577  -13.5181   19.7743 N   0  0  0  0  0  0  0  0  0  0  0  0
   10.5899  -17.1611   20.8691 C   0  0  0  0  0  0  0  0  0  0  0  0
   10.0936  -18.1150   21.5203 O   0  0  0  0  0  0  0  0  0  0  0  0
   11.9476  -16.8456   21.0698 N   0  0  0  0  0  0  0  0  0  0  0  0
   12.7963  -17.4738   22.0436 C   0  0  1  0  0  0  0  0  0  0  0  0
   14.2476  -17.2976   21.7189 C   0  0  0  0  0  0  0  0  0  0  0  0
   14.6884  -18.0340   20.5132 C   0  0  0  0  0  0  0  0  0  0  0  0
   14.3326  -19.2005   20.2210 O   0  0  0  0  0  0  0  0  0  0  0  0
   12.5728  -16.9480   23.4153 C   0  0  0  0  0  0  0  0  0  0  0  0
   13.1426  -15.8671   23.7143 O   0  0  0  0  0  0  0  0  0  0  0  0
   15.5556  -17.3906   19.6444 O   0  0  0  0  0  0  0  0  0  0  0  0
    9.1736  -17.4339   25.3084 O   0  0  0  0  0  0  0  0  0  0  0  0
   10.0889  -16.5077   25.8024 C   0  0  0  0  0  0  0  0  0  0  0  0
   11.4996  -17.0428   25.6939 C   0  0  2  0  0  0  0  0  0  0  0  0
   11.7621  -17.5988   24.3808 N   0  0  0  0  0  0  0  0  0  0  0  0
   11.6681  -18.1007   26.7047 C   0  0  0  0  0  0  0  0  0  0  0  0
   12.0781  -19.3635   26.3441 O   0  0  0  0  0  0  0  0  0  0  0  0
   11.4345  -17.8434   27.9057 O   0  0  0  0  0  0  0  0  0  0  0  0
  2  1  1  1
  3  2  1  0
  4  3  1  0
  5  4  2  0
  6  7  1  0
  6  5  1  0
  7  8  2  0
  8  4  1  0
  9 10  2  0
  9  2  1  0
 11  9  1  0
 12 16  1  0
 12 11  1  0
 12 13  1  6
 14 13  1  0
 14 15  2  0
 16 22  1  0
 17 16  2  0
 18 14  1  0
 20 19  1  0
 21 20  1  6
 21 23  1  0
 22 21  1  0
 23 25  2  0
 23 24  1  0
M  END
$$$$
