HDS.pdb
     RDKit          3D

 25 25  0  0  1  0  0  0  0  0999 V2000
    8.1421  -16.9268   19.7495 N   0  0  0  0  0  0  0  0  0  0  0  0
    9.1224  -16.1248   20.4125 C   0  0  1  0  0  0  0  0  0  0  0  0
    8.4805  -14.8644   20.9480 C   0  0  0  0  0  0  0  0  0  0  0  0
    7.9546  -14.1051   19.7730 C   0  0  0  0  0  0  0  0  0  0  0  0
    6.6455  -13.8960   19.3930 C   0  0  0  0  0  0  0  0  0  0  0  0
    6.6253  -13.1657   18.2864 N   0  0  0  0  0  0  0  0  0  0  0  0
    7.8848  -12.8856   17.9235 C   0  0  0  0  0  0  0  0  0  0  0  0
    8.6888  -13.4560   18.8261 N   0  0  0  0  0  0  0  0  0  0  0  0
    9.8202  -16.8860   21.4757 C   0  0  0  0  0  0  0  0  0  0  0  0
    9.1207  -17.5863   22.2507 O   0  0  0  0  0  0  0  0  0  0  0  0
   11.2158  -16.8672   21.6632 N   0  0  0  0  0  0  0  0  0  0  0  0
   11.9053  -17.5380   22.7299 C   0  0  1  0  0  0  0  0  0  0  0  0
   13.3739  -17.6552   22.4615 C   0  0  0  0  0  0  0  0  0  0  0  0
   13.7057  -18.4804   21.2786 C   0  0  0  0  0  0  0  0  0  0  0  0
   13.2101  -19.6060   21.0333 O   0  0  0  0  0  0  0  0  0  0  0  0
   11.7378  -16.8495   24.0360 C   0  0  0  0  0  0  0  0  0  0  0  0
   12.4547  -15.8373   24.2459 O   0  0  0  0  0  0  0  0  0  0  0  0
   14.6291  -17.9752   20.3770 O   0  0  0  0  0  0  0  0  0  0  0  0
    8.3485  -17.0371   26.2041 O   0  0  0  0  0  0  0  0  0  0  0  0
    9.3023  -16.0790   26.5387 C   0  0  0  0  0  0  0  0  0  0  0  0
   10.6986  -16.6184   26.3206 C   0  0  2  0  0  0  0  0  0  0  0  0
   10.8241  -17.2755   25.0342 N   0  0  0  0  0  0  0  0  0  0  0  0
   10.9858  -17.5931   27.3867 C   0  0  0  0  0  0  0  0  0  0  0  0
   11.2785  -18.9033   27.0860 O   0  0  0  0  0  0  0  0  0  0  0  0
   10.9623  -17.2206   28.5800 O   0  0  0  0  0  0  0  0  0  0  0  0
  2  1  1  1
  3  2  1  0
  4  3  1  0
  5  4  2  0
  6  7  1  0
  6  5  1  0
  7  8  2  0
  8  4  1  0
  9 10  2  0
  9  2  1  0
 11  9  1  0
 12 16  1  0
 12 11  1  0
 12 13  1  6
 14 13  1  0
 14 15  2  0
 16 22  1  0
 17 16  2  0
 18 14  1  0
 20 19  1  0
 21 20  1  1
 21 23  1  0
 22 21  1  0
 23 25  2  0
 23 24  1  0
M  END
$$$$
