HRS.pdb
     RDKit          3D

 28 28  0  0  1  0  0  0  0  0999 V2000
    9.3866  -15.4880   20.1623 N   0  0  0  0  0  0  0  0  0  0  0  0
    8.3627  -14.7398   20.8204 C   0  0  1  0  0  0  0  0  0  0  0  0
    7.1063  -14.6994   20.0289 C   0  0  0  0  0  0  0  0  0  0  0  0
    7.4126  -14.2905   18.6346 C   0  0  0  0  0  0  0  0  0  0  0  0
    7.7607  -13.0102   18.2229 C   0  0  0  0  0  0  0  0  0  0  0  0
    7.9557  -13.0373   16.9097 N   0  0  0  0  0  0  0  0  0  0  0  0
    7.7498  -14.2738   16.4570 C   0  0  0  0  0  0  0  0  0  0  0  0
    7.4185  -15.0370   17.5116 N   0  0  0  0  0  0  0  0  0  0  0  0
    8.1991  -15.1533   22.2204 C   0  0  0  0  0  0  0  0  0  0  0  0
    7.2283  -14.7705   22.9426 O   0  0  0  0  0  0  0  0  0  0  0  0
   10.2626  -22.3782   21.6206 N   0  0  0  0  0  0  0  0  0  0  0  0
   10.2451  -21.3372   22.6196 C   0  0  0  0  0  0  0  0  0  0  0  0
    9.2478  -21.2740   23.4307 N   0  0  0  0  0  0  0  0  0  0  0  0
   11.2821  -20.3858   22.7378 N   0  0  0  0  0  0  0  0  0  0  0  0
   11.2922  -19.3388   23.7407 C   0  0  0  0  0  0  0  0  0  0  0  0
   10.0804  -18.4648   23.4890 C   0  0  0  0  0  0  0  0  0  0  0  0
   10.1215  -17.3681   24.5402 C   0  0  0  0  0  0  0  0  0  0  0  0
    9.0367  -16.3699   24.2711 C   0  0  2  0  0  0  0  0  0  0  0  0
    9.1290  -16.0106   22.8457 N   0  0  0  0  0  0  0  0  0  0  0  0
    9.3712  -15.1537   25.0798 C   0  0  0  0  0  0  0  0  0  0  0  0
   10.4414  -14.5424   24.8449 O   0  0  0  0  0  0  0  0  0  0  0  0
    9.2349  -20.5921   24.1982 O   0  0  0  0  0  0  0  0  0  0  0  0
    6.5803  -13.2645   27.1522 C   0  0  0  0  0  0  0  0  0  0  0  0
    7.7259  -12.5425   26.8217 C   0  0  1  0  0  0  0  0  0  0  0  0
    8.8918  -13.5106   26.8471 N   0  0  0  0  0  0  0  0  0  0  0  0
    8.5092  -14.6825   26.0988 C   0  0  0  0  0  0  0  0  0  0  0  0
    9.2172  -13.9292   28.2344 O   0  0  0  0  0  0  0  0  0  0  0  0
    9.6209  -12.9788   29.1714 O   0  0  0  0  0  0  0  0  0  0  0  0
  2  9  1  0
  2  1  1  6
  3  2  1  0
  4  3  1  0
  5  4  2  0
  6  7  1  0
  6  5  1  0
  7  8  2  0
  8  4  1  0
  9 10  2  0
 12 14  1  0
 12 11  1  0
 13 12  2  0
 15 14  1  0
 16 15  1  0
 17 16  1  0
 18 17  1  6
 19  9  1  0
 19 18  1  0
 20 25  1  0
 20 18  1  0
 21 20  2  0
 23 22  1  0
 24 23  1  6
 24 25  1  0
 26 24  1  0
 26 27  1  0
 28 26  2  0
M  END
$$$$
