HRS.pdb
     RDKit          3D

 28 28  0  0  1  0  0  0  0  0999 V2000
   13.6794  -18.4901   17.6082 N   0  0  0  0  0  0  0  0  0  0  0  0
   13.2201  -19.2394   18.7346 C   0  0  1  0  0  0  0  0  0  0  0  0
   14.0419  -20.4546   18.9680 C   0  0  0  0  0  0  0  0  0  0  0  0
   13.9157  -21.3684   17.8043 C   0  0  0  0  0  0  0  0  0  0  0  0
   12.7450  -21.9846   17.3804 C   0  0  0  0  0  0  0  0  0  0  0  0
   13.0296  -22.7233   16.3143 N   0  0  0  0  0  0  0  0  0  0  0  0
   14.3275  -22.6119   16.0323 C   0  0  0  0  0  0  0  0  0  0  0  0
   14.8662  -21.7843   16.9430 N   0  0  0  0  0  0  0  0  0  0  0  0
   13.0272  -18.3867   19.9151 C   0  0  0  0  0  0  0  0  0  0  0  0
   13.9223  -17.5988   20.3493 O   0  0  0  0  0  0  0  0  0  0  0  0
    8.1301  -12.7005   19.2262 N   0  0  0  0  0  0  0  0  0  0  0  0
    7.8482  -13.6179   20.3036 C   0  0  0  0  0  0  0  0  0  0  0  0
    6.6302  -13.7582   20.6949 N   0  0  0  0  0  0  0  0  0  0  0  0
    8.8609  -14.3656   20.9438 N   0  0  0  0  0  0  0  0  0  0  0  0
    8.6451  -15.1175   22.1646 C   0  0  0  0  0  0  0  0  0  0  0  0
    9.9674  -15.7562   22.5377 C   0  0  0  0  0  0  0  0  0  0  0  0
   10.2966  -16.7346   21.4225 C   0  0  0  0  0  0  0  0  0  0  0  0
   11.5552  -17.4761   21.7566 C   0  0  2  0  0  0  0  0  0  0  0  0
   11.8171  -18.4008   20.6404 N   0  0  0  0  0  0  0  0  0  0  0  0
   11.2537  -18.2928   22.9761 C   0  0  0  0  0  0  0  0  0  0  0  0
   10.4526  -19.2538   22.8819 O   0  0  0  0  0  0  0  0  0  0  0  0
    6.3960  -14.3813   21.4766 O   0  0  0  0  0  0  0  0  0  0  0  0
   12.1638  -19.2661   27.5797 C   0  0  0  0  0  0  0  0  0  0  0  0
   12.4466  -18.4277   26.5027 C   0  0  2  0  0  0  0  0  0  0  0  0
   11.5659  -18.8635   25.3488 N   0  0  0  0  0  0  0  0  0  0  0  0
   11.8509  -18.0039   24.2265 C   0  0  0  0  0  0  0  0  0  0  0  0
   10.1259  -18.7275   25.6861 O   0  0  0  0  0  0  0  0  0  0  0  0
    9.4832  -19.7305   26.4108 O   0  0  0  0  0  0  0  0  0  0  0  0
  2  9  1  0
  2  1  1  6
  3  2  1  0
  4  3  1  0
  5  4  2  0
  6  7  1  0
  6  5  1  0
  7  8  2  0
  8  4  1  0
  9 10  2  0
 12 14  1  0
 12 11  1  0
 13 12  2  0
 15 14  1  0
 16 15  1  0
 17 16  1  0
 18 17  1  6
 19  9  1  0
 19 18  1  0
 20 25  1  0
 20 18  1  0
 21 20  2  0
 23 22  1  0
 24 23  1  6
 24 25  1  0
 26 24  1  0
 26 27  1  0
 28 26  2  0
M  END
$$$$
