HRS.pdb
     RDKit          3D

 28 28  0  0  1  0  0  0  0  0999 V2000
    9.9889  -15.7927   16.9679 N   0  0  0  0  0  0  0  0  0  0  0  0
   10.4027  -14.9952   18.0787 C   0  0  1  0  0  0  0  0  0  0  0  0
    9.3040  -14.7901   19.0572 C   0  0  0  0  0  0  0  0  0  0  0  0
    8.1560  -14.1336   18.3819 C   0  0  0  0  0  0  0  0  0  0  0  0
    7.7064  -12.8409   18.6197 C   0  0  0  0  0  0  0  0  0  0  0  0
    6.6636  -12.6143   17.8296 N   0  0  0  0  0  0  0  0  0  0  0  0
    6.4207  -13.6995   17.0949 C   0  0  0  0  0  0  0  0  0  0  0  0
    7.3330  -14.6255   17.4336 N   0  0  0  0  0  0  0  0  0  0  0  0
   11.6641  -15.4775   18.6567 C   0  0  0  0  0  0  0  0  0  0  0  0
   11.8893  -16.7040   18.8922 O   0  0  0  0  0  0  0  0  0  0  0  0
   18.5819  -12.6570   18.9774 N   0  0  0  0  0  0  0  0  0  0  0  0
   18.5781  -13.7065   17.9872 C   0  0  0  0  0  0  0  0  0  0  0  0
   19.6017  -14.4822   17.9030 N   0  0  0  0  0  0  0  0  0  0  0  0
   17.4926  -13.9115   17.1075 N   0  0  0  0  0  0  0  0  0  0  0  0
   16.2596  -13.1514   17.1728 C   0  0  0  0  0  0  0  0  0  0  0  0
   15.1550  -14.1196   17.5446 C   0  0  0  0  0  0  0  0  0  0  0  0
   15.0368  -14.0685   19.0589 C   0  0  0  0  0  0  0  0  0  0  0  0
   14.0013  -15.0496   19.5178 C   0  0  2  0  0  0  0  0  0  0  0  0
   12.7076  -14.5871   18.9869 N   0  0  0  0  0  0  0  0  0  0  0  0
   13.9543  -14.9468   21.0119 C   0  0  0  0  0  0  0  0  0  0  0  0
   13.3138  -14.0045   21.5370 O   0  0  0  0  0  0  0  0  0  0  0  0
   19.6486  -15.2174   17.1878 O   0  0  0  0  0  0  0  0  0  0  0  0
   12.6223  -17.4549   23.0935 C   0  0  0  0  0  0  0  0  0  0  0  0
   12.8653  -16.1297   23.4506 C   0  0  1  0  0  0  0  0  0  0  0  0
   14.3467  -15.8749   23.2563 N   0  0  0  0  0  0  0  0  0  0  0  0
   14.6148  -15.8863   21.8394 C   0  0  0  0  0  0  0  0  0  0  0  0
   15.1663  -16.9367   23.8942 O   0  0  0  0  0  0  0  0  0  0  0  0
   15.2603  -17.0026   25.2838 O   0  0  0  0  0  0  0  0  0  0  0  0
  2  9  1  0
  2  1  1  6
  3  2  1  0
  4  3  1  0
  5  4  2  0
  6  7  1  0
  6  5  1  0
  7  8  2  0
  8  4  1  0
  9 10  2  0
 12 14  1  0
 12 11  1  0
 13 12  2  0
 15 14  1  0
 16 15  1  0
 17 16  1  0
 18 17  1  6
 19  9  1  0
 19 18  1  0
 20 25  1  0
 20 18  1  0
 21 20  2  0
 23 22  1  0
 24 23  1  6
 24 25  1  0
 26 24  1  0
 26 27  1  0
 28 26  2  0
M  END
$$$$
