HRS.pdb
     RDKit          3D

 28 28  0  0  1  0  0  0  0  0999 V2000
   10.0277  -15.7889   17.6692 N   0  0  0  0  0  0  0  0  0  0  0  0
   10.6630  -14.8907   18.5806 C   0  0  1  0  0  0  0  0  0  0  0  0
    9.7628  -14.4996   19.6958 C   0  0  0  0  0  0  0  0  0  0  0  0
    8.6286  -13.7046   19.1606 C   0  0  0  0  0  0  0  0  0  0  0  0
    8.4308  -13.3698   17.8269 C   0  0  0  0  0  0  0  0  0  0  0  0
    7.3149  -12.6552   17.7415 N   0  0  0  0  0  0  0  0  0  0  0  0
    6.7854  -12.5142   18.9565 C   0  0  0  0  0  0  0  0  0  0  0  0
    7.5889  -13.1557   19.8210 N   0  0  0  0  0  0  0  0  0  0  0  0
   11.9852  -15.3784   18.9947 C   0  0  0  0  0  0  0  0  0  0  0  0
   12.2034  -16.5857   19.3194 O   0  0  0  0  0  0  0  0  0  0  0  0
   18.5878  -16.0632   16.2655 N   0  0  0  0  0  0  0  0  0  0  0  0
   17.8932  -15.4410   15.1644 C   0  0  0  0  0  0  0  0  0  0  0  0
   18.0387  -15.9318   13.9836 N   0  0  0  0  0  0  0  0  0  0  0  0
   17.0612  -14.3129   15.3366 N   0  0  0  0  0  0  0  0  0  0  0  0
   16.7298  -13.7579   16.6344 C   0  0  0  0  0  0  0  0  0  0  0  0
   15.7734  -14.7235   17.3043 C   0  0  0  0  0  0  0  0  0  0  0  0
   15.4156  -14.1056   18.6458 C   0  0  0  0  0  0  0  0  0  0  0  0
   14.4549  -14.9972   19.3721 C   0  0  2  0  0  0  0  0  0  0  0  0
   13.0996  -14.5153   19.0554 N   0  0  0  0  0  0  0  0  0  0  0  0
   14.6968  -14.7771   20.8344 C   0  0  0  0  0  0  0  0  0  0  0  0
   14.7043  -13.6043   21.2800 O   0  0  0  0  0  0  0  0  0  0  0  0
   17.5644  -15.5115   13.1758 O   0  0  0  0  0  0  0  0  0  0  0  0
   14.5634  -17.8457   23.3349 C   0  0  0  0  0  0  0  0  0  0  0  0
   14.3492  -16.5993   23.9210 C   0  0  1  0  0  0  0  0  0  0  0  0
   15.1349  -15.5823   23.1175 N   0  0  0  0  0  0  0  0  0  0  0  0
   14.9163  -15.8598   21.7193 C   0  0  0  0  0  0  0  0  0  0  0  0
   16.5911  -15.6853   23.3909 O   0  0  0  0  0  0  0  0  0  0  0  0
   17.0841  -15.3813   24.6592 O   0  0  0  0  0  0  0  0  0  0  0  0
  2  9  1  0
  2  1  1  1
  3  2  1  0
  4  3  1  0
  5  4  2  0
  6  7  1  0
  6  5  1  0
  7  8  2  0
  8  4  1  0
  9 10  2  0
 12 14  1  0
 12 11  1  0
 13 12  2  0
 15 14  1  0
 16 15  1  0
 17 16  1  0
 18 17  1  6
 19  9  1  0
 19 18  1  0
 20 25  1  0
 20 18  1  0
 21 20  2  0
 23 22  1  0
 24 23  1  1
 24 25  1  0
 26 24  1  0
 26 27  1  0
 28 26  2  0
M  END
$$$$
