HRS.pdb
     RDKit          3D

 28 28  0  0  1  0  0  0  0  0999 V2000
    9.6048  -16.2170   18.1591 N   0  0  0  0  0  0  0  0  0  0  0  0
   10.1243  -15.7761   19.4148 C   0  0  1  0  0  0  0  0  0  0  0  0
    9.0842  -15.1208   20.2487 C   0  0  0  0  0  0  0  0  0  0  0  0
    8.4330  -14.0386   19.4677 C   0  0  0  0  0  0  0  0  0  0  0  0
    8.9299  -12.7531   19.2928 C   0  0  0  0  0  0  0  0  0  0  0  0
    8.0707  -12.0771   18.5392 N   0  0  0  0  0  0  0  0  0  0  0  0
    7.0448  -12.8663   18.2209 C   0  0  0  0  0  0  0  0  0  0  0  0
    7.2682  -14.0630   18.7887 N   0  0  0  0  0  0  0  0  0  0  0  0
   10.8847  -16.8344   20.0925 C   0  0  0  0  0  0  0  0  0  0  0  0
   10.4017  -17.9829   20.3337 O   0  0  0  0  0  0  0  0  0  0  0  0
   16.9669  -14.1460   19.5865 N   0  0  0  0  0  0  0  0  0  0  0  0
   15.9487  -14.4391   18.6071 C   0  0  0  0  0  0  0  0  0  0  0  0
   15.6994  -13.5679   17.6932 N   0  0  0  0  0  0  0  0  0  0  0  0
   15.2161  -15.6464   18.6169 N   0  0  0  0  0  0  0  0  0  0  0  0
   15.8182  -16.9418   18.8650 C   0  0  0  0  0  0  0  0  0  0  0  0
   14.7245  -17.8528   19.3842 C   0  0  0  0  0  0  0  0  0  0  0  0
   14.4475  -17.4134   20.8123 C   0  0  0  0  0  0  0  0  0  0  0  0
   13.0142  -17.6849   21.1551 C   0  0  2  0  0  0  0  0  0  0  0  0
   12.2132  -16.6251   20.5190 N   0  0  0  0  0  0  0  0  0  0  0  0
   12.8977  -17.5276   22.6407 C   0  0  0  0  0  0  0  0  0  0  0  0
   13.0995  -16.3992   23.1506 O   0  0  0  0  0  0  0  0  0  0  0  0
   15.0420  -13.7754   16.9322 O   0  0  0  0  0  0  0  0  0  0  0  0
   10.8826  -18.8922   26.6423 C   0  0  0  0  0  0  0  0  0  0  0  0
   11.0508  -19.0704   25.2701 C   0  0  1  0  0  0  0  0  0  0  0  0
   12.3425  -18.3796   24.8809 N   0  0  0  0  0  0  0  0  0  0  0  0
   12.5665  -18.6206   23.4768 C   0  0  0  0  0  0  0  0  0  0  0  0
   13.4976  -18.9262   25.6377 O   0  0  0  0  0  0  0  0  0  0  0  0
   13.8310  -18.3906   26.8811 O   0  0  0  0  0  0  0  0  0  0  0  0
  2  9  1  0
  2  1  1  6
  3  2  1  0
  4  3  1  0
  5  4  2  0
  6  7  1  0
  6  5  1  0
  7  8  2  0
  8  4  1  0
  9 10  2  0
 12 14  1  0
 12 11  1  0
 13 12  2  0
 15 14  1  0
 16 15  1  0
 17 16  1  0
 18 17  1  6
 19  9  1  0
 19 18  1  0
 20 25  1  0
 20 18  1  0
 21 20  2  0
 23 22  1  0
 24 23  1  6
 24 25  1  0
 26 24  1  0
 26 27  1  0
 28 26  2  0
M  END
$$$$
