HRS.pdb
     RDKit          3D

 28 28  0  0  1  0  0  0  0  0999 V2000
    7.3072  -16.6996   20.3421 N   0  0  0  0  0  0  0  0  0  0  0  0
    7.8730  -15.6378   21.1125 C   0  0  1  0  0  0  0  0  0  0  0  0
    7.2800  -14.3207   20.7657 C   0  0  0  0  0  0  0  0  0  0  0  0
    7.6243  -13.9769   19.3627 C   0  0  0  0  0  0  0  0  0  0  0  0
    8.4289  -12.9178   18.9615 C   0  0  0  0  0  0  0  0  0  0  0  0
    8.5016  -12.9336   17.6357 N   0  0  0  0  0  0  0  0  0  0  0  0
    7.7823  -13.9521   17.1649 C   0  0  0  0  0  0  0  0  0  0  0  0
    7.2478  -14.5875   18.2209 N   0  0  0  0  0  0  0  0  0  0  0  0
    7.8864  -15.9519   22.5474 C   0  0  0  0  0  0  0  0  0  0  0  0
    6.8285  -16.1606   23.2166 O   0  0  0  0  0  0  0  0  0  0  0  0
    9.3772  -20.3096   28.0181 N   0  0  0  0  0  0  0  0  0  0  0  0
   10.6632  -19.8523   28.4861 C   0  0  0  0  0  0  0  0  0  0  0  0
   10.9004  -19.8598   29.7511 N   0  0  0  0  0  0  0  0  0  0  0  0
   11.6691  -19.3963   27.6061 N   0  0  0  0  0  0  0  0  0  0  0  0
   11.4175  -19.0442   26.2223 C   0  0  0  0  0  0  0  0  0  0  0  0
   10.3718  -17.9477   26.2215 C   0  0  0  0  0  0  0  0  0  0  0  0
   10.1695  -17.5541   24.7677 C   0  0  0  0  0  0  0  0  0  0  0  0
    9.1464  -16.4630   24.6777 C   0  0  2  0  0  0  0  0  0  0  0  0
    9.0961  -16.0378   23.2684 N   0  0  0  0  0  0  0  0  0  0  0  0
    9.6748  -15.3199   25.4897 C   0  0  0  0  0  0  0  0  0  0  0  0
   10.7080  -14.7239   25.1008 O   0  0  0  0  0  0  0  0  0  0  0  0
   11.7769  -19.4779   30.1255 O   0  0  0  0  0  0  0  0  0  0  0  0
    7.3163  -13.3038   27.8998 C   0  0  0  0  0  0  0  0  0  0  0  0
    8.4750  -12.6967   27.4184 C   0  0  1  0  0  0  0  0  0  0  0  0
    9.5585  -13.7561   27.3853 N   0  0  0  0  0  0  0  0  0  0  0  0
    9.0357  -14.9007   26.6810 C   0  0  0  0  0  0  0  0  0  0  0  0
    9.9373  -14.1852   28.7558 O   0  0  0  0  0  0  0  0  0  0  0  0
   10.4601  -13.2575   29.6559 O   0  0  0  0  0  0  0  0  0  0  0  0
  2  9  1  0
  2  1  1  6
  3  2  1  0
  4  3  1  0
  5  4  2  0
  6  7  1  0
  6  5  1  0
  7  8  2  0
  8  4  1  0
  9 10  2  0
 12 14  1  0
 12 11  1  0
 13 12  2  0
 15 14  1  0
 16 15  1  0
 17 16  1  0
 18 17  1  6
 19  9  1  0
 19 18  1  0
 20 25  1  0
 20 18  1  0
 21 20  2  0
 23 22  1  0
 24 23  1  6
 24 25  1  0
 26 24  1  0
 26 27  1  0
 28 26  2  0
M  END
$$$$
