HRS.pdb
     RDKit          3D

 28 28  0  0  1  0  0  0  0  0999 V2000
    8.3915  -16.8196   17.2438 N   0  0  0  0  0  0  0  0  0  0  0  0
    9.6109  -16.2391   17.7097 C   0  0  1  0  0  0  0  0  0  0  0  0
    9.4569  -15.6220   19.0521 C   0  0  0  0  0  0  0  0  0  0  0  0
    8.5738  -14.4324   18.9516 C   0  0  0  0  0  0  0  0  0  0  0  0
    7.9319  -13.9939   17.8003 C   0  0  0  0  0  0  0  0  0  0  0  0
    7.2374  -12.9038   18.1043 N   0  0  0  0  0  0  0  0  0  0  0  0
    7.4017  -12.6201   19.3962 C   0  0  0  0  0  0  0  0  0  0  0  0
    8.2177  -13.5546   19.9113 N   0  0  0  0  0  0  0  0  0  0  0  0
   10.7413  -17.1684   17.5818 C   0  0  0  0  0  0  0  0  0  0  0  0
   10.6069  -18.4289   17.6428 O   0  0  0  0  0  0  0  0  0  0  0  0
   11.5655  -16.6838   13.3208 N   0  0  0  0  0  0  0  0  0  0  0  0
   12.5770  -17.5069   12.7034 C   0  0  0  0  0  0  0  0  0  0  0  0
   12.2582  -18.2139   11.6763 N   0  0  0  0  0  0  0  0  0  0  0  0
   13.9027  -17.5649   13.1867 N   0  0  0  0  0  0  0  0  0  0  0  0
   14.2345  -17.8291   14.5731 C   0  0  0  0  0  0  0  0  0  0  0  0
   14.0466  -16.5326   15.3343 C   0  0  0  0  0  0  0  0  0  0  0  0
   14.3648  -16.8429   16.7875 C   0  0  0  0  0  0  0  0  0  0  0  0
   13.2257  -17.5965   17.4039 C   0  0  2  0  0  0  0  0  0  0  0  0
   12.0572  -16.7001   17.3826 N   0  0  0  0  0  0  0  0  0  0  0  0
   13.6020  -17.8360   18.8344 C   0  0  0  0  0  0  0  0  0  0  0  0
   14.2382  -16.9488   19.4527 O   0  0  0  0  0  0  0  0  0  0  0  0
   12.9548  -18.8025   11.2045 O   0  0  0  0  0  0  0  0  0  0  0  0
   11.7480  -20.6419   20.9526 C   0  0  0  0  0  0  0  0  0  0  0  0
   12.3027  -19.5567   21.6291 C   0  0  1  0  0  0  0  0  0  0  0  0
   13.5745  -19.1731   20.8994 N   0  0  0  0  0  0  0  0  0  0  0  0
   13.2566  -19.0368   19.4994 C   0  0  0  0  0  0  0  0  0  0  0  0
   14.6166  -20.2219   21.0407 O   0  0  0  0  0  0  0  0  0  0  0  0
   15.0732  -20.9052   19.9144 O   0  0  0  0  0  0  0  0  0  0  0  0
  2  9  1  0
  2  1  1  1
  3  2  1  0
  4  3  1  0
  5  4  2  0
  6  7  1  0
  6  5  1  0
  7  8  2  0
  8  4  1  0
  9 10  2  0
 12 14  1  0
 12 11  1  0
 13 12  2  0
 15 14  1  0
 16 15  1  0
 17 16  1  0
 18 17  1  6
 19  9  1  0
 19 18  1  0
 20 25  1  0
 20 18  1  0
 21 20  2  0
 23 22  1  0
 24 23  1  1
 24 25  1  0
 26 24  1  0
 26 27  1  0
 28 26  2  0
M  END
$$$$
