HRS.pdb
     RDKit          3D

 28 28  0  0  1  0  0  0  0  0999 V2000
    9.0567  -16.9160   18.1387 N   0  0  0  0  0  0  0  0  0  0  0  0
    9.8145  -16.1552   19.0810 C   0  0  1  0  0  0  0  0  0  0  0  0
    8.9450  -15.3311   19.9595 C   0  0  0  0  0  0  0  0  0  0  0  0
    8.2105  -14.3369   19.1367 C   0  0  0  0  0  0  0  0  0  0  0  0
    8.3409  -14.1651   17.7643 C   0  0  0  0  0  0  0  0  0  0  0  0
    7.5270  -13.1843   17.3916 N   0  0  0  0  0  0  0  0  0  0  0  0
    6.8792  -12.7170   18.4586 C   0  0  0  0  0  0  0  0  0  0  0  0
    7.2979  -13.4221   19.5226 N   0  0  0  0  0  0  0  0  0  0  0  0
   10.7983  -16.9860   19.7878 C   0  0  0  0  0  0  0  0  0  0  0  0
   10.5633  -18.1824   20.1399 O   0  0  0  0  0  0  0  0  0  0  0  0
   17.1351  -13.1027   16.9026 N   0  0  0  0  0  0  0  0  0  0  0  0
   15.8982  -13.6915   17.3559 C   0  0  0  0  0  0  0  0  0  0  0  0
   14.9901  -13.9701   16.4875 N   0  0  0  0  0  0  0  0  0  0  0  0
   15.6489  -13.9714   18.7174 N   0  0  0  0  0  0  0  0  0  0  0  0
   15.8406  -15.2808   19.3098 C   0  0  0  0  0  0  0  0  0  0  0  0
   14.4827  -15.9505   19.3667 C   0  0  0  0  0  0  0  0  0  0  0  0
   14.3784  -16.5837   20.7442 C   0  0  0  0  0  0  0  0  0  0  0  0
   13.0577  -17.2782   20.8819 C   0  0  2  0  0  0  0  0  0  0  0  0
   12.0764  -16.4883   20.1187 N   0  0  0  0  0  0  0  0  0  0  0  0
   12.6890  -17.2019   22.3323 C   0  0  0  0  0  0  0  0  0  0  0  0
   12.9941  -16.1743   22.9842 O   0  0  0  0  0  0  0  0  0  0  0  0
   14.1178  -14.4341   16.7670 O   0  0  0  0  0  0  0  0  0  0  0  0
    9.8377  -19.4932   23.9529 C   0  0  0  0  0  0  0  0  0  0  0  0
   10.2001  -18.2841   24.5442 C   0  0  1  0  0  0  0  0  0  0  0  0
   11.6997  -18.1349   24.3825 N   0  0  0  0  0  0  0  0  0  0  0  0
   12.0072  -18.2603   22.9792 C   0  0  0  0  0  0  0  0  0  0  0  0
   12.4314  -19.1985   25.1167 O   0  0  0  0  0  0  0  0  0  0  0  0
   12.3801  -19.2440   26.5094 O   0  0  0  0  0  0  0  0  0  0  0  0
  2  9  1  0
  2  1  1  1
  3  2  1  0
  4  3  1  0
  5  4  2  0
  6  7  1  0
  6  5  1  0
  7  8  2  0
  8  4  1  0
  9 10  2  0
 12 14  1  0
 12 11  1  0
 13 12  2  0
 15 14  1  0
 16 15  1  0
 17 16  1  0
 18 17  1  1
 19  9  1  0
 19 18  1  0
 20 25  1  0
 20 18  1  0
 21 20  2  0
 23 22  1  0
 24 23  1  6
 24 25  1  0
 26 24  1  0
 26 27  1  0
 28 26  2  0
M  END
$$$$
