HRS.pdb
     RDKit          3D

 28 28  0  0  1  0  0  0  0  0999 V2000
    8.3441  -17.8428   18.8328 N   0  0  0  0  0  0  0  0  0  0  0  0
    9.1155  -16.9498   19.6381 C   0  0  1  0  0  0  0  0  0  0  0  0
    8.2641  -15.9524   20.3360 C   0  0  0  0  0  0  0  0  0  0  0  0
    8.4491  -14.6189   19.7093 C   0  0  0  0  0  0  0  0  0  0  0  0
    9.2422  -14.3464   18.6018 C   0  0  0  0  0  0  0  0  0  0  0  0
    9.1550  -13.0473   18.3410 N   0  0  0  0  0  0  0  0  0  0  0  0
    8.3439  -12.4711   19.2279 C   0  0  0  0  0  0  0  0  0  0  0  0
    7.9141  -13.4324   20.0619 N   0  0  0  0  0  0  0  0  0  0  0  0
   10.0586  -17.6714   20.5028 C   0  0  0  0  0  0  0  0  0  0  0  0
    9.7891  -18.7939   21.0299 O   0  0  0  0  0  0  0  0  0  0  0  0
   14.4615  -15.7554   17.1779 N   0  0  0  0  0  0  0  0  0  0  0  0
   14.5501  -14.5257   17.9276 C   0  0  0  0  0  0  0  0  0  0  0  0
   14.3325  -13.4125   17.3194 N   0  0  0  0  0  0  0  0  0  0  0  0
   14.8680  -14.5007   19.3033 N   0  0  0  0  0  0  0  0  0  0  0  0
   14.9560  -15.6937   20.1226 C   0  0  0  0  0  0  0  0  0  0  0  0
   13.5401  -16.1721   20.3717 C   0  0  0  0  0  0  0  0  0  0  0  0
   13.6482  -17.3267   21.3540 C   0  0  0  0  0  0  0  0  0  0  0  0
   12.2779  -17.8232   21.7022 C   0  0  2  0  0  0  0  0  0  0  0  0
   11.3336  -17.1445   20.7984 N   0  0  0  0  0  0  0  0  0  0  0  0
   12.0015  -17.3567   23.0991 C   0  0  0  0  0  0  0  0  0  0  0  0
   12.4449  -16.2422   23.4671 O   0  0  0  0  0  0  0  0  0  0  0  0
   14.2974  -12.5268   17.8374 O   0  0  0  0  0  0  0  0  0  0  0  0
    8.9913  -18.6730   25.1987 C   0  0  0  0  0  0  0  0  0  0  0  0
    9.6324  -17.5206   25.6499 C   0  0  1  0  0  0  0  0  0  0  0  0
   11.1122  -17.6885   25.3688 N   0  0  0  0  0  0  0  0  0  0  0  0
   11.2544  -18.1437   24.0079 C   0  0  0  0  0  0  0  0  0  0  0  0
   11.7213  -18.7036   26.2657 O   0  0  0  0  0  0  0  0  0  0  0  0
   11.7599  -18.4826   27.6419 O   0  0  0  0  0  0  0  0  0  0  0  0
  2  9  1  0
  2  1  1  1
  3  2  1  0
  4  3  1  0
  5  4  2  0
  6  7  1  0
  6  5  1  0
  7  8  2  0
  8  4  1  0
  9 10  2  0
 12 14  1  0
 12 11  1  0
 13 12  2  0
 15 14  1  0
 16 15  1  0
 17 16  1  0
 18 17  1  6
 19  9  1  0
 19 18  1  0
 20 25  1  0
 20 18  1  0
 21 20  2  0
 23 22  1  0
 24 23  1  6
 24 25  1  0
 26 24  1  0
 26 27  1  0
 28 26  2  0
M  END
$$$$
