HRS.pdb
     RDKit          3D

 28 28  0  0  1  0  0  0  0  0999 V2000
    7.9703  -16.8432   19.9919 N   0  0  0  0  0  0  0  0  0  0  0  0
    8.9331  -16.3472   20.9237 C   0  0  1  0  0  0  0  0  0  0  0  0
    8.4063  -15.2053   21.7144 C   0  0  0  0  0  0  0  0  0  0  0  0
    8.0208  -14.1037   20.7963 C   0  0  0  0  0  0  0  0  0  0  0  0
    6.8825  -14.0720   20.0006 C   0  0  0  0  0  0  0  0  0  0  0  0
    6.8849  -12.9310   19.3214 N   0  0  0  0  0  0  0  0  0  0  0  0
    7.9703  -12.2271   19.6422 C   0  0  0  0  0  0  0  0  0  0  0  0
    8.6621  -12.9449   20.5427 N   0  0  0  0  0  0  0  0  0  0  0  0
    9.5292  -17.4284   21.7197 C   0  0  0  0  0  0  0  0  0  0  0  0
    8.8345  -18.2871   22.3446 O   0  0  0  0  0  0  0  0  0  0  0  0
   12.7130  -22.3066   19.3442 N   0  0  0  0  0  0  0  0  0  0  0  0
   13.8799  -22.7827   20.0468 C   0  0  0  0  0  0  0  0  0  0  0  0
   14.1535  -24.0398   20.0125 N   0  0  0  0  0  0  0  0  0  0  0  0
   14.7306  -21.9188   20.7709 N   0  0  0  0  0  0  0  0  0  0  0  0
   14.4605  -20.5065   20.9573 C   0  0  0  0  0  0  0  0  0  0  0  0
   13.1524  -20.3960   21.7139 C   0  0  0  0  0  0  0  0  0  0  0  0
   12.9018  -18.9107   21.9150 C   0  0  0  0  0  0  0  0  0  0  0  0
   11.5524  -18.7056   22.5335 C   0  0  2  0  0  0  0  0  0  0  0  0
   10.9284  -17.5697   21.8338 N   0  0  0  0  0  0  0  0  0  0  0  0
   11.7962  -18.2991   23.9549 C   0  0  0  0  0  0  0  0  0  0  0  0
   12.3226  -17.1841   24.1870 O   0  0  0  0  0  0  0  0  0  0  0  0
   14.9670  -24.4162   20.5133 O   0  0  0  0  0  0  0  0  0  0  0  0
   10.4571  -18.1541   28.3432 C   0  0  0  0  0  0  0  0  0  0  0  0
   10.2696  -18.4222   26.9882 C   0  0  1  0  0  0  0  0  0  0  0  0
   11.6379  -18.6636   26.3829 N   0  0  0  0  0  0  0  0  0  0  0  0
   11.4469  -19.1430   25.0363 C   0  0  0  0  0  0  0  0  0  0  0  0
   12.3911  -19.6943   27.1421 O   0  0  0  0  0  0  0  0  0  0  0  0
   12.8058  -19.4324   28.4472 O   0  0  0  0  0  0  0  0  0  0  0  0
  2  9  1  0
  2  1  1  1
  3  2  1  0
  4  3  1  0
  5  4  2  0
  6  7  1  0
  6  5  1  0
  7  8  2  0
  8  4  1  0
  9 10  2  0
 12 14  1  0
 12 11  1  0
 13 12  2  0
 15 14  1  0
 16 15  1  0
 17 16  1  0
 18 17  1  6
 19  9  1  0
 19 18  1  0
 20 25  1  0
 20 18  1  0
 21 20  2  0
 23 22  1  0
 24 23  1  6
 24 25  1  0
 26 24  1  0
 26 27  1  0
 28 26  2  0
M  END
$$$$
