HRS.pdb
     RDKit          3D

 28 28  0  0  1  0  0  0  0  0999 V2000
   14.8092  -14.2269   17.3943 N   0  0  0  0  0  0  0  0  0  0  0  0
   13.6252  -14.9524   17.7303 C   0  0  1  0  0  0  0  0  0  0  0  0
   13.6956  -16.3689   17.2883 C   0  0  0  0  0  0  0  0  0  0  0  0
   13.6542  -16.4271   15.8050 C   0  0  0  0  0  0  0  0  0  0  0  0
   14.7464  -16.6294   14.9707 C   0  0  0  0  0  0  0  0  0  0  0  0
   14.3149  -16.6166   13.7150 N   0  0  0  0  0  0  0  0  0  0  0  0
   12.9973  -16.4158   13.7017 C   0  0  0  0  0  0  0  0  0  0  0  0
   12.5963  -16.3005   14.9785 N   0  0  0  0  0  0  0  0  0  0  0  0
   13.2490  -14.7612   19.1373 C   0  0  0  0  0  0  0  0  0  0  0  0
   14.0871  -14.8207   20.0884 O   0  0  0  0  0  0  0  0  0  0  0  0
    7.9286  -12.3688   17.0444 N   0  0  0  0  0  0  0  0  0  0  0  0
    7.5572  -13.7552   17.1922 C   0  0  0  0  0  0  0  0  0  0  0  0
    7.4296  -14.4783   16.1352 N   0  0  0  0  0  0  0  0  0  0  0  0
    7.3279  -14.3457   18.4545 N   0  0  0  0  0  0  0  0  0  0  0  0
    7.9749  -13.8986   19.6726 C   0  0  0  0  0  0  0  0  0  0  0  0
    9.4317  -14.3054   19.5820 C   0  0  0  0  0  0  0  0  0  0  0  0
   10.0677  -13.9051   20.9029 C   0  0  0  0  0  0  0  0  0  0  0  0
   11.5083  -14.3174   20.9149 C   0  0  2  0  0  0  0  0  0  0  0  0
   11.9140  -14.4985   19.5106 N   0  0  0  0  0  0  0  0  0  0  0  0
   11.5599  -15.6541   21.5899 C   0  0  0  0  0  0  0  0  0  0  0  0
   11.3820  -16.6893   20.9038 O   0  0  0  0  0  0  0  0  0  0  0  0
    7.2550  -15.4877   16.2048 O   0  0  0  0  0  0  0  0  0  0  0  0
   13.2207  -18.5921   24.7047 C   0  0  0  0  0  0  0  0  0  0  0  0
   13.2183  -17.3281   24.1173 C   0  0  1  0  0  0  0  0  0  0  0  0
   11.8248  -17.0870   23.5722 N   0  0  0  0  0  0  0  0  0  0  0  0
   11.8037  -15.7727   22.9792 C   0  0  0  0  0  0  0  0  0  0  0  0
   10.8069  -17.1270   24.6531 O   0  0  0  0  0  0  0  0  0  0  0  0
   10.6175  -18.2969   25.3876 O   0  0  0  0  0  0  0  0  0  0  0  0
  2  9  1  0
  2  1  1  1
  3  2  1  0
  4  3  1  0
  5  4  2  0
  6  7  1  0
  6  5  1  0
  7  8  2  0
  8  4  1  0
  9 10  2  0
 12 14  1  0
 12 11  1  0
 13 12  2  0
 15 14  1  0
 16 15  1  0
 17 16  1  0
 18 17  1  6
 19  9  1  0
 19 18  1  0
 20 25  1  0
 20 18  1  0
 21 20  2  0
 23 22  1  0
 24 23  1  6
 24 25  1  0
 26 24  1  0
 26 27  1  0
 28 26  2  0
M  END
$$$$
