HRS.pdb
     RDKit          3D

 28 28  0  0  1  0  0  0  0  0999 V2000
    6.7134  -16.3007   19.6715 N   0  0  0  0  0  0  0  0  0  0  0  0
    7.6780  -15.5650   20.4261 C   0  0  1  0  0  0  0  0  0  0  0  0
    7.7060  -14.1294   20.0453 C   0  0  0  0  0  0  0  0  0  0  0  0
    8.0191  -14.0071   18.5989 C   0  0  0  0  0  0  0  0  0  0  0  0
    7.1623  -13.5144   17.6226 C   0  0  0  0  0  0  0  0  0  0  0  0
    7.7941  -13.5633   16.4557 N   0  0  0  0  0  0  0  0  0  0  0  0
    9.0163  -14.0639   16.6346 C   0  0  0  0  0  0  0  0  0  0  0  0
    9.1514  -14.3340   17.9435 N   0  0  0  0  0  0  0  0  0  0  0  0
    7.5537  -15.8206   21.8672 C   0  0  0  0  0  0  0  0  0  0  0  0
    6.4396  -16.0397   22.4342 O   0  0  0  0  0  0  0  0  0  0  0  0
   12.6554  -16.4922   28.7172 N   0  0  0  0  0  0  0  0  0  0  0  0
   11.3835  -17.1692   28.7928 C   0  0  0  0  0  0  0  0  0  0  0  0
   10.5922  -16.8934   29.7697 N   0  0  0  0  0  0  0  0  0  0  0  0
   10.9772  -18.1235   27.8344 N   0  0  0  0  0  0  0  0  0  0  0  0
   10.9957  -17.8758   26.4059 C   0  0  0  0  0  0  0  0  0  0  0  0
    9.7894  -17.0172   26.0840 C   0  0  0  0  0  0  0  0  0  0  0  0
    9.7686  -16.8632   24.5723 C   0  0  0  0  0  0  0  0  0  0  0  0
    8.5828  -16.0426   24.1647 C   0  0  2  0  0  0  0  0  0  0  0  0
    8.6849  -15.8346   22.7102 N   0  0  0  0  0  0  0  0  0  0  0  0
    8.7383  -14.7123   24.8367 C   0  0  0  0  0  0  0  0  0  0  0  0
    9.7378  -14.0053   24.5622 O   0  0  0  0  0  0  0  0  0  0  0  0
    9.6930  -17.3782   29.8729 O   0  0  0  0  0  0  0  0  0  0  0  0
    5.7601  -13.1134   27.0452 C   0  0  0  0  0  0  0  0  0  0  0  0
    6.6866  -12.2383   26.4808 C   0  0  1  0  0  0  0  0  0  0  0  0
    8.0131  -12.9684   26.4132 N   0  0  0  0  0  0  0  0  0  0  0  0
    7.7856  -14.2391   25.7705 C   0  0  0  0  0  0  0  0  0  0  0  0
    8.5597  -13.2239   27.7704 O   0  0  0  0  0  0  0  0  0  0  0  0
    8.9079  -12.1534   28.5931 O   0  0  0  0  0  0  0  0  0  0  0  0
  2  9  1  0
  2  1  1  6
  3  2  1  0
  4  3  1  0
  5  4  2  0
  6  7  1  0
  6  5  1  0
  7  8  2  0
  8  4  1  0
  9 10  2  0
 12 14  1  0
 12 11  1  0
 13 12  2  0
 15 14  1  0
 16 15  1  0
 17 16  1  0
 18 17  1  1
 19  9  1  0
 19 18  1  0
 20 25  1  0
 20 18  1  0
 21 20  2  0
 23 22  1  0
 24 23  1  6
 24 25  1  0
 26 24  1  0
 26 27  1  0
 28 26  2  0
M  END
$$$$
