HRS.pdb
     RDKit          3D

 28 28  0  0  1  0  0  0  0  0999 V2000
    8.0181  -17.0338   19.2099 N   0  0  0  0  0  0  0  0  0  0  0  0
    8.8775  -16.4079   20.1643 C   0  0  1  0  0  0  0  0  0  0  0  0
    8.2364  -15.2298   20.8027 C   0  0  0  0  0  0  0  0  0  0  0  0
    7.8730  -14.2379   19.7590 C   0  0  0  0  0  0  0  0  0  0  0  0
    8.0659  -14.3918   18.3919 C   0  0  0  0  0  0  0  0  0  0  0  0
    7.6185  -13.2981   17.7860 N   0  0  0  0  0  0  0  0  0  0  0  0
    7.1471  -12.4482   18.6980 C   0  0  0  0  0  0  0  0  0  0  0  0
    7.3034  -13.0240   19.9016 N   0  0  0  0  0  0  0  0  0  0  0  0
    9.4539  -17.3819   21.1007 C   0  0  0  0  0  0  0  0  0  0  0  0
    8.7809  -18.3302   21.6090 O   0  0  0  0  0  0  0  0  0  0  0  0
   12.9202  -21.2499   17.5748 N   0  0  0  0  0  0  0  0  0  0  0  0
   13.6486  -20.0108   17.7011 C   0  0  0  0  0  0  0  0  0  0  0  0
   13.8117  -19.2788   16.6552 N   0  0  0  0  0  0  0  0  0  0  0  0
   14.1893  -19.5741   18.9305 N   0  0  0  0  0  0  0  0  0  0  0  0
   13.8399  -20.1629   20.2086 C   0  0  0  0  0  0  0  0  0  0  0  0
   12.4857  -19.6090   20.6025 C   0  0  0  0  0  0  0  0  0  0  0  0
   12.7299  -18.6955   21.7922 C   0  0  0  0  0  0  0  0  0  0  0  0
   11.4193  -18.2966   22.3997 C   0  0  2  0  0  0  0  0  0  0  0  0
   10.8078  -17.3117   21.4912 N   0  0  0  0  0  0  0  0  0  0  0  0
   11.7440  -17.6027   23.6874 C   0  0  0  0  0  0  0  0  0  0  0  0
   12.5106  -16.6097   23.6668 O   0  0  0  0  0  0  0  0  0  0  0  0
   14.3326  -18.3955   16.7059 O   0  0  0  0  0  0  0  0  0  0  0  0
    9.4052  -17.2317   26.6393 C   0  0  0  0  0  0  0  0  0  0  0  0
   10.6034  -16.5200   26.6628 C   0  0  1  0  0  0  0  0  0  0  0  0
   11.6865  -17.4434   26.1418 N   0  0  0  0  0  0  0  0  0  0  0  0
   11.2066  -18.0423   24.9209 C   0  0  0  0  0  0  0  0  0  0  0  0
   11.9819  -18.5307   27.1095 O   0  0  0  0  0  0  0  0  0  0  0  0
   11.7275  -19.8574   26.7644 O   0  0  0  0  0  0  0  0  0  0  0  0
  2  9  1  0
  2  1  1  1
  3  2  1  0
  4  3  1  0
  5  4  2  0
  6  7  1  0
  6  5  1  0
  7  8  2  0
  8  4  1  0
  9 10  2  0
 12 14  1  0
 12 11  1  0
 13 12  2  0
 15 14  1  0
 16 15  1  0
 17 16  1  0
 18 17  1  6
 19  9  1  0
 19 18  1  0
 20 25  1  0
 20 18  1  0
 21 20  2  0
 23 22  1  0
 24 23  1  6
 24 25  1  0
 26 24  1  0
 26 27  1  0
 28 26  2  0
M  END
$$$$
