HRS.pdb
     RDKit          3D

 28 28  0  0  1  0  0  0  0  0999 V2000
    6.7414  -17.2511   26.4512 N   0  0  0  0  0  0  0  0  0  0  0  0
    7.0868  -16.0580   25.7453 C   0  0  1  0  0  0  0  0  0  0  0  0
    8.0259  -15.2054   26.5185 C   0  0  0  0  0  0  0  0  0  0  0  0
    7.4257  -13.8616   26.7167 C   0  0  0  0  0  0  0  0  0  0  0  0
    6.1927  -13.4446   26.2311 C   0  0  0  0  0  0  0  0  0  0  0  0
    6.0039  -12.1860   26.6097 N   0  0  0  0  0  0  0  0  0  0  0  0
    7.0564  -11.7734   27.3157 C   0  0  0  0  0  0  0  0  0  0  0  0
    7.9229  -12.7979   27.3798 N   0  0  0  0  0  0  0  0  0  0  0  0
    7.5018  -16.3415   24.3651 C   0  0  0  0  0  0  0  0  0  0  0  0
    7.8291  -17.5018   23.9689 O   0  0  0  0  0  0  0  0  0  0  0  0
    9.7498  -14.9343   17.3933 N   0  0  0  0  0  0  0  0  0  0  0  0
    8.5249  -14.3049   16.9628 C   0  0  0  0  0  0  0  0  0  0  0  0
    8.1051  -14.5210   15.7655 N   0  0  0  0  0  0  0  0  0  0  0  0
    7.7719  -13.4602   17.8076 N   0  0  0  0  0  0  0  0  0  0  0  0
    8.1758  -13.1182   19.1575 C   0  0  0  0  0  0  0  0  0  0  0  0
    8.4707  -14.4169   19.8801 C   0  0  0  0  0  0  0  0  0  0  0  0
    7.8484  -14.2861   21.2604 C   0  0  0  0  0  0  0  0  0  0  0  0
    8.0203  -15.5692   22.0152 C   0  0  2  0  0  0  0  0  0  0  0  0
    7.5604  -15.3212   23.3923 N   0  0  0  0  0  0  0  0  0  0  0  0
    9.4934  -15.8401   22.0586 C   0  0  0  0  0  0  0  0  0  0  0  0
   10.2268  -15.1039   22.7615 O   0  0  0  0  0  0  0  0  0  0  0  0
    7.2680  -14.0471   15.4067 O   0  0  0  0  0  0  0  0  0  0  0  0
   10.9928  -19.3340   21.6043 C   0  0  0  0  0  0  0  0  0  0  0  0
   11.8244  -18.3327   22.1030 C   0  0  1  0  0  0  0  0  0  0  0  0
   11.5053  -17.0613   21.3422 N   0  0  0  0  0  0  0  0  0  0  0  0
   10.0719  -16.9042   21.3261 C   0  0  0  0  0  0  0  0  0  0  0  0
   11.9815  -17.1376   19.9374 O   0  0  0  0  0  0  0  0  0  0  0  0
   13.3490  -17.1706   19.6671 O   0  0  0  0  0  0  0  0  0  0  0  0
  2  9  1  0
  2  1  1  1
  3  2  1  0
  4  3  1  0
  5  4  2  0
  6  7  1  0
  6  5  1  0
  7  8  2  0
  8  4  1  0
  9 10  2  0
 12 14  1  0
 12 11  1  0
 13 12  2  0
 15 14  1  0
 16 15  1  0
 17 16  1  0
 18 17  1  6
 19  9  1  0
 19 18  1  0
 20 25  1  0
 20 18  1  0
 21 20  2  0
 23 22  1  0
 24 23  1  1
 24 25  1  0
 26 24  1  0
 26 27  1  0
 28 26  2  0
M  END
$$$$
