WMP.pdb
     RDKit          3D

 30 32  0  0  1  0  0  0  0  0999 V2000
    7.2852  -17.9942   25.7689 N   0  0  0  0  0  0  0  0  0  0  0  0
    7.1629  -16.7378   25.0352 C   0  0  1  0  0  0  0  0  0  0  0  0
    8.4344  -15.9631   25.2636 C   0  0  0  0  0  0  0  0  0  0  0  0
    8.1178  -15.0362   26.4159 C   0  0  0  0  0  0  0  0  0  0  0  0
    8.4646  -15.1936   27.7309 C   0  0  0  0  0  0  0  0  0  0  0  0
    7.9860  -14.1470   28.4167 N   0  0  0  0  0  0  0  0  0  0  0  0
    7.3290  -13.2949   27.5933 C   0  0  0  0  0  0  0  0  0  0  0  0
    6.6702  -12.0893   27.8315 C   0  0  0  0  0  0  0  0  0  0  0  0
    6.0721  -11.4126   26.7879 C   0  0  0  0  0  0  0  0  0  0  0  0
    6.1608  -11.9810   25.5345 C   0  0  0  0  0  0  0  0  0  0  0  0
    6.8105  -13.1725   25.2924 C   0  0  0  0  0  0  0  0  0  0  0  0
    7.4130  -13.8553   26.3377 C   0  0  0  0  0  0  0  0  0  0  0  0
    6.8924  -17.0206   23.5940 C   0  0  0  0  0  0  0  0  0  0  0  0
    5.7268  -16.9314   23.1111 O   0  0  0  0  0  0  0  0  0  0  0  0
    8.3855  -12.0028   22.0846 C   0  0  0  0  0  0  0  0  0  0  0  0
    8.3223  -12.7015   20.4746 S   0  0  0  0  0  0  0  0  0  0  0  0
    8.2036  -14.4712   20.3026 C   0  0  0  0  0  0  0  0  0  0  0  0
    8.1419  -15.2827   21.5303 C   0  0  0  0  0  0  0  0  0  0  0  0
    8.0240  -16.7634   21.3683 C   0  0  2  0  0  0  0  0  0  0  0  0
    7.9082  -17.4000   22.6847 N   0  0  0  0  0  0  0  0  0  0  0  0
    9.0479  -17.3719   20.5105 C   0  0  0  0  0  0  0  0  0  0  0  0
   10.2706  -17.2036   20.8844 O   0  0  0  0  0  0  0  0  0  0  0  0
    8.9126  -18.1227   19.3189 N   0  0  0  0  0  0  0  0  0  0  0  0
    7.6594  -18.4031   18.6651 C   0  0  0  0  0  0  0  0  0  0  0  0
    7.9811  -19.3391   17.5046 C   0  0  0  0  0  0  0  0  0  0  0  0
    9.3707  -18.8860   17.1613 C   0  0  0  0  0  0  0  0  0  0  0  0
    9.9707  -18.7173   18.5644 C   0  0  1  0  0  0  0  0  0  0  0  0
   11.2051  -17.9091   18.4459 C   0  0  0  0  0  0  0  0  0  0  0  0
   12.3854  -18.5476   18.1346 O   0  0  0  0  0  0  0  0  0  0  0  0
   11.1857  -16.6878   18.6209 O   0  0  0  0  0  0  0  0  0  0  0  0
  2  1  1  1
  2 13  1  0
  2  3  1  0
  3  4  1  0
  4 12  1  0
  4  5  2  0
  5  6  1  0
  7  6  1  0
  7  8  2  0
  9  8  1  0
 10  9  2  0
 11 12  2  0
 11 10  1  0
 12  7  1  0
 13 14  2  0
 16 15  1  0
 17 16  1  0
 18 17  1  0
 19 18  1  1
 20 19  1  0
 20 13  1  0
 21 19  1  0
 21 23  1  0
 22 21  2  0
 23 24  1  0
 25 24  1  0
 26 27  1  0
 26 25  1  0
 27 23  1  0
 27 28  1  6
 29 28  1  0
 30 28  2  0
M  END
$$$$
