WMP.pdb
     RDKit          3D

 30 32  0  0  1  0  0  0  0  0999 V2000
    7.2394  -19.8264   26.2817 N   0  0  0  0  0  0  0  0  0  0  0  0
    7.8636  -18.5437   26.5926 C   0  0  1  0  0  0  0  0  0  0  0  0
    9.3425  -18.7911   26.7359 C   0  0  0  0  0  0  0  0  0  0  0  0
    9.7507  -17.9866   27.9498 C   0  0  0  0  0  0  0  0  0  0  0  0
   10.0403  -18.4577   29.2021 C   0  0  0  0  0  0  0  0  0  0  0  0
   10.3537  -17.4121   29.9790 N   0  0  0  0  0  0  0  0  0  0  0  0
   10.2809  -16.2553   29.2773 C   0  0  0  0  0  0  0  0  0  0  0  0
   10.5104  -14.9286   29.6394 C   0  0  0  0  0  0  0  0  0  0  0  0
   10.3594  -13.9232   28.7060 C   0  0  0  0  0  0  0  0  0  0  0  0
    9.9796  -14.2958   27.4337 C   0  0  0  0  0  0  0  0  0  0  0  0
    9.7512  -15.6056   27.0693 C   0  0  0  0  0  0  0  0  0  0  0  0
    9.9021  -16.6187   28.0037 C   0  0  0  0  0  0  0  0  0  0  0  0
    7.5296  -17.5502   25.5288 C   0  0  0  0  0  0  0  0  0  0  0  0
    7.1396  -17.9161   24.3825 O   0  0  0  0  0  0  0  0  0  0  0  0
    6.8782  -10.5259   25.9659 C   0  0  0  0  0  0  0  0  0  0  0  0
    6.0915  -11.8632   26.7887 S   0  0  0  0  0  0  0  0  0  0  0  0
    6.1328  -13.4822   26.0453 C   0  0  0  0  0  0  0  0  0  0  0  0
    7.2783  -13.8179   25.1823 C   0  0  0  0  0  0  0  0  0  0  0  0
    7.3450  -15.2093   24.6418 C   0  0  2  0  0  0  0  0  0  0  0  0
    7.6241  -16.1526   25.7299 N   0  0  0  0  0  0  0  0  0  0  0  0
    8.2265  -15.3765   23.4801 C   0  0  0  0  0  0  0  0  0  0  0  0
    9.3635  -15.9397   23.7106 O   0  0  0  0  0  0  0  0  0  0  0  0
    8.0326  -15.0124   22.1267 N   0  0  0  0  0  0  0  0  0  0  0  0
    6.8357  -14.4018   21.6060 C   0  0  0  0  0  0  0  0  0  0  0  0
    7.0245  -14.3079   20.0953 C   0  0  0  0  0  0  0  0  0  0  0  0
    8.5150  -14.1491   20.0126 C   0  0  0  0  0  0  0  0  0  0  0  0
    8.9700  -15.1749   21.0603 C   0  0  1  0  0  0  0  0  0  0  0  0
   10.3827  -14.8931   21.4012 C   0  0  0  0  0  0  0  0  0  0  0  0
   11.3660  -15.2870   20.5206 O   0  0  0  0  0  0  0  0  0  0  0  0
   10.6815  -14.3173   22.4509 O   0  0  0  0  0  0  0  0  0  0  0  0
  2  1  1  6
  2 13  1  0
  2  3  1  0
  3  4  1  0
  4 12  1  0
  4  5  2  0
  5  6  1  0
  7  6  1  0
  7  8  2  0
  9  8  1  0
 10  9  2  0
 11 12  2  0
 11 10  1  0
 12  7  1  0
 13 14  2  0
 16 15  1  0
 17 16  1  0
 18 17  1  0
 19 18  1  1
 20 19  1  0
 20 13  1  0
 21 19  1  0
 21 23  1  0
 22 21  2  0
 23 24  1  0
 25 24  1  0
 26 27  1  0
 26 25  1  0
 27 23  1  0
 27 28  1  1
 29 28  1  0
 30 28  2  0
M  END
$$$$
