WMP.pdb
     RDKit          3D

 30 32  0  0  1  0  0  0  0  0999 V2000
    6.7391  -18.8208   26.0971 N   0  0  0  0  0  0  0  0  0  0  0  0
    7.6605  -17.6888   26.0619 C   0  0  1  0  0  0  0  0  0  0  0  0
    9.0543  -18.2518   25.9663 C   0  0  0  0  0  0  0  0  0  0  0  0
    9.7813  -17.6836   27.1646 C   0  0  0  0  0  0  0  0  0  0  0  0
   10.1566  -18.3463   28.3022 C   0  0  0  0  0  0  0  0  0  0  0  0
   10.7731  -17.4730   29.1097 N   0  0  0  0  0  0  0  0  0  0  0  0
   10.8192  -16.2444   28.5402 C   0  0  0  0  0  0  0  0  0  0  0  0
   11.3468  -15.0313   28.9805 C   0  0  0  0  0  0  0  0  0  0  0  0
   11.2542  -13.9090   28.1826 C   0  0  0  0  0  0  0  0  0  0  0  0
   10.6284  -14.0529   26.9622 C   0  0  0  0  0  0  0  0  0  0  0  0
   10.1047  -15.2493   26.5210 C   0  0  0  0  0  0  0  0  0  0  0  0
   10.1958  -16.3792   27.3192 C   0  0  0  0  0  0  0  0  0  0  0  0
    7.3068  -16.7867   24.9255 C   0  0  0  0  0  0  0  0  0  0  0  0
    6.6070  -17.1927   23.9533 O   0  0  0  0  0  0  0  0  0  0  0  0
    5.2469  -11.1163   27.2502 C   0  0  0  0  0  0  0  0  0  0  0  0
    6.5951  -11.6221   26.2449 S   0  0  0  0  0  0  0  0  0  0  0  0
    6.2805  -12.6658   24.8352 C   0  0  0  0  0  0  0  0  0  0  0  0
    7.4375  -13.1635   24.0714 C   0  0  0  0  0  0  0  0  0  0  0  0
    7.4353  -14.6074   23.6867 C   0  0  2  0  0  0  0  0  0  0  0  0
    7.7236  -15.4357   24.8624 N   0  0  0  0  0  0  0  0  0  0  0  0
    8.2647  -14.9347   22.5209 C   0  0  0  0  0  0  0  0  0  0  0  0
    9.3000  -15.6680   22.7525 O   0  0  0  0  0  0  0  0  0  0  0  0
    8.1152  -14.5695   21.1621 N   0  0  0  0  0  0  0  0  0  0  0  0
    6.9367  -13.9567   20.6034 C   0  0  0  0  0  0  0  0  0  0  0  0
    7.1743  -13.8622   19.0997 C   0  0  0  0  0  0  0  0  0  0  0  0
    8.6670  -13.7055   19.0652 C   0  0  0  0  0  0  0  0  0  0  0  0
    9.0864  -14.7327   20.1265 C   0  0  1  0  0  0  0  0  0  0  0  0
   10.4877  -14.4532   20.5130 C   0  0  0  0  0  0  0  0  0  0  0  0
   10.7347  -13.4442   21.4178 O   0  0  0  0  0  0  0  0  0  0  0  0
   11.4211  -15.1063   20.0390 O   0  0  0  0  0  0  0  0  0  0  0  0
  2  1  1  6
  2 13  1  0
  2  3  1  0
  3  4  1  0
  4 12  1  0
  4  5  2  0
  5  6  1  0
  7  6  1  0
  7  8  2  0
  9  8  1  0
 10  9  2  0
 11 12  2  0
 11 10  1  0
 12  7  1  0
 13 14  2  0
 16 15  1  0
 17 16  1  0
 18 17  1  0
 19 18  1  1
 20 19  1  0
 20 13  1  0
 21 19  1  0
 21 23  1  0
 22 21  2  0
 23 24  1  0
 25 24  1  0
 26 27  1  0
 26 25  1  0
 27 23  1  0
 27 28  1  1
 29 28  1  0
 30 28  2  0
M  END
$$$$
