WMP.pdb
     RDKit          3D

 30 32  0  0  1  0  0  0  0  0999 V2000
    6.3725  -17.7562   25.9694 N   0  0  0  0  0  0  0  0  0  0  0  0
    7.0831  -16.6115   25.4068 C   0  0  1  0  0  0  0  0  0  0  0  0
    8.4136  -16.5250   26.1076 C   0  0  0  0  0  0  0  0  0  0  0  0
    8.3085  -15.2948   26.9811 C   0  0  0  0  0  0  0  0  0  0  0  0
    8.6683  -15.1742   28.2965 C   0  0  0  0  0  0  0  0  0  0  0  0
    8.4086  -13.9191   28.6867 N   0  0  0  0  0  0  0  0  0  0  0  0
    7.8849  -13.1989   27.6655 C   0  0  0  0  0  0  0  0  0  0  0  0
    7.4603  -11.8735   27.5803 C   0  0  0  0  0  0  0  0  0  0  0  0
    6.9555  -11.3864   26.3917 C   0  0  0  0  0  0  0  0  0  0  0  0
    6.8968  -12.2601   25.3263 C   0  0  0  0  0  0  0  0  0  0  0  0
    7.3148  -13.5714   25.4041 C   0  0  0  0  0  0  0  0  0  0  0  0
    7.8230  -14.0648   26.5959 C   0  0  0  0  0  0  0  0  0  0  0  0
    7.2025  -16.7708   23.9267 C   0  0  0  0  0  0  0  0  0  0  0  0
    7.2719  -17.9135   23.3890 O   0  0  0  0  0  0  0  0  0  0  0  0
    6.4265  -12.0514   18.8005 C   0  0  0  0  0  0  0  0  0  0  0  0
    7.9320  -12.9444   18.6579 S   0  0  0  0  0  0  0  0  0  0  0  0
    8.1221  -14.4708   19.5574 C   0  0  0  0  0  0  0  0  0  0  0  0
    7.7114  -14.4958   20.9717 C   0  0  0  0  0  0  0  0  0  0  0  0
    7.7963  -15.8048   21.6873 C   0  0  2  0  0  0  0  0  0  0  0  0
    7.2436  -15.6692   23.0393 N   0  0  0  0  0  0  0  0  0  0  0  0
    9.1197  -16.4387   21.6555 C   0  0  0  0  0  0  0  0  0  0  0  0
   10.0141  -15.9173   22.4245 O   0  0  0  0  0  0  0  0  0  0  0  0
    9.5850  -17.5443   20.9050 N   0  0  0  0  0  0  0  0  0  0  0  0
    8.7441  -18.4187   20.1272 C   0  0  0  0  0  0  0  0  0  0  0  0
    9.6490  -19.5287   19.6024 C   0  0  0  0  0  0  0  0  0  0  0  0
   10.9498  -18.7895   19.4787 C   0  0  0  0  0  0  0  0  0  0  0  0
   10.9414  -17.9770   20.7813 C   0  0  1  0  0  0  0  0  0  0  0  0
   11.9489  -16.8992   20.6613 C   0  0  0  0  0  0  0  0  0  0  0  0
   13.2840  -17.2381   20.6783 O   0  0  0  0  0  0  0  0  0  0  0  0
   11.6078  -15.7188   20.5479 O   0  0  0  0  0  0  0  0  0  0  0  0
  2  1  1  1
  2 13  1  0
  2  3  1  0
  3  4  1  0
  4 12  1  0
  4  5  2  0
  5  6  1  0
  7  6  1  0
  7  8  2  0
  9  8  1  0
 10  9  2  0
 11 12  2  0
 11 10  1  0
 12  7  1  0
 13 14  2  0
 16 15  1  0
 17 16  1  0
 18 17  1  0
 19 18  1  1
 20 19  1  0
 20 13  1  0
 21 19  1  0
 21 23  1  0
 22 21  2  0
 23 24  1  0
 25 24  1  0
 26 27  1  0
 26 25  1  0
 27 23  1  0
 27 28  1  6
 29 28  1  0
 30 28  2  0
M  END
$$$$
