WMP.pdb
     RDKit          3D

 30 32  0  0  1  0  0  0  0  0999 V2000
    5.7581  -19.1769   21.2530 N   0  0  0  0  0  0  0  0  0  0  0  0
    6.5787  -17.9846   21.4447 C   0  0  1  0  0  0  0  0  0  0  0  0
    6.1643  -16.9855   20.3964 C   0  0  0  0  0  0  0  0  0  0  0  0
    7.4089  -16.1680   20.1316 C   0  0  0  0  0  0  0  0  0  0  0  0
    8.6347  -16.6245   19.7276 C   0  0  0  0  0  0  0  0  0  0  0  0
    9.4549  -15.5714   19.6130 N   0  0  0  0  0  0  0  0  0  0  0  0
    8.8080  -14.4238   19.9298 C   0  0  0  0  0  0  0  0  0  0  0  0
    9.2280  -13.0946   19.9622 C   0  0  0  0  0  0  0  0  0  0  0  0
    8.3436  -12.1010   20.3303 C   0  0  0  0  0  0  0  0  0  0  0  0
    7.0602  -12.4876   20.6546 C   0  0  0  0  0  0  0  0  0  0  0  0
    6.6388  -13.7998   20.6246 C   0  0  0  0  0  0  0  0  0  0  0  0
    7.5237  -14.8010   20.2551 C   0  0  0  0  0  0  0  0  0  0  0  0
    6.4158  -17.4803   22.8409 C   0  0  0  0  0  0  0  0  0  0  0  0
    5.2795  -17.1725   23.3034 O   0  0  0  0  0  0  0  0  0  0  0  0
    8.9147  -20.0277   28.3574 C   0  0  0  0  0  0  0  0  0  0  0  0
    7.6579  -18.8511   28.7044 S   0  0  0  0  0  0  0  0  0  0  0  0
    7.2943  -17.5910   27.4980 C   0  0  0  0  0  0  0  0  0  0  0  0
    7.5426  -17.8997   26.0793 C   0  0  0  0  0  0  0  0  0  0  0  0
    7.3075  -16.8063   25.0884 C   0  0  2  0  0  0  0  0  0  0  0  0
    7.5065  -17.3171   23.7278 N   0  0  0  0  0  0  0  0  0  0  0  0
    8.0371  -15.5621   25.3603 C   0  0  0  0  0  0  0  0  0  0  0  0
    9.3084  -15.5947   25.1458 O   0  0  0  0  0  0  0  0  0  0  0  0
    7.5684  -14.3126   25.8303 N   0  0  0  0  0  0  0  0  0  0  0  0
    6.1820  -13.9221   25.8757 C   0  0  0  0  0  0  0  0  0  0  0  0
    6.1614  -12.4652   26.3268 C   0  0  0  0  0  0  0  0  0  0  0  0
    7.3863  -12.4272   27.1941 C   0  0  0  0  0  0  0  0  0  0  0  0
    8.3669  -13.2420   26.3387 C   0  0  1  0  0  0  0  0  0  0  0  0
    9.5054  -13.6435   27.1954 C   0  0  0  0  0  0  0  0  0  0  0  0
   10.4363  -12.6906   27.5464 O   0  0  0  0  0  0  0  0  0  0  0  0
    9.6253  -14.8060   27.5913 O   0  0  0  0  0  0  0  0  0  0  0  0
  2  1  1  1
  2 13  1  0
  2  3  1  0
  3  4  1  0
  4 12  1  0
  4  5  2  0
  5  6  1  0
  7  6  1  0
  7  8  2  0
  9  8  1  0
 10  9  2  0
 11 12  2  0
 11 10  1  0
 12  7  1  0
 13 14  2  0
 16 15  1  0
 17 16  1  0
 18 17  1  0
 19 18  1  1
 20 19  1  0
 20 13  1  0
 21 19  1  0
 21 23  1  0
 22 21  2  0
 23 24  1  0
 25 24  1  0
 26 27  1  0
 26 25  1  0
 27 23  1  0
 27 28  1  1
 29 28  1  0
 30 28  2  0
M  END
$$$$
