WMP.pdb
     RDKit          3D

 30 32  0  0  1  0  0  0  0  0999 V2000
    5.1192  -19.7444   22.3952 N   0  0  0  0  0  0  0  0  0  0  0  0
    5.8900  -19.2534   23.5338 C   0  0  1  0  0  0  0  0  0  0  0  0
    7.0214  -20.2224   23.7568 C   0  0  0  0  0  0  0  0  0  0  0  0
    6.5634  -21.0893   24.9084 C   0  0  0  0  0  0  0  0  0  0  0  0
    5.9462  -22.3093   24.8382 C   0  0  0  0  0  0  0  0  0  0  0  0
    5.7109  -22.7303   26.0881 N   0  0  0  0  0  0  0  0  0  0  0  0
    6.1553  -21.8228   26.9907 C   0  0  0  0  0  0  0  0  0  0  0  0
    6.1378  -21.8080   28.3848 C   0  0  0  0  0  0  0  0  0  0  0  0
    6.6695  -20.7342   29.0697 C   0  0  0  0  0  0  0  0  0  0  0  0
    7.2023  -19.7081   28.3179 C   0  0  0  0  0  0  0  0  0  0  0  0
    7.2227  -19.7166   26.9395 C   0  0  0  0  0  0  0  0  0  0  0  0
    6.6900  -20.7934   26.2476 C   0  0  0  0  0  0  0  0  0  0  0  0
    6.3494  -17.8577   23.2666 C   0  0  0  0  0  0  0  0  0  0  0  0
    7.0151  -17.5686   22.2306 O   0  0  0  0  0  0  0  0  0  0  0  0
    7.5148  -10.7490   26.8764 C   0  0  0  0  0  0  0  0  0  0  0  0
    6.6298  -12.2484   26.6469 S   0  0  0  0  0  0  0  0  0  0  0  0
    7.3080  -13.4987   25.5735 C   0  0  0  0  0  0  0  0  0  0  0  0
    6.4857  -14.6877   25.2909 C   0  0  0  0  0  0  0  0  0  0  0  0
    7.0133  -15.6643   24.2906 C   0  0  2  0  0  0  0  0  0  0  0  0
    6.0731  -16.7803   24.1415 N   0  0  0  0  0  0  0  0  0  0  0  0
    8.3988  -16.0912   24.5191 C   0  0  0  0  0  0  0  0  0  0  0  0
    8.6318  -16.6732   25.6462 O   0  0  0  0  0  0  0  0  0  0  0  0
    9.5414  -15.9643   23.6943 N   0  0  0  0  0  0  0  0  0  0  0  0
    9.5172  -15.5193   22.3239 C   0  0  0  0  0  0  0  0  0  0  0  0
   10.9432  -15.6612   21.8016 C   0  0  0  0  0  0  0  0  0  0  0  0
   11.7237  -15.4289   23.0629 C   0  0  0  0  0  0  0  0  0  0  0  0
   10.8931  -16.2416   24.0663 C   0  0  1  0  0  0  0  0  0  0  0  0
   11.2796  -15.8240   25.4328 C   0  0  0  0  0  0  0  0  0  0  0  0
   12.5310  -16.1632   25.8982 O   0  0  0  0  0  0  0  0  0  0  0  0
   10.5023  -15.1847   26.1468 O   0  0  0  0  0  0  0  0  0  0  0  0
  2  1  1  6
  2 13  1  0
  2  3  1  0
  3  4  1  0
  4 12  1  0
  4  5  2  0
  5  6  1  0
  7  6  1  0
  7  8  2  0
  9  8  1  0
 10  9  2  0
 11 12  2  0
 11 10  1  0
 12  7  1  0
 13 14  2  0
 16 15  1  0
 17 16  1  0
 18 17  1  0
 19 18  1  1
 20 19  1  0
 20 13  1  0
 21 19  1  0
 21 23  1  0
 22 21  2  0
 23 24  1  0
 25 24  1  0
 26 27  1  0
 26 25  1  0
 27 23  1  0
 27 28  1  1
 29 28  1  0
 30 28  2  0
M  END
$$$$
