WMP.pdb
     RDKit          3D

 30 32  0  0  1  0  0  0  0  0999 V2000
    6.0230  -18.8516   24.9992 N   0  0  0  0  0  0  0  0  0  0  0  0
    6.4013  -17.4494   24.8490 C   0  0  1  0  0  0  0  0  0  0  0  0
    7.1633  -17.0585   26.0882 C   0  0  0  0  0  0  0  0  0  0  0  0
    6.6616  -15.6724   26.4265 C   0  0  0  0  0  0  0  0  0  0  0  0
    5.3735  -15.2962   26.6976 C   0  0  0  0  0  0  0  0  0  0  0  0
    5.3667  -13.9794   26.9443 N   0  0  0  0  0  0  0  0  0  0  0  0
    6.6172  -13.4671   26.8451 C   0  0  0  0  0  0  0  0  0  0  0  0
    7.1110  -12.1735   27.0088 C   0  0  0  0  0  0  0  0  0  0  0  0
    8.4585  -11.9241   26.8446 C   0  0  0  0  0  0  0  0  0  0  0  0
    9.2630  -12.9957   26.5187 C   0  0  0  0  0  0  0  0  0  0  0  0
    8.7810  -14.2769   26.3554 C   0  0  0  0  0  0  0  0  0  0  0  0
    7.4283  -14.5320   26.5198 C   0  0  0  0  0  0  0  0  0  0  0  0
    7.1855  -17.2714   23.5906 C   0  0  0  0  0  0  0  0  0  0  0  0
    7.9167  -18.1959   23.1319 O   0  0  0  0  0  0  0  0  0  0  0  0
    6.6464  -12.1856   18.3765 C   0  0  0  0  0  0  0  0  0  0  0  0
    8.1957  -12.6381   19.0688 S   0  0  0  0  0  0  0  0  0  0  0  0
    8.3947  -14.2715   19.7528 C   0  0  0  0  0  0  0  0  0  0  0  0
    7.8254  -14.5374   21.0850 C   0  0  0  0  0  0  0  0  0  0  0  0
    7.9970  -15.9133   21.6418 C   0  0  2  0  0  0  0  0  0  0  0  0
    7.1618  -16.0738   22.8370 N   0  0  0  0  0  0  0  0  0  0  0  0
    9.3911  -16.3272   21.8406 C   0  0  0  0  0  0  0  0  0  0  0  0
    9.9898  -15.8212   22.8647 O   0  0  0  0  0  0  0  0  0  0  0  0
   10.2015  -17.2020   21.0791 N   0  0  0  0  0  0  0  0  0  0  0  0
    9.7130  -18.0807   20.0466 C   0  0  0  0  0  0  0  0  0  0  0  0
   10.9062  -18.9167   19.5951 C   0  0  0  0  0  0  0  0  0  0  0  0
   12.0280  -17.9475   19.8318 C   0  0  0  0  0  0  0  0  0  0  0  0
   11.6172  -17.3617   21.1902 C   0  0  1  0  0  0  0  0  0  0  0  0
   12.3868  -16.1163   21.4091 C   0  0  0  0  0  0  0  0  0  0  0  0
   13.4616  -16.1466   22.2703 O   0  0  0  0  0  0  0  0  0  0  0  0
   12.0782  -15.0682   20.8357 O   0  0  0  0  0  0  0  0  0  0  0  0
  2  1  1  1
  2 13  1  0
  2  3  1  0
  3  4  1  0
  4 12  1  0
  4  5  2  0
  5  6  1  0
  7  6  1  0
  7  8  2  0
  9  8  1  0
 10  9  2  0
 11 12  2  0
 11 10  1  0
 12  7  1  0
 13 14  2  0
 16 15  1  0
 17 16  1  0
 18 17  1  0
 19 18  1  1
 20 19  1  0
 20 13  1  0
 21 19  1  0
 21 23  1  0
 22 21  2  0
 23 24  1  0
 25 24  1  0
 26 27  1  0
 26 25  1  0
 27 23  1  0
 27 28  1  6
 29 28  1  0
 30 28  2  0
M  END
$$$$
