WMP.pdb
     RDKit          3D

 30 32  0  0  1  0  0  0  0  0999 V2000
    9.3180  -17.0512   21.1910 N   0  0  0  0  0  0  0  0  0  0  0  0
    9.0545  -16.1237   22.2873 C   0  0  1  0  0  0  0  0  0  0  0  0
    7.5623  -16.0858   22.4898 C   0  0  0  0  0  0  0  0  0  0  0  0
    7.2540  -14.6392   22.8053 C   0  0  0  0  0  0  0  0  0  0  0  0
    7.1981  -13.5893   21.9285 C   0  0  0  0  0  0  0  0  0  0  0  0
    6.8954  -12.4831   22.6210 N   0  0  0  0  0  0  0  0  0  0  0  0
    6.7476  -12.7677   23.9374 C   0  0  0  0  0  0  0  0  0  0  0  0
    6.4389  -11.9666   25.0361 C   0  0  0  0  0  0  0  0  0  0  0  0
    6.3500  -12.5267   26.2944 C   0  0  0  0  0  0  0  0  0  0  0  0
    6.5778  -13.8828   26.3985 C   0  0  0  0  0  0  0  0  0  0  0  0
    6.8834  -14.6803   25.3163 C   0  0  0  0  0  0  0  0  0  0  0  0
    6.9733  -14.1219   24.0506 C   0  0  0  0  0  0  0  0  0  0  0  0
    9.8065  -16.5547   23.5035 C   0  0  0  0  0  0  0  0  0  0  0  0
   10.6732  -17.4745   23.4523 O   0  0  0  0  0  0  0  0  0  0  0  0
   10.3955  -12.7688   29.2987 C   0  0  0  0  0  0  0  0  0  0  0  0
   10.6607  -14.4688   29.6511 S   0  0  0  0  0  0  0  0  0  0  0  0
   10.9328  -15.6007   28.3020 C   0  0  0  0  0  0  0  0  0  0  0  0
   10.2118  -15.3589   27.0404 C   0  0  0  0  0  0  0  0  0  0  0  0
   10.4740  -16.2999   25.9097 C   0  0  2  0  0  0  0  0  0  0  0  0
    9.6037  -15.9698   24.7760 N   0  0  0  0  0  0  0  0  0  0  0  0
   10.4489  -17.7215   26.2739 C   0  0  0  0  0  0  0  0  0  0  0  0
    9.2961  -18.2016   26.5959 O   0  0  0  0  0  0  0  0  0  0  0  0
   11.4994  -18.6675   26.3343 N   0  0  0  0  0  0  0  0  0  0  0  0
   12.8300  -18.4477   25.8268 C   0  0  0  0  0  0  0  0  0  0  0  0
   13.5754  -19.7681   25.9915 C   0  0  0  0  0  0  0  0  0  0  0  0
   12.8965  -20.3182   27.2123 C   0  0  0  0  0  0  0  0  0  0  0  0
   11.4320  -19.9771   26.9025 C   0  0  1  0  0  0  0  0  0  0  0  0
   10.6546  -20.0914   28.1570 C   0  0  0  0  0  0  0  0  0  0  0  0
   10.4432  -21.3434   28.6914 O   0  0  0  0  0  0  0  0  0  0  0  0
   10.2018  -19.0904   28.7188 O   0  0  0  0  0  0  0  0  0  0  0  0
  2  1  1  6
  2 13  1  0
  2  3  1  0
  3  4  1  0
  4 12  1  0
  4  5  2  0
  5  6  1  0
  7  6  1  0
  7  8  2  0
  9  8  1  0
 10  9  2  0
 11 12  2  0
 11 10  1  0
 12  7  1  0
 13 14  2  0
 16 15  1  0
 17 16  1  0
 18 17  1  0
 19 18  1  1
 20 19  1  0
 20 13  1  0
 21 19  1  0
 21 23  1  0
 22 21  2  0
 23 24  1  0
 25 24  1  0
 26 27  1  0
 26 25  1  0
 27 23  1  0
 27 28  1  1
 29 28  1  0
 30 28  2  0
M  END
$$$$
