WMP.pdb
     RDKit          3D

 30 32  0  0  1  0  0  0  0  0999 V2000
    5.5881  -17.7649   24.6392 N   0  0  0  0  0  0  0  0  0  0  0  0
    6.4440  -16.9028   23.8293 C   0  0  1  0  0  0  0  0  0  0  0  0
    7.5330  -16.3827   24.7307 C   0  0  0  0  0  0  0  0  0  0  0  0
    6.8596  -15.3244   25.5756 C   0  0  0  0  0  0  0  0  0  0  0  0
    5.6581  -15.4175   26.2252 C   0  0  0  0  0  0  0  0  0  0  0  0
    5.4334  -14.2565   26.8550 N   0  0  0  0  0  0  0  0  0  0  0  0
    6.4540  -13.3911   26.6427 C   0  0  0  0  0  0  0  0  0  0  0  0
    6.6757  -12.0853   27.0781 C   0  0  0  0  0  0  0  0  0  0  0  0
    7.8256  -11.4198   26.7044 C   0  0  0  0  0  0  0  0  0  0  0  0
    8.7149  -12.1005   25.8996 C   0  0  0  0  0  0  0  0  0  0  0  0
    8.5016  -13.3916   25.4658 C   0  0  0  0  0  0  0  0  0  0  0  0
    7.3481  -14.0638   25.8391 C   0  0  0  0  0  0  0  0  0  0  0  0
    6.9616  -17.6668   22.6551 C   0  0  0  0  0  0  0  0  0  0  0  0
    6.2436  -18.5146   22.0504 O   0  0  0  0  0  0  0  0  0  0  0  0
    8.8695  -12.9837   18.6552 C   0  0  0  0  0  0  0  0  0  0  0  0
    7.5878  -13.5286   19.7250 S   0  0  0  0  0  0  0  0  0  0  0  0
    7.9512  -13.7881   21.4501 C   0  0  0  0  0  0  0  0  0  0  0  0
    7.7374  -15.1349   22.0069 C   0  0  0  0  0  0  0  0  0  0  0  0
    8.7184  -16.1967   21.6288 C   0  0  2  0  0  0  0  0  0  0  0  0
    8.2709  -17.4942   22.1466 N   0  0  0  0  0  0  0  0  0  0  0  0
   10.1160  -15.8866   21.9522 C   0  0  0  0  0  0  0  0  0  0  0  0
   10.6384  -14.8981   21.3093 O   0  0  0  0  0  0  0  0  0  0  0  0
   11.0011  -16.5059   22.8661 N   0  0  0  0  0  0  0  0  0  0  0  0
   10.6623  -17.6313   23.6999 C   0  0  0  0  0  0  0  0  0  0  0  0
   11.8675  -17.8744   24.6026 C   0  0  0  0  0  0  0  0  0  0  0  0
   12.9806  -17.4117   23.7078 C   0  0  0  0  0  0  0  0  0  0  0  0
   12.3597  -16.1390   23.1146 C   0  0  1  0  0  0  0  0  0  0  0  0
   13.1468  -15.7522   21.9221 C   0  0  0  0  0  0  0  0  0  0  0  0
   12.5775  -15.9042   20.6770 O   0  0  0  0  0  0  0  0  0  0  0  0
   14.2903  -15.3020   22.0328 O   0  0  0  0  0  0  0  0  0  0  0  0
  2  1  1  1
  2 13  1  0
  2  3  1  0
  3  4  1  0
  4 12  1  0
  4  5  2  0
  5  6  1  0
  7  6  1  0
  7  8  2  0
  9  8  1  0
 10  9  2  0
 11 12  2  0
 11 10  1  0
 12  7  1  0
 13 14  2  0
 16 15  1  0
 17 16  1  0
 18 17  1  0
 19 18  1  1
 20 19  1  0
 20 13  1  0
 21 19  1  0
 21 23  1  0
 22 21  2  0
 23 24  1  0
 25 24  1  0
 26 27  1  0
 26 25  1  0
 27 23  1  0
 27 28  1  6
 29 28  1  0
 30 28  2  0
M  END
$$$$
