WMP.pdb
     RDKit          3D

 30 32  0  0  1  0  0  0  0  0999 V2000
    5.9464  -16.7299   20.5403 N   0  0  0  0  0  0  0  0  0  0  0  0
    7.0296  -17.2175   21.3892 C   0  0  1  0  0  0  0  0  0  0  0  0
    8.2708  -17.2762   20.5377 C   0  0  0  0  0  0  0  0  0  0  0  0
    8.1019  -16.1569   19.5347 C   0  0  0  0  0  0  0  0  0  0  0  0
    7.8542  -16.2714   18.1932 C   0  0  0  0  0  0  0  0  0  0  0  0
    7.7775  -15.0376   17.6764 N   0  0  0  0  0  0  0  0  0  0  0  0
    7.9674  -14.1028   18.6386 C   0  0  0  0  0  0  0  0  0  0  0  0
    7.9805  -12.7092   18.5956 C   0  0  0  0  0  0  0  0  0  0  0  0
    8.2033  -11.9860   19.7498 C   0  0  0  0  0  0  0  0  0  0  0  0
    8.4064  -12.7000   20.9121 C   0  0  0  0  0  0  0  0  0  0  0  0
    8.3947  -14.0776   20.9612 C   0  0  0  0  0  0  0  0  0  0  0  0
    8.1709  -14.8080   19.8043 C   0  0  0  0  0  0  0  0  0  0  0  0
    7.1717  -16.3317   22.5830 C   0  0  0  0  0  0  0  0  0  0  0  0
    7.2673  -15.0759   22.4658 O   0  0  0  0  0  0  0  0  0  0  0  0
    7.2357  -11.6539   27.7236 C   0  0  0  0  0  0  0  0  0  0  0  0
    6.8495  -12.7983   26.4487 S   0  0  0  0  0  0  0  0  0  0  0  0
    6.6674  -14.5228   26.8590 C   0  0  0  0  0  0  0  0  0  0  0  0
    6.4331  -15.4743   25.7592 C   0  0  0  0  0  0  0  0  0  0  0  0
    7.6314  -15.9833   25.0260 C   0  0  2  0  0  0  0  0  0  0  0  0
    7.2065  -16.8310   23.9068 N   0  0  0  0  0  0  0  0  0  0  0  0
    8.6551  -16.6033   25.8756 C   0  0  0  0  0  0  0  0  0  0  0  0
    8.3602  -17.7609   26.3616 O   0  0  0  0  0  0  0  0  0  0  0  0
    9.9326  -16.1310   26.2588 N   0  0  0  0  0  0  0  0  0  0  0  0
   10.4908  -14.8635   25.8605 C   0  0  0  0  0  0  0  0  0  0  0  0
   11.9187  -14.8365   26.3960 C   0  0  0  0  0  0  0  0  0  0  0  0
   11.7673  -15.6793   27.6291 C   0  0  0  0  0  0  0  0  0  0  0  0
   10.8730  -16.8075   27.0956 C   0  0  1  0  0  0  0  0  0  0  0  0
   10.2972  -17.5285   28.2531 C   0  0  0  0  0  0  0  0  0  0  0  0
   11.0954  -18.4137   28.9436 O   0  0  0  0  0  0  0  0  0  0  0  0
    9.1268  -17.3458   28.5987 O   0  0  0  0  0  0  0  0  0  0  0  0
  2  1  1  6
  2 13  1  0
  2  3  1  0
  3  4  1  0
  4 12  1  0
  4  5  2  0
  5  6  1  0
  7  6  1  0
  7  8  2  0
  9  8  1  0
 10  9  2  0
 11 12  2  0
 11 10  1  0
 12  7  1  0
 13 14  2  0
 16 15  1  0
 17 16  1  0
 18 17  1  0
 19 18  1  1
 20 19  1  0
 20 13  1  0
 21 19  1  0
 21 23  1  0
 22 21  2  0
 23 24  1  0
 25 24  1  0
 26 27  1  0
 26 25  1  0
 27 23  1  0
 27 28  1  1
 29 28  1  0
 30 28  2  0
M  END
$$$$
