WMP.pdb
     RDKit          3D

 30 32  0  0  1  0  0  0  0  0999 V2000
    6.4985  -18.5080   25.6312 N   0  0  0  0  0  0  0  0  0  0  0  0
    7.0727  -17.2056   25.3058 C   0  0  1  0  0  0  0  0  0  0  0  0
    8.2882  -17.0246   26.1767 C   0  0  0  0  0  0  0  0  0  0  0  0
    7.9625  -15.8321   27.0480 C   0  0  0  0  0  0  0  0  0  0  0  0
    7.7686  -15.8191   28.4032 C   0  0  0  0  0  0  0  0  0  0  0  0
    7.5007  -14.5599   28.7742 N   0  0  0  0  0  0  0  0  0  0  0  0
    7.5110  -13.7322   27.7016 C   0  0  0  0  0  0  0  0  0  0  0  0
    7.2930  -12.3604   27.5797 C   0  0  0  0  0  0  0  0  0  0  0  0
    7.3648  -11.7584   26.3398 C   0  0  0  0  0  0  0  0  0  0  0  0
    7.6553  -12.5679   25.2617 C   0  0  0  0  0  0  0  0  0  0  0  0
    7.8718  -13.9245   25.3755 C   0  0  0  0  0  0  0  0  0  0  0  0
    7.8011  -14.5332   26.6191 C   0  0  0  0  0  0  0  0  0  0  0  0
    7.3755  -17.1395   23.8449 C   0  0  0  0  0  0  0  0  0  0  0  0
    7.6909  -18.1737   23.1885 O   0  0  0  0  0  0  0  0  0  0  0  0
    7.9939  -11.2683   20.0377 C   0  0  0  0  0  0  0  0  0  0  0  0
    7.5895  -12.6676   19.0564 S   0  0  0  0  0  0  0  0  0  0  0  0
    7.8389  -14.2986   19.7295 C   0  0  0  0  0  0  0  0  0  0  0  0
    7.5213  -14.5160   21.1513 C   0  0  0  0  0  0  0  0  0  0  0  0
    7.7544  -15.8843   21.7045 C   0  0  2  0  0  0  0  0  0  0  0  0
    7.3289  -15.9326   23.1075 N   0  0  0  0  0  0  0  0  0  0  0  0
    9.1044  -16.4159   21.4825 C   0  0  0  0  0  0  0  0  0  0  0  0
   10.0371  -15.9133   22.2178 O   0  0  0  0  0  0  0  0  0  0  0  0
    9.5597  -17.4032   20.5770 N   0  0  0  0  0  0  0  0  0  0  0  0
    8.7039  -18.3149   19.8607 C   0  0  0  0  0  0  0  0  0  0  0  0
    9.6269  -19.2703   19.1112 C   0  0  0  0  0  0  0  0  0  0  0  0
   10.8053  -18.3748   18.8588 C   0  0  0  0  0  0  0  0  0  0  0  0
   10.9174  -17.6620   20.2140 C   0  0  1  0  0  0  0  0  0  0  0  0
   11.7724  -16.4663   20.0388 C   0  0  0  0  0  0  0  0  0  0  0  0
   13.1105  -16.6454   19.7647 O   0  0  0  0  0  0  0  0  0  0  0  0
   11.3035  -15.3290   20.1347 O   0  0  0  0  0  0  0  0  0  0  0  0
  2  1  1  6
  2 13  1  0
  2  3  1  0
  3  4  1  0
  4 12  1  0
  4  5  2  0
  5  6  1  0
  7  6  1  0
  7  8  2  0
  9  8  1  0
 10  9  2  0
 11 12  2  0
 11 10  1  0
 12  7  1  0
 13 14  2  0
 16 15  1  0
 17 16  1  0
 18 17  1  0
 19 18  1  1
 20 19  1  0
 20 13  1  0
 21 19  1  0
 21 23  1  0
 22 21  2  0
 23 24  1  0
 25 24  1  0
 26 27  1  0
 26 25  1  0
 27 23  1  0
 27 28  1  6
 29 28  1  0
 30 28  2  0
M  END
$$$$
