WMP.pdb
     RDKit          3D

 30 32  0  0  1  0  0  0  0  0999 V2000
    7.4615  -20.3679   26.3822 N   0  0  0  0  0  0  0  0  0  0  0  0
    8.0365  -19.1045   26.8347 C   0  0  1  0  0  0  0  0  0  0  0  0
    9.5214  -19.3154   26.9736 C   0  0  0  0  0  0  0  0  0  0  0  0
    9.9667  -18.2678   27.9695 C   0  0  0  0  0  0  0  0  0  0  0  0
   10.1384  -18.4214   29.3190 C   0  0  0  0  0  0  0  0  0  0  0  0
   10.5392  -17.2473   29.8248 N   0  0  0  0  0  0  0  0  0  0  0  0
   10.6397  -16.3142   28.8476 C   0  0  0  0  0  0  0  0  0  0  0  0
   11.0106  -14.9704   28.8755 C   0  0  0  0  0  0  0  0  0  0  0  0
   11.0261  -14.2351   27.7076 C   0  0  0  0  0  0  0  0  0  0  0  0
   10.6640  -14.8867   26.5474 C   0  0  0  0  0  0  0  0  0  0  0  0
   10.2962  -16.2148   26.5131 C   0  0  0  0  0  0  0  0  0  0  0  0
   10.2797  -16.9573   27.6838 C   0  0  0  0  0  0  0  0  0  0  0  0
    7.6799  -18.0167   25.8756 C   0  0  0  0  0  0  0  0  0  0  0  0
    7.6615  -18.2172   24.6269 O   0  0  0  0  0  0  0  0  0  0  0  0
    6.2226  -10.1483   25.4110 C   0  0  0  0  0  0  0  0  0  0  0  0
    5.8110  -11.7471   26.0099 S   0  0  0  0  0  0  0  0  0  0  0  0
    6.5046  -13.1781   25.2058 C   0  0  0  0  0  0  0  0  0  0  0  0
    6.7994  -14.3609   26.0327 C   0  0  0  0  0  0  0  0  0  0  0  0
    7.0923  -15.6406   25.3191 C   0  0  2  0  0  0  0  0  0  0  0  0
    7.3416  -16.7078   26.2942 N   0  0  0  0  0  0  0  0  0  0  0  0
    8.1239  -15.5433   24.2796 C   0  0  0  0  0  0  0  0  0  0  0  0
    9.3356  -15.7599   24.6644 O   0  0  0  0  0  0  0  0  0  0  0  0
    8.0067  -15.2424   22.9020 N   0  0  0  0  0  0  0  0  0  0  0  0
    6.7685  -14.9305   22.2340 C   0  0  0  0  0  0  0  0  0  0  0  0
    7.1013  -14.8042   20.7509 C   0  0  0  0  0  0  0  0  0  0  0  0
    8.5145  -14.3030   20.8266 C   0  0  0  0  0  0  0  0  0  0  0  0
    9.0715  -15.1884   21.9504 C   0  0  1  0  0  0  0  0  0  0  0  0
   10.3327  -14.5832   22.4345 C   0  0  0  0  0  0  0  0  0  0  0  0
   11.4299  -14.5877   21.6016 O   0  0  0  0  0  0  0  0  0  0  0  0
   10.4077  -14.0829   23.5599 O   0  0  0  0  0  0  0  0  0  0  0  0
  2  1  1  6
  2 13  1  0
  2  3  1  0
  3  4  1  0
  4 12  1  0
  4  5  2  0
  5  6  1  0
  7  6  1  0
  7  8  2  0
  9  8  1  0
 10  9  2  0
 11 12  2  0
 11 10  1  0
 12  7  1  0
 13 14  2  0
 16 15  1  0
 17 16  1  0
 18 17  1  0
 19 18  1  1
 20 19  1  0
 20 13  1  0
 21 19  1  0
 21 23  1  0
 22 21  2  0
 23 24  1  0
 25 24  1  0
 26 27  1  0
 26 25  1  0
 27 23  1  0
 27 28  1  1
 29 28  1  0
 30 28  2  0
M  END
$$$$
