KTQ.pdb
     RDKit          3D

 26 25  0  0  1  0  0  0  0  0999 V2000
   10.2961  -14.4333   18.8694 N   0  0  0  0  0  0  0  0  0  0  0  0
    9.4799  -13.4616   19.5515 C   0  0  1  0  0  0  0  0  0  0  0  0
    8.3824  -12.9918   18.6528 C   0  0  0  0  0  0  0  0  0  0  0  0
    7.9147  -13.9416   17.6173 C   0  0  0  0  0  0  0  0  0  0  0  0
    8.3523  -13.7219   16.2216 C   0  0  0  0  0  0  0  0  0  0  0  0
    7.6863  -14.5842   15.1894 C   0  0  0  0  0  0  0  0  0  0  0  0
    8.0942  -14.2706   13.8416 N   0  0  0  0  0  0  0  0  0  0  0  0
    8.8619  -14.1571   20.7381 C   0  0  0  0  0  0  0  0  0  0  0  0
    8.0433  -13.5656   21.4862 O   0  0  0  0  0  0  0  0  0  0  0  0
    7.4248  -17.8522   20.6919 C   0  0  0  0  0  0  0  0  0  0  0  0
    8.4622  -17.7003   21.7848 C   0  0  1  0  0  0  0  0  0  0  0  0
    9.6343  -18.2758   21.3134 O   0  0  0  0  0  0  0  0  0  0  0  0
    8.6581  -16.2401   22.1572 C   0  0  2  0  0  0  0  0  0  0  0  0
    9.2044  -15.4994   21.0209 N   0  0  0  0  0  0  0  0  0  0  0  0
    9.6176  -16.1033   23.2817 C   0  0  0  0  0  0  0  0  0  0  0  0
   10.8622  -15.8964   23.0694 O   0  0  0  0  0  0  0  0  0  0  0  0
    8.7378  -13.4804   28.7260 N   0  0  0  0  0  0  0  0  0  0  0  0
    9.8782  -14.2493   29.0513 C   0  0  0  0  0  0  0  0  0  0  0  0
   10.4122  -14.1471   30.1832 O   0  0  0  0  0  0  0  0  0  0  0  0
   10.4483  -15.1833   28.0671 C   0  0  0  0  0  0  0  0  0  0  0  0
    9.7275  -15.2918   26.7823 C   0  0  0  0  0  0  0  0  0  0  0  0
   10.2556  -16.1927   25.7347 C   0  0  2  0  0  0  0  0  0  0  0  0
    9.2468  -16.1875   24.6465 N   0  0  0  0  0  0  0  0  0  0  0  0
   10.6885  -17.5261   26.0714 C   0  0  0  0  0  0  0  0  0  0  0  0
    9.9445  -18.6954   25.9466 O   0  0  0  0  0  0  0  0  0  0  0  0
   11.8668  -17.7223   26.5448 O   0  0  0  0  0  0  0  0  0  0  0  0
  2  1  1  6
  3  2  1  0
  4  3  1  0
  4  5  1  0
  5  6  1  0
  6  7  1  0
  8  2  1  0
  8  9  2  0
 11 10  1  6
 11 13  1  0
 12 11  1  0
 13 14  1  6
 14  8  1  0
 15 23  1  0
 15 13  1  0
 16 15  2  0
 17 18  1  0
 18 19  2  0
 18 20  1  0
 20 21  1  0
 22 21  1  1
 22 23  1  0
 22 24  1  0
 24 25  1  0
 26 24  2  0
M  END
$$$$
