KTQ.pdb
     RDKit          3D

 26 25  0  0  1  0  0  0  0  0999 V2000
    8.9317  -17.3883   16.6073 N   0  0  0  0  0  0  0  0  0  0  0  0
    8.1100  -17.4507   17.7890 C   0  0  1  0  0  0  0  0  0  0  0  0
    8.0142  -18.8611   18.2734 C   0  0  0  0  0  0  0  0  0  0  0  0
    9.2507  -19.6738   18.2115 C   0  0  0  0  0  0  0  0  0  0  0  0
    9.1641  -21.1034   18.5808 C   0  0  0  0  0  0  0  0  0  0  0  0
   10.4626  -21.8560   18.5708 C   0  0  0  0  0  0  0  0  0  0  0  0
   10.3401  -23.2024   19.0743 N   0  0  0  0  0  0  0  0  0  0  0  0
    8.7956  -16.6263   18.8492 C   0  0  0  0  0  0  0  0  0  0  0  0
   10.0461  -16.5029   18.8709 O   0  0  0  0  0  0  0  0  0  0  0  0
    7.1281  -13.1599   20.2535 C   0  0  0  0  0  0  0  0  0  0  0  0
    7.5559  -14.1120   21.3507 C   0  0  1  0  0  0  0  0  0  0  0  0
    6.4109  -14.7603   21.7936 O   0  0  0  0  0  0  0  0  0  0  0  0
    8.6038  -15.0921   20.8501 C   0  0  2  0  0  0  0  0  0  0  0  0
    8.0244  -15.9770   19.8404 N   0  0  0  0  0  0  0  0  0  0  0  0
    9.1041  -15.9456   21.9569 C   0  0  0  0  0  0  0  0  0  0  0  0
    8.8953  -17.2077   21.9669 O   0  0  0  0  0  0  0  0  0  0  0  0
   13.6907  -18.9355   22.5638 N   0  0  0  0  0  0  0  0  0  0  0  0
   13.6606  -18.3305   23.8407 C   0  0  0  0  0  0  0  0  0  0  0  0
   14.7201  -18.1783   24.4973 O   0  0  0  0  0  0  0  0  0  0  0  0
   12.3859  -17.8666   24.4117 C   0  0  0  0  0  0  0  0  0  0  0  0
   11.5947  -16.9461   23.5698 C   0  0  0  0  0  0  0  0  0  0  0  0
   10.3614  -16.3454   24.1230 C   0  0  2  0  0  0  0  0  0  0  0  0
    9.8348  -15.4487   23.0644 N   0  0  0  0  0  0  0  0  0  0  0  0
   10.3776  -15.7111   25.4176 C   0  0  0  0  0  0  0  0  0  0  0  0
   10.5654  -16.3382   26.6456 O   0  0  0  0  0  0  0  0  0  0  0  0
   10.2008  -14.4423   25.5174 O   0  0  0  0  0  0  0  0  0  0  0  0
  2  1  1  6
  3  2  1  0
  4  3  1  0
  4  5  1  0
  5  6  1  0
  6  7  1  0
  8  2  1  0
  8  9  2  0
 11 10  1  6
 11 13  1  0
 12 11  1  0
 13 14  1  6
 14  8  1  0
 15 23  1  0
 15 13  1  0
 16 15  2  0
 17 18  1  0
 18 19  2  0
 18 20  1  0
 20 21  1  0
 22 21  1  6
 22 23  1  0
 22 24  1  0
 24 25  1  0
 26 24  2  0
M  END
$$$$
