KTQ.pdb
     RDKit          3D

 26 25  0  0  1  0  0  0  0  0999 V2000
    8.4303  -16.3927   15.2902 N   0  0  0  0  0  0  0  0  0  0  0  0
    7.8232  -16.5714   16.5845 C   0  0  1  0  0  0  0  0  0  0  0  0
    7.7595  -18.0250   16.9249 C   0  0  0  0  0  0  0  0  0  0  0  0
    6.6099  -18.7873   16.3860 C   0  0  0  0  0  0  0  0  0  0  0  0
    6.2373  -18.5780   14.9700 C   0  0  0  0  0  0  0  0  0  0  0  0
    5.1234  -19.4434   14.4573 C   0  0  0  0  0  0  0  0  0  0  0  0
    4.8957  -19.2923   13.0408 N   0  0  0  0  0  0  0  0  0  0  0  0
    8.7120  -15.8832   17.5894 C   0  0  0  0  0  0  0  0  0  0  0  0
    9.9327  -15.6939   17.3574 O   0  0  0  0  0  0  0  0  0  0  0  0
    7.3688  -12.7648   19.7303 C   0  0  0  0  0  0  0  0  0  0  0  0
    8.0382  -13.7920   20.6192 C   0  0  1  0  0  0  0  0  0  0  0  0
    7.0262  -14.4986   21.2548 O   0  0  0  0  0  0  0  0  0  0  0  0
    8.9477  -14.7057   19.8147 C   0  0  2  0  0  0  0  0  0  0  0  0
    8.1699  -15.4397   18.8175 N   0  0  0  0  0  0  0  0  0  0  0  0
    9.6054  -15.7063   20.6922 C   0  0  0  0  0  0  0  0  0  0  0  0
    9.2421  -16.9330   20.6868 O   0  0  0  0  0  0  0  0  0  0  0  0
   11.8417  -20.7190   20.5017 N   0  0  0  0  0  0  0  0  0  0  0  0
   12.7709  -19.6999   20.8103 C   0  0  0  0  0  0  0  0  0  0  0  0
   13.8704  -19.6379   20.2068 O   0  0  0  0  0  0  0  0  0  0  0  0
   12.4560  -18.6959   21.8393 C   0  0  0  0  0  0  0  0  0  0  0  0
   11.7307  -17.4959   21.3745 C   0  0  0  0  0  0  0  0  0  0  0  0
   11.3721  -16.4473   22.3541 C   0  0  2  0  0  0  0  0  0  0  0  0
   10.6616  -15.3964   21.5843 N   0  0  0  0  0  0  0  0  0  0  0  0
   12.3749  -15.8971   23.2319 C   0  0  0  0  0  0  0  0  0  0  0  0
   12.9522  -16.5283   24.3296 O   0  0  0  0  0  0  0  0  0  0  0  0
   12.8184  -14.7066   23.0398 O   0  0  0  0  0  0  0  0  0  0  0  0
  2  1  1  6
  3  2  1  0
  4  3  1  0
  4  5  1  0
  5  6  1  0
  6  7  1  0
  8  2  1  0
  8  9  2  0
 11 10  1  6
 11 13  1  0
 12 11  1  0
 13 14  1  6
 14  8  1  0
 15 23  1  0
 15 13  1  0
 16 15  2  0
 17 18  1  0
 18 19  2  0
 18 20  1  0
 20 21  1  0
 22 21  1  6
 22 23  1  0
 22 24  1  0
 24 25  1  0
 26 24  2  0
M  END
$$$$
