KTQ.pdb
     RDKit          3D

 26 25  0  0  1  0  0  0  0  0999 V2000
    7.8743  -16.7646   15.7511 N   0  0  0  0  0  0  0  0  0  0  0  0
    7.1874  -16.7063   17.0161 C   0  0  1  0  0  0  0  0  0  0  0  0
    6.8125  -18.0830   17.4602 C   0  0  0  0  0  0  0  0  0  0  0  0
    7.0878  -19.1882   16.5137 C   0  0  0  0  0  0  0  0  0  0  0  0
    6.5935  -20.5392   16.8572 C   0  0  0  0  0  0  0  0  0  0  0  0
    6.9419  -21.6251   15.8815 C   0  0  0  0  0  0  0  0  0  0  0  0
    6.4083  -22.9128   16.2538 N   0  0  0  0  0  0  0  0  0  0  0  0
    8.1534  -16.1267   18.0183 C   0  0  0  0  0  0  0  0  0  0  0  0
    9.3939  -16.2871   17.8953 O   0  0  0  0  0  0  0  0  0  0  0  0
    7.3582  -12.5523   19.6589 C   0  0  0  0  0  0  0  0  0  0  0  0
    7.8129  -13.5399   20.7131 C   0  0  1  0  0  0  0  0  0  0  0  0
    6.6805  -13.9372   21.4111 O   0  0  0  0  0  0  0  0  0  0  0  0
    8.5344  -14.7207   20.0852 C   0  0  2  0  0  0  0  0  0  0  0  0
    7.6626  -15.3880   19.1193 N   0  0  0  0  0  0  0  0  0  0  0  0
    8.9088  -15.7226   21.1147 C   0  0  0  0  0  0  0  0  0  0  0  0
    8.1744  -16.7451   21.3422 O   0  0  0  0  0  0  0  0  0  0  0  0
   11.6686  -20.4810   22.4689 N   0  0  0  0  0  0  0  0  0  0  0  0
   12.1323  -19.6059   21.4606 C   0  0  0  0  0  0  0  0  0  0  0  0
   13.0731  -19.9500   20.7034 O   0  0  0  0  0  0  0  0  0  0  0  0
   11.5120  -18.2830   21.2838 C   0  0  0  0  0  0  0  0  0  0  0  0
   10.4034  -17.9581   22.2045 C   0  0  0  0  0  0  0  0  0  0  0  0
   10.4191  -16.6643   22.9214 C   0  0  2  0  0  0  0  0  0  0  0  0
   10.0782  -15.6338   21.9097 N   0  0  0  0  0  0  0  0  0  0  0  0
   11.5585  -16.2886   23.7210 C   0  0  0  0  0  0  0  0  0  0  0  0
   11.9564  -16.8691   24.9215 O   0  0  0  0  0  0  0  0  0  0  0  0
   12.3206  -15.3243   23.3463 O   0  0  0  0  0  0  0  0  0  0  0  0
  2  1  1  6
  3  2  1  0
  4  3  1  0
  4  5  1  0
  5  6  1  0
  6  7  1  0
  8  2  1  0
  8  9  2  0
 11 10  1  6
 11 13  1  0
 12 11  1  0
 13 14  1  6
 14  8  1  0
 15 23  1  0
 15 13  1  0
 16 15  2  0
 17 18  1  0
 18 19  2  0
 18 20  1  0
 20 21  1  0
 22 21  1  6
 22 23  1  0
 22 24  1  0
 24 25  1  0
 26 24  2  0
M  END
$$$$
