KTQ.pdb
     RDKit          3D

 26 25  0  0  1  0  0  0  0  0999 V2000
    2.9630  -18.9285   20.0613 N   0  0  0  0  0  0  0  0  0  0  0  0
    3.2536  -18.2007   21.2702 C   0  0  1  0  0  0  0  0  0  0  0  0
    2.8756  -19.0167   22.4636 C   0  0  0  0  0  0  0  0  0  0  0  0
    3.4018  -20.3999   22.5207 C   0  0  0  0  0  0  0  0  0  0  0  0
    3.0115  -21.2470   23.6686 C   0  0  0  0  0  0  0  0  0  0  0  0
    3.6807  -22.5884   23.7423 C   0  0  0  0  0  0  0  0  0  0  0  0
    3.9356  -23.1656   22.4450 N   0  0  0  0  0  0  0  0  0  0  0  0
    4.7434  -17.9699   21.3009 C   0  0  0  0  0  0  0  0  0  0  0  0
    5.5361  -18.7544   20.7212 O   0  0  0  0  0  0  0  0  0  0  0  0
    6.3827  -15.0177   20.0430 C   0  0  0  0  0  0  0  0  0  0  0  0
    6.9175  -15.1317   21.4552 C   0  0  1  0  0  0  0  0  0  0  0  0
    6.2777  -14.1583   22.2104 O   0  0  0  0  0  0  0  0  0  0  0  0
    6.6907  -16.5250   22.0179 C   0  0  2  0  0  0  0  0  0  0  0  0
    5.2659  -16.8528   21.9922 N   0  0  0  0  0  0  0  0  0  0  0  0
    7.1419  -16.6071   23.4298 C   0  0  0  0  0  0  0  0  0  0  0  0
    6.3008  -16.6767   24.3912 O   0  0  0  0  0  0  0  0  0  0  0  0
    7.7981  -20.7374   26.7498 N   0  0  0  0  0  0  0  0  0  0  0  0
    7.8100  -19.5974   27.5850 C   0  0  0  0  0  0  0  0  0  0  0  0
    7.2443  -19.6245   28.7058 O   0  0  0  0  0  0  0  0  0  0  0  0
    8.4918  -18.3673   27.1514 C   0  0  0  0  0  0  0  0  0  0  0  0
    8.2130  -17.9233   25.7704 C   0  0  0  0  0  0  0  0  0  0  0  0
    8.9107  -16.7304   25.2432 C   0  0  2  0  0  0  0  0  0  0  0  0
    8.5037  -16.6157   23.8209 N   0  0  0  0  0  0  0  0  0  0  0  0
   10.3343  -16.5831   25.4173 C   0  0  0  0  0  0  0  0  0  0  0  0
   11.2677  -16.3133   24.4210 O   0  0  0  0  0  0  0  0  0  0  0  0
   10.8586  -16.7076   26.5837 O   0  0  0  0  0  0  0  0  0  0  0  0
  2  1  1  6
  3  2  1  0
  4  3  1  0
  4  5  1  0
  5  6  1  0
  6  7  1  0
  8  2  1  0
  8  9  2  0
 11 10  1  6
 11 13  1  0
 12 11  1  0
 13 14  1  1
 14  8  1  0
 15 23  1  0
 15 13  1  0
 16 15  2  0
 17 18  1  0
 18 19  2  0
 18 20  1  0
 20 21  1  0
 22 21  1  6
 22 23  1  0
 22 24  1  0
 24 25  1  0
 26 24  2  0
M  END
$$$$
