KTQ.pdb
     RDKit          3D

 26 25  0  0  1  0  0  0  0  0999 V2000
    6.2460  -19.2754   21.5341 N   0  0  0  0  0  0  0  0  0  0  0  0
    7.1918  -20.2483   21.0498 C   0  0  1  0  0  0  0  0  0  0  0  0
    6.7170  -20.8254   19.7558 C   0  0  0  0  0  0  0  0  0  0  0  0
    7.2363  -22.1634   19.3908 C   0  0  0  0  0  0  0  0  0  0  0  0
    6.8184  -22.7437   18.0961 C   0  0  0  0  0  0  0  0  0  0  0  0
    7.3185  -24.1306   17.8150 C   0  0  0  0  0  0  0  0  0  0  0  0
    6.4415  -25.1607   18.3163 N   0  0  0  0  0  0  0  0  0  0  0  0
    8.4886  -19.5201   20.8018 C   0  0  0  0  0  0  0  0  0  0  0  0
    9.5048  -20.1256   20.3772 O   0  0  0  0  0  0  0  0  0  0  0  0
    9.0740  -16.8410   18.3701 C   0  0  0  0  0  0  0  0  0  0  0  0
    9.3968  -16.2476   19.7255 C   0  0  1  0  0  0  0  0  0  0  0  0
    8.2842  -15.5191   20.1240 O   0  0  0  0  0  0  0  0  0  0  0  0
    9.7532  -17.3315   20.7291 C   0  0  2  0  0  0  0  0  0  0  0  0
    8.5709  -18.1304   21.0488 N   0  0  0  0  0  0  0  0  0  0  0  0
   10.2473  -16.7389   21.9974 C   0  0  0  0  0  0  0  0  0  0  0  0
   11.2962  -16.0069   22.0223 O   0  0  0  0  0  0  0  0  0  0  0  0
    7.5365  -13.2913   25.9508 N   0  0  0  0  0  0  0  0  0  0  0  0
    6.9626  -14.5160   25.5408 C   0  0  0  0  0  0  0  0  0  0  0  0
    5.7278  -14.7109   25.6597 O   0  0  0  0  0  0  0  0  0  0  0  0
    7.8069  -15.5744   24.9637 C   0  0  0  0  0  0  0  0  0  0  0  0
    9.2582  -15.3008   24.9307 C   0  0  0  0  0  0  0  0  0  0  0  0
   10.1834  -16.3741   24.5064 C   0  0  2  0  0  0  0  0  0  0  0  0
    9.6166  -16.9281   23.2519 N   0  0  0  0  0  0  0  0  0  0  0  0
   10.5732  -17.4079   25.4326 C   0  0  0  0  0  0  0  0  0  0  0  0
   11.4961  -17.2888   26.4673 O   0  0  0  0  0  0  0  0  0  0  0  0
   10.0583  -18.5818   25.3443 O   0  0  0  0  0  0  0  0  0  0  0  0
  2  1  1  6
  3  2  1  0
  4  3  1  0
  4  5  1  0
  5  6  1  0
  6  7  1  0
  8  2  1  0
  8  9  2  0
 11 10  1  6
 11 13  1  0
 12 11  1  0
 13 14  1  1
 14  8  1  0
 15 23  1  0
 15 13  1  0
 16 15  2  0
 17 18  1  0
 18 19  2  0
 18 20  1  0
 20 21  1  0
 22 21  1  1
 22 23  1  0
 22 24  1  0
 24 25  1  0
 26 24  2  0
M  END
$$$$
