KTQ.pdb
     RDKit          3D

 26 25  0  0  1  0  0  0  0  0999 V2000
    7.1658  -17.4200   17.1902 N   0  0  0  0  0  0  0  0  0  0  0  0
    8.5798  -17.2583   16.9672 C   0  0  1  0  0  0  0  0  0  0  0  0
    8.8188  -16.5946   15.6498 C   0  0  0  0  0  0  0  0  0  0  0  0
    8.3594  -17.3204   14.4434 C   0  0  0  0  0  0  0  0  0  0  0  0
    9.0430  -17.0437   13.1613 C   0  0  0  0  0  0  0  0  0  0  0  0
    8.4942  -17.7643   11.9646 C   0  0  0  0  0  0  0  0  0  0  0  0
    9.3123  -17.6092   10.7865 N   0  0  0  0  0  0  0  0  0  0  0  0
    9.1000  -16.3569   18.0583 C   0  0  0  0  0  0  0  0  0  0  0  0
   10.2997  -15.9828   18.0774 O   0  0  0  0  0  0  0  0  0  0  0  0
    7.4967  -13.0603   19.1402 C   0  0  0  0  0  0  0  0  0  0  0  0
    7.6208  -13.9333   20.3713 C   0  0  1  0  0  0  0  0  0  0  0  0
    6.3583  -14.4494   20.6307 O   0  0  0  0  0  0  0  0  0  0  0  0
    8.6501  -15.0319   20.1645 C   0  0  2  0  0  0  0  0  0  0  0  0
    8.2283  -15.9201   19.0822 N   0  0  0  0  0  0  0  0  0  0  0  0
    8.7970  -15.8590   21.3885 C   0  0  0  0  0  0  0  0  0  0  0  0
    8.1999  -16.9846   21.5033 O   0  0  0  0  0  0  0  0  0  0  0  0
   12.8747  -19.0421   26.0637 N   0  0  0  0  0  0  0  0  0  0  0  0
   12.4178  -18.6262   24.7926 C   0  0  0  0  0  0  0  0  0  0  0  0
   13.2126  -18.5562   23.8228 O   0  0  0  0  0  0  0  0  0  0  0  0
   11.0025  -18.2763   24.5911 C   0  0  0  0  0  0  0  0  0  0  0  0
   10.7241  -17.2822   23.5345 C   0  0  0  0  0  0  0  0  0  0  0  0
    9.6391  -16.2981   23.7402 C   0  0  2  0  0  0  0  0  0  0  0  0
    9.5887  -15.4825   22.5016 N   0  0  0  0  0  0  0  0  0  0  0  0
    9.6091  -15.4853   24.9306 C   0  0  0  0  0  0  0  0  0  0  0  0
    9.7383  -14.1011   24.9927 O   0  0  0  0  0  0  0  0  0  0  0  0
    9.4569  -16.0331   26.0829 O   0  0  0  0  0  0  0  0  0  0  0  0
  2  1  1  1
  3  2  1  0
  4  3  1  0
  4  5  1  0
  5  6  1  0
  6  7  1  0
  8  2  1  0
  8  9  2  0
 11 10  1  6
 11 13  1  0
 12 11  1  0
 13 14  1  6
 14  8  1  0
 15 23  1  0
 15 13  1  0
 16 15  2  0
 17 18  1  0
 18 19  2  0
 18 20  1  0
 20 21  1  0
 22 21  1  6
 22 23  1  0
 22 24  1  0
 24 25  1  0
 26 24  2  0
M  END
$$$$
