KTQ.pdb
     RDKit          3D

 26 25  0  0  1  0  0  0  0  0999 V2000
    5.2486  -18.9962   19.3619 N   0  0  0  0  0  0  0  0  0  0  0  0
    5.6741  -18.5654   20.6692 C   0  0  1  0  0  0  0  0  0  0  0  0
    6.0505  -19.7479   21.5017 C   0  0  0  0  0  0  0  0  0  0  0  0
    4.9396  -20.5346   22.0850 C   0  0  0  0  0  0  0  0  0  0  0  0
    5.2778  -21.7414   22.8705 C   0  0  0  0  0  0  0  0  0  0  0  0
    4.1205  -22.4294   23.5337 C   0  0  0  0  0  0  0  0  0  0  0  0
    2.8673  -22.2119   22.8530 N   0  0  0  0  0  0  0  0  0  0  0  0
    6.8987  -17.7072   20.4759 C   0  0  0  0  0  0  0  0  0  0  0  0
    7.6521  -17.8617   19.4818 O   0  0  0  0  0  0  0  0  0  0  0  0
    6.9985  -14.1967   19.9106 C   0  0  0  0  0  0  0  0  0  0  0  0
    7.8573  -14.3663   21.1463 C   0  0  1  0  0  0  0  0  0  0  0  0
    7.0848  -13.9785   22.2327 O   0  0  0  0  0  0  0  0  0  0  0  0
    8.3476  -15.7982   21.2824 C   0  0  2  0  0  0  0  0  0  0  0  0
    7.2120  -16.7081   21.4259 N   0  0  0  0  0  0  0  0  0  0  0  0
    9.1999  -15.9551   22.4877 C   0  0  0  0  0  0  0  0  0  0  0  0
    8.6845  -16.1219   23.6467 O   0  0  0  0  0  0  0  0  0  0  0  0
   11.7732  -18.3117   27.7170 N   0  0  0  0  0  0  0  0  0  0  0  0
   11.0350  -18.3729   26.5135 C   0  0  0  0  0  0  0  0  0  0  0  0
    9.7907  -18.5406   26.5386 O   0  0  0  0  0  0  0  0  0  0  0  0
   11.7174  -18.2345   25.2168 C   0  0  0  0  0  0  0  0  0  0  0  0
   10.9562  -17.5480   24.1531 C   0  0  0  0  0  0  0  0  0  0  0  0
   11.4312  -16.2369   23.6599 C   0  0  2  0  0  0  0  0  0  0  0  0
   10.6163  -15.9344   22.4574 N   0  0  0  0  0  0  0  0  0  0  0  0
   12.8373  -16.0081   23.4382 C   0  0  0  0  0  0  0  0  0  0  0  0
   13.8212  -15.8852   24.4147 O   0  0  0  0  0  0  0  0  0  0  0  0
   13.2918  -15.8904   22.2422 O   0  0  0  0  0  0  0  0  0  0  0  0
  2  1  1  6
  3  2  1  0
  4  3  1  0
  4  5  1  0
  5  6  1  0
  6  7  1  0
  8  2  1  0
  8  9  2  0
 11 10  1  6
 11 13  1  0
 12 11  1  0
 13 14  1  1
 14  8  1  0
 15 23  1  0
 15 13  1  0
 16 15  2  0
 17 18  1  0
 18 19  2  0
 18 20  1  0
 20 21  1  0
 22 21  1  6
 22 23  1  0
 22 24  1  0
 24 25  1  0
 26 24  2  0
M  END
$$$$
