KTQ.pdb
     RDKit          3D

 26 25  0  0  1  0  0  0  0  0999 V2000
    4.1917  -20.1103   19.5737 N   0  0  0  0  0  0  0  0  0  0  0  0
    3.9672  -19.3556   20.7802 C   0  0  1  0  0  0  0  0  0  0  0  0
    3.3102  -20.2170   21.8094 C   0  0  0  0  0  0  0  0  0  0  0  0
    2.3983  -21.2730   21.3130 C   0  0  0  0  0  0  0  0  0  0  0  0
    1.7029  -22.1176   22.3083 C   0  0  0  0  0  0  0  0  0  0  0  0
    0.7508  -23.1326   21.7463 C   0  0  0  0  0  0  0  0  0  0  0  0
    0.1460  -23.9628   22.7593 N   0  0  0  0  0  0  0  0  0  0  0  0
    5.3197  -18.9372   21.2990 C   0  0  0  0  0  0  0  0  0  0  0  0
    6.3137  -19.7021   21.2175 O   0  0  0  0  0  0  0  0  0  0  0  0
    7.2017  -15.8623   20.3406 C   0  0  0  0  0  0  0  0  0  0  0  0
    7.0795  -15.8130   21.8493 C   0  0  1  0  0  0  0  0  0  0  0  0
    6.0913  -14.8839   22.1454 O   0  0  0  0  0  0  0  0  0  0  0  0
    6.7568  -17.1841   22.4195 C   0  0  2  0  0  0  0  0  0  0  0  0
    5.4808  -17.6627   21.8893 N   0  0  0  0  0  0  0  0  0  0  0  0
    6.6327  -17.1284   23.8978 C   0  0  0  0  0  0  0  0  0  0  0  0
    5.5019  -17.2879   24.4743 O   0  0  0  0  0  0  0  0  0  0  0  0
    7.7824  -21.5637   26.0920 N   0  0  0  0  0  0  0  0  0  0  0  0
    7.4273  -20.9658   27.3224 C   0  0  0  0  0  0  0  0  0  0  0  0
    7.4082  -21.6460   28.3778 O   0  0  0  0  0  0  0  0  0  0  0  0
    7.0816  -19.5364   27.3800 C   0  0  0  0  0  0  0  0  0  0  0  0
    7.2354  -18.7804   26.1202 C   0  0  0  0  0  0  0  0  0  0  0  0
    7.7232  -17.3850   26.1731 C   0  0  2  0  0  0  0  0  0  0  0  0
    7.7254  -16.9007   24.7706 N   0  0  0  0  0  0  0  0  0  0  0  0
    8.9493  -17.0679   26.8622 C   0  0  0  0  0  0  0  0  0  0  0  0
    9.1353  -17.0127   28.2401 O   0  0  0  0  0  0  0  0  0  0  0  0
   10.0125  -16.7929   26.1951 O   0  0  0  0  0  0  0  0  0  0  0  0
  2  1  1  6
  3  2  1  0
  4  3  1  0
  4  5  1  0
  5  6  1  0
  6  7  1  0
  8  2  1  0
  8  9  2  0
 11 10  1  6
 11 13  1  0
 12 11  1  0
 13 14  1  6
 14  8  1  0
 15 23  1  0
 15 13  1  0
 16 15  2  0
 17 18  1  0
 18 19  2  0
 18 20  1  0
 20 21  1  0
 22 21  1  6
 22 23  1  0
 22 24  1  0
 24 25  1  0
 26 24  2  0
M  END
$$$$
