KTQ.pdb
     RDKit          3D

 26 25  0  0  1  0  0  0  0  0999 V2000
    7.2142  -18.2106   17.1439 N   0  0  0  0  0  0  0  0  0  0  0  0
    6.6324  -17.3623   18.1526 C   0  0  1  0  0  0  0  0  0  0  0  0
    5.8209  -18.1796   19.1046 C   0  0  0  0  0  0  0  0  0  0  0  0
    6.3930  -19.4794   19.5245 C   0  0  0  0  0  0  0  0  0  0  0  0
    5.5543  -20.3761   20.3493 C   0  0  0  0  0  0  0  0  0  0  0  0
    6.1329  -21.7329   20.6263 C   0  0  0  0  0  0  0  0  0  0  0  0
    5.2928  -22.5440   21.4734 N   0  0  0  0  0  0  0  0  0  0  0  0
    7.7721  -16.7330   18.9133 C   0  0  0  0  0  0  0  0  0  0  0  0
    8.9648  -17.0579   18.6861 O   0  0  0  0  0  0  0  0  0  0  0  0
    7.5843  -12.8245   19.8343 C   0  0  0  0  0  0  0  0  0  0  0  0
    8.0230  -13.6506   21.0252 C   0  0  1  0  0  0  0  0  0  0  0  0
    6.9225  -13.7696   21.8632 O   0  0  0  0  0  0  0  0  0  0  0  0
    8.5516  -15.0068   20.5886 C   0  0  2  0  0  0  0  0  0  0  0  0
    7.5023  -15.7589   19.9018 N   0  0  0  0  0  0  0  0  0  0  0  0
    8.9829  -15.8106   21.7597 C   0  0  0  0  0  0  0  0  0  0  0  0
    8.1837  -16.6294   22.3320 O   0  0  0  0  0  0  0  0  0  0  0  0
   13.7360  -19.8866   22.7156 N   0  0  0  0  0  0  0  0  0  0  0  0
   13.4354  -18.6414   22.1186 C   0  0  0  0  0  0  0  0  0  0  0  0
   14.3045  -18.0314   21.4482 O   0  0  0  0  0  0  0  0  0  0  0  0
   12.0968  -18.0492   22.2720 C   0  0  0  0  0  0  0  0  0  0  0  0
   11.9442  -17.0643   23.3624 C   0  0  0  0  0  0  0  0  0  0  0  0
   10.6221  -16.4410   23.5894 C   0  0  2  0  0  0  0  0  0  0  0  0
   10.2795  -15.7412   22.3266 N   0  0  0  0  0  0  0  0  0  0  0  0
   10.3956  -15.6157   24.7497 C   0  0  0  0  0  0  0  0  0  0  0  0
   10.3162  -16.0465   26.0705 O   0  0  0  0  0  0  0  0  0  0  0  0
   10.2371  -14.3473   24.6191 O   0  0  0  0  0  0  0  0  0  0  0  0
  2  1  1  6
  3  2  1  0
  4  3  1  0
  4  5  1  0
  5  6  1  0
  6  7  1  0
  8  2  1  0
  8  9  2  0
 11 10  1  6
 11 13  1  0
 12 11  1  0
 13 14  1  1
 14  8  1  0
 15 23  1  0
 15 13  1  0
 16 15  2  0
 17 18  1  0
 18 19  2  0
 18 20  1  0
 20 21  1  0
 22 21  1  6
 22 23  1  0
 22 24  1  0
 24 25  1  0
 26 24  2  0
M  END
$$$$
