KTQ.pdb
     RDKit          3D

 26 25  0  0  1  0  0  0  0  0999 V2000
    7.2787  -17.9988   18.7331 N   0  0  0  0  0  0  0  0  0  0  0  0
    8.1259  -17.6019   17.6375 C   0  0  1  0  0  0  0  0  0  0  0  0
    7.2928  -17.2148   16.4590 C   0  0  0  0  0  0  0  0  0  0  0  0
    6.6295  -18.3138   15.7203 C   0  0  0  0  0  0  0  0  0  0  0  0
    5.3466  -18.0238   15.0437 C   0  0  0  0  0  0  0  0  0  0  0  0
    4.6986  -19.1888   14.3543 C   0  0  0  0  0  0  0  0  0  0  0  0
    3.4266  -18.8582   13.7593 N   0  0  0  0  0  0  0  0  0  0  0  0
    8.9014  -16.3917   18.0933 C   0  0  0  0  0  0  0  0  0  0  0  0
    9.6769  -15.7834   17.3134 O   0  0  0  0  0  0  0  0  0  0  0  0
    7.5956  -13.2327   19.0551 C   0  0  0  0  0  0  0  0  0  0  0  0
    8.3785  -13.6678   20.2762 C   0  0  1  0  0  0  0  0  0  0  0  0
    7.4573  -14.1437   21.1995 O   0  0  0  0  0  0  0  0  0  0  0  0
    9.4161  -14.7187   19.9182 C   0  0  2  0  0  0  0  0  0  0  0  0
    8.7588  -15.9265   19.4208 N   0  0  0  0  0  0  0  0  0  0  0  0
   10.2146  -15.1036   21.1090 C   0  0  0  0  0  0  0  0  0  0  0  0
    9.6680  -15.6655   22.1200 O   0  0  0  0  0  0  0  0  0  0  0  0
   10.5218  -18.7534   23.9219 N   0  0  0  0  0  0  0  0  0  0  0  0
   11.9078  -18.6421   24.1749 C   0  0  0  0  0  0  0  0  0  0  0  0
   12.4314  -19.2644   25.1317 O   0  0  0  0  0  0  0  0  0  0  0  0
   12.7536  -17.7994   23.3143 C   0  0  0  0  0  0  0  0  0  0  0  0
   12.0403  -16.9066   22.3781 C   0  0  0  0  0  0  0  0  0  0  0  0
   12.4069  -15.4744   22.3290 C   0  0  2  0  0  0  0  0  0  0  0  0
   11.6102  -14.8877   21.2232 N   0  0  0  0  0  0  0  0  0  0  0  0
   13.7922  -15.0788   22.2735 C   0  0  0  0  0  0  0  0  0  0  0  0
   14.6995  -15.0867   23.3286 O   0  0  0  0  0  0  0  0  0  0  0  0
   14.3009  -14.6613   21.1699 O   0  0  0  0  0  0  0  0  0  0  0  0
  2  1  1  1
  3  2  1  0
  4  3  1  0
  4  5  1  0
  5  6  1  0
  6  7  1  0
  8  2  1  0
  8  9  2  0
 11 10  1  6
 11 13  1  0
 12 11  1  0
 13 14  1  1
 14  8  1  0
 15 23  1  0
 15 13  1  0
 16 15  2  0
 17 18  1  0
 18 19  2  0
 18 20  1  0
 20 21  1  0
 22 21  1  6
 22 23  1  0
 22 24  1  0
 24 25  1  0
 26 24  2  0
M  END
$$$$
