MRN.pdb
     RDKit          3D

 28 27  0  0  1  0  0  0  0  0999 V2000
    9.1876  -12.6256   27.9404 C   0  0  0  0  0  0  0  0  0  0  0  0
    9.1184  -14.2156   28.7662 S   0  0  0  0  0  0  0  0  0  0  0  0
    8.0251  -15.3969   27.9352 C   0  0  0  0  0  0  0  0  0  0  0  0
    8.2878  -15.4274   26.4446 C   0  0  0  0  0  0  0  0  0  0  0  0
    7.2909  -16.3080   25.7255 C   0  0  2  0  0  0  0  0  0  0  0  0
    7.3350  -17.6059   26.3483 N   0  0  0  0  0  0  0  0  0  0  0  0
    7.5701  -16.4077   24.2786 C   0  0  0  0  0  0  0  0  0  0  0  0
    7.7851  -17.5390   23.7926 O   0  0  0  0  0  0  0  0  0  0  0  0
    7.1117  -15.3846   17.2466 N   0  0  0  0  0  0  0  0  0  0  0  0
    7.9090  -14.2555   16.8439 C   0  0  0  0  0  0  0  0  0  0  0  0
    8.5449  -14.3642   15.7348 N   0  0  0  0  0  0  0  0  0  0  0  0
    7.9737  -13.1042   17.6400 N   0  0  0  0  0  0  0  0  0  0  0  0
    7.4636  -13.1039   18.9926 C   0  0  0  0  0  0  0  0  0  0  0  0
    8.2604  -14.0326   19.9043 C   0  0  0  0  0  0  0  0  0  0  0  0
    7.6648  -14.0304   21.3072 C   0  0  0  0  0  0  0  0  0  0  0  0
    8.0207  -15.2891   22.0537 C   0  0  2  0  0  0  0  0  0  0  0  0
    7.6062  -15.2937   23.4181 N   0  0  0  0  0  0  0  0  0  0  0  0
    9.4925  -15.4958   21.9649 C   0  0  0  0  0  0  0  0  0  0  0  0
   10.2412  -14.8662   22.7505 O   0  0  0  0  0  0  0  0  0  0  0  0
    9.1153  -13.5951   15.3829 N   0  0  0  0  0  0  0  0  0  0  0  0
   12.9969  -17.4379   23.3896 C   0  0  0  0  0  0  0  0  0  0  0  0
   12.4479  -18.5093   22.5691 O   0  0  0  0  0  0  0  0  0  0  0  0
   12.7148  -19.6524   23.0123 C   0  0  0  0  0  0  0  0  0  0  0  0
   11.6749  -18.1857   21.3650 C   0  0  2  0  0  0  0  0  0  0  0  0
   11.5097  -16.6971   21.2184 N   0  0  0  0  0  0  0  0  0  0  0  0
   10.0876  -16.3732   21.0317 C   0  0  0  0  0  0  0  0  0  0  0  0
   12.2088  -16.1128   20.0739 O   0  0  0  0  0  0  0  0  0  0  0  0
   11.8733  -16.3721   18.9003 O   0  0  0  0  0  0  0  0  0  0  0  0
  1  2  1  0
  2  3  1  0
  3  4  1  0
  4  5  1  0
  5  6  1  1
  7  5  1  0
  8  7  2  0
 10  9  1  0
 11 10  2  0
 12 10  1  0
 13 12  1  0
 14 13  1  0
 15 14  1  0
 16 15  1  1
 16 17  1  0
 17  7  1  0
 18 16  1  0
 19 18  2  0
 21 20  1  0
 22 21  2  0
 23 21  1  0
 24 23  1  1
 24 25  1  0
 25 18  1  0
 26 24  1  0
 26 28  1  0
 27 26  2  0
M  END
$$$$
