MRN.pdb
     RDKit          3D

 28 27  0  0  1  0  0  0  0  0999 V2000
   10.2184  -13.2293   27.9553 C   0  0  0  0  0  0  0  0  0  0  0  0
    8.4734  -12.8357   28.0763 S   0  0  0  0  0  0  0  0  0  0  0  0
    7.4237  -14.3069   28.1990 C   0  0  0  0  0  0  0  0  0  0  0  0
    6.7309  -14.5935   26.8838 C   0  0  0  0  0  0  0  0  0  0  0  0
    7.2444  -15.8691   26.2548 C   0  0  2  0  0  0  0  0  0  0  0  0
    8.5727  -16.0955   26.7635 N   0  0  0  0  0  0  0  0  0  0  0  0
    7.2485  -15.8063   24.7792 C   0  0  0  0  0  0  0  0  0  0  0  0
    6.1500  -15.7722   24.1840 O   0  0  0  0  0  0  0  0  0  0  0  0
    8.6704  -14.2672   16.6713 N   0  0  0  0  0  0  0  0  0  0  0  0
    8.0531  -13.4470   17.6808 C   0  0  0  0  0  0  0  0  0  0  0  0
    8.5736  -12.2921   17.8840 N   0  0  0  0  0  0  0  0  0  0  0  0
    6.9392  -13.9080   18.3953 N   0  0  0  0  0  0  0  0  0  0  0  0
    6.8939  -13.8279   19.8379 C   0  0  0  0  0  0  0  0  0  0  0  0
    8.1472  -14.4131   20.4826 C   0  0  0  0  0  0  0  0  0  0  0  0
    8.0011  -14.4261   21.9995 C   0  0  0  0  0  0  0  0  0  0  0  0
    8.5080  -15.7173   22.5860 C   0  0  2  0  0  0  0  0  0  0  0  0
    8.4265  -15.7825   24.0081 N   0  0  0  0  0  0  0  0  0  0  0  0
    9.9151  -15.9216   22.1439 C   0  0  0  0  0  0  0  0  0  0  0  0
   10.4824  -15.0137   21.4896 O   0  0  0  0  0  0  0  0  0  0  0  0
    8.2442  -11.6979   18.6450 N   0  0  0  0  0  0  0  0  0  0  0  0
   14.7040  -16.0338   23.4683 C   0  0  0  0  0  0  0  0  0  0  0  0
   13.6008  -15.9964   24.4191 O   0  0  0  0  0  0  0  0  0  0  0  0
   13.9835  -15.9540   25.6132 C   0  0  0  0  0  0  0  0  0  0  0  0
   12.2163  -16.0105   23.9340 C   0  0  1  0  0  0  0  0  0  0  0  0
   12.0681  -16.9457   22.7642 N   0  0  0  0  0  0  0  0  0  0  0  0
   10.6444  -17.0970   22.4291 C   0  0  0  0  0  0  0  0  0  0  0  0
   12.5731  -18.2993   22.9942 O   0  0  0  0  0  0  0  0  0  0  0  0
   12.2454  -18.9573   24.0026 O   0  0  0  0  0  0  0  0  0  0  0  0
  1  2  1  0
  2  3  1  0
  3  4  1  0
  4  5  1  0
  5  6  1  1
  7  5  1  0
  8  7  2  0
 10  9  1  0
 11 10  2  0
 12 10  1  0
 13 12  1  0
 14 13  1  0
 15 14  1  0
 16 15  1  1
 16 17  1  0
 17  7  1  0
 18 16  1  0
 19 18  2  0
 21 20  1  0
 22 21  2  0
 23 21  1  0
 24 23  1  6
 24 25  1  0
 25 18  1  0
 26 24  1  0
 26 28  1  0
 27 26  2  0
M  END
$$$$
