MRN.pdb
     RDKit          3D

 28 27  0  0  1  0  0  0  0  0999 V2000
    7.8426  -12.3970   28.2849 C   0  0  0  0  0  0  0  0  0  0  0  0
    6.9242  -11.6323   26.9483 S   0  0  0  0  0  0  0  0  0  0  0  0
    5.6439  -12.7137   26.2609 C   0  0  0  0  0  0  0  0  0  0  0  0
    6.2145  -14.0656   25.8883 C   0  0  0  0  0  0  0  0  0  0  0  0
    7.4048  -13.9281   24.9659 C   0  0  2  0  0  0  0  0  0  0  0  0
    6.9866  -13.1351   23.8386 N   0  0  0  0  0  0  0  0  0  0  0  0
    7.9283  -15.2368   24.5248 C   0  0  0  0  0  0  0  0  0  0  0  0
    7.8742  -16.1969   25.3232 O   0  0  0  0  0  0  0  0  0  0  0  0
    9.4500  -13.0914   18.5824 N   0  0  0  0  0  0  0  0  0  0  0  0
    8.1356  -13.5299   18.1913 C   0  0  0  0  0  0  0  0  0  0  0  0
    7.3589  -12.6439   17.6834 N   0  0  0  0  0  0  0  0  0  0  0  0
    7.7442  -14.8639   18.3666 N   0  0  0  0  0  0  0  0  0  0  0  0
    8.5851  -15.7999   19.0783 C   0  0  0  0  0  0  0  0  0  0  0  0
    8.4110  -15.6896   20.5903 C   0  0  0  0  0  0  0  0  0  0  0  0
    9.2730  -16.7295   21.2961 C   0  0  0  0  0  0  0  0  0  0  0  0
    9.0967  -16.6620   22.7903 C   0  0  2  0  0  0  0  0  0  0  0  0
    8.4851  -15.4589   23.2507 N   0  0  0  0  0  0  0  0  0  0  0  0
   10.4267  -16.8397   23.4356 C   0  0  0  0  0  0  0  0  0  0  0  0
   10.9821  -15.8458   23.9626 O   0  0  0  0  0  0  0  0  0  0  0  0
    6.4021  -12.8788   17.4187 N   0  0  0  0  0  0  0  0  0  0  0  0
   12.0449  -18.4142   27.9313 C   0  0  0  0  0  0  0  0  0  0  0  0
   11.2291  -19.2177   27.0306 O   0  0  0  0  0  0  0  0  0  0  0  0
   11.0919  -20.4030   27.4188 C   0  0  0  0  0  0  0  0  0  0  0  0
   10.6681  -18.6139   25.8170 C   0  0  1  0  0  0  0  0  0  0  0  0
   11.7240  -18.4664   24.7548 N   0  0  0  0  0  0  0  0  0  0  0  0
   11.0952  -18.0830   23.4821 C   0  0  0  0  0  0  0  0  0  0  0  0
   12.4866  -19.6833   24.4760 O   0  0  0  0  0  0  0  0  0  0  0  0
   12.1165  -20.5039   23.6118 O   0  0  0  0  0  0  0  0  0  0  0  0
  1  2  1  0
  2  3  1  0
  3  4  1  0
  4  5  1  0
  5  6  1  6
  7  5  1  0
  8  7  2  0
 10  9  1  0
 11 10  2  0
 12 10  1  0
 13 12  1  0
 14 13  1  0
 15 14  1  0
 16 15  1  6
 16 17  1  0
 17  7  1  0
 18 16  1  0
 19 18  2  0
 21 20  1  0
 22 21  2  0
 23 21  1  0
 24 23  1  1
 24 25  1  0
 25 18  1  0
 26 24  1  0
 26 28  1  0
 27 26  2  0
M  END
$$$$
