MRN.pdb
     RDKit          3D

 28 27  0  0  1  0  0  0  0  0999 V2000
    5.1413  -11.7048   26.6589 C   0  0  0  0  0  0  0  0  0  0  0  0
    6.8260  -11.6069   27.2646 S   0  0  0  0  0  0  0  0  0  0  0  0
    7.8212  -13.0548   26.8233 C   0  0  0  0  0  0  0  0  0  0  0  0
    7.0078  -14.0535   26.0278 C   0  0  0  0  0  0  0  0  0  0  0  0
    7.8441  -15.2436   25.6146 C   0  0  2  0  0  0  0  0  0  0  0  0
    9.1873  -15.0074   26.0775 N   0  0  0  0  0  0  0  0  0  0  0  0
    7.8212  -15.4670   24.1548 C   0  0  0  0  0  0  0  0  0  0  0  0
    6.8055  -15.9933   23.6513 O   0  0  0  0  0  0  0  0  0  0  0  0
    7.3288  -12.7341   15.7854 N   0  0  0  0  0  0  0  0  0  0  0  0
    7.5003  -13.8593   16.6670 C   0  0  0  0  0  0  0  0  0  0  0  0
    7.4824  -15.0232   16.1275 N   0  0  0  0  0  0  0  0  0  0  0  0
    7.6760  -13.6696   18.0442 N   0  0  0  0  0  0  0  0  0  0  0  0
    8.9954  -13.5050   18.6115 C   0  0  0  0  0  0  0  0  0  0  0  0
    9.3476  -14.6335   19.5765 C   0  0  0  0  0  0  0  0  0  0  0  0
    8.9530  -14.2519   20.9982 C   0  0  0  0  0  0  0  0  0  0  0  0
    9.0043  -15.4436   21.9178 C   0  0  2  0  0  0  0  0  0  0  0  0
    8.8847  -15.1174   23.3008 N   0  0  0  0  0  0  0  0  0  0  0  0
   10.2752  -16.1798   21.6734 C   0  0  0  0  0  0  0  0  0  0  0  0
   10.4060  -16.8245   20.6051 O   0  0  0  0  0  0  0  0  0  0  0  0
    7.6652  -15.8589   16.6834 N   0  0  0  0  0  0  0  0  0  0  0  0
   13.3961  -13.9860   20.6584 C   0  0  0  0  0  0  0  0  0  0  0  0
   13.3507  -15.4420   20.6455 O   0  0  0  0  0  0  0  0  0  0  0  0
   13.0279  -15.9129   19.5282 C   0  0  0  0  0  0  0  0  0  0  0  0
   13.6664  -16.1945   21.8647 C   0  0  2  0  0  0  0  0  0  0  0  0
   12.4988  -17.0449   22.2868 N   0  0  0  0  0  0  0  0  0  0  0  0
   11.3462  -16.1853   22.5942 C   0  0  0  0  0  0  0  0  0  0  0  0
   12.7299  -17.8515   23.4852 O   0  0  0  0  0  0  0  0  0  0  0  0
   11.9905  -17.7623   24.4865 O   0  0  0  0  0  0  0  0  0  0  0  0
  1  2  1  0
  2  3  1  0
  3  4  1  0
  4  5  1  0
  5  6  1  6
  7  5  1  0
  8  7  2  0
 10  9  1  0
 11 10  2  0
 12 10  1  0
 13 12  1  0
 14 13  1  0
 15 14  1  0
 16 15  1  6
 16 17  1  0
 17  7  1  0
 18 16  1  0
 19 18  2  0
 21 20  1  0
 22 21  2  0
 23 21  1  0
 24 23  1  6
 24 25  1  0
 25 18  1  0
 26 24  1  0
 26 28  1  0
 27 26  2  0
M  END
$$$$
