MRN.pdb
     RDKit          3D

 28 27  0  0  1  0  0  0  0  0999 V2000
    8.0172  -11.4574   27.7994 C   0  0  0  0  0  0  0  0  0  0  0  0
    6.9207  -12.3345   26.6846 S   0  0  0  0  0  0  0  0  0  0  0  0
    6.7150  -14.0800   27.1230 C   0  0  0  0  0  0  0  0  0  0  0  0
    6.4836  -14.9280   25.8905 C   0  0  0  0  0  0  0  0  0  0  0  0
    7.7781  -15.5099   25.3687 C   0  0  2  0  0  0  0  0  0  0  0  0
    8.8265  -14.5711   25.6751 N   0  0  0  0  0  0  0  0  0  0  0  0
    7.7258  -15.7873   23.9190 C   0  0  0  0  0  0  0  0  0  0  0  0
    6.9043  -16.6341   23.5064 O   0  0  0  0  0  0  0  0  0  0  0  0
    6.5829  -14.5968   16.4809 N   0  0  0  0  0  0  0  0  0  0  0  0
    7.7103  -13.7431   16.2107 C   0  0  0  0  0  0  0  0  0  0  0  0
    8.1496  -13.7315   15.0053 N   0  0  0  0  0  0  0  0  0  0  0  0
    8.2848  -12.9717   17.2297 N   0  0  0  0  0  0  0  0  0  0  0  0
    7.7669  -13.0142   18.5786 C   0  0  0  0  0  0  0  0  0  0  0  0
    8.1646  -14.2968   19.3036 C   0  0  0  0  0  0  0  0  0  0  0  0
    8.3160  -14.0315   20.7967 C   0  0  0  0  0  0  0  0  0  0  0  0
    8.5152  -15.3135   21.5617 C   0  0  2  0  0  0  0  0  0  0  0  0
    8.5538  -15.1466   22.9774 N   0  0  0  0  0  0  0  0  0  0  0  0
    9.7694  -15.9612   21.0880 C   0  0  0  0  0  0  0  0  0  0  0  0
    9.8139  -16.4121   19.9181 O   0  0  0  0  0  0  0  0  0  0  0  0
    8.9286  -13.1286   14.7396 N   0  0  0  0  0  0  0  0  0  0  0  0
   15.3189  -14.6205   20.8222 C   0  0  0  0  0  0  0  0  0  0  0  0
   14.1438  -15.2393   20.2234 O   0  0  0  0  0  0  0  0  0  0  0  0
   14.4135  -15.9212   19.2053 C   0  0  0  0  0  0  0  0  0  0  0  0
   12.8210  -15.0284   20.8218 C   0  0  2  0  0  0  0  0  0  0  0  0
   12.2000  -16.3388   21.2243 N   0  0  0  0  0  0  0  0  0  0  0  0
   10.9177  -16.0916   21.9000 C   0  0  0  0  0  0  0  0  0  0  0  0
   12.9989  -17.1346   22.1563 O   0  0  0  0  0  0  0  0  0  0  0  0
   12.7146  -17.2018   23.3695 O   0  0  0  0  0  0  0  0  0  0  0  0
  1  2  1  0
  2  3  1  0
  3  4  1  0
  4  5  1  0
  5  6  1  6
  7  5  1  0
  8  7  2  0
 10  9  1  0
 11 10  2  0
 12 10  1  0
 13 12  1  0
 14 13  1  0
 15 14  1  0
 16 15  1  6
 16 17  1  0
 17  7  1  0
 18 16  1  0
 19 18  2  0
 21 20  1  0
 22 21  2  0
 23 21  1  0
 24 23  1  6
 24 25  1  0
 25 18  1  0
 26 24  1  0
 26 28  1  0
 27 26  2  0
M  END
$$$$
