MRN.pdb
     RDKit          3D

 28 27  0  0  1  0  0  0  0  0999 V2000
    5.3080  -11.5561   26.4508 C   0  0  0  0  0  0  0  0  0  0  0  0
    6.3715  -12.2153   27.7350 S   0  0  0  0  0  0  0  0  0  0  0  0
    7.0011  -13.8700   27.3514 C   0  0  0  0  0  0  0  0  0  0  0  0
    6.2878  -14.4604   26.1537 C   0  0  0  0  0  0  0  0  0  0  0  0
    6.8499  -15.8159   25.7884 C   0  0  2  0  0  0  0  0  0  0  0  0
    8.0438  -16.0117   26.5698 N   0  0  0  0  0  0  0  0  0  0  0  0
    7.1392  -15.9339   24.3449 C   0  0  0  0  0  0  0  0  0  0  0  0
    6.1832  -16.1206   23.5616 O   0  0  0  0  0  0  0  0  0  0  0  0
    8.1692  -14.9672   17.4324 N   0  0  0  0  0  0  0  0  0  0  0  0
    8.8641  -13.7325   17.6885 C   0  0  0  0  0  0  0  0  0  0  0  0
   10.0429  -13.6205   17.1945 N   0  0  0  0  0  0  0  0  0  0  0  0
    8.2637  -12.7163   18.4437 N   0  0  0  0  0  0  0  0  0  0  0  0
    7.9164  -12.9251   19.8313 C   0  0  0  0  0  0  0  0  0  0  0  0
    8.5909  -14.1663   20.4089 C   0  0  0  0  0  0  0  0  0  0  0  0
    8.2060  -14.3405   21.8731 C   0  0  0  0  0  0  0  0  0  0  0  0
    8.7736  -15.6156   22.4391 C   0  0  2  0  0  0  0  0  0  0  0  0
    8.4369  -15.8468   23.8053 N   0  0  0  0  0  0  0  0  0  0  0  0
   10.2531  -15.5936   22.2729 C   0  0  0  0  0  0  0  0  0  0  0  0
   10.9376  -14.8691   23.0348 O   0  0  0  0  0  0  0  0  0  0  0  0
   10.5734  -12.7557   17.3013 N   0  0  0  0  0  0  0  0  0  0  0  0
   14.9029  -19.1831   21.6980 C   0  0  0  0  0  0  0  0  0  0  0  0
   13.8056  -18.4081   22.2614 O   0  0  0  0  0  0  0  0  0  0  0  0
   13.9874  -18.1035   23.4650 C   0  0  0  0  0  0  0  0  0  0  0  0
   12.6475  -18.0670   21.4279 C   0  0  2  0  0  0  0  0  0  0  0  0
   12.3635  -16.5902   21.4841 N   0  0  0  0  0  0  0  0  0  0  0  0
   10.9248  -16.3555   21.2915 C   0  0  0  0  0  0  0  0  0  0  0  0
   13.0412  -15.7965   20.4589 O   0  0  0  0  0  0  0  0  0  0  0  0
   13.9088  -14.9496   20.7544 O   0  0  0  0  0  0  0  0  0  0  0  0
  1  2  1  0
  2  3  1  0
  3  4  1  0
  4  5  1  0
  5  6  1  1
  7  5  1  0
  8  7  2  0
 10  9  1  0
 11 10  2  0
 12 10  1  0
 13 12  1  0
 14 13  1  0
 15 14  1  0
 16 15  1  1
 16 17  1  0
 17  7  1  0
 18 16  1  0
 19 18  2  0
 21 20  1  0
 22 21  2  0
 23 21  1  0
 24 23  1  1
 24 25  1  0
 25 18  1  0
 26 24  1  0
 26 28  1  0
 27 26  2  0
M  END
$$$$
