MRN.pdb
     RDKit          3D

 28 27  0  0  1  0  0  0  0  0999 V2000
    7.2465  -11.3898   26.0196 C   0  0  0  0  0  0  0  0  0  0  0  0
    6.6072  -12.1946   27.4887 S   0  0  0  0  0  0  0  0  0  0  0  0
    6.2590  -13.9542   27.2361 C   0  0  0  0  0  0  0  0  0  0  0  0
    7.1267  -14.5293   26.1368 C   0  0  0  0  0  0  0  0  0  0  0  0
    6.7801  -15.9745   25.8579 C   0  0  2  0  0  0  0  0  0  0  0  0
    6.9632  -16.7058   27.0851 N   0  0  0  0  0  0  0  0  0  0  0  0
    7.6010  -16.5502   24.7735 C   0  0  0  0  0  0  0  0  0  0  0  0
    8.3022  -17.5529   25.0288 O   0  0  0  0  0  0  0  0  0  0  0  0
    7.7319  -14.0534   16.4439 N   0  0  0  0  0  0  0  0  0  0  0  0
    8.3515  -13.4395   17.5894 C   0  0  0  0  0  0  0  0  0  0  0  0
    8.6499  -12.1959   17.4870 N   0  0  0  0  0  0  0  0  0  0  0  0
    8.6079  -14.1831   18.7491 N   0  0  0  0  0  0  0  0  0  0  0  0
    8.8394  -15.6085   18.6845 C   0  0  0  0  0  0  0  0  0  0  0  0
    9.2464  -16.1836   20.0381 C   0  0  0  0  0  0  0  0  0  0  0  0
    8.3173  -15.6666   21.1299 C   0  0  0  0  0  0  0  0  0  0  0  0
    8.5345  -16.4025   22.4258 C   0  0  2  0  0  0  0  0  0  0  0  0
    7.6344  -16.0277   23.4663 N   0  0  0  0  0  0  0  0  0  0  0  0
    9.9414  -16.1899   22.8645 C   0  0  0  0  0  0  0  0  0  0  0  0
   10.2347  -15.1283   23.4655 O   0  0  0  0  0  0  0  0  0  0  0  0
    9.1251  -11.7090   18.2472 N   0  0  0  0  0  0  0  0  0  0  0  0
   11.8939  -17.4918   25.9970 C   0  0  0  0  0  0  0  0  0  0  0  0
   12.1772  -18.4486   24.9356 O   0  0  0  0  0  0  0  0  0  0  0  0
   11.7148  -19.5914   25.1690 C   0  0  0  0  0  0  0  0  0  0  0  0
   12.9338  -18.0254   23.7521 C   0  0  2  0  0  0  0  0  0  0  0  0
   12.3123  -16.8057   23.1269 N   0  0  0  0  0  0  0  0  0  0  0  0
   10.9663  -17.1338   22.6340 C   0  0  0  0  0  0  0  0  0  0  0  0
   13.0409  -16.2672   21.9783 O   0  0  0  0  0  0  0  0  0  0  0  0
   12.5407  -16.2511   20.8352 O   0  0  0  0  0  0  0  0  0  0  0  0
  1  2  1  0
  2  3  1  0
  3  4  1  0
  4  5  1  0
  5  6  1  1
  7  5  1  0
  8  7  2  0
 10  9  1  0
 11 10  2  0
 12 10  1  0
 13 12  1  0
 14 13  1  0
 15 14  1  0
 16 15  1  6
 16 17  1  0
 17  7  1  0
 18 16  1  0
 19 18  2  0
 21 20  1  0
 22 21  2  0
 23 21  1  0
 24 23  1  1
 24 25  1  0
 25 18  1  0
 26 24  1  0
 26 28  1  0
 27 26  2  0
M  END
$$$$
