MRN.pdb
     RDKit          3D

 28 27  0  0  1  0  0  0  0  0999 V2000
    7.9034  -11.6336   27.7867 C   0  0  0  0  0  0  0  0  0  0  0  0
    6.2468  -11.9021   27.1556 S   0  0  0  0  0  0  0  0  0  0  0  0
    5.9752  -13.5985   26.5814 C   0  0  0  0  0  0  0  0  0  0  0  0
    7.0779  -14.0393   25.6424 C   0  0  0  0  0  0  0  0  0  0  0  0
    6.9068  -15.4834   25.2280 C   0  0  2  0  0  0  0  0  0  0  0  0
    6.8737  -16.2754   26.4305 N   0  0  0  0  0  0  0  0  0  0  0  0
    7.9826  -15.9404   24.3251 C   0  0  0  0  0  0  0  0  0  0  0  0
    9.1383  -16.0513   24.7880 O   0  0  0  0  0  0  0  0  0  0  0  0
    7.2945  -13.5693   16.3744 N   0  0  0  0  0  0  0  0  0  0  0  0
    8.4635  -14.0882   17.0356 C   0  0  0  0  0  0  0  0  0  0  0  0
    9.5268  -14.1982   16.3261 N   0  0  0  0  0  0  0  0  0  0  0  0
    8.4194  -14.4501   18.3886 N   0  0  0  0  0  0  0  0  0  0  0  0
    7.4683  -13.8426   19.2919 C   0  0  0  0  0  0  0  0  0  0  0  0
    8.1336  -13.3423   20.5709 C   0  0  0  0  0  0  0  0  0  0  0  0
    7.6051  -14.1130   21.7747 C   0  0  0  0  0  0  0  0  0  0  0  0
    8.2013  -15.4943   21.8436 C   0  0  2  0  0  0  0  0  0  0  0  0
    7.7733  -16.2578   22.9693 N   0  0  0  0  0  0  0  0  0  0  0  0
    9.6853  -15.3734   21.8413 C   0  0  0  0  0  0  0  0  0  0  0  0
   10.2447  -14.7969   20.8776 O   0  0  0  0  0  0  0  0  0  0  0  0
   10.3928  -14.5500   16.7349 N   0  0  0  0  0  0  0  0  0  0  0  0
   12.0015  -19.6054   20.0942 C   0  0  0  0  0  0  0  0  0  0  0  0
   12.0639  -18.9208   21.3787 O   0  0  0  0  0  0  0  0  0  0  0  0
   13.0737  -19.2355   22.0537 C   0  0  0  0  0  0  0  0  0  0  0  0
   11.0065  -17.9768   21.7566 C   0  0  2  0  0  0  0  0  0  0  0  0
   11.5784  -16.8033   22.5053 N   0  0  0  0  0  0  0  0  0  0  0  0
   10.4965  -15.8808   22.8802 C   0  0  0  0  0  0  0  0  0  0  0  0
   12.5433  -16.0053   21.7488 O   0  0  0  0  0  0  0  0  0  0  0  0
   13.6609  -15.7109   22.2195 O   0  0  0  0  0  0  0  0  0  0  0  0
  1  2  1  0
  2  3  1  0
  3  4  1  0
  4  5  1  0
  5  6  1  1
  7  5  1  0
  8  7  2  0
 10  9  1  0
 11 10  2  0
 12 10  1  0
 13 12  1  0
 14 13  1  0
 15 14  1  0
 16 15  1  1
 16 17  1  0
 17  7  1  0
 18 16  1  0
 19 18  2  0
 21 20  1  0
 22 21  2  0
 23 21  1  0
 24 23  1  1
 24 25  1  0
 25 18  1  0
 26 24  1  0
 26 28  1  0
 27 26  2  0
M  END
$$$$
