MRN.pdb
     RDKit          3D

 28 27  0  0  1  0  0  0  0  0999 V2000
    7.0778  -11.6132   26.4619 C   0  0  0  0  0  0  0  0  0  0  0  0
    6.0285  -12.7876   27.3189 S   0  0  0  0  0  0  0  0  0  0  0  0
    6.8687  -14.3498   27.6862 C   0  0  0  0  0  0  0  0  0  0  0  0
    7.6237  -14.8601   26.4773 C   0  0  0  0  0  0  0  0  0  0  0  0
    6.7470  -15.7296   25.6045 C   0  0  2  0  0  0  0  0  0  0  0  0
    6.4912  -16.9477   26.3291 N   0  0  0  0  0  0  0  0  0  0  0  0
    7.3656  -16.0155   24.2942 C   0  0  0  0  0  0  0  0  0  0  0  0
    7.9836  -17.0927   24.1524 O   0  0  0  0  0  0  0  0  0  0  0  0
    9.7238  -14.1015   16.4635 N   0  0  0  0  0  0  0  0  0  0  0  0
    8.2872  -14.1552   16.5422 C   0  0  0  0  0  0  0  0  0  0  0  0
    7.6719  -14.6514   15.5316 N   0  0  0  0  0  0  0  0  0  0  0  0
    7.6141  -13.6821   17.6766 N   0  0  0  0  0  0  0  0  0  0  0  0
    8.3392  -13.1117   18.7895 C   0  0  0  0  0  0  0  0  0  0  0  0
    8.7248  -14.1673   19.8218 C   0  0  0  0  0  0  0  0  0  0  0  0
    7.7586  -14.1283   20.9999 C   0  0  0  0  0  0  0  0  0  0  0  0
    8.0903  -15.1915   22.0137 C   0  0  2  0  0  0  0  0  0  0  0  0
    7.2949  -15.1371   23.1959 N   0  0  0  0  0  0  0  0  0  0  0  0
    9.5339  -15.0837   22.3624 C   0  0  0  0  0  0  0  0  0  0  0  0
    9.8663  -14.4030   23.3625 O   0  0  0  0  0  0  0  0  0  0  0  0
    6.6525  -14.6776   15.5027 N   0  0  0  0  0  0  0  0  0  0  0  0
   14.2873  -16.3826   23.4055 C   0  0  0  0  0  0  0  0  0  0  0  0
   13.0938  -16.8273   24.1127 O   0  0  0  0  0  0  0  0  0  0  0  0
   13.3516  -17.3925   25.2028 C   0  0  0  0  0  0  0  0  0  0  0  0
   11.7682  -16.5932   23.5295 C   0  0  1  0  0  0  0  0  0  0  0  0
   11.8786  -15.8291   22.2377 N   0  0  0  0  0  0  0  0  0  0  0  0
   10.5515  -15.7162   21.6147 C   0  0  0  0  0  0  0  0  0  0  0  0
   12.7435  -16.4469   21.2325 O   0  0  0  0  0  0  0  0  0  0  0  0
   12.3207  -17.3309   20.4599 O   0  0  0  0  0  0  0  0  0  0  0  0
  1  2  1  0
  2  3  1  0
  3  4  1  0
  4  5  1  0
  5  6  1  1
  7  5  1  0
  8  7  2  0
 10  9  1  0
 11 10  2  0
 12 10  1  0
 13 12  1  0
 14 13  1  0
 15 14  1  0
 16 15  1  6
 16 17  1  0
 17  7  1  0
 18 16  1  0
 19 18  2  0
 21 20  1  0
 22 21  2  0
 23 21  1  0
 24 23  1  1
 24 25  1  0
 25 18  1  0
 26 24  1  0
 26 28  1  0
 27 26  2  0
M  END
$$$$
