MRN.pdb
     RDKit          3D

 28 27  0  0  1  0  0  0  0  0999 V2000
    9.6409  -12.6858   28.2307 C   0  0  0  0  0  0  0  0  0  0  0  0
    7.8594  -12.5587   28.0732 S   0  0  0  0  0  0  0  0  0  0  0  0
    7.1015  -14.0552   27.3895 C   0  0  0  0  0  0  0  0  0  0  0  0
    8.0919  -14.8326   26.5489 C   0  0  0  0  0  0  0  0  0  0  0  0
    7.4567  -16.0642   25.9437 C   0  0  2  0  0  0  0  0  0  0  0  0
    7.0546  -16.9195   27.0304 N   0  0  0  0  0  0  0  0  0  0  0  0
    8.3695  -16.7734   25.0243 C   0  0  0  0  0  0  0  0  0  0  0  0
    9.0037  -17.7580   25.4608 O   0  0  0  0  0  0  0  0  0  0  0  0
    7.9599  -14.1301   16.9155 N   0  0  0  0  0  0  0  0  0  0  0  0
    7.8892  -13.2128   18.0230 C   0  0  0  0  0  0  0  0  0  0  0  0
    7.5990  -11.9942   17.7455 N   0  0  0  0  0  0  0  0  0  0  0  0
    8.1301  -13.6510   19.3320 N   0  0  0  0  0  0  0  0  0  0  0  0
    8.5711  -15.0020   19.5964 C   0  0  0  0  0  0  0  0  0  0  0  0
    8.8232  -15.2405   21.0825 C   0  0  0  0  0  0  0  0  0  0  0  0
    9.2035  -16.6964   21.3242 C   0  0  0  0  0  0  0  0  0  0  0  0
    9.5183  -16.9449   22.7759 C   0  0  2  0  0  0  0  0  0  0  0  0
    8.5620  -16.3976   23.6810 N   0  0  0  0  0  0  0  0  0  0  0  0
   10.8722  -16.3997   23.0700 C   0  0  0  0  0  0  0  0  0  0  0  0
   11.0226  -15.6588   24.0712 O   0  0  0  0  0  0  0  0  0  0  0  0
    7.5314  -11.2930   18.4834 N   0  0  0  0  0  0  0  0  0  0  0  0
   15.8395  -17.6485   24.9848 C   0  0  0  0  0  0  0  0  0  0  0  0
   14.9390  -16.5807   24.5710 O   0  0  0  0  0  0  0  0  0  0  0  0
   15.4516  -15.4399   24.6725 C   0  0  0  0  0  0  0  0  0  0  0  0
   13.5886  -16.9047   24.0981 C   0  0  2  0  0  0  0  0  0  0  0  0
   13.3130  -16.2472   22.7727 N   0  0  0  0  0  0  0  0  0  0  0  0
   12.0012  -16.6802   22.2690 C   0  0  0  0  0  0  0  0  0  0  0  0
   14.2747  -16.5680   21.7180 O   0  0  0  0  0  0  0  0  0  0  0  0
   13.9448  -17.2248   20.7095 O   0  0  0  0  0  0  0  0  0  0  0  0
  1  2  1  0
  2  3  1  0
  3  4  1  0
  4  5  1  0
  5  6  1  1
  7  5  1  0
  8  7  2  0
 10  9  1  0
 11 10  2  0
 12 10  1  0
 13 12  1  0
 14 13  1  0
 15 14  1  0
 16 15  1  6
 16 17  1  0
 17  7  1  0
 18 16  1  0
 19 18  2  0
 21 20  1  0
 22 21  2  0
 23 21  1  0
 24 23  1  1
 24 25  1  0
 25 18  1  0
 26 24  1  0
 26 28  1  0
 27 26  2  0
M  END
$$$$
