MRN.pdb
     RDKit          3D

 28 27  0  0  1  0  0  0  0  0999 V2000
    5.2928  -11.9509   26.7298 C   0  0  0  0  0  0  0  0  0  0  0  0
    7.0678  -12.1169   26.9207 S   0  0  0  0  0  0  0  0  0  0  0  0
    7.5493  -13.6558   27.7460 C   0  0  0  0  0  0  0  0  0  0  0  0
    7.0484  -14.8635   26.9829 C   0  0  0  0  0  0  0  0  0  0  0  0
    8.1816  -15.5938   26.2981 C   0  0  2  0  0  0  0  0  0  0  0  0
    9.3569  -14.7693   26.4129 N   0  0  0  0  0  0  0  0  0  0  0  0
    7.8837  -15.8930   24.8828 C   0  0  0  0  0  0  0  0  0  0  0  0
    6.9766  -16.7143   24.6284 O   0  0  0  0  0  0  0  0  0  0  0  0
    7.8920  -15.0065   16.4011 N   0  0  0  0  0  0  0  0  0  0  0  0
    7.9772  -13.7609   17.1179 C   0  0  0  0  0  0  0  0  0  0  0  0
    8.1036  -12.6965   16.4127 N   0  0  0  0  0  0  0  0  0  0  0  0
    7.9235  -13.7353   18.5180 N   0  0  0  0  0  0  0  0  0  0  0  0
    8.0009  -14.9555   19.2891 C   0  0  0  0  0  0  0  0  0  0  0  0
    6.9690  -14.9881   20.4128 C   0  0  0  0  0  0  0  0  0  0  0  0
    7.5848  -14.4709   21.7074 C   0  0  0  0  0  0  0  0  0  0  0  0
    8.3514  -15.5547   22.4187 C   0  0  2  0  0  0  0  0  0  0  0  0
    8.5688  -15.3002   23.8048 N   0  0  0  0  0  0  0  0  0  0  0  0
    9.6534  -15.7520   21.7239 C   0  0  0  0  0  0  0  0  0  0  0  0
   10.0425  -14.8822   20.9078 O   0  0  0  0  0  0  0  0  0  0  0  0
    8.1931  -11.7831   16.8580 N   0  0  0  0  0  0  0  0  0  0  0  0
   14.8714  -15.9214   23.0325 C   0  0  0  0  0  0  0  0  0  0  0  0
   13.9406  -15.4937   21.9966 O   0  0  0  0  0  0  0  0  0  0  0  0
   14.5153  -15.0957   20.9546 C   0  0  0  0  0  0  0  0  0  0  0  0
   12.4953  -15.5585   22.2398 C   0  0  2  0  0  0  0  0  0  0  0  0
   11.8935  -16.7660   21.5730 N   0  0  0  0  0  0  0  0  0  0  0  0
   10.4749  -16.8798   21.9429 C   0  0  0  0  0  0  0  0  0  0  0  0
   12.5090  -18.0405   21.9428 O   0  0  0  0  0  0  0  0  0  0  0  0
   11.9238  -18.8604   22.6794 O   0  0  0  0  0  0  0  0  0  0  0  0
  1  2  1  0
  2  3  1  0
  3  4  1  0
  4  5  1  0
  5  6  1  6
  7  5  1  0
  8  7  2  0
 10  9  1  0
 11 10  2  0
 12 10  1  0
 13 12  1  0
 14 13  1  0
 15 14  1  0
 16 15  1  6
 16 17  1  0
 17  7  1  0
 18 16  1  0
 19 18  2  0
 21 20  1  0
 22 21  2  0
 23 21  1  0
 24 23  1  6
 24 25  1  0
 25 18  1  0
 26 24  1  0
 26 28  1  0
 27 26  2  0
M  END
$$$$
