MRN.pdb
     RDKit          3D

 28 27  0  0  1  0  0  0  0  0999 V2000
    6.2983  -11.2727   26.5248 C   0  0  0  0  0  0  0  0  0  0  0  0
    7.4309  -12.6592   26.6223 S   0  0  0  0  0  0  0  0  0  0  0  0
    6.5881  -14.2456   26.8555 C   0  0  0  0  0  0  0  0  0  0  0  0
    6.7458  -15.1309   25.6376 C   0  0  0  0  0  0  0  0  0  0  0  0
    8.1438  -15.6997   25.5449 C   0  0  2  0  0  0  0  0  0  0  0  0
    9.0533  -14.6850   26.0115 N   0  0  0  0  0  0  0  0  0  0  0  0
    8.4876  -16.1255   24.1731 C   0  0  0  0  0  0  0  0  0  0  0  0
    7.9181  -17.1350   23.7052 O   0  0  0  0  0  0  0  0  0  0  0  0
    8.3051  -13.8926   17.0521 N   0  0  0  0  0  0  0  0  0  0  0  0
    8.0549  -13.0981   18.2264 C   0  0  0  0  0  0  0  0  0  0  0  0
    8.7729  -12.0452   18.3747 N   0  0  0  0  0  0  0  0  0  0  0  0
    7.0709  -13.4755   19.1500 N   0  0  0  0  0  0  0  0  0  0  0  0
    7.3872  -13.6386   20.5510 C   0  0  0  0  0  0  0  0  0  0  0  0
    7.8973  -15.0428   20.8621 C   0  0  0  0  0  0  0  0  0  0  0  0
    9.4194  -15.0444   20.9381 C   0  0  0  0  0  0  0  0  0  0  0  0
    9.9078  -15.8787   22.0930 C   0  0  2  0  0  0  0  0  0  0  0  0
    9.4239  -15.4526   23.3648 N   0  0  0  0  0  0  0  0  0  0  0  0
   11.3967  -15.8783   22.0852 C   0  0  0  0  0  0  0  0  0  0  0  0
   12.0025  -14.7816   22.1505 O   0  0  0  0  0  0  0  0  0  0  0  0
    8.6357  -11.4285   19.1757 N   0  0  0  0  0  0  0  0  0  0  0  0
   15.0023  -14.7556   19.1595 C   0  0  0  0  0  0  0  0  0  0  0  0
   13.9341  -15.4706   19.8451 O   0  0  0  0  0  0  0  0  0  0  0  0
   13.1050  -15.9867   19.0574 C   0  0  0  0  0  0  0  0  0  0  0  0
   13.9147  -15.5264   21.3110 C   0  0  2  0  0  0  0  0  0  0  0  0
   13.6096  -16.9200   21.7901 N   0  0  0  0  0  0  0  0  0  0  0  0
   12.1623  -17.0626   22.0074 C   0  0  0  0  0  0  0  0  0  0  0  0
   14.2443  -17.2851   23.0565 O   0  0  0  0  0  0  0  0  0  0  0  0
   15.4851  -17.3532   23.1708 O   0  0  0  0  0  0  0  0  0  0  0  0
  1  2  1  0
  2  3  1  0
  3  4  1  0
  4  5  1  0
  5  6  1  6
  7  5  1  0
  8  7  2  0
 10  9  1  0
 11 10  2  0
 12 10  1  0
 13 12  1  0
 14 13  1  0
 15 14  1  0
 16 15  1  6
 16 17  1  0
 17  7  1  0
 18 16  1  0
 19 18  2  0
 21 20  1  0
 22 21  2  0
 23 21  1  0
 24 23  1  6
 24 25  1  0
 25 18  1  0
 26 24  1  0
 26 28  1  0
 27 26  2  0
M  END
$$$$
