VQR.pdb
     RDKit          3D

 28 27  0  0  1  0  0  0  0  0999 V2000
   28.4265  -20.7860  -15.2744 C   0  0  0  0  0  0  0  0  0  0  0  0
   27.6996  -19.9710  -16.3058 C   0  0  2  0  0  0  0  0  0  0  0  0
   28.6019  -19.0718  -17.0956 C   0  0  0  0  0  0  0  0  0  0  0  0
   26.6857  -19.1020  -15.5884 C   0  0  2  0  0  0  0  0  0  0  0  0
   27.2973  -18.1530  -14.7210 N   0  0  0  0  0  0  0  0  0  0  0  0
   25.7189  -20.0039  -14.8939 C   0  0  0  0  0  0  0  0  0  0  0  0
   25.2262  -20.9359  -15.5425 O   0  0  0  0  0  0  0  0  0  0  0  0
   25.2668  -20.6766   -8.6126 N   0  0  0  0  0  0  0  0  0  0  0  0
   26.3656  -20.9426   -9.5007 C   0  0  0  0  0  0  0  0  0  0  0  0
   27.4813  -21.1796   -9.0398 O   0  0  0  0  0  0  0  0  0  0  0  0
   26.1430  -20.9337  -10.9918 C   0  0  0  0  0  0  0  0  0  0  0  0
   24.7501  -20.5083  -11.2771 C   0  0  0  0  0  0  0  0  0  0  0  0
   24.4786  -20.4948  -12.7639 C   0  0  2  0  0  0  0  0  0  0  0  0
   25.4123  -19.7630  -13.5558 N   0  0  0  0  0  0  0  0  0  0  0  0
   23.0698  -20.2942  -13.1292 C   0  0  0  0  0  0  0  0  0  0  0  0
   22.6965  -19.1123  -13.3425 O   0  0  0  0  0  0  0  0  0  0  0  0
   19.9178  -18.0975  -18.1369 N   0  0  0  0  0  0  0  0  0  0  0  0
   18.5448  -18.1125  -17.7622 C   0  0  0  0  0  0  0  0  0  0  0  0
   17.6118  -17.7253  -18.5431 N   0  0  0  0  0  0  0  0  0  0  0  0
   18.2077  -18.5783  -16.4675 N   0  0  0  0  0  0  0  0  0  0  0  0
   19.2662  -19.0395  -15.5536 C   0  0  0  0  0  0  0  0  0  0  0  0
   19.8437  -20.3198  -16.0083 C   0  0  0  0  0  0  0  0  0  0  0  0
   20.8742  -20.9468  -15.2029 C   0  0  0  0  0  0  0  0  0  0  0  0
   20.7580  -21.0524  -13.7398 C   0  0  2  0  0  0  0  0  0  0  0  0
   22.1422  -21.3317  -13.2494 N   0  0  0  0  0  0  0  0  0  0  0  0
   19.9478  -22.0766  -13.1122 C   0  0  0  0  0  0  0  0  0  0  0  0
   20.3666  -23.2285  -12.9089 O   0  0  0  0  0  0  0  0  0  0  0  0
   18.6378  -21.8041  -12.7018 O   0  0  0  0  0  0  0  0  0  0  0  0
  2  1  1  1
  3  2  1  0
  4  2  1  0
  4  5  1  1
  6  4  1  0
  7  6  2  0
  9  8  1  0
  9 11  1  0
 10  9  2  0
 12 11  1  0
 13 12  1  1
 13 14  1  0
 14  6  1  0
 15 25  1  0
 15 13  1  0
 16 15  2  0
 17 18  1  0
 18 19  2  0
 20 18  1  0
 21 20  1  0
 22 21  1  0
 23 22  1  0
 24 23  1  6
 24 25  1  0
 26 28  1  0
 26 24  1  0
 27 26  2  0
M  END
$$$$
