VQR.pdb
     RDKit          3D

 28 27  0  0  1  0  0  0  0  0999 V2000
   22.8218   -9.9894  -13.3578 C   0  0  0  0  0  0  0  0  0  0  0  0
   22.1625  -10.6332  -14.5441 C   0  0  2  0  0  0  0  0  0  0  0  0
   23.1351  -11.0837  -15.5918 C   0  0  0  0  0  0  0  0  0  0  0  0
   21.2343   -9.6147  -15.1755 C   0  0  2  0  0  0  0  0  0  0  0  0
   21.9333   -8.4897  -15.6978 N   0  0  0  0  0  0  0  0  0  0  0  0
   20.1965   -9.2516  -14.1647 C   0  0  0  0  0  0  0  0  0  0  0  0
   19.4611  -10.1516  -13.7393 O   0  0  0  0  0  0  0  0  0  0  0  0
   20.6025   -4.5097  -10.0498 N   0  0  0  0  0  0  0  0  0  0  0  0
   20.2106   -5.7800   -9.5024 C   0  0  0  0  0  0  0  0  0  0  0  0
   20.2587   -5.9635   -8.2870 O   0  0  0  0  0  0  0  0  0  0  0  0
   19.7391   -6.8785  -10.4211 C   0  0  0  0  0  0  0  0  0  0  0  0
   19.7539   -6.3868  -11.8213 C   0  0  0  0  0  0  0  0  0  0  0  0
   19.1893   -7.4212  -12.7677 C   0  0  2  0  0  0  0  0  0  0  0  0
   20.0981   -7.9265  -13.7442 N   0  0  0  0  0  0  0  0  0  0  0  0
   17.8439   -7.1202  -13.2751 C   0  0  0  0  0  0  0  0  0  0  0  0
   17.7519   -6.7659  -14.4784 O   0  0  0  0  0  0  0  0  0  0  0  0
   10.2200  -10.5719  -10.8473 N   0  0  0  0  0  0  0  0  0  0  0  0
   10.2238  -10.4774  -12.2674 C   0  0  0  0  0  0  0  0  0  0  0  0
    9.4006  -11.1174  -13.0042 N   0  0  0  0  0  0  0  0  0  0  0  0
   11.1836   -9.6354  -12.8812 N   0  0  0  0  0  0  0  0  0  0  0  0
   12.2894   -9.0783  -12.0842 C   0  0  0  0  0  0  0  0  0  0  0  0
   13.1688   -8.2288  -12.9115 C   0  0  0  0  0  0  0  0  0  0  0  0
   14.3812   -7.6947  -12.3213 C   0  0  0  0  0  0  0  0  0  0  0  0
   15.3493   -6.9155  -13.1095 C   0  0  2  0  0  0  0  0  0  0  0  0
   16.6837   -7.2066  -12.5020 N   0  0  0  0  0  0  0  0  0  0  0  0
   15.2957   -5.4688  -13.1670 C   0  0  0  0  0  0  0  0  0  0  0  0
   16.0407   -4.7449  -12.4854 O   0  0  0  0  0  0  0  0  0  0  0  0
   14.3866   -4.8173  -14.0084 O   0  0  0  0  0  0  0  0  0  0  0  0
  2  1  1  1
  3  2  1  0
  4  2  1  0
  4  5  1  1
  6  4  1  0
  7  6  2  0
  9  8  1  0
  9 11  1  0
 10  9  2  0
 12 11  1  0
 13 12  1  6
 13 14  1  0
 14  6  1  0
 15 25  1  0
 15 13  1  0
 16 15  2  0
 17 18  1  0
 18 19  2  0
 20 18  1  0
 21 20  1  0
 22 21  1  0
 23 22  1  0
 24 23  1  1
 24 25  1  0
 26 28  1  0
 26 24  1  0
 27 26  2  0
M  END
$$$$
