VQR.pdb
     RDKit          3D

 28 27  0  0  1  0  0  0  0  0999 V2000
   17.9655  -13.5917  -16.4507 C   0  0  0  0  0  0  0  0  0  0  0  0
   19.0243  -13.9674  -17.4478 C   0  0  2  0  0  0  0  0  0  0  0  0
   18.5586  -14.9718  -18.4582 C   0  0  0  0  0  0  0  0  0  0  0  0
   20.1892  -14.5727  -16.6900 C   0  0  2  0  0  0  0  0  0  0  0  0
   19.8763  -15.8459  -16.1349 N   0  0  0  0  0  0  0  0  0  0  0  0
   20.6416  -13.5769  -15.6731 C   0  0  0  0  0  0  0  0  0  0  0  0
   20.1970  -13.6797  -14.5226 O   0  0  0  0  0  0  0  0  0  0  0  0
   26.1960  -11.6692  -14.3805 N   0  0  0  0  0  0  0  0  0  0  0  0
   25.8095  -11.5804  -15.7624 C   0  0  0  0  0  0  0  0  0  0  0  0
   26.6728  -11.5065  -16.6357 O   0  0  0  0  0  0  0  0  0  0  0  0
   24.3482  -11.5827  -16.1335 C   0  0  0  0  0  0  0  0  0  0  0  0
   23.5286  -11.6412  -14.8976 C   0  0  0  0  0  0  0  0  0  0  0  0
   22.0542  -11.5488  -15.2171 C   0  0  2  0  0  0  0  0  0  0  0  0
   21.5380  -12.5807  -16.0558 N   0  0  0  0  0  0  0  0  0  0  0  0
   21.5791  -10.1967  -15.5398 C   0  0  0  0  0  0  0  0  0  0  0  0
   21.4611   -9.9069  -16.7579 O   0  0  0  0  0  0  0  0  0  0  0  0
   16.6014   -9.7961  -10.7354 N   0  0  0  0  0  0  0  0  0  0  0  0
   15.8706   -9.9861  -11.9418 C   0  0  0  0  0  0  0  0  0  0  0  0
   14.9241  -10.8363  -12.0492 N   0  0  0  0  0  0  0  0  0  0  0  0
   16.2135   -9.1946  -13.0656 N   0  0  0  0  0  0  0  0  0  0  0  0
   17.3265   -8.2347  -12.9765 C   0  0  0  0  0  0  0  0  0  0  0  0
   18.3744   -8.5382  -13.9710 C   0  0  0  0  0  0  0  0  0  0  0  0
   19.5555   -7.6979  -14.0204 C   0  0  0  0  0  0  0  0  0  0  0  0
   20.6381   -7.9379  -14.9879 C   0  0  2  0  0  0  0  0  0  0  0  0
   21.2577   -9.2352  -14.5787 N   0  0  0  0  0  0  0  0  0  0  0  0
   21.7629   -7.0330  -15.1120 C   0  0  0  0  0  0  0  0  0  0  0  0
   21.6234   -5.8236  -15.3597 O   0  0  0  0  0  0  0  0  0  0  0  0
   23.0751   -7.4935  -14.9541 O   0  0  0  0  0  0  0  0  0  0  0  0
  2  1  1  1
  3  2  1  0
  4  2  1  0
  4  5  1  1
  6  4  1  0
  7  6  2  0
  9  8  1  0
  9 11  1  0
 10  9  2  0
 12 11  1  0
 13 12  1  6
 13 14  1  0
 14  6  1  0
 15 25  1  0
 15 13  1  0
 16 15  2  0
 17 18  1  0
 18 19  2  0
 20 18  1  0
 21 20  1  0
 22 21  1  0
 23 22  1  0
 24 23  1  1
 24 25  1  0
 26 28  1  0
 26 24  1  0
 27 26  2  0
M  END
$$$$
