VQR.pdb
     RDKit          3D

 28 27  0  0  1  0  0  0  0  0999 V2000
   27.7171  -22.1787  -16.2853 C   0  0  0  0  0  0  0  0  0  0  0  0
   28.0053  -20.8869  -15.5749 C   0  0  2  0  0  0  0  0  0  0  0  0
   28.4633  -21.0767  -14.1604 C   0  0  0  0  0  0  0  0  0  0  0  0
   26.7278  -20.0714  -15.5469 C   0  0  2  0  0  0  0  0  0  0  0  0
   26.9351  -18.7497  -15.0600 N   0  0  0  0  0  0  0  0  0  0  0  0
   25.7112  -20.8386  -14.7669 C   0  0  0  0  0  0  0  0  0  0  0  0
   25.3914  -21.9616  -15.1774 O   0  0  0  0  0  0  0  0  0  0  0  0
   24.6995  -20.5867   -8.5985 N   0  0  0  0  0  0  0  0  0  0  0  0
   25.8674  -20.8714   -9.3870 C   0  0  0  0  0  0  0  0  0  0  0  0
   26.9543  -21.0339   -8.8341 O   0  0  0  0  0  0  0  0  0  0  0  0
   25.7525  -20.9732  -10.8868 C   0  0  0  0  0  0  0  0  0  0  0  0
   24.3640  -20.6450  -11.2955 C   0  0  0  0  0  0  0  0  0  0  0  0
   24.1712  -20.8481  -12.7808 C   0  0  2  0  0  0  0  0  0  0  0  0
   25.1679  -20.2655  -13.6185 N   0  0  0  0  0  0  0  0  0  0  0  0
   22.7906  -20.6713  -13.2508 C   0  0  0  0  0  0  0  0  0  0  0  0
   22.4804  -19.5396  -13.7034 O   0  0  0  0  0  0  0  0  0  0  0  0
   18.7578  -26.5295  -17.4713 N   0  0  0  0  0  0  0  0  0  0  0  0
   18.1211  -25.2568  -17.4917 C   0  0  0  0  0  0  0  0  0  0  0  0
   17.0060  -25.0519  -18.0789 N   0  0  0  0  0  0  0  0  0  0  0  0
   18.7571  -24.1777  -16.8299 N   0  0  0  0  0  0  0  0  0  0  0  0
   20.0257  -24.3986  -16.1156 C   0  0  0  0  0  0  0  0  0  0  0  0
   20.5419  -23.1399  -15.5423 C   0  0  0  0  0  0  0  0  0  0  0  0
   19.9643  -22.6459  -14.3071 C   0  0  0  0  0  0  0  0  0  0  0  0
   20.4284  -21.3991  -13.6781 C   0  0  2  0  0  0  0  0  0  0  0  0
   21.8237  -21.6791  -13.2208 N   0  0  0  0  0  0  0  0  0  0  0  0
   19.7768  -20.8486  -12.5069 C   0  0  0  0  0  0  0  0  0  0  0  0
   20.1833  -21.0643  -11.3528 O   0  0  0  0  0  0  0  0  0  0  0  0
   18.6436  -20.0368  -12.6312 O   0  0  0  0  0  0  0  0  0  0  0  0
  2  1  1  1
  3  2  1  0
  4  2  1  0
  4  5  1  1
  6  4  1  0
  7  6  2  0
  9  8  1  0
  9 11  1  0
 10  9  2  0
 12 11  1  0
 13 12  1  1
 13 14  1  0
 14  6  1  0
 15 25  1  0
 15 13  1  0
 16 15  2  0
 17 18  1  0
 18 19  2  0
 20 18  1  0
 21 20  1  0
 22 21  1  0
 23 22  1  0
 24 23  1  1
 24 25  1  0
 26 28  1  0
 26 24  1  0
 27 26  2  0
M  END
$$$$
