VQR.pdb
     RDKit          3D

 28 27  0  0  1  0  0  0  0  0999 V2000
   18.9659  -23.5712  -10.1557 C   0  0  0  0  0  0  0  0  0  0  0  0
   18.0703  -24.0126   -9.0335 C   0  0  2  0  0  0  0  0  0  0  0  0
   18.1835  -23.1534   -7.8106 C   0  0  0  0  0  0  0  0  0  0  0  0
   18.4609  -25.4259   -8.6492 C   0  0  2  0  0  0  0  0  0  0  0  0
   18.4313  -26.3201   -9.7567 N   0  0  0  0  0  0  0  0  0  0  0  0
   17.5838  -25.8526   -7.5183 C   0  0  0  0  0  0  0  0  0  0  0  0
   16.3767  -26.0049   -7.7458 O   0  0  0  0  0  0  0  0  0  0  0  0
   19.4635  -28.3605   -1.9966 N   0  0  0  0  0  0  0  0  0  0  0  0
   18.1531  -27.8591   -1.6831 C   0  0  0  0  0  0  0  0  0  0  0  0
   17.6893  -28.0222   -0.5555 O   0  0  0  0  0  0  0  0  0  0  0  0
   17.3567  -27.1328   -2.7372 C   0  0  0  0  0  0  0  0  0  0  0  0
   18.1391  -27.0861   -3.9974 C   0  0  0  0  0  0  0  0  0  0  0  0
   17.4438  -26.2398   -5.0390 C   0  0  2  0  0  0  0  0  0  0  0  0
   18.1533  -26.0605   -6.2634 N   0  0  0  0  0  0  0  0  0  0  0  0
   16.8008  -25.0270   -4.5159 C   0  0  0  0  0  0  0  0  0  0  0  0
   17.5431  -24.0369   -4.2913 O   0  0  0  0  0  0  0  0  0  0  0  0
   10.9204  -20.3729   -3.3066 N   0  0  0  0  0  0  0  0  0  0  0  0
   11.0439  -19.7598   -4.5851 C   0  0  0  0  0  0  0  0  0  0  0  0
   10.8027  -18.5218   -4.7833 N   0  0  0  0  0  0  0  0  0  0  0  0
   11.4526  -20.5634   -5.6779 N   0  0  0  0  0  0  0  0  0  0  0  0
   11.7913  -21.9801   -5.4622 C   0  0  0  0  0  0  0  0  0  0  0  0
   13.0182  -22.1186   -4.6530 C   0  0  0  0  0  0  0  0  0  0  0  0
   13.6171  -23.4319   -4.5109 C   0  0  0  0  0  0  0  0  0  0  0  0
   14.8573  -23.6401   -3.7467 C   0  0  2  0  0  0  0  0  0  0  0  0
   15.4315  -24.9210   -4.2605 N   0  0  0  0  0  0  0  0  0  0  0  0
   14.8457  -23.8105   -2.3079 C   0  0  0  0  0  0  0  0  0  0  0  0
   14.8605  -24.9291   -1.7674 O   0  0  0  0  0  0  0  0  0  0  0  0
   14.8175  -22.7019   -1.4541 O   0  0  0  0  0  0  0  0  0  0  0  0
  2  1  1  6
  3  2  1  0
  4  2  1  0
  4  5  1  6
  6  4  1  0
  7  6  2  0
  9  8  1  0
  9 11  1  0
 10  9  2  0
 12 11  1  0
 13 12  1  1
 13 14  1  0
 14  6  1  0
 15 25  1  0
 15 13  1  0
 16 15  2  0
 17 18  1  0
 18 19  2  0
 20 18  1  0
 21 20  1  0
 22 21  1  0
 23 22  1  0
 24 23  1  6
 24 25  1  0
 26 28  1  0
 26 24  1  0
 27 26  2  0
M  END
$$$$
