VQR.pdb
     RDKit          3D

 28 27  0  0  1  0  0  0  0  0999 V2000
   22.0326  -12.3130  -20.5545 C   0  0  0  0  0  0  0  0  0  0  0  0
   22.1402  -13.5094  -19.6527 C   0  0  2  0  0  0  0  0  0  0  0  0
   21.9268  -14.8108  -20.3651 C   0  0  0  0  0  0  0  0  0  0  0  0
   21.0777  -13.3850  -18.5788 C   0  0  2  0  0  0  0  0  0  0  0  0
   19.7575  -13.4306  -19.1099 N   0  0  0  0  0  0  0  0  0  0  0  0
   21.3599  -12.1448  -17.7961 C   0  0  0  0  0  0  0  0  0  0  0  0
   22.3479  -12.1416  -17.0505 O   0  0  0  0  0  0  0  0  0  0  0  0
   21.2826   -6.1909  -18.6724 N   0  0  0  0  0  0  0  0  0  0  0  0
   21.0119   -7.1520  -19.7067 C   0  0  0  0  0  0  0  0  0  0  0  0
   20.6466   -6.7692  -20.8172 O   0  0  0  0  0  0  0  0  0  0  0  0
   21.1813   -8.6234  -19.4253 C   0  0  0  0  0  0  0  0  0  0  0  0
   21.5833   -8.8086  -18.0088 C   0  0  0  0  0  0  0  0  0  0  0  0
   20.6643   -9.7803  -17.3045 C   0  0  2  0  0  0  0  0  0  0  0  0
   20.5082  -11.0504  -17.9348 N   0  0  0  0  0  0  0  0  0  0  0  0
   19.4206   -9.1889  -16.7930 C   0  0  0  0  0  0  0  0  0  0  0  0
   18.4393   -9.1511  -17.5787 O   0  0  0  0  0  0  0  0  0  0  0  0
   13.7218  -11.9100  -11.3753 N   0  0  0  0  0  0  0  0  0  0  0  0
   13.1450  -10.7899  -12.0374 C   0  0  0  0  0  0  0  0  0  0  0  0
   11.8851  -10.6533  -12.1928 N   0  0  0  0  0  0  0  0  0  0  0  0
   14.0116   -9.7891  -12.5414 N   0  0  0  0  0  0  0  0  0  0  0  0
   15.3179  -10.1650  -13.1076 C   0  0  0  0  0  0  0  0  0  0  0  0
   15.9748   -9.0089  -13.7488 C   0  0  0  0  0  0  0  0  0  0  0  0
   17.2839   -9.1913  -14.3458 C   0  0  0  0  0  0  0  0  0  0  0  0
   17.9694   -8.1021  -15.0595 C   0  0  2  0  0  0  0  0  0  0  0  0
   19.2768   -8.6764  -15.5015 N   0  0  0  0  0  0  0  0  0  0  0  0
   18.3330   -6.8669  -14.3952 C   0  0  0  0  0  0  0  0  0  0  0  0
   19.4584   -6.6789  -13.9035 O   0  0  0  0  0  0  0  0  0  0  0  0
   17.4147   -5.8171  -14.2796 O   0  0  0  0  0  0  0  0  0  0  0  0
  2  1  1  6
  3  2  1  0
  4  2  1  0
  4  5  1  6
  6  4  1  0
  7  6  2  0
  9  8  1  0
  9 11  1  0
 10  9  2  0
 12 11  1  0
 13 12  1  6
 13 14  1  0
 14  6  1  0
 15 25  1  0
 15 13  1  0
 16 15  2  0
 17 18  1  0
 18 19  2  0
 20 18  1  0
 21 20  1  0
 22 21  1  0
 23 22  1  0
 24 23  1  1
 24 25  1  0
 26 28  1  0
 26 24  1  0
 27 26  2  0
M  END
$$$$
