VQR.pdb
     RDKit          3D

 28 27  0  0  1  0  0  0  0  0999 V2000
   20.3687  -13.7437    6.6595 C   0  0  0  0  0  0  0  0  0  0  0  0
   19.3496  -12.6715    6.3983 C   0  0  2  0  0  0  0  0  0  0  0  0
   18.3599  -12.5091    7.5121 C   0  0  0  0  0  0  0  0  0  0  0  0
   18.5845  -13.0464    5.1445 C   0  0  2  0  0  0  0  0  0  0  0  0
   17.7223  -12.0045    4.6997 N   0  0  0  0  0  0  0  0  0  0  0  0
   17.8735  -14.3328    5.4088 C   0  0  0  0  0  0  0  0  0  0  0  0
   16.6714  -14.4010    5.1216 O   0  0  0  0  0  0  0  0  0  0  0  0
   16.9136  -18.4462    2.2632 N   0  0  0  0  0  0  0  0  0  0  0  0
   16.2774  -18.9239    3.4607 C   0  0  0  0  0  0  0  0  0  0  0  0
   15.4009  -19.7839    3.3866 O   0  0  0  0  0  0  0  0  0  0  0  0
   16.6912  -18.3709    4.8008 C   0  0  0  0  0  0  0  0  0  0  0  0
   17.6358  -17.2447    4.5960 C   0  0  0  0  0  0  0  0  0  0  0  0
   18.2129  -16.7720    5.9106 C   0  0  2  0  0  0  0  0  0  0  0  0
   18.5844  -15.3958    5.9629 N   0  0  0  0  0  0  0  0  0  0  0  0
   19.1767  -17.6946    6.5255 C   0  0  0  0  0  0  0  0  0  0  0  0
   20.3904  -17.5280    6.2408 O   0  0  0  0  0  0  0  0  0  0  0  0
   19.3908  -14.0159   12.8945 N   0  0  0  0  0  0  0  0  0  0  0  0
   18.2861  -14.8298   12.5163 C   0  0  0  0  0  0  0  0  0  0  0  0
   17.0779  -14.5285   12.7985 N   0  0  0  0  0  0  0  0  0  0  0  0
   18.5464  -16.0218   11.7964 N   0  0  0  0  0  0  0  0  0  0  0  0
   19.9356  -16.4309   11.5297 C   0  0  0  0  0  0  0  0  0  0  0  0
   19.9842  -17.7186   10.8095 C   0  0  0  0  0  0  0  0  0  0  0  0
   19.5015  -17.7738    9.4430 C   0  0  0  0  0  0  0  0  0  0  0  0
   19.6248  -18.9913    8.6256 C   0  0  2  0  0  0  0  0  0  0  0  0
   18.8187  -18.7279    7.3946 N   0  0  0  0  0  0  0  0  0  0  0  0
   19.1441  -20.2752    9.0943 C   0  0  0  0  0  0  0  0  0  0  0  0
   19.7797  -20.9719    9.9031 O   0  0  0  0  0  0  0  0  0  0  0  0
   17.9222  -20.7907    8.6472 O   0  0  0  0  0  0  0  0  0  0  0  0
  2  1  1  1
  3  2  1  0
  4  2  1  0
  4  5  1  1
  6  4  1  0
  7  6  2  0
  9  8  1  0
  9 11  1  0
 10  9  2  0
 12 11  1  0
 13 12  1  6
 13 14  1  0
 14  6  1  0
 15 25  1  0
 15 13  1  0
 16 15  2  0
 17 18  1  0
 18 19  2  0
 20 18  1  0
 21 20  1  0
 22 21  1  0
 23 22  1  0
 24 23  1  1
 24 25  1  0
 26 28  1  0
 26 24  1  0
 27 26  2  0
M  END
$$$$
