VQR.pdb
     RDKit          3D

 28 27  0  0  1  0  0  0  0  0999 V2000
   26.2357  -14.9182  -17.1043 C   0  0  0  0  0  0  0  0  0  0  0  0
   24.9711  -15.0798  -17.8986 C   0  0  2  0  0  0  0  0  0  0  0  0
   24.4197  -13.7821  -18.4072 C   0  0  0  0  0  0  0  0  0  0  0  0
   23.9277  -15.7095  -16.9972 C   0  0  2  0  0  0  0  0  0  0  0  0
   23.5946  -14.8820  -15.8875 N   0  0  0  0  0  0  0  0  0  0  0  0
   24.4201  -17.0628  -16.6017 C   0  0  0  0  0  0  0  0  0  0  0  0
   24.7037  -17.8631  -17.5023 O   0  0  0  0  0  0  0  0  0  0  0  0
   27.9360  -19.7559  -15.3819 N   0  0  0  0  0  0  0  0  0  0  0  0
   27.4280  -20.5927  -14.3291 C   0  0  0  0  0  0  0  0  0  0  0  0
   27.8306  -21.7499  -14.2192 O   0  0  0  0  0  0  0  0  0  0  0  0
   26.4078  -20.0457  -13.3632 C   0  0  0  0  0  0  0  0  0  0  0  0
   26.0558  -18.6583  -13.7555 C   0  0  0  0  0  0  0  0  0  0  0  0
   24.8765  -18.6423  -14.7008 C   0  0  2  0  0  0  0  0  0  0  0  0
   24.5400  -17.3684  -15.2472 N   0  0  0  0  0  0  0  0  0  0  0  0
   23.7286  -19.4488  -14.2648 C   0  0  0  0  0  0  0  0  0  0  0  0
   22.7049  -18.8271  -13.8812 O   0  0  0  0  0  0  0  0  0  0  0  0
   19.6319  -23.4249   -8.6414 N   0  0  0  0  0  0  0  0  0  0  0  0
   18.8250  -23.5223   -9.8098 C   0  0  0  0  0  0  0  0  0  0  0  0
   17.7795  -24.2529   -9.8679 N   0  0  0  0  0  0  0  0  0  0  0  0
   19.2041  -22.7739  -10.9514 N   0  0  0  0  0  0  0  0  0  0  0  0
   20.5002  -22.0754  -10.9750 C   0  0  0  0  0  0  0  0  0  0  0  0
   20.6274  -21.2263  -12.1760 C   0  0  0  0  0  0  0  0  0  0  0  0
   21.9521  -20.9394  -12.6920 C   0  0  0  0  0  0  0  0  0  0  0  0
   22.4680  -21.5879  -13.9080 C   0  0  2  0  0  0  0  0  0  0  0  0
   23.7181  -20.8456  -14.2556 N   0  0  0  0  0  0  0  0  0  0  0  0
   21.7109  -21.6021  -15.1432 C   0  0  0  0  0  0  0  0  0  0  0  0
   21.7452  -20.6654  -15.9587 O   0  0  0  0  0  0  0  0  0  0  0  0
   20.8965  -22.6914  -15.4733 O   0  0  0  0  0  0  0  0  0  0  0  0
  2  1  1  1
  3  2  1  0
  4  2  1  0
  4  5  1  1
  6  4  1  0
  7  6  2  0
  9  8  1  0
  9 11  1  0
 10  9  2  0
 12 11  1  0
 13 12  1  1
 13 14  1  0
 14  6  1  0
 15 25  1  0
 15 13  1  0
 16 15  2  0
 17 18  1  0
 18 19  2  0
 20 18  1  0
 21 20  1  0
 22 21  1  0
 23 22  1  0
 24 23  1  1
 24 25  1  0
 26 28  1  0
 26 24  1  0
 27 26  2  0
M  END
$$$$
