VQR.pdb
     RDKit          3D

 28 27  0  0  1  0  0  0  0  0999 V2000
   27.8316  -17.0763  -20.0196 C   0  0  0  0  0  0  0  0  0  0  0  0
   28.8573  -17.6742  -19.0993 C   0  0  2  0  0  0  0  0  0  0  0  0
   30.0465  -18.2342  -19.8196 C   0  0  0  0  0  0  0  0  0  0  0  0
   28.1992  -18.8054  -18.3344 C   0  0  2  0  0  0  0  0  0  0  0  0
   27.8461  -19.8991  -19.1747 N   0  0  0  0  0  0  0  0  0  0  0  0
   27.0410  -18.2371  -17.5820 C   0  0  0  0  0  0  0  0  0  0  0  0
   27.2589  -17.3012  -16.8019 O   0  0  0  0  0  0  0  0  0  0  0  0
   21.3478  -16.9663  -19.3474 N   0  0  0  0  0  0  0  0  0  0  0  0
   21.1809  -16.9987  -17.9198 C   0  0  0  0  0  0  0  0  0  0  0  0
   20.1242  -16.6174  -17.4186 O   0  0  0  0  0  0  0  0  0  0  0  0
   22.3005  -17.5039  -17.0457 C   0  0  0  0  0  0  0  0  0  0  0  0
   23.4700  -17.8433  -17.8941 C   0  0  0  0  0  0  0  0  0  0  0  0
   24.5889  -18.4347  -17.0678 C   0  0  2  0  0  0  0  0  0  0  0  0
   25.7726  -18.7775  -17.7860 N   0  0  0  0  0  0  0  0  0  0  0  0
   24.1601  -19.4296  -16.0755 C   0  0  0  0  0  0  0  0  0  0  0  0
   24.0910  -20.6259  -16.4572 O   0  0  0  0  0  0  0  0  0  0  0  0
   23.0782  -20.0269   -9.1066 N   0  0  0  0  0  0  0  0  0  0  0  0
   24.0001  -20.9240   -8.4975 C   0  0  0  0  0  0  0  0  0  0  0  0
   23.7755  -21.4872   -7.3738 N   0  0  0  0  0  0  0  0  0  0  0  0
   25.2148  -21.1986   -9.1727 N   0  0  0  0  0  0  0  0  0  0  0  0
   25.5283  -20.5046  -10.4330 C   0  0  0  0  0  0  0  0  0  0  0  0
   24.4535  -20.6921  -11.4275 C   0  0  0  0  0  0  0  0  0  0  0  0
   24.5888  -20.0667  -12.7291 C   0  0  0  0  0  0  0  0  0  0  0  0
   23.5568  -20.2084  -13.7686 C   0  0  2  0  0  0  0  0  0  0  0  0
   23.8317  -19.1184  -14.7539 N   0  0  0  0  0  0  0  0  0  0  0  0
   22.1471  -20.0640  -13.4667 C   0  0  0  0  0  0  0  0  0  0  0  0
   21.5704  -18.9636  -13.4788 O   0  0  0  0  0  0  0  0  0  0  0  0
   21.3645  -21.1787  -13.1443 O   0  0  0  0  0  0  0  0  0  0  0  0
  2  1  1  6
  3  2  1  0
  4  2  1  0
  4  5  1  6
  6  4  1  0
  7  6  2  0
  9  8  1  0
  9 11  1  0
 10  9  2  0
 12 11  1  0
 13 12  1  6
 13 14  1  0
 14  6  1  0
 15 25  1  0
 15 13  1  0
 16 15  2  0
 17 18  1  0
 18 19  2  0
 20 18  1  0
 21 20  1  0
 22 21  1  0
 23 22  1  0
 24 23  1  1
 24 25  1  0
 26 28  1  0
 26 24  1  0
 27 26  2  0
M  END
$$$$
