VQR.pdb
     RDKit          3D

 28 27  0  0  1  0  0  0  0  0999 V2000
   33.0905  -28.7672  -17.7766 C   0  0  0  0  0  0  0  0  0  0  0  0
   33.9046  -29.8969  -17.2132 C   0  0  2  0  0  0  0  0  0  0  0  0
   34.2670  -30.9338  -18.2331 C   0  0  0  0  0  0  0  0  0  0  0  0
   33.0852  -30.5721  -16.1314 C   0  0  2  0  0  0  0  0  0  0  0  0
   33.8305  -31.5491  -15.4124 N   0  0  0  0  0  0  0  0  0  0  0  0
   31.8486  -31.1180  -16.7664 C   0  0  0  0  0  0  0  0  0  0  0  0
   31.0799  -30.3209  -17.3194 O   0  0  0  0  0  0  0  0  0  0  0  0
   28.6616  -33.2420  -20.0416 N   0  0  0  0  0  0  0  0  0  0  0  0
   29.9216  -32.7119  -20.4867 C   0  0  0  0  0  0  0  0  0  0  0  0
   29.9702  -32.0222  -21.5042 O   0  0  0  0  0  0  0  0  0  0  0  0
   31.1756  -33.0010  -19.7013 C   0  0  0  0  0  0  0  0  0  0  0  0
   30.8554  -33.9332  -18.5919 C   0  0  0  0  0  0  0  0  0  0  0  0
   30.5225  -33.1785  -17.3253 C   0  0  2  0  0  0  0  0  0  0  0  0
   31.6111  -32.4903  -16.7121 N   0  0  0  0  0  0  0  0  0  0  0  0
   29.6454  -33.8995  -16.3931 C   0  0  0  0  0  0  0  0  0  0  0  0
   30.1332  -34.8983  -15.8046 O   0  0  0  0  0  0  0  0  0  0  0  0
   25.5725  -34.1996   -9.7062 N   0  0  0  0  0  0  0  0  0  0  0  0
   26.7697  -33.4299   -9.7069 C   0  0  0  0  0  0  0  0  0  0  0  0
   27.5951  -33.4360   -8.7328 N   0  0  0  0  0  0  0  0  0  0  0  0
   27.0501  -32.6265  -10.8395 N   0  0  0  0  0  0  0  0  0  0  0  0
   26.0798  -32.5494  -11.9444 C   0  0  0  0  0  0  0  0  0  0  0  0
   26.3374  -33.5938  -12.9553 C   0  0  0  0  0  0  0  0  0  0  0  0
   27.2601  -33.3072  -14.0370 C   0  0  0  0  0  0  0  0  0  0  0  0
   27.5242  -34.2797  -15.1093 C   0  0  2  0  0  0  0  0  0  0  0  0
   28.3216  -33.5374  -16.1328 N   0  0  0  0  0  0  0  0  0  0  0  0
   26.4497  -34.8850  -15.8699 C   0  0  0  0  0  0  0  0  0  0  0  0
   26.2230  -34.5917  -17.0558 O   0  0  0  0  0  0  0  0  0  0  0  0
   25.6097  -35.8418  -15.2889 O   0  0  0  0  0  0  0  0  0  0  0  0
  2  1  1  6
  3  2  1  0
  4  2  1  0
  4  5  1  6
  6  4  1  0
  7  6  2  0
  9  8  1  0
  9 11  1  0
 10  9  2  0
 12 11  1  0
 13 12  1  6
 13 14  1  0
 14  6  1  0
 15 25  1  0
 15 13  1  0
 16 15  2  0
 17 18  1  0
 18 19  2  0
 20 18  1  0
 21 20  1  0
 22 21  1  0
 23 22  1  0
 24 23  1  1
 24 25  1  0
 26 28  1  0
 26 24  1  0
 27 26  2  0
M  END
$$$$
