VQR.pdb
     RDKit          3D

 28 27  0  0  1  0  0  0  0  0999 V2000
   27.7301  -25.0406  -17.8646 C   0  0  0  0  0  0  0  0  0  0  0  0
   27.5658  -25.6940  -16.5220 C   0  0  2  0  0  0  0  0  0  0  0  0
   28.1450  -27.0749  -16.4590 C   0  0  0  0  0  0  0  0  0  0  0  0
   26.0823  -25.7958  -16.2278 C   0  0  2  0  0  0  0  0  0  0  0  0
   25.4142  -26.7016  -17.0997 N   0  0  0  0  0  0  0  0  0  0  0  0
   25.5133  -24.4153  -16.2571 C   0  0  0  0  0  0  0  0  0  0  0  0
   25.9887  -23.5753  -15.4823 O   0  0  0  0  0  0  0  0  0  0  0  0
   24.7491  -20.2368  -20.3285 N   0  0  0  0  0  0  0  0  0  0  0  0
   23.8561  -19.7503  -19.3123 C   0  0  0  0  0  0  0  0  0  0  0  0
   23.4220  -18.6011  -19.3783 O   0  0  0  0  0  0  0  0  0  0  0  0
   23.4535  -20.6529  -18.1738 C   0  0  0  0  0  0  0  0  0  0  0  0
   24.1573  -21.9527  -18.3062 C   0  0  0  0  0  0  0  0  0  0  0  0
   23.7418  -22.9107  -17.2135 C   0  0  2  0  0  0  0  0  0  0  0  0
   24.4795  -24.1298  -17.1471 N   0  0  0  0  0  0  0  0  0  0  0  0
   22.2899  -23.0590  -17.0458 C   0  0  0  0  0  0  0  0  0  0  0  0
   21.6808  -23.7421  -17.9084 O   0  0  0  0  0  0  0  0  0  0  0  0
   21.1777  -25.7070  -12.6774 N   0  0  0  0  0  0  0  0  0  0  0  0
   19.9878  -26.4024  -12.3222 C   0  0  0  0  0  0  0  0  0  0  0  0
   19.9655  -27.6571  -12.0869 N   0  0  0  0  0  0  0  0  0  0  0  0
   18.7822  -25.6644  -12.2273 N   0  0  0  0  0  0  0  0  0  0  0  0
   18.7726  -24.2278  -12.5501 C   0  0  0  0  0  0  0  0  0  0  0  0
   18.9356  -24.0052  -14.0004 C   0  0  0  0  0  0  0  0  0  0  0  0
   19.8472  -22.9711  -14.4507 C   0  0  0  0  0  0  0  0  0  0  0  0
   20.0942  -22.7236  -15.8802 C   0  0  2  0  0  0  0  0  0  0  0  0
   21.5660  -22.4896  -15.9955 N   0  0  0  0  0  0  0  0  0  0  0  0
   19.5023  -21.5960  -16.5711 C   0  0  0  0  0  0  0  0  0  0  0  0
   20.0453  -20.4794  -16.6151 O   0  0  0  0  0  0  0  0  0  0  0  0
   18.2735  -21.7221  -17.2291 O   0  0  0  0  0  0  0  0  0  0  0  0
  2  1  1  6
  3  2  1  0
  4  2  1  0
  4  5  1  6
  6  4  1  0
  7  6  2  0
  9  8  1  0
  9 11  1  0
 10  9  2  0
 12 11  1  0
 13 12  1  6
 13 14  1  0
 14  6  1  0
 15 25  1  0
 15 13  1  0
 16 15  2  0
 17 18  1  0
 18 19  2  0
 20 18  1  0
 21 20  1  0
 22 21  1  0
 23 22  1  0
 24 23  1  1
 24 25  1  0
 26 28  1  0
 26 24  1  0
 27 26  2  0
M  END
$$$$
