VQR.pdb
     RDKit          3D

 28 27  0  0  1  0  0  0  0  0999 V2000
   22.9740  -20.8309   -9.4406 C   0  0  0  0  0  0  0  0  0  0  0  0
   22.0308  -19.6840   -9.6671 C   0  0  2  0  0  0  0  0  0  0  0  0
   20.9640  -19.5770   -8.6197 C   0  0  0  0  0  0  0  0  0  0  0  0
   21.3516  -19.8921  -11.0062 C   0  0  2  0  0  0  0  0  0  0  0  0
   20.4262  -20.9739  -10.9860 N   0  0  0  0  0  0  0  0  0  0  0  0
   22.4168  -20.0416  -12.0422 C   0  0  0  0  0  0  0  0  0  0  0  0
   23.2588  -19.1400  -12.1428 O   0  0  0  0  0  0  0  0  0  0  0  0
   24.0743  -25.5476  -14.7171 N   0  0  0  0  0  0  0  0  0  0  0  0
   24.8359  -24.5838  -15.4640 C   0  0  0  0  0  0  0  0  0  0  0  0
   25.6389  -24.9647  -16.3145 O   0  0  0  0  0  0  0  0  0  0  0  0
   24.6430  -23.1114  -15.2033 C   0  0  0  0  0  0  0  0  0  0  0  0
   23.6168  -22.9310  -14.1464 C   0  0  0  0  0  0  0  0  0  0  0  0
   23.3498  -21.4654  -13.8912 C   0  0  2  0  0  0  0  0  0  0  0  0
   22.4209  -21.1793  -12.8471 N   0  0  0  0  0  0  0  0  0  0  0  0
   23.1855  -20.6509  -15.1027 C   0  0  0  0  0  0  0  0  0  0  0  0
   22.0132  -20.4871  -15.5278 O   0  0  0  0  0  0  0  0  0  0  0  0
   28.7463  -19.7015  -15.4289 N   0  0  0  0  0  0  0  0  0  0  0  0
   29.3320  -19.7503  -16.7251 C   0  0  0  0  0  0  0  0  0  0  0  0
   30.2284  -20.6009  -17.0462 N   0  0  0  0  0  0  0  0  0  0  0  0
   28.8964  -18.8129  -17.6940 N   0  0  0  0  0  0  0  0  0  0  0  0
   27.6706  -18.0311  -17.4611 C   0  0  0  0  0  0  0  0  0  0  0  0
   26.4998  -18.9131  -17.2859 C   0  0  0  0  0  0  0  0  0  0  0  0
   25.1993  -18.3120  -17.0610 C   0  0  0  0  0  0  0  0  0  0  0  0
   23.9808  -19.1264  -16.9292 C   0  0  2  0  0  0  0  0  0  0  0  0
   24.2469  -20.0603  -15.7927 N   0  0  0  0  0  0  0  0  0  0  0  0
   23.5241  -19.9920  -17.9977 C   0  0  0  0  0  0  0  0  0  0  0  0
   22.9850  -19.5542  -19.0279 O   0  0  0  0  0  0  0  0  0  0  0  0
   23.6754  -21.3806  -17.9105 O   0  0  0  0  0  0  0  0  0  0  0  0
  2  1  1  1
  3  2  1  0
  4  2  1  0
  4  5  1  1
  6  4  1  0
  7  6  2  0
  9  8  1  0
  9 11  1  0
 10  9  2  0
 12 11  1  0
 13 12  1  6
 13 14  1  0
 14  6  1  0
 15 25  1  0
 15 13  1  0
 16 15  2  0
 17 18  1  0
 18 19  2  0
 20 18  1  0
 21 20  1  0
 22 21  1  0
 23 22  1  0
 24 23  1  6
 24 25  1  0
 26 28  1  0
 26 24  1  0
 27 26  2  0
M  END
$$$$
