VQR.pdb
     RDKit          3D

 28 27  0  0  1  0  0  0  0  0999 V2000
   27.4132  -14.9530  -15.8267 C   0  0  0  0  0  0  0  0  0  0  0  0
   27.2442  -13.6318  -16.5210 C   0  0  2  0  0  0  0  0  0  0  0  0
   27.8203  -12.4801  -15.7540 C   0  0  0  0  0  0  0  0  0  0  0  0
   25.7597  -13.3802  -16.6966 C   0  0  2  0  0  0  0  0  0  0  0  0
   25.0844  -14.4880  -17.2830 N   0  0  0  0  0  0  0  0  0  0  0  0
   25.5978  -12.1110  -17.4670 C   0  0  0  0  0  0  0  0  0  0  0  0
   26.4542  -11.8349  -18.3169 O   0  0  0  0  0  0  0  0  0  0  0  0
   24.3026  -10.3469  -22.1391 N   0  0  0  0  0  0  0  0  0  0  0  0
   23.9479   -9.0773  -21.5654 C   0  0  0  0  0  0  0  0  0  0  0  0
   23.6716   -8.1298  -22.2998 O   0  0  0  0  0  0  0  0  0  0  0  0
   23.9124   -8.9157  -20.0669 C   0  0  0  0  0  0  0  0  0  0  0  0
   24.2324  -10.2154  -19.4259 C   0  0  0  0  0  0  0  0  0  0  0  0
   24.1338  -10.1192  -17.9208 C   0  0  2  0  0  0  0  0  0  0  0  0
   24.4994  -11.2954  -17.2013 N   0  0  0  0  0  0  0  0  0  0  0  0
   22.9264   -9.4443  -17.4261 C   0  0  0  0  0  0  0  0  0  0  0  0
   21.8497  -10.0928  -17.4694 O   0  0  0  0  0  0  0  0  0  0  0  0
   18.4353   -8.7478  -11.3086 N   0  0  0  0  0  0  0  0  0  0  0  0
   19.2540   -7.6477  -10.9279 C   0  0  0  0  0  0  0  0  0  0  0  0
   19.2572   -7.1661   -9.7454 N   0  0  0  0  0  0  0  0  0  0  0  0
   20.0981   -7.0689  -11.9074 N   0  0  0  0  0  0  0  0  0  0  0  0
   20.0061   -7.5088  -13.3096 C   0  0  0  0  0  0  0  0  0  0  0  0
   20.8133   -6.6455  -14.1942 C   0  0  0  0  0  0  0  0  0  0  0  0
   21.8450   -7.2534  -15.0125 C   0  0  0  0  0  0  0  0  0  0  0  0
   21.6378   -7.5298  -16.4430 C   0  0  2  0  0  0  0  0  0  0  0  0
   22.9153   -8.1425  -16.9194 N   0  0  0  0  0  0  0  0  0  0  0  0
   21.3794   -6.4677  -17.3941 C   0  0  0  0  0  0  0  0  0  0  0  0
   22.2806   -5.9392  -18.0665 O   0  0  0  0  0  0  0  0  0  0  0  0
   20.0809   -5.9867  -17.5975 O   0  0  0  0  0  0  0  0  0  0  0  0
  2  1  1  1
  3  2  1  0
  4  2  1  0
  4  5  1  6
  6  4  1  0
  7  6  2  0
  9  8  1  0
  9 11  1  0
 10  9  2  0
 12 11  1  0
 13 12  1  6
 13 14  1  0
 14  6  1  0
 15 25  1  0
 15 13  1  0
 16 15  2  0
 17 18  1  0
 18 19  2  0
 20 18  1  0
 21 20  1  0
 22 21  1  0
 23 22  1  0
 24 23  1  1
 24 25  1  0
 26 28  1  0
 26 24  1  0
 27 26  2  0
M  END
$$$$
