VQR.pdb
     RDKit          3D

 28 27  0  0  1  0  0  0  0  0999 V2000
   20.7842  -14.9410  -19.7744 C   0  0  0  0  0  0  0  0  0  0  0  0
   20.2063  -15.7180  -20.9227 C   0  0  2  0  0  0  0  0  0  0  0  0
   19.6902  -14.8478  -22.0285 C   0  0  0  0  0  0  0  0  0  0  0  0
   19.0473  -16.5412  -20.3965 C   0  0  2  0  0  0  0  0  0  0  0  0
   17.9754  -15.7331  -19.9220 N   0  0  0  0  0  0  0  0  0  0  0  0
   19.5828  -17.4811  -19.3668 C   0  0  0  0  0  0  0  0  0  0  0  0
   20.4514  -18.2907  -19.7160 O   0  0  0  0  0  0  0  0  0  0  0  0
   20.8358  -19.1924  -13.9095 N   0  0  0  0  0  0  0  0  0  0  0  0
   21.9268  -19.0420  -14.8336 C   0  0  0  0  0  0  0  0  0  0  0  0
   22.9546  -19.7001  -14.6791 O   0  0  0  0  0  0  0  0  0  0  0  0
   21.8032  -18.0815  -15.9890 C   0  0  0  0  0  0  0  0  0  0  0  0
   20.4467  -17.4795  -15.9832 C   0  0  0  0  0  0  0  0  0  0  0  0
   19.5322  -18.1883  -16.9556 C   0  0  2  0  0  0  0  0  0  0  0  0
   19.0883  -17.4102  -18.0656 N   0  0  0  0  0  0  0  0  0  0  0  0
   18.4935  -19.0173  -16.3293 C   0  0  0  0  0  0  0  0  0  0  0  0
   17.4187  -18.4459  -16.0127 O   0  0  0  0  0  0  0  0  0  0  0  0
   16.3697  -27.2788  -17.3825 N   0  0  0  0  0  0  0  0  0  0  0  0
   15.8185  -27.0950  -16.0833 C   0  0  0  0  0  0  0  0  0  0  0  0
   15.0535  -27.9544  -15.5298 N   0  0  0  0  0  0  0  0  0  0  0  0
   16.1372  -25.9064  -15.3812 N   0  0  0  0  0  0  0  0  0  0  0  0
   16.8277  -24.8061  -16.0745 C   0  0  0  0  0  0  0  0  0  0  0  0
   16.9978  -23.6388  -15.1869 C   0  0  0  0  0  0  0  0  0  0  0  0
   17.8874  -22.5704  -15.5999 C   0  0  0  0  0  0  0  0  0  0  0  0
   17.5233  -21.1534  -15.4416 C   0  0  2  0  0  0  0  0  0  0  0  0
   18.6378  -20.3829  -16.0731 N   0  0  0  0  0  0  0  0  0  0  0  0
   17.3718  -20.5475  -14.1342 C   0  0  0  0  0  0  0  0  0  0  0  0
   16.3018  -20.5778  -13.5037 O   0  0  0  0  0  0  0  0  0  0  0  0
   18.4445  -19.8928  -13.5181 O   0  0  0  0  0  0  0  0  0  0  0  0
  2  1  1  1
  3  2  1  0
  4  2  1  0
  4  5  1  1
  6  4  1  0
  7  6  2  0
  9  8  1  0
  9 11  1  0
 10  9  2  0
 12 11  1  0
 13 12  1  1
 13 14  1  0
 14  6  1  0
 15 25  1  0
 15 13  1  0
 16 15  2  0
 17 18  1  0
 18 19  2  0
 20 18  1  0
 21 20  1  0
 22 21  1  0
 23 22  1  0
 24 23  1  1
 24 25  1  0
 26 28  1  0
 26 24  1  0
 27 26  2  0
M  END
$$$$
