VQR.pdb
     RDKit          3D

 28 27  0  0  1  0  0  0  0  0999 V2000
   29.8074  -23.6494  -20.4201 C   0  0  0  0  0  0  0  0  0  0  0  0
   29.8118  -22.5451  -19.4019 C   0  0  2  0  0  0  0  0  0  0  0  0
   31.1471  -22.3425  -18.7518 C   0  0  0  0  0  0  0  0  0  0  0  0
   28.8139  -22.9018  -18.3181 C   0  0  2  0  0  0  0  0  0  0  0  0
   27.8125  -23.8050  -18.7746 N   0  0  0  0  0  0  0  0  0  0  0  0
   28.2591  -21.6288  -17.7687 C   0  0  0  0  0  0  0  0  0  0  0  0
   29.0497  -20.8216  -17.2634 O   0  0  0  0  0  0  0  0  0  0  0  0
   23.3541  -18.4416  -19.6200 N   0  0  0  0  0  0  0  0  0  0  0  0
   23.6540  -17.7940  -18.3720 C   0  0  0  0  0  0  0  0  0  0  0  0
   22.9388  -16.8768  -17.9713 O   0  0  0  0  0  0  0  0  0  0  0  0
   24.8409  -18.2457  -17.5596 C   0  0  0  0  0  0  0  0  0  0  0  0
   25.5153  -19.3677  -18.2588 C   0  0  0  0  0  0  0  0  0  0  0  0
   26.1843  -20.2993  -17.2744 C   0  0  2  0  0  0  0  0  0  0  0  0
   26.8861  -21.4017  -17.8461 N   0  0  0  0  0  0  0  0  0  0  0  0
   25.3751  -20.6293  -16.0935 C   0  0  0  0  0  0  0  0  0  0  0  0
   24.6199  -21.6315  -16.1789 O   0  0  0  0  0  0  0  0  0  0  0  0
   24.6792  -21.6527   -7.6466 N   0  0  0  0  0  0  0  0  0  0  0  0
   23.4436  -21.4221   -8.3143 C   0  0  0  0  0  0  0  0  0  0  0  0
   22.3245  -21.8321   -7.8565 N   0  0  0  0  0  0  0  0  0  0  0  0
   23.4649  -20.7066   -9.5368 N   0  0  0  0  0  0  0  0  0  0  0  0
   24.7474  -20.2536  -10.1010 C   0  0  0  0  0  0  0  0  0  0  0  0
   24.5418  -19.4823  -11.3429 C   0  0  0  0  0  0  0  0  0  0  0  0
   25.2288  -19.9031  -12.5488 C   0  0  0  0  0  0  0  0  0  0  0  0
   24.4962  -20.2660  -13.7723 C   0  0  2  0  0  0  0  0  0  0  0  0
   25.4025  -19.8991  -14.9030 N   0  0  0  0  0  0  0  0  0  0  0  0
   23.2334  -19.6444  -14.1163 C   0  0  0  0  0  0  0  0  0  0  0  0
   23.1623  -18.6103  -14.8012 O   0  0  0  0  0  0  0  0  0  0  0  0
   22.0214  -20.1944  -13.6835 O   0  0  0  0  0  0  0  0  0  0  0  0
  2  1  1  6
  3  2  1  0
  4  2  1  0
  4  5  1  6
  6  4  1  0
  7  6  2  0
  9  8  1  0
  9 11  1  0
 10  9  2  0
 12 11  1  0
 13 12  1  6
 13 14  1  0
 14  6  1  0
 15 25  1  0
 15 13  1  0
 16 15  2  0
 17 18  1  0
 18 19  2  0
 20 18  1  0
 21 20  1  0
 22 21  1  0
 23 22  1  0
 24 23  1  1
 24 25  1  0
 26 28  1  0
 26 24  1  0
 27 26  2  0
M  END
$$$$
