AEQ.pdb
     RDKit          3D

 24 23  0  0  1  0  0  0  0  0999 V2000
   19.1207  -13.1020  -17.3461 C   0  0  0  0  0  0  0  0  0  0  0  0
   18.6851  -12.0730  -16.3470 C   0  0  2  0  0  0  0  0  0  0  0  0
   17.2794  -12.2048  -16.0341 N   0  0  0  0  0  0  0  0  0  0  0  0
   18.9693  -10.7084  -16.9002 C   0  0  0  0  0  0  0  0  0  0  0  0
   20.1490  -10.3702  -17.1704 O   0  0  0  0  0  0  0  0  0  0  0  0
   17.9265   -9.7786  -17.1289 N   0  0  0  0  0  0  0  0  0  0  0  0
   18.2137   -8.4650  -17.6935 C   0  0  1  0  0  0  0  0  0  0  0  0
   16.9644   -7.9793  -18.3941 C   0  0  0  0  0  0  0  0  0  0  0  0
   16.9063   -8.4570  -19.8228 C   0  0  0  0  0  0  0  0  0  0  0  0
   15.6629   -7.9782  -20.4662 C   0  0  0  0  0  0  0  0  0  0  0  0
   15.7300   -7.2247  -21.4597 O   0  0  0  0  0  0  0  0  0  0  0  0
   18.5030   -7.5060  -16.5785 C   0  0  0  0  0  0  0  0  0  0  0  0
   18.3565   -7.8354  -15.3737 O   0  0  0  0  0  0  0  0  0  0  0  0
   14.4397   -8.3573  -19.9773 O   0  0  0  0  0  0  0  0  0  0  0  0
   22.4060   -7.5925  -13.2932 N   0  0  0  0  0  0  0  0  0  0  0  0
   22.2970   -6.1881  -13.2084 C   0  0  0  0  0  0  0  0  0  0  0  0
   23.0822   -5.5481  -12.4289 O   0  0  0  0  0  0  0  0  0  0  0  0
   21.3241   -5.3854  -13.9764 C   0  0  0  0  0  0  0  0  0  0  0  0
   20.5175   -6.1302  -14.9792 C   0  0  0  0  0  0  0  0  0  0  0  0
   19.5702   -5.3291  -15.8171 C   0  0  2  0  0  0  0  0  0  0  0  0
   18.9539   -6.1866  -16.8306 N   0  0  0  0  0  0  0  0  0  0  0  0
   19.9698   -4.0342  -16.3152 C   0  0  0  0  0  0  0  0  0  0  0  0
   19.9625   -2.8643  -15.5140 O   0  0  0  0  0  0  0  0  0  0  0  0
   20.3604   -3.8023  -17.4888 O   0  0  0  0  0  0  0  0  0  0  0  0
  2  1  1  6
  2  3  1  0
  4  5  2  0
  4  2  1  0
  6  4  1  0
  7  6  1  0
  7  8  1  1
  9  8  1  0
  9 10  1  0
 10 11  2  0
 10 14  1  0
 12  7  1  0
 12 21  1  0
 13 12  2  0
 16 17  2  0
 16 15  1  0
 18 16  1  0
 20 19  1  6
 19 18  1  0
 20 21  1  0
 20 22  1  0
 22 23  1  0
 24 22  2  0
M  END
$$$$
