AEQ.pdb
     RDKit          3D

 24 23  0  0  1  0  0  0  0  0999 V2000
   15.4403  -10.3383  -15.0742 C   0  0  0  0  0  0  0  0  0  0  0  0
   16.9367  -10.2688  -15.1274 C   0  0  2  0  0  0  0  0  0  0  0  0
   17.5181  -11.5783  -15.3228 N   0  0  0  0  0  0  0  0  0  0  0  0
   17.4400   -9.6608  -13.8523 C   0  0  0  0  0  0  0  0  0  0  0  0
   17.2303  -10.2343  -12.7540 O   0  0  0  0  0  0  0  0  0  0  0  0
   18.1557   -8.4393  -13.8553 N   0  0  0  0  0  0  0  0  0  0  0  0
   18.7139   -7.9030  -12.6194 C   0  0  1  0  0  0  0  0  0  0  0  0
   19.8531   -6.9793  -12.9889 C   0  0  0  0  0  0  0  0  0  0  0  0
   20.5176   -6.3988  -11.7665 C   0  0  0  0  0  0  0  0  0  0  0  0
   21.6324   -5.5131  -12.1691 C   0  0  0  0  0  0  0  0  0  0  0  0
   22.8116   -5.9012  -12.0345 O   0  0  0  0  0  0  0  0  0  0  0  0
   17.6716   -7.0747  -11.9308 C   0  0  0  0  0  0  0  0  0  0  0  0
   16.9951   -6.2178  -12.5551 O   0  0  0  0  0  0  0  0  0  0  0  0
   21.3769   -4.2704  -12.6883 O   0  0  0  0  0  0  0  0  0  0  0  0
   13.4246   -9.3683   -8.1092 N   0  0  0  0  0  0  0  0  0  0  0  0
   13.2790   -7.9741   -7.9469 C   0  0  0  0  0  0  0  0  0  0  0  0
   12.3081   -7.5264   -7.2462 O   0  0  0  0  0  0  0  0  0  0  0  0
   14.1904   -6.9724   -8.5356 C   0  0  0  0  0  0  0  0  0  0  0  0
   15.3831   -7.5153   -9.2383 C   0  0  0  0  0  0  0  0  0  0  0  0
   16.3189   -6.5210   -9.8521 C   0  0  2  0  0  0  0  0  0  0  0  0
   17.4014   -7.2188  -10.5474 N   0  0  0  0  0  0  0  0  0  0  0  0
   16.7602   -5.3804   -9.0848 C   0  0  0  0  0  0  0  0  0  0  0  0
   18.1078   -5.1957   -8.6842 O   0  0  0  0  0  0  0  0  0  0  0  0
   16.0169   -4.4433   -8.6936 O   0  0  0  0  0  0  0  0  0  0  0  0
  2  1  1  1
  2  3  1  0
  4  5  2  0
  4  2  1  0
  6  4  1  0
  7  6  1  0
  7  8  1  6
  9  8  1  0
  9 10  1  0
 10 11  2  0
 10 14  1  0
 12  7  1  0
 12 21  1  0
 13 12  2  0
 16 17  2  0
 16 15  1  0
 18 16  1  0
 20 19  1  1
 19 18  1  0
 20 21  1  0
 20 22  1  0
 22 23  1  0
 24 22  2  0
M  END
$$$$
