AEQ.pdb
     RDKit          3D

 24 23  0  0  1  0  0  0  0  0999 V2000
   15.7198  -13.7155    4.6832 C   0  0  0  0  0  0  0  0  0  0  0  0
   17.0613  -13.4878    5.3121 C   0  0  2  0  0  0  0  0  0  0  0  0
   17.9797  -12.8670    4.3834 N   0  0  0  0  0  0  0  0  0  0  0  0
   17.6065  -14.8033    5.7823 C   0  0  0  0  0  0  0  0  0  0  0  0
   18.2778  -15.5235    5.0014 O   0  0  0  0  0  0  0  0  0  0  0  0
   17.3804  -15.2603    7.1030 N   0  0  0  0  0  0  0  0  0  0  0  0
   17.9717  -16.5097    7.5676 C   0  0  1  0  0  0  0  0  0  0  0  0
   18.0078  -16.4705    9.0791 C   0  0  0  0  0  0  0  0  0  0  0  0
   18.6616  -17.7022    9.6522 C   0  0  0  0  0  0  0  0  0  0  0  0
   18.9235  -17.5108   11.0958 C   0  0  0  0  0  0  0  0  0  0  0  0
   17.9967  -17.6615   11.9189 O   0  0  0  0  0  0  0  0  0  0  0  0
   17.0825  -17.6492    7.1708 C   0  0  0  0  0  0  0  0  0  0  0  0
   15.9673  -17.4527    6.6236 O   0  0  0  0  0  0  0  0  0  0  0  0
   20.1771  -17.1694   11.5330 O   0  0  0  0  0  0  0  0  0  0  0  0
   16.3874  -19.1769    2.3729 N   0  0  0  0  0  0  0  0  0  0  0  0
   16.1032  -20.4620    2.8820 C   0  0  0  0  0  0  0  0  0  0  0  0
   15.6676  -21.3643    2.0883 O   0  0  0  0  0  0  0  0  0  0  0  0
   16.2822  -20.8508    4.2953 C   0  0  0  0  0  0  0  0  0  0  0  0
   16.7602  -19.7779    5.2070 C   0  0  0  0  0  0  0  0  0  0  0  0
   16.8973  -20.1307    6.6554 C   0  0  2  0  0  0  0  0  0  0  0  0
   17.4571  -18.9974    7.3935 N   0  0  0  0  0  0  0  0  0  0  0  0
   17.4578  -21.4061    7.0347 C   0  0  0  0  0  0  0  0  0  0  0  0
   16.6601  -22.5240    7.3880 O   0  0  0  0  0  0  0  0  0  0  0  0
   18.6880  -21.6642    7.0937 O   0  0  0  0  0  0  0  0  0  0  0  0
  2  1  1  6
  2  3  1  0
  4  5  2  0
  4  2  1  0
  6  4  1  0
  7  6  1  0
  7  8  1  1
  9  8  1  0
  9 10  1  0
 10 11  2  0
 10 14  1  0
 12  7  1  0
 12 21  1  0
 13 12  2  0
 16 17  2  0
 16 15  1  0
 18 16  1  0
 20 19  1  6
 19 18  1  0
 20 21  1  0
 20 22  1  0
 22 23  1  0
 24 22  2  0
M  END
$$$$
