AEQ.pdb
     RDKit          3D

 24 23  0  0  1  0  0  0  0  0999 V2000
   16.5892  -14.7645  -18.0473 C   0  0  0  0  0  0  0  0  0  0  0  0
   17.0340  -13.8719  -16.9282 C   0  0  2  0  0  0  0  0  0  0  0  0
   16.1246  -13.9414  -15.8059 N   0  0  0  0  0  0  0  0  0  0  0  0
   17.1256  -12.4643  -17.4373 C   0  0  0  0  0  0  0  0  0  0  0  0
   17.9304  -12.1777  -18.3589 O   0  0  0  0  0  0  0  0  0  0  0  0
   16.3162  -11.4357  -16.8977 N   0  0  0  0  0  0  0  0  0  0  0  0
   16.4766  -10.0556  -17.3404 C   0  0  1  0  0  0  0  0  0  0  0  0
   15.0966   -9.4567  -17.4975 C   0  0  0  0  0  0  0  0  0  0  0  0
   14.4920   -9.7958  -18.8362 C   0  0  0  0  0  0  0  0  0  0  0  0
   13.1425   -9.1994  -18.9475 C   0  0  0  0  0  0  0  0  0  0  0  0
   12.9668   -8.1942  -19.6672 O   0  0  0  0  0  0  0  0  0  0  0  0
   17.1828   -9.2777  -16.2714 C   0  0  0  0  0  0  0  0  0  0  0  0
   17.3295   -9.7396  -15.1109 O   0  0  0  0  0  0  0  0  0  0  0  0
   12.0858   -9.7447  -18.2653 O   0  0  0  0  0  0  0  0  0  0  0  0
   21.6821  -10.0475  -13.9828 N   0  0  0  0  0  0  0  0  0  0  0  0
   21.6086   -8.6988  -13.5741 C   0  0  0  0  0  0  0  0  0  0  0  0
   22.4151   -8.2745  -12.6778 O   0  0  0  0  0  0  0  0  0  0  0  0
   20.6505   -7.7184  -14.1232 C   0  0  0  0  0  0  0  0  0  0  0  0
   19.6525   -8.2564  -15.0853 C   0  0  0  0  0  0  0  0  0  0  0  0
   18.6295   -7.2966  -15.6081 C   0  0  2  0  0  0  0  0  0  0  0  0
   17.7164   -7.9887  -16.5190 N   0  0  0  0  0  0  0  0  0  0  0  0
   19.0388   -5.9928  -16.0740 C   0  0  0  0  0  0  0  0  0  0  0  0
   19.6115   -5.7762  -17.3530 O   0  0  0  0  0  0  0  0  0  0  0  0
   18.9365   -4.9263  -15.4139 O   0  0  0  0  0  0  0  0  0  0  0  0
  2  1  1  6
  2  3  1  0
  4  5  2  0
  4  2  1  0
  6  4  1  0
  7  6  1  0
  7  8  1  1
  9  8  1  0
  9 10  1  0
 10 11  2  0
 10 14  1  0
 12  7  1  0
 12 21  1  0
 13 12  2  0
 16 17  2  0
 16 15  1  0
 18 16  1  0
 20 19  1  6
 19 18  1  0
 20 21  1  0
 20 22  1  0
 22 23  1  0
 24 22  2  0
M  END
$$$$
