AEQ.pdb
     RDKit          3D

 24 23  0  0  1  0  0  0  0  0999 V2000
   13.4087  -11.5681  -10.9935 C   0  0  0  0  0  0  0  0  0  0  0  0
   14.1859  -12.4582  -11.9158 C   0  0  2  0  0  0  0  0  0  0  0  0
   14.6112  -13.6674  -11.2464 N   0  0  0  0  0  0  0  0  0  0  0  0
   15.3745  -11.7032  -12.4315 C   0  0  0  0  0  0  0  0  0  0  0  0
   16.3480  -11.4648  -11.6736 O   0  0  0  0  0  0  0  0  0  0  0  0
   15.4277  -11.2459  -13.7703 N   0  0  0  0  0  0  0  0  0  0  0  0
   16.6006  -10.5349  -14.2658 C   0  0  1  0  0  0  0  0  0  0  0  0
   16.6096  -10.6517  -15.7737 C   0  0  0  0  0  0  0  0  0  0  0  0
   17.2256  -11.9507  -16.2275 C   0  0  0  0  0  0  0  0  0  0  0  0
   16.1971  -13.0139  -16.2611 C   0  0  0  0  0  0  0  0  0  0  0  0
   16.5455  -14.2108  -16.3322 O   0  0  0  0  0  0  0  0  0  0  0  0
   16.4685   -9.0799  -13.9306 C   0  0  0  0  0  0  0  0  0  0  0  0
   15.3547   -8.5695  -13.6467 O   0  0  0  0  0  0  0  0  0  0  0  0
   14.8656  -12.6912  -16.2145 O   0  0  0  0  0  0  0  0  0  0  0  0
   15.6929   -6.6334   -9.4106 N   0  0  0  0  0  0  0  0  0  0  0  0
   16.3765   -5.5303   -9.9650 C   0  0  0  0  0  0  0  0  0  0  0  0
   16.4727   -4.4516   -9.2860 O   0  0  0  0  0  0  0  0  0  0  0  0
   17.0082   -5.5334  -11.2997 C   0  0  0  0  0  0  0  0  0  0  0  0
   16.9502   -6.8210  -12.0411 C   0  0  0  0  0  0  0  0  0  0  0  0
   17.5549   -6.8424  -13.4104 C   0  0  2  0  0  0  0  0  0  0  0  0
   17.5904   -8.2147  -13.9182 N   0  0  0  0  0  0  0  0  0  0  0  0
   18.7596   -6.0922  -13.6761 C   0  0  0  0  0  0  0  0  0  0  0  0
   18.8102   -4.6758  -13.6353 O   0  0  0  0  0  0  0  0  0  0  0  0
   19.8745   -6.5980  -13.9672 O   0  0  0  0  0  0  0  0  0  0  0  0
  2  1  1  1
  2  3  1  0
  4  5  2  0
  4  2  1  0
  6  4  1  0
  7  6  1  0
  7  8  1  6
  9  8  1  0
  9 10  1  0
 10 11  2  0
 10 14  1  0
 12  7  1  0
 12 21  1  0
 13 12  2  0
 16 17  2  0
 16 15  1  0
 18 16  1  0
 20 19  1  1
 19 18  1  0
 20 21  1  0
 20 22  1  0
 22 23  1  0
 24 22  2  0
M  END
$$$$
