AEQ.pdb
     RDKit          3D

 24 23  0  0  1  0  0  0  0  0999 V2000
   19.3382  -14.5730  -20.6047 C   0  0  0  0  0  0  0  0  0  0  0  0
   20.3240  -14.0124  -19.6244 C   0  0  2  0  0  0  0  0  0  0  0  0
   20.8063  -15.0330  -18.7206 N   0  0  0  0  0  0  0  0  0  0  0  0
   19.6676  -12.9045  -18.8559 C   0  0  0  0  0  0  0  0  0  0  0  0
   19.2598  -11.8773  -19.4537 O   0  0  0  0  0  0  0  0  0  0  0  0
   19.4937  -12.9887  -17.4533 N   0  0  0  0  0  0  0  0  0  0  0  0
   18.8994  -11.8828  -16.7114 C   0  0  1  0  0  0  0  0  0  0  0  0
   18.1883  -12.4617  -15.5086 C   0  0  0  0  0  0  0  0  0  0  0  0
   16.7484  -12.7855  -15.8162 C   0  0  0  0  0  0  0  0  0  0  0  0
   16.0856  -13.3364  -14.6135 C   0  0  0  0  0  0  0  0  0  0  0  0
   15.9435  -14.5713  -14.4953 O   0  0  0  0  0  0  0  0  0  0  0  0
   19.9923  -10.9936  -16.1998 C   0  0  0  0  0  0  0  0  0  0  0  0
   21.2050  -11.2947  -16.3419 O   0  0  0  0  0  0  0  0  0  0  0  0
   15.6276  -12.4985  -13.6299 O   0  0  0  0  0  0  0  0  0  0  0  0
   23.2083   -7.9836  -18.8353 N   0  0  0  0  0  0  0  0  0  0  0  0
   23.4367   -7.3078  -17.6178 C   0  0  0  0  0  0  0  0  0  0  0  0
   24.3798   -6.4477  -17.5500 O   0  0  0  0  0  0  0  0  0  0  0  0
   22.6440   -7.5222  -16.3905 C   0  0  0  0  0  0  0  0  0  0  0  0
   21.5789   -8.5560  -16.4794 C   0  0  0  0  0  0  0  0  0  0  0  0
   20.7089   -8.7379  -15.2748 C   0  0  2  0  0  0  0  0  0  0  0  0
   19.7094   -9.7753  -15.5340 N   0  0  0  0  0  0  0  0  0  0  0  0
   20.1833   -7.5826  -14.5865 C   0  0  0  0  0  0  0  0  0  0  0  0
   20.9002   -6.8970  -13.5732 O   0  0  0  0  0  0  0  0  0  0  0  0
   19.0565   -7.0655  -14.8023 O   0  0  0  0  0  0  0  0  0  0  0  0
  2  1  1  6
  2  3  1  0
  4  5  2  0
  4  2  1  0
  6  4  1  0
  7  6  1  0
  7  8  1  1
  9  8  1  0
  9 10  1  0
 10 11  2  0
 10 14  1  0
 12  7  1  0
 12 21  1  0
 13 12  2  0
 16 17  2  0
 16 15  1  0
 18 16  1  0
 20 19  1  6
 19 18  1  0
 20 21  1  0
 20 22  1  0
 22 23  1  0
 24 22  2  0
M  END
$$$$
