AEQ.pdb
     RDKit          3D

 24 23  0  0  1  0  0  0  0  0999 V2000
   20.4158  -11.4155  -20.1752 C   0  0  0  0  0  0  0  0  0  0  0  0
   21.2751  -11.1968  -18.9666 C   0  0  2  0  0  0  0  0  0  0  0  0
   21.3330  -12.3821  -18.1401 N   0  0  0  0  0  0  0  0  0  0  0  0
   20.7257  -10.0423  -18.1829 C   0  0  0  0  0  0  0  0  0  0  0  0
   20.6904   -8.8939  -18.6919 O   0  0  0  0  0  0  0  0  0  0  0  0
   20.2389  -10.2167  -16.8650 N   0  0  0  0  0  0  0  0  0  0  0  0
   19.7139   -9.0838  -16.1116 C   0  0  1  0  0  0  0  0  0  0  0  0
   18.8006   -9.6272  -15.0354 C   0  0  0  0  0  0  0  0  0  0  0  0
   17.3943   -9.8189  -15.5436 C   0  0  0  0  0  0  0  0  0  0  0  0
   16.5384  -10.3683  -14.4690 C   0  0  0  0  0  0  0  0  0  0  0  0
   15.3579  -10.6886  -14.7200 O   0  0  0  0  0  0  0  0  0  0  0  0
   20.8482   -8.3850  -15.4249 C   0  0  0  0  0  0  0  0  0  0  0  0
   21.9925   -8.9020  -15.3547 O   0  0  0  0  0  0  0  0  0  0  0  0
   17.0348  -10.5271  -13.2011 O   0  0  0  0  0  0  0  0  0  0  0  0
   24.6409   -6.0079  -17.9067 N   0  0  0  0  0  0  0  0  0  0  0  0
   24.8610   -5.2908  -16.7114 C   0  0  0  0  0  0  0  0  0  0  0  0
   25.9222   -4.5883  -16.5927 O   0  0  0  0  0  0  0  0  0  0  0  0
   23.9309   -5.2879  -15.5645 C   0  0  0  0  0  0  0  0  0  0  0  0
   22.7353   -6.1619  -15.6975 C   0  0  0  0  0  0  0  0  0  0  0  0
   21.7897   -6.1979  -14.5375 C   0  0  2  0  0  0  0  0  0  0  0  0
   20.6834   -7.1122  -14.8245 N   0  0  0  0  0  0  0  0  0  0  0  0
   21.3778   -4.9658  -13.9074 C   0  0  0  0  0  0  0  0  0  0  0  0
   20.0902   -4.4003  -14.0887 O   0  0  0  0  0  0  0  0  0  0  0  0
   22.0975   -4.2706  -13.1443 O   0  0  0  0  0  0  0  0  0  0  0  0
  2  1  1  6
  2  3  1  0
  4  5  2  0
  4  2  1  0
  6  4  1  0
  7  6  1  0
  7  8  1  1
  9  8  1  0
  9 10  1  0
 10 11  2  0
 10 14  1  0
 12  7  1  0
 12 21  1  0
 13 12  2  0
 16 17  2  0
 16 15  1  0
 18 16  1  0
 20 19  1  6
 19 18  1  0
 20 21  1  0
 20 22  1  0
 22 23  1  0
 24 22  2  0
M  END
$$$$
