AEQ.pdb
     RDKit          3D

 24 23  0  0  1  0  0  0  0  0999 V2000
   16.2784  -12.1817  -14.4862 C   0  0  0  0  0  0  0  0  0  0  0  0
   16.3980  -10.7479  -14.9069 C   0  0  2  0  0  0  0  0  0  0  0  0
   16.2019  -10.5991  -16.3319 N   0  0  0  0  0  0  0  0  0  0  0  0
   17.7515  -10.2375  -14.5116 C   0  0  0  0  0  0  0  0  0  0  0  0
   18.1146  -10.2773  -13.3093 O   0  0  0  0  0  0  0  0  0  0  0  0
   18.6431   -9.7041  -15.4734 N   0  0  0  0  0  0  0  0  0  0  0  0
   19.9322   -9.1565  -15.0673 C   0  0  1  0  0  0  0  0  0  0  0  0
   20.8401   -9.1649  -16.2770 C   0  0  0  0  0  0  0  0  0  0  0  0
   22.1712   -8.5233  -15.9780 C   0  0  0  0  0  0  0  0  0  0  0  0
   23.0427   -8.5861  -17.1721 C   0  0  0  0  0  0  0  0  0  0  0  0
   24.2837   -8.5661  -17.0351 O   0  0  0  0  0  0  0  0  0  0  0  0
   19.7488   -7.7271  -14.6555 C   0  0  0  0  0  0  0  0  0  0  0  0
   18.9846   -6.9540  -15.2879 O   0  0  0  0  0  0  0  0  0  0  0  0
   22.4947   -8.6659  -18.4261 O   0  0  0  0  0  0  0  0  0  0  0  0
   17.7900   -5.8491   -9.3483 N   0  0  0  0  0  0  0  0  0  0  0  0
   18.2922   -4.6484   -9.8937 C   0  0  0  0  0  0  0  0  0  0  0  0
   18.1185   -3.5540   -9.2565 O   0  0  0  0  0  0  0  0  0  0  0  0
   19.0254   -4.5629  -11.1726 C   0  0  0  0  0  0  0  0  0  0  0  0
   19.2911   -5.8571  -11.8551 C   0  0  0  0  0  0  0  0  0  0  0  0
   20.2108   -5.8243  -13.0358 C   0  0  2  0  0  0  0  0  0  0  0  0
   20.4269   -7.1824  -13.5370 N   0  0  0  0  0  0  0  0  0  0  0  0
   21.4110   -5.0231  -12.9901 C   0  0  0  0  0  0  0  0  0  0  0  0
   21.3902   -3.6063  -12.9345 O   0  0  0  0  0  0  0  0  0  0  0  0
   22.5836   -5.4799  -12.9946 O   0  0  0  0  0  0  0  0  0  0  0  0
  2  1  1  6
  2  3  1  0
  4  5  2  0
  4  2  1  0
  6  4  1  0
  7  6  1  0
  7  8  1  6
  9  8  1  0
  9 10  1  0
 10 11  2  0
 10 14  1  0
 12  7  1  0
 12 21  1  0
 13 12  2  0
 16 17  2  0
 16 15  1  0
 18 16  1  0
 20 19  1  1
 19 18  1  0
 20 21  1  0
 20 22  1  0
 22 23  1  0
 24 22  2  0
M  END
$$$$
