AEQ.pdb
     RDKit          3D

 24 23  0  0  1  0  0  0  0  0999 V2000
   17.3452  -11.4743  -16.4310 C   0  0  0  0  0  0  0  0  0  0  0  0
   16.5925  -10.3500  -17.0762 C   0  0  2  0  0  0  0  0  0  0  0  0
   16.4195  -10.5772  -18.4938 N   0  0  0  0  0  0  0  0  0  0  0  0
   17.3373   -9.0697  -16.8415 C   0  0  0  0  0  0  0  0  0  0  0  0
   18.3941   -8.8287  -17.4772 O   0  0  0  0  0  0  0  0  0  0  0  0
   16.8725   -8.1121  -15.9080 N   0  0  0  0  0  0  0  0  0  0  0  0
   17.6332   -6.8944  -15.6525 C   0  0  1  0  0  0  0  0  0  0  0  0
   16.7505   -5.9550  -14.8614 C   0  0  0  0  0  0  0  0  0  0  0  0
   15.8807   -5.1168  -15.7635 C   0  0  0  0  0  0  0  0  0  0  0  0
   16.4749   -3.7724  -15.9329 C   0  0  0  0  0  0  0  0  0  0  0  0
   16.8041   -3.3796  -17.0715 O   0  0  0  0  0  0  0  0  0  0  0  0
   18.8154   -7.2273  -14.7935 C   0  0  0  0  0  0  0  0  0  0  0  0
   18.9172   -8.3412  -14.2187 O   0  0  0  0  0  0  0  0  0  0  0  0
   16.6653   -2.9574  -14.8472 O   0  0  0  0  0  0  0  0  0  0  0  0
   23.0092   -9.8989  -16.4822 N   0  0  0  0  0  0  0  0  0  0  0  0
   23.6034   -9.4507  -15.2833 C   0  0  0  0  0  0  0  0  0  0  0  0
   24.6903   -9.9932  -14.8858 O   0  0  0  0  0  0  0  0  0  0  0  0
   23.0518   -8.3724  -14.4386 C   0  0  0  0  0  0  0  0  0  0  0  0
   21.7141   -7.8584  -14.8353 C   0  0  0  0  0  0  0  0  0  0  0  0
   21.1915   -6.6757  -14.0809 C   0  0  2  0  0  0  0  0  0  0  0  0
   19.8706   -6.3038  -14.5900 N   0  0  0  0  0  0  0  0  0  0  0  0
   22.0553   -5.5475  -13.8248 C   0  0  0  0  0  0  0  0  0  0  0  0
   22.6747   -5.3203  -12.5697 O   0  0  0  0  0  0  0  0  0  0  0  0
   22.3492   -4.6589  -14.6660 O   0  0  0  0  0  0  0  0  0  0  0  0
  2  1  1  6
  2  3  1  0
  4  5  2  0
  4  2  1  0
  6  4  1  0
  7  6  1  0
  7  8  1  1
  9  8  1  0
  9 10  1  0
 10 11  2  0
 10 14  1  0
 12  7  1  0
 12 21  1  0
 13 12  2  0
 16 17  2  0
 16 15  1  0
 18 16  1  0
 20 19  1  6
 19 18  1  0
 20 21  1  0
 20 22  1  0
 22 23  1  0
 24 22  2  0
M  END
$$$$
