AEQ.pdb
     RDKit          3D

 24 23  0  0  1  0  0  0  0  0999 V2000
   20.3723  -14.7852  -19.6649 C   0  0  0  0  0  0  0  0  0  0  0  0
   21.1230  -14.0349  -18.6064 C   0  0  2  0  0  0  0  0  0  0  0  0
   21.2514  -14.8173  -17.3970 N   0  0  0  0  0  0  0  0  0  0  0  0
   20.4050  -12.7496  -18.3210 C   0  0  0  0  0  0  0  0  0  0  0  0
   20.3107  -11.8682  -19.2116 O   0  0  0  0  0  0  0  0  0  0  0  0
   19.8224  -12.5013  -17.0548 N   0  0  0  0  0  0  0  0  0  0  0  0
   19.1471  -11.2376  -16.7833 C   0  0  1  0  0  0  0  0  0  0  0  0
   18.0503  -11.5059  -15.7771 C   0  0  0  0  0  0  0  0  0  0  0  0
   16.8780  -12.2138  -16.4074 C   0  0  0  0  0  0  0  0  0  0  0  0
   16.6572  -13.5173  -15.7430 C   0  0  0  0  0  0  0  0  0  0  0  0
   16.5946  -13.5750  -14.4972 O   0  0  0  0  0  0  0  0  0  0  0  0
   20.1183  -10.2912  -16.1448 C   0  0  0  0  0  0  0  0  0  0  0  0
   20.9697  -10.6883  -15.3087 O   0  0  0  0  0  0  0  0  0  0  0  0
   16.5213  -14.6601  -16.4878 O   0  0  0  0  0  0  0  0  0  0  0  0
   22.7938   -5.7519  -19.2714 N   0  0  0  0  0  0  0  0  0  0  0  0
   21.8123   -5.1656  -18.4442 C   0  0  0  0  0  0  0  0  0  0  0  0
   21.3923   -3.9889  -18.7138 O   0  0  0  0  0  0  0  0  0  0  0  0
   21.2174   -5.8297  -17.2671 C   0  0  0  0  0  0  0  0  0  0  0  0
   21.7489   -7.1813  -16.9480 C   0  0  0  0  0  0  0  0  0  0  0  0
   21.0528   -7.9448  -15.8647 C   0  0  2  0  0  0  0  0  0  0  0  0
   20.1216   -8.9084  -16.4535 N   0  0  0  0  0  0  0  0  0  0  0  0
   20.5192   -7.2443  -14.7205 C   0  0  0  0  0  0  0  0  0  0  0  0
   21.3351   -6.5441  -13.7961 O   0  0  0  0  0  0  0  0  0  0  0  0
   19.2988   -7.1774  -14.4207 O   0  0  0  0  0  0  0  0  0  0  0  0
  2  1  1  6
  2  3  1  0
  4  5  2  0
  4  2  1  0
  6  4  1  0
  7  6  1  0
  7  8  1  1
  9  8  1  0
  9 10  1  0
 10 11  2  0
 10 14  1  0
 12  7  1  0
 12 21  1  0
 13 12  2  0
 16 17  2  0
 16 15  1  0
 18 16  1  0
 20 19  1  6
 19 18  1  0
 20 21  1  0
 20 22  1  0
 22 23  1  0
 24 22  2  0
M  END
$$$$
