YHN.pdb
     RDKit          3D

 31 32  0  0  1  0  0  0  0  0999 V2000
    7.9937  -12.3847   16.0696 O   0  0  0  0  0  0  0  0  0  0  0  0
    7.6480  -12.9418   17.3115 C   0  0  0  0  0  0  0  0  0  0  0  0
    8.1132  -12.3309   18.4657 C   0  0  0  0  0  0  0  0  0  0  0  0
    7.8058  -12.8333   19.7189 C   0  0  0  0  0  0  0  0  0  0  0  0
    7.0164  -13.9711   19.8465 C   0  0  0  0  0  0  0  0  0  0  0  0
    6.7206  -14.4591   21.2065 C   0  0  0  0  0  0  0  0  0  0  0  0
    7.9019  -15.2338   21.6909 C   0  0  2  0  0  0  0  0  0  0  0  0
    8.2723  -16.2199   20.6974 N   0  0  0  0  0  0  0  0  0  0  0  0
    7.6962  -15.8597   23.0288 C   0  0  0  0  0  0  0  0  0  0  0  0
    7.3587  -15.1722   24.0214 O   0  0  0  0  0  0  0  0  0  0  0  0
    6.5660  -14.5607   18.6957 C   0  0  0  0  0  0  0  0  0  0  0  0
    6.8684  -14.0659   17.4360 C   0  0  0  0  0  0  0  0  0  0  0  0
    7.8724  -17.2682   23.2451 N   0  0  0  0  0  0  0  0  0  0  0  0
    7.7057  -17.8529   24.5610 C   0  0  1  0  0  0  0  0  0  0  0  0
    7.5945  -19.3368   24.4176 C   0  0  0  0  0  0  0  0  0  0  0  0
    7.4634  -20.0290   25.7107 C   0  0  0  0  0  0  0  0  0  0  0  0
    7.2377  -19.4117   26.9172 C   0  0  0  0  0  0  0  0  0  0  0  0
    7.1723  -20.3335   27.8793 N   0  0  0  0  0  0  0  0  0  0  0  0
    7.3558  -21.5196   27.2821 C   0  0  0  0  0  0  0  0  0  0  0  0
    7.5342  -21.3550   25.9655 N   0  0  0  0  0  0  0  0  0  0  0  0
    8.7993  -17.4821   25.4952 C   0  0  0  0  0  0  0  0  0  0  0  0
    9.9915  -17.5918   25.1868 O   0  0  0  0  0  0  0  0  0  0  0  0
   11.2494  -15.2143   29.3083 N   0  0  0  0  0  0  0  0  0  0  0  0
   10.0728  -14.4658   29.0494 C   0  0  0  0  0  0  0  0  0  0  0  0
    9.9725  -13.3302   29.5773 O   0  0  0  0  0  0  0  0  0  0  0  0
    9.0306  -15.0597   28.1762 C   0  0  0  0  0  0  0  0  0  0  0  0
    9.4482  -16.4118   27.6414 C   0  0  2  0  0  0  0  0  0  0  0  0
    8.4648  -16.9892   26.7743 N   0  0  0  0  0  0  0  0  0  0  0  0
    9.8691  -17.3326   28.7206 C   0  0  0  0  0  0  0  0  0  0  0  0
    9.2468  -18.5398   28.9858 O   0  0  0  0  0  0  0  0  0  0  0  0
   10.8440  -17.0069   29.4396 O   0  0  0  0  0  0  0  0  0  0  0  0
  2  1  1  0
  3  2  2  0
  4  3  1  0
  5  4  2  0
  5 11  1  0
  6  5  1  0
  7  6  1  0
  7  8  1  6
  9  7  1  0
  9 13  1  0
 10  9  2  0
 11 12  2  0
 12  2  1  0
 14 13  1  0
 14 21  1  0
 14 15  1  6
 16 15  1  0
 17 16  2  0
 18 19  1  0
 18 17  1  0
 19 20  2  0
 20 16  1  0
 21 28  1  0
 22 21  2  0
 23 24  1  0
 24 26  1  0
 25 24  2  0
 27 26  1  1
 27 29  1  0
 28 27  1  0
 29 31  2  0
 29 30  1  0
M  END
$$$$
