YHN.pdb
     RDKit          3D

 31 32  0  0  1  0  0  0  0  0999 V2000
    8.7135  -12.0978   17.4857 O   0  0  0  0  0  0  0  0  0  0  0  0
    8.4199  -12.7353   18.7020 C   0  0  0  0  0  0  0  0  0  0  0  0
    9.4603  -13.2988   19.4242 C   0  0  0  0  0  0  0  0  0  0  0  0
    9.2336  -13.9406   20.6301 C   0  0  0  0  0  0  0  0  0  0  0  0
    7.9456  -14.0332   21.1464 C   0  0  0  0  0  0  0  0  0  0  0  0
    7.7651  -14.7267   22.4356 C   0  0  0  0  0  0  0  0  0  0  0  0
    7.8198  -16.1978   22.1851 C   0  0  2  0  0  0  0  0  0  0  0  0
    6.6535  -16.6020   21.4283 N   0  0  0  0  0  0  0  0  0  0  0  0
    7.9703  -17.0087   23.4276 C   0  0  0  0  0  0  0  0  0  0  0  0
    6.9863  -17.2547   24.1646 O   0  0  0  0  0  0  0  0  0  0  0  0
    6.9308  -13.4707   20.4194 C   0  0  0  0  0  0  0  0  0  0  0  0
    7.1472  -12.8263   19.2107 C   0  0  0  0  0  0  0  0  0  0  0  0
    9.2379  -17.5436   23.8383 N   0  0  0  0  0  0  0  0  0  0  0  0
    9.4046  -18.1699   25.1349 C   0  0  1  0  0  0  0  0  0  0  0  0
    9.9478  -19.5486   24.9370 C   0  0  0  0  0  0  0  0  0  0  0  0
    9.2012  -20.3191   23.9283 C   0  0  0  0  0  0  0  0  0  0  0  0
    8.1121  -19.8576   23.2295 C   0  0  0  0  0  0  0  0  0  0  0  0
    7.6837  -20.8105   22.4000 N   0  0  0  0  0  0  0  0  0  0  0  0
    8.4967  -21.8617   22.5768 C   0  0  0  0  0  0  0  0  0  0  0  0
    9.4244  -21.5823   23.5007 N   0  0  0  0  0  0  0  0  0  0  0  0
   10.2673  -17.3767   26.0475 C   0  0  0  0  0  0  0  0  0  0  0  0
   11.2855  -16.7985   25.6509 O   0  0  0  0  0  0  0  0  0  0  0  0
   10.4110  -14.5968   26.6020 N   0  0  0  0  0  0  0  0  0  0  0  0
    9.9544  -14.3465   27.9213 C   0  0  0  0  0  0  0  0  0  0  0  0
    9.3995  -13.2428   28.1499 O   0  0  0  0  0  0  0  0  0  0  0  0
   10.1559  -15.3930   28.9535 C   0  0  0  0  0  0  0  0  0  0  0  0
   10.7656  -16.6486   28.3701 C   0  0  2  0  0  0  0  0  0  0  0  0
    9.9113  -17.2811   27.4095 N   0  0  0  0  0  0  0  0  0  0  0  0
   11.2333  -17.5811   29.4197 C   0  0  0  0  0  0  0  0  0  0  0  0
   12.2284  -17.2743   30.3311 O   0  0  0  0  0  0  0  0  0  0  0  0
   10.7023  -18.7151   29.4932 O   0  0  0  0  0  0  0  0  0  0  0  0
  2  1  1  0
  3  2  2  0
  4  3  1  0
  5  4  2  0
  5 11  1  0
  6  5  1  0
  7  6  1  0
  7  8  1  1
  9  7  1  0
  9 13  1  0
 10  9  2  0
 11 12  2  0
 12  2  1  0
 14 13  1  0
 14 21  1  0
 14 15  1  6
 16 15  1  0
 17 16  2  0
 18 19  1  0
 18 17  1  0
 19 20  2  0
 20 16  1  0
 21 28  1  0
 22 21  2  0
 23 24  1  0
 24 26  1  0
 25 24  2  0
 27 26  1  1
 27 29  1  0
 28 27  1  0
 29 31  2  0
 29 30  1  0
M  END
$$$$
