YHN.pdb
     RDKit          3D

 31 32  0  0  1  0  0  0  0  0999 V2000
    6.7145  -12.5181   16.3531 O   0  0  0  0  0  0  0  0  0  0  0  0
    7.1762  -13.1045   17.5427 C   0  0  0  0  0  0  0  0  0  0  0  0
    7.0800  -12.3802   18.7207 C   0  0  0  0  0  0  0  0  0  0  0  0
    7.5180  -12.9047   19.9250 C   0  0  0  0  0  0  0  0  0  0  0  0
    8.0678  -14.1811   19.9780 C   0  0  0  0  0  0  0  0  0  0  0  0
    8.5154  -14.6879   21.2888 C   0  0  0  0  0  0  0  0  0  0  0  0
    9.0938  -16.0501   21.0890 C   0  0  2  0  0  0  0  0  0  0  0  0
    8.0504  -16.9593   20.6633 N   0  0  0  0  0  0  0  0  0  0  0  0
    9.8162  -16.5720   22.2847 C   0  0  0  0  0  0  0  0  0  0  0  0
    9.2272  -16.7313   23.3799 O   0  0  0  0  0  0  0  0  0  0  0  0
    8.1545  -14.8815   18.8047 C   0  0  0  0  0  0  0  0  0  0  0  0
    7.7192  -14.3652   17.5934 C   0  0  0  0  0  0  0  0  0  0  0  0
   11.2097  -16.9155   22.2419 N   0  0  0  0  0  0  0  0  0  0  0  0
   11.8821  -17.4727   23.3989 C   0  0  1  0  0  0  0  0  0  0  0  0
   11.1292  -18.6799   23.8579 C   0  0  0  0  0  0  0  0  0  0  0  0
   10.8335  -19.6207   22.7644 C   0  0  0  0  0  0  0  0  0  0  0  0
   11.1356  -19.4122   21.4404 C   0  0  0  0  0  0  0  0  0  0  0  0
   10.7306  -20.4625   20.7245 N   0  0  0  0  0  0  0  0  0  0  0  0
   10.1785  -21.3231   21.5916 C   0  0  0  0  0  0  0  0  0  0  0  0
   10.2318  -20.8295   22.8349 N   0  0  0  0  0  0  0  0  0  0  0  0
   13.3074  -17.7954   23.1328 C   0  0  0  0  0  0  0  0  0  0  0  0
   13.8856  -18.7299   23.6990 O   0  0  0  0  0  0  0  0  0  0  0  0
   13.9400  -14.4236   19.9227 N   0  0  0  0  0  0  0  0  0  0  0  0
   14.9643  -15.3217   20.3176 C   0  0  0  0  0  0  0  0  0  0  0  0
   15.3197  -16.2032   19.4959 O   0  0  0  0  0  0  0  0  0  0  0  0
   15.5563  -15.1741   21.6700 C   0  0  0  0  0  0  0  0  0  0  0  0
   15.2553  -16.3677   22.5492 C   0  0  2  0  0  0  0  0  0  0  0  0
   14.0218  -17.0094   22.2039 N   0  0  0  0  0  0  0  0  0  0  0  0
   15.3430  -16.0362   23.9888 C   0  0  0  0  0  0  0  0  0  0  0  0
   14.2954  -16.1966   24.8786 O   0  0  0  0  0  0  0  0  0  0  0  0
   16.4247  -15.5839   24.4345 O   0  0  0  0  0  0  0  0  0  0  0  0
  2  1  1  0
  3  2  2  0
  4  3  1  0
  5  4  2  0
  5 11  1  0
  6  5  1  0
  7  6  1  0
  7  8  1  1
  9  7  1  0
  9 13  1  0
 10  9  2  0
 11 12  2  0
 12  2  1  0
 14 13  1  0
 14 21  1  0
 14 15  1  6
 16 15  1  0
 17 16  2  0
 18 19  1  0
 18 17  1  0
 19 20  2  0
 20 16  1  0
 21 28  1  0
 22 21  2  0
 23 24  1  0
 24 26  1  0
 25 24  2  0
 27 26  1  6
 27 29  1  0
 28 27  1  0
 29 31  2  0
 29 30  1  0
M  END
$$$$
