YHN.pdb
     RDKit          3D

 31 32  0  0  1  0  0  0  0  0999 V2000
    8.5148  -11.9076   26.9766 O   0  0  0  0  0  0  0  0  0  0  0  0
    7.7988  -13.0256   26.5187 C   0  0  0  0  0  0  0  0  0  0  0  0
    8.4583  -14.2408   26.4189 C   0  0  0  0  0  0  0  0  0  0  0  0
    7.8059  -15.3784   25.9742 C   0  0  0  0  0  0  0  0  0  0  0  0
    6.4632  -15.3246   25.6159 C   0  0  0  0  0  0  0  0  0  0  0  0
    5.8207  -16.5682   25.1510 C   0  0  0  0  0  0  0  0  0  0  0  0
    5.8777  -16.5927   23.6590 C   0  0  2  0  0  0  0  0  0  0  0  0
    5.1360  -17.7346   23.1667 N   0  0  0  0  0  0  0  0  0  0  0  0
    7.2662  -16.5700   23.1153 C   0  0  0  0  0  0  0  0  0  0  0  0
    7.9414  -17.6217   23.0168 O   0  0  0  0  0  0  0  0  0  0  0  0
    5.8285  -14.1159   25.7211 C   0  0  0  0  0  0  0  0  0  0  0  0
    6.4727  -12.9709   26.1649 C   0  0  0  0  0  0  0  0  0  0  0  0
    7.8934  -15.3535   22.6810 N   0  0  0  0  0  0  0  0  0  0  0  0
    9.2419  -15.3519   22.1490 C   0  0  1  0  0  0  0  0  0  0  0  0
    9.4787  -14.0561   21.4422 C   0  0  0  0  0  0  0  0  0  0  0  0
    8.7779  -13.9720   20.1499 C   0  0  0  0  0  0  0  0  0  0  0  0
    8.1151  -15.0109   19.5422 C   0  0  0  0  0  0  0  0  0  0  0  0
    7.5954  -14.5884   18.3886 N   0  0  0  0  0  0  0  0  0  0  0  0
    7.9293  -13.2952   18.2725 C   0  0  0  0  0  0  0  0  0  0  0  0
    8.6472  -12.9030   19.3322 N   0  0  0  0  0  0  0  0  0  0  0  0
   10.2701  -15.5917   23.1938 C   0  0  0  0  0  0  0  0  0  0  0  0
   10.5518  -14.7407   24.0451 O   0  0  0  0  0  0  0  0  0  0  0  0
   11.1574  -18.9103   27.6880 N   0  0  0  0  0  0  0  0  0  0  0  0
   11.7750  -18.2598   26.5894 C   0  0  0  0  0  0  0  0  0  0  0  0
   13.0206  -18.1000   26.6277 O   0  0  0  0  0  0  0  0  0  0  0  0
   10.9236  -17.8053   25.4625 C   0  0  0  0  0  0  0  0  0  0  0  0
   11.7477  -17.2350   24.3293 C   0  0  2  0  0  0  0  0  0  0  0  0
   10.9451  -16.8306   23.2135 N   0  0  0  0  0  0  0  0  0  0  0  0
   12.8567  -18.1337   23.9390 C   0  0  0  0  0  0  0  0  0  0  0  0
   14.0990  -18.1293   24.5485 O   0  0  0  0  0  0  0  0  0  0  0  0
   12.6670  -18.9479   23.0039 O   0  0  0  0  0  0  0  0  0  0  0  0
  2  1  1  0
  3  2  2  0
  4  3  1  0
  5  4  2  0
  5 11  1  0
  6  5  1  0
  7  6  1  0
  7  8  1  1
  9  7  1  0
  9 13  1  0
 10  9  2  0
 11 12  2  0
 12  2  1  0
 14 13  1  0
 14 21  1  0
 14 15  1  1
 16 15  1  0
 17 16  2  0
 18 19  1  0
 18 17  1  0
 19 20  2  0
 20 16  1  0
 21 28  1  0
 22 21  2  0
 23 24  1  0
 24 26  1  0
 25 24  2  0
 27 26  1  1
 27 29  1  0
 28 27  1  0
 29 31  2  0
 29 30  1  0
M  END
$$$$
