YHN.pdb
     RDKit          3D

 31 32  0  0  1  0  0  0  0  0999 V2000
    9.0295  -12.1337   17.7582 O   0  0  0  0  0  0  0  0  0  0  0  0
    8.5755  -12.7776   18.9207 C   0  0  0  0  0  0  0  0  0  0  0  0
    7.3055  -13.3334   18.9186 C   0  0  0  0  0  0  0  0  0  0  0  0
    6.8024  -13.9811   20.0344 C   0  0  0  0  0  0  0  0  0  0  0  0
    7.5683  -14.0888   21.1902 C   0  0  0  0  0  0  0  0  0  0  0  0
    6.9808  -14.7910   22.3466 C   0  0  0  0  0  0  0  0  0  0  0  0
    7.7106  -16.0812   22.5283 C   0  0  2  0  0  0  0  0  0  0  0  0
    7.8265  -16.7537   21.2513 N   0  0  0  0  0  0  0  0  0  0  0  0
    7.1010  -16.9706   23.5585 C   0  0  0  0  0  0  0  0  0  0  0  0
    5.9173  -17.3698   23.4523 O   0  0  0  0  0  0  0  0  0  0  0  0
    8.8200  -13.5340   21.1736 C   0  0  0  0  0  0  0  0  0  0  0  0
    9.3329  -12.8830   20.0617 C   0  0  0  0  0  0  0  0  0  0  0  0
    7.8326  -17.4106   24.7131 N   0  0  0  0  0  0  0  0  0  0  0  0
    7.2465  -18.3296   25.6687 C   0  0  1  0  0  0  0  0  0  0  0  0
    7.2205  -19.6978   25.0668 C   0  0  0  0  0  0  0  0  0  0  0  0
    6.3981  -19.7718   23.8476 C   0  0  0  0  0  0  0  0  0  0  0  0
    5.0415  -19.9878   23.8224 C   0  0  0  0  0  0  0  0  0  0  0  0
    4.6190  -19.9943   22.5571 N   0  0  0  0  0  0  0  0  0  0  0  0
    5.7012  -19.7845   21.7941 C   0  0  0  0  0  0  0  0  0  0  0  0
    6.7908  -19.6470   22.5597 N   0  0  0  0  0  0  0  0  0  0  0  0
    7.9558  -18.3283   26.9738 C   0  0  0  0  0  0  0  0  0  0  0  0
    7.4009  -18.6748   28.0227 O   0  0  0  0  0  0  0  0  0  0  0  0
   11.4981  -22.0368   28.2422 N   0  0  0  0  0  0  0  0  0  0  0  0
   10.8955  -20.8526   28.7385 C   0  0  0  0  0  0  0  0  0  0  0  0
   11.2086  -20.4761   29.8954 O   0  0  0  0  0  0  0  0  0  0  0  0
    9.9341  -20.1276   27.8717 C   0  0  0  0  0  0  0  0  0  0  0  0
   10.2997  -18.6670   27.7249 C   0  0  2  0  0  0  0  0  0  0  0  0
    9.3053  -17.9186   27.0152 N   0  0  0  0  0  0  0  0  0  0  0  0
   11.6578  -18.4856   27.1660 C   0  0  0  0  0  0  0  0  0  0  0  0
   12.8188  -18.7794   27.8593 O   0  0  0  0  0  0  0  0  0  0  0  0
   11.7706  -18.0407   25.9986 O   0  0  0  0  0  0  0  0  0  0  0  0
  2  1  1  0
  3  2  2  0
  4  3  1  0
  5  4  2  0
  5 11  1  0
  6  5  1  0
  7  6  1  0
  7  8  1  6
  9  7  1  0
  9 13  1  0
 10  9  2  0
 11 12  2  0
 12  2  1  0
 14 13  1  0
 14 21  1  0
 14 15  1  6
 16 15  1  0
 17 16  2  0
 18 19  1  0
 18 17  1  0
 19 20  2  0
 20 16  1  0
 21 28  1  0
 22 21  2  0
 23 24  1  0
 24 26  1  0
 25 24  2  0
 27 26  1  6
 27 29  1  0
 28 27  1  0
 29 31  2  0
 29 30  1  0
M  END
$$$$
