YHN.pdb
     RDKit          3D

 31 32  0  0  1  0  0  0  0  0999 V2000
    8.5128  -12.0167   27.8350 O   0  0  0  0  0  0  0  0  0  0  0  0
    8.2150  -12.5921   26.5890 C   0  0  0  0  0  0  0  0  0  0  0  0
    6.8849  -12.7487   26.2312 C   0  0  0  0  0  0  0  0  0  0  0  0
    6.5286  -13.3093   25.0162 C   0  0  0  0  0  0  0  0  0  0  0  0
    7.5067  -13.7299   24.1216 C   0  0  0  0  0  0  0  0  0  0  0  0
    7.0677  -14.3179   22.8422 C   0  0  0  0  0  0  0  0  0  0  0  0
    6.9604  -15.7966   23.0213 C   0  0  2  0  0  0  0  0  0  0  0  0
    5.9167  -16.0918   23.9804 N   0  0  0  0  0  0  0  0  0  0  0  0
    8.2482  -16.4458   23.4012 C   0  0  0  0  0  0  0  0  0  0  0  0
    8.3518  -17.1115   24.4585 O   0  0  0  0  0  0  0  0  0  0  0  0
    8.8148  -13.5672   24.4922 C   0  0  0  0  0  0  0  0  0  0  0  0
    9.1822  -13.0074   25.7066 C   0  0  0  0  0  0  0  0  0  0  0  0
    9.4232  -16.3421   22.5824 N   0  0  0  0  0  0  0  0  0  0  0  0
   10.6279  -17.0830   22.8999 C   0  0  1  0  0  0  0  0  0  0  0  0
   11.5903  -16.9462   21.7641 C   0  0  0  0  0  0  0  0  0  0  0  0
   11.0440  -17.4378   20.4880 C   0  0  0  0  0  0  0  0  0  0  0  0
    9.7551  -17.8731   20.2966 C   0  0  0  0  0  0  0  0  0  0  0  0
    9.5991  -18.2453   19.0251 N   0  0  0  0  0  0  0  0  0  0  0  0
   10.7803  -18.0458   18.4232 C   0  0  0  0  0  0  0  0  0  0  0  0
   11.6700  -17.5558   19.2953 N   0  0  0  0  0  0  0  0  0  0  0  0
   11.2430  -16.6540   24.1821 C   0  0  0  0  0  0  0  0  0  0  0  0
   12.2913  -16.0000   24.2208 O   0  0  0  0  0  0  0  0  0  0  0  0
   10.0592  -21.5716   26.8710 N   0  0  0  0  0  0  0  0  0  0  0  0
    9.7608  -20.1960   26.6974 C   0  0  0  0  0  0  0  0  0  0  0  0
    8.8941  -19.6848   27.4496 O   0  0  0  0  0  0  0  0  0  0  0  0
   10.4819  -19.4399   25.6440 C   0  0  0  0  0  0  0  0  0  0  0  0
   11.0338  -18.1324   26.1679 C   0  0  2  0  0  0  0  0  0  0  0  0
   10.6090  -17.0049   25.3927 N   0  0  0  0  0  0  0  0  0  0  0  0
   12.5015  -18.1797   26.3501 C   0  0  0  0  0  0  0  0  0  0  0  0
   13.4032  -18.2496   25.3027 O   0  0  0  0  0  0  0  0  0  0  0  0
   12.9613  -18.1554   27.5169 O   0  0  0  0  0  0  0  0  0  0  0  0
  2  1  1  0
  3  2  2  0
  4  3  1  0
  5  4  2  0
  5 11  1  0
  6  5  1  0
  7  6  1  0
  7  8  1  1
  9  7  1  0
  9 13  1  0
 10  9  2  0
 11 12  2  0
 12  2  1  0
 14 13  1  0
 14 21  1  0
 14 15  1  6
 16 15  1  0
 17 16  2  0
 18 19  1  0
 18 17  1  0
 19 20  2  0
 20 16  1  0
 21 28  1  0
 22 21  2  0
 23 24  1  0
 24 26  1  0
 25 24  2  0
 27 26  1  6
 27 29  1  0
 28 27  1  0
 29 31  2  0
 29 30  1  0
M  END
$$$$
