YHN.pdb
     RDKit          3D

 31 32  0  0  1  0  0  0  0  0999 V2000
    5.9394  -10.6253   27.6533 O   0  0  0  0  0  0  0  0  0  0  0  0
    6.4238  -11.8364   27.1330 C   0  0  0  0  0  0  0  0  0  0  0  0
    5.7320  -13.0041   27.4153 C   0  0  0  0  0  0  0  0  0  0  0  0
    6.1603  -14.2285   26.9308 C   0  0  0  0  0  0  0  0  0  0  0  0
    7.3034  -14.3125   26.1431 C   0  0  0  0  0  0  0  0  0  0  0  0
    7.7104  -15.6431   25.6539 C   0  0  0  0  0  0  0  0  0  0  0  0
    7.0757  -15.8636   24.3203 C   0  0  2  0  0  0  0  0  0  0  0  0
    6.0199  -16.8465   24.4453 N   0  0  0  0  0  0  0  0  0  0  0  0
    8.0468  -16.2406   23.2532 C   0  0  0  0  0  0  0  0  0  0  0  0
    8.3453  -17.4398   23.0421 O   0  0  0  0  0  0  0  0  0  0  0  0
    7.9734  -13.1490   25.8746 C   0  0  0  0  0  0  0  0  0  0  0  0
    7.5531  -11.9179   26.3553 C   0  0  0  0  0  0  0  0  0  0  0  0
    8.6826  -15.2580   22.4213 N   0  0  0  0  0  0  0  0  0  0  0  0
    9.8522  -15.5864   21.6305 C   0  0  1  0  0  0  0  0  0  0  0  0
   10.0722  -14.5031   20.6240 C   0  0  0  0  0  0  0  0  0  0  0  0
    8.9750  -14.3967   19.6478 C   0  0  0  0  0  0  0  0  0  0  0  0
    7.8895  -15.2366   19.5855 C   0  0  0  0  0  0  0  0  0  0  0  0
    7.0923  -14.8544   18.5866 N   0  0  0  0  0  0  0  0  0  0  0  0
    7.6724  -13.7837   18.0260 C   0  0  0  0  0  0  0  0  0  0  0  0
    8.8164  -13.4907   18.6567 N   0  0  0  0  0  0  0  0  0  0  0  0
   11.0636  -15.8035   22.4622 C   0  0  0  0  0  0  0  0  0  0  0  0
   11.1911  -15.2945   23.5816 O   0  0  0  0  0  0  0  0  0  0  0  0
   14.1447  -19.2362   24.4629 N   0  0  0  0  0  0  0  0  0  0  0  0
   12.7290  -19.3162   24.4963 C   0  0  0  0  0  0  0  0  0  0  0  0
   12.2076  -20.1588   25.2687 O   0  0  0  0  0  0  0  0  0  0  0  0
   11.9452  -18.4079   23.6233 C   0  0  0  0  0  0  0  0  0  0  0  0
   12.8400  -17.5071   22.8010 C   0  0  2  0  0  0  0  0  0  0  0  0
   12.0999  -16.6168   21.9571 N   0  0  0  0  0  0  0  0  0  0  0  0
   13.8711  -18.2692   22.0622 C   0  0  0  0  0  0  0  0  0  0  0  0
   13.8318  -18.4889   20.6965 O   0  0  0  0  0  0  0  0  0  0  0  0
   14.8380  -18.7458   22.7036 O   0  0  0  0  0  0  0  0  0  0  0  0
  2  1  1  0
  3  2  2  0
  4  3  1  0
  5  4  2  0
  5 11  1  0
  6  5  1  0
  7  6  1  0
  7  8  1  1
  9  7  1  0
  9 13  1  0
 10  9  2  0
 11 12  2  0
 12  2  1  0
 14 13  1  0
 14 21  1  0
 14 15  1  6
 16 15  1  0
 17 16  2  0
 18 19  1  0
 18 17  1  0
 19 20  2  0
 20 16  1  0
 21 28  1  0
 22 21  2  0
 23 24  1  0
 24 26  1  0
 25 24  2  0
 27 26  1  6
 27 29  1  0
 28 27  1  0
 29 31  2  0
 29 30  1  0
M  END
$$$$
