YHN.pdb
     RDKit          3D

 31 32  0  0  1  0  0  0  0  0999 V2000
    6.0521  -12.5331   17.0736 O   0  0  0  0  0  0  0  0  0  0  0  0
    6.9382  -13.0689   18.0222 C   0  0  0  0  0  0  0  0  0  0  0  0
    7.0208  -14.4468   18.1494 C   0  0  0  0  0  0  0  0  0  0  0  0
    7.8758  -15.0341   19.0667 C   0  0  0  0  0  0  0  0  0  0  0  0
    8.6770  -14.2464   19.8862 C   0  0  0  0  0  0  0  0  0  0  0  0
    9.5693  -14.9276   20.8429 C   0  0  0  0  0  0  0  0  0  0  0  0
   10.9774  -14.7385   20.3829 C   0  0  2  0  0  0  0  0  0  0  0  0
   11.0153  -14.7336   18.9355 N   0  0  0  0  0  0  0  0  0  0  0  0
   11.9284  -15.7381   20.9489 C   0  0  0  0  0  0  0  0  0  0  0  0
   12.0224  -15.9155   22.1864 O   0  0  0  0  0  0  0  0  0  0  0  0
    8.5821  -12.8876   19.7463 C   0  0  0  0  0  0  0  0  0  0  0  0
    7.7288  -12.2896   18.8312 C   0  0  0  0  0  0  0  0  0  0  0  0
   12.7763  -16.5402   20.1125 N   0  0  0  0  0  0  0  0  0  0  0  0
   13.7062  -17.4955   20.6816 C   0  0  1  0  0  0  0  0  0  0  0  0
   13.5591  -18.7976   19.9619 C   0  0  0  0  0  0  0  0  0  0  0  0
   12.1937  -19.3437   20.0392 C   0  0  0  0  0  0  0  0  0  0  0  0
   11.7130  -20.1257   21.0615 C   0  0  0  0  0  0  0  0  0  0  0  0
   10.4413  -20.4434   20.8137 N   0  0  0  0  0  0  0  0  0  0  0  0
   10.1262  -19.8661   19.6456 C   0  0  0  0  0  0  0  0  0  0  0  0
   11.1773  -19.1940   19.1601 N   0  0  0  0  0  0  0  0  0  0  0  0
   15.1119  -17.0167   20.6474 C   0  0  0  0  0  0  0  0  0  0  0  0
   15.8530  -17.2252   19.6801 O   0  0  0  0  0  0  0  0  0  0  0  0
   15.8961  -13.6563   19.1297 N   0  0  0  0  0  0  0  0  0  0  0  0
   17.0229  -14.1387   19.8432 C   0  0  0  0  0  0  0  0  0  0  0  0
   18.0534  -14.4278   19.1854 O   0  0  0  0  0  0  0  0  0  0  0  0
   16.9249  -14.2761   21.3173 C   0  0  0  0  0  0  0  0  0  0  0  0
   16.9271  -15.7262   21.7485 C   0  0  2  0  0  0  0  0  0  0  0  0
   15.6149  -16.3013   21.7546 N   0  0  0  0  0  0  0  0  0  0  0  0
   17.6443  -15.9266   23.0272 C   0  0  0  0  0  0  0  0  0  0  0  0
   17.0658  -16.4880   24.1521 O   0  0  0  0  0  0  0  0  0  0  0  0
   18.8445  -15.5700   23.1031 O   0  0  0  0  0  0  0  0  0  0  0  0
  2  1  1  0
  3  2  2  0
  4  3  1  0
  5  4  2  0
  5 11  1  0
  6  5  1  0
  7  6  1  0
  7  8  1  6
  9  7  1  0
  9 13  1  0
 10  9  2  0
 11 12  2  0
 12  2  1  0
 14 13  1  0
 14 21  1  0
 14 15  1  6
 16 15  1  0
 17 16  2  0
 18 19  1  0
 18 17  1  0
 19 20  2  0
 20 16  1  0
 21 28  1  0
 22 21  2  0
 23 24  1  0
 24 26  1  0
 25 24  2  0
 27 26  1  1
 27 29  1  0
 28 27  1  0
 29 31  2  0
 29 30  1  0
M  END
$$$$
