YHN.pdb
     RDKit          3D

 31 32  0  0  1  0  0  0  0  0999 V2000
    6.4571  -11.6870   28.7323 O   0  0  0  0  0  0  0  0  0  0  0  0
    6.4519  -12.1610   27.4104 C   0  0  0  0  0  0  0  0  0  0  0  0
    6.1294  -13.4899   27.1830 C   0  0  0  0  0  0  0  0  0  0  0  0
    6.1073  -14.0153   25.9021 C   0  0  0  0  0  0  0  0  0  0  0  0
    6.4102  -13.2130   24.8073 C   0  0  0  0  0  0  0  0  0  0  0  0
    6.3688  -13.8269   23.4668 C   0  0  0  0  0  0  0  0  0  0  0  0
    7.0218  -15.1675   23.5478 C   0  0  2  0  0  0  0  0  0  0  0  0
    7.7948  -15.2544   24.7690 N   0  0  0  0  0  0  0  0  0  0  0  0
    7.8513  -15.4993   22.3537 C   0  0  0  0  0  0  0  0  0  0  0  0
    7.3735  -15.4425   21.1960 O   0  0  0  0  0  0  0  0  0  0  0  0
    6.7261  -11.9032   25.0512 C   0  0  0  0  0  0  0  0  0  0  0  0
    6.7516  -11.3674   26.3300 C   0  0  0  0  0  0  0  0  0  0  0  0
    9.2264  -15.8964   22.4690 N   0  0  0  0  0  0  0  0  0  0  0  0
   10.1075  -15.8964   21.3180 C   0  0  1  0  0  0  0  0  0  0  0  0
   10.1317  -14.5219   20.7305 C   0  0  0  0  0  0  0  0  0  0  0  0
    9.2100  -14.3691   19.5923 C   0  0  0  0  0  0  0  0  0  0  0  0
    8.4644  -13.2464   19.3254 C   0  0  0  0  0  0  0  0  0  0  0  0
    7.7427  -13.4479   18.2217 N   0  0  0  0  0  0  0  0  0  0  0  0
    8.0323  -14.6867   17.7993 C   0  0  0  0  0  0  0  0  0  0  0  0
    8.9214  -15.2618   18.6185 N   0  0  0  0  0  0  0  0  0  0  0  0
   11.4779  -16.3666   21.6456 C   0  0  0  0  0  0  0  0  0  0  0  0
   12.2603  -15.6889   22.3215 O   0  0  0  0  0  0  0  0  0  0  0  0
   11.6936  -18.9447   23.9322 N   0  0  0  0  0  0  0  0  0  0  0  0
   12.0948  -20.0353   23.1190 C   0  0  0  0  0  0  0  0  0  0  0  0
   11.7649  -21.1912   23.4841 O   0  0  0  0  0  0  0  0  0  0  0  0
   12.8776  -19.7550   21.8901 C   0  0  0  0  0  0  0  0  0  0  0  0
   13.0737  -18.2706   21.6744 C   0  0  2  0  0  0  0  0  0  0  0  0
   11.8975  -17.6269   21.1698 N   0  0  0  0  0  0  0  0  0  0  0  0
   14.2767  -17.9791   20.8634 C   0  0  0  0  0  0  0  0  0  0  0  0
   15.5656  -18.2831   21.2652 O   0  0  0  0  0  0  0  0  0  0  0  0
   14.1273  -17.4254   19.7479 O   0  0  0  0  0  0  0  0  0  0  0  0
  2  1  1  0
  3  2  2  0
  4  3  1  0
  5  4  2  0
  5 11  1  0
  6  5  1  0
  7  6  1  0
  7  8  1  1
  9  7  1  0
  9 13  1  0
 10  9  2  0
 11 12  2  0
 12  2  1  0
 14 13  1  0
 14 21  1  0
 14 15  1  1
 16 15  1  0
 17 16  2  0
 18 19  1  0
 18 17  1  0
 19 20  2  0
 20 16  1  0
 21 28  1  0
 22 21  2  0
 23 24  1  0
 24 26  1  0
 25 24  2  0
 27 26  1  6
 27 29  1  0
 28 27  1  0
 29 31  2  0
 29 30  1  0
M  END
$$$$
