YHN.pdb
     RDKit          3D

 31 32  0  0  1  0  0  0  0  0999 V2000
    7.2585  -11.9387   17.4115 O   0  0  0  0  0  0  0  0  0  0  0  0
    7.5774  -12.6718   18.5661 C   0  0  0  0  0  0  0  0  0  0  0  0
    8.8839  -13.1014   18.7398 C   0  0  0  0  0  0  0  0  0  0  0  0
    9.2592  -13.8278   19.8573 C   0  0  0  0  0  0  0  0  0  0  0  0
    8.3247  -14.1436   20.8375 C   0  0  0  0  0  0  0  0  0  0  0  0
    8.7826  -14.9180   22.0064 C   0  0  0  0  0  0  0  0  0  0  0  0
    9.3764  -16.1969   21.5145 C   0  0  2  0  0  0  0  0  0  0  0  0
    8.3844  -16.9286   20.7550 N   0  0  0  0  0  0  0  0  0  0  0  0
    9.9614  -17.0379   22.5983 C   0  0  0  0  0  0  0  0  0  0  0  0
    9.2326  -17.7347   23.3434 O   0  0  0  0  0  0  0  0  0  0  0  0
    7.0394  -13.7109   20.6489 C   0  0  0  0  0  0  0  0  0  0  0  0
    6.6532  -12.9832   19.5334 C   0  0  0  0  0  0  0  0  0  0  0  0
   11.3757  -17.0915   22.8403 N   0  0  0  0  0  0  0  0  0  0  0  0
   11.9166  -17.8075   23.9787 C   0  0  1  0  0  0  0  0  0  0  0  0
   13.2848  -18.2998   23.6318 C   0  0  0  0  0  0  0  0  0  0  0  0
   13.2717  -19.3442   22.5938 C   0  0  0  0  0  0  0  0  0  0  0  0
   12.1413  -19.9315   22.0790 C   0  0  0  0  0  0  0  0  0  0  0  0
   12.4915  -20.8325   21.1597 N   0  0  0  0  0  0  0  0  0  0  0  0
   13.8305  -20.8115   21.0979 C   0  0  0  0  0  0  0  0  0  0  0  0
   14.3222  -19.9141   21.9612 N   0  0  0  0  0  0  0  0  0  0  0  0
   11.9373  -16.9852   25.2155 C   0  0  0  0  0  0  0  0  0  0  0  0
   12.3966  -15.8376   25.2331 O   0  0  0  0  0  0  0  0  0  0  0  0
   10.9193  -15.1498   29.7838 N   0  0  0  0  0  0  0  0  0  0  0  0
    9.9263  -15.0259   28.7787 C   0  0  0  0  0  0  0  0  0  0  0  0
    8.9683  -14.2423   28.9947 O   0  0  0  0  0  0  0  0  0  0  0  0
   10.0702  -15.8229   27.5356 C   0  0  0  0  0  0  0  0  0  0  0  0
   11.2655  -16.7482   27.5958 C   0  0  2  0  0  0  0  0  0  0  0  0
   11.4154  -17.5329   26.4065 N   0  0  0  0  0  0  0  0  0  0  0  0
   11.2735  -17.5695   28.8267 C   0  0  0  0  0  0  0  0  0  0  0  0
   11.7214  -17.1105   30.0529 O   0  0  0  0  0  0  0  0  0  0  0  0
   10.8520  -18.7492   28.7623 O   0  0  0  0  0  0  0  0  0  0  0  0
  2  1  1  0
  3  2  2  0
  4  3  1  0
  5  4  2  0
  5 11  1  0
  6  5  1  0
  7  6  1  0
  7  8  1  1
  9  7  1  0
  9 13  1  0
 10  9  2  0
 11 12  2  0
 12  2  1  0
 14 13  1  0
 14 21  1  0
 14 15  1  6
 16 15  1  0
 17 16  2  0
 18 19  1  0
 18 17  1  0
 19 20  2  0
 20 16  1  0
 21 28  1  0
 22 21  2  0
 23 24  1  0
 24 26  1  0
 25 24  2  0
 27 26  1  6
 27 29  1  0
 28 27  1  0
 29 31  2  0
 29 30  1  0
M  END
$$$$
