FVI.pdb
     RDKit          3D

 27 27  0  0  1  0  0  0  0  0999 V2000
   28.2779  -19.7338  -15.2307 N   0  0  0  0  0  0  0  0  0  0  0  0
   27.2761  -20.1322  -14.2553 C   0  0  1  0  0  0  0  0  0  0  0  0
   27.5806  -19.3231  -12.9883 C   0  0  0  0  0  0  0  0  0  0  0  0
   28.6652  -20.0360  -12.2770 C   0  0  0  0  0  0  0  0  0  0  0  0
   29.9886  -19.7087  -12.4432 C   0  0  0  0  0  0  0  0  0  0  0  0
   31.0091  -20.3617  -11.7894 C   0  0  0  0  0  0  0  0  0  0  0  0
   30.6627  -21.3829  -10.9379 C   0  0  0  0  0  0  0  0  0  0  0  0
   29.3415  -21.7300  -10.7545 C   0  0  0  0  0  0  0  0  0  0  0  0
   28.3303  -21.0591  -11.4229 C   0  0  0  0  0  0  0  0  0  0  0  0
   25.9327  -19.7394  -14.7731 C   0  0  0  0  0  0  0  0  0  0  0  0
   25.7921  -18.7261  -15.5011 O   0  0  0  0  0  0  0  0  0  0  0  0
   21.9125  -19.9388  -17.0041 C   0  0  0  0  0  0  0  0  0  0  0  0
   23.2642  -20.3178  -16.4976 C   0  0  2  0  0  0  0  0  0  0  0  0
   23.6745  -21.7232  -16.9323 C   0  0  0  0  0  0  0  0  0  0  0  0
   23.4830  -20.0993  -15.0458 C   0  0  2  0  0  0  0  0  0  0  0  0
   24.7506  -20.4371  -14.5056 N   0  0  0  0  0  0  0  0  0  0  0  0
   22.4475  -20.8737  -14.2909 C   0  0  0  0  0  0  0  0  0  0  0  0
   22.6850  -22.0540  -13.8570 O   0  0  0  0  0  0  0  0  0  0  0  0
   21.1137  -20.9142   -9.0657 C   0  0  0  0  0  0  0  0  0  0  0  0
   20.3379  -21.0924  -10.3607 C   0  0  0  0  0  0  0  0  0  0  0  0
   21.0598  -20.5858  -11.5612 C   0  0  2  0  0  0  0  0  0  0  0  0
   21.3167  -19.1079  -11.3549 C   0  0  0  0  0  0  0  0  0  0  0  0
   20.3580  -20.8069  -12.8680 C   0  0  2  0  0  0  0  0  0  0  0  0
   21.1553  -20.3798  -14.0014 N   0  0  0  0  0  0  0  0  0  0  0  0
   18.9811  -20.3120  -12.9259 C   0  0  0  0  0  0  0  0  0  0  0  0
   18.0436  -20.7093  -12.2100 O   0  0  0  0  0  0  0  0  0  0  0  0
   18.6596  -19.3050  -13.8569 O   0  0  0  0  0  0  0  0  0  0  0  0
  2  1  1  6
  3  2  1  0
  4  3  1  0
  4  9  2  0
  5  4  1  0
  6  5  2  0
  6  7  1  0
  7  8  2  0
  8  9  1  0
 10  2  1  0
 11 10  2  0
 13 15  1  0
 13 12  1  1
 14 13  1  0
 15 16  1  1
 16 10  1  0
 17 18  2  0
 17 15  1  0
 19 20  1  0
 20 21  1  0
 21 23  1  0
 21 22  1  1
 23 24  1  6
 24 17  1  0
 25 27  1  0
 25 23  1  0
 26 25  2  0
M  END
$$$$
