FVI.pdb
     RDKit          3D

 27 27  0  0  1  0  0  0  0  0999 V2000
   28.3775  -21.0069   -9.2284 N   0  0  0  0  0  0  0  0  0  0  0  0
   27.0140  -20.5995   -8.9305 C   0  0  1  0  0  0  0  0  0  0  0  0
   27.1312  -19.2836   -8.1511 C   0  0  0  0  0  0  0  0  0  0  0  0
   27.7103  -19.6196   -6.8311 C   0  0  0  0  0  0  0  0  0  0  0  0
   28.9292  -19.1370   -6.4219 C   0  0  0  0  0  0  0  0  0  0  0  0
   29.4818  -19.4398   -5.1979 C   0  0  0  0  0  0  0  0  0  0  0  0
   28.7624  -20.2638   -4.3662 C   0  0  0  0  0  0  0  0  0  0  0  0
   27.5368  -20.7608   -4.7544 C   0  0  0  0  0  0  0  0  0  0  0  0
   26.9996  -20.4429   -5.9911 C   0  0  0  0  0  0  0  0  0  0  0  0
   26.3077  -20.3410  -10.2195 C   0  0  0  0  0  0  0  0  0  0  0  0
   26.8058  -19.5836  -11.0884 O   0  0  0  0  0  0  0  0  0  0  0  0
   25.9157  -22.9142  -12.6590 C   0  0  0  0  0  0  0  0  0  0  0  0
   24.5836  -22.2437  -12.6007 C   0  0  2  0  0  0  0  0  0  0  0  0
   23.9162  -22.1572  -13.9717 C   0  0  0  0  0  0  0  0  0  0  0  0
   24.5581  -20.9421  -11.8874 C   0  0  2  0  0  0  0  0  0  0  0  0
   25.0723  -20.8971  -10.5660 N   0  0  0  0  0  0  0  0  0  0  0  0
   23.1419  -20.4582  -11.8395 C   0  0  0  0  0  0  0  0  0  0  0  0
   22.4075  -20.6519  -10.8096 O   0  0  0  0  0  0  0  0  0  0  0  0
   21.5773  -16.0571  -14.8520 C   0  0  0  0  0  0  0  0  0  0  0  0
   21.6827  -17.0349  -13.6929 C   0  0  0  0  0  0  0  0  0  0  0  0
   20.8436  -18.2537  -13.8645 C   0  0  2  0  0  0  0  0  0  0  0  0
   19.3926  -17.8317  -13.7686 C   0  0  0  0  0  0  0  0  0  0  0  0
   21.1211  -19.3612  -12.8921 C   0  0  2  0  0  0  0  0  0  0  0  0
   22.5137  -19.7653  -12.8991 N   0  0  0  0  0  0  0  0  0  0  0  0
   20.2013  -20.4983  -12.9657 C   0  0  0  0  0  0  0  0  0  0  0  0
   20.2433  -21.4026  -13.8199 O   0  0  0  0  0  0  0  0  0  0  0  0
   19.1752  -20.6054  -12.0067 O   0  0  0  0  0  0  0  0  0  0  0  0
  2  1  1  6
  3  2  1  0
  4  3  1  0
  4  9  2  0
  5  4  1  0
  6  5  2  0
  6  7  1  0
  7  8  2  0
  8  9  1  0
 10  2  1  0
 11 10  2  0
 13 15  1  0
 13 12  1  6
 14 13  1  0
 15 16  1  1
 16 10  1  0
 17 18  2  0
 17 15  1  0
 19 20  1  0
 20 21  1  0
 21 23  1  0
 21 22  1  1
 23 24  1  6
 24 17  1  0
 25 27  1  0
 25 23  1  0
 26 25  2  0
M  END
$$$$
