FVI.pdb
     RDKit          3D

 27 27  0  0  1  0  0  0  0  0999 V2000
   23.4371  -21.6509  -13.4530 N   0  0  0  0  0  0  0  0  0  0  0  0
   23.5088  -20.8022  -12.2747 C   0  0  1  0  0  0  0  0  0  0  0  0
   22.1764  -20.9935  -11.5393 C   0  0  0  0  0  0  0  0  0  0  0  0
   21.1534  -20.2518  -12.3099 C   0  0  0  0  0  0  0  0  0  0  0  0
   21.1854  -18.8854  -12.4438 C   0  0  0  0  0  0  0  0  0  0  0  0
   20.2419  -18.1806  -13.1568 C   0  0  0  0  0  0  0  0  0  0  0  0
   19.2330  -18.8990  -13.7520 C   0  0  0  0  0  0  0  0  0  0  0  0
   19.1794  -20.2710  -13.6321 C   0  0  0  0  0  0  0  0  0  0  0  0
   20.1397  -20.9601  -12.9095 C   0  0  0  0  0  0  0  0  0  0  0  0
   24.6191  -21.2941  -11.4072 C   0  0  0  0  0  0  0  0  0  0  0  0
   24.7771  -22.5215  -11.1943 O   0  0  0  0  0  0  0  0  0  0  0  0
   28.5974  -19.6924  -11.0723 C   0  0  0  0  0  0  0  0  0  0  0  0
   27.9792  -21.0080  -10.7341 C   0  0  2  0  0  0  0  0  0  0  0  0
   27.9389  -21.9559  -11.9310 C   0  0  0  0  0  0  0  0  0  0  0  0
   26.6695  -20.9348  -10.0392 C   0  0  2  0  0  0  0  0  0  0  0  0
   25.5511  -20.4651  -10.7749 N   0  0  0  0  0  0  0  0  0  0  0  0
   26.8222  -20.0563   -8.8364 C   0  0  0  0  0  0  0  0  0  0  0  0
   26.3511  -18.8666   -8.8177 O   0  0  0  0  0  0  0  0  0  0  0  0
   27.9717  -22.1721   -3.6573 C   0  0  0  0  0  0  0  0  0  0  0  0
   27.3552  -21.3656   -4.7888 C   0  0  0  0  0  0  0  0  0  0  0  0
   28.2605  -20.3151   -5.3325 C   0  0  2  0  0  0  0  0  0  0  0  0
   28.5615  -19.3412   -4.2128 C   0  0  0  0  0  0  0  0  0  0  0  0
   27.7352  -19.5764   -6.5274 C   0  0  2  0  0  0  0  0  0  0  0  0
   27.4815  -20.4562   -7.6519 N   0  0  0  0  0  0  0  0  0  0  0  0
   28.4943  -18.3820   -6.9032 C   0  0  0  0  0  0  0  0  0  0  0  0
   29.5588  -18.3801   -7.5482 O   0  0  0  0  0  0  0  0  0  0  0  0
   28.0065  -17.1179   -6.5182 O   0  0  0  0  0  0  0  0  0  0  0  0
  2  1  1  6
  3  2  1  0
  4  3  1  0
  4  9  2  0
  5  4  1  0
  6  5  2  0
  6  7  1  0
  7  8  2  0
  8  9  1  0
 10  2  1  0
 11 10  2  0
 13 15  1  0
 13 12  1  6
 14 13  1  0
 15 16  1  6
 16 10  1  0
 17 18  2  0
 17 15  1  0
 19 20  1  0
 20 21  1  0
 21 23  1  0
 21 22  1  1
 23 24  1  6
 24 17  1  0
 25 27  1  0
 25 23  1  0
 26 25  2  0
M  END
$$$$
