FVI.pdb
     RDKit          3D

 27 27  0  0  1  0  0  0  0  0999 V2000
   22.7557  -19.9516  -17.1255 N   0  0  0  0  0  0  0  0  0  0  0  0
   23.3123  -19.0072  -16.1704 C   0  0  1  0  0  0  0  0  0  0  0  0
   22.1485  -18.5997  -15.2581 C   0  0  0  0  0  0  0  0  0  0  0  0
   21.2646  -17.7238  -16.0594 C   0  0  0  0  0  0  0  0  0  0  0  0
   19.9929  -18.0980  -16.4183 C   0  0  0  0  0  0  0  0  0  0  0  0
   19.1584  -17.2953  -17.1630 C   0  0  0  0  0  0  0  0  0  0  0  0
   19.6423  -16.0696  -17.5526 C   0  0  0  0  0  0  0  0  0  0  0  0
   20.9152  -15.6716  -17.2047 C   0  0  0  0  0  0  0  0  0  0  0  0
   21.7382  -16.4957  -16.4546 C   0  0  0  0  0  0  0  0  0  0  0  0
   24.3448  -19.7137  -15.3569 C   0  0  0  0  0  0  0  0  0  0  0  0
   24.1107  -20.8398  -14.8531 O   0  0  0  0  0  0  0  0  0  0  0  0
   28.4778  -19.8024  -16.0553 C   0  0  0  0  0  0  0  0  0  0  0  0
   28.0408  -19.5756  -14.6464 C   0  0  2  0  0  0  0  0  0  0  0  0
   28.9876  -20.2168  -13.6340 C   0  0  0  0  0  0  0  0  0  0  0  0
   26.6205  -19.9000  -14.3616 C   0  0  2  0  0  0  0  0  0  0  0  0
   25.6204  -19.2064  -15.0904 N   0  0  0  0  0  0  0  0  0  0  0  0
   26.3658  -19.6641  -12.9051 C   0  0  0  0  0  0  0  0  0  0  0  0
   26.3134  -18.4800  -12.4224 O   0  0  0  0  0  0  0  0  0  0  0  0
   22.1564  -20.8105  -10.3642 C   0  0  0  0  0  0  0  0  0  0  0  0
   23.5118  -20.2603  -10.7774 C   0  0  0  0  0  0  0  0  0  0  0  0
   24.6529  -20.8791  -10.0468 C   0  0  2  0  0  0  0  0  0  0  0  0
   24.5101  -20.5227   -8.5821 C   0  0  0  0  0  0  0  0  0  0  0  0
   26.0139  -20.4867  -10.5398 C   0  0  2  0  0  0  0  0  0  0  0  0
   26.1670  -20.7012  -11.9658 N   0  0  0  0  0  0  0  0  0  0  0  0
   27.1345  -21.0215   -9.7634 C   0  0  0  0  0  0  0  0  0  0  0  0
   27.4737  -20.6340   -8.6303 O   0  0  0  0  0  0  0  0  0  0  0  0
   27.9106  -22.0588  -10.3164 O   0  0  0  0  0  0  0  0  0  0  0  0
  2  1  1  6
  3  2  1  0
  4  3  1  0
  4  9  2  0
  5  4  1  0
  6  5  2  0
  6  7  1  0
  7  8  2  0
  8  9  1  0
 10  2  1  0
 11 10  2  0
 13 15  1  0
 13 12  1  6
 14 13  1  0
 15 16  1  6
 16 10  1  0
 17 18  2  0
 17 15  1  0
 19 20  1  0
 20 21  1  0
 21 23  1  0
 21 22  1  1
 23 24  1  6
 24 17  1  0
 25 27  1  0
 25 23  1  0
 26 25  2  0
M  END
$$$$
