FVI.pdb
     RDKit          3D

 27 27  0  0  1  0  0  0  0  0999 V2000
   35.1052  -27.9328    3.2930 N   0  0  0  0  0  0  0  0  0  0  0  0
   34.7644  -26.5642    3.6462 C   0  0  1  0  0  0  0  0  0  0  0  0
   33.2554  -26.5663    3.9211 C   0  0  0  0  0  0  0  0  0  0  0  0
   32.8641  -25.1599    4.1652 C   0  0  0  0  0  0  0  0  0  0  0  0
   32.8300  -24.6176    5.4264 C   0  0  0  0  0  0  0  0  0  0  0  0
   32.4685  -23.3118    5.6704 C   0  0  0  0  0  0  0  0  0  0  0  0
   32.1311  -22.5365    4.5873 C   0  0  0  0  0  0  0  0  0  0  0  0
   32.1577  -23.0580    3.3117 C   0  0  0  0  0  0  0  0  0  0  0  0
   32.5247  -24.3752    3.0892 C   0  0  0  0  0  0  0  0  0  0  0  0
   35.4879  -26.2080    4.9018 C   0  0  0  0  0  0  0  0  0  0  0  0
   35.5073  -26.9937    5.8811 O   0  0  0  0  0  0  0  0  0  0  0  0
   39.1304  -23.7630    7.1726 C   0  0  0  0  0  0  0  0  0  0  0  0
   38.3167  -24.0588    5.9569 C   0  0  2  0  0  0  0  0  0  0  0  0
   38.1451  -22.8343    5.0604 C   0  0  0  0  0  0  0  0  0  0  0  0
   37.0264  -24.7483    6.2083 C   0  0  2  0  0  0  0  0  0  0  0  0
   36.1849  -25.0115    5.0969 N   0  0  0  0  0  0  0  0  0  0  0  0
   36.2404  -23.9353    7.1897 C   0  0  0  0  0  0  0  0  0  0  0  0
   35.6329  -22.8671    6.8326 O   0  0  0  0  0  0  0  0  0  0  0  0
   32.5681  -24.8426    9.6032 C   0  0  0  0  0  0  0  0  0  0  0  0
   33.8936  -25.3386   10.1580 C   0  0  0  0  0  0  0  0  0  0  0  0
   34.7905  -24.2442   10.6235 C   0  0  2  0  0  0  0  0  0  0  0  0
   33.9822  -23.3397   11.5297 C   0  0  0  0  0  0  0  0  0  0  0  0
   35.4317  -23.4379    9.5336 C   0  0  2  0  0  0  0  0  0  0  0  0
   36.1066  -24.2699    8.5562 N   0  0  0  0  0  0  0  0  0  0  0  0
   36.2579  -22.3191    9.9916 C   0  0  0  0  0  0  0  0  0  0  0  0
   37.4643  -22.3911   10.2894 O   0  0  0  0  0  0  0  0  0  0  0  0
   35.6689  -21.0457   10.1159 O   0  0  0  0  0  0  0  0  0  0  0  0
  2  1  1  1
  3  2  1  0
  4  3  1  0
  4  9  2  0
  5  4  1  0
  6  5  2  0
  6  7  1  0
  7  8  2  0
  8  9  1  0
 10  2  1  0
 11 10  2  0
 13 15  1  0
 13 12  1  1
 14 13  1  0
 15 16  1  6
 16 10  1  0
 17 18  2  0
 17 15  1  0
 19 20  1  0
 20 21  1  0
 21 23  1  0
 21 22  1  1
 23 24  1  1
 24 17  1  0
 25 27  1  0
 25 23  1  0
 26 25  2  0
M  END
$$$$
