FVI.pdb
     RDKit          3D

 27 27  0  0  1  0  0  0  0  0999 V2000
   21.9037  -20.7512  -17.8990 N   0  0  0  0  0  0  0  0  0  0  0  0
   22.5918  -19.7955  -17.0463 C   0  0  1  0  0  0  0  0  0  0  0  0
   21.5210  -19.2254  -16.1075 C   0  0  0  0  0  0  0  0  0  0  0  0
   20.7687  -18.2136  -16.8827 C   0  0  0  0  0  0  0  0  0  0  0  0
   21.3807  -17.1248  -17.4537 C   0  0  0  0  0  0  0  0  0  0  0  0
   20.6957  -16.1750  -18.1775 C   0  0  0  0  0  0  0  0  0  0  0  0
   19.3398  -16.3462  -18.3209 C   0  0  0  0  0  0  0  0  0  0  0  0
   18.7030  -17.4307  -17.7573 C   0  0  0  0  0  0  0  0  0  0  0  0
   19.4122  -18.3747  -17.0327 C   0  0  0  0  0  0  0  0  0  0  0  0
   23.6069  -20.5318  -16.2374 C   0  0  0  0  0  0  0  0  0  0  0  0
   23.3106  -21.5987  -15.6451 O   0  0  0  0  0  0  0  0  0  0  0  0
   28.3045  -21.6202  -15.1137 C   0  0  0  0  0  0  0  0  0  0  0  0
   27.3135  -20.8156  -15.8869 C   0  0  2  0  0  0  0  0  0  0  0  0
   27.7878  -19.3836  -16.1261 C   0  0  0  0  0  0  0  0  0  0  0  0
   25.9206  -20.8612  -15.3757 C   0  0  2  0  0  0  0  0  0  0  0  0
   24.9321  -20.1177  -16.0703 N   0  0  0  0  0  0  0  0  0  0  0  0
   25.9246  -20.3926  -13.9536 C   0  0  0  0  0  0  0  0  0  0  0  0
   26.0005  -19.1484  -13.6637 O   0  0  0  0  0  0  0  0  0  0  0  0
   22.2632  -20.3597  -10.5209 C   0  0  0  0  0  0  0  0  0  0  0  0
   23.5715  -20.1546  -11.2673 C   0  0  0  0  0  0  0  0  0  0  0  0
   24.7098  -20.9271  -10.6961 C   0  0  2  0  0  0  0  0  0  0  0  0
   24.9207  -20.4533   -9.2735 C   0  0  0  0  0  0  0  0  0  0  0  0
   25.9944  -20.8321  -11.4642 C   0  0  2  0  0  0  0  0  0  0  0  0
   25.8466  -21.2612  -12.8415 N   0  0  0  0  0  0  0  0  0  0  0  0
   27.1578  -21.4306  -10.8066 C   0  0  0  0  0  0  0  0  0  0  0  0
   27.6505  -22.5389  -11.0862 O   0  0  0  0  0  0  0  0  0  0  0  0
   27.7929  -20.7194   -9.7697 O   0  0  0  0  0  0  0  0  0  0  0  0
  2  1  1  6
  3  2  1  0
  4  3  1  0
  4  9  2  0
  5  4  1  0
  6  5  2  0
  6  7  1  0
  7  8  2  0
  8  9  1  0
 10  2  1  0
 11 10  2  0
 13 15  1  0
 13 12  1  1
 14 13  1  0
 15 16  1  6
 16 10  1  0
 17 18  2  0
 17 15  1  0
 19 20  1  0
 20 21  1  0
 21 23  1  0
 21 22  1  1
 23 24  1  6
 24 17  1  0
 25 27  1  0
 25 23  1  0
 26 25  2  0
M  END
$$$$
