FVI.pdb
     RDKit          3D

 27 27  0  0  1  0  0  0  0  0999 V2000
   28.4746  -20.3394  -15.5456 N   0  0  0  0  0  0  0  0  0  0  0  0
   27.7315  -19.5244  -14.5982 C   0  0  1  0  0  0  0  0  0  0  0  0
   26.7757  -18.6701  -15.4404 C   0  0  0  0  0  0  0  0  0  0  0  0
   27.5436  -17.4870  -15.8889 C   0  0  0  0  0  0  0  0  0  0  0  0
   28.1244  -17.4188  -17.1315 C   0  0  0  0  0  0  0  0  0  0  0  0
   28.8415  -16.3261  -17.5639 C   0  0  0  0  0  0  0  0  0  0  0  0
   28.9678  -15.2690  -16.6950 C   0  0  0  0  0  0  0  0  0  0  0  0
   28.3940  -15.3138  -15.4427 C   0  0  0  0  0  0  0  0  0  0  0  0
   27.6764  -16.4239  -15.0282 C   0  0  0  0  0  0  0  0  0  0  0  0
   26.9320  -20.4310  -13.7230 C   0  0  0  0  0  0  0  0  0  0  0  0
   26.4828  -21.5193  -14.1595 O   0  0  0  0  0  0  0  0  0  0  0  0
   24.8026  -21.6468   -9.3802 C   0  0  0  0  0  0  0  0  0  0  0  0
   25.8228  -20.8620  -10.1355 C   0  0  2  0  0  0  0  0  0  0  0  0
   25.9495  -19.4288   -9.6232 C   0  0  0  0  0  0  0  0  0  0  0  0
   25.6983  -20.9144  -11.6138 C   0  0  2  0  0  0  0  0  0  0  0  0
   26.6206  -20.1627  -12.3864 N   0  0  0  0  0  0  0  0  0  0  0  0
   24.3203  -20.4633  -11.9873 C   0  0  0  0  0  0  0  0  0  0  0  0
   24.1263  -19.3573  -12.6012 O   0  0  0  0  0  0  0  0  0  0  0  0
   20.9269  -21.0476  -16.1396 C   0  0  0  0  0  0  0  0  0  0  0  0
   20.7427  -20.9665  -14.6329 C   0  0  0  0  0  0  0  0  0  0  0  0
   22.0021  -21.1822  -13.8671 C   0  0  2  0  0  0  0  0  0  0  0  0
   22.5044  -22.5740  -14.1887 C   0  0  0  0  0  0  0  0  0  0  0  0
   21.8830  -21.0102  -12.3821 C   0  0  2  0  0  0  0  0  0  0  0  0
   23.1492  -21.2010  -11.7015 N   0  0  0  0  0  0  0  0  0  0  0  0
   20.7865  -21.7519  -11.7561 C   0  0  0  0  0  0  0  0  0  0  0  0
   19.5751  -21.5136  -11.9141 O   0  0  0  0  0  0  0  0  0  0  0  0
   21.0951  -22.8275  -10.9005 O   0  0  0  0  0  0  0  0  0  0  0  0
  2  1  1  6
  3  2  1  0
  4  3  1  0
  4  9  2  0
  5  4  1  0
  6  5  2  0
  6  7  1  0
  7  8  2  0
  8  9  1  0
 10  2  1  0
 11 10  2  0
 13 15  1  0
 13 12  1  1
 14 13  1  0
 15 16  1  6
 16 10  1  0
 17 18  2  0
 17 15  1  0
 19 20  1  0
 20 21  1  0
 21 23  1  0
 21 22  1  1
 23 24  1  1
 24 17  1  0
 25 27  1  0
 25 23  1  0
 26 25  2  0
M  END
$$$$
