FVI.pdb
     RDKit          3D

 27 27  0  0  1  0  0  0  0  0999 V2000
   28.4858  -20.8244   -9.0836 N   0  0  0  0  0  0  0  0  0  0  0  0
   27.0890  -20.4873   -8.8618 C   0  0  1  0  0  0  0  0  0  0  0  0
   27.0964  -19.2031   -8.0231 C   0  0  0  0  0  0  0  0  0  0  0  0
   27.5805  -19.5766   -6.6752 C   0  0  0  0  0  0  0  0  0  0  0  0
   28.7666  -19.1067   -6.1669 C   0  0  0  0  0  0  0  0  0  0  0  0
   29.2310  -19.4442   -4.9156 C   0  0  0  0  0  0  0  0  0  0  0  0
   28.4551  -20.2905   -4.1607 C   0  0  0  0  0  0  0  0  0  0  0  0
   27.2608  -20.7753   -4.6489 C   0  0  0  0  0  0  0  0  0  0  0  0
   26.8126  -20.4224   -5.9113 C   0  0  0  0  0  0  0  0  0  0  0  0
   26.4580  -20.2022  -10.1838 C   0  0  0  0  0  0  0  0  0  0  0  0
   27.0802  -19.5719  -11.0739 O   0  0  0  0  0  0  0  0  0  0  0  0
   24.7381  -22.8378  -12.6542 C   0  0  0  0  0  0  0  0  0  0  0  0
   25.0764  -21.4038  -12.8921 C   0  0  2  0  0  0  0  0  0  0  0  0
   26.5512  -21.2039  -13.2352 C   0  0  0  0  0  0  0  0  0  0  0  0
   24.6175  -20.4600  -11.8423 C   0  0  2  0  0  0  0  0  0  0  0  0
   25.1643  -20.5956  -10.5403 N   0  0  0  0  0  0  0  0  0  0  0  0
   23.1294  -20.5741  -11.7233 C   0  0  0  0  0  0  0  0  0  0  0  0
   22.5861  -21.1887  -10.7410 O   0  0  0  0  0  0  0  0  0  0  0  0
   20.0202  -16.3095  -12.7364 C   0  0  0  0  0  0  0  0  0  0  0  0
   20.6032  -17.6084  -12.2036 C   0  0  0  0  0  0  0  0  0  0  0  0
   20.1064  -18.8193  -12.9147 C   0  0  2  0  0  0  0  0  0  0  0  0
   18.6167  -18.9226  -12.6636 C   0  0  0  0  0  0  0  0  0  0  0  0
   20.7808  -20.1038  -12.5347 C   0  0  2  0  0  0  0  0  0  0  0  0
   22.2235  -20.0274  -12.6602 N   0  0  0  0  0  0  0  0  0  0  0  0
   20.2216  -21.3068  -13.1545 C   0  0  0  0  0  0  0  0  0  0  0  0
   20.5391  -21.7537  -14.2719 O   0  0  0  0  0  0  0  0  0  0  0  0
   19.2429  -22.0395  -12.4548 O   0  0  0  0  0  0  0  0  0  0  0  0
  2  1  1  6
  3  2  1  0
  4  3  1  0
  4  9  2  0
  5  4  1  0
  6  5  2  0
  6  7  1  0
  7  8  2  0
  8  9  1  0
 10  2  1  0
 11 10  2  0
 13 15  1  0
 13 12  1  1
 14 13  1  0
 15 16  1  1
 16 10  1  0
 17 18  2  0
 17 15  1  0
 19 20  1  0
 20 21  1  0
 21 23  1  0
 21 22  1  1
 23 24  1  6
 24 17  1  0
 25 27  1  0
 25 23  1  0
 26 25  2  0
M  END
$$$$
