FVI.pdb
     RDKit          3D

 27 27  0  0  1  0  0  0  0  0999 V2000
   20.9729  -15.2283  -17.1861 N   0  0  0  0  0  0  0  0  0  0  0  0
   20.2307  -14.0099  -17.4661 C   0  0  1  0  0  0  0  0  0  0  0  0
   18.8962  -14.1528  -16.7234 C   0  0  0  0  0  0  0  0  0  0  0  0
   18.0637  -15.0842  -17.5171 C   0  0  0  0  0  0  0  0  0  0  0  0
   17.8689  -16.3916  -17.1443 C   0  0  0  0  0  0  0  0  0  0  0  0
   17.0979  -17.2705  -17.8711 C   0  0  0  0  0  0  0  0  0  0  0  0
   16.5072  -16.7947  -19.0169 C   0  0  0  0  0  0  0  0  0  0  0  0
   16.6878  -15.4866  -19.4119 C   0  0  0  0  0  0  0  0  0  0  0  0
   17.4681  -14.6192  -18.6650 C   0  0  0  0  0  0  0  0  0  0  0  0
   20.9857  -12.8568  -16.8939 C   0  0  0  0  0  0  0  0  0  0  0  0
   21.6682  -12.9868  -15.8480 O   0  0  0  0  0  0  0  0  0  0  0  0
   22.3277   -9.2457  -19.0605 C   0  0  0  0  0  0  0  0  0  0  0  0
   22.8275   -9.9253  -17.8294 C   0  0  2  0  0  0  0  0  0  0  0  0
   23.9320  -10.9360  -18.1313 C   0  0  0  0  0  0  0  0  0  0  0  0
   21.7781  -10.4960  -16.9481 C   0  0  2  0  0  0  0  0  0  0  0  0
   21.0023  -11.5732  -17.4485 N   0  0  0  0  0  0  0  0  0  0  0  0
   20.8353   -9.3977  -16.5651 C   0  0  0  0  0  0  0  0  0  0  0  0
   19.8557   -9.0689  -17.3201 O   0  0  0  0  0  0  0  0  0  0  0  0
   16.9117   -6.6881  -14.6574 C   0  0  0  0  0  0  0  0  0  0  0  0
   17.9878   -7.0129  -13.6341 C   0  0  0  0  0  0  0  0  0  0  0  0
   18.9408   -8.0647  -14.0863 C   0  0  2  0  0  0  0  0  0  0  0  0
   19.5341   -8.7106  -12.8520 C   0  0  0  0  0  0  0  0  0  0  0  0
   20.0363   -7.5862  -14.9918 C   0  0  2  0  0  0  0  0  0  0  0  0
   20.9444   -8.6518  -15.3697 N   0  0  0  0  0  0  0  0  0  0  0  0
   20.7346   -6.3811  -14.5399 C   0  0  0  0  0  0  0  0  0  0  0  0
   20.2440   -5.2378  -14.5014 O   0  0  0  0  0  0  0  0  0  0  0  0
   22.0707   -6.4916  -14.1077 O   0  0  0  0  0  0  0  0  0  0  0  0
  2  1  1  1
  3  2  1  0
  4  3  1  0
  4  9  2  0
  5  4  1  0
  6  5  2  0
  6  7  1  0
  7  8  2  0
  8  9  1  0
 10  2  1  0
 11 10  2  0
 13 15  1  0
 13 12  1  6
 14 13  1  0
 15 16  1  6
 16 10  1  0
 17 18  2  0
 17 15  1  0
 19 20  1  0
 20 21  1  0
 21 23  1  0
 21 22  1  1
 23 24  1  1
 24 17  1  0
 25 27  1  0
 25 23  1  0
 26 25  2  0
M  END
$$$$
