FVI.pdb
     RDKit          3D

 27 27  0  0  1  0  0  0  0  0999 V2000
   25.5471  -20.5929  -13.9429 N   0  0  0  0  0  0  0  0  0  0  0  0
   26.5978  -20.7446  -12.9495 C   0  0  1  0  0  0  0  0  0  0  0  0
   27.8056  -19.9735  -13.4966 C   0  0  0  0  0  0  0  0  0  0  0  0
   28.4336  -20.8361  -14.5223 C   0  0  0  0  0  0  0  0  0  0  0  0
   28.1910  -20.6735  -15.8643 C   0  0  0  0  0  0  0  0  0  0  0  0
   28.7668  -21.4670  -16.8307 C   0  0  0  0  0  0  0  0  0  0  0  0
   29.6187  -22.4592  -16.4088 C   0  0  0  0  0  0  0  0  0  0  0  0
   29.8779  -22.6422  -15.0675 C   0  0  0  0  0  0  0  0  0  0  0  0
   29.2873  -21.8317  -14.1118 C   0  0  0  0  0  0  0  0  0  0  0  0
   26.1431  -20.1020  -11.6816 C   0  0  0  0  0  0  0  0  0  0  0  0
   25.1896  -19.2849  -11.6775 O   0  0  0  0  0  0  0  0  0  0  0  0
   24.6264  -21.7703   -8.4832 C   0  0  0  0  0  0  0  0  0  0  0  0
   24.7744  -20.3367   -8.8707 C   0  0  2  0  0  0  0  0  0  0  0  0
   23.7757  -19.9200   -9.9484 C   0  0  0  0  0  0  0  0  0  0  0  0
   26.1569  -19.9066   -9.1985 C   0  0  2  0  0  0  0  0  0  0  0  0
   26.7151  -20.3411  -10.4282 N   0  0  0  0  0  0  0  0  0  0  0  0
   27.0661  -20.3648   -8.1007 C   0  0  0  0  0  0  0  0  0  0  0  0
   27.6049  -21.5254   -8.1245 O   0  0  0  0  0  0  0  0  0  0  0  0
   29.9109  -16.7066   -5.0751 C   0  0  0  0  0  0  0  0  0  0  0  0
   29.6344  -18.0136   -5.8004 C   0  0  0  0  0  0  0  0  0  0  0  0
   28.7561  -18.9434   -5.0368 C   0  0  2  0  0  0  0  0  0  0  0  0
   29.5686  -19.5080   -3.8906 C   0  0  0  0  0  0  0  0  0  0  0  0
   28.1577  -20.0596   -5.8400 C   0  0  2  0  0  0  0  0  0  0  0  0
   27.3974  -19.5756   -6.9760 N   0  0  0  0  0  0  0  0  0  0  0  0
   27.4337  -21.0668   -5.0619 C   0  0  0  0  0  0  0  0  0  0  0  0
   27.9438  -22.0742   -4.5383 O   0  0  0  0  0  0  0  0  0  0  0  0
   26.0465  -20.9114   -4.8729 O   0  0  0  0  0  0  0  0  0  0  0  0
  2  1  1  6
  3  2  1  0
  4  3  1  0
  4  9  2  0
  5  4  1  0
  6  5  2  0
  6  7  1  0
  7  8  2  0
  8  9  1  0
 10  2  1  0
 11 10  2  0
 13 15  1  0
 13 12  1  6
 14 13  1  0
 15 16  1  6
 16 10  1  0
 17 18  2  0
 17 15  1  0
 19 20  1  0
 20 21  1  0
 21 23  1  0
 21 22  1  1
 23 24  1  6
 24 17  1  0
 25 27  1  0
 25 23  1  0
 26 25  2  0
M  END
$$$$
