FVI.pdb
     RDKit          3D

 27 27  0  0  1  0  0  0  0  0999 V2000
   19.9194  -19.8991  -15.4002 N   0  0  0  0  0  0  0  0  0  0  0  0
   21.1755  -19.2381  -15.0853 C   0  0  1  0  0  0  0  0  0  0  0  0
   20.7952  -17.8629  -14.5223 C   0  0  0  0  0  0  0  0  0  0  0  0
   20.5725  -16.9730  -15.6839 C   0  0  0  0  0  0  0  0  0  0  0  0
   21.6071  -16.5023  -16.4547 C   0  0  0  0  0  0  0  0  0  0  0  0
   21.4170  -15.6742  -17.5379 C   0  0  0  0  0  0  0  0  0  0  0  0
   20.1253  -15.3168  -17.8413 C   0  0  0  0  0  0  0  0  0  0  0  0
   19.0704  -15.7763  -17.0826 C   0  0  0  0  0  0  0  0  0  0  0  0
   19.2847  -16.6091  -15.9965 C   0  0  0  0  0  0  0  0  0  0  0  0
   21.8680  -20.0249  -14.0230 C   0  0  0  0  0  0  0  0  0  0  0  0
   21.2354  -20.4728  -13.0351 O   0  0  0  0  0  0  0  0  0  0  0  0
   24.8615  -23.5044  -12.6966 C   0  0  0  0  0  0  0  0  0  0  0  0
   24.3201  -22.5389  -13.6977 C   0  0  2  0  0  0  0  0  0  0  0  0
   25.2588  -22.3477  -14.8872 C   0  0  0  0  0  0  0  0  0  0  0  0
   23.8548  -21.2428  -13.1434 C   0  0  2  0  0  0  0  0  0  0  0  0
   23.2338  -20.3248  -14.0290 N   0  0  0  0  0  0  0  0  0  0  0  0
   25.0257  -20.5492  -12.5191 C   0  0  0  0  0  0  0  0  0  0  0  0
   25.5416  -19.5059  -13.0512 O   0  0  0  0  0  0  0  0  0  0  0  0
   26.1246  -20.3183   -7.0066 C   0  0  0  0  0  0  0  0  0  0  0  0
   26.0064  -19.9795   -8.4837 C   0  0  0  0  0  0  0  0  0  0  0  0
   27.0342  -20.6463   -9.3311 C   0  0  2  0  0  0  0  0  0  0  0  0
   28.3939  -20.1629   -8.8727 C   0  0  0  0  0  0  0  0  0  0  0  0
   26.8831  -20.4281  -10.8072 C   0  0  2  0  0  0  0  0  0  0  0  0
   25.6432  -20.9765  -11.3218 N   0  0  0  0  0  0  0  0  0  0  0  0
   28.0461  -20.8043  -11.6136 C   0  0  0  0  0  0  0  0  0  0  0  0
   28.3568  -21.9678  -11.9282 O   0  0  0  0  0  0  0  0  0  0  0  0
   28.9019  -19.7902  -12.0863 O   0  0  0  0  0  0  0  0  0  0  0  0
  2  1  1  1
  3  2  1  0
  4  3  1  0
  4  9  2  0
  5  4  1  0
  6  5  2  0
  6  7  1  0
  7  8  2  0
  8  9  1  0
 10  2  1  0
 11 10  2  0
 13 15  1  0
 13 12  1  1
 14 13  1  0
 15 16  1  6
 16 10  1  0
 17 18  2  0
 17 15  1  0
 19 20  1  0
 20 21  1  0
 21 23  1  0
 21 22  1  1
 23 24  1  6
 24 17  1  0
 25 27  1  0
 25 23  1  0
 26 25  2  0
M  END
$$$$
