FVI.pdb
     RDKit          3D

 27 27  0  0  1  0  0  0  0  0999 V2000
   24.2821  -18.3260  -18.4075 N   0  0  0  0  0  0  0  0  0  0  0  0
   25.2001  -18.8417  -17.4049 C   0  0  1  0  0  0  0  0  0  0  0  0
   26.3133  -17.7941  -17.2783 C   0  0  0  0  0  0  0  0  0  0  0  0
   27.1379  -17.8976  -18.5029 C   0  0  0  0  0  0  0  0  0  0  0  0
   27.3123  -16.8388  -19.3600 C   0  0  0  0  0  0  0  0  0  0  0  0
   28.0758  -16.9185  -20.5028 C   0  0  0  0  0  0  0  0  0  0  0  0
   28.6803  -18.1218  -20.7763 C   0  0  0  0  0  0  0  0  0  0  0  0
   28.5203  -19.1990  -19.9315 C   0  0  0  0  0  0  0  0  0  0  0  0
   27.7472  -19.0964  -18.7865 C   0  0  0  0  0  0  0  0  0  0  0  0
   24.4722  -18.9386  -16.1057 C   0  0  0  0  0  0  0  0  0  0  0  0
   23.8509  -17.9526  -15.6383 O   0  0  0  0  0  0  0  0  0  0  0  0
   22.4400  -22.2852  -13.5630 C   0  0  0  0  0  0  0  0  0  0  0  0
   22.4133  -20.8822  -14.0709 C   0  0  2  0  0  0  0  0  0  0  0  0
   21.6902  -20.7629  -15.4109 C   0  0  0  0  0  0  0  0  0  0  0  0
   23.7242  -20.1858  -14.0834 C   0  0  2  0  0  0  0  0  0  0  0  0
   24.4167  -20.0928  -15.3181 N   0  0  0  0  0  0  0  0  0  0  0  0
   24.6301  -20.8682  -13.1058 C   0  0  0  0  0  0  0  0  0  0  0  0
   24.9533  -22.0985  -13.2457 O   0  0  0  0  0  0  0  0  0  0  0  0
   29.5285  -20.0337  -12.1818 C   0  0  0  0  0  0  0  0  0  0  0  0
   28.1234  -20.6128  -12.2146 C   0  0  0  0  0  0  0  0  0  0  0  0
   27.3906  -20.4693  -10.9257 C   0  0  2  0  0  0  0  0  0  0  0  0
   28.1521  -21.2473   -9.8733 C   0  0  0  0  0  0  0  0  0  0  0  0
   25.9578  -20.9118  -10.9540 C   0  0  2  0  0  0  0  0  0  0  0  0
   25.1896  -20.2285  -11.9767 N   0  0  0  0  0  0  0  0  0  0  0  0
   25.2849  -20.9233   -9.6535 C   0  0  0  0  0  0  0  0  0  0  0  0
   24.4643  -20.0736   -9.2612 O   0  0  0  0  0  0  0  0  0  0  0  0
   25.5681  -21.9671   -8.7511 O   0  0  0  0  0  0  0  0  0  0  0  0
  2  1  1  6
  3  2  1  0
  4  3  1  0
  4  9  2  0
  5  4  1  0
  6  5  2  0
  6  7  1  0
  7  8  2  0
  8  9  1  0
 10  2  1  0
 11 10  2  0
 13 15  1  0
 13 12  1  6
 14 13  1  0
 15 16  1  6
 16 10  1  0
 17 18  2  0
 17 15  1  0
 19 20  1  0
 20 21  1  0
 21 23  1  0
 21 22  1  1
 23 24  1  6
 24 17  1  0
 25 27  1  0
 25 23  1  0
 26 25  2  0
M  END
$$$$
