FVI.pdb
     RDKit          3D

 27 27  0  0  1  0  0  0  0  0999 V2000
   25.2470  -19.4600  -18.8392 N   0  0  0  0  0  0  0  0  0  0  0  0
   24.9859  -18.8108  -17.5647 C   0  0  1  0  0  0  0  0  0  0  0  0
   23.4591  -18.7424  -17.4349 C   0  0  0  0  0  0  0  0  0  0  0  0
   23.0236  -17.5254  -18.1558 C   0  0  0  0  0  0  0  0  0  0  0  0
   23.1806  -16.2667  -17.6293 C   0  0  0  0  0  0  0  0  0  0  0  0
   22.7811  -15.1250  -18.2867 C   0  0  0  0  0  0  0  0  0  0  0  0
   22.2021  -15.2777  -19.5235 C   0  0  0  0  0  0  0  0  0  0  0  0
   22.0337  -16.5305  -20.0730 C   0  0  0  0  0  0  0  0  0  0  0  0
   22.4433  -17.6662  -19.3936 C   0  0  0  0  0  0  0  0  0  0  0  0
   25.5292  -19.6752  -16.4762 C   0  0  0  0  0  0  0  0  0  0  0  0
   25.4291  -20.9256  -16.5336 O   0  0  0  0  0  0  0  0  0  0  0  0
   28.8580  -20.8404  -13.1827 C   0  0  0  0  0  0  0  0  0  0  0  0
   28.2726  -19.9722  -14.2461 C   0  0  2  0  0  0  0  0  0  0  0  0
   28.8022  -18.5410  -14.1845 C   0  0  0  0  0  0  0  0  0  0  0  0
   26.7928  -20.0125  -14.3563 C   0  0  2  0  0  0  0  0  0  0  0  0
   26.1756  -19.1911  -15.3345 N   0  0  0  0  0  0  0  0  0  0  0  0
   26.2106  -19.6483  -13.0257 C   0  0  0  0  0  0  0  0  0  0  0  0
   25.6365  -18.5202  -12.8374 O   0  0  0  0  0  0  0  0  0  0  0  0
   21.5007  -19.8260  -10.6047 C   0  0  0  0  0  0  0  0  0  0  0  0
   22.9256  -20.0235  -10.1132 C   0  0  0  0  0  0  0  0  0  0  0  0
   23.9028  -20.2777  -11.2084 C   0  0  2  0  0  0  0  0  0  0  0  0
   23.4767  -21.5435  -11.9218 C   0  0  0  0  0  0  0  0  0  0  0  0
   25.3335  -20.3910  -10.7731 C   0  0  2  0  0  0  0  0  0  0  0  0
   26.2449  -20.4969  -11.8960 N   0  0  0  0  0  0  0  0  0  0  0  0
   25.5910  -21.3947   -9.7385 C   0  0  0  0  0  0  0  0  0  0  0  0
   25.1482  -21.3585   -8.5758 O   0  0  0  0  0  0  0  0  0  0  0  0
   26.4019  -22.5026  -10.0534 O   0  0  0  0  0  0  0  0  0  0  0  0
  2  1  1  6
  3  2  1  0
  4  3  1  0
  4  9  2  0
  5  4  1  0
  6  5  2  0
  6  7  1  0
  7  8  2  0
  8  9  1  0
 10  2  1  0
 11 10  2  0
 13 15  1  0
 13 12  1  1
 14 13  1  0
 15 16  1  6
 16 10  1  0
 17 18  2  0
 17 15  1  0
 19 20  1  0
 20 21  1  0
 21 23  1  0
 21 22  1  1
 23 24  1  6
 24 17  1  0
 25 27  1  0
 25 23  1  0
 26 25  2  0
M  END
$$$$
