KHP.pdb
     RDKit          3D

 27 28  0  0  1  0  0  0  0  0999 V2000
    9.6451  -15.9732   20.2619 N   0  0  0  0  0  0  0  0  0  0  0  0
    9.1717  -14.6667   20.5001 C   0  0  1  0  0  0  0  0  0  0  0  0
    8.4629  -14.0373   19.3856 C   0  0  0  0  0  0  0  0  0  0  0  0
    8.5802  -14.4529   18.0101 C   0  0  0  0  0  0  0  0  0  0  0  0
    8.1591  -13.7384   16.8074 C   0  0  0  0  0  0  0  0  0  0  0  0
    8.2460  -14.3939   15.4872 C   0  0  0  0  0  0  0  0  0  0  0  0
    7.7149  -13.5321   14.4410 N   0  0  0  0  0  0  0  0  0  0  0  0
    8.2878  -14.6523   21.7426 C   0  0  0  0  0  0  0  0  0  0  0  0
    7.6201  -13.6348   22.0449 O   0  0  0  0  0  0  0  0  0  0  0  0
    8.2211  -15.7868   22.5530 N   0  0  0  0  0  0  0  0  0  0  0  0
    7.5488  -15.8152   23.8501 C   0  0  1  0  0  0  0  0  0  0  0  0
    7.4508  -17.3118   24.1896 C   0  0  0  0  0  0  0  0  0  0  0  0
    6.4262  -17.8850   23.3022 C   0  0  0  0  0  0  0  0  0  0  0  0
    5.5188  -17.2411   22.4924 C   0  0  0  0  0  0  0  0  0  0  0  0
    4.7640  -18.1421   21.8492 N   0  0  0  0  0  0  0  0  0  0  0  0
    5.1781  -19.3534   22.2381 C   0  0  0  0  0  0  0  0  0  0  0  0
    6.1969  -19.1950   23.1287 N   0  0  0  0  0  0  0  0  0  0  0  0
    8.4324  -15.1311   24.8205 C   0  0  0  0  0  0  0  0  0  0  0  0
    9.6761  -15.1070   24.6664 O   0  0  0  0  0  0  0  0  0  0  0  0
    7.9332  -14.4542   25.9936 N   0  0  0  0  0  0  0  0  0  0  0  0
    6.5546  -14.3566   26.4237 C   0  0  0  0  0  0  0  0  0  0  0  0
    6.4583  -12.8765   26.7748 C   0  0  0  0  0  0  0  0  0  0  0  0
    7.8385  -12.5329   27.2800 C   0  0  0  0  0  0  0  0  0  0  0  0
    8.7043  -13.7285   26.9763 C   0  0  1  0  0  0  0  0  0  0  0  0
    8.8452  -14.5218   28.2195 C   0  0  0  0  0  0  0  0  0  0  0  0
    8.1602  -15.5557   28.4179 O   0  0  0  0  0  0  0  0  0  0  0  0
    9.7334  -14.1736   29.2291 O   0  0  0  0  0  0  0  0  0  0  0  0
  2  1  1  6
  3  2  1  0
  4  5  1  0
  4  3  1  0
  5  6  1  0
  7  6  1  0
  8  9  2  0
  8  2  1  0
 10  8  1  0
 11 10  1  0
 11 12  1  1
 12 13  1  0
 13 17  1  0
 13 14  2  0
 14 15  1  0
 16 15  1  0
 17 16  2  0
 18 11  1  0
 19 18  2  0
 20 24  1  0
 20 18  1  0
 21 22  1  0
 21 20  1  0
 22 23  1  0
 23 24  1  0
 25 27  1  0
 24 25  1  1
 26 25  2  0
M  END
$$$$
