KHP.pdb
     RDKit          3D

 27 28  0  0  1  0  0  0  0  0999 V2000
   11.4400  -16.2725   20.0303 N   0  0  0  0  0  0  0  0  0  0  0  0
   10.6520  -16.9193   21.0042 C   0  0  1  0  0  0  0  0  0  0  0  0
   11.1574  -18.2101   21.4722 C   0  0  0  0  0  0  0  0  0  0  0  0
   12.5338  -18.4674   21.8152 C   0  0  0  0  0  0  0  0  0  0  0  0
   13.1583  -19.7402   22.1678 C   0  0  0  0  0  0  0  0  0  0  0  0
   14.5831  -19.7852   22.5529 C   0  0  0  0  0  0  0  0  0  0  0  0
   15.0167  -21.1548   22.7881 N   0  0  0  0  0  0  0  0  0  0  0  0
   10.4329  -15.9928   22.1953 C   0  0  0  0  0  0  0  0  0  0  0  0
   11.3561  -15.2547   22.6141 O   0  0  0  0  0  0  0  0  0  0  0  0
    9.1883  -15.9660   22.8267 N   0  0  0  0  0  0  0  0  0  0  0  0
    8.8825  -15.1154   23.9749 C   0  0  1  0  0  0  0  0  0  0  0  0
    7.3485  -15.0095   23.9658 C   0  0  0  0  0  0  0  0  0  0  0  0
    6.9688  -14.2036   25.1372 C   0  0  0  0  0  0  0  0  0  0  0  0
    6.8040  -12.8411   25.2384 C   0  0  0  0  0  0  0  0  0  0  0  0
    6.4535  -12.5174   26.4904 N   0  0  0  0  0  0  0  0  0  0  0  0
    6.3923  -13.6562   27.1900 C   0  0  0  0  0  0  0  0  0  0  0  0
    6.7083  -14.6892   26.3599 N   0  0  0  0  0  0  0  0  0  0  0  0
    9.3350  -15.8321   25.1882 C   0  0  0  0  0  0  0  0  0  0  0  0
    9.5744  -17.0623   25.1683 O   0  0  0  0  0  0  0  0  0  0  0  0
    9.5297  -15.1764   26.4592 N   0  0  0  0  0  0  0  0  0  0  0  0
    9.0524  -13.8661   26.8467 C   0  0  0  0  0  0  0  0  0  0  0  0
   10.2967  -13.2804   27.5041 C   0  0  0  0  0  0  0  0  0  0  0  0
   10.9765  -14.4768   28.1243 C   0  0  0  0  0  0  0  0  0  0  0  0
   10.2467  -15.6885   27.6041 C   0  0  1  0  0  0  0  0  0  0  0  0
    9.3025  -16.1414   28.6520 C   0  0  0  0  0  0  0  0  0  0  0  0
    8.0609  -16.0088   28.5166 O   0  0  0  0  0  0  0  0  0  0  0  0
    9.7290  -16.7335   29.8340 O   0  0  0  0  0  0  0  0  0  0  0  0
  2  1  1  6
  3  2  1  0
  4  5  1  0
  4  3  1  0
  5  6  1  0
  7  6  1  0
  8  9  2  0
  8  2  1  0
 10  8  1  0
 11 10  1  0
 11 12  1  1
 12 13  1  0
 13 17  1  0
 13 14  2  0
 14 15  1  0
 16 15  1  0
 17 16  2  0
 18 11  1  0
 19 18  2  0
 20 24  1  0
 20 18  1  0
 21 22  1  0
 21 20  1  0
 22 23  1  0
 23 24  1  0
 25 27  1  0
 24 25  1  1
 26 25  2  0
M  END
$$$$
