KHP.pdb
     RDKit          3D

 27 28  0  0  1  0  0  0  0  0999 V2000
    6.7340  -16.1869   19.5311 N   0  0  0  0  0  0  0  0  0  0  0  0
    7.3648  -15.2225   20.3435 C   0  0  1  0  0  0  0  0  0  0  0  0
    7.1135  -13.8274   19.9810 C   0  0  0  0  0  0  0  0  0  0  0  0
    7.6279  -13.1914   18.7939 C   0  0  0  0  0  0  0  0  0  0  0  0
    8.2174  -13.8166   17.6125 C   0  0  0  0  0  0  0  0  0  0  0  0
    8.6006  -12.9907   16.4500 C   0  0  0  0  0  0  0  0  0  0  0  0
    9.0826  -13.8216   15.3562 N   0  0  0  0  0  0  0  0  0  0  0  0
    6.9899  -15.4475   21.8043 C   0  0  0  0  0  0  0  0  0  0  0  0
    5.7946  -15.3855   22.1783 O   0  0  0  0  0  0  0  0  0  0  0  0
    7.9906  -15.7267   22.7365 N   0  0  0  0  0  0  0  0  0  0  0  0
    7.7223  -16.0855   24.1274 C   0  0  1  0  0  0  0  0  0  0  0  0
    8.0113  -17.5946   24.1883 C   0  0  0  0  0  0  0  0  0  0  0  0
    7.8734  -17.9996   25.5965 C   0  0  0  0  0  0  0  0  0  0  0  0
    6.7515  -18.4184   26.2746 C   0  0  0  0  0  0  0  0  0  0  0  0
    7.0656  -18.6913   27.5482 N   0  0  0  0  0  0  0  0  0  0  0  0
    8.3742  -18.4521   27.6919 C   0  0  0  0  0  0  0  0  0  0  0  0
    8.8685  -18.0282   26.4952 N   0  0  0  0  0  0  0  0  0  0  0  0
    8.6918  -15.3484   24.9684 C   0  0  0  0  0  0  0  0  0  0  0  0
    9.9106  -15.3099   24.6782 O   0  0  0  0  0  0  0  0  0  0  0  0
    8.3092  -14.6332   26.1623 N   0  0  0  0  0  0  0  0  0  0  0  0
    6.9784  -14.5145   26.7190 C   0  0  0  0  0  0  0  0  0  0  0  0
    6.9205  -13.0238   27.0318 C   0  0  0  0  0  0  0  0  0  0  0  0
    8.3437  -12.6731   27.3920 C   0  0  0  0  0  0  0  0  0  0  0  0
    9.1729  -13.8824   27.0440 C   0  0  1  0  0  0  0  0  0  0  0  0
    9.4298  -14.6384   28.2919 C   0  0  0  0  0  0  0  0  0  0  0  0
    8.8607  -15.7339   28.5230 O   0  0  0  0  0  0  0  0  0  0  0  0
   10.3057  -14.1858   29.2705 O   0  0  0  0  0  0  0  0  0  0  0  0
  2  1  1  6
  3  2  1  0
  4  5  1  0
  4  3  1  0
  5  6  1  0
  7  6  1  0
  8  9  2  0
  8  2  1  0
 10  8  1  0
 11 10  1  0
 11 12  1  6
 12 13  1  0
 13 17  1  0
 13 14  2  0
 14 15  1  0
 16 15  1  0
 17 16  2  0
 18 11  1  0
 19 18  2  0
 20 24  1  0
 20 18  1  0
 21 22  1  0
 21 20  1  0
 22 23  1  0
 23 24  1  0
 25 27  1  0
 24 25  1  1
 26 25  2  0
M  END
$$$$
