KHP.pdb
     RDKit          3D

 27 28  0  0  1  0  0  0  0  0999 V2000
    9.1382  -15.2869   19.9258 N   0  0  0  0  0  0  0  0  0  0  0  0
    8.5901  -14.1125   20.4808 C   0  0  1  0  0  0  0  0  0  0  0  0
    7.6069  -13.4183   19.6488 C   0  0  0  0  0  0  0  0  0  0  0  0
    7.7644  -13.1763   18.2364 C   0  0  0  0  0  0  0  0  0  0  0  0
    7.7379  -14.1434   17.1417 C   0  0  0  0  0  0  0  0  0  0  0  0
    7.8711  -13.6851   15.7444 C   0  0  0  0  0  0  0  0  0  0  0  0
    7.8631  -14.8120   14.8229 N   0  0  0  0  0  0  0  0  0  0  0  0
    7.9821  -14.4170   21.8457 C   0  0  0  0  0  0  0  0  0  0  0  0
    7.2323  -13.5885   22.4149 O   0  0  0  0  0  0  0  0  0  0  0  0
    8.2639  -15.6338   22.4687 N   0  0  0  0  0  0  0  0  0  0  0  0
    7.7556  -16.0033   23.7880 C   0  0  1  0  0  0  0  0  0  0  0  0
    7.7164  -17.5403   23.7584 C   0  0  0  0  0  0  0  0  0  0  0  0
    7.5223  -17.9896   25.1463 C   0  0  0  0  0  0  0  0  0  0  0  0
    8.4649  -18.3279   26.0902 C   0  0  0  0  0  0  0  0  0  0  0  0
    7.8585  -18.6840   27.2307 N   0  0  0  0  0  0  0  0  0  0  0  0
    6.5405  -18.5774   27.0269 C   0  0  0  0  0  0  0  0  0  0  0  0
    6.3353  -18.1517   25.7491 N   0  0  0  0  0  0  0  0  0  0  0  0
    8.7437  -15.5396   24.7876 C   0  0  0  0  0  0  0  0  0  0  0  0
    9.9750  -15.6870   24.6051 O   0  0  0  0  0  0  0  0  0  0  0  0
    8.3660  -14.8952   26.0227 N   0  0  0  0  0  0  0  0  0  0  0  0
    7.0261  -14.7230   26.5423 C   0  0  0  0  0  0  0  0  0  0  0  0
    7.0620  -13.2617   26.9745 C   0  0  0  0  0  0  0  0  0  0  0  0
    8.4912  -13.0471   27.4098 C   0  0  0  0  0  0  0  0  0  0  0  0
    9.2455  -14.2830   26.9916 C   0  0  1  0  0  0  0  0  0  0  0  0
    9.3986  -15.1527   28.1811 C   0  0  0  0  0  0  0  0  0  0  0  0
    8.6753  -16.1656   28.3494 O   0  0  0  0  0  0  0  0  0  0  0  0
   10.3410  -14.9028   29.1707 O   0  0  0  0  0  0  0  0  0  0  0  0
  2  1  1  6
  3  2  1  0
  4  5  1  0
  4  3  1  0
  5  6  1  0
  7  6  1  0
  8  9  2  0
  8  2  1  0
 10  8  1  0
 11 10  1  0
 11 12  1  6
 12 13  1  0
 13 17  1  0
 13 14  2  0
 14 15  1  0
 16 15  1  0
 17 16  2  0
 18 11  1  0
 19 18  2  0
 20 24  1  0
 20 18  1  0
 21 22  1  0
 21 20  1  0
 22 23  1  0
 23 24  1  0
 25 27  1  0
 24 25  1  1
 26 25  2  0
M  END
$$$$
