KHP.pdb
     RDKit          3D

 27 28  0  0  1  0  0  0  0  0999 V2000
   11.5122  -17.0275   20.2711 N   0  0  0  0  0  0  0  0  0  0  0  0
   10.9700  -17.3388   21.5347 C   0  0  1  0  0  0  0  0  0  0  0  0
   11.8393  -18.1094   22.4242 C   0  0  0  0  0  0  0  0  0  0  0  0
   13.2796  -18.0473   22.4064 C   0  0  0  0  0  0  0  0  0  0  0  0
   14.2319  -18.8550   23.1645 C   0  0  0  0  0  0  0  0  0  0  0  0
   15.6835  -18.6498   22.9880 C   0  0  0  0  0  0  0  0  0  0  0  0
   16.4449  -19.5419   23.8504 N   0  0  0  0  0  0  0  0  0  0  0  0
   10.5215  -16.0618   22.2371 C   0  0  0  0  0  0  0  0  0  0  0  0
   11.3598  -15.2741   22.7363 O   0  0  0  0  0  0  0  0  0  0  0  0
    9.1601  -15.7662   22.3245 N   0  0  0  0  0  0  0  0  0  0  0  0
    8.6334  -14.5660   22.9707 C   0  0  1  0  0  0  0  0  0  0  0  0
    7.2492  -14.3713   22.3299 C   0  0  0  0  0  0  0  0  0  0  0  0
    7.4737  -14.1075   20.8996 C   0  0  0  0  0  0  0  0  0  0  0  0
    7.9740  -12.9786   20.2921 C   0  0  0  0  0  0  0  0  0  0  0  0
    8.0136  -13.1564   18.9647 N   0  0  0  0  0  0  0  0  0  0  0  0
    7.5448  -14.3848   18.7169 C   0  0  0  0  0  0  0  0  0  0  0  0
    7.2141  -14.9670   19.9034 N   0  0  0  0  0  0  0  0  0  0  0  0
    8.4878  -14.8685   24.4121 C   0  0  0  0  0  0  0  0  0  0  0  0
    9.0361  -15.8711   24.9273 O   0  0  0  0  0  0  0  0  0  0  0  0
    7.7172  -14.0441   25.3122 N   0  0  0  0  0  0  0  0  0  0  0  0
    6.8060  -12.9781   24.9543 C   0  0  0  0  0  0  0  0  0  0  0  0
    7.2215  -11.8908   25.9383 C   0  0  0  0  0  0  0  0  0  0  0  0
    7.6562  -12.6573   27.1638 C   0  0  0  0  0  0  0  0  0  0  0  0
    7.7015  -14.1073   26.7554 C   0  0  1  0  0  0  0  0  0  0  0  0
    6.4611  -14.7593   27.2362 C   0  0  0  0  0  0  0  0  0  0  0  0
    5.4550  -14.8807   26.4943 O   0  0  0  0  0  0  0  0  0  0  0  0
    6.3378  -15.2699   28.5222 O   0  0  0  0  0  0  0  0  0  0  0  0
  2  1  1  6
  3  2  1  0
  4  5  1  0
  4  3  1  0
  5  6  1  0
  7  6  1  0
  8  9  2  0
  8  2  1  0
 10  8  1  0
 11 10  1  0
 11 12  1  6
 12 13  1  0
 13 17  1  0
 13 14  2  0
 14 15  1  0
 16 15  1  0
 17 16  2  0
 18 11  1  0
 19 18  2  0
 20 24  1  0
 20 18  1  0
 21 22  1  0
 21 20  1  0
 22 23  1  0
 23 24  1  0
 25 27  1  0
 24 25  1  6
 26 25  2  0
M  END
$$$$
