KHP.pdb
     RDKit          3D

 27 28  0  0  1  0  0  0  0  0999 V2000
    8.4496  -15.4805   19.7504 N   0  0  0  0  0  0  0  0  0  0  0  0
    8.3030  -14.2234   20.3717 C   0  0  1  0  0  0  0  0  0  0  0  0
    7.4390  -13.2700   19.6750 C   0  0  0  0  0  0  0  0  0  0  0  0
    7.1896  -13.2870   18.2552 C   0  0  0  0  0  0  0  0  0  0  0  0
    8.0916  -13.6936   17.1804 C   0  0  0  0  0  0  0  0  0  0  0  0
    7.6310  -13.6708   15.7777 C   0  0  0  0  0  0  0  0  0  0  0  0
    8.6542  -14.1941   14.8842 N   0  0  0  0  0  0  0  0  0  0  0  0
    7.8142  -14.4052   21.8046 C   0  0  0  0  0  0  0  0  0  0  0  0
    7.4291  -13.4228   22.4821 O   0  0  0  0  0  0  0  0  0  0  0  0
    7.7949  -15.6819   22.3684 N   0  0  0  0  0  0  0  0  0  0  0  0
    7.3998  -15.9498   23.7495 C   0  0  1  0  0  0  0  0  0  0  0  0
    7.3773  -17.4845   23.8428 C   0  0  0  0  0  0  0  0  0  0  0  0
    7.2911  -17.8246   25.2720 C   0  0  0  0  0  0  0  0  0  0  0  0
    8.2325  -18.4162   26.0830 C   0  0  0  0  0  0  0  0  0  0  0  0
    7.7457  -18.5462   27.3245 N   0  0  0  0  0  0  0  0  0  0  0  0
    6.5052  -18.0451   27.3165 C   0  0  0  0  0  0  0  0  0  0  0  0
    6.2274  -17.6030   26.0581 N   0  0  0  0  0  0  0  0  0  0  0  0
    8.4598  -15.4032   24.6258 C   0  0  0  0  0  0  0  0  0  0  0  0
    9.6689  -15.4588   24.3001 O   0  0  0  0  0  0  0  0  0  0  0  0
    8.1814  -14.7774   25.8964 N   0  0  0  0  0  0  0  0  0  0  0  0
    6.9065  -14.7196   26.5792 C   0  0  0  0  0  0  0  0  0  0  0  0
    6.8617  -13.2548   26.9986 C   0  0  0  0  0  0  0  0  0  0  0  0
    8.3082  -12.9052   27.2507 C   0  0  0  0  0  0  0  0  0  0  0  0
    9.1147  -14.0737   26.7454 C   0  0  1  0  0  0  0  0  0  0  0  0
    9.4938  -14.9083   27.9092 C   0  0  0  0  0  0  0  0  0  0  0  0
    8.8992  -15.9847   28.1648 O   0  0  0  0  0  0  0  0  0  0  0  0
   10.5182  -14.5542   28.7781 O   0  0  0  0  0  0  0  0  0  0  0  0
  2  1  1  6
  3  2  1  0
  4  5  1  0
  4  3  1  0
  5  6  1  0
  7  6  1  0
  8  9  2  0
  8  2  1  0
 10  8  1  0
 11 10  1  0
 11 12  1  6
 12 13  1  0
 13 17  1  0
 13 14  2  0
 14 15  1  0
 16 15  1  0
 17 16  2  0
 18 11  1  0
 19 18  2  0
 20 24  1  0
 20 18  1  0
 21 22  1  0
 21 20  1  0
 22 23  1  0
 23 24  1  0
 25 27  1  0
 24 25  1  1
 26 25  2  0
M  END
$$$$
