KHP.pdb
     RDKit          3D

 27 28  0  0  1  0  0  0  0  0999 V2000
    8.5584  -15.9971   19.9413 N   0  0  0  0  0  0  0  0  0  0  0  0
    8.5627  -14.6229   20.2560 C   0  0  1  0  0  0  0  0  0  0  0  0
    8.0679  -13.7316   19.2064 C   0  0  0  0  0  0  0  0  0  0  0  0
    8.5151  -13.7635   17.8363 C   0  0  0  0  0  0  0  0  0  0  0  0
    7.8703  -14.3918   16.6858 C   0  0  0  0  0  0  0  0  0  0  0  0
    8.4823  -14.2900   15.3459 C   0  0  0  0  0  0  0  0  0  0  0  0
    7.6979  -15.0162   14.3577 N   0  0  0  0  0  0  0  0  0  0  0  0
    7.7814  -14.3816   21.5431 C   0  0  0  0  0  0  0  0  0  0  0  0
    7.3910  -13.2307   21.8522 O   0  0  0  0  0  0  0  0  0  0  0  0
    7.4969  -15.4562   22.3872 N   0  0  0  0  0  0  0  0  0  0  0  0
    6.8461  -15.3124   23.6876 C   0  0  1  0  0  0  0  0  0  0  0  0
    6.2142  -16.6903   23.9457 C   0  0  0  0  0  0  0  0  0  0  0  0
    7.2482  -17.5223   24.5816 C   0  0  0  0  0  0  0  0  0  0  0  0
    8.2086  -18.3144   23.9949 C   0  0  0  0  0  0  0  0  0  0  0  0
    8.9513  -18.9044   24.9412 N   0  0  0  0  0  0  0  0  0  0  0  0
    8.4772  -18.4991   26.1248 C   0  0  0  0  0  0  0  0  0  0  0  0
    7.4334  -17.6520   25.9035 N   0  0  0  0  0  0  0  0  0  0  0  0
    7.9065  -15.0451   24.6849 C   0  0  0  0  0  0  0  0  0  0  0  0
    9.0934  -15.3950   24.4851 O   0  0  0  0  0  0  0  0  0  0  0  0
    7.6536  -14.3735   25.9373 N   0  0  0  0  0  0  0  0  0  0  0  0
    6.3691  -14.1633   26.5703 C   0  0  0  0  0  0  0  0  0  0  0  0
    6.4738  -12.6968   26.9723 C   0  0  0  0  0  0  0  0  0  0  0  0
    7.9402  -12.5075   27.2757 C   0  0  0  0  0  0  0  0  0  0  0  0
    8.6283  -13.7663   26.8138 C   0  0  1  0  0  0  0  0  0  0  0  0
    8.8682  -14.6209   28.0000 C   0  0  0  0  0  0  0  0  0  0  0  0
    8.1166  -15.5897   28.2721 O   0  0  0  0  0  0  0  0  0  0  0  0
    9.9270  -14.4043   28.8727 O   0  0  0  0  0  0  0  0  0  0  0  0
  2  1  1  6
  3  2  1  0
  4  5  1  0
  4  3  1  0
  5  6  1  0
  7  6  1  0
  8  9  2  0
  8  2  1  0
 10  8  1  0
 11 10  1  0
 11 12  1  1
 12 13  1  0
 13 17  1  0
 13 14  2  0
 14 15  1  0
 16 15  1  0
 17 16  2  0
 18 11  1  0
 19 18  2  0
 20 24  1  0
 20 18  1  0
 21 22  1  0
 21 20  1  0
 22 23  1  0
 23 24  1  0
 25 27  1  0
 24 25  1  1
 26 25  2  0
M  END
$$$$
