KHP.pdb
     RDKit          3D

 27 28  0  0  1  0  0  0  0  0999 V2000
   12.3439  -17.6832   16.6941 N   0  0  0  0  0  0  0  0  0  0  0  0
   11.6193  -18.1564   17.8071 C   0  0  1  0  0  0  0  0  0  0  0  0
   12.3642  -19.0142   18.7291 C   0  0  0  0  0  0  0  0  0  0  0  0
   12.6877  -20.3953   18.4718 C   0  0  0  0  0  0  0  0  0  0  0  0
   13.9852  -20.9755   18.1339 C   0  0  0  0  0  0  0  0  0  0  0  0
   14.7431  -21.7369   19.1469 C   0  0  0  0  0  0  0  0  0  0  0  0
   15.9921  -22.2404   18.5941 N   0  0  0  0  0  0  0  0  0  0  0  0
   11.0170  -16.9832   18.5725 C   0  0  0  0  0  0  0  0  0  0  0  0
   11.7397  -16.2291   19.2664 O   0  0  0  0  0  0  0  0  0  0  0  0
    9.6434  -16.7460   18.4991 N   0  0  0  0  0  0  0  0  0  0  0  0
    8.9741  -15.6496   19.1957 C   0  0  1  0  0  0  0  0  0  0  0  0
    7.5938  -15.5646   18.5232 C   0  0  0  0  0  0  0  0  0  0  0  0
    7.8106  -15.0324   17.1683 C   0  0  0  0  0  0  0  0  0  0  0  0
    7.7289  -15.6800   15.9568 C   0  0  0  0  0  0  0  0  0  0  0  0
    8.0027  -14.8229   14.9640 N   0  0  0  0  0  0  0  0  0  0  0  0
    8.2582  -13.6361   15.5263 C   0  0  0  0  0  0  0  0  0  0  0  0
    8.1402  -13.7654   16.8774 N   0  0  0  0  0  0  0  0  0  0  0  0
    8.8250  -16.0521   20.6120 C   0  0  0  0  0  0  0  0  0  0  0  0
    9.1800  -17.1868   21.0089 O   0  0  0  0  0  0  0  0  0  0  0  0
    8.2699  -15.1810   21.6203 N   0  0  0  0  0  0  0  0  0  0  0  0
    7.5297  -13.9563   21.4032 C   0  0  0  0  0  0  0  0  0  0  0  0
    8.1910  -13.0277   22.4150 C   0  0  0  0  0  0  0  0  0  0  0  0
    8.5737  -13.9435   23.5520 C   0  0  0  0  0  0  0  0  0  0  0  0
    8.3442  -15.3471   23.0535 C   0  0  1  0  0  0  0  0  0  0  0  0
    7.0478  -15.8202   23.5924 C   0  0  0  0  0  0  0  0  0  0  0  0
    6.9329  -16.1985   24.7845 O   0  0  0  0  0  0  0  0  0  0  0  0
    5.8944  -15.8731   22.8201 O   0  0  0  0  0  0  0  0  0  0  0  0
  2  1  1  6
  3  2  1  0
  4  5  1  0
  4  3  1  0
  5  6  1  0
  7  6  1  0
  8  9  2  0
  8  2  1  0
 10  8  1  0
 11 10  1  0
 11 12  1  6
 12 13  1  0
 13 17  1  0
 13 14  2  0
 14 15  1  0
 16 15  1  0
 17 16  2  0
 18 11  1  0
 19 18  2  0
 20 24  1  0
 20 18  1  0
 21 22  1  0
 21 20  1  0
 22 23  1  0
 23 24  1  0
 25 27  1  0
 24 25  1  1
 26 25  2  0
M  END
$$$$
