KHP.pdb
     RDKit          3D

 27 28  0  0  1  0  0  0  0  0999 V2000
   12.3634  -17.8043   22.0904 N   0  0  0  0  0  0  0  0  0  0  0  0
   10.9743  -17.8857   22.3175 C   0  0  1  0  0  0  0  0  0  0  0  0
   10.5375  -18.9817   23.1828 C   0  0  0  0  0  0  0  0  0  0  0  0
   11.3901  -19.6610   24.1262 C   0  0  0  0  0  0  0  0  0  0  0  0
   11.4304  -19.5176   25.5795 C   0  0  0  0  0  0  0  0  0  0  0  0
   12.4308  -20.2619   26.3703 C   0  0  0  0  0  0  0  0  0  0  0  0
   12.2565  -20.0173   27.7948 N   0  0  0  0  0  0  0  0  0  0  0  0
   10.4591  -16.5609   22.8695 C   0  0  0  0  0  0  0  0  0  0  0  0
   11.1697  -15.8612   23.6298 O   0  0  0  0  0  0  0  0  0  0  0  0
    9.1802  -16.1219   22.5233 N   0  0  0  0  0  0  0  0  0  0  0  0
    8.5730  -14.9029   23.0533 C   0  0  1  0  0  0  0  0  0  0  0  0
    7.3064  -14.7137   22.2021 C   0  0  0  0  0  0  0  0  0  0  0  0
    7.7435  -14.2015   20.8935 C   0  0  0  0  0  0  0  0  0  0  0  0
    9.0160  -13.9214   20.4508 C   0  0  0  0  0  0  0  0  0  0  0  0
    8.9698  -13.4717   19.1895 N   0  0  0  0  0  0  0  0  0  0  0  0
    7.6835  -13.4611   18.8212 C   0  0  0  0  0  0  0  0  0  0  0  0
    6.9326  -13.9086   19.8662 N   0  0  0  0  0  0  0  0  0  0  0  0
    8.2034  -15.1700   24.4613 C   0  0  0  0  0  0  0  0  0  0  0  0
    8.3695  -16.3006   24.9765 O   0  0  0  0  0  0  0  0  0  0  0  0
    7.6353  -14.1643   25.3270 N   0  0  0  0  0  0  0  0  0  0  0  0
    7.0700  -12.8919   24.9319 C   0  0  0  0  0  0  0  0  0  0  0  0
    7.7080  -11.9553   25.9513 C   0  0  0  0  0  0  0  0  0  0  0  0
    7.8470  -12.8072   27.1895 C   0  0  0  0  0  0  0  0  0  0  0  0
    7.5201  -14.2163   26.7662 C   0  0  1  0  0  0  0  0  0  0  0  0
    6.1239  -14.5050   27.1683 C   0  0  0  0  0  0  0  0  0  0  0  0
    5.1657  -14.3392   26.3734 O   0  0  0  0  0  0  0  0  0  0  0  0
    5.7943  -14.9712   28.4347 O   0  0  0  0  0  0  0  0  0  0  0  0
  2  1  1  1
  3  2  1  0
  4  5  1  0
  4  3  1  0
  5  6  1  0
  7  6  1  0
  8  9  2  0
  8  2  1  0
 10  8  1  0
 11 10  1  0
 11 12  1  6
 12 13  1  0
 13 17  1  0
 13 14  2  0
 14 15  1  0
 16 15  1  0
 17 16  2  0
 18 11  1  0
 19 18  2  0
 20 24  1  0
 20 18  1  0
 21 22  1  0
 21 20  1  0
 22 23  1  0
 23 24  1  0
 25 27  1  0
 24 25  1  6
 26 25  2  0
M  END
$$$$
