KHP.pdb
     RDKit          3D

 27 28  0  0  1  0  0  0  0  0999 V2000
    6.6926  -16.1692   19.5550 N   0  0  0  0  0  0  0  0  0  0  0  0
    7.6748  -15.6283   20.4096 C   0  0  1  0  0  0  0  0  0  0  0  0
    8.0767  -14.2515   20.1204 C   0  0  0  0  0  0  0  0  0  0  0  0
    7.9507  -13.6228   18.8292 C   0  0  0  0  0  0  0  0  0  0  0  0
    8.6708  -13.9307   17.5959 C   0  0  0  0  0  0  0  0  0  0  0  0
    8.3614  -13.1951   16.3536 C   0  0  0  0  0  0  0  0  0  0  0  0
    9.0083  -13.8145   15.2059 N   0  0  0  0  0  0  0  0  0  0  0  0
    7.2173  -15.7341   21.8604 C   0  0  0  0  0  0  0  0  0  0  0  0
    6.0251  -15.5080   22.1768 O   0  0  0  0  0  0  0  0  0  0  0  0
    8.1378  -16.0878   22.8482 N   0  0  0  0  0  0  0  0  0  0  0  0
    7.7769  -16.3128   24.2463 C   0  0  1  0  0  0  0  0  0  0  0  0
    7.9751  -17.8244   24.4467 C   0  0  0  0  0  0  0  0  0  0  0  0
    7.7102  -18.1056   25.8668 C   0  0  0  0  0  0  0  0  0  0  0  0
    8.5780  -18.5362   26.8442 C   0  0  0  0  0  0  0  0  0  0  0  0
    7.9244  -18.6681   28.0063 N   0  0  0  0  0  0  0  0  0  0  0  0
    6.6500  -18.3271   27.7834 C   0  0  0  0  0  0  0  0  0  0  0  0
    6.5196  -17.9824   26.4717 N   0  0  0  0  0  0  0  0  0  0  0  0
    8.7417  -15.5593   25.0780 C   0  0  0  0  0  0  0  0  0  0  0  0
    9.9607  -15.5194   24.7892 O   0  0  0  0  0  0  0  0  0  0  0  0
    8.3539  -14.8288   26.2610 N   0  0  0  0  0  0  0  0  0  0  0  0
    7.0163  -14.6771   26.7929 C   0  0  0  0  0  0  0  0  0  0  0  0
    6.9864  -13.1837   27.0968 C   0  0  0  0  0  0  0  0  0  0  0  0
    8.4105  -12.8630   27.4807 C   0  0  0  0  0  0  0  0  0  0  0  0
    9.2184  -14.0926   27.1541 C   0  0  1  0  0  0  0  0  0  0  0  0
    9.4357  -14.8469   28.4105 C   0  0  0  0  0  0  0  0  0  0  0  0
    8.7741  -15.8808   28.6766 O   0  0  0  0  0  0  0  0  0  0  0  0
   10.3740  -14.4603   29.3591 O   0  0  0  0  0  0  0  0  0  0  0  0
  2  1  1  6
  3  2  1  0
  4  5  1  0
  4  3  1  0
  5  6  1  0
  7  6  1  0
  8  9  2  0
  8  2  1  0
 10  8  1  0
 11 10  1  0
 11 12  1  1
 12 13  1  0
 13 17  1  0
 13 14  2  0
 14 15  1  0
 16 15  1  0
 17 16  2  0
 18 11  1  0
 19 18  2  0
 20 24  1  0
 20 18  1  0
 21 22  1  0
 21 20  1  0
 22 23  1  0
 23 24  1  0
 25 27  1  0
 24 25  1  1
 26 25  2  0
M  END
$$$$
