KHP.pdb
     RDKit          3D

 27 28  0  0  1  0  0  0  0  0999 V2000
    8.7707  -15.3794   19.9327 N   0  0  0  0  0  0  0  0  0  0  0  0
    8.3891  -14.1808   20.5695 C   0  0  1  0  0  0  0  0  0  0  0  0
    7.4285  -13.3538   19.8386 C   0  0  0  0  0  0  0  0  0  0  0  0
    7.4797  -13.1128   18.4181 C   0  0  0  0  0  0  0  0  0  0  0  0
    7.9923  -13.9885   17.3672 C   0  0  0  0  0  0  0  0  0  0  0  0
    7.9067  -13.5766   15.9518 C   0  0  0  0  0  0  0  0  0  0  0  0
    8.4513  -14.6038   15.0758 N   0  0  0  0  0  0  0  0  0  0  0  0
    7.8495  -14.4814   21.9636 C   0  0  0  0  0  0  0  0  0  0  0  0
    7.2214  -13.6106   22.6116 O   0  0  0  0  0  0  0  0  0  0  0  0
    8.0572  -15.7424   22.5249 N   0  0  0  0  0  0  0  0  0  0  0  0
    7.6760  -16.0916   23.8917 C   0  0  1  0  0  0  0  0  0  0  0  0
    7.6337  -17.6287   23.8887 C   0  0  0  0  0  0  0  0  0  0  0  0
    7.5449  -18.0566   25.2940 C   0  0  0  0  0  0  0  0  0  0  0  0
    8.5517  -18.4335   26.1531 C   0  0  0  0  0  0  0  0  0  0  0  0
    8.0348  -18.7498   27.3481 N   0  0  0  0  0  0  0  0  0  0  0  0
    6.7105  -18.5795   27.2629 C   0  0  0  0  0  0  0  0  0  0  0  0
    6.4111  -18.1546   26.0036 N   0  0  0  0  0  0  0  0  0  0  0  0
    8.7545  -15.6149   24.7862 C   0  0  0  0  0  0  0  0  0  0  0  0
    9.9628  -15.7579   24.4854 O   0  0  0  0  0  0  0  0  0  0  0  0
    8.4958  -14.9622   26.0474 N   0  0  0  0  0  0  0  0  0  0  0  0
    7.2034  -14.6892   26.6391 C   0  0  0  0  0  0  0  0  0  0  0  0
    7.3824  -13.2431   27.0866 C   0  0  0  0  0  0  0  0  0  0  0  0
    8.8451  -13.1537   27.4483 C   0  0  0  0  0  0  0  0  0  0  0  0
    9.4719  -14.4402   26.9758 C   0  0  1  0  0  0  0  0  0  0  0  0
    9.6136  -15.3391   28.1448 C   0  0  0  0  0  0  0  0  0  0  0  0
    8.8269  -16.3002   28.3314 O   0  0  0  0  0  0  0  0  0  0  0  0
   10.6142  -15.1746   29.0943 O   0  0  0  0  0  0  0  0  0  0  0  0
  2  1  1  6
  3  2  1  0
  4  5  1  0
  4  3  1  0
  5  6  1  0
  7  6  1  0
  8  9  2  0
  8  2  1  0
 10  8  1  0
 11 10  1  0
 11 12  1  6
 12 13  1  0
 13 17  1  0
 13 14  2  0
 14 15  1  0
 16 15  1  0
 17 16  2  0
 18 11  1  0
 19 18  2  0
 20 24  1  0
 20 18  1  0
 21 22  1  0
 21 20  1  0
 22 23  1  0
 23 24  1  0
 25 27  1  0
 24 25  1  1
 26 25  2  0
M  END
$$$$
