VRF.pdb
     RDKit          3D

 30 30  0  0  1  0  0  0  0  0999 V2000
    7.4666  -12.4432   26.5035 C   0  0  0  0  0  0  0  0  0  0  0  0
    6.3798  -12.2048   25.4479 C   0  0  1  0  0  0  0  0  0  0  0  0
    7.1380  -11.7786   24.1900 C   0  0  0  0  0  0  0  0  0  0  0  0
    5.7250  -13.5246   25.1765 C   0  0  2  0  0  0  0  0  0  0  0  0
    5.1147  -14.0896   26.3417 N   0  0  0  0  0  0  0  0  0  0  0  0
    6.6689  -14.5036   24.5989 C   0  0  0  0  0  0  0  0  0  0  0  0
    7.2752  -15.2930   25.3686 O   0  0  0  0  0  0  0  0  0  0  0  0
    7.0281  -18.2637   17.6592 N   0  0  0  0  0  0  0  0  0  0  0  0
    8.2020  -18.8980   18.2532 C   0  0  0  0  0  0  0  0  0  0  0  0
    9.0789  -19.4225   17.4941 N   0  0  0  0  0  0  0  0  0  0  0  0
    8.3674  -18.9345   19.6445 N   0  0  0  0  0  0  0  0  0  0  0  0
    7.9017  -17.9689   20.5709 C   0  0  0  0  0  0  0  0  0  0  0  0
    7.8530  -16.5519   20.1700 C   0  0  0  0  0  0  0  0  0  0  0  0
    7.5581  -15.4899   21.1282 C   0  0  0  0  0  0  0  0  0  0  0  0
    7.7632  -15.6099   22.5785 C   0  0  2  0  0  0  0  0  0  0  0  0
    6.8942  -14.5634   23.2245 N   0  0  0  0  0  0  0  0  0  0  0  0
    9.0919  -15.3560   23.1287 C   0  0  0  0  0  0  0  0  0  0  0  0
    9.5830  -14.1592   23.0754 O   0  0  0  0  0  0  0  0  0  0  0  0
    9.9235  -19.8663   17.8412 N   0  0  0  0  0  0  0  0  0  0  0  0
    9.9548  -16.2843   23.7547 C   0  0  2  0  0  0  0  0  0  0  0  0
   10.5980  -16.0241   25.0491 C   0  0  0  0  0  0  0  0  0  0  0  0
    9.6021  -15.7047   26.1034 C   0  0  0  0  0  0  0  0  0  0  0  0
   10.2047  -15.3669   27.4113 C   0  0  0  0  0  0  0  0  0  0  0  0
   10.5096  -14.0682   27.7755 C   0  0  0  0  0  0  0  0  0  0  0  0
   11.0708  -13.7353   28.9921 C   0  0  0  0  0  0  0  0  0  0  0  0
   11.3347  -14.7469   29.8733 C   0  0  0  0  0  0  0  0  0  0  0  0
   11.0395  -16.0371   29.5287 C   0  0  0  0  0  0  0  0  0  0  0  0
   10.4826  -16.3664   28.3217 C   0  0  0  0  0  0  0  0  0  0  0  0
   11.4909  -17.1415   25.4140 O   0  0  0  0  0  0  0  0  0  0  0  0
   11.0931  -18.3080   25.3186 O   0  0  0  0  0  0  0  0  0  0  0  0
  2  3  1  6
  2  1  1  0
  4  5  1  1
  4  2  1  0
  6  4  1  0
  7  6  2  0
  9  8  1  0
  9 11  1  0
 10  9  2  0
 11 12  1  0
 12 13  1  0
 13 14  1  0
 15 14  1  6
 15 17  1  0
 15 16  1  0
 16  6  1  0
 17 19  1  0
 18 17  2  0
 19 20  1  0
 20 28  1  0
 20 21  1  1
 22 21  1  0
 23 22  2  0
 24 23  1  0
 25 26  1  0
 25 24  2  0
 26 27  2  0
 27 22  1  0
 28 29  2  0
 28 30  1  0
M  END
$$$$
