VRF.pdb
     RDKit          3D

 30 30  0  0  1  0  0  0  0  0999 V2000
   14.5762  -19.0451   19.6686 C   0  0  0  0  0  0  0  0  0  0  0  0
   13.6868  -17.8487   20.0292 C   0  0  1  0  0  0  0  0  0  0  0  0
   12.6611  -17.7643   18.8980 C   0  0  0  0  0  0  0  0  0  0  0  0
   12.9631  -18.1966   21.2938 C   0  0  2  0  0  0  0  0  0  0  0  0
   12.1863  -19.3932   21.1758 N   0  0  0  0  0  0  0  0  0  0  0  0
   12.0927  -17.0955   21.7555 C   0  0  0  0  0  0  0  0  0  0  0  0
   12.5825  -15.9435   21.8822 O   0  0  0  0  0  0  0  0  0  0  0  0
    6.6732  -13.5313   19.4960 N   0  0  0  0  0  0  0  0  0  0  0  0
    7.4369  -14.0032   18.3438 C   0  0  0  0  0  0  0  0  0  0  0  0
    7.7245  -13.1877   17.4096 N   0  0  0  0  0  0  0  0  0  0  0  0
    7.8508  -15.3396   18.2596 N   0  0  0  0  0  0  0  0  0  0  0  0
    8.3062  -16.1465   19.3314 C   0  0  0  0  0  0  0  0  0  0  0  0
    8.0085  -15.7392   20.7158 C   0  0  0  0  0  0  0  0  0  0  0  0
    8.5190  -16.4829   21.8644 C   0  0  0  0  0  0  0  0  0  0  0  0
    9.8165  -16.2217   22.5031 C   0  0  2  0  0  0  0  0  0  0  0  0
   10.7478  -17.3147   22.0496 N   0  0  0  0  0  0  0  0  0  0  0  0
    9.9085  -16.2598   23.9600 C   0  0  0  0  0  0  0  0  0  0  0  0
   10.3007  -17.3472   24.5431 O   0  0  0  0  0  0  0  0  0  0  0  0
    8.2330  -13.4554   16.5726 N   0  0  0  0  0  0  0  0  0  0  0  0
    9.6246  -15.2133   24.8669 C   0  0  1  0  0  0  0  0  0  0  0  0
    9.8040  -15.3485   26.3183 C   0  0  0  0  0  0  0  0  0  0  0  0
    9.6484  -14.0463   27.0151 C   0  0  0  0  0  0  0  0  0  0  0  0
    8.3959  -13.3351   26.6786 C   0  0  0  0  0  0  0  0  0  0  0  0
    7.4519  -13.0014   27.6324 C   0  0  0  0  0  0  0  0  0  0  0  0
    6.2787  -12.3367   27.3359 C   0  0  0  0  0  0  0  0  0  0  0  0
    6.0481  -11.9963   26.0320 C   0  0  0  0  0  0  0  0  0  0  0  0
    6.9714  -12.3191   25.0761 C   0  0  0  0  0  0  0  0  0  0  0  0
    8.1349  -12.9782   25.3711 C   0  0  0  0  0  0  0  0  0  0  0  0
    8.9166  -16.4011   26.8508 O   0  0  0  0  0  0  0  0  0  0  0  0
    9.0259  -16.7660   28.0268 O   0  0  0  0  0  0  0  0  0  0  0  0
  2  3  1  6
  2  1  1  0
  4  5  1  6
  4  2  1  0
  6  4  1  0
  7  6  2  0
  9  8  1  0
  9 11  1  0
 10  9  2  0
 11 12  1  0
 12 13  1  0
 13 14  1  0
 15 14  1  1
 15 17  1  0
 15 16  1  0
 16  6  1  0
 17 19  1  0
 18 17  2  0
 19 20  1  0
 20 28  1  0
 20 21  1  6
 22 21  1  0
 23 22  2  0
 24 23  1  0
 25 26  1  0
 25 24  2  0
 26 27  2  0
 27 22  1  0
 28 29  2  0
 28 30  1  0
M  END
$$$$
