VRF.pdb
     RDKit          3D

 30 30  0  0  1  0  0  0  0  0999 V2000
    7.4146  -12.2588   19.4656 C   0  0  0  0  0  0  0  0  0  0  0  0
    8.0140  -13.1658   20.5473 C   0  0  1  0  0  0  0  0  0  0  0  0
    7.0272  -13.0947   21.7135 C   0  0  0  0  0  0  0  0  0  0  0  0
    8.0063  -14.5644   20.0107 C   0  0  2  0  0  0  0  0  0  0  0  0
    6.7430  -14.9344   19.4482 N   0  0  0  0  0  0  0  0  0  0  0  0
    8.3899  -15.5546   21.0379 C   0  0  0  0  0  0  0  0  0  0  0  0
    7.5050  -16.3098   21.5172 O   0  0  0  0  0  0  0  0  0  0  0  0
   14.1976  -20.9906   20.3508 N   0  0  0  0  0  0  0  0  0  0  0  0
   13.5521  -21.1685   21.6488 C   0  0  0  0  0  0  0  0  0  0  0  0
   14.2527  -21.5235   22.6506 N   0  0  0  0  0  0  0  0  0  0  0  0
   12.1750  -20.9542   21.7975 N   0  0  0  0  0  0  0  0  0  0  0  0
   11.4930  -19.7247   21.6225 C   0  0  0  0  0  0  0  0  0  0  0  0
   12.1490  -18.4725   22.0379 C   0  0  0  0  0  0  0  0  0  0  0  0
   11.5254  -17.1689   21.8257 C   0  0  0  0  0  0  0  0  0  0  0  0
   10.1981  -16.7989   22.3365 C   0  0  2  0  0  0  0  0  0  0  0  0
    9.7081  -15.6622   21.4788 N   0  0  0  0  0  0  0  0  0  0  0  0
   10.0812  -16.2896   23.7001 C   0  0  0  0  0  0  0  0  0  0  0  0
   10.1383  -15.0129   23.9081 O   0  0  0  0  0  0  0  0  0  0  0  0
   13.8781  -21.6116   23.5900 N   0  0  0  0  0  0  0  0  0  0  0  0
    9.8926  -17.0384   24.8841 C   0  0  2  0  0  0  0  0  0  0  0  0
    9.2389  -16.4868   26.0779 C   0  0  0  0  0  0  0  0  0  0  0  0
    7.9260  -15.8740   25.7521 C   0  0  0  0  0  0  0  0  0  0  0  0
    7.8779  -14.4124   25.9737 C   0  0  0  0  0  0  0  0  0  0  0  0
    8.7088  -13.7697   26.8731 C   0  0  0  0  0  0  0  0  0  0  0  0
    8.6781  -12.4068   27.0911 C   0  0  0  0  0  0  0  0  0  0  0  0
    7.7779  -11.6648   26.3780 C   0  0  0  0  0  0  0  0  0  0  0  0
    6.9486  -12.2848   25.4846 C   0  0  0  0  0  0  0  0  0  0  0  0
    6.9799  -13.6367   25.2687 C   0  0  0  0  0  0  0  0  0  0  0  0
    9.1540  -17.5109   27.1378 O   0  0  0  0  0  0  0  0  0  0  0  0
    9.0089  -18.7012   26.8379 O   0  0  0  0  0  0  0  0  0  0  0  0
  2  3  1  1
  2  1  1  0
  4  5  1  1
  4  2  1  0
  6  4  1  0
  7  6  2  0
  9  8  1  0
  9 11  1  0
 10  9  2  0
 11 12  1  0
 12 13  1  0
 13 14  1  0
 15 14  1  6
 15 17  1  0
 15 16  1  0
 16  6  1  0
 17 19  1  0
 18 17  2  0
 19 20  1  0
 20 28  1  0
 20 21  1  1
 22 21  1  0
 23 22  2  0
 24 23  1  0
 25 26  1  0
 25 24  2  0
 26 27  2  0
 27 22  1  0
 28 29  2  0
 28 30  1  0
M  END
$$$$
