VRF.pdb
     RDKit          3D

 30 30  0  0  1  0  0  0  0  0999 V2000
    8.4185  -12.5897   21.6374 C   0  0  0  0  0  0  0  0  0  0  0  0
    7.4460  -13.1008   20.5673 C   0  0  1  0  0  0  0  0  0  0  0  0
    7.4877  -12.0466   19.4602 C   0  0  0  0  0  0  0  0  0  0  0  0
    8.0127  -14.3760   20.0226 C   0  0  2  0  0  0  0  0  0  0  0  0
    7.2841  -14.8674   18.8926 N   0  0  0  0  0  0  0  0  0  0  0  0
    8.0863  -15.4341   21.0511 C   0  0  0  0  0  0  0  0  0  0  0  0
    7.0458  -16.0825   21.3341 O   0  0  0  0  0  0  0  0  0  0  0  0
   10.0804  -20.9039   18.4827 N   0  0  0  0  0  0  0  0  0  0  0  0
   10.9199  -21.3731   19.5820 C   0  0  0  0  0  0  0  0  0  0  0  0
   10.9840  -22.6200   19.8298 N   0  0  0  0  0  0  0  0  0  0  0  0
   11.6491  -20.4652   20.3619 N   0  0  0  0  0  0  0  0  0  0  0  0
   11.6836  -19.0580   20.2003 C   0  0  0  0  0  0  0  0  0  0  0  0
   10.5619  -18.2478   20.7067 C   0  0  0  0  0  0  0  0  0  0  0  0
   10.5515  -17.7098   22.0645 C   0  0  0  0  0  0  0  0  0  0  0  0
    9.4564  -16.9037   22.6218 C   0  0  2  0  0  0  0  0  0  0  0  0
    9.2831  -15.7208   21.7061 N   0  0  0  0  0  0  0  0  0  0  0  0
    9.6192  -16.3069   23.9445 C   0  0  0  0  0  0  0  0  0  0  0  0
   10.5455  -15.4218   24.1321 O   0  0  0  0  0  0  0  0  0  0  0  0
   11.5496  -23.0119   20.5763 N   0  0  0  0  0  0  0  0  0  0  0  0
    8.8561  -16.5683   25.1054 C   0  0  1  0  0  0  0  0  0  0  0  0
    9.2030  -16.0232   26.4242 C   0  0  0  0  0  0  0  0  0  0  0  0
    8.0161  -15.4574   27.1147 C   0  0  0  0  0  0  0  0  0  0  0  0
    7.6150  -14.1237   26.6165 C   0  0  0  0  0  0  0  0  0  0  0  0
    6.4336  -13.9116   25.9300 C   0  0  0  0  0  0  0  0  0  0  0  0
    6.0434  -12.6736   25.4596 C   0  0  0  0  0  0  0  0  0  0  0  0
    6.8733  -11.6115   25.6886 C   0  0  0  0  0  0  0  0  0  0  0  0
    8.0458  -11.8040   26.3658 C   0  0  0  0  0  0  0  0  0  0  0  0
    8.4319  -13.0323   26.8323 C   0  0  0  0  0  0  0  0  0  0  0  0
    9.9141  -17.0361   27.2290 O   0  0  0  0  0  0  0  0  0  0  0  0
   10.3452  -16.7443   28.3502 O   0  0  0  0  0  0  0  0  0  0  0  0
  2  3  1  6
  2  1  1  0
  4  5  1  6
  4  2  1  0
  6  4  1  0
  7  6  2  0
  9  8  1  0
  9 11  1  0
 10  9  2  0
 11 12  1  0
 12 13  1  0
 13 14  1  0
 15 14  1  6
 15 17  1  0
 15 16  1  0
 16  6  1  0
 17 19  1  0
 18 17  2  0
 19 20  1  0
 20 28  1  0
 20 21  1  1
 22 21  1  0
 23 22  2  0
 24 23  1  0
 25 26  1  0
 25 24  2  0
 26 27  2  0
 27 22  1  0
 28 29  2  0
 28 30  1  0
M  END
$$$$
