VRF.pdb
     RDKit          3D

 30 30  0  0  1  0  0  0  0  0999 V2000
    8.8890  -12.2357   18.5166 C   0  0  0  0  0  0  0  0  0  0  0  0
    8.8007  -13.1191   19.7672 C   0  0  1  0  0  0  0  0  0  0  0  0
    7.7613  -12.4384   20.6588 C   0  0  0  0  0  0  0  0  0  0  0  0
    8.2539  -14.4460   19.3378 C   0  0  2  0  0  0  0  0  0  0  0  0
    7.0752  -14.3251   18.5345 N   0  0  0  0  0  0  0  0  0  0  0  0
    7.9694  -15.3274   20.4889 C   0  0  0  0  0  0  0  0  0  0  0  0
    6.8264  -15.2944   21.0140 O   0  0  0  0  0  0  0  0  0  0  0  0
    9.2418  -24.0283   21.4910 N   0  0  0  0  0  0  0  0  0  0  0  0
    8.6788  -22.9190   20.7258 C   0  0  0  0  0  0  0  0  0  0  0  0
    8.3178  -23.1122   19.5205 N   0  0  0  0  0  0  0  0  0  0  0  0
    8.5361  -21.6508   21.3053 N   0  0  0  0  0  0  0  0  0  0  0  0
    9.5092  -20.9642   22.0728 C   0  0  0  0  0  0  0  0  0  0  0  0
    9.2007  -19.6191   22.5891 C   0  0  0  0  0  0  0  0  0  0  0  0
    9.0983  -18.4599   21.7066 C   0  0  0  0  0  0  0  0  0  0  0  0
    8.6938  -17.1194   22.1526 C   0  0  2  0  0  0  0  0  0  0  0  0
    8.9423  -16.1874   20.9961 N   0  0  0  0  0  0  0  0  0  0  0  0
    9.4060  -16.4993   23.2665 C   0  0  0  0  0  0  0  0  0  0  0  0
   10.5164  -15.8731   23.0403 O   0  0  0  0  0  0  0  0  0  0  0  0
    7.9412  -22.3797   18.9269 N   0  0  0  0  0  0  0  0  0  0  0  0
    9.0224  -16.4782   24.6269 C   0  0  1  0  0  0  0  0  0  0  0  0
    9.8511  -15.8724   25.6772 C   0  0  0  0  0  0  0  0  0  0  0  0
    9.8951  -14.3928   25.5578 C   0  0  0  0  0  0  0  0  0  0  0  0
    8.6287  -13.7258   25.9304 C   0  0  0  0  0  0  0  0  0  0  0  0
    7.4735  -13.8531   25.1810 C   0  0  0  0  0  0  0  0  0  0  0  0
    6.2831  -13.2388   25.5151 C   0  0  0  0  0  0  0  0  0  0  0  0
    6.2555  -12.4684   26.6443 C   0  0  0  0  0  0  0  0  0  0  0  0
    7.3893  -12.3317   27.3967 C   0  0  0  0  0  0  0  0  0  0  0  0
    8.5696  -12.9416   27.0647 C   0  0  0  0  0  0  0  0  0  0  0  0
    9.4127  -16.3341   27.0091 O   0  0  0  0  0  0  0  0  0  0  0  0
   10.0210  -15.9694   28.0215 O   0  0  0  0  0  0  0  0  0  0  0  0
  2  3  1  1
  2  1  1  0
  4  5  1  1
  4  2  1  0
  6  4  1  0
  7  6  2  0
  9  8  1  0
  9 11  1  0
 10  9  2  0
 11 12  1  0
 12 13  1  0
 13 14  1  0
 15 14  1  6
 15 17  1  0
 15 16  1  0
 16  6  1  0
 17 19  1  0
 18 17  2  0
 19 20  1  0
 20 28  1  0
 20 21  1  6
 22 21  1  0
 23 22  2  0
 24 23  1  0
 25 26  1  0
 25 24  2  0
 26 27  2  0
 27 22  1  0
 28 29  2  0
 28 30  1  0
M  END
$$$$
