VRF.pdb
     RDKit          3D

 30 30  0  0  1  0  0  0  0  0999 V2000
    8.2069  -12.6849   21.1541 C   0  0  0  0  0  0  0  0  0  0  0  0
    7.4636  -13.2631   19.9435 C   0  0  1  0  0  0  0  0  0  0  0  0
    7.9388  -12.4288   18.7532 C   0  0  0  0  0  0  0  0  0  0  0  0
    7.9460  -14.6686   19.7540 C   0  0  2  0  0  0  0  0  0  0  0  0
    7.4943  -15.2479   18.5253 N   0  0  0  0  0  0  0  0  0  0  0  0
    7.5554  -15.5452   20.8773 C   0  0  0  0  0  0  0  0  0  0  0  0
    6.3385  -15.8188   21.0423 O   0  0  0  0  0  0  0  0  0  0  0  0
    6.9829  -22.7915   22.7153 N   0  0  0  0  0  0  0  0  0  0  0  0
    7.6766  -22.3320   21.5149 C   0  0  0  0  0  0  0  0  0  0  0  0
    7.3603  -22.8247   20.3845 N   0  0  0  0  0  0  0  0  0  0  0  0
    8.6829  -21.3601   21.5989 N   0  0  0  0  0  0  0  0  0  0  0  0
    9.2343  -20.8233   22.7885 C   0  0  0  0  0  0  0  0  0  0  0  0
    8.7502  -19.5225   23.2831 C   0  0  0  0  0  0  0  0  0  0  0  0
    8.6417  -18.3578   22.4086 C   0  0  0  0  0  0  0  0  0  0  0  0
    8.1724  -17.0374   22.8513 C   0  0  2  0  0  0  0  0  0  0  0  0
    8.5094  -16.0686   21.7487 N   0  0  0  0  0  0  0  0  0  0  0  0
    8.7664  -16.4382   24.0432 C   0  0  0  0  0  0  0  0  0  0  0  0
    9.9674  -15.9585   23.9813 O   0  0  0  0  0  0  0  0  0  0  0  0
    7.8392  -22.5905   19.5205 N   0  0  0  0  0  0  0  0  0  0  0  0
    8.1739  -16.2922   25.3182 C   0  0  2  0  0  0  0  0  0  0  0  0
    8.9330  -15.8762   26.5047 C   0  0  0  0  0  0  0  0  0  0  0  0
    8.1158  -15.0299   27.4111 C   0  0  0  0  0  0  0  0  0  0  0  0
    7.7359  -13.7247   26.8283 C   0  0  0  0  0  0  0  0  0  0  0  0
    8.5508  -12.6103   26.9077 C   0  0  0  0  0  0  0  0  0  0  0  0
    8.2124  -11.3853   26.3682 C   0  0  0  0  0  0  0  0  0  0  0  0
    7.0100  -11.2791   25.7262 C   0  0  0  0  0  0  0  0  0  0  0  0
    6.1919  -12.3716   25.6389 C   0  0  0  0  0  0  0  0  0  0  0  0
    6.5285  -13.5863   26.1740 C   0  0  0  0  0  0  0  0  0  0  0  0
    9.5186  -17.0514   27.1793 O   0  0  0  0  0  0  0  0  0  0  0  0
    9.2177  -18.1915   26.8083 O   0  0  0  0  0  0  0  0  0  0  0  0
  2  3  1  6
  2  1  1  0
  4  5  1  6
  4  2  1  0
  6  4  1  0
  7  6  2  0
  9  8  1  0
  9 11  1  0
 10  9  2  0
 11 12  1  0
 12 13  1  0
 13 14  1  0
 15 14  1  6
 15 17  1  0
 15 16  1  0
 16  6  1  0
 17 19  1  0
 18 17  2  0
 19 20  1  0
 20 28  1  0
 20 21  1  6
 22 21  1  0
 23 22  2  0
 24 23  1  0
 25 26  1  0
 25 24  2  0
 26 27  2  0
 27 22  1  0
 28 29  2  0
 28 30  1  0
M  END
$$$$
