VRF.pdb
     RDKit          3D

 30 30  0  0  1  0  0  0  0  0999 V2000
    8.0313  -12.2915   19.5006 C   0  0  0  0  0  0  0  0  0  0  0  0
    8.2879  -13.1836   20.7215 C   0  0  1  0  0  0  0  0  0  0  0  0
    7.1691  -12.8378   21.7051 C   0  0  0  0  0  0  0  0  0  0  0  0
    8.1041  -14.6038   20.2821 C   0  0  2  0  0  0  0  0  0  0  0  0
    6.8416  -14.8273   19.6453 N   0  0  0  0  0  0  0  0  0  0  0  0
    8.2590  -15.5552   21.4019 C   0  0  0  0  0  0  0  0  0  0  0  0
    7.2299  -16.0688   21.9120 O   0  0  0  0  0  0  0  0  0  0  0  0
   11.9365  -18.0795   17.9915 N   0  0  0  0  0  0  0  0  0  0  0  0
   10.7604  -18.9396   18.0941 C   0  0  0  0  0  0  0  0  0  0  0  0
    9.8624  -18.8783   17.1940 N   0  0  0  0  0  0  0  0  0  0  0  0
   10.6140  -19.8246   19.1709 N   0  0  0  0  0  0  0  0  0  0  0  0
   10.4946  -19.4712   20.5377 C   0  0  0  0  0  0  0  0  0  0  0  0
   11.1021  -18.2154   21.0121 C   0  0  0  0  0  0  0  0  0  0  0  0
   10.9319  -17.7479   22.3853 C   0  0  0  0  0  0  0  0  0  0  0  0
    9.7507  -17.0171   22.8652 C   0  0  2  0  0  0  0  0  0  0  0  0
    9.5194  -15.8882   21.8957 N   0  0  0  0  0  0  0  0  0  0  0  0
    9.8063  -16.3596   24.1679 C   0  0  0  0  0  0  0  0  0  0  0  0
   10.6040  -15.3540   24.3379 O   0  0  0  0  0  0  0  0  0  0  0  0
    9.0077  -19.4256   17.2208 N   0  0  0  0  0  0  0  0  0  0  0  0
    9.0608  -16.6803   25.3252 C   0  0  1  0  0  0  0  0  0  0  0  0
    9.3430  -16.0923   26.6410 C   0  0  0  0  0  0  0  0  0  0  0  0
    8.1179  -15.5342   27.2680 C   0  0  0  0  0  0  0  0  0  0  0  0
    7.6767  -14.2515   26.6782 C   0  0  0  0  0  0  0  0  0  0  0  0
    6.5344  -14.1426   25.9065 C   0  0  0  0  0  0  0  0  0  0  0  0
    6.1076  -12.9535   25.3499 C   0  0  0  0  0  0  0  0  0  0  0  0
    6.8586  -11.8341   25.5786 C   0  0  0  0  0  0  0  0  0  0  0  0
    7.9914  -11.9244   26.3395 C   0  0  0  0  0  0  0  0  0  0  0  0
    8.4139  -13.1043   26.8914 C   0  0  0  0  0  0  0  0  0  0  0  0
   10.0422  -17.0672   27.5012 O   0  0  0  0  0  0  0  0  0  0  0  0
   10.4069  -16.7409   28.6364 O   0  0  0  0  0  0  0  0  0  0  0  0
  2  3  1  1
  2  1  1  0
  4  5  1  1
  4  2  1  0
  6  4  1  0
  7  6  2  0
  9  8  1  0
  9 11  1  0
 10  9  2  0
 11 12  1  0
 12 13  1  0
 13 14  1  0
 15 14  1  6
 15 17  1  0
 15 16  1  0
 16  6  1  0
 17 19  1  0
 18 17  2  0
 19 20  1  0
 20 28  1  0
 20 21  1  6
 22 21  1  0
 23 22  2  0
 24 23  1  0
 25 26  1  0
 25 24  2  0
 26 27  2  0
 27 22  1  0
 28 29  2  0
 28 30  1  0
M  END
$$$$
