VRF.pdb
     RDKit          3D

 30 30  0  0  1  0  0  0  0  0999 V2000
    7.9050  -12.0908   18.2926 C   0  0  0  0  0  0  0  0  0  0  0  0
    7.6637  -13.4108   19.0353 C   0  0  1  0  0  0  0  0  0  0  0  0
    7.6583  -14.4823   17.9441 C   0  0  0  0  0  0  0  0  0  0  0  0
    8.8494  -13.6477   19.9197 C   0  0  2  0  0  0  0  0  0  0  0  0
   10.0783  -13.7238   19.1894 N   0  0  0  0  0  0  0  0  0  0  0  0
    8.6948  -14.8671   20.7396 C   0  0  0  0  0  0  0  0  0  0  0  0
    7.6633  -14.9986   21.4479 O   0  0  0  0  0  0  0  0  0  0  0  0
    9.3847  -20.7800   19.6362 N   0  0  0  0  0  0  0  0  0  0  0  0
   10.3293  -21.8289   20.0112 C   0  0  0  0  0  0  0  0  0  0  0  0
   10.0530  -23.0423   19.7432 N   0  0  0  0  0  0  0  0  0  0  0  0
   11.5294  -21.5107   20.6616 N   0  0  0  0  0  0  0  0  0  0  0  0
   11.9340  -20.2237   21.0943 C   0  0  0  0  0  0  0  0  0  0  0  0
   10.9332  -19.3127   21.6770 C   0  0  0  0  0  0  0  0  0  0  0  0
   10.5641  -18.0573   21.0283 C   0  0  0  0  0  0  0  0  0  0  0  0
    9.5527  -17.1277   21.5503 C   0  0  2  0  0  0  0  0  0  0  0  0
    9.6684  -15.8649   20.7382 N   0  0  0  0  0  0  0  0  0  0  0  0
    9.6583  -16.6705   22.9332 C   0  0  0  0  0  0  0  0  0  0  0  0
   10.6794  -15.9590   23.2903 O   0  0  0  0  0  0  0  0  0  0  0  0
   10.6818  -23.8143   19.9412 N   0  0  0  0  0  0  0  0  0  0  0  0
    8.7446  -16.9007   23.9868 C   0  0  1  0  0  0  0  0  0  0  0  0
    8.5237  -15.9366   25.0725 C   0  0  0  0  0  0  0  0  0  0  0  0
    7.7046  -14.7819   24.6240 C   0  0  0  0  0  0  0  0  0  0  0  0
    7.4408  -13.7882   25.6873 C   0  0  0  0  0  0  0  0  0  0  0  0
    6.2186  -13.6912   26.3268 C   0  0  0  0  0  0  0  0  0  0  0  0
    5.9560  -12.7709   27.3219 C   0  0  0  0  0  0  0  0  0  0  0  0
    6.9605  -11.9175   27.6853 C   0  0  0  0  0  0  0  0  0  0  0  0
    8.1753  -11.9998   27.0627 C   0  0  0  0  0  0  0  0  0  0  0  0
    8.4350  -12.9131   26.0760 C   0  0  0  0  0  0  0  0  0  0  0  0
    7.9676  -16.6162   26.2592 O   0  0  0  0  0  0  0  0  0  0  0  0
    7.0080  -17.3860   26.1384 O   0  0  0  0  0  0  0  0  0  0  0  0
  2  3  1  6
  2  1  1  0
  4  5  1  6
  4  2  1  0
  6  4  1  0
  7  6  2  0
  9  8  1  0
  9 11  1  0
 10  9  2  0
 11 12  1  0
 12 13  1  0
 13 14  1  0
 15 14  1  6
 15 17  1  0
 15 16  1  0
 16  6  1  0
 17 19  1  0
 18 17  2  0
 19 20  1  0
 20 28  1  0
 20 21  1  1
 22 21  1  0
 23 22  2  0
 24 23  1  0
 25 26  1  0
 25 24  2  0
 26 27  2  0
 27 22  1  0
 28 29  2  0
 28 30  1  0
M  END
$$$$
