VRF.pdb
     RDKit          3D

 30 30  0  0  1  0  0  0  0  0999 V2000
    7.5260  -12.0702   18.5674 C   0  0  0  0  0  0  0  0  0  0  0  0
    7.4938  -13.3845   19.3573 C   0  0  1  0  0  0  0  0  0  0  0  0
    7.5300  -14.4843   18.2952 C   0  0  0  0  0  0  0  0  0  0  0  0
    8.7615  -13.4578   20.1521 C   0  0  2  0  0  0  0  0  0  0  0  0
    9.9311  -13.2794   19.3463 N   0  0  0  0  0  0  0  0  0  0  0  0
    8.8749  -14.7273   20.8993 C   0  0  0  0  0  0  0  0  0  0  0  0
    7.9372  -15.0696   21.6654 O   0  0  0  0  0  0  0  0  0  0  0  0
    9.9674  -21.6260   20.0891 N   0  0  0  0  0  0  0  0  0  0  0  0
   11.1491  -22.1385   20.7777 C   0  0  0  0  0  0  0  0  0  0  0  0
   11.1711  -23.3526   21.1596 N   0  0  0  0  0  0  0  0  0  0  0  0
   12.2510  -21.3073   21.0211 N   0  0  0  0  0  0  0  0  0  0  0  0
   12.2409  -19.8912   21.0647 C   0  0  0  0  0  0  0  0  0  0  0  0
   11.0334  -19.1664   20.6315 C   0  0  0  0  0  0  0  0  0  0  0  0
   10.9860  -17.7074   20.5841 C   0  0  0  0  0  0  0  0  0  0  0  0
   10.1231  -16.8839   21.4424 C   0  0  2  0  0  0  0  0  0  0  0  0
    9.9972  -15.5436   20.7674 N   0  0  0  0  0  0  0  0  0  0  0  0
   10.5717  -16.5593   22.7937 C   0  0  0  0  0  0  0  0  0  0  0  0
   11.6809  -15.9114   22.9559 O   0  0  0  0  0  0  0  0  0  0  0  0
   11.9267  -23.7511   21.7083 N   0  0  0  0  0  0  0  0  0  0  0  0
    9.9203  -16.8611   24.0114 C   0  0  2  0  0  0  0  0  0  0  0  0
   10.3435  -16.2982   25.3001 C   0  0  0  0  0  0  0  0  0  0  0  0
    9.2150  -15.6466   26.0125 C   0  0  0  0  0  0  0  0  0  0  0  0
    9.5726  -15.1308   27.3519 C   0  0  0  0  0  0  0  0  0  0  0  0
    9.8931  -15.9644   28.4076 C   0  0  0  0  0  0  0  0  0  0  0  0
   10.2304  -15.4999   29.6632 C   0  0  0  0  0  0  0  0  0  0  0  0
   10.2449  -14.1474   29.8625 C   0  0  0  0  0  0  0  0  0  0  0  0
    9.9302  -13.3089   28.8290 C   0  0  0  0  0  0  0  0  0  0  0  0
    9.5960  -13.7704   27.5838 C   0  0  0  0  0  0  0  0  0  0  0  0
   11.0259  -17.3255   26.1114 O   0  0  0  0  0  0  0  0  0  0  0  0
   10.5831  -18.4790   26.1490 O   0  0  0  0  0  0  0  0  0  0  0  0
  2  3  1  6
  2  1  1  0
  4  5  1  6
  4  2  1  0
  6  4  1  0
  7  6  2  0
  9  8  1  0
  9 11  1  0
 10  9  2  0
 11 12  1  0
 12 13  1  0
 13 14  1  0
 15 14  1  6
 15 17  1  0
 15 16  1  0
 16  6  1  0
 17 19  1  0
 18 17  2  0
 19 20  1  0
 20 28  1  0
 20 21  1  1
 22 21  1  0
 23 22  2  0
 24 23  1  0
 25 26  1  0
 25 24  2  0
 26 27  2  0
 27 22  1  0
 28 29  2  0
 28 30  1  0
M  END
$$$$
