VRF.pdb
     RDKit          3D

 30 30  0  0  1  0  0  0  0  0999 V2000
    6.8316  -18.5369   27.2490 C   0  0  0  0  0  0  0  0  0  0  0  0
    7.1184  -19.9088   26.6262 C   0  0  1  0  0  0  0  0  0  0  0  0
    6.1990  -20.8794   27.3688 C   0  0  0  0  0  0  0  0  0  0  0  0
    6.6799  -19.8490   25.1951 C   0  0  2  0  0  0  0  0  0  0  0  0
    6.6945  -21.1307   24.5577 N   0  0  0  0  0  0  0  0  0  0  0  0
    7.4949  -18.9036   24.4044 C   0  0  0  0  0  0  0  0  0  0  0  0
    8.6979  -19.1861   24.1676 O   0  0  0  0  0  0  0  0  0  0  0  0
    7.5583  -14.0050   17.4659 N   0  0  0  0  0  0  0  0  0  0  0  0
    8.0752  -13.3349   18.6563 C   0  0  0  0  0  0  0  0  0  0  0  0
    7.8335  -12.0973   18.8301 N   0  0  0  0  0  0  0  0  0  0  0  0
    8.8323  -14.0405   19.6015 N   0  0  0  0  0  0  0  0  0  0  0  0
    8.3813  -15.1184   20.4029 C   0  0  0  0  0  0  0  0  0  0  0  0
    7.3714  -14.8665   21.4458 C   0  0  0  0  0  0  0  0  0  0  0  0
    6.9146  -15.9214   22.3467 C   0  0  0  0  0  0  0  0  0  0  0  0
    7.7852  -16.6232   23.3002 C   0  0  2  0  0  0  0  0  0  0  0  0
    6.9527  -17.7135   23.9216 N   0  0  0  0  0  0  0  0  0  0  0  0
    8.3184  -15.8891   24.4444 C   0  0  0  0  0  0  0  0  0  0  0  0
    7.7269  -14.8056   24.8352 O   0  0  0  0  0  0  0  0  0  0  0  0
    8.1852  -11.5660   19.6205 N   0  0  0  0  0  0  0  0  0  0  0  0
    9.4437  -16.2238   25.2318 C   0  0  1  0  0  0  0  0  0  0  0  0
    9.9480  -15.3586   26.3060 C   0  0  0  0  0  0  0  0  0  0  0  0
    8.8667  -14.9558   27.2409 C   0  0  0  0  0  0  0  0  0  0  0  0
    8.0818  -13.7902   26.7792 C   0  0  0  0  0  0  0  0  0  0  0  0
    8.6704  -12.5864   26.4379 C   0  0  0  0  0  0  0  0  0  0  0  0
    7.9531  -11.4894   26.0040 C   0  0  0  0  0  0  0  0  0  0  0  0
    6.5944  -11.6094   25.9109 C   0  0  0  0  0  0  0  0  0  0  0  0
    5.9962  -12.7931   26.2448 C   0  0  0  0  0  0  0  0  0  0  0  0
    6.7084  -13.8807   26.6749 C   0  0  0  0  0  0  0  0  0  0  0  0
   11.0940  -15.9954   26.9846 O   0  0  0  0  0  0  0  0  0  0  0  0
   11.6425  -15.4285   27.9364 O   0  0  0  0  0  0  0  0  0  0  0  0
  2  3  1  1
  2  1  1  0
  4  5  1  6
  4  2  1  0
  6  4  1  0
  7  6  2  0
  9  8  1  0
  9 11  1  0
 10  9  2  0
 11 12  1  0
 12 13  1  0
 13 14  1  0
 15 14  1  6
 15 17  1  0
 15 16  1  0
 16  6  1  0
 17 19  1  0
 18 17  2  0
 19 20  1  0
 20 28  1  0
 20 21  1  1
 22 21  1  0
 23 22  2  0
 24 23  1  0
 25 26  1  0
 25 24  2  0
 26 27  2  0
 27 22  1  0
 28 29  2  0
 28 30  1  0
M  END
$$$$
