VRF.pdb
     RDKit          3D

 30 30  0  0  1  0  0  0  0  0999 V2000
    8.6088  -12.4559   21.3201 C   0  0  0  0  0  0  0  0  0  0  0  0
    7.5351  -13.0708   20.4138 C   0  0  1  0  0  0  0  0  0  0  0  0
    7.4829  -12.1575   19.1882 C   0  0  0  0  0  0  0  0  0  0  0  0
    8.0359  -14.4135   19.9774 C   0  0  2  0  0  0  0  0  0  0  0  0
    7.2471  -14.9840   18.9278 N   0  0  0  0  0  0  0  0  0  0  0  0
    8.1129  -15.3688   21.1018 C   0  0  0  0  0  0  0  0  0  0  0  0
    7.0466  -15.8385   21.5768 O   0  0  0  0  0  0  0  0  0  0  0  0
   11.5044  -22.3880   23.0593 N   0  0  0  0  0  0  0  0  0  0  0  0
   11.5040  -21.9443   21.6678 C   0  0  0  0  0  0  0  0  0  0  0  0
   10.9340  -22.6618   20.7843 N   0  0  0  0  0  0  0  0  0  0  0  0
   12.1247  -20.7424   21.3008 N   0  0  0  0  0  0  0  0  0  0  0  0
   12.3485  -19.6229   22.1398 C   0  0  0  0  0  0  0  0  0  0  0  0
   11.1925  -18.8950   22.6921 C   0  0  0  0  0  0  0  0  0  0  0  0
   10.6299  -17.7234   22.0258 C   0  0  0  0  0  0  0  0  0  0  0  0
    9.5040  -16.9392   22.5520 C   0  0  2  0  0  0  0  0  0  0  0  0
    9.3409  -15.7532   21.6383 N   0  0  0  0  0  0  0  0  0  0  0  0
    9.6136  -16.3484   23.8829 C   0  0  0  0  0  0  0  0  0  0  0  0
   10.5493  -15.4852   24.1193 O   0  0  0  0  0  0  0  0  0  0  0  0
   10.9153  -22.4220   19.7980 N   0  0  0  0  0  0  0  0  0  0  0  0
    8.7875  -16.5943   25.0033 C   0  0  1  0  0  0  0  0  0  0  0  0
    9.1304  -16.1435   26.3582 C   0  0  0  0  0  0  0  0  0  0  0  0
    7.9682  -15.5197   27.0406 C   0  0  0  0  0  0  0  0  0  0  0  0
    7.6722  -14.1458   26.5798 C   0  0  0  0  0  0  0  0  0  0  0  0
    6.4964  -13.8172   25.9305 C   0  0  0  0  0  0  0  0  0  0  0  0
    6.2036  -12.5402   25.4952 C   0  0  0  0  0  0  0  0  0  0  0  0
    7.1285  -11.5592   25.7217 C   0  0  0  0  0  0  0  0  0  0  0  0
    8.2969  -11.8672   26.3624 C   0  0  0  0  0  0  0  0  0  0  0  0
    8.5864  -13.1341   26.7940 C   0  0  0  0  0  0  0  0  0  0  0  0
    9.7328  -17.2477   27.1311 O   0  0  0  0  0  0  0  0  0  0  0  0
    9.7601  -18.3900   26.6595 O   0  0  0  0  0  0  0  0  0  0  0  0
  2  3  1  6
  2  1  1  0
  4  5  1  6
  4  2  1  0
  6  4  1  0
  7  6  2  0
  9  8  1  0
  9 11  1  0
 10  9  2  0
 11 12  1  0
 12 13  1  0
 13 14  1  0
 15 14  1  6
 15 17  1  0
 15 16  1  0
 16  6  1  0
 17 19  1  0
 18 17  2  0
 19 20  1  0
 20 28  1  0
 20 21  1  1
 22 21  1  0
 23 22  2  0
 24 23  1  0
 25 26  1  0
 25 24  2  0
 26 27  2  0
 27 22  1  0
 28 29  2  0
 28 30  1  0
M  END
$$$$
