VRF.pdb
     RDKit          3D

 30 30  0  0  1  0  0  0  0  0999 V2000
    8.6076  -12.2477   19.0790 C   0  0  0  0  0  0  0  0  0  0  0  0
    8.6592  -13.2011   20.2793 C   0  0  1  0  0  0  0  0  0  0  0  0
    7.5739  -12.6963   21.2312 C   0  0  0  0  0  0  0  0  0  0  0  0
    8.2583  -14.5582   19.7879 C   0  0  2  0  0  0  0  0  0  0  0  0
    7.0191  -14.5437   19.0714 N   0  0  0  0  0  0  0  0  0  0  0  0
    8.1733  -15.5428   20.8862 C   0  0  0  0  0  0  0  0  0  0  0  0
    7.0469  -15.8113   21.3784 O   0  0  0  0  0  0  0  0  0  0  0  0
    7.6466  -20.9443   19.3041 N   0  0  0  0  0  0  0  0  0  0  0  0
    8.7994  -21.0270   18.4110 C   0  0  0  0  0  0  0  0  0  0  0  0
    8.6310  -21.4104   17.2089 N   0  0  0  0  0  0  0  0  0  0  0  0
   10.0817  -20.6912   18.8663 N   0  0  0  0  0  0  0  0  0  0  0  0
   10.4090  -20.1652   20.1405 C   0  0  0  0  0  0  0  0  0  0  0  0
    9.6060  -19.0588   20.6903 C   0  0  0  0  0  0  0  0  0  0  0  0
    9.9597  -18.3995   21.9446 C   0  0  0  0  0  0  0  0  0  0  0  0
    9.2751  -17.2102   22.4705 C   0  0  2  0  0  0  0  0  0  0  0  0
    9.3149  -16.1727   21.3797 N   0  0  0  0  0  0  0  0  0  0  0  0
    9.8373  -16.5254   23.6313 C   0  0  0  0  0  0  0  0  0  0  0  0
   10.9127  -15.8179   23.4918 O   0  0  0  0  0  0  0  0  0  0  0  0
    9.3979  -21.5927   16.5691 N   0  0  0  0  0  0  0  0  0  0  0  0
    9.3349  -16.5195   24.9525 C   0  0  1  0  0  0  0  0  0  0  0  0
   10.0205  -15.8425   26.0608 C   0  0  0  0  0  0  0  0  0  0  0  0
    9.9526  -14.3649   25.9287 C   0  0  0  0  0  0  0  0  0  0  0  0
    8.5895  -13.8132   26.0887 C   0  0  0  0  0  0  0  0  0  0  0  0
    8.1842  -13.1557   27.2357 C   0  0  0  0  0  0  0  0  0  0  0  0
    6.9168  -12.6337   27.4009 C   0  0  0  0  0  0  0  0  0  0  0  0
    6.0258  -12.7797   26.3742 C   0  0  0  0  0  0  0  0  0  0  0  0
    6.4104  -13.4277   25.2329 C   0  0  0  0  0  0  0  0  0  0  0  0
    7.6679  -13.9449   25.0697 C   0  0  0  0  0  0  0  0  0  0  0  0
    9.5122  -16.3330   27.3571 O   0  0  0  0  0  0  0  0  0  0  0  0
    8.5673  -17.1293   27.3898 O   0  0  0  0  0  0  0  0  0  0  0  0
  2  3  1  1
  2  1  1  0
  4  5  1  1
  4  2  1  0
  6  4  1  0
  7  6  2  0
  9  8  1  0
  9 11  1  0
 10  9  2  0
 11 12  1  0
 12 13  1  0
 13 14  1  0
 15 14  1  6
 15 17  1  0
 15 16  1  0
 16  6  1  0
 17 19  1  0
 18 17  2  0
 19 20  1  0
 20 28  1  0
 20 21  1  6
 22 21  1  0
 23 22  2  0
 24 23  1  0
 25 26  1  0
 25 24  2  0
 26 27  2  0
 27 22  1  0
 28 29  2  0
 28 30  1  0
M  END
$$$$
