KHV.pdb
     RDKit          3D

 27 27  0  0  1  0  0  0  0  0999 V2000
    6.0573  -16.1507   19.3110 N   0  0  0  0  0  0  0  0  0  0  0  0
    6.9442  -15.4688   20.1845 C   0  0  1  0  0  0  0  0  0  0  0  0
    6.9731  -13.9850   20.0694 C   0  0  0  0  0  0  0  0  0  0  0  0
    7.2840  -13.4643   18.7022 C   0  0  0  0  0  0  0  0  0  0  0  0
    8.6216  -13.8243   18.1629 C   0  0  0  0  0  0  0  0  0  0  0  0
    8.8584  -13.2729   16.7705 C   0  0  0  0  0  0  0  0  0  0  0  0
   10.0936  -13.7640   16.2070 N   0  0  0  0  0  0  0  0  0  0  0  0
    6.7621  -15.8246   21.6247 C   0  0  0  0  0  0  0  0  0  0  0  0
    5.6321  -15.6623   22.1679 O   0  0  0  0  0  0  0  0  0  0  0  0
    7.7800  -16.3449   22.4589 N   0  0  0  0  0  0  0  0  0  0  0  0
    7.5933  -16.6242   23.8756 C   0  0  1  0  0  0  0  0  0  0  0  0
    8.1209  -18.0146   24.2039 C   0  0  0  0  0  0  0  0  0  0  0  0
    8.0140  -18.3681   25.6058 C   0  0  0  0  0  0  0  0  0  0  0  0
    9.0149  -18.6439   26.5124 C   0  0  0  0  0  0  0  0  0  0  0  0
    8.4290  -18.9400   27.6925 N   0  0  0  0  0  0  0  0  0  0  0  0
    7.0940  -18.8591   27.5551 C   0  0  0  0  0  0  0  0  0  0  0  0
    6.8361  -18.5105   26.2832 N   0  0  0  0  0  0  0  0  0  0  0  0
    8.2785  -15.6513   24.7283 C   0  0  0  0  0  0  0  0  0  0  0  0
    9.4631  -15.3465   24.4553 O   0  0  0  0  0  0  0  0  0  0  0  0
    7.2440  -12.1070   25.6515 C   0  0  0  0  0  0  0  0  0  0  0  0
    7.5884  -12.8269   26.9309 C   0  0  1  0  0  0  0  0  0  0  0  0
    6.3461  -13.1231   27.7002 C   0  0  0  0  0  0  0  0  0  0  0  0
    8.3969  -14.0682   26.6039 C   0  0  2  0  0  0  0  0  0  0  0  0
    7.6585  -15.0288   25.8604 N   0  0  0  0  0  0  0  0  0  0  0  0
    8.9771  -14.6340   27.8468 C   0  0  0  0  0  0  0  0  0  0  0  0
    9.8562  -13.9447   28.6617 O   0  0  0  0  0  0  0  0  0  0  0  0
    8.6575  -15.8014   28.1830 O   0  0  0  0  0  0  0  0  0  0  0  0
  2  1  1  6
  2  8  1  0
  2  3  1  0
  4  3  1  0
  5  4  1  0
  6  5  1  0
  7  6  1  0
  8  9  2  0
 10 11  1  0
 10  8  1  0
 11 12  1  6
 12 13  1  0
 13 14  2  0
 15 14  1  0
 16 15  1  0
 17 16  2  0
 17 13  1  0
 18 11  1  0
 19 18  2  0
 21 20  1  6
 21 23  1  0
 22 21  1  0
 23 25  1  0
 23 24  1  1
 24 18  1  0
 25 26  1  0
 27 25  2  0
M  END
$$$$
