KHV.pdb
     RDKit          3D

 27 27  0  0  1  0  0  0  0  0999 V2000
   11.4690  -16.7775   19.4653 N   0  0  0  0  0  0  0  0  0  0  0  0
   11.1581  -17.3941   20.7054 C   0  0  1  0  0  0  0  0  0  0  0  0
   12.2442  -18.1935   21.3357 C   0  0  0  0  0  0  0  0  0  0  0  0
   12.9714  -19.1127   20.4066 C   0  0  0  0  0  0  0  0  0  0  0  0
   13.9396  -20.0426   21.0451 C   0  0  0  0  0  0  0  0  0  0  0  0
   14.7107  -20.8686   20.0342 C   0  0  0  0  0  0  0  0  0  0  0  0
   15.6702  -21.7352   20.6765 N   0  0  0  0  0  0  0  0  0  0  0  0
   10.6167  -16.4485   21.7284 C   0  0  0  0  0  0  0  0  0  0  0  0
   11.0788  -15.2738   21.7965 O   0  0  0  0  0  0  0  0  0  0  0  0
    9.5975  -16.7667   22.6573 N   0  0  0  0  0  0  0  0  0  0  0  0
    9.1117  -15.8369   23.6670 C   0  0  1  0  0  0  0  0  0  0  0  0
    7.5954  -15.9320   23.7726 C   0  0  0  0  0  0  0  0  0  0  0  0
    7.0171  -15.0350   24.7539 C   0  0  0  0  0  0  0  0  0  0  0  0
    6.1802  -15.3239   25.8102 C   0  0  0  0  0  0  0  0  0  0  0  0
    5.8897  -14.1614   26.4329 N   0  0  0  0  0  0  0  0  0  0  0  0
    6.5168  -13.1536   25.8013 C   0  0  0  0  0  0  0  0  0  0  0  0
    7.2059  -13.6821   24.7758 N   0  0  0  0  0  0  0  0  0  0  0  0
    9.6892  -16.0987   24.9864 C   0  0  0  0  0  0  0  0  0  0  0  0
   10.0653  -17.2639   25.2542 O   0  0  0  0  0  0  0  0  0  0  0  0
   11.1386  -14.6882   29.4742 C   0  0  0  0  0  0  0  0  0  0  0  0
   10.2880  -14.3406   28.2786 C   0  0  1  0  0  0  0  0  0  0  0  0
   10.6733  -13.0006   27.7504 C   0  0  0  0  0  0  0  0  0  0  0  0
   10.4044  -15.4445   27.2445 C   0  0  2  0  0  0  0  0  0  0  0  0
    9.8468  -15.0852   25.9872 N   0  0  0  0  0  0  0  0  0  0  0  0
    9.8305  -16.7024   27.7829 C   0  0  0  0  0  0  0  0  0  0  0  0
   10.5048  -17.5375   28.6546 O   0  0  0  0  0  0  0  0  0  0  0  0
    8.6705  -17.0331   27.4322 O   0  0  0  0  0  0  0  0  0  0  0  0
  2  1  1  6
  2  8  1  0
  2  3  1  0
  4  3  1  0
  5  4  1  0
  6  5  1  0
  7  6  1  0
  8  9  2  0
 10 11  1  0
 10  8  1  0
 11 12  1  1
 12 13  1  0
 13 14  2  0
 15 14  1  0
 16 15  1  0
 17 16  2  0
 17 13  1  0
 18 11  1  0
 19 18  2  0
 21 20  1  1
 21 23  1  0
 22 21  1  0
 23 25  1  0
 23 24  1  6
 24 18  1  0
 25 26  1  0
 27 25  2  0
M  END
$$$$
