KHV.pdb
     RDKit          3D

 27 27  0  0  1  0  0  0  0  0999 V2000
    4.5104  -17.7869   20.5768 N   0  0  0  0  0  0  0  0  0  0  0  0
    4.0977  -17.5421   21.9127 C   0  0  1  0  0  0  0  0  0  0  0  0
    3.2062  -18.5643   22.5259 C   0  0  0  0  0  0  0  0  0  0  0  0
    2.9598  -19.7743   21.6820 C   0  0  0  0  0  0  0  0  0  0  0  0
    1.5330  -20.1319   21.4671 C   0  0  0  0  0  0  0  0  0  0  0  0
    1.3632  -21.3613   20.5961 C   0  0  0  0  0  0  0  0  0  0  0  0
    0.6713  -22.4176   21.2960 N   0  0  0  0  0  0  0  0  0  0  0  0
    5.2291  -17.2806   22.8535 C   0  0  0  0  0  0  0  0  0  0  0  0
    4.9885  -17.0995   24.0814 O   0  0  0  0  0  0  0  0  0  0  0  0
    6.5912  -17.2169   22.4746 N   0  0  0  0  0  0  0  0  0  0  0  0
    7.6777  -16.9906   23.4170 C   0  0  1  0  0  0  0  0  0  0  0  0
    9.0168  -17.2231   22.7300 C   0  0  0  0  0  0  0  0  0  0  0  0
   10.1626  -17.0475   23.6007 C   0  0  0  0  0  0  0  0  0  0  0  0
   11.0511  -15.9960   23.6680 C   0  0  0  0  0  0  0  0  0  0  0  0
   11.9629  -16.2901   24.6198 N   0  0  0  0  0  0  0  0  0  0  0  0
   11.6749  -17.4913   25.1508 C   0  0  0  0  0  0  0  0  0  0  0  0
   10.5771  -17.9573   24.5317 N   0  0  0  0  0  0  0  0  0  0  0  0
    7.6633  -15.6334   23.9653 C   0  0  0  0  0  0  0  0  0  0  0  0
    7.7458  -14.6668   23.1717 O   0  0  0  0  0  0  0  0  0  0  0  0
    6.6956  -12.5443   24.9714 C   0  0  0  0  0  0  0  0  0  0  0  0
    7.3107  -13.0809   26.2393 C   0  0  1  0  0  0  0  0  0  0  0  0
    6.2399  -13.4642   27.2034 C   0  0  0  0  0  0  0  0  0  0  0  0
    8.2421  -14.2281   25.8963 C   0  0  2  0  0  0  0  0  0  0  0  0
    7.5580  -15.3564   25.3674 N   0  0  0  0  0  0  0  0  0  0  0  0
    9.0767  -14.5696   27.0746 C   0  0  0  0  0  0  0  0  0  0  0  0
    9.8917  -13.6596   27.7224 O   0  0  0  0  0  0  0  0  0  0  0  0
    9.0469  -15.7467   27.5125 O   0  0  0  0  0  0  0  0  0  0  0  0
  2  1  1  6
  2  8  1  0
  2  3  1  0
  4  3  1  0
  5  4  1  0
  6  5  1  0
  7  6  1  0
  8  9  2  0
 10 11  1  0
 10  8  1  0
 11 12  1  6
 12 13  1  0
 13 14  2  0
 15 14  1  0
 16 15  1  0
 17 16  2  0
 17 13  1  0
 18 11  1  0
 19 18  2  0
 21 20  1  6
 21 23  1  0
 22 21  1  0
 23 25  1  0
 23 24  1  1
 24 18  1  0
 25 26  1  0
 27 25  2  0
M  END
$$$$
