KHV.pdb
     RDKit          3D

 27 27  0  0  1  0  0  0  0  0999 V2000
    7.4166  -16.1390   18.7390 N   0  0  0  0  0  0  0  0  0  0  0  0
    7.8686  -15.1678   19.6703 C   0  0  1  0  0  0  0  0  0  0  0  0
    7.5550  -13.7487   19.3485 C   0  0  0  0  0  0  0  0  0  0  0  0
    7.4646  -13.4380   17.8883 C   0  0  0  0  0  0  0  0  0  0  0  0
    8.4447  -14.1384   17.0173 C   0  0  0  0  0  0  0  0  0  0  0  0
    8.3169  -13.7443   15.5588 C   0  0  0  0  0  0  0  0  0  0  0  0
    9.2148  -14.5044   14.7219 N   0  0  0  0  0  0  0  0  0  0  0  0
    7.4388  -15.4366   21.0763 C   0  0  0  0  0  0  0  0  0  0  0  0
    6.2651  -15.1353   21.4367 O   0  0  0  0  0  0  0  0  0  0  0  0
    8.2605  -16.0190   22.0705 N   0  0  0  0  0  0  0  0  0  0  0  0
    7.8087  -16.2926   23.4273 C   0  0  1  0  0  0  0  0  0  0  0  0
    8.2375  -17.6932   23.8440 C   0  0  0  0  0  0  0  0  0  0  0  0
    7.9240  -18.0186   25.2215 C   0  0  0  0  0  0  0  0  0  0  0  0
    6.7423  -17.8446   25.9094 C   0  0  0  0  0  0  0  0  0  0  0  0
    6.9358  -18.2793   27.1732 N   0  0  0  0  0  0  0  0  0  0  0  0
    8.1999  -18.7197   27.2998 C   0  0  0  0  0  0  0  0  0  0  0  0
    8.8067  -18.5623   26.1113 N   0  0  0  0  0  0  0  0  0  0  0  0
    8.3439  -15.3330   24.3947 C   0  0  0  0  0  0  0  0  0  0  0  0
    9.5352  -14.9629   24.2735 O   0  0  0  0  0  0  0  0  0  0  0  0
    6.8138  -11.9594   25.6642 C   0  0  0  0  0  0  0  0  0  0  0  0
    7.2449  -12.7916   26.8454 C   0  0  1  0  0  0  0  0  0  0  0  0
    6.0485  -13.3220   27.5599 C   0  0  0  0  0  0  0  0  0  0  0  0
    8.1875  -13.8817   26.3714 C   0  0  2  0  0  0  0  0  0  0  0  0
    7.5699  -14.7949   25.4740 N   0  0  0  0  0  0  0  0  0  0  0  0
    8.8025  -14.5595   27.5392 C   0  0  0  0  0  0  0  0  0  0  0  0
    9.6288  -13.9203   28.4451 O   0  0  0  0  0  0  0  0  0  0  0  0
    8.5646  -15.7795   27.7211 O   0  0  0  0  0  0  0  0  0  0  0  0
  2  1  1  6
  2  8  1  0
  2  3  1  0
  4  3  1  0
  5  4  1  0
  6  5  1  0
  7  6  1  0
  8  9  2  0
 10 11  1  0
 10  8  1  0
 11 12  1  1
 12 13  1  0
 13 14  2  0
 15 14  1  0
 16 15  1  0
 17 16  2  0
 17 13  1  0
 18 11  1  0
 19 18  2  0
 21 20  1  6
 21 23  1  0
 22 21  1  0
 23 25  1  0
 23 24  1  1
 24 18  1  0
 25 26  1  0
 27 25  2  0
M  END
$$$$
