KHV.pdb
     RDKit          3D

 27 27  0  0  1  0  0  0  0  0999 V2000
    6.1525  -17.6327   19.6279 N   0  0  0  0  0  0  0  0  0  0  0  0
    7.0187  -16.7796   20.3605 C   0  0  1  0  0  0  0  0  0  0  0  0
    7.0136  -15.3426   19.9721 C   0  0  0  0  0  0  0  0  0  0  0  0
    7.7489  -15.0282   18.7082 C   0  0  0  0  0  0  0  0  0  0  0  0
    7.7698  -13.5954   18.3127 C   0  0  0  0  0  0  0  0  0  0  0  0
    8.5292  -13.3559   17.0225 C   0  0  0  0  0  0  0  0  0  0  0  0
    8.5860  -11.9518   16.6915 N   0  0  0  0  0  0  0  0  0  0  0  0
    6.8373  -16.8663   21.8415 C   0  0  0  0  0  0  0  0  0  0  0  0
    5.6710  -16.9511   22.3219 O   0  0  0  0  0  0  0  0  0  0  0  0
    7.8946  -16.8618   22.7823 N   0  0  0  0  0  0  0  0  0  0  0  0
    7.6890  -16.9252   24.2223 C   0  0  1  0  0  0  0  0  0  0  0  0
    8.3404  -18.1819   24.7841 C   0  0  0  0  0  0  0  0  0  0  0  0
    8.2127  -18.3177   26.2219 C   0  0  0  0  0  0  0  0  0  0  0  0
    7.1682  -17.9476   27.0414 C   0  0  0  0  0  0  0  0  0  0  0  0
    7.5132  -18.2563   28.3100 N   0  0  0  0  0  0  0  0  0  0  0  0
    8.7396  -18.8074   28.3122 C   0  0  0  0  0  0  0  0  0  0  0  0
    9.1704  -18.8467   27.0400 N   0  0  0  0  0  0  0  0  0  0  0  0
    8.2455  -15.7613   24.9142 C   0  0  0  0  0  0  0  0  0  0  0  0
    9.4257  -15.4233   24.6619 O   0  0  0  0  0  0  0  0  0  0  0  0
    6.6735  -12.2681   25.3411 C   0  0  0  0  0  0  0  0  0  0  0  0
    7.2103  -12.6978   26.6831 C   0  0  1  0  0  0  0  0  0  0  0  0
    6.0829  -12.9814   27.6167 C   0  0  0  0  0  0  0  0  0  0  0  0
    8.1393  -13.8820   26.4939 C   0  0  2  0  0  0  0  0  0  0  0  0
    7.5042  -14.9882   25.8662 N   0  0  0  0  0  0  0  0  0  0  0  0
    8.7643  -14.2449   27.7898 C   0  0  0  0  0  0  0  0  0  0  0  0
    8.6540  -15.4968   28.3665 O   0  0  0  0  0  0  0  0  0  0  0  0
    9.4305  -13.3733   28.4016 O   0  0  0  0  0  0  0  0  0  0  0  0
  2  1  1  6
  2  8  1  0
  2  3  1  0
  4  3  1  0
  5  4  1  0
  6  5  1  0
  7  6  1  0
  8  9  2  0
 10 11  1  0
 10  8  1  0
 11 12  1  1
 12 13  1  0
 13 14  2  0
 15 14  1  0
 16 15  1  0
 17 16  2  0
 17 13  1  0
 18 11  1  0
 19 18  2  0
 21 20  1  6
 21 23  1  0
 22 21  1  0
 23 25  1  0
 23 24  1  1
 24 18  1  0
 25 26  1  0
 27 25  2  0
M  END
$$$$
