KHV.pdb
     RDKit          3D

 27 27  0  0  1  0  0  0  0  0999 V2000
   10.9144  -13.9395   19.2834 N   0  0  0  0  0  0  0  0  0  0  0  0
    9.7152  -13.3040   19.6991 C   0  0  1  0  0  0  0  0  0  0  0  0
    8.7133  -13.0239   18.6344 C   0  0  0  0  0  0  0  0  0  0  0  0
    8.4856  -14.1455   17.6716 C   0  0  0  0  0  0  0  0  0  0  0  0
    7.4874  -13.8850   16.6013 C   0  0  0  0  0  0  0  0  0  0  0  0
    7.2708  -15.0844   15.6993 C   0  0  0  0  0  0  0  0  0  0  0  0
    6.2565  -14.8258   14.7051 N   0  0  0  0  0  0  0  0  0  0  0  0
    9.0223  -14.0035   20.8236 C   0  0  0  0  0  0  0  0  0  0  0  0
    7.9693  -13.5036   21.3130 O   0  0  0  0  0  0  0  0  0  0  0  0
    9.4588  -15.2174   21.4056 N   0  0  0  0  0  0  0  0  0  0  0  0
    8.7933  -15.8522   22.5344 C   0  0  1  0  0  0  0  0  0  0  0  0
    9.3703  -17.2433   22.7610 C   0  0  0  0  0  0  0  0  0  0  0  0
    8.8633  -17.9038   23.9478 C   0  0  0  0  0  0  0  0  0  0  0  0
    9.4785  -18.0968   25.1660 C   0  0  0  0  0  0  0  0  0  0  0  0
    8.6214  -18.7806   25.9543 N   0  0  0  0  0  0  0  0  0  0  0  0
    7.4896  -19.0226   25.2700 C   0  0  0  0  0  0  0  0  0  0  0  0
    7.6328  -18.4895   24.0449 N   0  0  0  0  0  0  0  0  0  0  0  0
    8.9370  -15.0799   23.7696 C   0  0  0  0  0  0  0  0  0  0  0  0
   10.0391  -14.5328   24.0080 O   0  0  0  0  0  0  0  0  0  0  0  0
    5.7188  -13.7842   26.3522 C   0  0  0  0  0  0  0  0  0  0  0  0
    7.0416  -13.0959   26.1277 C   0  0  1  0  0  0  0  0  0  0  0  0
    7.3495  -12.1952   27.2753 C   0  0  0  0  0  0  0  0  0  0  0  0
    8.1142  -14.1411   25.8862 C   0  0  2  0  0  0  0  0  0  0  0  0
    7.8765  -14.9179   24.7197 N   0  0  0  0  0  0  0  0  0  0  0  0
    8.2872  -14.9761   27.1004 C   0  0  0  0  0  0  0  0  0  0  0  0
    8.9562  -14.5481   28.2323 O   0  0  0  0  0  0  0  0  0  0  0  0
    7.8029  -16.1352   27.1078 O   0  0  0  0  0  0  0  0  0  0  0  0
  2  1  1  6
  2  8  1  0
  2  3  1  0
  4  3  1  0
  5  4  1  0
  6  5  1  0
  7  6  1  0
  8  9  2  0
 10 11  1  0
 10  8  1  0
 11 12  1  1
 12 13  1  0
 13 14  2  0
 15 14  1  0
 16 15  1  0
 17 16  2  0
 17 13  1  0
 18 11  1  0
 19 18  2  0
 21 20  1  1
 21 23  1  0
 22 21  1  0
 23 25  1  0
 23 24  1  6
 24 18  1  0
 25 26  1  0
 27 25  2  0
M  END
$$$$
