KHV.pdb
     RDKit          3D

 27 27  0  0  1  0  0  0  0  0999 V2000
    6.7679  -18.1092   20.8338 N   0  0  0  0  0  0  0  0  0  0  0  0
    8.1850  -18.1797   20.7924 C   0  0  1  0  0  0  0  0  0  0  0  0
    8.7862  -18.6311   19.5076 C   0  0  0  0  0  0  0  0  0  0  0  0
    7.8703  -19.4172   18.6243 C   0  0  0  0  0  0  0  0  0  0  0  0
    8.4794  -19.9585   17.3811 C   0  0  0  0  0  0  0  0  0  0  0  0
    7.4696  -20.6563   16.4910 C   0  0  0  0  0  0  0  0  0  0  0  0
    7.0933  -19.8328   15.3665 N   0  0  0  0  0  0  0  0  0  0  0  0
    8.8628  -16.9144   21.2090 C   0  0  0  0  0  0  0  0  0  0  0  0
   10.1257  -16.8657   21.2392 O   0  0  0  0  0  0  0  0  0  0  0  0
    8.1891  -15.7278   21.5843 N   0  0  0  0  0  0  0  0  0  0  0  0
    8.8742  -14.5099   21.9931 C   0  0  1  0  0  0  0  0  0  0  0  0
    8.2382  -13.3043   21.3139 C   0  0  0  0  0  0  0  0  0  0  0  0
    8.2441  -13.3744   19.8658 C   0  0  0  0  0  0  0  0  0  0  0  0
    7.2130  -13.1481   18.9796 C   0  0  0  0  0  0  0  0  0  0  0  0
    7.6915  -13.3522   17.7333 N   0  0  0  0  0  0  0  0  0  0  0  0
    8.9882  -13.6991   17.8096 C   0  0  0  0  0  0  0  0  0  0  0  0
    9.3297  -13.7142   19.1092 N   0  0  0  0  0  0  0  0  0  0  0  0
    8.8291  -14.3073   23.4422 C   0  0  0  0  0  0  0  0  0  0  0  0
    9.0091  -13.1508   23.8904 O   0  0  0  0  0  0  0  0  0  0  0  0
    7.3210  -12.9478   25.2708 C   0  0  0  0  0  0  0  0  0  0  0  0
    7.2893  -14.2088   26.0970 C   0  0  1  0  0  0  0  0  0  0  0  0
    5.9964  -14.9221   25.8902 C   0  0  0  0  0  0  0  0  0  0  0  0
    8.4994  -15.0587   25.7585 C   0  0  2  0  0  0  0  0  0  0  0  0
    8.5872  -15.3689   24.3740 N   0  0  0  0  0  0  0  0  0  0  0  0
    8.5208  -16.2697   26.6155 C   0  0  0  0  0  0  0  0  0  0  0  0
    8.5524  -16.2268   27.9972 O   0  0  0  0  0  0  0  0  0  0  0  0
    8.5101  -17.3980   26.0633 O   0  0  0  0  0  0  0  0  0  0  0  0
  2  1  1  6
  2  8  1  0
  2  3  1  0
  4  3  1  0
  5  4  1  0
  6  5  1  0
  7  6  1  0
  8  9  2  0
 10 11  1  0
 10  8  1  0
 11 12  1  6
 12 13  1  0
 13 14  2  0
 15 14  1  0
 16 15  1  0
 17 16  2  0
 17 13  1  0
 18 11  1  0
 19 18  2  0
 21 20  1  6
 21 23  1  0
 22 21  1  0
 23 25  1  0
 23 24  1  6
 24 18  1  0
 25 26  1  0
 27 25  2  0
M  END
$$$$
