KHV.pdb
     RDKit          3D

 27 27  0  0  1  0  0  0  0  0999 V2000
    8.9206  -15.4931   19.1766 N   0  0  0  0  0  0  0  0  0  0  0  0
    8.4801  -14.4111   19.9828 C   0  0  1  0  0  0  0  0  0  0  0  0
    7.4584  -13.5119   19.3799 C   0  0  0  0  0  0  0  0  0  0  0  0
    7.1517  -13.7809   17.9410 C   0  0  0  0  0  0  0  0  0  0  0  0
    8.3273  -13.8659   17.0352 C   0  0  0  0  0  0  0  0  0  0  0  0
    7.9347  -13.9297   15.5721 C   0  0  0  0  0  0  0  0  0  0  0  0
    9.0897  -14.0691   14.7171 N   0  0  0  0  0  0  0  0  0  0  0  0
    8.0007  -14.8256   21.3364 C   0  0  0  0  0  0  0  0  0  0  0  0
    7.4914  -13.9629   22.1074 O   0  0  0  0  0  0  0  0  0  0  0  0
    8.0703  -16.1446   21.8445 N   0  0  0  0  0  0  0  0  0  0  0  0
    7.5597  -16.5297   23.1525 C   0  0  1  0  0  0  0  0  0  0  0  0
    7.9536  -17.9684   23.4598 C   0  0  0  0  0  0  0  0  0  0  0  0
    7.4900  -18.4423   24.7491 C   0  0  0  0  0  0  0  0  0  0  0  0
    6.7027  -17.8000   25.6805 C   0  0  0  0  0  0  0  0  0  0  0  0
    6.5524  -18.6318   26.7336 N   0  0  0  0  0  0  0  0  0  0  0  0
    7.2197  -19.7739   26.4929 C   0  0  0  0  0  0  0  0  0  0  0  0
    7.7936  -19.6626   25.2829 N   0  0  0  0  0  0  0  0  0  0  0  0
    8.0665  -15.6681   24.2220 C   0  0  0  0  0  0  0  0  0  0  0  0
    9.3035  -15.4857   24.3075 O   0  0  0  0  0  0  0  0  0  0  0  0
    7.4722  -11.9954   27.3749 C   0  0  0  0  0  0  0  0  0  0  0  0
    6.7779  -13.0037   26.4945 C   0  0  1  0  0  0  0  0  0  0  0  0
    6.1130  -12.3125   25.3530 C   0  0  0  0  0  0  0  0  0  0  0  0
    7.7787  -14.0548   26.0531 C   0  0  2  0  0  0  0  0  0  0  0  0
    7.2150  -15.0211   25.1759 N   0  0  0  0  0  0  0  0  0  0  0  0
    8.4206  -14.6704   27.2408 C   0  0  0  0  0  0  0  0  0  0  0  0
    9.4878  -14.1027   27.9121 O   0  0  0  0  0  0  0  0  0  0  0  0
    7.9762  -15.7662   27.6649 O   0  0  0  0  0  0  0  0  0  0  0  0
  2  1  1  6
  2  8  1  0
  2  3  1  0
  4  3  1  0
  5  4  1  0
  6  5  1  0
  7  6  1  0
  8  9  2  0
 10 11  1  0
 10  8  1  0
 11 12  1  1
 12 13  1  0
 13 14  2  0
 15 14  1  0
 16 15  1  0
 17 16  2  0
 17 13  1  0
 18 11  1  0
 19 18  2  0
 21 20  1  6
 21 23  1  0
 22 21  1  0
 23 25  1  0
 23 24  1  1
 24 18  1  0
 25 26  1  0
 27 25  2  0
M  END
$$$$
