KHV.pdb
     RDKit          3D

 27 27  0  0  1  0  0  0  0  0999 V2000
    9.4129  -15.0682   19.1426 N   0  0  0  0  0  0  0  0  0  0  0  0
    8.4448  -14.1651   19.6544 C   0  0  1  0  0  0  0  0  0  0  0  0
    7.3448  -13.7816   18.7277 C   0  0  0  0  0  0  0  0  0  0  0  0
    7.5537  -14.1804   17.3014 C   0  0  0  0  0  0  0  0  0  0  0  0
    8.4379  -13.2897   16.5048 C   0  0  0  0  0  0  0  0  0  0  0  0
    8.5197  -13.6987   15.0471 C   0  0  0  0  0  0  0  0  0  0  0  0
    8.9602  -15.0659   14.9023 N   0  0  0  0  0  0  0  0  0  0  0  0
    7.8377  -14.6033   20.9479 C   0  0  0  0  0  0  0  0  0  0  0  0
    6.8688  -13.9521   21.4330 O   0  0  0  0  0  0  0  0  0  0  0  0
    8.2691  -15.7218   21.7000 N   0  0  0  0  0  0  0  0  0  0  0  0
    7.7117  -16.0821   22.9959 C   0  0  1  0  0  0  0  0  0  0  0  0
    8.0218  -17.5404   23.3064 C   0  0  0  0  0  0  0  0  0  0  0  0
    7.1836  -18.4844   22.5935 C   0  0  0  0  0  0  0  0  0  0  0  0
    6.9567  -18.5960   21.2386 C   0  0  0  0  0  0  0  0  0  0  0  0
    6.0873  -19.6120   21.0509 N   0  0  0  0  0  0  0  0  0  0  0  0
    5.7618  -20.1405   22.2436 C   0  0  0  0  0  0  0  0  0  0  0  0
    6.4284  -19.4553   23.1879 N   0  0  0  0  0  0  0  0  0  0  0  0
    8.2413  -15.2511   24.0785 C   0  0  0  0  0  0  0  0  0  0  0  0
    9.4702  -15.0056   24.0976 O   0  0  0  0  0  0  0  0  0  0  0  0
    5.8177  -13.0597   26.8803 C   0  0  0  0  0  0  0  0  0  0  0  0
    7.1664  -12.6151   26.3730 C   0  0  1  0  0  0  0  0  0  0  0  0
    7.7995  -11.6866   27.3529 C   0  0  0  0  0  0  0  0  0  0  0  0
    8.0156  -13.8362   26.0749 C   0  0  2  0  0  0  0  0  0  0  0  0
    7.4209  -14.7029   25.1178 N   0  0  0  0  0  0  0  0  0  0  0  0
    8.3575  -14.5337   27.3391 C   0  0  0  0  0  0  0  0  0  0  0  0
    9.1979  -14.0032   28.3005 O   0  0  0  0  0  0  0  0  0  0  0  0
    7.8608  -15.6672   27.5544 O   0  0  0  0  0  0  0  0  0  0  0  0
  2  1  1  6
  2  8  1  0
  2  3  1  0
  4  3  1  0
  5  4  1  0
  6  5  1  0
  7  6  1  0
  8  9  2  0
 10 11  1  0
 10  8  1  0
 11 12  1  1
 12 13  1  0
 13 14  2  0
 15 14  1  0
 16 15  1  0
 17 16  2  0
 17 13  1  0
 18 11  1  0
 19 18  2  0
 21 20  1  1
 21 23  1  0
 22 21  1  0
 23 25  1  0
 23 24  1  6
 24 18  1  0
 25 26  1  0
 27 25  2  0
M  END
$$$$
