KHV.pdb
     RDKit          3D

 27 27  0  0  1  0  0  0  0  0999 V2000
    9.1331  -15.2238   19.0911 N   0  0  0  0  0  0  0  0  0  0  0  0
    8.6038  -14.1436   19.8446 C   0  0  1  0  0  0  0  0  0  0  0  0
    7.6465  -13.2509   19.1357 C   0  0  0  0  0  0  0  0  0  0  0  0
    7.2800  -13.6896   17.7536 C   0  0  0  0  0  0  0  0  0  0  0  0
    8.4197  -14.0000   16.8512 C   0  0  0  0  0  0  0  0  0  0  0  0
    7.9741  -14.3437   15.4433 C   0  0  0  0  0  0  0  0  0  0  0  0
    9.1004  -14.5804   14.5718 N   0  0  0  0  0  0  0  0  0  0  0  0
    7.9863  -14.5596   21.1405 C   0  0  0  0  0  0  0  0  0  0  0  0
    7.4658  -13.6855   21.8910 O   0  0  0  0  0  0  0  0  0  0  0  0
    7.9325  -15.8922   21.6140 N   0  0  0  0  0  0  0  0  0  0  0  0
    7.3728  -16.2640   22.9056 C   0  0  1  0  0  0  0  0  0  0  0  0
    7.6232  -17.7422   23.1731 C   0  0  0  0  0  0  0  0  0  0  0  0
    7.1934  -18.1833   24.4856 C   0  0  0  0  0  0  0  0  0  0  0  0
    6.5589  -17.4688   25.4789 C   0  0  0  0  0  0  0  0  0  0  0  0
    6.3780  -18.2986   26.5289 N   0  0  0  0  0  0  0  0  0  0  0  0
    6.8785  -19.5092   26.2261 C   0  0  0  0  0  0  0  0  0  0  0  0
    7.3773  -19.4434   24.9801 N   0  0  0  0  0  0  0  0  0  0  0  0
    7.9480  -15.4865   24.0045 C   0  0  0  0  0  0  0  0  0  0  0  0
    9.1887  -15.3105   24.0272 O   0  0  0  0  0  0  0  0  0  0  0  0
    5.6387  -13.4362   27.0516 C   0  0  0  0  0  0  0  0  0  0  0  0
    6.8504  -12.8646   26.3597 C   0  0  1  0  0  0  0  0  0  0  0  0
    7.5122  -11.8578   27.2380 C   0  0  0  0  0  0  0  0  0  0  0  0
    7.7734  -13.9971   25.9512 C   0  0  2  0  0  0  0  0  0  0  0  0
    7.1596  -14.9150   25.0559 N   0  0  0  0  0  0  0  0  0  0  0  0
    8.3220  -14.6613   27.1594 C   0  0  0  0  0  0  0  0  0  0  0  0
    9.2073  -14.0524   28.0296 O   0  0  0  0  0  0  0  0  0  0  0  0
    7.9680  -15.8399   27.4114 O   0  0  0  0  0  0  0  0  0  0  0  0
  2  1  1  6
  2  8  1  0
  2  3  1  0
  4  3  1  0
  5  4  1  0
  6  5  1  0
  7  6  1  0
  8  9  2  0
 10 11  1  0
 10  8  1  0
 11 12  1  1
 12 13  1  0
 13 14  2  0
 15 14  1  0
 16 15  1  0
 17 16  2  0
 17 13  1  0
 18 11  1  0
 19 18  2  0
 21 20  1  1
 21 23  1  0
 22 21  1  0
 23 25  1  0
 23 24  1  1
 24 18  1  0
 25 26  1  0
 27 25  2  0
M  END
$$$$
