KHV.pdb
     RDKit          3D

 27 27  0  0  1  0  0  0  0  0999 V2000
   11.0982  -18.9955   21.5495 N   0  0  0  0  0  0  0  0  0  0  0  0
   10.6837  -17.6764   21.2285 C   0  0  1  0  0  0  0  0  0  0  0  0
   10.0111  -17.4977   19.9127 C   0  0  0  0  0  0  0  0  0  0  0  0
   10.7967  -17.9746   18.7327 C   0  0  0  0  0  0  0  0  0  0  0  0
   10.1331  -17.8229   17.4112 C   0  0  0  0  0  0  0  0  0  0  0  0
   10.9598  -18.3891   16.2733 C   0  0  0  0  0  0  0  0  0  0  0  0
   10.2506  -18.3249   15.0175 N   0  0  0  0  0  0  0  0  0  0  0  0
    9.8339  -17.0400   22.2805 C   0  0  0  0  0  0  0  0  0  0  0  0
    9.3951  -15.8680   22.1014 O   0  0  0  0  0  0  0  0  0  0  0  0
    9.4665  -17.6582   23.4994 N   0  0  0  0  0  0  0  0  0  0  0  0
    8.5118  -17.0830   24.4362 C   0  0  1  0  0  0  0  0  0  0  0  0
    7.6838  -18.1888   25.0772 C   0  0  0  0  0  0  0  0  0  0  0  0
    6.8673  -18.9318   24.1373 C   0  0  0  0  0  0  0  0  0  0  0  0
    6.0418  -18.4601   23.1395 C   0  0  0  0  0  0  0  0  0  0  0  0
    5.4741  -19.5277   22.5383 N   0  0  0  0  0  0  0  0  0  0  0  0
    5.9166  -20.6528   23.1268 C   0  0  0  0  0  0  0  0  0  0  0  0
    6.7669  -20.2938   24.1034 N   0  0  0  0  0  0  0  0  0  0  0  0
    9.1678  -16.3161   25.4967 C   0  0  0  0  0  0  0  0  0  0  0  0
   10.3451  -16.6123   25.8081 O   0  0  0  0  0  0  0  0  0  0  0  0
    8.5439  -12.3666   26.1932 C   0  0  0  0  0  0  0  0  0  0  0  0
    8.6721  -13.1554   27.4720 C   0  0  1  0  0  0  0  0  0  0  0  0
    7.3485  -13.2420   28.1530 C   0  0  0  0  0  0  0  0  0  0  0  0
    9.2733  -14.5135   27.1634 C   0  0  2  0  0  0  0  0  0  0  0  0
    8.5282  -15.2409   26.1956 N   0  0  0  0  0  0  0  0  0  0  0  0
    9.4696  -15.2758   28.4211 C   0  0  0  0  0  0  0  0  0  0  0  0
   10.3167  -14.8696   29.4357 O   0  0  0  0  0  0  0  0  0  0  0  0
    8.8358  -16.3487   28.5797 O   0  0  0  0  0  0  0  0  0  0  0  0
  2  1  1  1
  2  8  1  0
  2  3  1  0
  4  3  1  0
  5  4  1  0
  6  5  1  0
  7  6  1  0
  8  9  2  0
 10 11  1  0
 10  8  1  0
 11 12  1  1
 12 13  1  0
 13 14  2  0
 15 14  1  0
 16 15  1  0
 17 16  2  0
 17 13  1  0
 18 11  1  0
 19 18  2  0
 21 20  1  6
 21 23  1  0
 22 21  1  0
 23 25  1  0
 23 24  1  6
 24 18  1  0
 25 26  1  0
 27 25  2  0
M  END
$$$$
