KHV.pdb
     RDKit          3D

 27 27  0  0  1  0  0  0  0  0999 V2000
    9.2937  -15.2584   19.4955 N   0  0  0  0  0  0  0  0  0  0  0  0
    8.5008  -14.2622   20.1229 C   0  0  1  0  0  0  0  0  0  0  0  0
    7.3954  -13.6882   19.3078 C   0  0  0  0  0  0  0  0  0  0  0  0
    7.7736  -13.3061   17.9121 C   0  0  0  0  0  0  0  0  0  0  0  0
    7.8749  -14.4268   16.9408 C   0  0  0  0  0  0  0  0  0  0  0  0
    8.2530  -13.9614   15.5483 C   0  0  0  0  0  0  0  0  0  0  0  0
    8.2675  -15.0561   14.6072 N   0  0  0  0  0  0  0  0  0  0  0  0
    7.9410  -14.6823   21.4436 C   0  0  0  0  0  0  0  0  0  0  0  0
    7.1409  -13.9161   22.0526 O   0  0  0  0  0  0  0  0  0  0  0  0
    8.2400  -15.9047   22.0910 N   0  0  0  0  0  0  0  0  0  0  0  0
    7.7290  -16.2632   23.4064 C   0  0  1  0  0  0  0  0  0  0  0  0
    7.9689  -17.7439   23.6699 C   0  0  0  0  0  0  0  0  0  0  0  0
    7.6733  -18.1546   25.0285 C   0  0  0  0  0  0  0  0  0  0  0  0
    6.4855  -18.0738   25.7230 C   0  0  0  0  0  0  0  0  0  0  0  0
    6.7016  -18.5632   26.9629 N   0  0  0  0  0  0  0  0  0  0  0  0
    7.9857  -18.9477   27.0682 C   0  0  0  0  0  0  0  0  0  0  0  0
    8.5826  -18.7000   25.8901 N   0  0  0  0  0  0  0  0  0  0  0  0
    8.3604  -15.4899   24.4770 C   0  0  0  0  0  0  0  0  0  0  0  0
    9.6115  -15.4216   24.5075 O   0  0  0  0  0  0  0  0  0  0  0  0
    7.5561  -11.9191   25.8259 C   0  0  0  0  0  0  0  0  0  0  0  0
    7.6531  -12.8695   26.9926 C   0  0  1  0  0  0  0  0  0  0  0  0
    6.3022  -13.0924   27.5830 C   0  0  0  0  0  0  0  0  0  0  0  0
    8.3235  -14.1521   26.5379 C   0  0  2  0  0  0  0  0  0  0  0  0
    7.6159  -14.8051   25.4921 N   0  0  0  0  0  0  0  0  0  0  0  0
    8.5605  -15.0382   27.7042 C   0  0  0  0  0  0  0  0  0  0  0  0
    9.3624  -14.6914   28.7760 O   0  0  0  0  0  0  0  0  0  0  0  0
    8.0066  -16.1654   27.7260 O   0  0  0  0  0  0  0  0  0  0  0  0
  2  1  1  6
  2  8  1  0
  2  3  1  0
  4  3  1  0
  5  4  1  0
  6  5  1  0
  7  6  1  0
  8  9  2  0
 10 11  1  0
 10  8  1  0
 11 12  1  1
 12 13  1  0
 13 14  2  0
 15 14  1  0
 16 15  1  0
 17 16  2  0
 17 13  1  0
 18 11  1  0
 19 18  2  0
 21 20  1  6
 21 23  1  0
 22 21  1  0
 23 25  1  0
 23 24  1  6
 24 18  1  0
 25 26  1  0
 27 25  2  0
M  END
$$$$
