EDN.pdb
     RDKit          3D

 26 25  0  0  1  0  0  0  0  0999 V2000
   18.6933  -12.0644  -14.7976 N   0  0  0  0  0  0  0  0  0  0  0  0
   18.3529  -11.7336  -16.2024 C   0  0  1  0  0  0  0  0  0  0  0  0
   17.0638  -12.4311  -16.4900 C   0  0  0  0  0  0  0  0  0  0  0  0
   17.1267  -13.8873  -16.1695 C   0  0  0  0  0  0  0  0  0  0  0  0
   15.8431  -14.5355  -16.5310 C   0  0  0  0  0  0  0  0  0  0  0  0
   14.8298  -13.9535  -16.9684 O   0  0  0  0  0  0  0  0  0  0  0  0
   18.1988  -10.2781  -16.3418 C   0  0  0  0  0  0  0  0  0  0  0  0
   17.9845   -9.7590  -17.4464 O   0  0  0  0  0  0  0  0  0  0  0  0
   15.7275  -15.9297  -16.3757 O   0  0  0  0  0  0  0  0  0  0  0  0
   18.2932   -9.4342  -15.1976 N   0  0  0  0  0  0  0  0  0  0  0  0
   18.1756   -8.0035  -15.2521 C   0  0  1  0  0  0  0  0  0  0  0  0
   16.8754   -7.5454  -14.6474 C   0  0  0  0  0  0  0  0  0  0  0  0
   16.7269   -6.0891  -14.5816 C   0  0  0  0  0  0  0  0  0  0  0  0
   17.0079   -5.4160  -15.6189 O   0  0  0  0  0  0  0  0  0  0  0  0
   19.3646   -7.3766  -14.6630 C   0  0  0  0  0  0  0  0  0  0  0  0
   19.8536   -7.7973  -13.5896 O   0  0  0  0  0  0  0  0  0  0  0  0
   16.3002   -5.3656  -13.4720 O   0  0  0  0  0  0  0  0  0  0  0  0
   24.1574   -5.2416  -15.0775 N   0  0  0  0  0  0  0  0  0  0  0  0
   23.6304   -6.2258  -15.9594 C   0  0  0  0  0  0  0  0  0  0  0  0
   24.4156   -6.7815  -16.7622 O   0  0  0  0  0  0  0  0  0  0  0  0
   22.2206   -6.6317  -15.9879 C   0  0  0  0  0  0  0  0  0  0  0  0
   21.3249   -5.8359  -15.0672 C   0  0  2  0  0  0  0  0  0  0  0  0
   19.9689   -6.2828  -15.3088 N   0  0  0  0  0  0  0  0  0  0  0  0
   21.3969   -4.3893  -15.3474 C   0  0  0  0  0  0  0  0  0  0  0  0
   22.1774   -3.6223  -14.7110 O   0  0  0  0  0  0  0  0  0  0  0  0
   20.5978   -3.8433  -16.3284 O   0  0  0  0  0  0  0  0  0  0  0  0
  2  1  1  1
  2  7  1  0
  3  4  1  0
  3  2  1  0
  5  4  1  0
  5  9  1  0
  6  5  2  0
  7  8  2  0
 10 11  1  0
 10  7  1  0
 11 15  1  0
 12 13  1  0
 11 12  1  1
 13 17  1  0
 14 13  2  0
 15 16  2  0
 18 19  1  0
 19 21  1  0
 19 20  2  0
 22 21  1  6
 22 24  1  0
 23 15  1  0
 23 22  1  0
 24 25  2  0
 24 26  1  0
M  END
$$$$
