EDN.pdb
     RDKit          3D

 26 25  0  0  1  0  0  0  0  0999 V2000
   15.4857  -10.5433  -16.5655 N   0  0  0  0  0  0  0  0  0  0  0  0
   15.8773  -10.6475  -15.1391 C   0  0  1  0  0  0  0  0  0  0  0  0
   15.6874  -12.0804  -14.7625 C   0  0  0  0  0  0  0  0  0  0  0  0
   16.3598  -13.0086  -15.7183 C   0  0  0  0  0  0  0  0  0  0  0  0
   16.2572  -14.4013  -15.2199 C   0  0  0  0  0  0  0  0  0  0  0  0
   15.5364  -15.2977  -15.7032 O   0  0  0  0  0  0  0  0  0  0  0  0
   17.2848  -10.2516  -14.9849 C   0  0  0  0  0  0  0  0  0  0  0  0
   17.8345  -10.2576  -13.8744 O   0  0  0  0  0  0  0  0  0  0  0  0
   17.0281  -14.7734  -14.1025 O   0  0  0  0  0  0  0  0  0  0  0  0
   18.0459   -9.8524  -16.1213 N   0  0  0  0  0  0  0  0  0  0  0  0
   19.4464   -9.5366  -16.0701 C   0  0  1  0  0  0  0  0  0  0  0  0
   20.2199  -10.3490  -17.0740 C   0  0  0  0  0  0  0  0  0  0  0  0
   21.6599  -10.0777  -17.0806 C   0  0  0  0  0  0  0  0  0  0  0  0
   22.3278  -10.3902  -16.0490 O   0  0  0  0  0  0  0  0  0  0  0  0
   19.6419   -8.0873  -16.1933 C   0  0  0  0  0  0  0  0  0  0  0  0
   18.9098   -7.3964  -16.9384 O   0  0  0  0  0  0  0  0  0  0  0  0
   22.3730   -9.5015  -18.1276 O   0  0  0  0  0  0  0  0  0  0  0  0
   21.8137   -3.3079  -15.1020 N   0  0  0  0  0  0  0  0  0  0  0  0
   21.8729   -4.2435  -14.0318 C   0  0  0  0  0  0  0  0  0  0  0  0
   22.3105   -3.8496  -12.9258 O   0  0  0  0  0  0  0  0  0  0  0  0
   21.4527   -5.6449  -14.1427 C   0  0  0  0  0  0  0  0  0  0  0  0
   20.9537   -6.0386  -15.5136 C   0  0  2  0  0  0  0  0  0  0  0  0
   20.6684   -7.4576  -15.4666 N   0  0  0  0  0  0  0  0  0  0  0  0
   21.9699   -5.8007  -16.5563 C   0  0  0  0  0  0  0  0  0  0  0  0
   21.9515   -4.7660  -17.2852 O   0  0  0  0  0  0  0  0  0  0  0  0
   22.9749   -6.7228  -16.7531 O   0  0  0  0  0  0  0  0  0  0  0  0
  2  1  1  6
  2  7  1  0
  3  4  1  0
  3  2  1  0
  5  4  1  0
  5  9  1  0
  6  5  2  0
  7  8  2  0
 10 11  1  0
 10  7  1  0
 11 15  1  0
 12 13  1  0
 11 12  1  6
 13 17  1  0
 14 13  2  0
 15 16  2  0
 18 19  1  0
 19 21  1  0
 19 20  2  0
 22 21  1  1
 22 24  1  0
 23 15  1  0
 23 22  1  0
 24 25  2  0
 24 26  1  0
M  END
$$$$
