EDN.pdb
     RDKit          3D

 26 25  0  0  1  0  0  0  0  0999 V2000
   16.0565  -12.8829  -15.2776 N   0  0  0  0  0  0  0  0  0  0  0  0
   16.3287  -11.5472  -15.8612 C   0  0  1  0  0  0  0  0  0  0  0  0
   15.3844  -10.6037  -15.1910 C   0  0  0  0  0  0  0  0  0  0  0  0
   13.9888  -10.7462  -15.6998 C   0  0  0  0  0  0  0  0  0  0  0  0
   13.0997   -9.7898  -14.9974 C   0  0  0  0  0  0  0  0  0  0  0  0
   13.1860   -8.5458  -15.0421 O   0  0  0  0  0  0  0  0  0  0  0  0
   17.7229  -11.1668  -15.5911 C   0  0  0  0  0  0  0  0  0  0  0  0
   18.2305  -11.3426  -14.4744 O   0  0  0  0  0  0  0  0  0  0  0  0
   12.0583  -10.3015  -14.2006 O   0  0  0  0  0  0  0  0  0  0  0  0
   18.5198  -10.5859  -16.6195 N   0  0  0  0  0  0  0  0  0  0  0  0
   19.8791  -10.1619  -16.4293 C   0  0  1  0  0  0  0  0  0  0  0  0
   20.7488  -10.6080  -17.5742 C   0  0  0  0  0  0  0  0  0  0  0  0
   21.0931  -12.0320  -17.5439 C   0  0  0  0  0  0  0  0  0  0  0  0
   20.2886  -12.8253  -16.9682 O   0  0  0  0  0  0  0  0  0  0  0  0
   19.9258   -8.7186  -16.1679 C   0  0  0  0  0  0  0  0  0  0  0  0
   19.1977   -7.9218  -16.8030 O   0  0  0  0  0  0  0  0  0  0  0  0
   22.2360  -12.6031  -18.0955 O   0  0  0  0  0  0  0  0  0  0  0  0
   21.6700   -4.1993  -13.8537 N   0  0  0  0  0  0  0  0  0  0  0  0
   22.1512   -5.3719  -13.2073 C   0  0  0  0  0  0  0  0  0  0  0  0
   22.9128   -5.2335  -12.2222 O   0  0  0  0  0  0  0  0  0  0  0  0
   21.8106   -6.7369  -13.6238 C   0  0  0  0  0  0  0  0  0  0  0  0
   20.9352   -6.8126  -14.8532 C   0  0  2  0  0  0  0  0  0  0  0  0
   20.8023   -8.2147  -15.1899 N   0  0  0  0  0  0  0  0  0  0  0  0
   21.5406   -6.1117  -16.0014 C   0  0  0  0  0  0  0  0  0  0  0  0
   21.1764   -4.9487  -16.3434 O   0  0  0  0  0  0  0  0  0  0  0  0
   22.5333   -6.7285  -16.7317 O   0  0  0  0  0  0  0  0  0  0  0  0
  2  1  1  1
  2  7  1  0
  3  4  1  0
  3  2  1  0
  5  4  1  0
  5  9  1  0
  6  5  2  0
  7  8  2  0
 10 11  1  0
 10  7  1  0
 11 15  1  0
 12 13  1  0
 11 12  1  6
 13 17  1  0
 14 13  2  0
 15 16  2  0
 18 19  1  0
 19 21  1  0
 19 20  2  0
 22 21  1  1
 22 24  1  0
 23 15  1  0
 23 22  1  0
 24 25  2  0
 24 26  1  0
M  END
$$$$
