EDN.pdb
     RDKit          3D

 26 25  0  0  1  0  0  0  0  0999 V2000
   14.6948   -7.3807   -9.4179 N   0  0  0  0  0  0  0  0  0  0  0  0
   15.3692   -8.6249   -8.9752 C   0  0  1  0  0  0  0  0  0  0  0  0
   14.2847   -9.6306   -8.7668 C   0  0  0  0  0  0  0  0  0  0  0  0
   13.0922   -9.3595   -9.6221 C   0  0  0  0  0  0  0  0  0  0  0  0
   12.0500  -10.3829   -9.3671 C   0  0  0  0  0  0  0  0  0  0  0  0
   11.8422  -11.4005  -10.0586 O   0  0  0  0  0  0  0  0  0  0  0  0
   16.3032   -9.0759  -10.0171 C   0  0  0  0  0  0  0  0  0  0  0  0
   17.0823  -10.0182   -9.8154 O   0  0  0  0  0  0  0  0  0  0  0  0
   11.2039  -10.2173   -8.2545 O   0  0  0  0  0  0  0  0  0  0  0  0
   16.3262   -8.4310  -11.2875 N   0  0  0  0  0  0  0  0  0  0  0  0
   17.2727   -8.7439  -12.3219 C   0  0  1  0  0  0  0  0  0  0  0  0
   16.6642   -9.6581  -13.3515 C   0  0  0  0  0  0  0  0  0  0  0  0
   17.5742  -10.0209  -14.4413 C   0  0  0  0  0  0  0  0  0  0  0  0
   17.1963   -9.7949  -15.6304 O   0  0  0  0  0  0  0  0  0  0  0  0
   17.8405   -7.5097  -12.8767 C   0  0  0  0  0  0  0  0  0  0  0  0
   17.1304   -6.4939  -13.0559 O   0  0  0  0  0  0  0  0  0  0  0  0
   18.8316  -10.5981  -14.2912 O   0  0  0  0  0  0  0  0  0  0  0  0
   21.6591   -4.1770  -14.5789 N   0  0  0  0  0  0  0  0  0  0  0  0
   21.9465   -4.9545  -13.4225 C   0  0  0  0  0  0  0  0  0  0  0  0
   22.9785   -4.6802  -12.7673 O   0  0  0  0  0  0  0  0  0  0  0  0
   21.1075   -6.0609  -12.9483 C   0  0  0  0  0  0  0  0  0  0  0  0
   19.8678   -6.3021  -13.7779 C   0  0  2  0  0  0  0  0  0  0  0  0
   19.2045   -7.4608  -13.2170 N   0  0  0  0  0  0  0  0  0  0  0  0
   20.1980   -6.5893  -15.1867 C   0  0  0  0  0  0  0  0  0  0  0  0
   20.0737   -7.7482  -15.6805 O   0  0  0  0  0  0  0  0  0  0  0  0
   20.6553   -5.5759  -16.0010 O   0  0  0  0  0  0  0  0  0  0  0  0
  2  1  1  6
  2  7  1  0
  3  4  1  0
  3  2  1  0
  5  4  1  0
  5  9  1  0
  6  5  2  0
  7  8  2  0
 10 11  1  0
 10  7  1  0
 11 15  1  0
 12 13  1  0
 11 12  1  6
 13 17  1  0
 14 13  2  0
 15 16  2  0
 18 19  1  0
 19 21  1  0
 19 20  2  0
 22 21  1  1
 22 24  1  0
 23 15  1  0
 23 22  1  0
 24 25  2  0
 24 26  1  0
M  END
$$$$
