EDN.pdb
     RDKit          3D

 26 25  0  0  1  0  0  0  0  0999 V2000
   18.7586  -12.8052  -16.4048 N   0  0  0  0  0  0  0  0  0  0  0  0
   18.4061  -11.3685  -16.3036 C   0  0  1  0  0  0  0  0  0  0  0  0
   17.2332  -11.2951  -15.3815 C   0  0  0  0  0  0  0  0  0  0  0  0
   16.0384  -11.9998  -15.9318 C   0  0  0  0  0  0  0  0  0  0  0  0
   14.9047  -11.8781  -14.9839 C   0  0  0  0  0  0  0  0  0  0  0  0
   14.0804  -10.9421  -14.9489 O   0  0  0  0  0  0  0  0  0  0  0  0
   19.5462  -10.6195  -15.7551 C   0  0  0  0  0  0  0  0  0  0  0  0
   19.8466  -10.6968  -14.5554 O   0  0  0  0  0  0  0  0  0  0  0  0
   14.7182  -12.8924  -14.0259 O   0  0  0  0  0  0  0  0  0  0  0  0
   20.3313   -9.7862  -16.6033 N   0  0  0  0  0  0  0  0  0  0  0  0
   21.4194   -8.9737  -16.1346 C   0  0  1  0  0  0  0  0  0  0  0  0
   22.6752   -9.2496  -16.9176 C   0  0  0  0  0  0  0  0  0  0  0  0
   23.2117  -10.6003  -16.7305 C   0  0  0  0  0  0  0  0  0  0  0  0
   23.3465  -11.0266  -15.5439 O   0  0  0  0  0  0  0  0  0  0  0  0
   21.0228   -7.5609  -16.1159 C   0  0  0  0  0  0  0  0  0  0  0  0
   20.6021   -6.9929  -17.1497 O   0  0  0  0  0  0  0  0  0  0  0  0
   23.5920  -11.4711  -17.7473 O   0  0  0  0  0  0  0  0  0  0  0  0
   19.9417   -2.7125  -14.3092 N   0  0  0  0  0  0  0  0  0  0  0  0
   19.1209   -3.8281  -13.9839 C   0  0  0  0  0  0  0  0  0  0  0  0
   17.9993   -3.6072  -13.4711 O   0  0  0  0  0  0  0  0  0  0  0  0
   19.5070   -5.2252  -14.2117 C   0  0  0  0  0  0  0  0  0  0  0  0
   20.8816   -5.4009  -14.8142 C   0  0  2  0  0  0  0  0  0  0  0  0
   21.1161   -6.8259  -14.9202 N   0  0  0  0  0  0  0  0  0  0  0  0
   21.9333   -4.8166  -13.9605 C   0  0  0  0  0  0  0  0  0  0  0  0
   22.7408   -5.5381  -13.3049 O   0  0  0  0  0  0  0  0  0  0  0  0
   22.0526   -3.4470  -13.8650 O   0  0  0  0  0  0  0  0  0  0  0  0
  2  1  1  1
  2  7  1  0
  3  4  1  0
  3  2  1  0
  5  4  1  0
  5  9  1  0
  6  5  2  0
  7  8  2  0
 10 11  1  0
 10  7  1  0
 11 15  1  0
 12 13  1  0
 11 12  1  6
 13 17  1  0
 14 13  2  0
 15 16  2  0
 18 19  1  0
 19 21  1  0
 19 20  2  0
 22 21  1  1
 22 24  1  0
 23 15  1  0
 23 22  1  0
 24 25  2  0
 24 26  1  0
M  END
$$$$
