EDN.pdb
     RDKit          3D

 26 25  0  0  1  0  0  0  0  0999 V2000
   22.3460  -18.5934  -18.1487 N   0  0  0  0  0  0  0  0  0  0  0  0
   21.4589  -17.5695  -17.5460 C   0  0  1  0  0  0  0  0  0  0  0  0
   21.0730  -18.0965  -16.2027 C   0  0  0  0  0  0  0  0  0  0  0  0
   21.9797  -19.1895  -15.7441 C   0  0  0  0  0  0  0  0  0  0  0  0
   21.4982  -19.7294  -14.4497 C   0  0  0  0  0  0  0  0  0  0  0  0
   20.5893  -19.2406  -13.7483 O   0  0  0  0  0  0  0  0  0  0  0  0
   22.1895  -16.3002  -17.4162 C   0  0  0  0  0  0  0  0  0  0  0  0
   21.6497  -15.2967  -16.9293 O   0  0  0  0  0  0  0  0  0  0  0  0
   22.1026  -20.8945  -13.9413 O   0  0  0  0  0  0  0  0  0  0  0  0
   23.5429  -16.2042  -17.8514 N   0  0  0  0  0  0  0  0  0  0  0  0
   24.3311  -15.0081  -17.7418 C   0  0  1  0  0  0  0  0  0  0  0  0
   25.7968  -15.3354  -17.6388 C   0  0  0  0  0  0  0  0  0  0  0  0
   26.4801  -14.6742  -16.5238 C   0  0  0  0  0  0  0  0  0  0  0  0
   25.8123  -13.8605  -15.8167 O   0  0  0  0  0  0  0  0  0  0  0  0
   23.9984  -14.0828  -18.8312 C   0  0  0  0  0  0  0  0  0  0  0  0
   24.0950  -14.4326  -20.0298 O   0  0  0  0  0  0  0  0  0  0  0  0
   27.8116  -14.8583  -16.1631 O   0  0  0  0  0  0  0  0  0  0  0  0
   22.2337   -9.5321  -21.0497 N   0  0  0  0  0  0  0  0  0  0  0  0
   21.5992   -9.9008  -19.8308 C   0  0  0  0  0  0  0  0  0  0  0  0
   20.6162   -9.2249  -19.4480 O   0  0  0  0  0  0  0  0  0  0  0  0
   22.0255  -11.0263  -18.9915 C   0  0  0  0  0  0  0  0  0  0  0  0
   23.2222  -11.7808  -19.5226 C   0  0  2  0  0  0  0  0  0  0  0  0
   23.5650  -12.7788  -18.5309 N   0  0  0  0  0  0  0  0  0  0  0  0
   24.3865  -10.8959  -19.7166 C   0  0  0  0  0  0  0  0  0  0  0  0
   24.9120  -10.2608  -18.7560 O   0  0  0  0  0  0  0  0  0  0  0  0
   24.9290  -10.7474  -20.9747 O   0  0  0  0  0  0  0  0  0  0  0  0
  2  1  1  1
  2  7  1  0
  3  4  1  0
  3  2  1  0
  5  4  1  0
  5  9  1  0
  6  5  2  0
  7  8  2  0
 10 11  1  0
 10  7  1  0
 11 15  1  0
 12 13  1  0
 11 12  1  6
 13 17  1  0
 14 13  2  0
 15 16  2  0
 18 19  1  0
 19 21  1  0
 19 20  2  0
 22 21  1  1
 22 24  1  0
 23 15  1  0
 23 22  1  0
 24 25  2  0
 24 26  1  0
M  END
$$$$
