EDN.pdb
     RDKit          3D

 26 25  0  0  1  0  0  0  0  0999 V2000
   16.5638  -11.2950  -15.9403 N   0  0  0  0  0  0  0  0  0  0  0  0
   16.6772  -11.8044  -14.5524 C   0  0  1  0  0  0  0  0  0  0  0  0
   17.7089  -12.8839  -14.5918 C   0  0  0  0  0  0  0  0  0  0  0  0
   17.2188  -14.1069  -15.2926 C   0  0  0  0  0  0  0  0  0  0  0  0
   16.3507  -14.8918  -14.3821 C   0  0  0  0  0  0  0  0  0  0  0  0
   15.1431  -14.6733  -14.1572 O   0  0  0  0  0  0  0  0  0  0  0  0
   17.0995  -10.7142  -13.6609 C   0  0  0  0  0  0  0  0  0  0  0  0
   17.3983  -10.9323  -12.4783 O   0  0  0  0  0  0  0  0  0  0  0  0
   16.9119  -15.9849  -13.6955 O   0  0  0  0  0  0  0  0  0  0  0  0
   17.1734   -9.3773  -14.1484 N   0  0  0  0  0  0  0  0  0  0  0  0
   17.5710   -8.2570  -13.3417 C   0  0  1  0  0  0  0  0  0  0  0  0
   18.2612   -7.2102  -14.1747 C   0  0  0  0  0  0  0  0  0  0  0  0
   19.6169   -7.5771  -14.5929 C   0  0  0  0  0  0  0  0  0  0  0  0
   19.8471   -7.6816  -15.8355 O   0  0  0  0  0  0  0  0  0  0  0  0
   16.4244   -7.7541  -12.5762 C   0  0  0  0  0  0  0  0  0  0  0  0
   15.3312   -7.5071  -13.1349 O   0  0  0  0  0  0  0  0  0  0  0  0
   20.6902   -7.8246  -13.7423 O   0  0  0  0  0  0  0  0  0  0  0  0
   13.7379   -6.0931   -8.2493 N   0  0  0  0  0  0  0  0  0  0  0  0
   14.4207   -7.3370   -8.1469 C   0  0  0  0  0  0  0  0  0  0  0  0
   14.1965   -8.0537   -7.1440 O   0  0  0  0  0  0  0  0  0  0  0  0
   15.3742   -7.8343   -9.1452 C   0  0  0  0  0  0  0  0  0  0  0  0
   15.5255   -6.9461  -10.3583 C   0  0  2  0  0  0  0  0  0  0  0  0
   16.5493   -7.5417  -11.1913 N   0  0  0  0  0  0  0  0  0  0  0  0
   15.9564   -5.5841   -9.9904 C   0  0  0  0  0  0  0  0  0  0  0  0
   17.1733   -5.2366  -10.0181 O   0  0  0  0  0  0  0  0  0  0  0  0
   15.0177   -4.6520   -9.6041 O   0  0  0  0  0  0  0  0  0  0  0  0
  2  1  1  6
  2  7  1  0
  3  4  1  0
  3  2  1  0
  5  4  1  0
  5  9  1  0
  6  5  2  0
  7  8  2  0
 10 11  1  0
 10  7  1  0
 11 15  1  0
 12 13  1  0
 11 12  1  6
 13 17  1  0
 14 13  2  0
 15 16  2  0
 18 19  1  0
 19 21  1  0
 19 20  2  0
 22 21  1  1
 22 24  1  0
 23 15  1  0
 23 22  1  0
 24 25  2  0
 24 26  1  0
M  END
$$$$
