EDN.pdb
     RDKit          3D

 26 25  0  0  1  0  0  0  0  0999 V2000
   18.3933  -11.5061  -15.7445 N   0  0  0  0  0  0  0  0  0  0  0  0
   17.5145  -10.4279  -16.2582 C   0  0  1  0  0  0  0  0  0  0  0  0
   16.1188  -10.8336  -15.9138 C   0  0  0  0  0  0  0  0  0  0  0  0
   15.7281  -12.1183  -16.5648 C   0  0  0  0  0  0  0  0  0  0  0  0
   14.3263  -12.4512  -16.2143 C   0  0  0  0  0  0  0  0  0  0  0  0
   13.3096  -11.8654  -16.6384 O   0  0  0  0  0  0  0  0  0  0  0  0
   17.8623   -9.1569  -15.6062 C   0  0  0  0  0  0  0  0  0  0  0  0
   17.2230   -8.1211  -15.8386 O   0  0  0  0  0  0  0  0  0  0  0  0
   14.0911  -13.5165  -15.3248 O   0  0  0  0  0  0  0  0  0  0  0  0
   18.9496   -9.0965  -14.6873 N   0  0  0  0  0  0  0  0  0  0  0  0
   19.4141   -7.8787  -14.0830 C   0  0  1  0  0  0  0  0  0  0  0  0
   19.6164   -8.0543  -12.6017 C   0  0  0  0  0  0  0  0  0  0  0  0
   18.3714   -8.1144  -11.8312 C   0  0  0  0  0  0  0  0  0  0  0  0
   17.2800   -7.9357  -12.4516 O   0  0  0  0  0  0  0  0  0  0  0  0
   20.5970   -7.3812  -14.7949 C   0  0  0  0  0  0  0  0  0  0  0  0
   21.1770   -6.3321  -14.4325 O   0  0  0  0  0  0  0  0  0  0  0  0
   18.2733   -8.3528  -10.4636 O   0  0  0  0  0  0  0  0  0  0  0  0
   24.4515   -7.3469  -18.5214 N   0  0  0  0  0  0  0  0  0  0  0  0
   23.7894   -8.6018  -18.4162 C   0  0  0  0  0  0  0  0  0  0  0  0
   24.2251   -9.5589  -19.0971 O   0  0  0  0  0  0  0  0  0  0  0  0
   22.6246   -8.8456  -17.5578 C   0  0  0  0  0  0  0  0  0  0  0  0
   22.2110   -7.6596  -16.7178 C   0  0  2  0  0  0  0  0  0  0  0  0
   21.0917   -8.0888  -15.9054 N   0  0  0  0  0  0  0  0  0  0  0  0
   21.7748   -6.5230  -17.5509 C   0  0  0  0  0  0  0  0  0  0  0  0
   20.6569   -6.5183  -18.1445 O   0  0  0  0  0  0  0  0  0  0  0  0
   22.5978   -5.4270  -17.6953 O   0  0  0  0  0  0  0  0  0  0  0  0
  2  1  1  1
  2  7  1  0
  3  4  1  0
  3  2  1  0
  5  4  1  0
  5  9  1  0
  6  5  2  0
  7  8  2  0
 10 11  1  0
 10  7  1  0
 11 15  1  0
 12 13  1  0
 11 12  1  1
 13 17  1  0
 14 13  2  0
 15 16  2  0
 18 19  1  0
 19 21  1  0
 19 20  2  0
 22 21  1  6
 22 24  1  0
 23 15  1  0
 23 22  1  0
 24 25  2  0
 24 26  1  0
M  END
$$$$
