EDN.pdb
     RDKit          3D

 26 25  0  0  1  0  0  0  0  0999 V2000
   13.6666  -11.1057  -14.9814 N   0  0  0  0  0  0  0  0  0  0  0  0
   15.1441  -11.0540  -14.8670 C   0  0  1  0  0  0  0  0  0  0  0  0
   15.6680  -12.0760  -15.8220 C   0  0  0  0  0  0  0  0  0  0  0  0
   15.4141  -13.4695  -15.3521 C   0  0  0  0  0  0  0  0  0  0  0  0
   15.9403  -14.4366  -16.3453 C   0  0  0  0  0  0  0  0  0  0  0  0
   17.0603  -14.9852  -16.3067 O   0  0  0  0  0  0  0  0  0  0  0  0
   15.6192   -9.7110  -15.2305 C   0  0  0  0  0  0  0  0  0  0  0  0
   15.1627   -9.1144  -16.2160 O   0  0  0  0  0  0  0  0  0  0  0  0
   15.1274  -14.7840  -17.4406 O   0  0  0  0  0  0  0  0  0  0  0  0
   16.6205   -9.0682  -14.4466 N   0  0  0  0  0  0  0  0  0  0  0  0
   17.1349   -7.7576  -14.7320 C   0  0  1  0  0  0  0  0  0  0  0  0
   16.1411   -6.6931  -14.3506 C   0  0  0  0  0  0  0  0  0  0  0  0
   16.6163   -5.3247  -14.5721 C   0  0  0  0  0  0  0  0  0  0  0  0
   17.3110   -5.0977  -15.6084 O   0  0  0  0  0  0  0  0  0  0  0  0
   18.4578   -7.5901  -14.1192 C   0  0  0  0  0  0  0  0  0  0  0  0
   18.6605   -7.8980  -12.9223 O   0  0  0  0  0  0  0  0  0  0  0  0
   16.3730   -4.2358  -13.7402 O   0  0  0  0  0  0  0  0  0  0  0  0
   24.0808   -8.7968  -15.3931 N   0  0  0  0  0  0  0  0  0  0  0  0
   23.1741   -7.7483  -15.0727 C   0  0  0  0  0  0  0  0  0  0  0  0
   23.6283   -6.7256  -14.5093 O   0  0  0  0  0  0  0  0  0  0  0  0
   21.7361   -7.7903  -15.3612 C   0  0  0  0  0  0  0  0  0  0  0  0
   20.8876   -6.9687  -14.4186 C   0  0  2  0  0  0  0  0  0  0  0  0
   19.5200   -7.0735  -14.8829 N   0  0  0  0  0  0  0  0  0  0  0  0
   21.2768   -5.5458  -14.4292 C   0  0  0  0  0  0  0  0  0  0  0  0
   20.7707   -4.7195  -15.2437 O   0  0  0  0  0  0  0  0  0  0  0  0
   22.2169   -5.0884  -13.5314 O   0  0  0  0  0  0  0  0  0  0  0  0
  2  1  1  6
  2  7  1  0
  3  4  1  0
  3  2  1  0
  5  4  1  0
  5  9  1  0
  6  5  2  0
  7  8  2  0
 10 11  1  0
 10  7  1  0
 11 15  1  0
 12 13  1  0
 11 12  1  1
 13 17  1  0
 14 13  2  0
 15 16  2  0
 18 19  1  0
 19 21  1  0
 19 20  2  0
 22 21  1  6
 22 24  1  0
 23 15  1  0
 23 22  1  0
 24 25  2  0
 24 26  1  0
M  END
$$$$
