EDN.pdb
     RDKit          3D

 26 25  0  0  1  0  0  0  0  0999 V2000
   18.0020  -12.8321  -17.5529 N   0  0  0  0  0  0  0  0  0  0  0  0
   18.9607  -11.8009  -18.0177 C   0  0  1  0  0  0  0  0  0  0  0  0
   18.5624  -11.4683  -19.4183 C   0  0  0  0  0  0  0  0  0  0  0  0
   18.7223  -12.6301  -20.3412 C   0  0  0  0  0  0  0  0  0  0  0  0
   18.3805  -12.2213  -21.7248 C   0  0  0  0  0  0  0  0  0  0  0  0
   17.2289  -12.1413  -22.1984 O   0  0  0  0  0  0  0  0  0  0  0  0
   18.8647  -10.6148  -17.1543 C   0  0  0  0  0  0  0  0  0  0  0  0
   17.7690  -10.2093  -16.7414 O   0  0  0  0  0  0  0  0  0  0  0  0
   19.4274  -11.8902  -22.6055 O   0  0  0  0  0  0  0  0  0  0  0  0
   20.0418   -9.9073  -16.7744 N   0  0  0  0  0  0  0  0  0  0  0  0
   20.0369   -8.7627  -15.9063 C   0  0  1  0  0  0  0  0  0  0  0  0
   21.0183   -8.9369  -14.7782 C   0  0  0  0  0  0  0  0  0  0  0  0
   20.9587   -7.8796  -13.7653 C   0  0  0  0  0  0  0  0  0  0  0  0
   21.6453   -6.8315  -13.9600 O   0  0  0  0  0  0  0  0  0  0  0  0
   20.2329   -7.5359  -16.6875 C   0  0  0  0  0  0  0  0  0  0  0  0
   21.1368   -7.4556  -17.5506 O   0  0  0  0  0  0  0  0  0  0  0  0
   20.2086   -7.9187  -12.5937 O   0  0  0  0  0  0  0  0  0  0  0  0
   19.0781   -2.6673  -18.5697 N   0  0  0  0  0  0  0  0  0  0  0  0
   17.9934   -3.5710  -18.3939 C   0  0  0  0  0  0  0  0  0  0  0  0
   16.8742   -3.2479  -18.8551 O   0  0  0  0  0  0  0  0  0  0  0  0
   18.1037   -4.8612  -17.7039 C   0  0  0  0  0  0  0  0  0  0  0  0
   19.4888   -5.1745  -17.1873 C   0  0  2  0  0  0  0  0  0  0  0  0
   19.3962   -6.4271  -16.4666 N   0  0  0  0  0  0  0  0  0  0  0  0
   19.9757   -4.1364  -16.2591 C   0  0  0  0  0  0  0  0  0  0  0  0
   20.2322   -2.9590  -16.6467 O   0  0  0  0  0  0  0  0  0  0  0  0
   20.1605   -4.4428  -14.9283 O   0  0  0  0  0  0  0  0  0  0  0  0
  2  1  1  1
  2  7  1  0
  3  4  1  0
  3  2  1  0
  5  4  1  0
  5  9  1  0
  6  5  2  0
  7  8  2  0
 10 11  1  0
 10  7  1  0
 11 15  1  0
 12 13  1  0
 11 12  1  1
 13 17  1  0
 14 13  2  0
 15 16  2  0
 18 19  1  0
 19 21  1  0
 19 20  2  0
 22 21  1  1
 22 24  1  0
 23 15  1  0
 23 22  1  0
 24 25  2  0
 24 26  1  0
M  END
$$$$
