EDN.pdb
     RDKit          3D

 26 25  0  0  1  0  0  0  0  0999 V2000
   16.7472  -12.9223  -14.2886 N   0  0  0  0  0  0  0  0  0  0  0  0
   15.7746  -11.8055  -14.2140 C   0  0  1  0  0  0  0  0  0  0  0  0
   14.6429  -12.2990  -13.3733 C   0  0  0  0  0  0  0  0  0  0  0  0
   13.8492  -13.3587  -14.0619 C   0  0  0  0  0  0  0  0  0  0  0  0
   12.7834  -12.7331  -14.8812 C   0  0  0  0  0  0  0  0  0  0  0  0
   12.5835  -11.5078  -15.0058 O   0  0  0  0  0  0  0  0  0  0  0  0
   16.4138  -10.6371  -13.5914 C   0  0  0  0  0  0  0  0  0  0  0  0
   17.1932  -10.7655  -12.6367 O   0  0  0  0  0  0  0  0  0  0  0  0
   11.9028  -13.5709  -15.5911 O   0  0  0  0  0  0  0  0  0  0  0  0
   16.1451   -9.3266  -14.0819 N   0  0  0  0  0  0  0  0  0  0  0  0
   16.7711   -8.1403  -13.5672 C   0  0  1  0  0  0  0  0  0  0  0  0
   17.1787   -7.2173  -14.6844 C   0  0  0  0  0  0  0  0  0  0  0  0
   18.1872   -7.7795  -15.5867 C   0  0  0  0  0  0  0  0  0  0  0  0
   17.8413   -8.0319  -16.7803 O   0  0  0  0  0  0  0  0  0  0  0  0
   15.9118   -7.5145  -12.5556 C   0  0  0  0  0  0  0  0  0  0  0  0
   14.6680   -7.4766  -12.6965 O   0  0  0  0  0  0  0  0  0  0  0  0
   19.5072   -8.0661  -15.2517 O   0  0  0  0  0  0  0  0  0  0  0  0
   14.7880   -5.1996   -7.8480 N   0  0  0  0  0  0  0  0  0  0  0  0
   15.4155   -6.4761   -7.8788 C   0  0  0  0  0  0  0  0  0  0  0  0
   15.5052   -7.1167   -6.8058 O   0  0  0  0  0  0  0  0  0  0  0  0
   15.9659   -7.0910   -9.0920 C   0  0  0  0  0  0  0  0  0  0  0  0
   15.7408   -6.2897  -10.3532 C   0  0  2  0  0  0  0  0  0  0  0  0
   16.4887   -6.9436  -11.4068 N   0  0  0  0  0  0  0  0  0  0  0  0
   16.2347   -4.9060  -10.2193 C   0  0  0  0  0  0  0  0  0  0  0  0
   17.3738   -4.5576  -10.6474 O   0  0  0  0  0  0  0  0  0  0  0  0
   15.4432   -3.9543   -9.6137 O   0  0  0  0  0  0  0  0  0  0  0  0
  2  1  1  1
  2  7  1  0
  3  4  1  0
  3  2  1  0
  5  4  1  0
  5  9  1  0
  6  5  2  0
  7  8  2  0
 10 11  1  0
 10  7  1  0
 11 15  1  0
 12 13  1  0
 11 12  1  6
 13 17  1  0
 14 13  2  0
 15 16  2  0
 18 19  1  0
 19 21  1  0
 19 20  2  0
 22 21  1  1
 22 24  1  0
 23 15  1  0
 23 22  1  0
 24 25  2  0
 24 26  1  0
M  END
$$$$
