EDN.pdb
     RDKit          3D

 26 25  0  0  1  0  0  0  0  0999 V2000
   22.5497  -10.7328  -19.1807 N   0  0  0  0  0  0  0  0  0  0  0  0
   21.0731  -10.6365  -19.2751 C   0  0  1  0  0  0  0  0  0  0  0  0
   20.5587  -12.0319  -19.1357 C   0  0  0  0  0  0  0  0  0  0  0  0
   21.6112  -13.0517  -19.4173 C   0  0  0  0  0  0  0  0  0  0  0  0
   22.2350  -13.4915  -18.1461 C   0  0  0  0  0  0  0  0  0  0  0  0
   21.6285  -13.7478  -17.0862 O   0  0  0  0  0  0  0  0  0  0  0  0
   20.5650   -9.7843  -18.1901 C   0  0  0  0  0  0  0  0  0  0  0  0
   19.3525   -9.5627  -18.0633 O   0  0  0  0  0  0  0  0  0  0  0  0
   23.6340  -13.6399  -18.1004 O   0  0  0  0  0  0  0  0  0  0  0  0
   21.4678   -9.1958  -17.2581 N   0  0  0  0  0  0  0  0  0  0  0  0
   21.0734   -8.2328  -16.2676 C   0  0  1  0  0  0  0  0  0  0  0  0
   21.5760   -8.6248  -14.9038 C   0  0  0  0  0  0  0  0  0  0  0  0
   21.2222   -7.6792  -13.8417 C   0  0  0  0  0  0  0  0  0  0  0  0
   19.9915   -7.4716  -13.6173 O   0  0  0  0  0  0  0  0  0  0  0  0
   21.4709   -6.8843  -16.6883 C   0  0  0  0  0  0  0  0  0  0  0  0
   22.5780   -6.6768  -17.2356 O   0  0  0  0  0  0  0  0  0  0  0  0
   22.1227   -6.9782  -13.0453 O   0  0  0  0  0  0  0  0  0  0  0  0
   19.1530   -1.8982  -19.1130 N   0  0  0  0  0  0  0  0  0  0  0  0
   20.0432   -2.5663  -18.2267 C   0  0  0  0  0  0  0  0  0  0  0  0
   21.0445   -1.9387  -17.8106 O   0  0  0  0  0  0  0  0  0  0  0  0
   19.8614   -3.9483  -17.7685 C   0  0  0  0  0  0  0  0  0  0  0  0
   20.9112   -4.4233  -16.7910 C   0  0  2  0  0  0  0  0  0  0  0  0
   20.5990   -5.8014  -16.4743 N   0  0  0  0  0  0  0  0  0  0  0  0
   20.8908   -3.6405  -15.5408 C   0  0  0  0  0  0  0  0  0  0  0  0
   19.9955   -3.8067  -14.6616 O   0  0  0  0  0  0  0  0  0  0  0  0
   21.8691   -2.6979  -15.3095 O   0  0  0  0  0  0  0  0  0  0  0  0
  2  1  1  1
  2  7  1  0
  3  4  1  0
  3  2  1  0
  5  4  1  0
  5  9  1  0
  6  5  2  0
  7  8  2  0
 10 11  1  0
 10  7  1  0
 11 15  1  0
 12 13  1  0
 11 12  1  1
 13 17  1  0
 14 13  2  0
 15 16  2  0
 18 19  1  0
 19 21  1  0
 19 20  2  0
 22 21  1  6
 22 24  1  0
 23 15  1  0
 23 22  1  0
 24 25  2  0
 24 26  1  0
M  END
$$$$
