EDN.pdb
     RDKit          3D

 26 25  0  0  1  0  0  0  0  0999 V2000
   16.8322  -13.2279  -16.1030 N   0  0  0  0  0  0  0  0  0  0  0  0
   18.0823  -12.5706  -15.6513 C   0  0  1  0  0  0  0  0  0  0  0  0
   19.1917  -13.2364  -16.3975 C   0  0  0  0  0  0  0  0  0  0  0  0
   19.4249  -14.6350  -15.9319 C   0  0  0  0  0  0  0  0  0  0  0  0
   20.4558  -15.2798  -16.7804 C   0  0  0  0  0  0  0  0  0  0  0  0
   20.2596  -15.8026  -17.8963 O   0  0  0  0  0  0  0  0  0  0  0  0
   18.0277  -11.1367  -15.9712 C   0  0  0  0  0  0  0  0  0  0  0  0
   17.5406  -10.7358  -17.0377 O   0  0  0  0  0  0  0  0  0  0  0  0
   21.7819  -15.3228  -16.3104 O   0  0  0  0  0  0  0  0  0  0  0  0
   18.5379  -10.1767  -15.0501 N   0  0  0  0  0  0  0  0  0  0  0  0
   18.5557   -8.7625  -15.3028 C   0  0  1  0  0  0  0  0  0  0  0  0
   17.3385   -8.0949  -14.7207 C   0  0  0  0  0  0  0  0  0  0  0  0
   17.3008   -6.6434  -14.9181 C   0  0  0  0  0  0  0  0  0  0  0  0
   17.9951   -6.1540  -15.8596 O   0  0  0  0  0  0  0  0  0  0  0  0
   19.8283   -8.1856  -14.8541 C   0  0  0  0  0  0  0  0  0  0  0  0
   20.2583   -8.3887  -13.6956 O   0  0  0  0  0  0  0  0  0  0  0  0
   16.5642   -5.7394  -14.1586 O   0  0  0  0  0  0  0  0  0  0  0  0
   25.1440   -6.3795  -16.8425 N   0  0  0  0  0  0  0  0  0  0  0  0
   23.8619   -5.8370  -16.5493 C   0  0  0  0  0  0  0  0  0  0  0  0
   23.7993   -4.6519  -16.1477 O   0  0  0  0  0  0  0  0  0  0  0  0
   22.6048   -6.5810  -16.6877 C   0  0  0  0  0  0  0  0  0  0  0  0
   21.8417   -6.7599  -15.3959 C   0  0  2  0  0  0  0  0  0  0  0  0
   20.5818   -7.3884  -15.7345 N   0  0  0  0  0  0  0  0  0  0  0  0
   21.5585   -5.4678  -14.7428 C   0  0  0  0  0  0  0  0  0  0  0  0
   20.5621   -4.7578  -15.0675 O   0  0  0  0  0  0  0  0  0  0  0  0
   22.3938   -5.0082  -13.7477 O   0  0  0  0  0  0  0  0  0  0  0  0
  2  1  1  6
  2  7  1  0
  3  4  1  0
  3  2  1  0
  5  4  1  0
  5  9  1  0
  6  5  2  0
  7  8  2  0
 10 11  1  0
 10  7  1  0
 11 15  1  0
 12 13  1  0
 11 12  1  1
 13 17  1  0
 14 13  2  0
 15 16  2  0
 18 19  1  0
 19 21  1  0
 19 20  2  0
 22 21  1  6
 22 24  1  0
 23 15  1  0
 23 22  1  0
 24 25  2  0
 24 26  1  0
M  END
$$$$
