EDN.pdb
     RDKit          3D

 26 25  0  0  1  0  0  0  0  0999 V2000
   17.5846  -11.7941  -17.2715 N   0  0  0  0  0  0  0  0  0  0  0  0
   17.4744  -11.3477  -15.8618 C   0  0  1  0  0  0  0  0  0  0  0  0
   17.5586  -12.5849  -15.0292 C   0  0  0  0  0  0  0  0  0  0  0  0
   17.4184  -13.8254  -15.8467 C   0  0  0  0  0  0  0  0  0  0  0  0
   17.6296  -15.0166  -14.9894 C   0  0  0  0  0  0  0  0  0  0  0  0
   18.6734  -15.6978  -14.9313 O   0  0  0  0  0  0  0  0  0  0  0  0
   18.5817  -10.4329  -15.5473 C   0  0  0  0  0  0  0  0  0  0  0  0
   18.7479   -9.9988  -14.3986 O   0  0  0  0  0  0  0  0  0  0  0  0
   16.5761  -15.4412  -14.1581 O   0  0  0  0  0  0  0  0  0  0  0  0
   19.4900  -10.0290  -16.5680 N   0  0  0  0  0  0  0  0  0  0  0  0
   20.5883   -9.1300  -16.3457 C   0  0  1  0  0  0  0  0  0  0  0  0
   21.8182   -9.5879  -17.0832 C   0  0  0  0  0  0  0  0  0  0  0  0
   22.9944   -8.7409  -16.8678 C   0  0  0  0  0  0  0  0  0  0  0  0
   22.8780   -7.7513  -16.0835 O   0  0  0  0  0  0  0  0  0  0  0  0
   20.1834   -7.7531  -16.6520 C   0  0  0  0  0  0  0  0  0  0  0  0
   19.7801   -7.4358  -17.7943 O   0  0  0  0  0  0  0  0  0  0  0  0
   24.2446   -8.9237  -17.4512 O   0  0  0  0  0  0  0  0  0  0  0  0
   18.4769   -2.8319  -15.7161 N   0  0  0  0  0  0  0  0  0  0  0  0
   17.7490   -4.0230  -15.4411 C   0  0  0  0  0  0  0  0  0  0  0  0
   16.5317   -3.9208  -15.1628 O   0  0  0  0  0  0  0  0  0  0  0  0
   18.3366   -5.3673  -15.4627 C   0  0  0  0  0  0  0  0  0  0  0  0
   19.8051   -5.3993  -15.8173 C   0  0  2  0  0  0  0  0  0  0  0  0
   20.2490   -6.7675  -15.6505 N   0  0  0  0  0  0  0  0  0  0  0  0
   20.6035   -4.5371  -14.9254 C   0  0  0  0  0  0  0  0  0  0  0  0
   20.4438   -3.2820  -14.8886 O   0  0  0  0  0  0  0  0  0  0  0  0
   21.5539   -5.1009  -14.1019 O   0  0  0  0  0  0  0  0  0  0  0  0
  2  1  1  6
  2  7  1  0
  3  4  1  0
  3  2  1  0
  5  4  1  0
  5  9  1  0
  6  5  2  0
  7  8  2  0
 10 11  1  0
 10  7  1  0
 11 15  1  0
 12 13  1  0
 11 12  1  6
 13 17  1  0
 14 13  2  0
 15 16  2  0
 18 19  1  0
 19 21  1  0
 19 20  2  0
 22 21  1  1
 22 24  1  0
 23 15  1  0
 23 22  1  0
 24 25  2  0
 24 26  1  0
M  END
$$$$
