DAL.pdb
     RDKit          3D

 22 21  0  0  1  0  0  0  0  0999 V2000
    7.3698  -17.3450   19.1625 N   0  0  0  0  0  0  0  0  0  0  0  0
    8.4018  -17.4524   20.1939 C   0  0  1  0  0  0  0  0  0  0  0  0
    9.6333  -16.6524   19.7939 C   0  0  0  0  0  0  0  0  0  0  0  0
   10.5499  -17.4303   18.9378 C   0  0  0  0  0  0  0  0  0  0  0  0
   11.7688  -17.4106   19.1735 O   0  0  0  0  0  0  0  0  0  0  0  0
    7.8530  -16.9808   21.4846 C   0  0  0  0  0  0  0  0  0  0  0  0
    7.1808  -15.9036   21.4734 O   0  0  0  0  0  0  0  0  0  0  0  0
   10.0478  -18.1637   17.8895 O   0  0  0  0  0  0  0  0  0  0  0  0
    6.6684  -18.2355   24.6471 C   0  0  0  0  0  0  0  0  0  0  0  0
    7.3604  -17.1224   23.8903 C   0  0  2  0  0  0  0  0  0  0  0  0
    8.0204  -17.6348   22.7219 N   0  0  0  0  0  0  0  0  0  0  0  0
    8.2075  -16.2660   24.7324 C   0  0  0  0  0  0  0  0  0  0  0  0
    9.4758  -16.4154   24.6861 O   0  0  0  0  0  0  0  0  0  0  0  0
    5.6421  -11.9601   26.8640 C   0  0  0  0  0  0  0  0  0  0  0  0
    6.5908  -12.9008   26.1900 C   0  0  1  0  0  0  0  0  0  0  0  0
    7.2766  -12.0746   25.0926 C   0  0  0  0  0  0  0  0  0  0  0  0
    7.6582  -13.4199   27.1111 C   0  0  0  0  0  0  0  0  0  0  0  0
    8.5360  -14.4805   26.4980 C   0  0  2  0  0  0  0  0  0  0  0  0
    7.7275  -15.2691   25.6084 N   0  0  0  0  0  0  0  0  0  0  0  0
    9.3473  -15.2378   27.4530 C   0  0  0  0  0  0  0  0  0  0  0  0
    9.2892  -16.5890   27.6429 O   0  0  0  0  0  0  0  0  0  0  0  0
   10.1737  -14.5913   28.1636 O   0  0  0  0  0  0  0  0  0  0  0  0
  2  1  1  6
  3  4  1  0
  3  2  1  0
  4  5  2  0
  6  2  1  0
  6 11  1  0
  7  6  2  0
  8  4  1  0
 10 12  1  0
 10  9  1  1
 11 10  1  0
 12 19  1  0
 12 13  2  0
 15 14  1  1
 15 16  1  0
 17 15  1  0
 18 17  1  1
 19 18  1  0
 20 18  1  0
 21 20  1  0
 22 20  2  0
M  END
$$$$
