DAL.pdb
     RDKit          3D

 22 21  0  0  1  0  0  0  0  0999 V2000
    9.9655  -14.8573   18.8734 N   0  0  0  0  0  0  0  0  0  0  0  0
    8.7990  -14.0904   19.3111 C   0  0  1  0  0  0  0  0  0  0  0  0
    7.7820  -13.9866   18.1835 C   0  0  0  0  0  0  0  0  0  0  0  0
    8.4259  -13.8686   16.8608 C   0  0  0  0  0  0  0  0  0  0  0  0
    9.3447  -14.6469   16.5581 O   0  0  0  0  0  0  0  0  0  0  0  0
    8.2103  -14.7363   20.5052 C   0  0  0  0  0  0  0  0  0  0  0  0
    7.1805  -14.1940   21.0130 O   0  0  0  0  0  0  0  0  0  0  0  0
    8.0062  -12.8995   15.9811 O   0  0  0  0  0  0  0  0  0  0  0  0
    8.0645  -17.8844   22.3698 C   0  0  0  0  0  0  0  0  0  0  0  0
    8.1077  -16.3720   22.3394 C   0  0  2  0  0  0  0  0  0  0  0  0
    8.7055  -15.9040   21.1199 N   0  0  0  0  0  0  0  0  0  0  0  0
    8.6699  -15.7672   23.5552 C   0  0  0  0  0  0  0  0  0  0  0  0
    9.9243  -15.5278   23.6026 O   0  0  0  0  0  0  0  0  0  0  0  0
    5.8215  -12.0483   26.1581 C   0  0  0  0  0  0  0  0  0  0  0  0
    6.9602  -12.8402   25.5963 C   0  0  1  0  0  0  0  0  0  0  0  0
    8.1208  -11.8451   25.4548 C   0  0  0  0  0  0  0  0  0  0  0  0
    7.4113  -13.9481   26.5054 C   0  0  0  0  0  0  0  0  0  0  0  0
    8.4623  -14.8458   25.9050 C   0  0  2  0  0  0  0  0  0  0  0  0
    7.9241  -15.4201   24.7020 N   0  0  0  0  0  0  0  0  0  0  0  0
    9.0714  -15.7937   26.8400 C   0  0  0  0  0  0  0  0  0  0  0  0
    9.0244  -17.1541   26.7295 O   0  0  0  0  0  0  0  0  0  0  0  0
    9.6958  -15.3179   27.8349 O   0  0  0  0  0  0  0  0  0  0  0  0
  2  1  1  6
  3  4  1  0
  3  2  1  0
  4  5  2  0
  6  2  1  0
  6 11  1  0
  7  6  2  0
  8  4  1  0
 10 12  1  0
 10  9  1  1
 11 10  1  0
 12 19  1  0
 12 13  2  0
 15 14  1  1
 15 16  1  0
 17 15  1  0
 18 17  1  1
 19 18  1  0
 20 18  1  0
 21 20  1  0
 22 20  2  0
M  END
$$$$
