DAL.pdb
     RDKit          3D

 22 21  0  0  1  0  0  0  0  0999 V2000
    8.6898  -18.7768   21.4460 N   0  0  0  0  0  0  0  0  0  0  0  0
    9.8553  -18.0206   20.9878 C   0  0  1  0  0  0  0  0  0  0  0  0
   10.2763  -18.4876   19.6017 C   0  0  0  0  0  0  0  0  0  0  0  0
   11.0452  -19.7466   19.6470 C   0  0  0  0  0  0  0  0  0  0  0  0
   11.7321  -20.0060   20.6483 O   0  0  0  0  0  0  0  0  0  0  0  0
    9.5324  -16.5765   20.9910 C   0  0  0  0  0  0  0  0  0  0  0  0
   10.5030  -15.7620   20.9086 O   0  0  0  0  0  0  0  0  0  0  0  0
   10.9965  -20.6150   18.5829 O   0  0  0  0  0  0  0  0  0  0  0  0
    6.7066  -14.1997   20.6491 C   0  0  0  0  0  0  0  0  0  0  0  0
    8.0586  -14.6168   21.1861 C   0  0  2  0  0  0  0  0  0  0  0  0
    8.2325  -16.0387   21.0789 N   0  0  0  0  0  0  0  0  0  0  0  0
    8.3655  -14.0723   22.5163 C   0  0  0  0  0  0  0  0  0  0  0  0
    8.4557  -12.8056   22.6593 O   0  0  0  0  0  0  0  0  0  0  0  0
    7.3757  -11.9193   26.7734 C   0  0  0  0  0  0  0  0  0  0  0  0
    6.8126  -13.2953   26.6035 C   0  0  1  0  0  0  0  0  0  0  0  0
    5.2953  -13.1417   26.7805 C   0  0  0  0  0  0  0  0  0  0  0  0
    7.0615  -13.8681   25.2369 C   0  0  0  0  0  0  0  0  0  0  0  0
    8.4664  -14.3723   25.0290 C   0  0  2  0  0  0  0  0  0  0  0  0
    8.5738  -14.8482   23.6766 N   0  0  0  0  0  0  0  0  0  0  0  0
    8.9521  -15.2893   26.0619 C   0  0  0  0  0  0  0  0  0  0  0  0
    9.6592  -14.9262   27.1725 O   0  0  0  0  0  0  0  0  0  0  0  0
    8.6972  -16.5224   25.9190 O   0  0  0  0  0  0  0  0  0  0  0  0
  2  1  1  6
  3  4  1  0
  3  2  1  0
  4  5  2  0
  6  2  1  0
  6 11  1  0
  7  6  2  0
  8  4  1  0
 10 12  1  0
 10  9  1  1
 11 10  1  0
 12 19  1  0
 12 13  2  0
 15 14  1  6
 15 16  1  0
 17 15  1  0
 18 17  1  1
 19 18  1  0
 20 18  1  0
 21 20  1  0
 22 20  2  0
M  END
$$$$
