DAL.pdb
     RDKit          3D

 22 21  0  0  1  0  0  0  0  0999 V2000
    7.4181  -19.5771   20.5620 N   0  0  0  0  0  0  0  0  0  0  0  0
    7.0776  -18.7531   21.7219 C   0  0  1  0  0  0  0  0  0  0  0  0
    7.3743  -19.5069   23.0105 C   0  0  0  0  0  0  0  0  0  0  0  0
    6.1806  -19.6356   23.8688 C   0  0  0  0  0  0  0  0  0  0  0  0
    5.0513  -19.5424   23.3610 O   0  0  0  0  0  0  0  0  0  0  0  0
    7.8349  -17.4834   21.6579 C   0  0  0  0  0  0  0  0  0  0  0  0
    9.1020  -17.5583   21.6894 O   0  0  0  0  0  0  0  0  0  0  0  0
    6.3297  -19.8529   25.2177 O   0  0  0  0  0  0  0  0  0  0  0  0
    7.4193  -13.8503   20.9801 C   0  0  0  0  0  0  0  0  0  0  0  0
    8.0980  -15.0380   21.6275 C   0  0  2  0  0  0  0  0  0  0  0  0
    7.2572  -16.2010   21.5656 N   0  0  0  0  0  0  0  0  0  0  0  0
    8.6403  -14.7587   22.9647 C   0  0  0  0  0  0  0  0  0  0  0  0
    9.8183  -14.2735   23.0644 O   0  0  0  0  0  0  0  0  0  0  0  0
    5.6047  -12.3386   26.3901 C   0  0  0  0  0  0  0  0  0  0  0  0
    6.8565  -12.8134   25.7216 C   0  0  1  0  0  0  0  0  0  0  0  0
    7.8950  -11.7092   25.9650 C   0  0  0  0  0  0  0  0  0  0  0  0
    7.3914  -14.0875   26.3116 C   0  0  0  0  0  0  0  0  0  0  0  0
    8.4774  -14.7354   25.4919 C   0  0  2  0  0  0  0  0  0  0  0  0
    7.9538  -14.9863   24.1766 N   0  0  0  0  0  0  0  0  0  0  0  0
    9.1413  -15.8710   26.1348 C   0  0  0  0  0  0  0  0  0  0  0  0
    9.2887  -17.1138   25.5880 O   0  0  0  0  0  0  0  0  0  0  0  0
    9.6216  -15.6909   27.2936 O   0  0  0  0  0  0  0  0  0  0  0  0
  2  1  1  6
  3  4  1  0
  3  2  1  0
  4  5  2  0
  6  2  1  0
  6 11  1  0
  7  6  2  0
  8  4  1  0
 10 12  1  0
 10  9  1  1
 11 10  1  0
 12 19  1  0
 12 13  2  0
 15 14  1  1
 15 16  1  0
 17 15  1  0
 18 17  1  1
 19 18  1  0
 20 18  1  0
 21 20  1  0
 22 20  2  0
M  END
$$$$
