DAL.pdb
     RDKit          3D

 22 21  0  0  1  0  0  0  0  0999 V2000
    9.0339  -18.3038   20.1598 N   0  0  0  0  0  0  0  0  0  0  0  0
    8.5069  -16.9418   20.2465 C   0  0  1  0  0  0  0  0  0  0  0  0
    7.4246  -16.7266   19.1982 C   0  0  0  0  0  0  0  0  0  0  0  0
    7.8859  -17.0759   17.8405 C   0  0  0  0  0  0  0  0  0  0  0  0
    8.9503  -16.5977   17.4162 O   0  0  0  0  0  0  0  0  0  0  0  0
    7.9849  -16.7063   21.6110 C   0  0  0  0  0  0  0  0  0  0  0  0
    7.3907  -15.6049   21.8257 O   0  0  0  0  0  0  0  0  0  0  0  0
    7.1339  -17.9212   17.0602 O   0  0  0  0  0  0  0  0  0  0  0  0
    7.0777  -18.5082   24.6988 C   0  0  0  0  0  0  0  0  0  0  0  0
    7.5343  -17.2669   23.9632 C   0  0  2  0  0  0  0  0  0  0  0  0
    8.0979  -17.6095   22.6871 N   0  0  0  0  0  0  0  0  0  0  0  0
    8.3744  -16.3709   24.7704 C   0  0  0  0  0  0  0  0  0  0  0  0
    9.6449  -16.4468   24.6566 O   0  0  0  0  0  0  0  0  0  0  0  0
    6.0460  -11.8272   26.1095 C   0  0  0  0  0  0  0  0  0  0  0  0
    7.0674  -12.8381   25.6923 C   0  0  1  0  0  0  0  0  0  0  0  0
    7.9859  -12.1079   24.7022 C   0  0  0  0  0  0  0  0  0  0  0  0
    7.9144  -13.3243   26.8341 C   0  0  0  0  0  0  0  0  0  0  0  0
    8.6933  -14.5783   26.5306 C   0  0  2  0  0  0  0  0  0  0  0  0
    7.8850  -15.4109   25.6819 N   0  0  0  0  0  0  0  0  0  0  0  0
    9.2736  -15.2422   27.6994 C   0  0  0  0  0  0  0  0  0  0  0  0
    8.9823  -16.5104   28.1141 O   0  0  0  0  0  0  0  0  0  0  0  0
   10.1171  -14.5913   28.3856 O   0  0  0  0  0  0  0  0  0  0  0  0
  2  1  1  1
  3  4  1  0
  3  2  1  0
  4  5  2  0
  6  2  1  0
  6 11  1  0
  7  6  2  0
  8  4  1  0
 10 12  1  0
 10  9  1  1
 11 10  1  0
 12 19  1  0
 12 13  2  0
 15 14  1  1
 15 16  1  0
 17 15  1  0
 18 17  1  1
 19 18  1  0
 20 18  1  0
 21 20  1  0
 22 20  2  0
M  END
$$$$
