DAL.pdb
     RDKit          3D

 22 21  0  0  1  0  0  0  0  0999 V2000
    6.3473  -14.6104   20.9644 N   0  0  0  0  0  0  0  0  0  0  0  0
    7.0986  -15.5992   20.1909 C   0  0  1  0  0  0  0  0  0  0  0  0
    7.5316  -15.0078   18.8569 C   0  0  0  0  0  0  0  0  0  0  0  0
    8.0923  -16.0284   17.9502 C   0  0  0  0  0  0  0  0  0  0  0  0
    7.6218  -17.1774   17.9597 O   0  0  0  0  0  0  0  0  0  0  0  0
    8.2658  -16.0519   20.9799 C   0  0  0  0  0  0  0  0  0  0  0  0
    9.1065  -16.8044   20.3975 O   0  0  0  0  0  0  0  0  0  0  0  0
    9.1286  -15.6995   17.1094 O   0  0  0  0  0  0  0  0  0  0  0  0
   10.8908  -16.1771   22.1626 C   0  0  0  0  0  0  0  0  0  0  0  0
    9.6395  -16.2875   23.0066 C   0  0  2  0  0  0  0  0  0  0  0  0
    8.5133  -15.7122   22.3252 N   0  0  0  0  0  0  0  0  0  0  0  0
    9.8095  -15.8182   24.3890 C   0  0  0  0  0  0  0  0  0  0  0  0
   10.9529  -15.9406   24.9464 O   0  0  0  0  0  0  0  0  0  0  0  0
    6.0425  -12.3008   26.2044 C   0  0  0  0  0  0  0  0  0  0  0  0
    7.3125  -13.0193   25.8726 C   0  0  1  0  0  0  0  0  0  0  0  0
    8.3965  -11.9332   25.8222 C   0  0  0  0  0  0  0  0  0  0  0  0
    7.7120  -14.0211   26.9186 C   0  0  0  0  0  0  0  0  0  0  0  0
    8.9192  -14.8449   26.5508 C   0  0  2  0  0  0  0  0  0  0  0  0
    8.7930  -15.2299   25.1714 N   0  0  0  0  0  0  0  0  0  0  0  0
    9.2337  -15.9291   27.4831 C   0  0  0  0  0  0  0  0  0  0  0  0
    9.8633  -15.7800   28.6859 O   0  0  0  0  0  0  0  0  0  0  0  0
    8.8949  -17.1046   27.1522 O   0  0  0  0  0  0  0  0  0  0  0  0
  2  1  1  1
  3  4  1  0
  3  2  1  0
  4  5  2  0
  6  2  1  0
  6 11  1  0
  7  6  2  0
  8  4  1  0
 10 12  1  0
 10  9  1  6
 11 10  1  0
 12 19  1  0
 12 13  2  0
 15 14  1  1
 15 16  1  0
 17 15  1  0
 18 17  1  1
 19 18  1  0
 20 18  1  0
 21 20  1  0
 22 20  2  0
M  END
$$$$
