DAL.pdb
     RDKit          3D

 22 21  0  0  1  0  0  0  0  0999 V2000
   11.1370  -19.1902   20.8316 N   0  0  0  0  0  0  0  0  0  0  0  0
   11.4946  -17.7895   21.0560 C   0  0  1  0  0  0  0  0  0  0  0  0
   11.7175  -17.0820   19.7269 C   0  0  0  0  0  0  0  0  0  0  0  0
   13.0464  -17.3743   19.1554 C   0  0  0  0  0  0  0  0  0  0  0  0
   13.7899  -18.1889   19.7259 O   0  0  0  0  0  0  0  0  0  0  0  0
   10.4252  -17.1321   21.8396 C   0  0  0  0  0  0  0  0  0  0  0  0
   10.5123  -15.8763   22.0056 O   0  0  0  0  0  0  0  0  0  0  0  0
   13.4484  -16.7417   18.0034 O   0  0  0  0  0  0  0  0  0  0  0  0
    7.0823  -17.8636   23.3515 C   0  0  0  0  0  0  0  0  0  0  0  0
    8.3246  -17.0322   23.1154 C   0  0  2  0  0  0  0  0  0  0  0  0
    9.3210  -17.7932   22.4144 N   0  0  0  0  0  0  0  0  0  0  0  0
    8.8240  -16.3517   24.3185 C   0  0  0  0  0  0  0  0  0  0  0  0
    9.9589  -16.6945   24.7956 O   0  0  0  0  0  0  0  0  0  0  0  0
    5.8455  -12.0236   25.9643 C   0  0  0  0  0  0  0  0  0  0  0  0
    6.9820  -12.9119   25.5660 C   0  0  1  0  0  0  0  0  0  0  0  0
    8.1218  -11.9642   25.1660 C   0  0  0  0  0  0  0  0  0  0  0  0
    7.4751  -13.7766   26.6915 C   0  0  0  0  0  0  0  0  0  0  0  0
    8.5216  -14.7806   26.2816 C   0  0  2  0  0  0  0  0  0  0  0  0
    8.1403  -15.3275   25.0078 N   0  0  0  0  0  0  0  0  0  0  0  0
    8.8724  -15.7612   27.3107 C   0  0  0  0  0  0  0  0  0  0  0  0
    8.4301  -17.0525   27.3558 O   0  0  0  0  0  0  0  0  0  0  0  0
    9.6511  -15.3863   28.2375 O   0  0  0  0  0  0  0  0  0  0  0  0
  2  1  1  6
  3  4  1  0
  3  2  1  0
  4  5  2  0
  6  2  1  0
  6 11  1  0
  7  6  2  0
  8  4  1  0
 10 12  1  0
 10  9  1  1
 11 10  1  0
 12 19  1  0
 12 13  2  0
 15 14  1  1
 15 16  1  0
 17 15  1  0
 18 17  1  1
 19 18  1  0
 20 18  1  0
 21 20  1  0
 22 20  2  0
M  END
$$$$
