DAL.pdb
     RDKit          3D

 22 21  0  0  1  0  0  0  0  0999 V2000
    8.7422  -18.9556   20.5968 N   0  0  0  0  0  0  0  0  0  0  0  0
   10.0292  -18.2651   20.6825 C   0  0  1  0  0  0  0  0  0  0  0  0
   10.7432  -18.3104   19.3391 C   0  0  0  0  0  0  0  0  0  0  0  0
   11.1758  -19.6758   18.9832 C   0  0  0  0  0  0  0  0  0  0  0  0
   10.3919  -20.4261   18.3797 O   0  0  0  0  0  0  0  0  0  0  0  0
    9.8063  -16.8703   21.1236 C   0  0  0  0  0  0  0  0  0  0  0  0
   10.8136  -16.0973   21.1434 O   0  0  0  0  0  0  0  0  0  0  0  0
   12.4364  -20.1035   19.3250 O   0  0  0  0  0  0  0  0  0  0  0  0
    7.1301  -14.3843   21.6818 C   0  0  0  0  0  0  0  0  0  0  0  0
    8.4899  -14.9775   21.9807 C   0  0  2  0  0  0  0  0  0  0  0  0
    8.5642  -16.3370   21.5227 N   0  0  0  0  0  0  0  0  0  0  0  0
    8.9317  -14.7859   23.3693 C   0  0  0  0  0  0  0  0  0  0  0  0
   10.1144  -14.3536   23.5870 O   0  0  0  0  0  0  0  0  0  0  0  0
    5.8112  -12.3064   26.5179 C   0  0  0  0  0  0  0  0  0  0  0  0
    7.1069  -12.8433   25.9960 C   0  0  1  0  0  0  0  0  0  0  0  0
    8.1669  -11.8017   26.3813 C   0  0  0  0  0  0  0  0  0  0  0  0
    7.4969  -14.1516   26.6235 C   0  0  0  0  0  0  0  0  0  0  0  0
    8.5711  -14.8964   25.8736 C   0  0  2  0  0  0  0  0  0  0  0  0
    8.1415  -15.0450   24.5096 N   0  0  0  0  0  0  0  0  0  0  0  0
    9.0423  -16.1204   26.5244 C   0  0  0  0  0  0  0  0  0  0  0  0
    9.0435  -17.3649   25.9618 O   0  0  0  0  0  0  0  0  0  0  0  0
    9.4878  -16.0224   27.7067 O   0  0  0  0  0  0  0  0  0  0  0  0
  2  1  1  6
  3  4  1  0
  3  2  1  0
  4  5  2  0
  6  2  1  0
  6 11  1  0
  7  6  2  0
  8  4  1  0
 10 12  1  0
 10  9  1  1
 11 10  1  0
 12 19  1  0
 12 13  2  0
 15 14  1  1
 15 16  1  0
 17 15  1  0
 18 17  1  1
 19 18  1  0
 20 18  1  0
 21 20  1  0
 22 20  2  0
M  END
$$$$
