DAL.pdb
     RDKit          3D

 22 21  0  0  1  0  0  0  0  0999 V2000
    7.3843  -18.4662   20.6295 N   0  0  0  0  0  0  0  0  0  0  0  0
    8.8186  -18.2187   20.4815 C   0  0  1  0  0  0  0  0  0  0  0  0
    9.2698  -18.5576   19.0680 C   0  0  0  0  0  0  0  0  0  0  0  0
    8.9221  -19.9407   18.6880 C   0  0  0  0  0  0  0  0  0  0  0  0
    9.2426  -20.8778   19.4368 O   0  0  0  0  0  0  0  0  0  0  0  0
    9.1066  -16.8051   20.8110 C   0  0  0  0  0  0  0  0  0  0  0  0
   10.3161  -16.4250   20.7407 O   0  0  0  0  0  0  0  0  0  0  0  0
    8.2525  -20.1777   17.5114 O   0  0  0  0  0  0  0  0  0  0  0  0
    7.5709  -13.4942   21.1021 C   0  0  0  0  0  0  0  0  0  0  0  0
    8.5625  -14.5329   21.5798 C   0  0  2  0  0  0  0  0  0  0  0  0
    8.1425  -15.8520   21.1965 N   0  0  0  0  0  0  0  0  0  0  0  0
    8.9223  -14.4052   22.9990 C   0  0  0  0  0  0  0  0  0  0  0  0
    9.9707  -13.7455   23.3134 O   0  0  0  0  0  0  0  0  0  0  0  0
    5.5219  -12.5590   26.2036 C   0  0  0  0  0  0  0  0  0  0  0  0
    6.8737  -12.9474   25.6926 C   0  0  1  0  0  0  0  0  0  0  0  0
    7.8405  -11.8923   26.2485 C   0  0  0  0  0  0  0  0  0  0  0  0
    7.3252  -14.2924   26.1871 C   0  0  0  0  0  0  0  0  0  0  0  0
    8.5268  -14.8417   25.4621 C   0  0  2  0  0  0  0  0  0  0  0  0
    8.1907  -14.9625   24.0695 N   0  0  0  0  0  0  0  0  0  0  0  0
    9.1259  -16.0299   26.0727 C   0  0  0  0  0  0  0  0  0  0  0  0
    9.3812  -17.2066   25.4282 O   0  0  0  0  0  0  0  0  0  0  0  0
    9.4360  -15.9662   27.2998 O   0  0  0  0  0  0  0  0  0  0  0  0
  2  1  1  6
  3  4  1  0
  3  2  1  0
  4  5  2  0
  6  2  1  0
  6 11  1  0
  7  6  2  0
  8  4  1  0
 10 12  1  0
 10  9  1  1
 11 10  1  0
 12 19  1  0
 12 13  2  0
 15 14  1  1
 15 16  1  0
 17 15  1  0
 18 17  1  1
 19 18  1  0
 20 18  1  0
 21 20  1  0
 22 20  2  0
M  END
$$$$
