DAL.pdb
     RDKit          3D

 22 21  0  0  1  0  0  0  0  0999 V2000
   10.7466  -15.9935   18.2809 N   0  0  0  0  0  0  0  0  0  0  0  0
   11.3416  -15.8108   19.6049 C   0  0  1  0  0  0  0  0  0  0  0  0
   12.1320  -14.5110   19.6539 C   0  0  0  0  0  0  0  0  0  0  0  0
   13.5017  -14.6709   19.1281 C   0  0  0  0  0  0  0  0  0  0  0  0
   13.9136  -15.8047   18.8341 O   0  0  0  0  0  0  0  0  0  0  0  0
   10.2717  -15.8257   20.6271 C   0  0  0  0  0  0  0  0  0  0  0  0
    9.2039  -15.1915   20.3625 O   0  0  0  0  0  0  0  0  0  0  0  0
   14.3065  -13.5677   18.9727 O   0  0  0  0  0  0  0  0  0  0  0  0
    8.5344  -17.8740   22.6949 C   0  0  0  0  0  0  0  0  0  0  0  0
    9.2002  -16.5154   22.7310 C   0  0  2  0  0  0  0  0  0  0  0  0
   10.3488  -16.4881   21.8688 N   0  0  0  0  0  0  0  0  0  0  0  0
    9.4552  -16.0124   24.0882 C   0  0  0  0  0  0  0  0  0  0  0  0
   10.6409  -16.0815   24.5597 O   0  0  0  0  0  0  0  0  0  0  0  0
    5.7599  -12.4825   26.2555 C   0  0  0  0  0  0  0  0  0  0  0  0
    7.0291  -13.1410   25.8140 C   0  0  1  0  0  0  0  0  0  0  0  0
    8.0988  -12.0407   25.8600 C   0  0  0  0  0  0  0  0  0  0  0  0
    7.4670  -14.2481   26.7305 C   0  0  0  0  0  0  0  0  0  0  0  0
    8.7076  -14.9704   26.2720 C   0  0  2  0  0  0  0  0  0  0  0  0
    8.4783  -15.4460   24.9348 N   0  0  0  0  0  0  0  0  0  0  0  0
    9.2279  -15.9625   27.2148 C   0  0  0  0  0  0  0  0  0  0  0  0
    9.9932  -15.6858   28.3116 O   0  0  0  0  0  0  0  0  0  0  0  0
    8.9469  -17.1796   27.0007 O   0  0  0  0  0  0  0  0  0  0  0  0
  2  1  1  6
  3  4  1  0
  3  2  1  0
  4  5  2  0
  6  2  1  0
  6 11  1  0
  7  6  2  0
  8  4  1  0
 10 12  1  0
 10  9  1  1
 11 10  1  0
 12 19  1  0
 12 13  2  0
 15 14  1  1
 15 16  1  0
 17 15  1  0
 18 17  1  1
 19 18  1  0
 20 18  1  0
 21 20  1  0
 22 20  2  0
M  END
$$$$
