DAL.pdb
     RDKit          3D

 22 21  0  0  1  0  0  0  0  0999 V2000
    9.4273  -18.8798   19.6677 N   0  0  0  0  0  0  0  0  0  0  0  0
    9.3562  -17.4260   19.5205 C   0  0  1  0  0  0  0  0  0  0  0  0
    8.7210  -17.0607   18.1865 C   0  0  0  0  0  0  0  0  0  0  0  0
    9.6374  -17.2869   17.0519 C   0  0  0  0  0  0  0  0  0  0  0  0
   10.8132  -17.6183   17.2742 O   0  0  0  0  0  0  0  0  0  0  0  0
    8.5900  -16.8577   20.6517 C   0  0  0  0  0  0  0  0  0  0  0  0
    8.5133  -15.5925   20.7266 O   0  0  0  0  0  0  0  0  0  0  0  0
    9.1832  -17.1257   15.7648 O   0  0  0  0  0  0  0  0  0  0  0  0
    6.6116  -17.9195   23.6577 C   0  0  0  0  0  0  0  0  0  0  0  0
    7.3849  -16.9466   22.7942 C   0  0  2  0  0  0  0  0  0  0  0  0
    7.9415  -17.6128   21.6497 N   0  0  0  0  0  0  0  0  0  0  0  0
    8.3490  -16.1246   23.5391 C   0  0  0  0  0  0  0  0  0  0  0  0
    8.9975  -15.2166   22.9162 O   0  0  0  0  0  0  0  0  0  0  0  0
    8.3103  -11.9707   26.1749 C   0  0  0  0  0  0  0  0  0  0  0  0
    7.5395  -13.1398   26.7026 C   0  0  1  0  0  0  0  0  0  0  0  0
    6.0929  -12.6458   26.8454 C   0  0  0  0  0  0  0  0  0  0  0  0
    7.5353  -14.3134   25.7645 C   0  0  0  0  0  0  0  0  0  0  0  0
    8.7734  -15.1689   25.8456 C   0  0  2  0  0  0  0  0  0  0  0  0
    8.6258  -16.2562   24.9167 N   0  0  0  0  0  0  0  0  0  0  0  0
    9.1743  -15.5469   27.2021 C   0  0  0  0  0  0  0  0  0  0  0  0
   10.1528  -14.9390   27.9357 O   0  0  0  0  0  0  0  0  0  0  0  0
    8.5658  -16.5168   27.7453 O   0  0  0  0  0  0  0  0  0  0  0  0
  2  1  1  1
  3  4  1  0
  3  2  1  0
  4  5  2  0
  6  2  1  0
  6 11  1  0
  7  6  2  0
  8  4  1  0
 10 12  1  0
 10  9  1  1
 11 10  1  0
 12 19  1  0
 12 13  2  0
 15 14  1  6
 15 16  1  0
 17 15  1  0
 18 17  1  1
 19 18  1  0
 20 18  1  0
 21 20  1  0
 22 20  2  0
M  END
$$$$
