DAL.pdb
     RDKit          3D

 22 21  0  0  1  0  0  0  0  0999 V2000
    9.3961  -18.6668   20.9349 N   0  0  0  0  0  0  0  0  0  0  0  0
   10.5130  -17.7341   21.0864 C   0  0  1  0  0  0  0  0  0  0  0  0
   11.4167  -17.7893   19.8629 C   0  0  0  0  0  0  0  0  0  0  0  0
   12.1339  -19.0748   19.7569 C   0  0  0  0  0  0  0  0  0  0  0  0
   11.5854  -20.1142   20.1576 O   0  0  0  0  0  0  0  0  0  0  0  0
    9.9835  -16.3688   21.2996 C   0  0  0  0  0  0  0  0  0  0  0  0
   10.8280  -15.4278   21.4164 O   0  0  0  0  0  0  0  0  0  0  0  0
   13.3990  -19.1087   19.2208 O   0  0  0  0  0  0  0  0  0  0  0  0
    6.7860  -14.4424   21.4611 C   0  0  0  0  0  0  0  0  0  0  0  0
    8.2320  -14.7194   21.8113 C   0  0  2  0  0  0  0  0  0  0  0  0
    8.6165  -16.0355   21.3831 N   0  0  0  0  0  0  0  0  0  0  0  0
    8.5754  -14.4175   23.2081 C   0  0  0  0  0  0  0  0  0  0  0  0
    9.1785  -13.3224   23.4729 O   0  0  0  0  0  0  0  0  0  0  0  0
    5.9854  -12.3432   26.4389 C   0  0  0  0  0  0  0  0  0  0  0  0
    7.2497  -12.9225   25.8864 C   0  0  1  0  0  0  0  0  0  0  0  0
    8.3776  -12.0276   26.4195 C   0  0  0  0  0  0  0  0  0  0  0  0
    7.5106  -14.3243   26.3601 C   0  0  0  0  0  0  0  0  0  0  0  0
    8.6679  -15.0001   25.6710 C   0  0  2  0  0  0  0  0  0  0  0  0
    8.2885  -15.2543   24.3078 N   0  0  0  0  0  0  0  0  0  0  0  0
    9.2345  -16.1413   26.3924 C   0  0  0  0  0  0  0  0  0  0  0  0
    9.4870  -17.3707   25.8538 O   0  0  0  0  0  0  0  0  0  0  0  0
    9.5166  -15.9800   27.6172 O   0  0  0  0  0  0  0  0  0  0  0  0
  2  1  1  6
  3  4  1  0
  3  2  1  0
  4  5  2  0
  6  2  1  0
  6 11  1  0
  7  6  2  0
  8  4  1  0
 10 12  1  0
 10  9  1  1
 11 10  1  0
 12 19  1  0
 12 13  2  0
 15 14  1  1
 15 16  1  0
 17 15  1  0
 18 17  1  1
 19 18  1  0
 20 18  1  0
 21 20  1  0
 22 20  2  0
M  END
$$$$
