DAL.pdb
     RDKit          3D

 22 21  0  0  1  0  0  0  0  0999 V2000
    8.9618  -18.3725   20.1487 N   0  0  0  0  0  0  0  0  0  0  0  0
    8.5075  -16.9822   20.1164 C   0  0  1  0  0  0  0  0  0  0  0  0
    7.5894  -16.7543   18.9240 C   0  0  0  0  0  0  0  0  0  0  0  0
    8.3134  -16.8298   17.6402 C   0  0  0  0  0  0  0  0  0  0  0  0
    9.4937  -17.2149   17.6274 O   0  0  0  0  0  0  0  0  0  0  0  0
    7.8221  -16.6630   21.3885 C   0  0  0  0  0  0  0  0  0  0  0  0
    7.4140  -15.4711   21.5475 O   0  0  0  0  0  0  0  0  0  0  0  0
    7.6776  -16.4712   16.4757 O   0  0  0  0  0  0  0  0  0  0  0  0
    6.3956  -18.2441   24.4408 C   0  0  0  0  0  0  0  0  0  0  0  0
    7.0514  -17.1115   23.6809 C   0  0  2  0  0  0  0  0  0  0  0  0
    7.5896  -17.5793   22.4339 N   0  0  0  0  0  0  0  0  0  0  0  0
    7.9953  -16.3222   24.4847 C   0  0  0  0  0  0  0  0  0  0  0  0
    9.2495  -16.4918   24.3075 O   0  0  0  0  0  0  0  0  0  0  0  0
    5.8431  -11.8898   26.7576 C   0  0  0  0  0  0  0  0  0  0  0  0
    6.7354  -12.8457   26.0299 C   0  0  1  0  0  0  0  0  0  0  0  0
    7.4866  -11.9973   24.9940 C   0  0  0  0  0  0  0  0  0  0  0  0
    7.7558  -13.4935   26.9225 C   0  0  0  0  0  0  0  0  0  0  0  0
    8.5362  -14.6001   26.2611 C   0  0  2  0  0  0  0  0  0  0  0  0
    7.6252  -15.3704   25.4587 N   0  0  0  0  0  0  0  0  0  0  0  0
    9.3941  -15.3732   27.1610 C   0  0  0  0  0  0  0  0  0  0  0  0
   10.5409  -14.9170   27.7459 O   0  0  0  0  0  0  0  0  0  0  0  0
    9.0482  -16.5638   27.4231 O   0  0  0  0  0  0  0  0  0  0  0  0
  2  1  1  1
  3  4  1  0
  3  2  1  0
  4  5  2  0
  6  2  1  0
  6 11  1  0
  7  6  2  0
  8  4  1  0
 10 12  1  0
 10  9  1  1
 11 10  1  0
 12 19  1  0
 12 13  2  0
 15 14  1  1
 15 16  1  0
 17 15  1  0
 18 17  1  1
 19 18  1  0
 20 18  1  0
 21 20  1  0
 22 20  2  0
M  END
$$$$
