NKF.pdb
     RDKit          3D

 29 29  0  0  1  0  0  0  0  0999 V2000
   29.5432  -17.4434  -16.8747 N   0  0  0  0  0  0  0  0  0  0  0  0
   29.2845  -16.5486  -15.8128 C   0  0  0  0  0  0  0  0  0  0  0  0
   29.7598  -15.3854  -15.8546 O   0  0  0  0  0  0  0  0  0  0  0  0
   28.4686  -16.9279  -14.6353 C   0  0  0  0  0  0  0  0  0  0  0  0
   27.6867  -18.1585  -15.0269 C   0  0  2  0  0  0  0  0  0  0  0  0
   26.8689  -17.8181  -16.1732 N   0  0  0  0  0  0  0  0  0  0  0  0
   26.8924  -18.7479  -13.9450 C   0  0  0  0  0  0  0  0  0  0  0  0
   26.1534  -18.0682  -13.1747 O   0  0  0  0  0  0  0  0  0  0  0  0
   26.9245  -20.1384  -13.7149 N   0  0  0  0  0  0  0  0  0  0  0  0
   25.9316  -20.7801  -12.8543 C   0  0  1  0  0  0  0  0  0  0  0  0
   25.5242  -22.1401  -13.3776 C   0  0  0  0  0  0  0  0  0  0  0  0
   24.3705  -22.7046  -12.5813 C   0  0  0  0  0  0  0  0  0  0  0  0
   23.9358  -24.0495  -13.1050 C   0  0  0  0  0  0  0  0  0  0  0  0
   22.6347  -24.5105  -12.4860 C   0  0  0  0  0  0  0  0  0  0  0  0
   22.2680  -25.7664  -13.1432 N   0  0  0  0  0  0  0  0  0  0  0  0
   26.4364  -20.9543  -11.4724 C   0  0  0  0  0  0  0  0  0  0  0  0
   27.5731  -21.4616  -11.3317 O   0  0  0  0  0  0  0  0  0  0  0  0
   25.6990  -20.5733  -10.3377 N   0  0  0  0  0  0  0  0  0  0  0  0
   26.1389  -20.9108   -8.9733 C   0  0  1  0  0  0  0  0  0  0  0  0
   27.0922  -19.8416   -8.5626 C   0  0  0  0  0  0  0  0  0  0  0  0
   27.5419  -20.0262   -7.1866 C   0  0  0  0  0  0  0  0  0  0  0  0
   27.0813  -19.1373   -6.2249 C   0  0  0  0  0  0  0  0  0  0  0  0
   27.4393  -19.2536   -4.9109 C   0  0  0  0  0  0  0  0  0  0  0  0
   28.2684  -20.2624   -4.5222 C   0  0  0  0  0  0  0  0  0  0  0  0
   28.7454  -21.1578   -5.4367 C   0  0  0  0  0  0  0  0  0  0  0  0
   28.3775  -21.0365   -6.7797 C   0  0  0  0  0  0  0  0  0  0  0  0
   24.9997  -20.9854   -8.0660 C   0  0  0  0  0  0  0  0  0  0  0  0
   23.9184  -20.3927   -8.3955 O   0  0  0  0  0  0  0  0  0  0  0  0
   24.9596  -21.6449   -6.8594 O   0  0  0  0  0  0  0  0  0  0  0  0
  1  2  1  0
  2  4  1  0
  3  2  2  0
  4  5  1  0
  5  6  1  6
  7  8  2  0
  7  5  1  0
  9  7  1  0
 10  9  1  0
 10 11  1  6
 11 12  1  0
 12 13  1  0
 13 14  1  0
 14 15  1  0
 16 18  1  0
 16 10  1  0
 17 16  2  0
 19 27  1  0
 19 18  1  0
 19 20  1  1
 21 22  2  0
 21 20  1  0
 23 22  1  0
 24 23  2  0
 25 24  1  0
 25 26  2  0
 26 21  1  0
 27 29  1  0
 28 27  2  0
M  END
$$$$
