NKF.pdb
     RDKit          3D

 29 29  0  0  1  0  0  0  0  0999 V2000
   35.6838  -27.8328  -18.9779 N   0  0  0  0  0  0  0  0  0  0  0  0
   34.5946  -26.9480  -18.8156 C   0  0  0  0  0  0  0  0  0  0  0  0
   34.8055  -25.7744  -18.4171 O   0  0  0  0  0  0  0  0  0  0  0  0
   33.1961  -27.3499  -19.0959 C   0  0  0  0  0  0  0  0  0  0  0  0
   33.2467  -28.7684  -19.6101 C   0  0  2  0  0  0  0  0  0  0  0  0
   33.6459  -28.7217  -21.0019 N   0  0  0  0  0  0  0  0  0  0  0  0
   32.0089  -29.5310  -19.4224 C   0  0  0  0  0  0  0  0  0  0  0  0
   30.9827  -29.3813  -20.1476 O   0  0  0  0  0  0  0  0  0  0  0  0
   31.9130  -30.4895  -18.3929 N   0  0  0  0  0  0  0  0  0  0  0  0
   30.6550  -31.1878  -18.1321 C   0  0  1  0  0  0  0  0  0  0  0  0
   30.8440  -32.3642  -17.1995 C   0  0  0  0  0  0  0  0  0  0  0  0
   30.9460  -33.6586  -17.9726 C   0  0  0  0  0  0  0  0  0  0  0  0
   32.2902  -33.8068  -18.6384 C   0  0  0  0  0  0  0  0  0  0  0  0
   32.4111  -35.1092  -19.3985 C   0  0  0  0  0  0  0  0  0  0  0  0
   33.7385  -35.1242  -20.0161 N   0  0  0  0  0  0  0  0  0  0  0  0
   29.6434  -30.2868  -17.5324 C   0  0  0  0  0  0  0  0  0  0  0  0
   30.0456  -29.4321  -16.7097 O   0  0  0  0  0  0  0  0  0  0  0  0
   28.2762  -30.3553  -17.8526 N   0  0  0  0  0  0  0  0  0  0  0  0
   27.3077  -29.3666  -17.3491 C   0  0  1  0  0  0  0  0  0  0  0  0
   27.6247  -28.0815  -18.0337 C   0  0  0  0  0  0  0  0  0  0  0  0
   26.5981  -27.0750  -17.7830 C   0  0  0  0  0  0  0  0  0  0  0  0
   26.7382  -26.2646  -16.6646 C   0  0  0  0  0  0  0  0  0  0  0  0
   25.8312  -25.2853  -16.3705 C   0  0  0  0  0  0  0  0  0  0  0  0
   24.7585  -25.0892  -17.1872 C   0  0  0  0  0  0  0  0  0  0  0  0
   24.5823  -25.8654  -18.2972 C   0  0  0  0  0  0  0  0  0  0  0  0
   25.5114  -26.8661  -18.5954 C   0  0  0  0  0  0  0  0  0  0  0  0
   25.9410  -29.7938  -17.6253 C   0  0  0  0  0  0  0  0  0  0  0  0
   25.0112  -29.4056  -16.8419 O   0  0  0  0  0  0  0  0  0  0  0  0
   25.5306  -30.5909  -18.6686 O   0  0  0  0  0  0  0  0  0  0  0  0
  1  2  1  0
  2  4  1  0
  3  2  2  0
  4  5  1  0
  5  6  1  6
  7  8  2  0
  7  5  1  0
  9  7  1  0
 10  9  1  0
 10 11  1  1
 11 12  1  0
 12 13  1  0
 13 14  1  0
 14 15  1  0
 16 18  1  0
 16 10  1  0
 17 16  2  0
 19 27  1  0
 19 18  1  0
 19 20  1  6
 21 22  2  0
 21 20  1  0
 23 22  1  0
 24 23  2  0
 25 24  1  0
 25 26  2  0
 26 21  1  0
 27 29  1  0
 28 27  2  0
M  END
$$$$
