NKF.pdb
     RDKit          3D

 29 29  0  0  1  0  0  0  0  0999 V2000
   30.7175  -20.6656  -18.9863 N   0  0  0  0  0  0  0  0  0  0  0  0
   29.5200  -19.9788  -19.2854 C   0  0  0  0  0  0  0  0  0  0  0  0
   29.1330  -19.9017  -20.4791 O   0  0  0  0  0  0  0  0  0  0  0  0
   28.6913  -19.3346  -18.2393 C   0  0  0  0  0  0  0  0  0  0  0  0
   28.0714  -20.4477  -17.4296 C   0  0  2  0  0  0  0  0  0  0  0  0
   27.2359  -21.2299  -18.3176 N   0  0  0  0  0  0  0  0  0  0  0  0
   27.3385  -20.0034  -16.2404 C   0  0  0  0  0  0  0  0  0  0  0  0
   27.8465  -19.2683  -15.3443 O   0  0  0  0  0  0  0  0  0  0  0  0
   25.9975  -20.3922  -16.0446 N   0  0  0  0  0  0  0  0  0  0  0  0
   25.2506  -19.9464  -14.8692 C   0  0  1  0  0  0  0  0  0  0  0  0
   23.7721  -19.8054  -15.1587 C   0  0  0  0  0  0  0  0  0  0  0  0
   23.2726  -18.4318  -14.7749 C   0  0  0  0  0  0  0  0  0  0  0  0
   21.7809  -18.3102  -14.9534 C   0  0  0  0  0  0  0  0  0  0  0  0
   21.2785  -16.9195  -14.6339 C   0  0  0  0  0  0  0  0  0  0  0  0
   19.8322  -16.9226  -14.8617 N   0  0  0  0  0  0  0  0  0  0  0  0
   25.4066  -20.8848  -13.7336 C   0  0  0  0  0  0  0  0  0  0  0  0
   25.2679  -22.1071  -13.9702 O   0  0  0  0  0  0  0  0  0  0  0  0
   25.7031  -20.4581  -12.4272 N   0  0  0  0  0  0  0  0  0  0  0  0
   25.7983  -21.4032  -11.3017 C   0  0  1  0  0  0  0  0  0  0  0  0
   27.1437  -21.1992  -10.6944 C   0  0  0  0  0  0  0  0  0  0  0  0
   27.0730  -20.3450   -9.5132 C   0  0  0  0  0  0  0  0  0  0  0  0
   26.8560  -20.9498   -8.2827 C   0  0  0  0  0  0  0  0  0  0  0  0
   26.7967  -20.2227   -7.1268 C   0  0  0  0  0  0  0  0  0  0  0  0
   26.9527  -18.8699   -7.1697 C   0  0  0  0  0  0  0  0  0  0  0  0
   27.1666  -18.2350   -8.3599 C   0  0  0  0  0  0  0  0  0  0  0  0
   27.2268  -18.9811   -9.5403 C   0  0  0  0  0  0  0  0  0  0  0  0
   24.7351  -21.1632  -10.3330 C   0  0  0  0  0  0  0  0  0  0  0  0
   24.5318  -22.0347   -9.4229 O   0  0  0  0  0  0  0  0  0  0  0  0
   23.9036  -20.0682  -10.2890 O   0  0  0  0  0  0  0  0  0  0  0  0
  1  2  1  0
  2  4  1  0
  3  2  2  0
  4  5  1  0
  5  6  1  6
  7  8  2  0
  7  5  1  0
  9  7  1  0
 10  9  1  0
 10 11  1  6
 11 12  1  0
 12 13  1  0
 13 14  1  0
 14 15  1  0
 16 18  1  0
 16 10  1  0
 17 16  2  0
 19 27  1  0
 19 18  1  0
 19 20  1  1
 21 22  2  0
 21 20  1  0
 23 22  1  0
 24 23  2  0
 25 24  1  0
 25 26  2  0
 26 21  1  0
 27 29  1  0
 28 27  2  0
M  END
$$$$
