NKF.pdb
     RDKit          3D

 29 29  0  0  1  0  0  0  0  0999 V2000
   25.3601  -13.8541  -18.6220 N   0  0  0  0  0  0  0  0  0  0  0  0
   23.9784  -14.0883  -18.4443 C   0  0  0  0  0  0  0  0  0  0  0  0
   23.1716  -13.1286  -18.5374 O   0  0  0  0  0  0  0  0  0  0  0  0
   23.4326  -15.4334  -18.1464 C   0  0  0  0  0  0  0  0  0  0  0  0
   24.6168  -16.3468  -17.9405 C   0  0  2  0  0  0  0  0  0  0  0  0
   25.2537  -16.5441  -19.2266 N   0  0  0  0  0  0  0  0  0  0  0  0
   24.3002  -17.6200  -17.2868 C   0  0  0  0  0  0  0  0  0  0  0  0
   23.4668  -18.4518  -17.7505 O   0  0  0  0  0  0  0  0  0  0  0  0
   24.9323  -17.9756  -16.0778 N   0  0  0  0  0  0  0  0  0  0  0  0
   24.5816  -19.2136  -15.3831 C   0  0  1  0  0  0  0  0  0  0  0  0
   25.7197  -19.7227  -14.5256 C   0  0  0  0  0  0  0  0  0  0  0  0
   26.9244  -20.0661  -15.3708 C   0  0  0  0  0  0  0  0  0  0  0  0
   26.9377  -21.5227  -15.7582 C   0  0  0  0  0  0  0  0  0  0  0  0
   28.0217  -21.8364  -16.7656 C   0  0  0  0  0  0  0  0  0  0  0  0
   28.0107  -23.2861  -16.9707 N   0  0  0  0  0  0  0  0  0  0  0  0
   23.3969  -19.0352  -14.5117 C   0  0  0  0  0  0  0  0  0  0  0  0
   23.2260  -17.9085  -13.9918 O   0  0  0  0  0  0  0  0  0  0  0  0
   22.4753  -20.0660  -14.2577 N   0  0  0  0  0  0  0  0  0  0  0  0
   21.0479  -19.9357  -14.5963 C   0  0  1  0  0  0  0  0  0  0  0  0
   20.9890  -19.2113  -15.8972 C   0  0  0  0  0  0  0  0  0  0  0  0
   20.4537  -17.8634  -15.7346 C   0  0  0  0  0  0  0  0  0  0  0  0
   19.1290  -17.7305  -15.3412 C   0  0  0  0  0  0  0  0  0  0  0  0
   18.5582  -16.5037  -15.1475 C   0  0  0  0  0  0  0  0  0  0  0  0
   19.2967  -15.3755  -15.3419 C   0  0  0  0  0  0  0  0  0  0  0  0
   20.6032  -15.4615  -15.7305 C   0  0  0  0  0  0  0  0  0  0  0  0
   21.1844  -16.7174  -15.9278 C   0  0  0  0  0  0  0  0  0  0  0  0
   20.4160  -21.2467  -14.6880 C   0  0  0  0  0  0  0  0  0  0  0  0
   19.3302  -21.4460  -14.0473 O   0  0  0  0  0  0  0  0  0  0  0  0
   20.8731  -22.3237  -15.4115 O   0  0  0  0  0  0  0  0  0  0  0  0
  1  2  1  0
  2  4  1  0
  3  2  2  0
  4  5  1  0
  5  6  1  6
  7  8  2  0
  7  5  1  0
  9  7  1  0
 10  9  1  0
 10 11  1  1
 11 12  1  0
 12 13  1  0
 13 14  1  0
 14 15  1  0
 16 18  1  0
 16 10  1  0
 17 16  2  0
 19 27  1  0
 19 18  1  0
 19 20  1  6
 21 22  2  0
 21 20  1  0
 23 22  1  0
 24 23  2  0
 25 24  1  0
 25 26  2  0
 26 21  1  0
 27 29  1  0
 28 27  2  0
M  END
$$$$
