NKF.pdb
     RDKit          3D

 29 29  0  0  1  0  0  0  0  0999 V2000
   28.1631  -21.9443  -17.1594 N   0  0  0  0  0  0  0  0  0  0  0  0
   29.0139  -21.9229  -16.0319 C   0  0  0  0  0  0  0  0  0  0  0  0
   30.0593  -22.6211  -16.0329 O   0  0  0  0  0  0  0  0  0  0  0  0
   28.7216  -21.1043  -14.8317 C   0  0  0  0  0  0  0  0  0  0  0  0
   27.2963  -20.6260  -14.9687 C   0  0  2  0  0  0  0  0  0  0  0  0
   27.2916  -19.5018  -15.8823 N   0  0  0  0  0  0  0  0  0  0  0  0
   26.6358  -20.3021  -13.7008 C   0  0  0  0  0  0  0  0  0  0  0  0
   26.8792  -19.2520  -13.0379 O   0  0  0  0  0  0  0  0  0  0  0  0
   25.6749  -21.1776  -13.1551 N   0  0  0  0  0  0  0  0  0  0  0  0
   24.9073  -20.8041  -11.9678 C   0  0  1  0  0  0  0  0  0  0  0  0
   23.5645  -21.5001  -11.9206 C   0  0  0  0  0  0  0  0  0  0  0  0
   22.7474  -21.0233  -10.7422 C   0  0  0  0  0  0  0  0  0  0  0  0
   21.5754  -20.1823  -11.1792 C   0  0  0  0  0  0  0  0  0  0  0  0
   20.7990  -19.6294  -10.0044 C   0  0  0  0  0  0  0  0  0  0  0  0
   19.6920  -18.8437  -10.5530 N   0  0  0  0  0  0  0  0  0  0  0  0
   25.6359  -21.1311  -10.7201 C   0  0  0  0  0  0  0  0  0  0  0  0
   25.9942  -22.3200  -10.5544 O   0  0  0  0  0  0  0  0  0  0  0  0
   25.9359  -20.1706   -9.7384 N   0  0  0  0  0  0  0  0  0  0  0  0
   26.5731  -20.5344   -8.4614 C   0  0  1  0  0  0  0  0  0  0  0  0
   27.3062  -19.3229   -7.9974 C   0  0  0  0  0  0  0  0  0  0  0  0
   28.0248  -19.5769   -6.7529 C   0  0  0  0  0  0  0  0  0  0  0  0
   27.6469  -18.8629   -5.6239 C   0  0  0  0  0  0  0  0  0  0  0  0
   28.2561  -19.0567   -4.4158 C   0  0  0  0  0  0  0  0  0  0  0  0
   29.2606  -19.9702   -4.3033 C   0  0  0  0  0  0  0  0  0  0  0  0
   29.6642  -20.6929   -5.3897 C   0  0  0  0  0  0  0  0  0  0  0  0
   29.0393  -20.4927   -6.6239 C   0  0  0  0  0  0  0  0  0  0  0  0
   25.5743  -20.9579   -7.4869 C   0  0  0  0  0  0  0  0  0  0  0  0
   24.3875  -20.5004   -7.5927 O   0  0  0  0  0  0  0  0  0  0  0  0
   25.7752  -21.8229   -6.4363 O   0  0  0  0  0  0  0  0  0  0  0  0
  1  2  1  0
  2  4  1  0
  3  2  2  0
  4  5  1  0
  5  6  1  6
  7  8  2  0
  7  5  1  0
  9  7  1  0
 10  9  1  0
 10 11  1  1
 11 12  1  0
 12 13  1  0
 13 14  1  0
 14 15  1  0
 16 18  1  0
 16 10  1  0
 17 16  2  0
 19 27  1  0
 19 18  1  0
 19 20  1  1
 21 22  2  0
 21 20  1  0
 23 22  1  0
 24 23  2  0
 25 24  1  0
 25 26  2  0
 26 21  1  0
 27 29  1  0
 28 27  2  0
M  END
$$$$
