NKF.pdb
     RDKit          3D

 29 29  0  0  1  0  0  0  0  0999 V2000
   22.7374  -17.3193  -15.9317 N   0  0  0  0  0  0  0  0  0  0  0  0
   22.0907  -17.8684  -14.8023 C   0  0  0  0  0  0  0  0  0  0  0  0
   20.8459  -17.7417  -14.6801 O   0  0  0  0  0  0  0  0  0  0  0  0
   22.8266  -18.5942  -13.7404 C   0  0  0  0  0  0  0  0  0  0  0  0
   24.2807  -18.5999  -14.1458 C   0  0  2  0  0  0  0  0  0  0  0  0
   24.3412  -18.4264  -15.5828 N   0  0  0  0  0  0  0  0  0  0  0  0
   25.0333  -19.7784  -13.7059 C   0  0  0  0  0  0  0  0  0  0  0  0
   24.4906  -20.8887  -13.4336 O   0  0  0  0  0  0  0  0  0  0  0  0
   26.4346  -19.7157  -13.5644 N   0  0  0  0  0  0  0  0  0  0  0  0
   27.1975  -20.8823  -13.1223 C   0  0  1  0  0  0  0  0  0  0  0  0
   28.6041  -20.8827  -13.6802 C   0  0  0  0  0  0  0  0  0  0  0  0
   28.5931  -20.6953  -15.1797 C   0  0  0  0  0  0  0  0  0  0  0  0
   28.6210  -22.0150  -15.9074 C   0  0  0  0  0  0  0  0  0  0  0  0
   28.6778  -21.8386  -17.4088 C   0  0  0  0  0  0  0  0  0  0  0  0
   28.7807  -23.1765  -17.9946 N   0  0  0  0  0  0  0  0  0  0  0  0
   27.2914  -20.9468  -11.6453 C   0  0  0  0  0  0  0  0  0  0  0  0
   28.4194  -20.7712  -11.1294 O   0  0  0  0  0  0  0  0  0  0  0  0
   26.1791  -21.1895  -10.8206 N   0  0  0  0  0  0  0  0  0  0  0  0
   26.2664  -21.1131   -9.3524 C   0  0  1  0  0  0  0  0  0  0  0  0
   26.6453  -19.7092   -9.0264 C   0  0  0  0  0  0  0  0  0  0  0  0
   27.3019  -19.6210   -7.7261 C   0  0  0  0  0  0  0  0  0  0  0  0
   28.4959  -20.3069   -7.5503 C   0  0  0  0  0  0  0  0  0  0  0  0
   29.1831  -20.2593   -6.3696 C   0  0  0  0  0  0  0  0  0  0  0  0
   28.6948  -19.5241   -5.3317 C   0  0  0  0  0  0  0  0  0  0  0  0
   27.5226  -18.8354   -5.4622 C   0  0  0  0  0  0  0  0  0  0  0  0
   26.8221  -18.8859   -6.6707 C   0  0  0  0  0  0  0  0  0  0  0  0
   24.9947  -21.4774   -8.7387 C   0  0  0  0  0  0  0  0  0  0  0  0
   23.9227  -21.3045   -9.4096 O   0  0  0  0  0  0  0  0  0  0  0  0
   24.8174  -22.0040   -7.4803 O   0  0  0  0  0  0  0  0  0  0  0  0
  1  2  1  0
  2  4  1  0
  3  2  2  0
  4  5  1  0
  5  6  1  6
  7  8  2  0
  7  5  1  0
  9  7  1  0
 10  9  1  0
 10 11  1  6
 11 12  1  0
 12 13  1  0
 13 14  1  0
 14 15  1  0
 16 18  1  0
 16 10  1  0
 17 16  2  0
 19 27  1  0
 19 18  1  0
 19 20  1  6
 21 22  2  0
 21 20  1  0
 23 22  1  0
 24 23  2  0
 25 24  1  0
 25 26  2  0
 26 21  1  0
 27 29  1  0
 28 27  2  0
M  END
$$$$
