NKF.pdb
     RDKit          3D

 29 29  0  0  1  0  0  0  0  0999 V2000
   29.7989  -21.5876  -13.2320 N   0  0  0  0  0  0  0  0  0  0  0  0
   29.0533  -20.9392  -12.2226 C   0  0  0  0  0  0  0  0  0  0  0  0
   29.4443  -21.0002  -11.0293 O   0  0  0  0  0  0  0  0  0  0  0  0
   27.8126  -20.1828  -12.5133 C   0  0  0  0  0  0  0  0  0  0  0  0
   27.5501  -20.3309  -13.9926 C   0  0  2  0  0  0  0  0  0  0  0  0
   28.3789  -19.3681  -14.6887 N   0  0  0  0  0  0  0  0  0  0  0  0
   26.1403  -20.2173  -14.3776 C   0  0  0  0  0  0  0  0  0  0  0  0
   25.5283  -19.1127  -14.4593 O   0  0  0  0  0  0  0  0  0  0  0  0
   25.3900  -21.3720  -14.6797 N   0  0  0  0  0  0  0  0  0  0  0  0
   23.9820  -21.2738  -15.0620 C   0  0  1  0  0  0  0  0  0  0  0  0
   23.6474  -22.1811  -16.2258 C   0  0  0  0  0  0  0  0  0  0  0  0
   22.2080  -22.0082  -16.6522 C   0  0  0  0  0  0  0  0  0  0  0  0
   21.8587  -22.9025  -17.8142 C   0  0  0  0  0  0  0  0  0  0  0  0
   20.4699  -22.6295  -18.3483 C   0  0  0  0  0  0  0  0  0  0  0  0
   20.2755  -23.5045  -19.5060 N   0  0  0  0  0  0  0  0  0  0  0  0
   23.0839  -21.6233  -13.9369 C   0  0  0  0  0  0  0  0  0  0  0  0
   23.3549  -22.6548  -13.2797 O   0  0  0  0  0  0  0  0  0  0  0  0
   21.9634  -20.8496  -13.5871 N   0  0  0  0  0  0  0  0  0  0  0  0
   21.1549  -21.1452  -12.3921 C   0  0  1  0  0  0  0  0  0  0  0  0
   21.4281  -20.0504  -11.4187 C   0  0  0  0  0  0  0  0  0  0  0  0
   22.5248  -20.3958  -10.5199 C   0  0  0  0  0  0  0  0  0  0  0  0
   23.8168  -20.0754  -10.9138 C   0  0  0  0  0  0  0  0  0  0  0  0
   24.8964  -20.3470  -10.1207 C   0  0  0  0  0  0  0  0  0  0  0  0
   24.7136  -20.9469   -8.9112 C   0  0  0  0  0  0  0  0  0  0  0  0
   23.4591  -21.2801   -8.4861 C   0  0  0  0  0  0  0  0  0  0  0  0
   22.3569  -21.0012   -9.2992 C   0  0  0  0  0  0  0  0  0  0  0  0
   19.7382  -21.2155  -12.7303 C   0  0  0  0  0  0  0  0  0  0  0  0
   19.3245  -20.5799  -13.7570 O   0  0  0  0  0  0  0  0  0  0  0  0
   18.7698  -21.9131  -12.0462 O   0  0  0  0  0  0  0  0  0  0  0  0
  1  2  1  0
  2  4  1  0
  3  2  2  0
  4  5  1  0
  5  6  1  6
  7  8  2  0
  7  5  1  0
  9  7  1  0
 10  9  1  0
 10 11  1  6
 11 12  1  0
 12 13  1  0
 13 14  1  0
 14 15  1  0
 16 18  1  0
 16 10  1  0
 17 16  2  0
 19 27  1  0
 19 18  1  0
 19 20  1  1
 21 22  2  0
 21 20  1  0
 23 22  1  0
 24 23  2  0
 25 24  1  0
 25 26  2  0
 26 21  1  0
 27 29  1  0
 28 27  2  0
M  END
$$$$
