NKF.pdb
     RDKit          3D

 29 29  0  0  1  0  0  0  0  0999 V2000
   29.1286  -21.3635  -16.3955 N   0  0  0  0  0  0  0  0  0  0  0  0
   28.8403  -19.9896  -16.2386 C   0  0  0  0  0  0  0  0  0  0  0  0
   29.0427  -19.2018  -17.1972 O   0  0  0  0  0  0  0  0  0  0  0  0
   28.3051  -19.4295  -14.9753 C   0  0  0  0  0  0  0  0  0  0  0  0
   26.9885  -20.1214  -14.7167 C   0  0  2  0  0  0  0  0  0  0  0  0
   26.0825  -19.7659  -15.7898 N   0  0  0  0  0  0  0  0  0  0  0  0
   26.4057  -19.8534  -13.3987 C   0  0  0  0  0  0  0  0  0  0  0  0
   26.6689  -18.8190  -12.7189 O   0  0  0  0  0  0  0  0  0  0  0  0
   25.5023  -20.7686  -12.8208 N   0  0  0  0  0  0  0  0  0  0  0  0
   24.8558  -20.4792  -11.5415 C   0  0  1  0  0  0  0  0  0  0  0  0
   23.5345  -21.2027  -11.3992 C   0  0  0  0  0  0  0  0  0  0  0  0
   22.4998  -20.6335  -12.3420 C   0  0  0  0  0  0  0  0  0  0  0  0
   21.2073  -21.4068  -12.2852 C   0  0  0  0  0  0  0  0  0  0  0  0
   20.1472  -20.8154  -13.1880 C   0  0  0  0  0  0  0  0  0  0  0  0
   18.9853  -21.7040  -13.1251 N   0  0  0  0  0  0  0  0  0  0  0  0
   25.7131  -20.8632  -10.3961 C   0  0  0  0  0  0  0  0  0  0  0  0
   26.2249  -22.0064  -10.4146 O   0  0  0  0  0  0  0  0  0  0  0  0
   25.9693  -20.0035   -9.3136 N   0  0  0  0  0  0  0  0  0  0  0  0
   26.7385  -20.4410   -8.1363 C   0  0  1  0  0  0  0  0  0  0  0  0
   27.5775  -19.2794   -7.7272 C   0  0  0  0  0  0  0  0  0  0  0  0
   28.2477  -19.5262   -6.4545 C   0  0  0  0  0  0  0  0  0  0  0  0
   29.3529  -20.3662   -6.4513 C   0  0  0  0  0  0  0  0  0  0  0  0
   30.0480  -20.6323   -5.3048 C   0  0  0  0  0  0  0  0  0  0  0  0
   29.6567  -20.0655   -4.1293 C   0  0  0  0  0  0  0  0  0  0  0  0
   28.5738  -19.2341   -4.0882 C   0  0  0  0  0  0  0  0  0  0  0  0
   27.8650  -18.9637   -5.2622 C   0  0  0  0  0  0  0  0  0  0  0  0
   25.8463  -20.8583   -7.0610 C   0  0  0  0  0  0  0  0  0  0  0  0
   26.3509  -21.4323   -6.0388 O   0  0  0  0  0  0  0  0  0  0  0  0
   24.4809  -20.6952   -7.0244 O   0  0  0  0  0  0  0  0  0  0  0  0
  1  2  1  0
  2  4  1  0
  3  2  2  0
  4  5  1  0
  5  6  1  6
  7  8  2  0
  7  5  1  0
  9  7  1  0
 10  9  1  0
 10 11  1  6
 11 12  1  0
 12 13  1  0
 13 14  1  0
 14 15  1  0
 16 18  1  0
 16 10  1  0
 17 16  2  0
 19 27  1  0
 19 18  1  0
 19 20  1  1
 21 22  2  0
 21 20  1  0
 23 22  1  0
 24 23  2  0
 25 24  1  0
 25 26  2  0
 26 21  1  0
 27 29  1  0
 28 27  2  0
M  END
$$$$
