NKF.pdb
     RDKit          3D

 29 29  0  0  1  0  0  0  0  0999 V2000
   17.3392  -16.9035  -14.6001 N   0  0  0  0  0  0  0  0  0  0  0  0
   17.5357  -15.6390  -15.1984 C   0  0  0  0  0  0  0  0  0  0  0  0
   16.5400  -14.9177  -15.4611 O   0  0  0  0  0  0  0  0  0  0  0  0
   18.8823  -15.1209  -15.5366 C   0  0  0  0  0  0  0  0  0  0  0  0
   18.6926  -14.1022  -16.6345 C   0  0  2  0  0  0  0  0  0  0  0  0
   18.3029  -14.8121  -17.8356 N   0  0  0  0  0  0  0  0  0  0  0  0
   19.8483  -13.2307  -16.8658 C   0  0  0  0  0  0  0  0  0  0  0  0
   20.6948  -12.9451  -15.9695 O   0  0  0  0  0  0  0  0  0  0  0  0
   20.0656  -12.6594  -18.1363 N   0  0  0  0  0  0  0  0  0  0  0  0
   21.1652  -11.7217  -18.3597 C   0  0  1  0  0  0  0  0  0  0  0  0
   21.3536  -11.4107  -19.8285 C   0  0  0  0  0  0  0  0  0  0  0  0
   22.5689  -10.5396  -20.0472 C   0  0  0  0  0  0  0  0  0  0  0  0
   22.7127  -10.1344  -21.4918 C   0  0  0  0  0  0  0  0  0  0  0  0
   23.9441   -9.2881  -21.7282 C   0  0  0  0  0  0  0  0  0  0  0  0
   24.0382   -9.0609  -23.1716 N   0  0  0  0  0  0  0  0  0  0  0  0
   20.9465  -10.4421  -17.6458 C   0  0  0  0  0  0  0  0  0  0  0  0
   19.7776   -9.9932  -17.6085 O   0  0  0  0  0  0  0  0  0  0  0  0
   21.9851   -9.7320  -17.0185 N   0  0  0  0  0  0  0  0  0  0  0  0
   21.7387   -8.4820  -16.2797 C   0  0  1  0  0  0  0  0  0  0  0  0
   22.8553   -8.3444  -15.3025 C   0  0  0  0  0  0  0  0  0  0  0  0
   22.7153   -7.1350  -14.4978 C   0  0  0  0  0  0  0  0  0  0  0  0
   23.2236   -5.9487  -15.0091 C   0  0  0  0  0  0  0  0  0  0  0  0
   23.1152   -4.7692  -14.3269 C   0  0  0  0  0  0  0  0  0  0  0  0
   22.4953   -4.7435  -13.1140 C   0  0  0  0  0  0  0  0  0  0  0  0
   21.9824   -5.8885  -12.5742 C   0  0  0  0  0  0  0  0  0  0  0  0
   22.0947   -7.0932  -13.2740 C   0  0  0  0  0  0  0  0  0  0  0  0
   21.6854   -7.3444  -17.1906 C   0  0  0  0  0  0  0  0  0  0  0  0
   22.4627   -7.3375  -18.2030 O   0  0  0  0  0  0  0  0  0  0  0  0
   20.8646   -6.2464  -17.0772 O   0  0  0  0  0  0  0  0  0  0  0  0
  1  2  1  0
  2  4  1  0
  3  2  2  0
  4  5  1  0
  5  6  1  6
  7  8  2  0
  7  5  1  0
  9  7  1  0
 10  9  1  0
 10 11  1  6
 11 12  1  0
 12 13  1  0
 13 14  1  0
 14 15  1  0
 16 18  1  0
 16 10  1  0
 17 16  2  0
 19 27  1  0
 19 18  1  0
 19 20  1  1
 21 22  2  0
 21 20  1  0
 23 22  1  0
 24 23  2  0
 25 24  1  0
 25 26  2  0
 26 21  1  0
 27 29  1  0
 28 27  2  0
M  END
$$$$
