NKF.pdb
     RDKit          3D

 29 29  0  0  1  0  0  0  0  0999 V2000
   19.2842  -32.0971  -11.7653 N   0  0  0  0  0  0  0  0  0  0  0  0
   18.6815  -30.8767  -11.3874 C   0  0  0  0  0  0  0  0  0  0  0  0
   17.5094  -30.6230  -11.7650 O   0  0  0  0  0  0  0  0  0  0  0  0
   19.3815  -29.8687  -10.5569 C   0  0  0  0  0  0  0  0  0  0  0  0
   19.0668  -28.5188  -11.1550 C   0  0  2  0  0  0  0  0  0  0  0  0
   20.1051  -28.2066  -12.1158 N   0  0  0  0  0  0  0  0  0  0  0  0
   18.8878  -27.4431  -10.1755 C   0  0  0  0  0  0  0  0  0  0  0  0
   19.8411  -26.9399   -9.5127 O   0  0  0  0  0  0  0  0  0  0  0  0
   17.6051  -26.9131   -9.9273 N   0  0  0  0  0  0  0  0  0  0  0  0
   17.4156  -25.8218   -8.9726 C   0  0  1  0  0  0  0  0  0  0  0  0
   16.4179  -24.7999   -9.4728 C   0  0  0  0  0  0  0  0  0  0  0  0
   16.2830  -23.6518   -8.4995 C   0  0  0  0  0  0  0  0  0  0  0  0
   16.4982  -22.3207   -9.1730 C   0  0  0  0  0  0  0  0  0  0  0  0
   17.9577  -21.9236   -9.2010 C   0  0  0  0  0  0  0  0  0  0  0  0
   18.0364  -20.6247   -9.8721 N   0  0  0  0  0  0  0  0  0  0  0  0
   16.9417  -26.3191   -7.6601 C   0  0  0  0  0  0  0  0  0  0  0  0
   15.8612  -26.9526   -7.6377 O   0  0  0  0  0  0  0  0  0  0  0  0
   17.6517  -26.1115   -6.4646 N   0  0  0  0  0  0  0  0  0  0  0  0
   17.2021  -26.6804   -5.1827 C   0  0  1  0  0  0  0  0  0  0  0  0
   18.4025  -26.7300   -4.3010 C   0  0  0  0  0  0  0  0  0  0  0  0
   18.0953  -27.3460   -3.0142 C   0  0  0  0  0  0  0  0  0  0  0  0
   18.0218  -28.7310   -2.9547 C   0  0  0  0  0  0  0  0  0  0  0  0
   17.7587  -29.3855   -1.7839 C   0  0  0  0  0  0  0  0  0  0  0  0
   17.5618  -28.6726   -0.6397 C   0  0  0  0  0  0  0  0  0  0  0  0
   17.6241  -27.3083   -0.6546 C   0  0  0  0  0  0  0  0  0  0  0  0
   17.8933  -26.6416   -1.8533 C   0  0  0  0  0  0  0  0  0  0  0  0
   16.1449  -25.8645   -4.5970 C   0  0  0  0  0  0  0  0  0  0  0  0
   16.0425  -24.6458   -4.9622 O   0  0  0  0  0  0  0  0  0  0  0  0
   15.2170  -26.2756   -3.6683 O   0  0  0  0  0  0  0  0  0  0  0  0
  1  2  1  0
  2  4  1  0
  3  2  2  0
  4  5  1  0
  5  6  1  6
  7  8  2  0
  7  5  1  0
  9  7  1  0
 10  9  1  0
 10 11  1  6
 11 12  1  0
 12 13  1  0
 13 14  1  0
 14 15  1  0
 16 18  1  0
 16 10  1  0
 17 16  2  0
 19 27  1  0
 19 18  1  0
 19 20  1  1
 21 22  2  0
 21 20  1  0
 23 22  1  0
 24 23  2  0
 25 24  1  0
 25 26  2  0
 26 21  1  0
 27 29  1  0
 28 27  2  0
M  END
$$$$
