NKF.pdb
     RDKit          3D

 29 29  0  0  1  0  0  0  0  0999 V2000
   25.0482  -15.4262  -19.9927 N   0  0  0  0  0  0  0  0  0  0  0  0
   23.9141  -15.4506  -19.1510 C   0  0  0  0  0  0  0  0  0  0  0  0
   23.5195  -14.3846  -18.6139 O   0  0  0  0  0  0  0  0  0  0  0  0
   23.1616  -16.6955  -18.8680 C   0  0  0  0  0  0  0  0  0  0  0  0
   23.8361  -17.7977  -19.6486 C   0  0  2  0  0  0  0  0  0  0  0  0
   23.6026  -17.5507  -21.0568 N   0  0  0  0  0  0  0  0  0  0  0  0
   23.4391  -19.1538  -19.2588 C   0  0  0  0  0  0  0  0  0  0  0  0
   22.3007  -19.6453  -19.5119 O   0  0  0  0  0  0  0  0  0  0  0  0
   24.3396  -19.9868  -18.5641 N   0  0  0  0  0  0  0  0  0  0  0  0
   23.9335  -21.3150  -18.1065 C   0  0  1  0  0  0  0  0  0  0  0  0
   25.1243  -22.1863  -17.7713 C   0  0  0  0  0  0  0  0  0  0  0  0
   24.6883  -23.5908  -17.4237 C   0  0  0  0  0  0  0  0  0  0  0  0
   25.8642  -24.4765  -17.1002 C   0  0  0  0  0  0  0  0  0  0  0  0
   25.4490  -25.9099  -16.8523 C   0  0  0  0  0  0  0  0  0  0  0  0
   26.6562  -26.6474  -16.4750 N   0  0  0  0  0  0  0  0  0  0  0  0
   23.0698  -21.2392  -16.9052 C   0  0  0  0  0  0  0  0  0  0  0  0
   23.5537  -20.7110  -15.8776 O   0  0  0  0  0  0  0  0  0  0  0  0
   21.7514  -21.7267  -16.8822 N   0  0  0  0  0  0  0  0  0  0  0  0
   20.8688  -21.5314  -15.7194 C   0  0  1  0  0  0  0  0  0  0  0  0
   20.4841  -20.0918  -15.7210 C   0  0  0  0  0  0  0  0  0  0  0  0
   19.5448  -19.7908  -16.7967 C   0  0  0  0  0  0  0  0  0  0  0  0
   18.2236  -20.1864  -16.6389 C   0  0  0  0  0  0  0  0  0  0  0  0
   17.2782  -19.9247  -17.5908 C   0  0  0  0  0  0  0  0  0  0  0  0
   17.6282  -19.2598  -18.7272 C   0  0  0  0  0  0  0  0  0  0  0  0
   18.9176  -18.8541  -18.9228 C   0  0  0  0  0  0  0  0  0  0  0  0
   19.8823  -19.1231  -17.9477 C   0  0  0  0  0  0  0  0  0  0  0  0
   19.6975  -22.3955  -15.8080 C   0  0  0  0  0  0  0  0  0  0  0  0
   19.4771  -23.0129  -16.9032 O   0  0  0  0  0  0  0  0  0  0  0  0
   18.7775  -22.6273  -14.8119 O   0  0  0  0  0  0  0  0  0  0  0  0
  1  2  1  0
  2  4  1  0
  3  2  2  0
  4  5  1  0
  5  6  1  6
  7  8  2  0
  7  5  1  0
  9  7  1  0
 10  9  1  0
 10 11  1  1
 11 12  1  0
 12 13  1  0
 13 14  1  0
 14 15  1  0
 16 18  1  0
 16 10  1  0
 17 16  2  0
 19 27  1  0
 19 18  1  0
 19 20  1  6
 21 22  2  0
 21 20  1  0
 23 22  1  0
 24 23  2  0
 25 24  1  0
 25 26  2  0
 26 21  1  0
 27 29  1  0
 28 27  2  0
M  END
$$$$
