NKF.pdb
     RDKit          3D

 29 29  0  0  1  0  0  0  0  0999 V2000
   26.7787  -18.4674  -21.7489 N   0  0  0  0  0  0  0  0  0  0  0  0
   26.0220  -17.8681  -20.7176 C   0  0  0  0  0  0  0  0  0  0  0  0
   25.8569  -16.6218  -20.7161 O   0  0  0  0  0  0  0  0  0  0  0  0
   25.4091  -18.6554  -19.6219 C   0  0  0  0  0  0  0  0  0  0  0  0
   25.8933  -20.0760  -19.7844 C   0  0  2  0  0  0  0  0  0  0  0  0
   25.2234  -20.6438  -20.9365 N   0  0  0  0  0  0  0  0  0  0  0  0
   25.7363  -20.9152  -18.5928 C   0  0  0  0  0  0  0  0  0  0  0  0
   24.6869  -21.5761  -18.3407 O   0  0  0  0  0  0  0  0  0  0  0  0
   26.7821  -21.0194  -17.6531 N   0  0  0  0  0  0  0  0  0  0  0  0
   26.5643  -21.6565  -16.3550 C   0  0  1  0  0  0  0  0  0  0  0  0
   27.8669  -22.0422  -15.6888 C   0  0  0  0  0  0  0  0  0  0  0  0
   28.5924  -23.1002  -16.4875 C   0  0  0  0  0  0  0  0  0  0  0  0
   29.8742  -23.5245  -15.8174 C   0  0  0  0  0  0  0  0  0  0  0  0
   30.6235  -24.5630  -16.6227 C   0  0  0  0  0  0  0  0  0  0  0  0
   31.8651  -24.8511  -15.9023 N   0  0  0  0  0  0  0  0  0  0  0  0
   25.8217  -20.7705  -15.4286 C   0  0  0  0  0  0  0  0  0  0  0  0
   26.3084  -19.6401  -15.1949 O   0  0  0  0  0  0  0  0  0  0  0  0
   24.6121  -21.1469  -14.8191 N   0  0  0  0  0  0  0  0  0  0  0  0
   23.8874  -20.2478  -13.9050 C   0  0  1  0  0  0  0  0  0  0  0  0
   23.4399  -19.0867  -14.7249 C   0  0  0  0  0  0  0  0  0  0  0  0
   22.3301  -19.4473  -15.6013 C   0  0  0  0  0  0  0  0  0  0  0  0
   21.0431  -19.3812  -15.0852 C   0  0  0  0  0  0  0  0  0  0  0  0
   19.9489  -19.6831  -15.8466 C   0  0  0  0  0  0  0  0  0  0  0  0
   20.1116  -20.0599  -17.1458 C   0  0  0  0  0  0  0  0  0  0  0  0
   21.3607  -20.1393  -17.6924 C   0  0  0  0  0  0  0  0  0  0  0  0
   22.4779  -19.8298  -16.9114 C   0  0  0  0  0  0  0  0  0  0  0  0
   22.7561  -20.9346  -13.2927 C   0  0  0  0  0  0  0  0  0  0  0  0
   22.5320  -22.1485  -13.6170 O   0  0  0  0  0  0  0  0  0  0  0  0
   21.8787  -20.4038  -12.3757 O   0  0  0  0  0  0  0  0  0  0  0  0
  1  2  1  0
  2  4  1  0
  3  2  2  0
  4  5  1  0
  5  6  1  6
  7  8  2  0
  7  5  1  0
  9  7  1  0
 10  9  1  0
 10 11  1  1
 11 12  1  0
 12 13  1  0
 13 14  1  0
 14 15  1  0
 16 18  1  0
 16 10  1  0
 17 16  2  0
 19 27  1  0
 19 18  1  0
 19 20  1  6
 21 22  2  0
 21 20  1  0
 23 22  1  0
 24 23  2  0
 25 24  1  0
 25 26  2  0
 26 21  1  0
 27 29  1  0
 28 27  2  0
M  END
$$$$
