FLI.pdb
     RDKit          3D

 28 28  0  0  1  0  0  0  0  0999 V2000
    5.7737  -18.0748   24.0011 N   0  0  0  0  0  0  0  0  0  0  0  0
    6.2719  -16.7419   24.2677 C   0  0  1  0  0  0  0  0  0  0  0  0
    6.2826  -16.5607   25.7674 C   0  0  0  0  0  0  0  0  0  0  0  0
    6.4761  -15.1087   26.0293 C   0  0  0  0  0  0  0  0  0  0  0  0
    7.7155  -14.5592   26.2931 C   0  0  0  0  0  0  0  0  0  0  0  0
    7.8668  -13.1950   26.5348 C   0  0  0  0  0  0  0  0  0  0  0  0
    6.7627  -12.3560   26.5145 C   0  0  0  0  0  0  0  0  0  0  0  0
    5.5389  -12.8858   26.2561 C   0  0  0  0  0  0  0  0  0  0  0  0
    5.4061  -14.2316   26.0200 C   0  0  0  0  0  0  0  0  0  0  0  0
    7.5817  -16.5489   23.6485 C   0  0  0  0  0  0  0  0  0  0  0  0
    8.3812  -17.5229   23.6416 O   0  0  0  0  0  0  0  0  0  0  0  0
    7.5664  -14.1830   19.9348 C   0  0  0  0  0  0  0  0  0  0  0  0
    8.1099  -13.3778   21.1445 C   0  0  2  0  0  0  0  0  0  0  0  0
    8.2865  -11.9859   20.6218 C   0  0  0  0  0  0  0  0  0  0  0  0
    9.3564  -14.0620   21.5307 C   0  0  0  0  0  0  0  0  0  0  0  0
    9.2551  -15.3243   22.3189 C   0  0  2  0  0  0  0  0  0  0  0  0
    8.0271  -15.3528   23.0539 N   0  0  0  0  0  0  0  0  0  0  0  0
   10.3525  -15.3687   23.3493 C   0  0  0  0  0  0  0  0  0  0  0  0
   11.5766  -15.3579   23.0440 O   0  0  0  0  0  0  0  0  0  0  0  0
   11.5352  -13.3769   29.0038 C   0  0  0  0  0  0  0  0  0  0  0  0
   11.8986  -14.2999   27.8605 C   0  0  0  0  0  0  0  0  0  0  0  0
   10.7155  -14.5128   26.9402 C   0  0  2  0  0  0  0  0  0  0  0  0
    9.5535  -15.1155   27.6775 C   0  0  0  0  0  0  0  0  0  0  0  0
   11.1217  -15.2993   25.7310 C   0  0  2  0  0  0  0  0  0  0  0  0
   10.0708  -15.4262   24.7427 N   0  0  0  0  0  0  0  0  0  0  0  0
   11.4844  -16.6794   26.1495 C   0  0  0  0  0  0  0  0  0  0  0  0
   10.7283  -17.6672   25.8883 O   0  0  0  0  0  0  0  0  0  0  0  0
   12.6522  -16.9779   26.8414 O   0  0  0  0  0  0  0  0  0  0  0  0
  2  1  1  1
  3  4  1  0
  3  2  1  0
  4  9  2  0
  5  4  1  0
  5  6  2  0
  6  7  1  0
  7  8  2  0
  9  8  1  0
 10 17  1  0
 10  2  1  0
 11 10  2  0
 13 12  1  6
 13 15  1  0
 14 13  1  0
 16 15  1  1
 16 17  1  0
 18 16  1  0
 19 18  2  0
 20 21  1  0
 21 22  1  0
 22 24  1  0
 22 23  1  1
 24 26  1  0
 24 25  1  6
 25 18  1  0
 26 28  1  0
 27 26  2  0
M  END
$$$$
