FLI.pdb
     RDKit          3D

 28 28  0  0  1  0  0  0  0  0999 V2000
    5.9849  -18.8435   23.0291 N   0  0  0  0  0  0  0  0  0  0  0  0
    6.2179  -17.5958   23.7252 C   0  0  1  0  0  0  0  0  0  0  0  0
    6.0429  -17.8681   25.2008 C   0  0  0  0  0  0  0  0  0  0  0  0
    6.0885  -16.5526   25.8949 C   0  0  0  0  0  0  0  0  0  0  0  0
    5.3585  -15.4607   25.4676 C   0  0  0  0  0  0  0  0  0  0  0  0
    5.4207  -14.2402   26.1377 C   0  0  0  0  0  0  0  0  0  0  0  0
    6.2261  -14.0994   27.2579 C   0  0  0  0  0  0  0  0  0  0  0  0
    6.9484  -15.1669   27.6870 C   0  0  0  0  0  0  0  0  0  0  0  0
    6.8764  -16.3624   27.0162 C   0  0  0  0  0  0  0  0  0  0  0  0
    7.5322  -17.0546   23.3849 C   0  0  0  0  0  0  0  0  0  0  0  0
    8.5071  -17.8521   23.3444 O   0  0  0  0  0  0  0  0  0  0  0  0
    8.0650  -14.8243   19.7252 C   0  0  0  0  0  0  0  0  0  0  0  0
    7.8100  -13.9039   20.9478 C   0  0  2  0  0  0  0  0  0  0  0  0
    7.6399  -12.5368   20.3613 C   0  0  0  0  0  0  0  0  0  0  0  0
    8.9955  -14.0711   21.8067 C   0  0  0  0  0  0  0  0  0  0  0  0
    9.0973  -15.3047   22.6392 C   0  0  2  0  0  0  0  0  0  0  0  0
    7.8005  -15.7028   23.0960 N   0  0  0  0  0  0  0  0  0  0  0  0
    9.8998  -15.0148   23.8800 C   0  0  0  0  0  0  0  0  0  0  0  0
   10.3236  -13.8612   24.1651 O   0  0  0  0  0  0  0  0  0  0  0  0
    9.0479  -12.8913   27.6586 C   0  0  0  0  0  0  0  0  0  0  0  0
    9.8786  -13.6124   26.6189 C   0  0  0  0  0  0  0  0  0  0  0  0
   10.1936  -15.0251   27.0628 C   0  0  2  0  0  0  0  0  0  0  0  0
   10.8480  -15.0379   28.4151 C   0  0  0  0  0  0  0  0  0  0  0  0
   10.9872  -15.7438   26.0143 C   0  0  2  0  0  0  0  0  0  0  0  0
   10.2310  -16.0355   24.8141 N   0  0  0  0  0  0  0  0  0  0  0  0
   11.4428  -17.0495   26.5609 C   0  0  0  0  0  0  0  0  0  0  0  0
   12.3934  -17.1161   27.4020 O   0  0  0  0  0  0  0  0  0  0  0  0
   10.8714  -18.2631   26.1967 O   0  0  0  0  0  0  0  0  0  0  0  0
  2  1  1  6
  3  4  1  0
  3  2  1  0
  4  9  2  0
  5  4  1  0
  5  6  2  0
  6  7  1  0
  7  8  2  0
  9  8  1  0
 10 17  1  0
 10  2  1  0
 11 10  2  0
 13 12  1  6
 13 15  1  0
 14 13  1  0
 16 15  1  6
 16 17  1  0
 18 16  1  0
 19 18  2  0
 20 21  1  0
 21 22  1  0
 22 24  1  0
 22 23  1  1
 24 26  1  0
 24 25  1  6
 25 18  1  0
 26 28  1  0
 27 26  2  0
M  END
$$$$
