FLI.pdb
     RDKit          3D

 28 28  0  0  1  0  0  0  0  0999 V2000
    5.7624  -18.4789   23.6216 N   0  0  0  0  0  0  0  0  0  0  0  0
    6.1605  -17.1745   24.1073 C   0  0  1  0  0  0  0  0  0  0  0  0
    6.1471  -17.2366   25.6166 C   0  0  0  0  0  0  0  0  0  0  0  0
    6.3518  -15.8483   26.1115 C   0  0  0  0  0  0  0  0  0  0  0  0
    7.2173  -15.5471   27.1450 C   0  0  0  0  0  0  0  0  0  0  0  0
    7.3891  -14.2368   27.5878 C   0  0  0  0  0  0  0  0  0  0  0  0
    6.6859  -13.2008   26.9915 C   0  0  0  0  0  0  0  0  0  0  0  0
    5.8320  -13.4856   25.9741 C   0  0  0  0  0  0  0  0  0  0  0  0
    5.6737  -14.7813   25.5492 C   0  0  0  0  0  0  0  0  0  0  0  0
    7.4572  -16.7925   23.5517 C   0  0  0  0  0  0  0  0  0  0  0  0
    8.3111  -17.7005   23.3664 O   0  0  0  0  0  0  0  0  0  0  0  0
    8.3423  -14.4910   19.6390 C   0  0  0  0  0  0  0  0  0  0  0  0
    7.9834  -13.6044   20.8606 C   0  0  2  0  0  0  0  0  0  0  0  0
    7.9860  -12.2062   20.3250 C   0  0  0  0  0  0  0  0  0  0  0  0
    9.0264  -13.8911   21.8611 C   0  0  0  0  0  0  0  0  0  0  0  0
    9.0511  -15.2439   22.4891 C   0  0  2  0  0  0  0  0  0  0  0  0
    7.8336  -15.4811   23.2036 N   0  0  0  0  0  0  0  0  0  0  0  0
   10.1503  -15.3065   23.5166 C   0  0  0  0  0  0  0  0  0  0  0  0
   11.3717  -15.2072   23.2167 O   0  0  0  0  0  0  0  0  0  0  0  0
   10.2242  -12.4532   28.0108 C   0  0  0  0  0  0  0  0  0  0  0  0
   10.5608  -13.2666   26.7795 C   0  0  0  0  0  0  0  0  0  0  0  0
   10.6623  -14.7393   27.1151 C   0  0  2  0  0  0  0  0  0  0  0  0
   11.6571  -14.9799   28.2149 C   0  0  0  0  0  0  0  0  0  0  0  0
   10.9372  -15.5446   25.8815 C   0  0  2  0  0  0  0  0  0  0  0  0
    9.8734  -15.4833   24.9009 N   0  0  0  0  0  0  0  0  0  0  0  0
   11.0887  -16.9747   26.2597 C   0  0  0  0  0  0  0  0  0  0  0  0
   12.0965  -17.3782   26.9208 O   0  0  0  0  0  0  0  0  0  0  0  0
   10.1569  -17.9493   25.9226 O   0  0  0  0  0  0  0  0  0  0  0  0
  2  1  1  6
  3  4  1  0
  3  2  1  0
  4  9  2  0
  5  4  1  0
  5  6  2  0
  6  7  1  0
  7  8  2  0
  9  8  1  0
 10 17  1  0
 10  2  1  0
 11 10  2  0
 13 12  1  6
 13 15  1  0
 14 13  1  0
 16 15  1  1
 16 17  1  0
 18 16  1  0
 19 18  2  0
 20 21  1  0
 21 22  1  0
 22 24  1  0
 22 23  1  1
 24 26  1  0
 24 25  1  6
 25 18  1  0
 26 28  1  0
 27 26  2  0
M  END
$$$$
