FLI.pdb
     RDKit          3D

 28 28  0  0  1  0  0  0  0  0999 V2000
    6.3605  -18.1816   25.3725 N   0  0  0  0  0  0  0  0  0  0  0  0
    6.3507  -17.5312   24.0792 C   0  0  1  0  0  0  0  0  0  0  0  0
    5.3101  -16.4376   24.1370 C   0  0  0  0  0  0  0  0  0  0  0  0
    5.8555  -15.3632   25.0102 C   0  0  0  0  0  0  0  0  0  0  0  0
    6.3357  -15.6102   26.2815 C   0  0  0  0  0  0  0  0  0  0  0  0
    6.8411  -14.5837   27.0774 C   0  0  0  0  0  0  0  0  0  0  0  0
    6.8708  -13.2816   26.6011 C   0  0  0  0  0  0  0  0  0  0  0  0
    6.4010  -13.0273   25.3522 C   0  0  0  0  0  0  0  0  0  0  0  0
    5.9064  -14.0491   24.5804 C   0  0  0  0  0  0  0  0  0  0  0  0
    7.6864  -17.0465   23.7371 C   0  0  0  0  0  0  0  0  0  0  0  0
    8.6427  -17.8657   23.7861 O   0  0  0  0  0  0  0  0  0  0  0  0
    8.1038  -14.5236   20.0424 C   0  0  0  0  0  0  0  0  0  0  0  0
    8.0234  -13.6835   21.3443 C   0  0  2  0  0  0  0  0  0  0  0  0
    8.0056  -12.2618   20.8748 C   0  0  0  0  0  0  0  0  0  0  0  0
    9.2138  -14.0687   22.1225 C   0  0  0  0  0  0  0  0  0  0  0  0
    9.2497  -15.4291   22.7332 C   0  0  2  0  0  0  0  0  0  0  0  0
    7.9946  -15.7271   23.3537 N   0  0  0  0  0  0  0  0  0  0  0  0
   10.2731  -15.4629   23.8374 C   0  0  0  0  0  0  0  0  0  0  0  0
   11.3996  -14.9029   23.7417 O   0  0  0  0  0  0  0  0  0  0  0  0
    9.8259  -12.9998   28.1007 C   0  0  0  0  0  0  0  0  0  0  0  0
   10.4067  -13.8076   26.9600 C   0  0  0  0  0  0  0  0  0  0  0  0
   10.5006  -15.2731   27.3278 C   0  0  2  0  0  0  0  0  0  0  0  0
   11.3298  -15.4722   28.5646 C   0  0  0  0  0  0  0  0  0  0  0  0
   10.9768  -16.0815   26.1592 C   0  0  2  0  0  0  0  0  0  0  0  0
   10.0276  -16.1354   25.0669 N   0  0  0  0  0  0  0  0  0  0  0  0
   11.2026  -17.4839   26.5995 C   0  0  0  0  0  0  0  0  0  0  0  0
   10.3660  -18.4020   26.3295 O   0  0  0  0  0  0  0  0  0  0  0  0
   12.3221  -17.8791   27.3222 O   0  0  0  0  0  0  0  0  0  0  0  0
  2  1  1  1
  3  4  1  0
  3  2  1  0
  4  9  2  0
  5  4  1  0
  5  6  2  0
  6  7  1  0
  7  8  2  0
  9  8  1  0
 10 17  1  0
 10  2  1  0
 11 10  2  0
 13 12  1  6
 13 15  1  0
 14 13  1  0
 16 15  1  1
 16 17  1  0
 18 16  1  0
 19 18  2  0
 20 21  1  0
 21 22  1  0
 22 24  1  0
 22 23  1  1
 24 26  1  0
 24 25  1  6
 25 18  1  0
 26 28  1  0
 27 26  2  0
M  END
$$$$
