FLI.pdb
     RDKit          3D

 28 28  0  0  1  0  0  0  0  0999 V2000
    7.6111  -15.4967   19.8475 N   0  0  0  0  0  0  0  0  0  0  0  0
    8.0323  -16.4234   20.8768 C   0  0  1  0  0  0  0  0  0  0  0  0
    9.0978  -17.3078   20.2729 C   0  0  0  0  0  0  0  0  0  0  0  0
    9.4061  -18.3642   21.2745 C   0  0  0  0  0  0  0  0  0  0  0  0
    8.5542  -19.4219   21.5260 C   0  0  0  0  0  0  0  0  0  0  0  0
    8.8692  -20.3973   22.4704 C   0  0  0  0  0  0  0  0  0  0  0  0
   10.0571  -20.3218   23.1821 C   0  0  0  0  0  0  0  0  0  0  0  0
   10.9025  -19.2858   22.9427 C   0  0  0  0  0  0  0  0  0  0  0  0
   10.5781  -18.3329   22.0093 C   0  0  0  0  0  0  0  0  0  0  0  0
    8.4797  -15.7021   22.0666 C   0  0  0  0  0  0  0  0  0  0  0  0
    9.4684  -14.9292   21.9519 O   0  0  0  0  0  0  0  0  0  0  0  0
    7.4141  -12.1157   24.7412 C   0  0  0  0  0  0  0  0  0  0  0  0
    6.4115  -13.2980   24.6763 C   0  0  2  0  0  0  0  0  0  0  0  0
    5.2572  -12.8601   25.5234 C   0  0  0  0  0  0  0  0  0  0  0  0
    7.1568  -14.4605   25.1902 C   0  0  0  0  0  0  0  0  0  0  0  0
    8.3280  -14.9517   24.4079 C   0  0  2  0  0  0  0  0  0  0  0  0
    7.8910  -15.8012   23.3419 N   0  0  0  0  0  0  0  0  0  0  0  0
    9.2012  -15.8088   25.2857 C   0  0  0  0  0  0  0  0  0  0  0  0
    9.2407  -17.0662   25.1901 O   0  0  0  0  0  0  0  0  0  0  0  0
   10.7966  -14.8245   30.1569 C   0  0  0  0  0  0  0  0  0  0  0  0
   11.0911  -14.2769   28.7769 C   0  0  0  0  0  0  0  0  0  0  0  0
   11.8618  -15.2830   27.9488 C   0  0  2  0  0  0  0  0  0  0  0  0
   12.9759  -14.6225   27.1875 C   0  0  0  0  0  0  0  0  0  0  0  0
   10.9330  -16.0702   27.0750 C   0  0  2  0  0  0  0  0  0  0  0  0
   10.0423  -15.2454   26.2854 N   0  0  0  0  0  0  0  0  0  0  0  0
   10.0735  -16.9298   27.9314 C   0  0  0  0  0  0  0  0  0  0  0  0
   10.5596  -17.9079   28.5817 O   0  0  0  0  0  0  0  0  0  0  0  0
    8.7062  -16.7267   28.0767 O   0  0  0  0  0  0  0  0  0  0  0  0
  2  1  1  6
  3  4  1  0
  3  2  1  0
  4  9  2  0
  5  4  1  0
  5  6  2  0
  6  7  1  0
  7  8  2  0
  9  8  1  0
 10 17  1  0
 10  2  1  0
 11 10  2  0
 13 12  1  1
 13 15  1  0
 14 13  1  0
 16 15  1  1
 16 17  1  0
 18 16  1  0
 19 18  2  0
 20 21  1  0
 21 22  1  0
 22 24  1  0
 22 23  1  6
 24 26  1  0
 24 25  1  1
 25 18  1  0
 26 28  1  0
 27 26  2  0
M  END
$$$$
