FLI.pdb
     RDKit          3D

 28 28  0  0  1  0  0  0  0  0999 V2000
    9.0547  -16.2453   19.5752 N   0  0  0  0  0  0  0  0  0  0  0  0
    8.8983  -16.9878   20.8081 C   0  0  1  0  0  0  0  0  0  0  0  0
    9.9177  -18.1025   20.7907 C   0  0  0  0  0  0  0  0  0  0  0  0
    9.1709  -19.3783   20.9607 C   0  0  0  0  0  0  0  0  0  0  0  0
    8.6463  -19.7769   22.1746 C   0  0  0  0  0  0  0  0  0  0  0  0
    7.9510  -20.9778   22.3044 C   0  0  0  0  0  0  0  0  0  0  0  0
    7.7717  -21.8028   21.2041 C   0  0  0  0  0  0  0  0  0  0  0  0
    8.2835  -21.4206   20.0052 C   0  0  0  0  0  0  0  0  0  0  0  0
    8.9660  -20.2348   19.8935 C   0  0  0  0  0  0  0  0  0  0  0  0
    9.0253  -16.1005   21.9626 C   0  0  0  0  0  0  0  0  0  0  0  0
   10.0264  -15.3368   22.0133 O   0  0  0  0  0  0  0  0  0  0  0  0
    5.4641  -13.3699   25.9879 C   0  0  0  0  0  0  0  0  0  0  0  0
    6.9635  -13.5688   25.6423 C   0  0  2  0  0  0  0  0  0  0  0  0
    7.4415  -12.2076   25.2416 C   0  0  0  0  0  0  0  0  0  0  0  0
    6.9781  -14.5766   24.5675 C   0  0  0  0  0  0  0  0  0  0  0  0
    8.2982  -15.0695   24.0783 C   0  0  2  0  0  0  0  0  0  0  0  0
    8.1124  -16.0289   23.0322 N   0  0  0  0  0  0  0  0  0  0  0  0
    9.0092  -15.8010   25.1861 C   0  0  0  0  0  0  0  0  0  0  0  0
    8.8812  -17.0414   25.3774 O   0  0  0  0  0  0  0  0  0  0  0  0
   10.5453  -13.7063   30.2127 C   0  0  0  0  0  0  0  0  0  0  0  0
   10.0711  -14.6841   29.1590 C   0  0  0  0  0  0  0  0  0  0  0  0
   11.1809  -15.0053   28.1807 C   0  0  2  0  0  0  0  0  0  0  0  0
   11.8682  -13.7561   27.7074 C   0  0  0  0  0  0  0  0  0  0  0  0
   10.6675  -15.8590   27.0611 C   0  0  2  0  0  0  0  0  0  0  0  0
    9.8765  -15.1293   26.0921 N   0  0  0  0  0  0  0  0  0  0  0  0
    9.7864  -16.9171   27.6229 C   0  0  0  0  0  0  0  0  0  0  0  0
    8.5208  -16.8013   27.6002 O   0  0  0  0  0  0  0  0  0  0  0  0
   10.2769  -18.0825   28.2000 O   0  0  0  0  0  0  0  0  0  0  0  0
  2  1  1  6
  3  4  1  0
  3  2  1  0
  4  9  2  0
  5  4  1  0
  5  6  2  0
  6  7  1  0
  7  8  2  0
  9  8  1  0
 10 17  1  0
 10  2  1  0
 11 10  2  0
 13 12  1  6
 13 15  1  0
 14 13  1  0
 16 15  1  1
 16 17  1  0
 18 16  1  0
 19 18  2  0
 20 21  1  0
 21 22  1  0
 22 24  1  0
 22 23  1  6
 24 26  1  0
 24 25  1  6
 25 18  1  0
 26 28  1  0
 27 26  2  0
M  END
$$$$
