FLI.pdb
     RDKit          3D

 28 28  0  0  1  0  0  0  0  0999 V2000
    5.6502  -18.5206   23.8648 N   0  0  0  0  0  0  0  0  0  0  0  0
    6.1051  -17.2068   24.2680 C   0  0  1  0  0  0  0  0  0  0  0  0
    6.0186  -17.1471   25.7750 C   0  0  0  0  0  0  0  0  0  0  0  0
    6.2120  -15.7245   26.1663 C   0  0  0  0  0  0  0  0  0  0  0  0
    5.4287  -14.7025   25.6664 C   0  0  0  0  0  0  0  0  0  0  0  0
    5.6328  -13.3786   26.0510 C   0  0  0  0  0  0  0  0  0  0  0  0
    6.6374  -13.0607   26.9527 C   0  0  0  0  0  0  0  0  0  0  0  0
    7.4137  -14.0580   27.4508 C   0  0  0  0  0  0  0  0  0  0  0  0
    7.2003  -15.3572   27.0622 C   0  0  0  0  0  0  0  0  0  0  0  0
    7.4471  -16.9460   23.7510 C   0  0  0  0  0  0  0  0  0  0  0  0
    8.2750  -17.8960   23.7509 O   0  0  0  0  0  0  0  0  0  0  0  0
    8.7177  -12.6637   20.2192 C   0  0  0  0  0  0  0  0  0  0  0  0
    8.4705  -14.1331   20.6515 C   0  0  2  0  0  0  0  0  0  0  0  0
    6.9893  -14.2230   20.8511 C   0  0  0  0  0  0  0  0  0  0  0  0
    9.2765  -14.3137   21.8717 C   0  0  0  0  0  0  0  0  0  0  0  0
    9.1689  -15.6082   22.6051 C   0  0  2  0  0  0  0  0  0  0  0  0
    7.8943  -15.7089   23.2486 N   0  0  0  0  0  0  0  0  0  0  0  0
   10.1921  -15.6526   23.7091 C   0  0  0  0  0  0  0  0  0  0  0  0
   11.4314  -15.5507   23.4961 O   0  0  0  0  0  0  0  0  0  0  0  0
    9.8201  -12.6894   28.1185 C   0  0  0  0  0  0  0  0  0  0  0  0
   10.2719  -13.5199   26.9364 C   0  0  0  0  0  0  0  0  0  0  0  0
   10.4001  -14.9793   27.3180 C   0  0  2  0  0  0  0  0  0  0  0  0
   11.3101  -15.1551   28.5004 C   0  0  0  0  0  0  0  0  0  0  0  0
   10.8042  -15.8018   26.1323 C   0  0  2  0  0  0  0  0  0  0  0  0
    9.8177  -15.8137   25.0722 N   0  0  0  0  0  0  0  0  0  0  0  0
   10.9881  -17.2137   26.5615 C   0  0  0  0  0  0  0  0  0  0  0  0
   11.9615  -17.5550   27.3043 O   0  0  0  0  0  0  0  0  0  0  0  0
   10.1251  -18.2368   26.1872 O   0  0  0  0  0  0  0  0  0  0  0  0
  2  1  1  1
  3  4  1  0
  3  2  1  0
  4  9  2  0
  5  4  1  0
  5  6  2  0
  6  7  1  0
  7  8  2  0
  9  8  1  0
 10 17  1  0
 10  2  1  0
 11 10  2  0
 13 12  1  1
 13 15  1  0
 14 13  1  0
 16 15  1  1
 16 17  1  0
 18 16  1  0
 19 18  2  0
 20 21  1  0
 21 22  1  0
 22 24  1  0
 22 23  1  1
 24 26  1  0
 24 25  1  6
 25 18  1  0
 26 28  1  0
 27 26  2  0
M  END
$$$$
