FLI.pdb
     RDKit          3D

 28 28  0  0  1  0  0  0  0  0999 V2000
    5.3425  -18.2283   23.9777 N   0  0  0  0  0  0  0  0  0  0  0  0
    5.9177  -16.9560   24.3602 C   0  0  1  0  0  0  0  0  0  0  0  0
    5.9350  -16.9095   25.8700 C   0  0  0  0  0  0  0  0  0  0  0  0
    6.2239  -15.5025   26.2591 C   0  0  0  0  0  0  0  0  0  0  0  0
    7.2483  -15.1648   27.1218 C   0  0  0  0  0  0  0  0  0  0  0  0
    7.4959  -13.8379   27.4686 C   0  0  0  0  0  0  0  0  0  0  0  0
    6.7089  -12.8219   26.9474 C   0  0  0  0  0  0  0  0  0  0  0  0
    5.6986  -13.1426   26.0979 C   0  0  0  0  0  0  0  0  0  0  0  0
    5.4673  -14.4543   25.7659 C   0  0  0  0  0  0  0  0  0  0  0  0
    7.2382  -16.7865   23.7573 C   0  0  0  0  0  0  0  0  0  0  0  0
    7.9801  -17.8009   23.6648 O   0  0  0  0  0  0  0  0  0  0  0  0
    7.5061  -14.6065   20.0000 C   0  0  0  0  0  0  0  0  0  0  0  0
    7.8822  -13.7185   21.2153 C   0  0  2  0  0  0  0  0  0  0  0  0
    8.0325  -12.3426   20.6443 C   0  0  0  0  0  0  0  0  0  0  0  0
    9.1204  -14.3096   21.7526 C   0  0  0  0  0  0  0  0  0  0  0  0
    9.0120  -15.5426   22.5850 C   0  0  2  0  0  0  0  0  0  0  0  0
    7.7538  -15.5714   23.2670 N   0  0  0  0  0  0  0  0  0  0  0  0
   10.0639  -15.5217   23.6624 C   0  0  0  0  0  0  0  0  0  0  0  0
   11.2929  -15.3817   23.4143 O   0  0  0  0  0  0  0  0  0  0  0  0
    9.4587  -13.0398   28.4875 C   0  0  0  0  0  0  0  0  0  0  0  0
   10.0246  -13.6199   27.2091 C   0  0  0  0  0  0  0  0  0  0  0  0
   10.3140  -15.0975   27.3671 C   0  0  2  0  0  0  0  0  0  0  0  0
   11.2821  -15.3459   28.4888 C   0  0  0  0  0  0  0  0  0  0  0  0
   10.7529  -15.6922   26.0635 C   0  0  2  0  0  0  0  0  0  0  0  0
    9.7303  -15.6600   25.0386 N   0  0  0  0  0  0  0  0  0  0  0  0
   11.1012  -17.1222   26.2757 C   0  0  0  0  0  0  0  0  0  0  0  0
   10.2513  -18.0448   26.0703 O   0  0  0  0  0  0  0  0  0  0  0  0
   12.3555  -17.5399   26.7048 O   0  0  0  0  0  0  0  0  0  0  0  0
  2  1  1  1
  3  4  1  0
  3  2  1  0
  4  9  2  0
  5  4  1  0
  5  6  2  0
  6  7  1  0
  7  8  2  0
  9  8  1  0
 10 17  1  0
 10  2  1  0
 11 10  2  0
 13 12  1  6
 13 15  1  0
 14 13  1  0
 16 15  1  1
 16 17  1  0
 18 16  1  0
 19 18  2  0
 20 21  1  0
 21 22  1  0
 22 24  1  0
 22 23  1  1
 24 26  1  0
 24 25  1  6
 25 18  1  0
 26 28  1  0
 27 26  2  0
M  END
$$$$
