FLI.pdb
     RDKit          3D

 28 28  0  0  1  0  0  0  0  0999 V2000
    6.6413  -19.1351   22.3412 N   0  0  0  0  0  0  0  0  0  0  0  0
    6.4054  -18.7656   23.7209 C   0  0  1  0  0  0  0  0  0  0  0  0
    6.9135  -19.8995   24.5801 C   0  0  0  0  0  0  0  0  0  0  0  0
    5.9879  -21.0471   24.3787 C   0  0  0  0  0  0  0  0  0  0  0  0
    4.6142  -20.9031   24.3767 C   0  0  0  0  0  0  0  0  0  0  0  0
    3.7713  -21.9964   24.1855 C   0  0  0  0  0  0  0  0  0  0  0  0
    4.3034  -23.2624   23.9919 C   0  0  0  0  0  0  0  0  0  0  0  0
    5.6531  -23.4156   23.9921 C   0  0  0  0  0  0  0  0  0  0  0  0
    6.4702  -22.3289   24.1817 C   0  0  0  0  0  0  0  0  0  0  0  0
    7.0314  -17.4801   24.0234 C   0  0  0  0  0  0  0  0  0  0  0  0
    8.1366  -17.2182   23.4775 O   0  0  0  0  0  0  0  0  0  0  0  0
    5.7374  -12.2485   26.8930 C   0  0  0  0  0  0  0  0  0  0  0  0
    6.9075  -13.0061   26.2117 C   0  0  2  0  0  0  0  0  0  0  0  0
    7.3958  -12.0692   25.1507 C   0  0  0  0  0  0  0  0  0  0  0  0
    6.3133  -14.2586   25.7125 C   0  0  0  0  0  0  0  0  0  0  0  0
    7.2234  -15.2985   25.1511 C   0  0  2  0  0  0  0  0  0  0  0  0
    6.4957  -16.5016   24.8826 N   0  0  0  0  0  0  0  0  0  0  0  0
    8.2651  -15.6672   26.1742 C   0  0  0  0  0  0  0  0  0  0  0  0
    8.0161  -16.4045   27.1672 O   0  0  0  0  0  0  0  0  0  0  0  0
   13.3224  -16.0429   24.1251 C   0  0  0  0  0  0  0  0  0  0  0  0
   11.9891  -16.2419   24.8135 C   0  0  0  0  0  0  0  0  0  0  0  0
   12.0192  -15.6865   26.2216 C   0  0  2  0  0  0  0  0  0  0  0  0
   13.1149  -16.3177   27.0328 C   0  0  0  0  0  0  0  0  0  0  0  0
   10.6690  -15.7977   26.8623 C   0  0  2  0  0  0  0  0  0  0  0  0
    9.6060  -15.2008   26.0806 N   0  0  0  0  0  0  0  0  0  0  0  0
   10.6916  -15.0860   28.1677 C   0  0  0  0  0  0  0  0  0  0  0  0
   10.5031  -13.8309   28.2372 O   0  0  0  0  0  0  0  0  0  0  0  0
   10.9159  -15.7318   29.3778 O   0  0  0  0  0  0  0  0  0  0  0  0
  2  1  1  6
  3  4  1  0
  3  2  1  0
  4  9  2  0
  5  4  1  0
  5  6  2  0
  6  7  1  0
  7  8  2  0
  9  8  1  0
 10 17  1  0
 10  2  1  0
 11 10  2  0
 13 12  1  6
 13 15  1  0
 14 13  1  0
 16 15  1  1
 16 17  1  0
 18 16  1  0
 19 18  2  0
 20 21  1  0
 21 22  1  0
 22 24  1  0
 22 23  1  1
 24 26  1  0
 24 25  1  6
 25 18  1  0
 26 28  1  0
 27 26  2  0
M  END
$$$$
