FLI.pdb
     RDKit          3D

 28 28  0  0  1  0  0  0  0  0999 V2000
    9.7501  -15.9257   19.9088 N   0  0  0  0  0  0  0  0  0  0  0  0
    9.3838  -16.7397   21.0485 C   0  0  1  0  0  0  0  0  0  0  0  0
   10.2577  -17.9716   21.0170 C   0  0  0  0  0  0  0  0  0  0  0  0
    9.3489  -19.1495   20.9844 C   0  0  0  0  0  0  0  0  0  0  0  0
    9.2387  -20.0332   22.0401 C   0  0  0  0  0  0  0  0  0  0  0  0
    8.3787  -21.1285   21.9816 C   0  0  0  0  0  0  0  0  0  0  0  0
    7.6100  -21.3524   20.8493 C   0  0  0  0  0  0  0  0  0  0  0  0
    7.7105  -20.4896   19.8049 C   0  0  0  0  0  0  0  0  0  0  0  0
    8.5621  -19.4153   19.8777 C   0  0  0  0  0  0  0  0  0  0  0  0
    9.5023  -15.9733   22.2873 C   0  0  0  0  0  0  0  0  0  0  0  0
   10.5310  -15.2631   22.4465 O   0  0  0  0  0  0  0  0  0  0  0  0
    7.3283  -12.3838   24.4669 C   0  0  0  0  0  0  0  0  0  0  0  0
    6.5888  -13.7358   24.2868 C   0  0  2  0  0  0  0  0  0  0  0  0
    5.2221  -13.4955   24.8492 C   0  0  0  0  0  0  0  0  0  0  0  0
    7.4028  -14.7183   25.0238 C   0  0  0  0  0  0  0  0  0  0  0  0
    8.7278  -15.1051   24.4585 C   0  0  2  0  0  0  0  0  0  0  0  0
    8.5524  -15.9637   23.3268 N   0  0  0  0  0  0  0  0  0  0  0  0
    9.4961  -15.9116   25.4720 C   0  0  0  0  0  0  0  0  0  0  0  0
    9.7816  -17.1286   25.3017 O   0  0  0  0  0  0  0  0  0  0  0  0
   10.8590  -13.8940   30.7275 C   0  0  0  0  0  0  0  0  0  0  0  0
   10.3043  -14.8156   29.6625 C   0  0  0  0  0  0  0  0  0  0  0  0
   11.3888  -15.2376   28.6941 C   0  0  2  0  0  0  0  0  0  0  0  0
   12.1641  -14.0519   28.1942 C   0  0  0  0  0  0  0  0  0  0  0  0
   10.8161  -16.0776   27.5931 C   0  0  2  0  0  0  0  0  0  0  0  0
    9.9503  -15.3428   26.6944 N   0  0  0  0  0  0  0  0  0  0  0  0
    9.9922  -17.1626   28.1892 C   0  0  0  0  0  0  0  0  0  0  0  0
    8.7226  -17.1295   28.1382 O   0  0  0  0  0  0  0  0  0  0  0  0
   10.5432  -18.2656   28.8306 O   0  0  0  0  0  0  0  0  0  0  0  0
  2  1  1  6
  3  4  1  0
  3  2  1  0
  4  9  2  0
  5  4  1  0
  5  6  2  0
  6  7  1  0
  7  8  2  0
  9  8  1  0
 10 17  1  0
 10  2  1  0
 11 10  2  0
 13 12  1  1
 13 15  1  0
 14 13  1  0
 16 15  1  1
 16 17  1  0
 18 16  1  0
 19 18  2  0
 20 21  1  0
 21 22  1  0
 22 24  1  0
 22 23  1  6
 24 26  1  0
 24 25  1  6
 25 18  1  0
 26 28  1  0
 27 26  2  0
M  END
$$$$
