FLI.pdb
     RDKit          3D

 28 28  0  0  1  0  0  0  0  0999 V2000
    5.6107  -18.6515   23.9412 N   0  0  0  0  0  0  0  0  0  0  0  0
    6.0804  -17.3280   24.2925 C   0  0  1  0  0  0  0  0  0  0  0  0
    5.9662  -17.1972   25.7932 C   0  0  0  0  0  0  0  0  0  0  0  0
    6.1907  -15.7638   26.1238 C   0  0  0  0  0  0  0  0  0  0  0  0
    5.2669  -14.7795   25.8312 C   0  0  0  0  0  0  0  0  0  0  0  0
    5.5042  -13.4444   26.1527 C   0  0  0  0  0  0  0  0  0  0  0  0
    6.6855  -13.0767   26.7792 C   0  0  0  0  0  0  0  0  0  0  0  0
    7.6012  -14.0366   27.0717 C   0  0  0  0  0  0  0  0  0  0  0  0
    7.3529  -15.3475   26.7486 C   0  0  0  0  0  0  0  0  0  0  0  0
    7.4362  -17.1133   23.7908 C   0  0  0  0  0  0  0  0  0  0  0  0
    8.2540  -18.0686   23.8710 O   0  0  0  0  0  0  0  0  0  0  0  0
    7.0170  -14.0776   21.5311 C   0  0  0  0  0  0  0  0  0  0  0  0
    8.4698  -13.5909   21.7748 C   0  0  2  0  0  0  0  0  0  0  0  0
    8.6916  -12.5333   20.7384 C   0  0  0  0  0  0  0  0  0  0  0  0
    9.3066  -14.7946   21.6267 C   0  0  0  0  0  0  0  0  0  0  0  0
    9.2338  -15.8413   22.6869 C   0  0  2  0  0  0  0  0  0  0  0  0
    7.9075  -15.9153   23.2201 N   0  0  0  0  0  0  0  0  0  0  0  0
   10.1208  -15.4568   23.8415 C   0  0  0  0  0  0  0  0  0  0  0  0
   10.9819  -14.5381   23.7646 O   0  0  0  0  0  0  0  0  0  0  0  0
    9.2965  -12.6791   27.7367 C   0  0  0  0  0  0  0  0  0  0  0  0
    9.9790  -13.5367   26.6928 C   0  0  0  0  0  0  0  0  0  0  0  0
   10.2857  -14.9143   27.2406 C   0  0  2  0  0  0  0  0  0  0  0  0
   11.0861  -14.8300   28.5092 C   0  0  0  0  0  0  0  0  0  0  0  0
   10.9281  -15.7693   26.1909 C   0  0  2  0  0  0  0  0  0  0  0  0
   10.0393  -16.1140   25.1008 N   0  0  0  0  0  0  0  0  0  0  0  0
   11.3644  -17.0497   26.8084 C   0  0  0  0  0  0  0  0  0  0  0  0
   10.6708  -18.1083   26.6902 O   0  0  0  0  0  0  0  0  0  0  0  0
   12.5377  -17.1744   27.5430 O   0  0  0  0  0  0  0  0  0  0  0  0
  2  1  1  1
  3  4  1  0
  3  2  1  0
  4  9  2  0
  5  4  1  0
  5  6  2  0
  6  7  1  0
  7  8  2  0
  9  8  1  0
 10 17  1  0
 10  2  1  0
 11 10  2  0
 13 12  1  6
 13 15  1  0
 14 13  1  0
 16 15  1  6
 16 17  1  0
 18 16  1  0
 19 18  2  0
 20 21  1  0
 21 22  1  0
 22 24  1  0
 22 23  1  1
 24 26  1  0
 24 25  1  6
 25 18  1  0
 26 28  1  0
 27 26  2  0
M  END
$$$$
