FLI.pdb
     RDKit          3D

 28 28  0  0  1  0  0  0  0  0999 V2000
    6.1443  -19.9885   21.8998 N   0  0  0  0  0  0  0  0  0  0  0  0
    5.6857  -18.6267   22.0759 C   0  0  1  0  0  0  0  0  0  0  0  0
    4.9730  -18.5639   23.4064 C   0  0  0  0  0  0  0  0  0  0  0  0
    3.5823  -19.0416   23.1784 C   0  0  0  0  0  0  0  0  0  0  0  0
    2.9542  -19.9340   24.0253 C   0  0  0  0  0  0  0  0  0  0  0  0
    1.6502  -20.3642   23.7868 C   0  0  0  0  0  0  0  0  0  0  0  0
    0.9527  -19.8985   22.6823 C   0  0  0  0  0  0  0  0  0  0  0  0
    1.5607  -19.0206   21.8427 C   0  0  0  0  0  0  0  0  0  0  0  0
    2.8456  -18.6062   22.0912 C   0  0  0  0  0  0  0  0  0  0  0  0
    6.8024  -17.6899   21.9687 C   0  0  0  0  0  0  0  0  0  0  0  0
    7.9716  -18.1519   22.0565 O   0  0  0  0  0  0  0  0  0  0  0  0
    7.7260  -11.9079   20.3202 C   0  0  0  0  0  0  0  0  0  0  0  0
    8.4390  -13.2852   20.3643 C   0  0  2  0  0  0  0  0  0  0  0  0
    8.9685  -13.4799   18.9775 C   0  0  0  0  0  0  0  0  0  0  0  0
    7.3967  -14.2427   20.7743 C   0  0  0  0  0  0  0  0  0  0  0  0
    7.8221  -15.5134   21.4296 C   0  0  2  0  0  0  0  0  0  0  0  0
    6.6775  -16.3010   21.7738 N   0  0  0  0  0  0  0  0  0  0  0  0
    8.5165  -15.2061   22.7300 C   0  0  0  0  0  0  0  0  0  0  0  0
    9.6348  -14.6249   22.7863 O   0  0  0  0  0  0  0  0  0  0  0  0
    6.0810  -12.3950   26.0572 C   0  0  0  0  0  0  0  0  0  0  0  0
    7.0981  -13.1755   25.2527 C   0  0  0  0  0  0  0  0  0  0  0  0
    7.7102  -14.2833   26.0835 C   0  0  2  0  0  0  0  0  0  0  0  0
    8.4283  -13.7317   27.2823 C   0  0  0  0  0  0  0  0  0  0  0  0
    8.5706  -15.1677   25.2330 C   0  0  2  0  0  0  0  0  0  0  0  0
    7.9464  -15.5568   23.9855 N   0  0  0  0  0  0  0  0  0  0  0  0
    8.8600  -16.4227   25.9763 C   0  0  0  0  0  0  0  0  0  0  0  0
    8.1286  -17.4532   25.8393 O   0  0  0  0  0  0  0  0  0  0  0  0
    9.9294  -16.5524   26.8546 O   0  0  0  0  0  0  0  0  0  0  0  0
  2  1  1  1
  3  4  1  0
  3  2  1  0
  4  9  2  0
  5  4  1  0
  5  6  2  0
  6  7  1  0
  7  8  2  0
  9  8  1  0
 10 17  1  0
 10  2  1  0
 11 10  2  0
 13 12  1  6
 13 15  1  0
 14 13  1  0
 16 15  1  1
 16 17  1  0
 18 16  1  0
 19 18  2  0
 20 21  1  0
 21 22  1  0
 22 24  1  0
 22 23  1  1
 24 26  1  0
 24 25  1  6
 25 18  1  0
 26 28  1  0
 27 26  2  0
M  END
$$$$
