IGI.pdb
     RDKit          3D

 21 20  0  0  1  0  0  0  0  0999 V2000
   33.6285  -21.8806   -9.8498 C   0  0  0  0  0  0  0  0  0  0  0  0
   32.5841  -22.5112  -10.7091 C   0  0  0  0  0  0  0  0  0  0  0  0
   31.5349  -21.5407  -11.2208 C   0  0  2  0  0  0  0  0  0  0  0  0
   30.9279  -20.9043   -9.9881 C   0  0  0  0  0  0  0  0  0  0  0  0
   30.4845  -22.2620  -12.0579 C   0  0  2  0  0  0  0  0  0  0  0  0
   31.2156  -22.7343  -13.2384 N   0  0  0  0  0  0  0  0  0  0  0  0
   29.4874  -21.2594  -12.5030 C   0  0  0  0  0  0  0  0  0  0  0  0
   28.5334  -20.9755  -11.7007 O   0  0  0  0  0  0  0  0  0  0  0  0
   29.5143  -20.5945  -13.7458 N   0  0  0  0  0  0  0  0  0  0  0  0
   28.4925  -19.6108  -14.0405 C   0  0  0  0  0  0  0  0  0  0  0  0
   27.1328  -20.2332  -13.9521 C   0  0  0  0  0  0  0  0  0  0  0  0
   26.8423  -21.1602  -14.7414 O   0  0  0  0  0  0  0  0  0  0  0  0
   24.8753  -20.5627   -8.9056 C   0  0  0  0  0  0  0  0  0  0  0  0
   24.9615  -20.0665  -10.3064 C   0  0  0  0  0  0  0  0  0  0  0  0
   25.0088  -21.0916  -11.3777 C   0  0  2  0  0  0  0  0  0  0  0  0
   26.0038  -22.2045  -11.1215 C   0  0  0  0  0  0  0  0  0  0  0  0
   24.9396  -20.6171  -12.7815 C   0  0  2  0  0  0  0  0  0  0  0  0
   26.1669  -19.8197  -13.0185 N   0  0  0  0  0  0  0  0  0  0  0  0
   23.7549  -19.8922  -13.2106 C   0  0  0  0  0  0  0  0  0  0  0  0
   23.7653  -18.6414  -13.4895 O   0  0  0  0  0  0  0  0  0  0  0  0
   22.5173  -20.4919  -13.3569 O   0  0  0  0  0  0  0  0  0  0  0  0
  1  2  1  0
  2  3  1  0
  3  5  1  0
  3  4  1  1
  5  6  1  6
  7  8  2  0
  7  5  1  0
  9  7  1  0
 10 11  1  0
 10  9  1  0
 11 18  1  0
 12 11  2  0
 14 13  1  0
 15 14  1  0
 15 16  1  6
 17 15  1  0
 17 18  1  1
 19 17  1  0
 19 21  1  0
 20 19  2  0
M  END
$$$$
