IGI.pdb
     RDKit          3D

 21 20  0  0  1  0  0  0  0  0999 V2000
   24.0341  -15.0275  -19.8411 C   0  0  0  0  0  0  0  0  0  0  0  0
   24.7041  -14.2166  -18.7826 C   0  0  0  0  0  0  0  0  0  0  0  0
   23.7773  -13.2564  -18.0591 C   0  0  2  0  0  0  0  0  0  0  0  0
   23.2109  -12.3471  -19.1294 C   0  0  0  0  0  0  0  0  0  0  0  0
   24.5297  -12.4696  -16.9917 C   0  0  2  0  0  0  0  0  0  0  0  0
   25.0891  -13.4950  -16.1048 N   0  0  0  0  0  0  0  0  0  0  0  0
   23.5383  -11.6827  -16.2201 C   0  0  0  0  0  0  0  0  0  0  0  0
   22.7689  -12.3184  -15.4213 O   0  0  0  0  0  0  0  0  0  0  0  0
   23.3822  -10.2840  -16.3012 N   0  0  0  0  0  0  0  0  0  0  0  0
   22.4341   -9.6291  -15.4233 C   0  0  0  0  0  0  0  0  0  0  0  0
   22.5398   -8.1415  -15.5632 C   0  0  0  0  0  0  0  0  0  0  0  0
   23.2957   -7.6715  -16.4433 O   0  0  0  0  0  0  0  0  0  0  0  0
   18.7343   -5.5721  -17.1706 C   0  0  0  0  0  0  0  0  0  0  0  0
   20.1005   -5.9562  -16.7214 C   0  0  0  0  0  0  0  0  0  0  0  0
   20.5847   -5.3489  -15.4574 C   0  0  2  0  0  0  0  0  0  0  0  0
   20.3049   -3.8648  -15.3405 C   0  0  0  0  0  0  0  0  0  0  0  0
   21.9110   -5.7830  -14.9545 C   0  0  2  0  0  0  0  0  0  0  0  0
   21.8247   -7.2485  -14.7466 N   0  0  0  0  0  0  0  0  0  0  0  0
   22.4586   -5.1207  -13.7820 C   0  0  0  0  0  0  0  0  0  0  0  0
   23.0635   -3.9922  -13.8370 O   0  0  0  0  0  0  0  0  0  0  0  0
   22.3703   -5.6511  -12.5078 O   0  0  0  0  0  0  0  0  0  0  0  0
  1  2  1  0
  2  3  1  0
  3  5  1  0
  3  4  1  6
  5  6  1  1
  7  8  2  0
  7  5  1  0
  9  7  1  0
 10 11  1  0
 10  9  1  0
 11 18  1  0
 12 11  2  0
 14 13  1  0
 15 14  1  0
 15 16  1  6
 17 15  1  0
 17 18  1  1
 19 17  1  0
 19 21  1  0
 20 19  2  0
M  END
$$$$
