IGI.pdb
     RDKit          3D

 21 20  0  0  1  0  0  0  0  0999 V2000
   17.6160  -20.5054  -16.4596 C   0  0  0  0  0  0  0  0  0  0  0  0
   18.9666  -19.9082  -16.2450 C   0  0  0  0  0  0  0  0  0  0  0  0
   19.6042  -20.2806  -14.9187 C   0  0  2  0  0  0  0  0  0  0  0  0
   18.6370  -19.8120  -13.8519 C   0  0  0  0  0  0  0  0  0  0  0  0
   20.9722  -19.6251  -14.7662 C   0  0  2  0  0  0  0  0  0  0  0  0
   21.7679  -20.1732  -15.8696 N   0  0  0  0  0  0  0  0  0  0  0  0
   21.5649  -20.0953  -13.4914 C   0  0  0  0  0  0  0  0  0  0  0  0
   21.1901  -19.5172  -12.4146 O   0  0  0  0  0  0  0  0  0  0  0  0
   22.5107  -21.1345  -13.3788 N   0  0  0  0  0  0  0  0  0  0  0  0
   23.1305  -21.3865  -12.0939 C   0  0  0  0  0  0  0  0  0  0  0  0
   24.5034  -20.7886  -12.0543 C   0  0  0  0  0  0  0  0  0  0  0  0
   24.7282  -19.7517  -12.7186 O   0  0  0  0  0  0  0  0  0  0  0  0
   26.7357  -19.6430   -8.3250 C   0  0  0  0  0  0  0  0  0  0  0  0
   26.9085  -21.0435   -8.7992 C   0  0  0  0  0  0  0  0  0  0  0  0
   27.5999  -21.2296  -10.0985 C   0  0  2  0  0  0  0  0  0  0  0  0
   29.0886  -20.9544  -10.0487 C   0  0  0  0  0  0  0  0  0  0  0  0
   26.9081  -20.7427  -11.3170 C   0  0  2  0  0  0  0  0  0  0  0  0
   25.5526  -21.3434  -11.3013 N   0  0  0  0  0  0  0  0  0  0  0  0
   27.5518  -20.9402  -12.6053 C   0  0  0  0  0  0  0  0  0  0  0  0
   28.1710  -20.0057  -13.2263 O   0  0  0  0  0  0  0  0  0  0  0  0
   27.5528  -22.1540  -13.2681 O   0  0  0  0  0  0  0  0  0  0  0  0
  1  2  1  0
  2  3  1  0
  3  5  1  0
  3  4  1  1
  5  6  1  6
  7  8  2  0
  7  5  1  0
  9  7  1  0
 10 11  1  0
 10  9  1  0
 11 18  1  0
 12 11  2  0
 14 13  1  0
 15 14  1  0
 15 16  1  1
 17 15  1  0
 17 18  1  6
 19 17  1  0
 19 21  1  0
 20 19  2  0
M  END
$$$$
