IGI.pdb
     RDKit          3D

 21 20  0  0  1  0  0  0  0  0999 V2000
   21.0501  -19.1548  -15.4327 C   0  0  0  0  0  0  0  0  0  0  0  0
   21.6205  -20.1877  -14.5192 C   0  0  0  0  0  0  0  0  0  0  0  0
   22.8664  -19.7380  -13.7776 C   0  0  2  0  0  0  0  0  0  0  0  0
   23.8835  -19.4034  -14.8485 C   0  0  0  0  0  0  0  0  0  0  0  0
   23.3713  -20.8316  -12.8429 C   0  0  2  0  0  0  0  0  0  0  0  0
   22.2903  -21.0102  -11.8679 N   0  0  0  0  0  0  0  0  0  0  0  0
   24.5582  -20.3077  -12.1257 C   0  0  0  0  0  0  0  0  0  0  0  0
   25.7013  -20.4678  -12.6751 O   0  0  0  0  0  0  0  0  0  0  0  0
   24.5191  -19.6444  -10.8824 N   0  0  0  0  0  0  0  0  0  0  0  0
   25.7581  -19.1801  -10.2927 C   0  0  0  0  0  0  0  0  0  0  0  0
   26.1771  -20.0924   -9.1809 C   0  0  0  0  0  0  0  0  0  0  0  0
   26.2299  -21.3237   -9.3997 O   0  0  0  0  0  0  0  0  0  0  0  0
   29.3090  -17.8534   -5.4554 C   0  0  0  0  0  0  0  0  0  0  0  0
   28.8018  -18.9259   -6.3545 C   0  0  0  0  0  0  0  0  0  0  0  0
   27.6904  -19.7621   -5.8381 C   0  0  2  0  0  0  0  0  0  0  0  0
   28.0075  -20.4737   -4.5391 C   0  0  0  0  0  0  0  0  0  0  0  0
   26.9201  -20.5597   -6.8234 C   0  0  2  0  0  0  0  0  0  0  0  0
   26.5143  -19.6237   -7.8994 N   0  0  0  0  0  0  0  0  0  0  0  0
   25.7854  -21.3361   -6.3514 C   0  0  0  0  0  0  0  0  0  0  0  0
   24.6203  -20.8323   -6.1750 O   0  0  0  0  0  0  0  0  0  0  0  0
   25.8668  -22.6847   -6.0559 O   0  0  0  0  0  0  0  0  0  0  0  0
  1  2  1  0
  2  3  1  0
  3  5  1  0
  3  4  1  6
  5  6  1  1
  7  8  2  0
  7  5  1  0
  9  7  1  0
 10 11  1  0
 10  9  1  0
 11 18  1  0
 12 11  2  0
 14 13  1  0
 15 14  1  0
 15 16  1  1
 17 15  1  0
 17 18  1  6
 19 17  1  0
 19 21  1  0
 20 19  2  0
M  END
$$$$
