IGI.pdb
     RDKit          3D

 21 20  0  0  1  0  0  0  0  0999 V2000
   20.5694  -16.3172  -21.8505 C   0  0  0  0  0  0  0  0  0  0  0  0
   19.8941  -15.6030  -20.7277 C   0  0  0  0  0  0  0  0  0  0  0  0
   20.4856  -14.2400  -20.4165 C   0  0  2  0  0  0  0  0  0  0  0  0
   21.9262  -14.4965  -20.0267 C   0  0  0  0  0  0  0  0  0  0  0  0
   19.7131  -13.5511  -19.2971 C   0  0  2  0  0  0  0  0  0  0  0  0
   18.3847  -13.3014  -19.8663 N   0  0  0  0  0  0  0  0  0  0  0  0
   20.3571  -12.2416  -19.0360 C   0  0  0  0  0  0  0  0  0  0  0  0
   21.4835  -12.2450  -18.4314 O   0  0  0  0  0  0  0  0  0  0  0  0
   19.8194  -10.9923  -19.4068 N   0  0  0  0  0  0  0  0  0  0  0  0
   20.5514   -9.7857  -19.0801 C   0  0  0  0  0  0  0  0  0  0  0  0
   20.4089   -9.4715  -17.6224 C   0  0  0  0  0  0  0  0  0  0  0  0
   19.3645   -9.8244  -17.0294 O   0  0  0  0  0  0  0  0  0  0  0  0
   23.5684  -11.5466  -14.5715 C   0  0  0  0  0  0  0  0  0  0  0  0
   22.4739  -10.7680  -15.2130 C   0  0  0  0  0  0  0  0  0  0  0  0
   22.2988   -9.3648  -14.7640 C   0  0  2  0  0  0  0  0  0  0  0  0
   22.3921   -9.1825  -13.2633 C   0  0  0  0  0  0  0  0  0  0  0  0
   21.2495   -8.5585  -15.4342 C   0  0  2  0  0  0  0  0  0  0  0  0
   21.4002   -8.7957  -16.8900 N   0  0  0  0  0  0  0  0  0  0  0  0
   21.1756   -7.1364  -15.1419 C   0  0  0  0  0  0  0  0  0  0  0  0
   20.5953   -6.6677  -14.0998 O   0  0  0  0  0  0  0  0  0  0  0  0
   21.7281   -6.1696  -15.9622 O   0  0  0  0  0  0  0  0  0  0  0  0
  1  2  1  0
  2  3  1  0
  3  5  1  0
  3  4  1  1
  5  6  1  6
  7  8  2  0
  7  5  1  0
  9  7  1  0
 10 11  1  0
 10  9  1  0
 11 18  1  0
 12 11  2  0
 14 13  1  0
 15 14  1  0
 15 16  1  1
 17 15  1  0
 17 18  1  6
 19 17  1  0
 19 21  1  0
 20 19  2  0
M  END
$$$$
