IGI.pdb
     RDKit          3D

 21 20  0  0  1  0  0  0  0  0999 V2000
   21.1575  -21.3112  -14.3628 C   0  0  0  0  0  0  0  0  0  0  0  0
   22.2291  -20.3681  -13.9280 C   0  0  0  0  0  0  0  0  0  0  0  0
   23.1406  -20.9225  -12.8481 C   0  0  2  0  0  0  0  0  0  0  0  0
   22.2310  -21.3057  -11.6996 C   0  0  0  0  0  0  0  0  0  0  0  0
   24.1782  -19.8890  -12.4244 C   0  0  2  0  0  0  0  0  0  0  0  0
   24.9428  -19.6134  -13.6452 N   0  0  0  0  0  0  0  0  0  0  0  0
   25.0878  -20.5295  -11.4446 C   0  0  0  0  0  0  0  0  0  0  0  0
   25.9583  -21.3514  -11.8931 O   0  0  0  0  0  0  0  0  0  0  0  0
   25.0646  -20.2981  -10.0543 N   0  0  0  0  0  0  0  0  0  0  0  0
   26.0504  -20.9487   -9.2155 C   0  0  0  0  0  0  0  0  0  0  0  0
   26.5142  -20.0144   -8.1404 C   0  0  0  0  0  0  0  0  0  0  0  0
   26.0451  -18.8543   -8.1070 O   0  0  0  0  0  0  0  0  0  0  0  0
   28.5174  -22.2220   -3.5083 C   0  0  0  0  0  0  0  0  0  0  0  0
   27.8136  -21.3849   -4.5181 C   0  0  0  0  0  0  0  0  0  0  0  0
   28.5622  -20.2276   -5.0669 C   0  0  2  0  0  0  0  0  0  0  0  0
   29.3076  -19.4245   -4.0211 C   0  0  0  0  0  0  0  0  0  0  0  0
   27.9017  -19.4263   -6.1262 C   0  0  2  0  0  0  0  0  0  0  0  0
   27.4558  -20.3855   -7.1651 N   0  0  0  0  0  0  0  0  0  0  0  0
   28.6358  -18.3198   -6.7177 C   0  0  0  0  0  0  0  0  0  0  0  0
   29.3925  -18.4537   -7.7434 O   0  0  0  0  0  0  0  0  0  0  0  0
   28.5772  -17.0287   -6.2255 O   0  0  0  0  0  0  0  0  0  0  0  0
  1  2  1  0
  2  3  1  0
  3  5  1  0
  3  4  1  1
  5  6  1  6
  7  8  2  0
  7  5  1  0
  9  7  1  0
 10 11  1  0
 10  9  1  0
 11 18  1  0
 12 11  2  0
 14 13  1  0
 15 14  1  0
 15 16  1  1
 17 15  1  0
 17 18  1  6
 19 17  1  0
 19 21  1  0
 20 19  2  0
M  END
$$$$
