IGI.pdb
     RDKit          3D

 21 20  0  0  1  0  0  0  0  0999 V2000
   17.2191  -19.3335  -17.8006 C   0  0  0  0  0  0  0  0  0  0  0  0
   18.2051  -18.7007  -16.8763 C   0  0  0  0  0  0  0  0  0  0  0  0
   19.3931  -19.5838  -16.5399 C   0  0  2  0  0  0  0  0  0  0  0  0
   18.8171  -20.8020  -15.8489 C   0  0  0  0  0  0  0  0  0  0  0  0
   20.3869  -18.8476  -15.6484 C   0  0  2  0  0  0  0  0  0  0  0  0
   20.8444  -17.7169  -16.4629 N   0  0  0  0  0  0  0  0  0  0  0  0
   21.5430  -19.7454  -15.4140 C   0  0  0  0  0  0  0  0  0  0  0  0
   21.4106  -20.6655  -14.5364 O   0  0  0  0  0  0  0  0  0  0  0  0
   22.7777  -19.6603  -16.0888 N   0  0  0  0  0  0  0  0  0  0  0  0
   23.7840  -20.6738  -15.8465 C   0  0  0  0  0  0  0  0  0  0  0  0
   24.7844  -20.1824  -14.8458 C   0  0  0  0  0  0  0  0  0  0  0  0
   25.0312  -18.9564  -14.7929 O   0  0  0  0  0  0  0  0  0  0  0  0
   24.2177  -20.9117   -9.8947 C   0  0  0  0  0  0  0  0  0  0  0  0
   24.6851  -20.4557  -11.2325 C   0  0  0  0  0  0  0  0  0  0  0  0
   26.0337  -20.9035  -11.6586 C   0  0  2  0  0  0  0  0  0  0  0  0
   27.0893  -20.7924  -10.5780 C   0  0  0  0  0  0  0  0  0  0  0  0
   26.4817  -20.5230  -13.0205 C   0  0  2  0  0  0  0  0  0  0  0  0
   25.4596  -21.0413  -13.9613 N   0  0  0  0  0  0  0  0  0  0  0  0
   27.8199  -20.9038  -13.4418 C   0  0  0  0  0  0  0  0  0  0  0  0
   28.8493  -20.1660  -13.2461 O   0  0  0  0  0  0  0  0  0  0  0  0
   28.0954  -22.0959  -14.0866 O   0  0  0  0  0  0  0  0  0  0  0  0
  1  2  1  0
  2  3  1  0
  3  5  1  0
  3  4  1  1
  5  6  1  6
  7  8  2  0
  7  5  1  0
  9  7  1  0
 10 11  1  0
 10  9  1  0
 11 18  1  0
 12 11  2  0
 14 13  1  0
 15 14  1  0
 15 16  1  1
 17 15  1  0
 17 18  1  6
 19 17  1  0
 19 21  1  0
 20 19  2  0
M  END
$$$$
