IGI.pdb
     RDKit          3D

 21 20  0  0  1  0  0  0  0  0999 V2000
   21.8968  -20.8101  -10.5266 C   0  0  0  0  0  0  0  0  0  0  0  0
   23.2645  -21.3424  -10.7970 C   0  0  0  0  0  0  0  0  0  0  0  0
   24.1984  -20.3432  -11.4557 C   0  0  2  0  0  0  0  0  0  0  0  0
   23.5109  -19.9215  -12.7374 C   0  0  0  0  0  0  0  0  0  0  0  0
   25.5630  -20.9665  -11.7270 C   0  0  2  0  0  0  0  0  0  0  0  0
   26.0709  -21.3319  -10.4005 N   0  0  0  0  0  0  0  0  0  0  0  0
   26.4441  -19.9128  -12.2847 C   0  0  0  0  0  0  0  0  0  0  0  0
   26.9698  -19.0846  -11.4649 O   0  0  0  0  0  0  0  0  0  0  0  0
   26.7463  -19.7575  -13.6528 N   0  0  0  0  0  0  0  0  0  0  0  0
   27.7000  -18.7430  -14.0525 C   0  0  0  0  0  0  0  0  0  0  0  0
   27.8614  -18.7412  -15.5418 C   0  0  0  0  0  0  0  0  0  0  0  0
   28.6475  -17.9172  -16.0614 O   0  0  0  0  0  0  0  0  0  0  0  0
   29.5057  -22.8163  -17.9274 C   0  0  0  0  0  0  0  0  0  0  0  0
   29.0035  -21.4812  -17.5017 C   0  0  0  0  0  0  0  0  0  0  0  0
   27.8465  -20.9316  -18.2502 C   0  0  2  0  0  0  0  0  0  0  0  0
   27.9036  -21.1824  -19.7429 C   0  0  0  0  0  0  0  0  0  0  0  0
   27.3500  -19.5912  -17.8535 C   0  0  2  0  0  0  0  0  0  0  0  0
   27.1663  -19.6274  -16.3827 N   0  0  0  0  0  0  0  0  0  0  0  0
   26.1665  -19.0667  -18.5148 C   0  0  0  0  0  0  0  0  0  0  0  0
   24.9765  -19.4277  -18.2050 O   0  0  0  0  0  0  0  0  0  0  0  0
   26.2248  -18.1315  -19.5321 O   0  0  0  0  0  0  0  0  0  0  0  0
  1  2  1  0
  2  3  1  0
  3  5  1  0
  3  4  1  6
  5  6  1  1
  7  8  2  0
  7  5  1  0
  9  7  1  0
 10 11  1  0
 10  9  1  0
 11 18  1  0
 12 11  2  0
 14 13  1  0
 15 14  1  0
 15 16  1  6
 17 15  1  0
 17 18  1  1
 19 17  1  0
 19 21  1  0
 20 19  2  0
M  END
$$$$
