IGI.pdb
     RDKit          3D

 21 20  0  0  1  0  0  0  0  0999 V2000
   22.7823  -18.8046  -14.2200 C   0  0  0  0  0  0  0  0  0  0  0  0
   22.3734  -20.2015  -13.8912 C   0  0  0  0  0  0  0  0  0  0  0  0
   23.1099  -20.7992  -12.7059 C   0  0  2  0  0  0  0  0  0  0  0  0
   22.6768  -19.9890  -11.5021 C   0  0  0  0  0  0  0  0  0  0  0  0
   24.6192  -20.7385  -12.9126 C   0  0  2  0  0  0  0  0  0  0  0  0
   24.8742  -21.6505  -14.0325 N   0  0  0  0  0  0  0  0  0  0  0  0
   25.2690  -21.2988  -11.7037 C   0  0  0  0  0  0  0  0  0  0  0  0
   24.9428  -22.4834  -11.3505 O   0  0  0  0  0  0  0  0  0  0  0  0
   26.2216  -20.6220  -10.9152 N   0  0  0  0  0  0  0  0  0  0  0  0
   26.7099  -21.2518   -9.7055 C   0  0  0  0  0  0  0  0  0  0  0  0
   26.8481  -20.2372   -8.6121 C   0  0  0  0  0  0  0  0  0  0  0  0
   26.4245  -19.0762   -8.8108 O   0  0  0  0  0  0  0  0  0  0  0  0
   26.0804  -21.3382   -3.4206 C   0  0  0  0  0  0  0  0  0  0  0  0
   26.2503  -20.7327   -4.7698 C   0  0  0  0  0  0  0  0  0  0  0  0
   27.5434  -20.0587   -5.0429 C   0  0  2  0  0  0  0  0  0  0  0  0
   28.0576  -19.2226   -3.8893 C   0  0  0  0  0  0  0  0  0  0  0  0
   27.7334  -19.4635   -6.3882 C   0  0  2  0  0  0  0  0  0  0  0  0
   27.4344  -20.5339   -7.3696 N   0  0  0  0  0  0  0  0  0  0  0  0
   29.0015  -18.8193   -6.6885 C   0  0  0  0  0  0  0  0  0  0  0  0
   29.9839  -19.4339   -7.2357 O   0  0  0  0  0  0  0  0  0  0  0  0
   29.2535  -17.4879   -6.4118 O   0  0  0  0  0  0  0  0  0  0  0  0
  1  2  1  0
  2  3  1  0
  3  5  1  0
  3  4  1  1
  5  6  1  6
  7  8  2  0
  7  5  1  0
  9  7  1  0
 10 11  1  0
 10  9  1  0
 11 18  1  0
 12 11  2  0
 14 13  1  0
 15 14  1  0
 15 16  1  1
 17 15  1  0
 17 18  1  6
 19 17  1  0
 19 21  1  0
 20 19  2  0
M  END
$$$$
