IGI.pdb
     RDKit          3D

 21 20  0  0  1  0  0  0  0  0999 V2000
   30.7331  -21.2264  -11.2639 C   0  0  0  0  0  0  0  0  0  0  0  0
   29.2878  -21.2470  -10.8931 C   0  0  0  0  0  0  0  0  0  0  0  0
   28.3540  -20.8433  -12.0198 C   0  0  2  0  0  0  0  0  0  0  0  0
   28.8397  -19.4883  -12.4904 C   0  0  0  0  0  0  0  0  0  0  0  0
   26.9083  -20.7878  -11.5388 C   0  0  2  0  0  0  0  0  0  0  0  0
   26.6288  -22.1444  -11.0566 N   0  0  0  0  0  0  0  0  0  0  0  0
   26.0447  -20.5290  -12.7156 C   0  0  0  0  0  0  0  0  0  0  0  0
   25.5439  -19.3591  -12.8375 O   0  0  0  0  0  0  0  0  0  0  0  0
   25.7361  -21.4778  -13.7115 N   0  0  0  0  0  0  0  0  0  0  0  0
   24.7551  -21.1428  -14.7234 C   0  0  0  0  0  0  0  0  0  0  0  0
   23.3705  -21.3672  -14.1977 C   0  0  0  0  0  0  0  0  0  0  0  0
   22.9359  -22.5388  -14.1263 O   0  0  0  0  0  0  0  0  0  0  0  0
   22.4361  -20.2073   -9.5608 C   0  0  0  0  0  0  0  0  0  0  0  0
   22.3756  -20.6662  -10.9756 C   0  0  0  0  0  0  0  0  0  0  0  0
   21.2409  -20.1697  -11.7922 C   0  0  2  0  0  0  0  0  0  0  0  0
   19.9097  -20.1843  -11.0698 C   0  0  0  0  0  0  0  0  0  0  0  0
   21.1913  -20.5824  -13.2162 C   0  0  2  0  0  0  0  0  0  0  0  0
   22.5364  -20.3157  -13.7801 N   0  0  0  0  0  0  0  0  0  0  0  0
   20.1500  -20.0249  -14.0636 C   0  0  0  0  0  0  0  0  0  0  0  0
   20.2173  -18.8495  -14.5698 O   0  0  0  0  0  0  0  0  0  0  0  0
   19.0002  -20.7173  -14.3975 O   0  0  0  0  0  0  0  0  0  0  0  0
  1  2  1  0
  2  3  1  0
  3  5  1  0
  3  4  1  1
  5  6  1  6
  7  8  2  0
  7  5  1  0
  9  7  1  0
 10 11  1  0
 10  9  1  0
 11 18  1  0
 12 11  2  0
 14 13  1  0
 15 14  1  0
 15 16  1  1
 17 15  1  0
 17 18  1  6
 19 17  1  0
 19 21  1  0
 20 19  2  0
M  END
$$$$
