IGI.pdb
     RDKit          3D

 21 20  0  0  1  0  0  0  0  0999 V2000
   27.2383  -22.5794  -19.2671 C   0  0  0  0  0  0  0  0  0  0  0  0
   27.3436  -21.4014  -18.3571 C   0  0  0  0  0  0  0  0  0  0  0  0
   26.0164  -20.7258  -18.0633 C   0  0  2  0  0  0  0  0  0  0  0  0
   25.5512  -20.1432  -19.3814 C   0  0  0  0  0  0  0  0  0  0  0  0
   26.1752  -19.6488  -16.9960 C   0  0  2  0  0  0  0  0  0  0  0  0
   27.3280  -18.8582  -17.4398 N   0  0  0  0  0  0  0  0  0  0  0  0
   26.5361  -20.3169  -15.7227 C   0  0  0  0  0  0  0  0  0  0  0  0
   25.6510  -21.0541  -15.1684 O   0  0  0  0  0  0  0  0  0  0  0  0
   27.7846  -20.2002  -15.0785 N   0  0  0  0  0  0  0  0  0  0  0  0
   28.0231  -20.9522  -13.8636 C   0  0  0  0  0  0  0  0  0  0  0  0
   27.2710  -20.3428  -12.7205 C   0  0  0  0  0  0  0  0  0  0  0  0
   27.4732  -19.1399  -12.4394 O   0  0  0  0  0  0  0  0  0  0  0  0
   22.2873  -20.4404  -12.7871 C   0  0  0  0  0  0  0  0  0  0  0  0
   23.7168  -20.1773  -12.4655 C   0  0  0  0  0  0  0  0  0  0  0  0
   24.1792  -20.5614  -11.1092 C   0  0  2  0  0  0  0  0  0  0  0  0
   23.2540  -20.1183   -9.9948 C   0  0  0  0  0  0  0  0  0  0  0  0
   25.6276  -20.4289  -10.8178 C   0  0  2  0  0  0  0  0  0  0  0  0
   26.3456  -21.0658  -11.9480 N   0  0  0  0  0  0  0  0  0  0  0  0
   26.1254  -20.9163   -9.5419 C   0  0  0  0  0  0  0  0  0  0  0  0
   26.4125  -22.1470   -9.3292 O   0  0  0  0  0  0  0  0  0  0  0  0
   26.3342  -20.0923   -8.4510 O   0  0  0  0  0  0  0  0  0  0  0  0
  1  2  1  0
  2  3  1  0
  3  5  1  0
  3  4  1  6
  5  6  1  6
  7  8  2  0
  7  5  1  0
  9  7  1  0
 10 11  1  0
 10  9  1  0
 11 18  1  0
 12 11  2  0
 14 13  1  0
 15 14  1  0
 15 16  1  1
 17 15  1  0
 17 18  1  6
 19 17  1  0
 19 21  1  0
 20 19  2  0
M  END
$$$$
