IGI.pdb
     RDKit          3D

 21 20  0  0  1  0  0  0  0  0999 V2000
   20.0420  -16.9564  -19.3626 C   0  0  0  0  0  0  0  0  0  0  0  0
   19.5997  -15.5382  -19.5042 C   0  0  0  0  0  0  0  0  0  0  0  0
   20.1233  -14.6154  -18.4186 C   0  0  2  0  0  0  0  0  0  0  0  0
   19.5285  -15.1261  -17.1230 C   0  0  0  0  0  0  0  0  0  0  0  0
   19.7240  -13.1693  -18.6904 C   0  0  2  0  0  0  0  0  0  0  0  0
   20.3983  -12.8317  -19.9483 N   0  0  0  0  0  0  0  0  0  0  0  0
   20.3013  -12.3261  -17.6164 C   0  0  0  0  0  0  0  0  0  0  0  0
   19.7497  -12.3740  -16.4641 O   0  0  0  0  0  0  0  0  0  0  0  0
   21.4150  -11.4761  -17.7717 N   0  0  0  0  0  0  0  0  0  0  0  0
   21.9237  -10.7639  -16.6173 C   0  0  0  0  0  0  0  0  0  0  0  0
   21.0023   -9.6403  -16.2538 C   0  0  0  0  0  0  0  0  0  0  0  0
   20.1178   -9.2983  -17.0709 O   0  0  0  0  0  0  0  0  0  0  0  0
   18.5089   -9.3791  -11.4574 C   0  0  0  0  0  0  0  0  0  0  0  0
   19.5559   -8.9008  -12.4013 C   0  0  0  0  0  0  0  0  0  0  0  0
   19.1114   -8.5528  -13.7733 C   0  0  2  0  0  0  0  0  0  0  0  0
   18.2438   -9.6090  -14.4259 C   0  0  0  0  0  0  0  0  0  0  0  0
   20.1012   -7.9065  -14.6693 C   0  0  2  0  0  0  0  0  0  0  0  0
   21.0885   -8.9518  -15.0314 N   0  0  0  0  0  0  0  0  0  0  0  0
   20.7654   -6.6973  -14.2112 C   0  0  0  0  0  0  0  0  0  0  0  0
   20.1483   -5.5892  -14.0279 O   0  0  0  0  0  0  0  0  0  0  0  0
   22.1187   -6.6416  -13.9315 O   0  0  0  0  0  0  0  0  0  0  0  0
  1  2  1  0
  2  3  1  0
  3  5  1  0
  3  4  1  1
  5  6  1  6
  7  8  2  0
  7  5  1  0
  9  7  1  0
 10 11  1  0
 10  9  1  0
 11 18  1  0
 12 11  2  0
 14 13  1  0
 15 14  1  0
 15 16  1  6
 17 15  1  0
 17 18  1  1
 19 17  1  0
 19 21  1  0
 20 19  2  0
M  END
$$$$
