IGI.pdb
     RDKit          3D

 21 20  0  0  1  0  0  0  0  0999 V2000
   24.4810  -23.0847  -19.1728 C   0  0  0  0  0  0  0  0  0  0  0  0
   25.7649  -22.5209  -18.6623 C   0  0  0  0  0  0  0  0  0  0  0  0
   25.6164  -21.6826  -17.4055 C   0  0  2  0  0  0  0  0  0  0  0  0
   24.6140  -20.6008  -17.7492 C   0  0  0  0  0  0  0  0  0  0  0  0
   26.9566  -21.0941  -16.9790 C   0  0  2  0  0  0  0  0  0  0  0  0
   27.7819  -22.2604  -16.6479 N   0  0  0  0  0  0  0  0  0  0  0  0
   26.7390  -20.3148  -15.7368 C   0  0  0  0  0  0  0  0  0  0  0  0
   26.1664  -19.1768  -15.8436 O   0  0  0  0  0  0  0  0  0  0  0  0
   27.1159  -20.7369  -14.4457 N   0  0  0  0  0  0  0  0  0  0  0  0
   26.8833  -19.8546  -13.3205 C   0  0  0  0  0  0  0  0  0  0  0  0
   26.1270  -20.5733  -12.2456 C   0  0  0  0  0  0  0  0  0  0  0  0
   25.7184  -21.7349  -12.4705 O   0  0  0  0  0  0  0  0  0  0  0  0
   27.8511  -19.7731   -7.3606 C   0  0  0  0  0  0  0  0  0  0  0  0
   27.2346  -20.4088   -8.5572 C   0  0  0  0  0  0  0  0  0  0  0  0
   25.7542  -20.3714   -8.6468 C   0  0  2  0  0  0  0  0  0  0  0  0
   25.0493  -20.8985   -7.4141 C   0  0  0  0  0  0  0  0  0  0  0  0
   25.1377  -20.7562   -9.9400 C   0  0  2  0  0  0  0  0  0  0  0  0
   25.8559  -19.9977  -10.9923 N   0  0  0  0  0  0  0  0  0  0  0  0
   23.6981  -20.6207  -10.0891 C   0  0  0  0  0  0  0  0  0  0  0  0
   23.1399  -19.5557  -10.5326 O   0  0  0  0  0  0  0  0  0  0  0  0
   22.8096  -21.6307   -9.7679 O   0  0  0  0  0  0  0  0  0  0  0  0
  1  2  1  0
  2  3  1  0
  3  5  1  0
  3  4  1  6
  5  6  1  1
  7  8  2  0
  7  5  1  0
  9  7  1  0
 10 11  1  0
 10  9  1  0
 11 18  1  0
 12 11  2  0
 14 13  1  0
 15 14  1  0
 15 16  1  1
 17 15  1  0
 17 18  1  6
 19 17  1  0
 19 21  1  0
 20 19  2  0
M  END
$$$$
