IGI.pdb
     RDKit          3D

 21 20  0  0  1  0  0  0  0  0999 V2000
   28.8206  -20.7803  -13.2278 C   0  0  0  0  0  0  0  0  0  0  0  0
   27.4940  -20.1233  -13.4153 C   0  0  0  0  0  0  0  0  0  0  0  0
   26.6675  -20.0242  -12.1459 C   0  0  2  0  0  0  0  0  0  0  0  0
   27.6108  -19.5054  -11.0808 C   0  0  0  0  0  0  0  0  0  0  0  0
   26.0813  -21.3798  -11.7675 C   0  0  2  0  0  0  0  0  0  0  0  0
   25.2375  -21.7474  -12.9094 N   0  0  0  0  0  0  0  0  0  0  0  0
   25.2039  -21.1855  -10.5886 C   0  0  0  0  0  0  0  0  0  0  0  0
   24.1927  -20.4149  -10.7228 O   0  0  0  0  0  0  0  0  0  0  0  0
   25.4015  -21.7892   -9.3302 N   0  0  0  0  0  0  0  0  0  0  0  0
   24.5190  -21.4407   -8.2355 C   0  0  0  0  0  0  0  0  0  0  0  0
   25.2842  -20.7385   -7.1560 C   0  0  0  0  0  0  0  0  0  0  0  0
   24.6874  -20.4245   -6.1015 O   0  0  0  0  0  0  0  0  0  0  0  0
   29.8609  -22.0806   -5.0170 C   0  0  0  0  0  0  0  0  0  0  0  0
   28.5519  -21.4453   -5.3315 C   0  0  0  0  0  0  0  0  0  0  0  0
   28.5936  -20.0976   -5.9501 C   0  0  2  0  0  0  0  0  0  0  0  0
   29.5937  -19.1571   -5.3101 C   0  0  0  0  0  0  0  0  0  0  0  0
   27.2999  -19.4798   -6.3309 C   0  0  2  0  0  0  0  0  0  0  0  0
   26.6470  -20.4165   -7.2769 N   0  0  0  0  0  0  0  0  0  0  0  0
   27.3071  -18.1254   -6.8587 C   0  0  0  0  0  0  0  0  0  0  0  0
   27.4797  -17.0907   -6.1225 O   0  0  0  0  0  0  0  0  0  0  0  0
   27.1314  -17.8393   -8.2004 O   0  0  0  0  0  0  0  0  0  0  0  0
  1  2  1  0
  2  3  1  0
  3  5  1  0
  3  4  1  1
  5  6  1  6
  7  8  2  0
  7  5  1  0
  9  7  1  0
 10 11  1  0
 10  9  1  0
 11 18  1  0
 12 11  2  0
 14 13  1  0
 15 14  1  0
 15 16  1  1
 17 15  1  0
 17 18  1  6
 19 17  1  0
 19 21  1  0
 20 19  2  0
M  END
$$$$
