IGI.pdb
     RDKit          3D

 21 20  0  0  1  0  0  0  0  0999 V2000
   22.8331  -17.2015  -18.0584 C   0  0  0  0  0  0  0  0  0  0  0  0
   23.4362  -17.3376  -16.7002 C   0  0  0  0  0  0  0  0  0  0  0  0
   23.6569  -18.7742  -16.2622 C   0  0  2  0  0  0  0  0  0  0  0  0
   22.2965  -19.4366  -16.3254 C   0  0  0  0  0  0  0  0  0  0  0  0
   24.2477  -18.8334  -14.8579 C   0  0  2  0  0  0  0  0  0  0  0  0
   25.5547  -18.1794  -14.9809 N   0  0  0  0  0  0  0  0  0  0  0  0
   24.4745  -20.2582  -14.5171 C   0  0  0  0  0  0  0  0  0  0  0  0
   23.4543  -20.9629  -14.2058 O   0  0  0  0  0  0  0  0  0  0  0  0
   25.7326  -20.8940  -14.5124 N   0  0  0  0  0  0  0  0  0  0  0  0
   25.8164  -22.2865  -14.1222 C   0  0  0  0  0  0  0  0  0  0  0  0
   26.0061  -22.3993  -12.6405 C   0  0  0  0  0  0  0  0  0  0  0  0
   26.1404  -23.5366  -12.1353 O   0  0  0  0  0  0  0  0  0  0  0  0
   29.9900  -20.9513  -10.2231 C   0  0  0  0  0  0  0  0  0  0  0  0
   28.6656  -21.5467  -10.5511 C   0  0  0  0  0  0  0  0  0  0  0  0
   27.4754  -20.9133   -9.9321 C   0  0  2  0  0  0  0  0  0  0  0  0
   27.6408  -20.5995   -8.4596 C   0  0  0  0  0  0  0  0  0  0  0  0
   26.1428  -21.4366  -10.3205 C   0  0  2  0  0  0  0  0  0  0  0  0
   26.0399  -21.2798  -11.7912 N   0  0  0  0  0  0  0  0  0  0  0  0
   24.9668  -20.9010   -9.6547 C   0  0  0  0  0  0  0  0  0  0  0  0
   24.2612  -19.9494  -10.1435 O   0  0  0  0  0  0  0  0  0  0  0  0
   24.5084  -21.3753   -8.4391 O   0  0  0  0  0  0  0  0  0  0  0  0
  1  2  1  0
  2  3  1  0
  3  5  1  0
  3  4  1  1
  5  6  1  6
  7  8  2  0
  7  5  1  0
  9  7  1  0
 10 11  1  0
 10  9  1  0
 11 18  1  0
 12 11  2  0
 14 13  1  0
 15 14  1  0
 15 16  1  1
 17 15  1  0
 17 18  1  6
 19 17  1  0
 19 21  1  0
 20 19  2  0
M  END
$$$$
