FIS.pdb
     RDKit          3D

 26 26  0  0  1  0  0  0  0  0999 V2000
   28.4438  -20.5462  -15.6298 N   0  0  0  0  0  0  0  0  0  0  0  0
   27.6120  -19.6565  -14.8645 C   0  0  1  0  0  0  0  0  0  0  0  0
   26.8266  -18.7573  -15.7938 C   0  0  0  0  0  0  0  0  0  0  0  0
   27.6152  -17.6546  -16.3434 C   0  0  0  0  0  0  0  0  0  0  0  0
   28.1990  -17.8240  -17.5950 C   0  0  0  0  0  0  0  0  0  0  0  0
   28.9575  -16.8549  -18.2019 C   0  0  0  0  0  0  0  0  0  0  0  0
   29.1478  -15.6516  -17.5314 C   0  0  0  0  0  0  0  0  0  0  0  0
   28.5891  -15.4522  -16.3017 C   0  0  0  0  0  0  0  0  0  0  0  0
   27.8223  -16.4617  -15.7135 C   0  0  0  0  0  0  0  0  0  0  0  0
   26.6172  -20.4525  -14.0941 C   0  0  0  0  0  0  0  0  0  0  0  0
   26.2126  -21.5652  -14.5387 O   0  0  0  0  0  0  0  0  0  0  0  0
   26.4922  -20.7592   -8.5472 C   0  0  0  0  0  0  0  0  0  0  0  0
   26.3967  -21.0706  -10.0183 C   0  0  0  0  0  0  0  0  0  0  0  0
   25.1443  -20.6380  -10.6789 C   0  0  2  0  0  0  0  0  0  0  0  0
   23.9396  -21.3434  -10.0608 C   0  0  0  0  0  0  0  0  0  0  0  0
   25.0816  -20.7634  -12.1614 C   0  0  2  0  0  0  0  0  0  0  0  0
   26.0844  -20.0180  -12.8550 N   0  0  0  0  0  0  0  0  0  0  0  0
   23.7157  -20.5059  -12.7052 C   0  0  0  0  0  0  0  0  0  0  0  0
   23.2368  -19.3615  -12.7256 O   0  0  0  0  0  0  0  0  0  0  0  0
   21.4006  -23.6527  -14.3237 O   0  0  0  0  0  0  0  0  0  0  0  0
   21.2425  -22.3726  -14.8466 C   0  0  0  0  0  0  0  0  0  0  0  0
   21.5906  -21.3247  -13.8133 C   0  0  2  0  0  0  0  0  0  0  0  0
   22.8950  -21.5614  -13.2264 N   0  0  0  0  0  0  0  0  0  0  0  0
   20.5576  -21.4070  -12.7527 C   0  0  0  0  0  0  0  0  0  0  0  0
   20.8803  -21.8203  -11.6135 O   0  0  0  0  0  0  0  0  0  0  0  0
   19.2416  -21.0494  -12.9508 O   0  0  0  0  0  0  0  0  0  0  0  0
  2  1  1  6
  3  2  1  0
  4  5  2  0
  4  3  1  0
  6  5  1  0
  7  6  2  0
  8  7  1  0
  8  9  2  0
  9  4  1  0
 10 17  1  0
 10  2  1  0
 11 10  2  0
 13 12  1  0
 14 16  1  0
 14 13  1  0
 14 15  1  1
 16 17  1  6
 18 16  1  0
 19 18  2  0
 21 20  1  0
 22 21  1  6
 22 23  1  0
 23 18  1  0
 24 22  1  0
 25 24  2  0
 26 24  1  0
M  END
$$$$
