FIS.pdb
     RDKit          3D

 26 26  0  0  1  0  0  0  0  0999 V2000
   22.4427   -9.2684  -20.2852 N   0  0  0  0  0  0  0  0  0  0  0  0
   22.9570   -8.2775  -19.3782 C   0  0  1  0  0  0  0  0  0  0  0  0
   22.7685   -6.8950  -19.9634 C   0  0  0  0  0  0  0  0  0  0  0  0
   23.6118   -6.6354  -21.1301 C   0  0  0  0  0  0  0  0  0  0  0  0
   23.0751   -5.8919  -22.1766 C   0  0  0  0  0  0  0  0  0  0  0  0
   23.7785   -5.5910  -23.3158 C   0  0  0  0  0  0  0  0  0  0  0  0
   25.0859   -6.0525  -23.4235 C   0  0  0  0  0  0  0  0  0  0  0  0
   25.6434   -6.7847  -22.4152 C   0  0  0  0  0  0  0  0  0  0  0  0
   24.8973   -7.0723  -21.2690 C   0  0  0  0  0  0  0  0  0  0  0  0
   22.1770   -8.3175  -18.1106 C   0  0  0  0  0  0  0  0  0  0  0  0
   20.9964   -8.7712  -18.1053 O   0  0  0  0  0  0  0  0  0  0  0  0
   23.9850  -10.8332  -14.0028 C   0  0  0  0  0  0  0  0  0  0  0  0
   23.1051  -10.1349  -15.0069 C   0  0  0  0  0  0  0  0  0  0  0  0
   22.6310   -8.7901  -14.6089 C   0  0  2  0  0  0  0  0  0  0  0  0
   21.7244   -8.8809  -13.3837 C   0  0  0  0  0  0  0  0  0  0  0  0
   21.9628   -7.9693  -15.6564 C   0  0  2  0  0  0  0  0  0  0  0  0
   22.7010   -7.8618  -16.8754 N   0  0  0  0  0  0  0  0  0  0  0  0
   21.5198   -6.6368  -15.1505 C   0  0  0  0  0  0  0  0  0  0  0  0
   22.2122   -5.9905  -14.3491 O   0  0  0  0  0  0  0  0  0  0  0  0
   19.0778   -4.4222  -17.4014 O   0  0  0  0  0  0  0  0  0  0  0  0
   19.7472   -3.7860  -16.3602 C   0  0  0  0  0  0  0  0  0  0  0  0
   19.8809   -4.7060  -15.1674 C   0  0  2  0  0  0  0  0  0  0  0  0
   20.2800   -6.0427  -15.5621 N   0  0  0  0  0  0  0  0  0  0  0  0
   18.5482   -4.7672  -14.5203 C   0  0  0  0  0  0  0  0  0  0  0  0
   17.9477   -5.8664  -14.4561 O   0  0  0  0  0  0  0  0  0  0  0  0
   17.9215   -3.6671  -13.9763 O   0  0  0  0  0  0  0  0  0  0  0  0
  2  1  1  6
  3  2  1  0
  4  5  2  0
  4  3  1  0
  6  5  1  0
  7  6  2  0
  8  7  1  0
  8  9  2  0
  9  4  1  0
 10 17  1  0
 10  2  1  0
 11 10  2  0
 13 12  1  0
 14 16  1  0
 14 13  1  0
 14 15  1  1
 16 17  1  6
 18 16  1  0
 19 18  2  0
 21 20  1  0
 22 21  1  6
 22 23  1  0
 23 18  1  0
 24 22  1  0
 25 24  2  0
 26 24  1  0
M  END
$$$$
