FIS.pdb
     RDKit          3D

 26 26  0  0  1  0  0  0  0  0999 V2000
   23.2276  -10.5165  -17.6560 N   0  0  0  0  0  0  0  0  0  0  0  0
   22.3894   -9.6802  -16.8393 C   0  0  1  0  0  0  0  0  0  0  0  0
   23.2430   -8.7362  -16.0210 C   0  0  0  0  0  0  0  0  0  0  0  0
   24.5738   -9.2644  -15.7211 C   0  0  0  0  0  0  0  0  0  0  0  0
   24.6782  -10.2933  -14.7903 C   0  0  0  0  0  0  0  0  0  0  0  0
   25.8764  -10.8604  -14.4361 C   0  0  0  0  0  0  0  0  0  0  0  0
   27.0350  -10.3813  -15.0377 C   0  0  0  0  0  0  0  0  0  0  0  0
   26.9685   -9.3726  -15.9553 C   0  0  0  0  0  0  0  0  0  0  0  0
   25.7305   -8.8184  -16.2920 C   0  0  0  0  0  0  0  0  0  0  0  0
   21.5331   -8.8346  -17.7159 C   0  0  0  0  0  0  0  0  0  0  0  0
   21.9577   -8.4580  -18.8462 O   0  0  0  0  0  0  0  0  0  0  0  0
   17.2327  -10.6349  -19.1681 C   0  0  0  0  0  0  0  0  0  0  0  0
   18.2926   -9.5925  -19.4128 C   0  0  0  0  0  0  0  0  0  0  0  0
   18.1485   -8.3444  -18.6295 C   0  0  2  0  0  0  0  0  0  0  0  0
   17.2413   -7.3553  -19.3572 C   0  0  0  0  0  0  0  0  0  0  0  0
   19.4020   -7.6533  -18.2189 C   0  0  2  0  0  0  0  0  0  0  0  0
   20.2316   -8.4175  -17.3414 N   0  0  0  0  0  0  0  0  0  0  0  0
   19.1580   -6.2751  -17.7003 C   0  0  0  0  0  0  0  0  0  0  0  0
   18.8019   -5.3574  -18.4555 O   0  0  0  0  0  0  0  0  0  0  0  0
   18.6626   -5.5951  -13.6907 O   0  0  0  0  0  0  0  0  0  0  0  0
   18.3154   -4.5626  -14.5569 C   0  0  0  0  0  0  0  0  0  0  0  0
   19.1716   -4.5975  -15.8030 C   0  0  2  0  0  0  0  0  0  0  0  0
   19.3230   -5.9460  -16.3133 N   0  0  0  0  0  0  0  0  0  0  0  0
   20.5038   -4.0681  -15.4240 C   0  0  0  0  0  0  0  0  0  0  0  0
   21.5168   -4.7920  -15.5752 O   0  0  0  0  0  0  0  0  0  0  0  0
   20.6956   -2.8054  -14.9066 O   0  0  0  0  0  0  0  0  0  0  0  0
  2  1  1  6
  3  2  1  0
  4  5  2  0
  4  3  1  0
  6  5  1  0
  7  6  2  0
  8  7  1  0
  8  9  2  0
  9  4  1  0
 10 17  1  0
 10  2  1  0
 11 10  2  0
 13 12  1  0
 14 16  1  0
 14 13  1  0
 14 15  1  6
 16 17  1  1
 18 16  1  0
 19 18  2  0
 21 20  1  0
 22 21  1  1
 22 23  1  0
 23 18  1  0
 24 22  1  0
 25 24  2  0
 26 24  1  0
M  END
$$$$
