FIS.pdb
     RDKit          3D

 26 26  0  0  1  0  0  0  0  0999 V2000
   27.5605  -21.8934   -8.7766 N   0  0  0  0  0  0  0  0  0  0  0  0
   26.8117  -20.6703   -8.8886 C   0  0  1  0  0  0  0  0  0  0  0  0
   27.6486  -19.5068   -8.4036 C   0  0  0  0  0  0  0  0  0  0  0  0
   27.7991  -19.4625   -6.9492 C   0  0  0  0  0  0  0  0  0  0  0  0
   28.6310  -18.4895   -6.4040 C   0  0  0  0  0  0  0  0  0  0  0  0
   28.8427  -18.3596   -5.0544 C   0  0  0  0  0  0  0  0  0  0  0  0
   28.1940  -19.2428   -4.1982 C   0  0  0  0  0  0  0  0  0  0  0  0
   27.3707  -20.2094   -4.6999 C   0  0  0  0  0  0  0  0  0  0  0  0
   27.1784  -20.3124   -6.0803 C   0  0  0  0  0  0  0  0  0  0  0  0
   26.5039  -20.4103  -10.3219 C   0  0  0  0  0  0  0  0  0  0  0  0
   27.4426  -20.2491  -11.1540 O   0  0  0  0  0  0  0  0  0  0  0  0
   25.8710  -22.7041  -15.1244 C   0  0  0  0  0  0  0  0  0  0  0  0
   25.1988  -21.5601  -14.4106 C   0  0  0  0  0  0  0  0  0  0  0  0
   25.3707  -21.5404  -12.9402 C   0  0  2  0  0  0  0  0  0  0  0  0
   24.7444  -22.7818  -12.3094 C   0  0  0  0  0  0  0  0  0  0  0  0
   24.8955  -20.3278  -12.2183 C   0  0  2  0  0  0  0  0  0  0  0  0
   25.1787  -20.3317  -10.8175 N   0  0  0  0  0  0  0  0  0  0  0  0
   23.4640  -20.0125  -12.4995 C   0  0  0  0  0  0  0  0  0  0  0  0
   22.5632  -20.3648  -11.7224 O   0  0  0  0  0  0  0  0  0  0  0  0
   22.3598  -17.0737  -15.2776 O   0  0  0  0  0  0  0  0  0  0  0  0
   21.5401  -18.1982  -15.2551 C   0  0  0  0  0  0  0  0  0  0  0  0
   21.6823  -18.9391  -13.9444 C   0  0  2  0  0  0  0  0  0  0  0  0
   23.0621  -19.2928  -13.6742 N   0  0  0  0  0  0  0  0  0  0  0  0
   20.8763  -20.1783  -14.0615 C   0  0  0  0  0  0  0  0  0  0  0  0
   19.7071  -20.1942  -13.6081 O   0  0  0  0  0  0  0  0  0  0  0  0
   21.3464  -21.3323  -14.6499 O   0  0  0  0  0  0  0  0  0  0  0  0
  2  1  1  6
  3  2  1  0
  4  5  2  0
  4  3  1  0
  6  5  1  0
  7  6  2  0
  8  7  1  0
  8  9  2  0
  9  4  1  0
 10 17  1  0
 10  2  1  0
 11 10  2  0
 13 12  1  0
 14 16  1  0
 14 13  1  0
 14 15  1  1
 16 17  1  1
 18 16  1  0
 19 18  2  0
 21 20  1  0
 22 21  1  6
 22 23  1  0
 23 18  1  0
 24 22  1  0
 25 24  2  0
 26 24  1  0
M  END
$$$$
