FIS.pdb
     RDKit          3D

 26 26  0  0  1  0  0  0  0  0999 V2000
   20.5597  -20.4606  -12.5697 N   0  0  0  0  0  0  0  0  0  0  0  0
   21.4472  -21.1182  -13.4911 C   0  0  1  0  0  0  0  0  0  0  0  0
   20.9409  -20.9465  -14.9066 C   0  0  0  0  0  0  0  0  0  0  0  0
   19.7348  -21.7230  -15.1931 C   0  0  0  0  0  0  0  0  0  0  0  0
   19.8807  -23.0685  -15.5160 C   0  0  0  0  0  0  0  0  0  0  0  0
   18.8170  -23.8869  -15.8019 C   0  0  0  0  0  0  0  0  0  0  0  0
   17.5383  -23.3415  -15.7658 C   0  0  0  0  0  0  0  0  0  0  0  0
   17.3594  -22.0247  -15.4527 C   0  0  0  0  0  0  0  0  0  0  0  0
   18.4660  -21.2206  -15.1669 C   0  0  0  0  0  0  0  0  0  0  0  0
   22.7866  -20.4708  -13.4323 C   0  0  0  0  0  0  0  0  0  0  0  0
   22.8811  -19.2201  -13.2702 O   0  0  0  0  0  0  0  0  0  0  0  0
   26.7051  -21.3482  -10.0667 C   0  0  0  0  0  0  0  0  0  0  0  0
   25.7278  -20.8916  -11.1186 C   0  0  0  0  0  0  0  0  0  0  0  0
   26.2059  -20.9925  -12.5161 C   0  0  2  0  0  0  0  0  0  0  0  0
   27.5381  -20.2653  -12.6819 C   0  0  0  0  0  0  0  0  0  0  0  0
   25.2685  -20.5536  -13.5867 C   0  0  2  0  0  0  0  0  0  0  0  0
   23.9951  -21.2013  -13.5516 N   0  0  0  0  0  0  0  0  0  0  0  0
   25.8828  -20.5990  -14.9462 C   0  0  0  0  0  0  0  0  0  0  0  0
   26.3579  -21.6505  -15.4024 O   0  0  0  0  0  0  0  0  0  0  0  0
   25.9894  -17.1399  -17.2760 O   0  0  0  0  0  0  0  0  0  0  0  0
   25.9187  -18.3394  -17.9782 C   0  0  0  0  0  0  0  0  0  0  0  0
   26.4569  -19.4810  -17.1450 C   0  0  2  0  0  0  0  0  0  0  0  0
   25.9544  -19.4374  -15.7857 N   0  0  0  0  0  0  0  0  0  0  0  0
   27.9327  -19.3386  -17.1230 C   0  0  0  0  0  0  0  0  0  0  0  0
   28.5879  -19.5842  -18.1638 O   0  0  0  0  0  0  0  0  0  0  0  0
   28.6370  -18.9454  -16.0057 O   0  0  0  0  0  0  0  0  0  0  0  0
  2  1  1  1
  3  2  1  0
  4  5  2  0
  4  3  1  0
  6  5  1  0
  7  6  2  0
  8  7  1  0
  8  9  2  0
  9  4  1  0
 10 17  1  0
 10  2  1  0
 11 10  2  0
 13 12  1  0
 14 16  1  0
 14 13  1  0
 14 15  1  1
 16 17  1  6
 18 16  1  0
 19 18  2  0
 21 20  1  0
 22 21  1  6
 22 23  1  0
 23 18  1  0
 24 22  1  0
 25 24  2  0
 26 24  1  0
M  END
$$$$
