FIS.pdb
     RDKit          3D

 26 26  0  0  1  0  0  0  0  0999 V2000
   13.9055  -15.6696    4.9302 N   0  0  0  0  0  0  0  0  0  0  0  0
   15.0656  -16.1688    4.2416 C   0  0  1  0  0  0  0  0  0  0  0  0
   16.3112  -15.4944    4.7736 C   0  0  0  0  0  0  0  0  0  0  0  0
   17.4298  -15.5079    3.8311 C   0  0  0  0  0  0  0  0  0  0  0  0
   18.0113  -14.2925    3.4838 C   0  0  0  0  0  0  0  0  0  0  0  0
   19.0643  -14.1918    2.6098 C   0  0  0  0  0  0  0  0  0  0  0  0
   19.5688  -15.3602    2.0492 C   0  0  0  0  0  0  0  0  0  0  0  0
   19.0217  -16.5696    2.3684 C   0  0  0  0  0  0  0  0  0  0  0  0
   17.9497  -16.6345    3.2625 C   0  0  0  0  0  0  0  0  0  0  0  0
   15.2139  -17.6243    4.5173 C   0  0  0  0  0  0  0  0  0  0  0  0
   14.9523  -18.0831    5.6665 O   0  0  0  0  0  0  0  0  0  0  0  0
   15.1539  -21.5661    0.3698 C   0  0  0  0  0  0  0  0  0  0  0  0
   14.8771  -20.8203    1.6493 C   0  0  0  0  0  0  0  0  0  0  0  0
   15.9906  -20.7981    2.6249 C   0  0  2  0  0  0  0  0  0  0  0  0
   16.3472  -22.2157    3.0654 C   0  0  0  0  0  0  0  0  0  0  0  0
   15.8211  -19.9364    3.8275 C   0  0  2  0  0  0  0  0  0  0  0  0
   15.6446  -18.5491    3.5336 N   0  0  0  0  0  0  0  0  0  0  0  0
   16.8821  -20.1613    4.8529 C   0  0  0  0  0  0  0  0  0  0  0  0
   18.0121  -19.6642    4.7288 O   0  0  0  0  0  0  0  0  0  0  0  0
   18.0479  -21.2929    9.4013 O   0  0  0  0  0  0  0  0  0  0  0  0
   17.0626  -21.1070    8.4361 C   0  0  0  0  0  0  0  0  0  0  0  0
   17.6562  -21.1632    7.0463 C   0  0  2  0  0  0  0  0  0  0  0  0
   16.6495  -20.9581    6.0235 N   0  0  0  0  0  0  0  0  0  0  0  0
   18.2456  -22.5143    6.8851 C   0  0  0  0  0  0  0  0  0  0  0  0
   17.5832  -23.4067    6.3039 O   0  0  0  0  0  0  0  0  0  0  0  0
   19.5003  -22.8508    7.3449 O   0  0  0  0  0  0  0  0  0  0  0  0
  2  1  1  1
  3  2  1  0
  4  5  2  0
  4  3  1  0
  6  5  1  0
  7  6  2  0
  8  7  1  0
  8  9  2  0
  9  4  1  0
 10 17  1  0
 10  2  1  0
 11 10  2  0
 13 12  1  0
 14 16  1  0
 14 13  1  0
 14 15  1  1
 16 17  1  6
 18 16  1  0
 19 18  2  0
 21 20  1  0
 22 21  1  1
 22 23  1  0
 23 18  1  0
 24 22  1  0
 25 24  2  0
 26 24  1  0
M  END
$$$$
