FIS.pdb
     RDKit          3D

 26 26  0  0  1  0  0  0  0  0999 V2000
   27.8406  -19.3108  -16.4426 N   0  0  0  0  0  0  0  0  0  0  0  0
   27.2394  -18.6966  -15.2892 C   0  0  1  0  0  0  0  0  0  0  0  0
   26.2950  -17.5972  -15.7234 C   0  0  0  0  0  0  0  0  0  0  0  0
   26.9786  -16.3921  -16.1924 C   0  0  0  0  0  0  0  0  0  0  0  0
   27.4139  -15.4721  -15.2437 C   0  0  0  0  0  0  0  0  0  0  0  0
   28.0648  -14.3103  -15.5745 C   0  0  0  0  0  0  0  0  0  0  0  0
   28.2972  -14.0459  -16.9199 C   0  0  0  0  0  0  0  0  0  0  0  0
   27.8834  -14.9274  -17.8768 C   0  0  0  0  0  0  0  0  0  0  0  0
   27.2231  -16.1011  -17.5033 C   0  0  0  0  0  0  0  0  0  0  0  0
   26.4195  -19.7061  -14.5644 C   0  0  0  0  0  0  0  0  0  0  0  0
   25.9667  -20.7154  -15.1775 O   0  0  0  0  0  0  0  0  0  0  0  0
   25.1942  -21.8361   -8.8411 C   0  0  0  0  0  0  0  0  0  0  0  0
   24.8608  -21.7329  -10.3068 C   0  0  0  0  0  0  0  0  0  0  0  0
   25.6267  -20.7156  -11.0621 C   0  0  2  0  0  0  0  0  0  0  0  0
   25.5281  -19.3532  -10.3801 C   0  0  0  0  0  0  0  0  0  0  0  0
   25.3110  -20.5659  -12.5096 C   0  0  2  0  0  0  0  0  0  0  0  0
   26.1107  -19.5937  -13.1859 N   0  0  0  0  0  0  0  0  0  0  0  0
   23.8538  -20.3685  -12.7652 C   0  0  0  0  0  0  0  0  0  0  0  0
   23.3481  -19.2356  -12.7625 O   0  0  0  0  0  0  0  0  0  0  0  0
   21.4705  -23.6147  -13.9806 O   0  0  0  0  0  0  0  0  0  0  0  0
   21.1549  -22.3343  -14.4255 C   0  0  0  0  0  0  0  0  0  0  0  0
   21.5882  -21.2943  -13.4167 C   0  0  2  0  0  0  0  0  0  0  0  0
   22.9725  -21.4711  -13.0236 N   0  0  0  0  0  0  0  0  0  0  0  0
   20.7193  -21.4614  -12.2268 C   0  0  0  0  0  0  0  0  0  0  0  0
   21.2292  -21.8317  -11.1425 O   0  0  0  0  0  0  0  0  0  0  0  0
   19.3611  -21.2292  -12.2448 O   0  0  0  0  0  0  0  0  0  0  0  0
  2  1  1  6
  3  2  1  0
  4  5  2  0
  4  3  1  0
  6  5  1  0
  7  6  2  0
  8  7  1  0
  8  9  2  0
  9  4  1  0
 10 17  1  0
 10  2  1  0
 11 10  2  0
 13 12  1  0
 14 16  1  0
 14 13  1  0
 14 15  1  1
 16 17  1  1
 18 16  1  0
 19 18  2  0
 21 20  1  0
 22 21  1  6
 22 23  1  0
 23 18  1  0
 24 22  1  0
 25 24  2  0
 26 24  1  0
M  END
$$$$
