FIS.pdb
     RDKit          3D

 26 26  0  0  1  0  0  0  0  0999 V2000
   16.1585  -16.2537    4.2589 N   0  0  0  0  0  0  0  0  0  0  0  0
   17.2992  -15.7042    4.9415 C   0  0  1  0  0  0  0  0  0  0  0  0
   16.8788  -14.5097    5.7696 C   0  0  0  0  0  0  0  0  0  0  0  0
   17.9197  -13.4893    5.8924 C   0  0  0  0  0  0  0  0  0  0  0  0
   18.3828  -13.1728    7.1658 C   0  0  0  0  0  0  0  0  0  0  0  0
   19.3554  -12.2320    7.3936 C   0  0  0  0  0  0  0  0  0  0  0  0
   19.8990  -11.5685    6.2990 C   0  0  0  0  0  0  0  0  0  0  0  0
   19.4675  -11.8549    5.0358 C   0  0  0  0  0  0  0  0  0  0  0  0
   18.4749  -12.8191    4.8411 C   0  0  0  0  0  0  0  0  0  0  0  0
   17.8404  -16.7159    5.8903 C   0  0  0  0  0  0  0  0  0  0  0  0
   17.2998  -17.8558    5.9799 O   0  0  0  0  0  0  0  0  0  0  0  0
   23.0362  -16.0183    7.6793 C   0  0  0  0  0  0  0  0  0  0  0  0
   21.9319  -16.9311    7.2130 C   0  0  0  0  0  0  0  0  0  0  0  0
   20.8206  -17.1246    8.1719 C   0  0  2  0  0  0  0  0  0  0  0  0
   21.1948  -18.1646    9.2251 C   0  0  0  0  0  0  0  0  0  0  0  0
   19.4850  -17.4573    7.6037 C   0  0  2  0  0  0  0  0  0  0  0  0
   18.9599  -16.4631    6.7215 N   0  0  0  0  0  0  0  0  0  0  0  0
   18.4968  -17.8579    8.6481 C   0  0  0  0  0  0  0  0  0  0  0  0
   17.9943  -17.0202    9.4130 O   0  0  0  0  0  0  0  0  0  0  0  0
   16.0157  -21.0122    8.2170 O   0  0  0  0  0  0  0  0  0  0  0  0
   15.8093  -20.0542    9.2052 C   0  0  0  0  0  0  0  0  0  0  0  0
   17.1227  -19.6308    9.8240 C   0  0  2  0  0  0  0  0  0  0  0  0
   18.0832  -19.2214    8.8182 N   0  0  0  0  0  0  0  0  0  0  0  0
   17.6534  -20.8077   10.5533 C   0  0  0  0  0  0  0  0  0  0  0  0
   18.7149  -21.3463   10.1581 O   0  0  0  0  0  0  0  0  0  0  0  0
   17.0367  -21.3524   11.6587 O   0  0  0  0  0  0  0  0  0  0  0  0
  2  1  1  1
  3  2  1  0
  4  5  2  0
  4  3  1  0
  6  5  1  0
  7  6  2  0
  8  7  1  0
  8  9  2  0
  9  4  1  0
 10 17  1  0
 10  2  1  0
 11 10  2  0
 13 12  1  0
 14 16  1  0
 14 13  1  0
 14 15  1  1
 16 17  1  1
 18 16  1  0
 19 18  2  0
 21 20  1  0
 22 21  1  6
 22 23  1  0
 23 18  1  0
 24 22  1  0
 25 24  2  0
 26 24  1  0
M  END
$$$$
