FIS.pdb
     RDKit          3D

 26 26  0  0  1  0  0  0  0  0999 V2000
   23.5636  -21.1904  -16.1425 N   0  0  0  0  0  0  0  0  0  0  0  0
   23.6819  -20.1887  -15.1169 C   0  0  1  0  0  0  0  0  0  0  0  0
   22.3070  -19.7660  -14.6476 C   0  0  0  0  0  0  0  0  0  0  0  0
   21.5798  -18.9569  -15.6254 C   0  0  0  0  0  0  0  0  0  0  0  0
   20.5795  -19.5708  -16.3727 C   0  0  0  0  0  0  0  0  0  0  0  0
   19.8372  -18.9051  -17.3155 C   0  0  0  0  0  0  0  0  0  0  0  0
   20.1010  -17.5565  -17.5292 C   0  0  0  0  0  0  0  0  0  0  0  0
   21.0757  -16.9232  -16.8132 C   0  0  0  0  0  0  0  0  0  0  0  0
   21.8122  -17.6327  -15.8609 C   0  0  0  0  0  0  0  0  0  0  0  0
   24.3785  -20.7713  -13.9371 C   0  0  0  0  0  0  0  0  0  0  0  0
   24.1205  -21.9526  -13.5664 O   0  0  0  0  0  0  0  0  0  0  0  0
   29.7363  -20.3797  -13.1069 C   0  0  0  0  0  0  0  0  0  0  0  0
   28.2700  -20.7161  -13.1901 C   0  0  0  0  0  0  0  0  0  0  0  0
   27.4662  -20.3504  -12.0018 C   0  0  2  0  0  0  0  0  0  0  0  0
   28.0523  -20.9825  -10.7416 C   0  0  0  0  0  0  0  0  0  0  0  0
   26.0048  -20.6305  -12.0595 C   0  0  2  0  0  0  0  0  0  0  0  0
   25.3420  -20.0530  -13.1861 N   0  0  0  0  0  0  0  0  0  0  0  0
   25.3062  -20.3184  -10.7779 C   0  0  0  0  0  0  0  0  0  0  0  0
   24.9906  -19.1550  -10.4842 O   0  0  0  0  0  0  0  0  0  0  0  0
   23.1015  -21.9731   -6.7322 O   0  0  0  0  0  0  0  0  0  0  0  0
   23.6679  -22.2684   -7.9686 C   0  0  0  0  0  0  0  0  0  0  0  0
   24.3529  -21.0514   -8.5490 C   0  0  2  0  0  0  0  0  0  0  0  0
   24.9687  -21.3408   -9.8292 N   0  0  0  0  0  0  0  0  0  0  0  0
   25.4037  -20.6483   -7.5836 C   0  0  0  0  0  0  0  0  0  0  0  0
   26.5686  -21.0909   -7.7251 O   0  0  0  0  0  0  0  0  0  0  0  0
   25.1694  -19.8012   -6.5222 O   0  0  0  0  0  0  0  0  0  0  0  0
  2  1  1  6
  3  2  1  0
  4  5  2  0
  4  3  1  0
  6  5  1  0
  7  6  2  0
  8  7  1  0
  8  9  2  0
  9  4  1  0
 10 17  1  0
 10  2  1  0
 11 10  2  0
 13 12  1  0
 14 16  1  0
 14 13  1  0
 14 15  1  1
 16 17  1  6
 18 16  1  0
 19 18  2  0
 21 20  1  0
 22 21  1  1
 22 23  1  0
 23 18  1  0
 24 22  1  0
 25 24  2  0
 26 24  1  0
M  END
$$$$
