FIS.pdb
     RDKit          3D

 26 26  0  0  1  0  0  0  0  0999 V2000
   28.4130  -21.5461   -9.1543 N   0  0  0  0  0  0  0  0  0  0  0  0
   27.1144  -20.9288   -9.1950 C   0  0  1  0  0  0  0  0  0  0  0  0
   27.1617  -19.5820   -8.5071 C   0  0  0  0  0  0  0  0  0  0  0  0
   27.5043  -19.6636   -7.0873 C   0  0  0  0  0  0  0  0  0  0  0  0
   28.6240  -18.9689   -6.6404 C   0  0  0  0  0  0  0  0  0  0  0  0
   29.0339  -18.9773   -5.3309 C   0  0  0  0  0  0  0  0  0  0  0  0
   28.2931  -19.7150   -4.4139 C   0  0  0  0  0  0  0  0  0  0  0  0
   27.1889  -20.4083   -4.8187 C   0  0  0  0  0  0  0  0  0  0  0  0
   26.8006  -20.3770   -6.1607 C   0  0  0  0  0  0  0  0  0  0  0  0
   26.7337  -20.6746  -10.6117 C   0  0  0  0  0  0  0  0  0  0  0  0
   27.5639  -20.1491  -11.4081 O   0  0  0  0  0  0  0  0  0  0  0  0
   24.9910  -23.4345  -15.4371 C   0  0  0  0  0  0  0  0  0  0  0  0
   24.9200  -22.1110  -14.7207 C   0  0  0  0  0  0  0  0  0  0  0  0
   25.1125  -22.1718  -13.2540 C   0  0  2  0  0  0  0  0  0  0  0  0
   24.0694  -23.0837  -12.6127 C   0  0  0  0  0  0  0  0  0  0  0  0
   25.1515  -20.8760  -12.5211 C   0  0  2  0  0  0  0  0  0  0  0  0
   25.4554  -20.9990  -11.1302 N   0  0  0  0  0  0  0  0  0  0  0  0
   23.9361  -20.0424  -12.7574 C   0  0  0  0  0  0  0  0  0  0  0  0
   22.9787  -20.0631  -11.9686 O   0  0  0  0  0  0  0  0  0  0  0  0
   23.7680  -17.7817  -16.1802 O   0  0  0  0  0  0  0  0  0  0  0  0
   22.8829  -17.3289  -15.2063 C   0  0  0  0  0  0  0  0  0  0  0  0
   22.6241  -18.4045  -14.1753 C   0  0  2  0  0  0  0  0  0  0  0  0
   23.8158  -19.1832  -13.9005 N   0  0  0  0  0  0  0  0  0  0  0  0
   21.5796  -19.2951  -14.7362 C   0  0  0  0  0  0  0  0  0  0  0  0
   21.8994  -20.4410  -15.1330 O   0  0  0  0  0  0  0  0  0  0  0  0
   20.2557  -18.9294  -14.8481 O   0  0  0  0  0  0  0  0  0  0  0  0
  2  1  1  6
  3  2  1  0
  4  5  2  0
  4  3  1  0
  6  5  1  0
  7  6  2  0
  8  7  1  0
  8  9  2  0
  9  4  1  0
 10 17  1  0
 10  2  1  0
 11 10  2  0
 13 12  1  0
 14 16  1  0
 14 13  1  0
 14 15  1  1
 16 17  1  1
 18 16  1  0
 19 18  2  0
 21 20  1  0
 22 21  1  6
 22 23  1  0
 23 18  1  0
 24 22  1  0
 25 24  2  0
 26 24  1  0
M  END
$$$$
