FIS.pdb
     RDKit          3D

 26 26  0  0  1  0  0  0  0  0999 V2000
   27.5861  -13.1699  -17.0258 N   0  0  0  0  0  0  0  0  0  0  0  0
   27.0095  -12.2795  -16.0543 C   0  0  1  0  0  0  0  0  0  0  0  0
   28.0716  -11.3465  -15.5150 C   0  0  0  0  0  0  0  0  0  0  0  0
   28.8396  -10.6703  -16.5603 C   0  0  0  0  0  0  0  0  0  0  0  0
   29.9506  -11.3226  -17.0858 C   0  0  0  0  0  0  0  0  0  0  0  0
   30.7396  -10.7791  -18.0682 C   0  0  0  0  0  0  0  0  0  0  0  0
   30.4091   -9.5197  -18.5566 C   0  0  0  0  0  0  0  0  0  0  0  0
   29.3255   -8.8519  -18.0631 C   0  0  0  0  0  0  0  0  0  0  0  0
   28.5441   -9.4360  -17.0625 C   0  0  0  0  0  0  0  0  0  0  0  0
   25.9836  -11.4265  -16.7152 C   0  0  0  0  0  0  0  0  0  0  0  0
   25.8565  -11.4456  -17.9733 O   0  0  0  0  0  0  0  0  0  0  0  0
   21.3836  -11.7329  -15.1453 C   0  0  0  0  0  0  0  0  0  0  0  0
   22.0649  -11.1318  -16.3472 C   0  0  0  0  0  0  0  0  0  0  0  0
   22.7767   -9.8569  -16.1020 C   0  0  2  0  0  0  0  0  0  0  0  0
   21.9408   -8.6737  -16.5840 C   0  0  0  0  0  0  0  0  0  0  0  0
   24.1587   -9.7370  -16.6434 C   0  0  2  0  0  0  0  0  0  0  0  0
   25.1180  -10.5706  -15.9898 N   0  0  0  0  0  0  0  0  0  0  0  0
   24.6202   -8.3208  -16.7396 C   0  0  0  0  0  0  0  0  0  0  0  0
   25.0425   -7.7130  -15.7438 O   0  0  0  0  0  0  0  0  0  0  0  0
   25.7551   -4.5468  -19.6587 O   0  0  0  0  0  0  0  0  0  0  0  0
   25.1941   -5.8162  -19.5549 C   0  0  0  0  0  0  0  0  0  0  0  0
   25.1003   -6.2441  -18.1074 C   0  0  2  0  0  0  0  0  0  0  0  0
   24.5973   -7.5978  -17.9790 N   0  0  0  0  0  0  0  0  0  0  0  0
   24.1592   -5.3103  -17.4433 C   0  0  0  0  0  0  0  0  0  0  0  0
   22.9256   -5.4585  -17.6140 O   0  0  0  0  0  0  0  0  0  0  0  0
   24.5696   -4.2717  -16.6359 O   0  0  0  0  0  0  0  0  0  0  0  0
  2  1  1  6
  3  2  1  0
  4  5  2  0
  4  3  1  0
  6  5  1  0
  7  6  2  0
  8  7  1  0
  8  9  2  0
  9  4  1  0
 10 17  1  0
 10  2  1  0
 11 10  2  0
 13 12  1  0
 14 16  1  0
 14 13  1  0
 14 15  1  6
 16 17  1  1
 18 16  1  0
 19 18  2  0
 21 20  1  0
 22 21  1  6
 22 23  1  0
 23 18  1  0
 24 22  1  0
 25 24  2  0
 26 24  1  0
M  END
$$$$
