FIS.pdb
     RDKit          3D

 26 26  0  0  1  0  0  0  0  0999 V2000
   20.7356  -19.6378  -14.4834 N   0  0  0  0  0  0  0  0  0  0  0  0
   21.2692  -20.6695  -13.6349 C   0  0  1  0  0  0  0  0  0  0  0  0
   21.2263  -22.0010  -14.3523 C   0  0  0  0  0  0  0  0  0  0  0  0
   19.8689  -22.4786  -14.6154 C   0  0  0  0  0  0  0  0  0  0  0  0
   19.1160  -22.9433  -13.5416 C   0  0  0  0  0  0  0  0  0  0  0  0
   17.8338  -23.4130  -13.6770 C   0  0  0  0  0  0  0  0  0  0  0  0
   17.2667  -23.4225  -14.9467 C   0  0  0  0  0  0  0  0  0  0  0  0
   17.9777  -22.9736  -16.0223 C   0  0  0  0  0  0  0  0  0  0  0  0
   19.2816  -22.5022  -15.8472 C   0  0  0  0  0  0  0  0  0  0  0  0
   22.7017  -20.3811  -13.3495 C   0  0  0  0  0  0  0  0  0  0  0  0
   23.3838  -19.6889  -14.1589 O   0  0  0  0  0  0  0  0  0  0  0  0
   26.8643  -20.1763   -8.7253 C   0  0  0  0  0  0  0  0  0  0  0  0
   26.5515  -20.3552  -10.1882 C   0  0  0  0  0  0  0  0  0  0  0  0
   25.1257  -20.5928  -10.5082 C   0  0  2  0  0  0  0  0  0  0  0  0
   24.6349  -21.8805   -9.8510 C   0  0  0  0  0  0  0  0  0  0  0  0
   24.7459  -20.5988  -11.9481 C   0  0  2  0  0  0  0  0  0  0  0  0
   23.3603  -20.8539  -12.1872 N   0  0  0  0  0  0  0  0  0  0  0  0
   25.6275  -21.4755  -12.7740 C   0  0  0  0  0  0  0  0  0  0  0  0
   25.8460  -22.6537  -12.4524 O   0  0  0  0  0  0  0  0  0  0  0  0
   25.5093  -21.9552  -16.5225 O   0  0  0  0  0  0  0  0  0  0  0  0
   26.3573  -22.7155  -15.7227 C   0  0  0  0  0  0  0  0  0  0  0  0
   27.1374  -21.8309  -14.7760 C   0  0  2  0  0  0  0  0  0  0  0  0
   26.2619  -21.0020  -13.9709 N   0  0  0  0  0  0  0  0  0  0  0  0
   27.9984  -20.9604  -15.6124 C   0  0  0  0  0  0  0  0  0  0  0  0
   27.8302  -19.7180  -15.5793 O   0  0  0  0  0  0  0  0  0  0  0  0
   28.9892  -21.4466  -16.4376 O   0  0  0  0  0  0  0  0  0  0  0  0
  2  1  1  6
  3  2  1  0
  4  5  2  0
  4  3  1  0
  6  5  1  0
  7  6  2  0
  8  7  1  0
  8  9  2  0
  9  4  1  0
 10 17  1  0
 10  2  1  0
 11 10  2  0
 13 12  1  0
 14 16  1  0
 14 13  1  0
 14 15  1  6
 16 17  1  1
 18 16  1  0
 19 18  2  0
 21 20  1  0
 22 21  1  6
 22 23  1  0
 23 18  1  0
 24 22  1  0
 25 24  2  0
 26 24  1  0
M  END
$$$$
