FIS.pdb
     RDKit          3D

 26 26  0  0  1  0  0  0  0  0999 V2000
   28.2655  -21.0119  -15.8059 N   0  0  0  0  0  0  0  0  0  0  0  0
   27.3809  -20.0357  -15.2282 C   0  0  1  0  0  0  0  0  0  0  0  0
   26.6989  -19.2455  -16.3235 C   0  0  0  0  0  0  0  0  0  0  0  0
   27.5958  -18.3282  -17.0263 C   0  0  0  0  0  0  0  0  0  0  0  0
   27.8656  -17.0952  -16.4407 C   0  0  0  0  0  0  0  0  0  0  0  0
   28.6917  -16.1616  -17.0140 C   0  0  0  0  0  0  0  0  0  0  0  0
   29.2830  -16.4669  -18.2351 C   0  0  0  0  0  0  0  0  0  0  0  0
   29.0397  -17.6677  -18.8373 C   0  0  0  0  0  0  0  0  0  0  0  0
   28.1926  -18.5949  -18.2244 C   0  0  0  0  0  0  0  0  0  0  0  0
   26.3067  -20.7325  -14.4685 C   0  0  0  0  0  0  0  0  0  0  0  0
   25.8823  -21.8589  -14.8568 O   0  0  0  0  0  0  0  0  0  0  0  0
   26.2054  -21.0612   -9.0354 C   0  0  0  0  0  0  0  0  0  0  0  0
   26.0331  -21.3302  -10.5078 C   0  0  0  0  0  0  0  0  0  0  0  0
   24.7955  -20.7868  -11.1120 C   0  0  2  0  0  0  0  0  0  0  0  0
   23.5624  -21.4208  -10.4727 C   0  0  0  0  0  0  0  0  0  0  0  0
   24.6754  -20.8615  -12.5944 C   0  0  2  0  0  0  0  0  0  0  0  0
   25.7179  -20.1862  -13.3011 N   0  0  0  0  0  0  0  0  0  0  0  0
   23.3212  -20.4691  -13.0843 C   0  0  0  0  0  0  0  0  0  0  0  0
   22.9402  -19.2890  -13.0454 O   0  0  0  0  0  0  0  0  0  0  0  0
   20.7122  -23.3514  -14.7178 O   0  0  0  0  0  0  0  0  0  0  0  0
   20.6068  -22.0418  -15.1767 C   0  0  0  0  0  0  0  0  0  0  0  0
   21.0923  -21.0658  -14.1285 C   0  0  2  0  0  0  0  0  0  0  0  0
   22.3999  -21.4305  -13.6194 N   0  0  0  0  0  0  0  0  0  0  0  0
   20.1100  -21.1035  -13.0183 C   0  0  0  0  0  0  0  0  0  0  0  0
   20.4343  -21.6373  -11.9308 O   0  0  0  0  0  0  0  0  0  0  0  0
   18.8403  -20.5767  -13.1150 O   0  0  0  0  0  0  0  0  0  0  0  0
  2  1  1  6
  3  2  1  0
  4  5  2  0
  4  3  1  0
  6  5  1  0
  7  6  2  0
  8  7  1  0
  8  9  2  0
  9  4  1  0
 10 17  1  0
 10  2  1  0
 11 10  2  0
 13 12  1  0
 14 16  1  0
 14 13  1  0
 14 15  1  1
 16 17  1  6
 18 16  1  0
 19 18  2  0
 21 20  1  0
 22 21  1  6
 22 23  1  0
 23 18  1  0
 24 22  1  0
 25 24  2  0
 26 24  1  0
M  END
$$$$
