FIS.pdb
     RDKit          3D

 26 26  0  0  1  0  0  0  0  0999 V2000
   26.3911  -20.8445  -17.6108 N   0  0  0  0  0  0  0  0  0  0  0  0
   26.1304  -19.9107  -16.5483 C   0  0  1  0  0  0  0  0  0  0  0  0
   25.2949  -18.7603  -17.0659 C   0  0  0  0  0  0  0  0  0  0  0  0
   25.9981  -17.9169  -18.0323 C   0  0  0  0  0  0  0  0  0  0  0  0
   27.1000  -17.1906  -17.5915 C   0  0  0  0  0  0  0  0  0  0  0  0
   27.8303  -16.3700  -18.4138 C   0  0  0  0  0  0  0  0  0  0  0  0
   27.4473  -16.2634  -19.7464 C   0  0  0  0  0  0  0  0  0  0  0  0
   26.3708  -16.9623  -20.2119 C   0  0  0  0  0  0  0  0  0  0  0  0
   25.6500  -17.7889  -19.3458 C   0  0  0  0  0  0  0  0  0  0  0  0
   25.3284  -20.5814  -15.4883 C   0  0  0  0  0  0  0  0  0  0  0  0
   24.6051  -21.5787  -15.7744 O   0  0  0  0  0  0  0  0  0  0  0  0
   25.1824  -21.4429   -9.3371 C   0  0  0  0  0  0  0  0  0  0  0  0
   24.5262  -21.5256  -10.6909 C   0  0  0  0  0  0  0  0  0  0  0  0
   25.2166  -20.7937  -11.7769 C   0  0  2  0  0  0  0  0  0  0  0  0
   25.4622  -19.3416  -11.3746 C   0  0  0  0  0  0  0  0  0  0  0  0
   24.5879  -20.8316  -13.1263 C   0  0  2  0  0  0  0  0  0  0  0  0
   25.3321  -20.1504  -14.1384 N   0  0  0  0  0  0  0  0  0  0  0  0
   23.1551  -20.4135  -13.1074 C   0  0  0  0  0  0  0  0  0  0  0  0
   22.8353  -19.2165  -13.0424 O   0  0  0  0  0  0  0  0  0  0  0  0
   20.1834  -23.1934  -14.0039 O   0  0  0  0  0  0  0  0  0  0  0  0
   19.9327  -21.8443  -14.2363 C   0  0  0  0  0  0  0  0  0  0  0  0
   20.6912  -20.9809  -13.2533 C   0  0  2  0  0  0  0  0  0  0  0  0
   22.0853  -21.3683  -13.1622 N   0  0  0  0  0  0  0  0  0  0  0  0
   20.0469  -21.1675  -11.9309 C   0  0  0  0  0  0  0  0  0  0  0  0
   20.7024  -21.6893  -10.9977 O   0  0  0  0  0  0  0  0  0  0  0  0
   18.7474  -20.7942  -11.6646 O   0  0  0  0  0  0  0  0  0  0  0  0
  2  1  1  6
  3  2  1  0
  4  5  2  0
  4  3  1  0
  6  5  1  0
  7  6  2  0
  8  7  1  0
  8  9  2  0
  9  4  1  0
 10 17  1  0
 10  2  1  0
 11 10  2  0
 13 12  1  0
 14 16  1  0
 14 13  1  0
 14 15  1  1
 16 17  1  6
 18 16  1  0
 19 18  2  0
 21 20  1  0
 22 21  1  6
 22 23  1  0
 23 18  1  0
 24 22  1  0
 25 24  2  0
 26 24  1  0
M  END
$$$$
