PSS.pdb
     RDKit          3D

 20 20  0  0  1  0  0  0  0  0999 V2000
    7.7112  -15.0454   19.4974 N   0  0  0  0  0  0  0  0  0  0  0  0
    7.0399  -14.3529   18.4185 C   0  0  0  0  0  0  0  0  0  0  0  0
    7.5928  -12.9515   18.3784 C   0  0  0  0  0  0  0  0  0  0  0  0
    8.6707  -12.8805   19.4372 C   0  0  0  0  0  0  0  0  0  0  0  0
    8.9529  -14.3375   19.7309 C   0  0  1  0  0  0  0  0  0  0  0  0
    9.2623  -14.4458   21.1808 C   0  0  0  0  0  0  0  0  0  0  0  0
   10.3623  -14.0043   21.6580 O   0  0  0  0  0  0  0  0  0  0  0  0
    6.8033  -16.5469   23.9769 O   0  0  0  0  0  0  0  0  0  0  0  0
    7.4120  -15.3646   24.3426 C   0  0  0  0  0  0  0  0  0  0  0  0
    8.6804  -15.1455   23.5060 C   0  0  2  0  0  0  0  0  0  0  0  0
    8.3678  -15.0374   22.1091 N   0  0  0  0  0  0  0  0  0  0  0  0
    9.5180  -16.3510   23.7107 C   0  0  0  0  0  0  0  0  0  0  0  0
    9.4031  -17.3104   22.9344 O   0  0  0  0  0  0  0  0  0  0  0  0
   13.5251  -18.4687   24.9895 O   0  0  0  0  0  0  0  0  0  0  0  0
   12.7473  -17.3471   24.8029 C   0  0  0  0  0  0  0  0  0  0  0  0
   11.2646  -17.6390   24.8876 C   0  0  2  0  0  0  0  0  0  0  0  0
   10.4608  -16.4615   24.7701 N   0  0  0  0  0  0  0  0  0  0  0  0
   11.0193  -18.2581   26.2234 C   0  0  0  0  0  0  0  0  0  0  0  0
   11.5995  -19.4766   26.5709 O   0  0  0  0  0  0  0  0  0  0  0  0
   10.2911  -17.7108   27.0711 O   0  0  0  0  0  0  0  0  0  0  0  0
  1  2  1  0
  3  2  1  0
  4  3  1  0
  4  5  1  0
  5  1  1  0
  6 11  1  0
  5  6  1  1
  7  6  2  0
  8  9  1  0
 10  9  1  1
 10 11  1  0
 10 12  1  0
 12 17  1  0
 13 12  2  0
 14 15  1  0
 16 18  1  0
 16 15  1  1
 17 16  1  0
 18 19  1  0
 20 18  2  0
M  END
$$$$
