PSS.pdb
     RDKit          3D

 20 20  0  0  1  0  0  0  0  0999 V2000
    8.3507  -13.1214   18.5881 N   0  0  0  0  0  0  0  0  0  0  0  0
    7.9242  -13.6256   17.3004 C   0  0  0  0  0  0  0  0  0  0  0  0
    7.2861  -14.9699   17.5392 C   0  0  0  0  0  0  0  0  0  0  0  0
    7.2944  -15.1939   19.0351 C   0  0  0  0  0  0  0  0  0  0  0  0
    7.5534  -13.8080   19.5833 C   0  0  1  0  0  0  0  0  0  0  0  0
    8.3941  -13.9620   20.7996 C   0  0  0  0  0  0  0  0  0  0  0  0
    9.6687  -13.8999   20.7358 O   0  0  0  0  0  0  0  0  0  0  0  0
    6.8223  -14.9747   24.6262 O   0  0  0  0  0  0  0  0  0  0  0  0
    7.8337  -14.0417   24.5335 C   0  0  0  0  0  0  0  0  0  0  0  0
    8.6582  -14.2846   23.2615 C   0  0  2  0  0  0  0  0  0  0  0  0
    7.8399  -14.1841   22.0863 N   0  0  0  0  0  0  0  0  0  0  0  0
    9.1686  -15.6723   23.3644 C   0  0  0  0  0  0  0  0  0  0  0  0
    8.4976  -16.6034   22.8965 O   0  0  0  0  0  0  0  0  0  0  0  0
   13.1381  -16.5908   24.1532 O   0  0  0  0  0  0  0  0  0  0  0  0
   12.2904  -17.5106   23.5757 C   0  0  0  0  0  0  0  0  0  0  0  0
   10.8543  -17.3503   24.0258 C   0  0  2  0  0  0  0  0  0  0  0  0
   10.4091  -15.9915   23.9832 N   0  0  0  0  0  0  0  0  0  0  0  0
   10.7839  -17.8361   25.4354 C   0  0  0  0  0  0  0  0  0  0  0  0
   11.1718  -19.1316   25.7718 O   0  0  0  0  0  0  0  0  0  0  0  0
   10.3781  -17.1048   26.3567 O   0  0  0  0  0  0  0  0  0  0  0  0
  1  2  1  0
  3  2  1  0
  4  3  1  0
  4  5  1  0
  5  1  1  0
  6 11  1  0
  5  6  1  1
  7  6  2  0
  8  9  1  0
 10  9  1  1
 10 11  1  0
 10 12  1  0
 12 17  1  0
 13 12  2  0
 14 15  1  0
 16 18  1  0
 16 15  1  1
 17 16  1  0
 18 19  1  0
 20 18  2  0
M  END
$$$$
