PSS.pdb
     RDKit          3D

 20 20  0  0  1  0  0  0  0  0999 V2000
    8.3139  -15.4752   19.0628 N   0  0  0  0  0  0  0  0  0  0  0  0
    7.6821  -16.3769   18.1237 C   0  0  0  0  0  0  0  0  0  0  0  0
    6.6638  -17.1778   18.8937 C   0  0  0  0  0  0  0  0  0  0  0  0
    6.6794  -16.6503   20.3112 C   0  0  0  0  0  0  0  0  0  0  0  0
    7.3935  -15.3241   20.1708 C   0  0  1  0  0  0  0  0  0  0  0  0
    8.2046  -15.1246   21.4004 C   0  0  0  0  0  0  0  0  0  0  0  0
    9.4504  -15.4078   21.4251 O   0  0  0  0  0  0  0  0  0  0  0  0
    6.4559  -14.2288   25.1312 O   0  0  0  0  0  0  0  0  0  0  0  0
    7.6852  -13.6643   24.8627 C   0  0  0  0  0  0  0  0  0  0  0  0
    8.4266  -14.4963   23.8068 C   0  0  2  0  0  0  0  0  0  0  0  0
    7.6526  -14.6152   22.6036 N   0  0  0  0  0  0  0  0  0  0  0  0
    8.5955  -15.8461   24.3951 C   0  0  0  0  0  0  0  0  0  0  0  0
    7.8479  -16.7657   24.0320 O   0  0  0  0  0  0  0  0  0  0  0  0
   12.1585  -18.1381   23.6750 O   0  0  0  0  0  0  0  0  0  0  0  0
   11.3413  -17.0564   23.9201 C   0  0  0  0  0  0  0  0  0  0  0  0
   10.4906  -17.2312   25.1597 C   0  0  2  0  0  0  0  0  0  0  0  0
    9.5883  -16.1413   25.3701 N   0  0  0  0  0  0  0  0  0  0  0  0
   11.4256  -17.3132   26.3202 C   0  0  0  0  0  0  0  0  0  0  0  0
   11.3819  -16.3743   27.3491 O   0  0  0  0  0  0  0  0  0  0  0  0
   12.2739  -18.2190   26.4103 O   0  0  0  0  0  0  0  0  0  0  0  0
  1  2  1  0
  3  2  1  0
  4  3  1  0
  4  5  1  0
  5  1  1  0
  6 11  1  0
  5  6  1  1
  7  6  2  0
  8  9  1  0
 10  9  1  1
 10 11  1  0
 10 12  1  0
 12 17  1  0
 13 12  2  0
 14 15  1  0
 16 18  1  0
 16 15  1  6
 17 16  1  0
 18 19  1  0
 20 18  2  0
M  END
$$$$
