PSS.pdb
     RDKit          3D

 20 20  0  0  1  0  0  0  0  0999 V2000
    7.3400  -15.1022   20.0370 N   0  0  0  0  0  0  0  0  0  0  0  0
    6.5620  -14.3926   19.0442 C   0  0  0  0  0  0  0  0  0  0  0  0
    7.3228  -13.1387   18.6973 C   0  0  0  0  0  0  0  0  0  0  0  0
    8.6162  -13.1859   19.4801 C   0  0  0  0  0  0  0  0  0  0  0  0
    8.7045  -14.6365   19.9002 C   0  0  1  0  0  0  0  0  0  0  0  0
    9.3248  -14.6702   21.2507 C   0  0  0  0  0  0  0  0  0  0  0  0
   10.5554  -14.3718   21.4219 O   0  0  0  0  0  0  0  0  0  0  0  0
    7.0773  -15.5907   24.6571 O   0  0  0  0  0  0  0  0  0  0  0  0
    8.1818  -14.7804   24.8172 C   0  0  0  0  0  0  0  0  0  0  0  0
    9.2091  -15.0675   23.7131 C   0  0  2  0  0  0  0  0  0  0  0  0
    8.5983  -15.0304   22.4145 N   0  0  0  0  0  0  0  0  0  0  0  0
    9.7042  -16.4420   23.9632 C   0  0  0  0  0  0  0  0  0  0  0  0
    9.1175  -17.4033   23.4457 O   0  0  0  0  0  0  0  0  0  0  0  0
   13.5292  -17.3426   24.8705 O   0  0  0  0  0  0  0  0  0  0  0  0
   12.6477  -18.3515   24.5493 C   0  0  0  0  0  0  0  0  0  0  0  0
   11.2354  -18.0684   25.0142 C   0  0  2  0  0  0  0  0  0  0  0  0
   10.8363  -16.7148   24.7801 N   0  0  0  0  0  0  0  0  0  0  0  0
   11.2000  -18.3338   26.4826 C   0  0  0  0  0  0  0  0  0  0  0  0
   11.5030  -19.5937   26.9952 O   0  0  0  0  0  0  0  0  0  0  0  0
   10.8998  -17.4433   27.2983 O   0  0  0  0  0  0  0  0  0  0  0  0
  1  2  1  0
  3  2  1  0
  4  3  1  0
  4  5  1  0
  5  1  1  0
  6 11  1  0
  5  6  1  1
  7  6  2  0
  8  9  1  0
 10  9  1  1
 10 11  1  0
 10 12  1  0
 12 17  1  0
 13 12  2  0
 14 15  1  0
 16 18  1  0
 16 15  1  1
 17 16  1  0
 18 19  1  0
 20 18  2  0
M  END
$$$$
