PSS.pdb
     RDKit          3D

 20 20  0  0  1  0  0  0  0  0999 V2000
    9.6973  -13.5323   19.3873 N   0  0  0  0  0  0  0  0  0  0  0  0
    8.9962  -12.6428   18.4865 C   0  0  0  0  0  0  0  0  0  0  0  0
    7.5216  -12.8852   18.6816 C   0  0  0  0  0  0  0  0  0  0  0  0
    7.3932  -13.9056   19.7907 C   0  0  0  0  0  0  0  0  0  0  0  0
    8.7607  -13.8768   20.4369 C   0  0  1  0  0  0  0  0  0  0  0  0
    9.0730  -15.2621   20.8764 C   0  0  0  0  0  0  0  0  0  0  0  0
    8.2999  -15.8940   21.6738 O   0  0  0  0  0  0  0  0  0  0  0  0
   12.7736  -17.2421   20.0661 O   0  0  0  0  0  0  0  0  0  0  0  0
   11.5897  -17.9448   19.9844 C   0  0  0  0  0  0  0  0  0  0  0  0
   10.5276  -17.2916   20.8799 C   0  0  2  0  0  0  0  0  0  0  0  0
   10.2315  -15.9565   20.4432 N   0  0  0  0  0  0  0  0  0  0  0  0
   11.1220  -17.2240   22.2359 C   0  0  0  0  0  0  0  0  0  0  0  0
   11.6649  -16.1746   22.6105 O   0  0  0  0  0  0  0  0  0  0  0  0
   10.5518  -20.2294   25.0224 O   0  0  0  0  0  0  0  0  0  0  0  0
   10.9791  -19.0069   25.4924 C   0  0  0  0  0  0  0  0  0  0  0  0
   11.6897  -18.1870   24.4371 C   0  0  2  0  0  0  0  0  0  0  0  0
   11.0992  -18.3211   23.1411 N   0  0  0  0  0  0  0  0  0  0  0  0
   13.0972  -18.6805   24.3784 C   0  0  0  0  0  0  0  0  0  0  0  0
   13.9578  -18.5363   25.4649 O   0  0  0  0  0  0  0  0  0  0  0  0
   13.5506  -19.2359   23.3614 O   0  0  0  0  0  0  0  0  0  0  0  0
  1  2  1  0
  3  2  1  0
  4  3  1  0
  4  5  1  0
  5  1  1  0
  6 11  1  0
  5  6  1  6
  7  6  2  0
  8  9  1  0
 10  9  1  6
 10 11  1  0
 10 12  1  0
 12 17  1  0
 13 12  2  0
 14 15  1  0
 16 18  1  0
 16 15  1  1
 17 16  1  0
 18 19  1  0
 20 18  2  0
M  END
$$$$
