PSS.pdb
     RDKit          3D

 20 20  0  0  1  0  0  0  0  0999 V2000
    8.2953  -14.8659   18.3177 N   0  0  0  0  0  0  0  0  0  0  0  0
    7.8784  -14.2124   17.0956 C   0  0  0  0  0  0  0  0  0  0  0  0
    7.3957  -12.8350   17.4711 C   0  0  0  0  0  0  0  0  0  0  0  0
    7.6188  -12.6886   18.9600 C   0  0  0  0  0  0  0  0  0  0  0  0
    8.5822  -13.8130   19.2699 C   0  0  1  0  0  0  0  0  0  0  0  0
    8.2413  -14.3292   20.6216 C   0  0  0  0  0  0  0  0  0  0  0  0
    8.3641  -13.5959   21.6608 O   0  0  0  0  0  0  0  0  0  0  0  0
    7.5430  -18.4278   21.5259 O   0  0  0  0  0  0  0  0  0  0  0  0
    6.6908  -17.4823   22.0567 C   0  0  0  0  0  0  0  0  0  0  0  0
    7.3998  -16.1233   22.1408 C   0  0  2  0  0  0  0  0  0  0  0  0
    7.7659  -15.6482   20.8365 N   0  0  0  0  0  0  0  0  0  0  0  0
    8.6369  -16.3557   22.9233 C   0  0  0  0  0  0  0  0  0  0  0  0
    9.7174  -16.4827   22.3294 O   0  0  0  0  0  0  0  0  0  0  0  0
    8.8703  -15.5762   26.9520 O   0  0  0  0  0  0  0  0  0  0  0  0
   10.0345  -15.7179   26.2291 C   0  0  0  0  0  0  0  0  0  0  0  0
    9.8786  -16.6388   25.0381 C   0  0  2  0  0  0  0  0  0  0  0  0
    8.6440  -16.4411   24.3432 N   0  0  0  0  0  0  0  0  0  0  0  0
    9.9183  -18.0362   25.5613 C   0  0  0  0  0  0  0  0  0  0  0  0
   11.0246  -18.5127   26.2619 O   0  0  0  0  0  0  0  0  0  0  0  0
    8.9689  -18.8224   25.3912 O   0  0  0  0  0  0  0  0  0  0  0  0
  1  2  1  0
  3  2  1  0
  4  3  1  0
  4  5  1  0
  5  1  1  0
  6 11  1  0
  5  6  1  1
  7  6  2  0
  8  9  1  0
 10  9  1  6
 10 11  1  0
 10 12  1  0
 12 17  1  0
 13 12  2  0
 14 15  1  0
 16 18  1  0
 16 15  1  1
 17 16  1  0
 18 19  1  0
 20 18  2  0
M  END
$$$$
