PSS.pdb
     RDKit          3D

 20 20  0  0  1  0  0  0  0  0999 V2000
    7.6805  -14.9954   19.0234 N   0  0  0  0  0  0  0  0  0  0  0  0
    6.9081  -14.3110   18.0088 C   0  0  0  0  0  0  0  0  0  0  0  0
    7.5585  -12.9701   17.7849 C   0  0  0  0  0  0  0  0  0  0  0  0
    8.7892  -12.9333   18.6635 C   0  0  0  0  0  0  0  0  0  0  0  0
    8.9960  -14.3896   19.0172 C   0  0  1  0  0  0  0  0  0  0  0  0
    9.5160  -14.4385   20.4090 C   0  0  0  0  0  0  0  0  0  0  0  0
   10.7198  -14.1050   20.6781 O   0  0  0  0  0  0  0  0  0  0  0  0
    7.1787  -15.8165   23.6508 O   0  0  0  0  0  0  0  0  0  0  0  0
    8.0882  -14.8043   23.8750 C   0  0  0  0  0  0  0  0  0  0  0  0
    9.2272  -14.8840   22.8488 C   0  0  2  0  0  0  0  0  0  0  0  0
    8.7187  -14.8523   21.5066 N   0  0  0  0  0  0  0  0  0  0  0  0
    9.8881  -16.1915   23.0728 C   0  0  0  0  0  0  0  0  0  0  0  0
    9.5150  -17.1804   22.4254 O   0  0  0  0  0  0  0  0  0  0  0  0
   13.6346  -16.5674   24.5970 O   0  0  0  0  0  0  0  0  0  0  0  0
   13.0306  -17.6585   24.0116 C   0  0  0  0  0  0  0  0  0  0  0  0
   11.5273  -17.6630   24.1874 C   0  0  2  0  0  0  0  0  0  0  0  0
   10.9450  -16.3688   24.0082 N   0  0  0  0  0  0  0  0  0  0  0  0
   11.2541  -18.1254   25.5800 C   0  0  0  0  0  0  0  0  0  0  0  0
   11.6725  -19.3804   26.0182 O   0  0  0  0  0  0  0  0  0  0  0  0
   10.6457  -17.4099   26.3962 O   0  0  0  0  0  0  0  0  0  0  0  0
  1  2  1  0
  3  2  1  0
  4  3  1  0
  4  5  1  0
  5  1  1  0
  6 11  1  0
  5  6  1  1
  7  6  2  0
  8  9  1  0
 10  9  1  1
 10 11  1  0
 10 12  1  0
 12 17  1  0
 13 12  2  0
 14 15  1  0
 16 18  1  0
 16 15  1  1
 17 16  1  0
 18 19  1  0
 20 18  2  0
M  END
$$$$
