PSS.pdb
     RDKit          3D

 20 20  0  0  1  0  0  0  0  0999 V2000
    8.9838  -13.9693   17.9152 N   0  0  0  0  0  0  0  0  0  0  0  0
    8.0827  -13.3538   16.9647 C   0  0  0  0  0  0  0  0  0  0  0  0
    6.7657  -13.1509   17.6687 C   0  0  0  0  0  0  0  0  0  0  0  0
    6.9623  -13.6097   19.0965 C   0  0  0  0  0  0  0  0  0  0  0  0
    8.4683  -13.6571   19.2322 C   0  0  1  0  0  0  0  0  0  0  0  0
    8.7976  -14.8010   20.1227 C   0  0  0  0  0  0  0  0  0  0  0  0
    8.3083  -14.8859   21.3000 O   0  0  0  0  0  0  0  0  0  0  0  0
   11.9171  -17.6122   19.4106 O   0  0  0  0  0  0  0  0  0  0  0  0
   10.6813  -18.0806   19.8049 C   0  0  0  0  0  0  0  0  0  0  0  0
    9.9227  -16.9853   20.5675 C   0  0  2  0  0  0  0  0  0  0  0  0
    9.6625  -15.8525   19.7249 N   0  0  0  0  0  0  0  0  0  0  0  0
   10.8184  -16.5590   21.6687 C   0  0  0  0  0  0  0  0  0  0  0  0
   11.4102  -15.4731   21.5857 O   0  0  0  0  0  0  0  0  0  0  0  0
   10.1919  -17.4600   25.4776 O   0  0  0  0  0  0  0  0  0  0  0  0
   11.1304  -16.5111   25.1360 C   0  0  0  0  0  0  0  0  0  0  0  0
   11.8877  -16.8612   23.8732 C   0  0  2  0  0  0  0  0  0  0  0  0
   11.0348  -17.3474   22.8328 N   0  0  0  0  0  0  0  0  0  0  0  0
   12.8642  -17.9307   24.2345 C   0  0  0  0  0  0  0  0  0  0  0  0
   12.8405  -19.1723   23.6022 O   0  0  0  0  0  0  0  0  0  0  0  0
   13.7307  -17.7528   25.1097 O   0  0  0  0  0  0  0  0  0  0  0  0
  1  2  1  0
  3  2  1  0
  4  3  1  0
  4  5  1  0
  5  1  1  0
  6 11  1  0
  5  6  1  1
  7  6  2  0
  8  9  1  0
 10  9  1  6
 10 11  1  0
 10 12  1  0
 12 17  1  0
 13 12  2  0
 14 15  1  0
 16 18  1  0
 16 15  1  1
 17 16  1  0
 18 19  1  0
 20 18  2  0
M  END
$$$$
