PSS.pdb
     RDKit          3D

 20 20  0  0  1  0  0  0  0  0999 V2000
   -2.6579  -26.1576   27.2827 N   0  0  0  0  0  0  0  0  0  0  0  0
   -1.3624  -26.7254   26.9766 C   0  0  0  0  0  0  0  0  0  0  0  0
   -0.3828  -26.1581   27.9715 C   0  0  0  0  0  0  0  0  0  0  0  0
   -1.1807  -25.2892   28.9182 C   0  0  0  0  0  0  0  0  0  0  0  0
   -2.6046  -25.7338   28.6666 C   0  0  1  0  0  0  0  0  0  0  0  0
   -3.4737  -24.5351   28.7997 C   0  0  0  0  0  0  0  0  0  0  0  0
   -3.5951  -23.9260   29.9163 O   0  0  0  0  0  0  0  0  0  0  0  0
   -5.8844  -23.1996   25.6405 O   0  0  0  0  0  0  0  0  0  0  0  0
   -5.3784  -22.2318   26.4827 C   0  0  0  0  0  0  0  0  0  0  0  0
   -5.0480  -22.8455   27.8505 C   0  0  2  0  0  0  0  0  0  0  0  0
   -4.2101  -24.0027   27.7107 N   0  0  0  0  0  0  0  0  0  0  0  0
   -6.3440  -23.2682   28.4323 C   0  0  0  0  0  0  0  0  0  0  0  0
   -6.7958  -24.3899   28.1603 O   0  0  0  0  0  0  0  0  0  0  0  0
   -8.9673  -24.5810   31.6251 O   0  0  0  0  0  0  0  0  0  0  0  0
   -7.8800  -24.0935   30.9336 C   0  0  0  0  0  0  0  0  0  0  0  0
   -8.2421  -22.9728   29.9830 C   0  0  2  0  0  0  0  0  0  0  0  0
   -7.1051  -22.4369   29.3002 N   0  0  0  0  0  0  0  0  0  0  0  0
   -8.8650  -21.8920   30.8027 C   0  0  0  0  0  0  0  0  0  0  0  0
   -8.2108  -20.6801   31.0151 O   0  0  0  0  0  0  0  0  0  0  0  0
   -9.9862  -22.0339   31.3235 O   0  0  0  0  0  0  0  0  0  0  0  0
  1  2  1  0
  3  2  1  0
  4  3  1  0
  4  5  1  0
  5  1  1  0
  6 11  1  0
  5  6  1  6
  7  6  2  0
  8  9  1  0
 10  9  1  6
 10 11  1  0
 10 12  1  0
 12 17  1  0
 13 12  2  0
 14 15  1  0
 16 18  1  0
 16 15  1  1
 17 16  1  0
 18 19  1  0
 20 18  2  0
M  END
$$$$
