PSS.pdb
     RDKit          3D

 20 20  0  0  1  0  0  0  0  0999 V2000
    7.7691  -15.0029   19.6469 N   0  0  0  0  0  0  0  0  0  0  0  0
    7.0459  -14.3011   18.6082 C   0  0  0  0  0  0  0  0  0  0  0  0
    7.5388  -12.8769   18.6088 C   0  0  0  0  0  0  0  0  0  0  0  0
    8.6357  -12.7984   19.6474 C   0  0  0  0  0  0  0  0  0  0  0  0
    8.9849  -14.2516   19.8811 C   0  0  1  0  0  0  0  0  0  0  0  0
    9.3302  -14.3990   21.3194 C   0  0  0  0  0  0  0  0  0  0  0  0
   10.3717  -13.8451   21.8106 O   0  0  0  0  0  0  0  0  0  0  0  0
    6.9081  -16.5217   24.1649 O   0  0  0  0  0  0  0  0  0  0  0  0
    7.6139  -15.3797   24.4809 C   0  0  0  0  0  0  0  0  0  0  0  0
    8.8743  -15.2827   23.6098 C   0  0  2  0  0  0  0  0  0  0  0  0
    8.5358  -15.1528   22.2208 N   0  0  0  0  0  0  0  0  0  0  0  0
    9.6023  -16.5595   23.8012 C   0  0  0  0  0  0  0  0  0  0  0  0
    9.3414  -17.5242   23.0680 O   0  0  0  0  0  0  0  0  0  0  0  0
   12.9929  -17.1092   23.4303 O   0  0  0  0  0  0  0  0  0  0  0  0
   12.7647  -17.8610   24.5620 C   0  0  0  0  0  0  0  0  0  0  0  0
   11.2948  -17.9798   24.9024 C   0  0  2  0  0  0  0  0  0  0  0  0
   10.6002  -16.7335   24.7999 N   0  0  0  0  0  0  0  0  0  0  0  0
   11.2130  -18.4621   26.3126 C   0  0  0  0  0  0  0  0  0  0  0  0
   11.7989  -19.6664   26.6979 O   0  0  0  0  0  0  0  0  0  0  0  0
   10.6213  -17.8090   27.1909 O   0  0  0  0  0  0  0  0  0  0  0  0
  1  2  1  0
  3  2  1  0
  4  3  1  0
  4  5  1  0
  5  1  1  0
  6 11  1  0
  5  6  1  1
  7  6  2  0
  8  9  1  0
 10  9  1  1
 10 11  1  0
 10 12  1  0
 12 17  1  0
 13 12  2  0
 14 15  1  0
 16 18  1  0
 16 15  1  1
 17 16  1  0
 18 19  1  0
 20 18  2  0
M  END
$$$$
