PSS.pdb
     RDKit          3D

 20 20  0  0  1  0  0  0  0  0999 V2000
    8.2340  -16.4741   17.9427 N   0  0  0  0  0  0  0  0  0  0  0  0
    7.6680  -17.5891   17.2142 C   0  0  0  0  0  0  0  0  0  0  0  0
    6.9306  -18.4435   18.2130 C   0  0  0  0  0  0  0  0  0  0  0  0
    7.0311  -17.7362   19.5462 C   0  0  0  0  0  0  0  0  0  0  0  0
    7.4549  -16.3374   19.1559 C   0  0  1  0  0  0  0  0  0  0  0  0
    8.3672  -15.8378   20.2180 C   0  0  0  0  0  0  0  0  0  0  0  0
    9.6338  -15.8242   20.0504 O   0  0  0  0  0  0  0  0  0  0  0  0
    6.9584  -14.8158   24.0311 O   0  0  0  0  0  0  0  0  0  0  0  0
    8.0316  -14.0891   23.5598 C   0  0  0  0  0  0  0  0  0  0  0  0
    8.7846  -14.8955   22.4923 C   0  0  2  0  0  0  0  0  0  0  0  0
    7.8935  -15.3528   21.4639 N   0  0  0  0  0  0  0  0  0  0  0  0
    9.3444  -16.0763   23.1916 C   0  0  0  0  0  0  0  0  0  0  0  0
    8.6943  -17.1312   23.2199 O   0  0  0  0  0  0  0  0  0  0  0  0
   13.3666  -16.5494   23.8140 O   0  0  0  0  0  0  0  0  0  0  0  0
   12.4995  -17.6196   23.8409 C   0  0  0  0  0  0  0  0  0  0  0  0
   11.1403  -17.2611   24.4021 C   0  0  2  0  0  0  0  0  0  0  0  0
   10.6098  -16.0569   23.8411 N   0  0  0  0  0  0  0  0  0  0  0  0
   11.3136  -17.0719   25.8725 C   0  0  0  0  0  0  0  0  0  0  0  0
   11.8747  -18.0700   26.6668 O   0  0  0  0  0  0  0  0  0  0  0  0
   10.9646  -16.0206   26.4393 O   0  0  0  0  0  0  0  0  0  0  0  0
  1  2  1  0
  3  2  1  0
  4  3  1  0
  4  5  1  0
  5  1  1  0
  6 11  1  0
  5  6  1  1
  7  6  2  0
  8  9  1  0
 10  9  1  1
 10 11  1  0
 10 12  1  0
 12 17  1  0
 13 12  2  0
 14 15  1  0
 16 18  1  0
 16 15  1  6
 17 16  1  0
 18 19  1  0
 20 18  2  0
M  END
$$$$
