IVE.pdb
     RDKit          3D

 25 24  0  0  1  0  0  0  0  0999 V2000
    6.6732  -17.3479   18.9119 C   0  0  0  0  0  0  0  0  0  0  0  0
    6.7659  -15.9082   19.3328 C   0  0  0  0  0  0  0  0  0  0  0  0
    7.3087  -15.7875   20.7591 C   0  0  2  0  0  0  0  0  0  0  0  0
    6.4108  -16.6343   21.6271 C   0  0  0  0  0  0  0  0  0  0  0  0
    7.2010  -14.3322   21.2050 C   0  0  2  0  0  0  0  0  0  0  0  0
    7.9031  -13.5517   20.2074 N   0  0  0  0  0  0  0  0  0  0  0  0
    7.8415  -14.1237   22.5220 C   0  0  0  0  0  0  0  0  0  0  0  0
    9.0871  -14.2369   22.5970 O   0  0  0  0  0  0  0  0  0  0  0  0
    6.3763  -11.6628   25.4788 C   0  0  0  0  0  0  0  0  0  0  0  0
    6.7106  -13.0422   25.9331 C   0  0  2  0  0  0  0  0  0  0  0  0
    7.3767  -12.9374   27.2924 C   0  0  0  0  0  0  0  0  0  0  0  0
    7.6867  -13.7488   25.0151 C   0  0  2  0  0  0  0  0  0  0  0  0
    7.1331  -13.8048   23.6988 N   0  0  0  0  0  0  0  0  0  0  0  0
    8.1464  -15.0309   25.5402 C   0  0  0  0  0  0  0  0  0  0  0  0
    7.3412  -15.9889   25.6448 O   0  0  0  0  0  0  0  0  0  0  0  0
    9.4820  -15.2757   25.9530 N   0  0  0  0  0  0  0  0  0  0  0  0
    9.9132  -16.6022   26.4302 C   0  0  1  0  0  0  0  0  0  0  0  0
   11.1431  -16.9383   25.6576 C   0  0  0  0  0  0  0  0  0  0  0  0
   11.9079  -18.1262   26.1549 C   0  0  0  0  0  0  0  0  0  0  0  0
   13.0881  -18.3319   25.2935 C   0  0  0  0  0  0  0  0  0  0  0  0
   13.3669  -17.4971   24.4121 O   0  0  0  0  0  0  0  0  0  0  0  0
   10.1505  -16.5562   27.8769 C   0  0  0  0  0  0  0  0  0  0  0  0
   10.3057  -17.7017   28.6301 O   0  0  0  0  0  0  0  0  0  0  0  0
   13.8878  -19.4417   25.4549 O   0  0  0  0  0  0  0  0  0  0  0  0
   10.2276  -15.4602   28.5286 O   0  0  0  0  0  0  0  0  0  0  0  0
  1  2  1  0
  2  3  1  0
  3  5  1  0
  3  4  1  1
  5  6  1  6
  7  5  1  0
  7  8  2  0
 10  9  1  6
 10 12  1  0
 11 10  1  0
 12 13  1  6
 13  7  1  0
 14 12  1  0
 15 14  2  0
 16 14  1  0
 17 18  1  6
 17 16  1  0
 18 19  1  0
 20 21  2  0
 20 19  1  0
 22 17  1  0
 23 22  1  0
 24 20  1  0
 25 22  2  0
M  END
$$$$
