IVE.pdb
     RDKit          3D

 25 24  0  0  1  0  0  0  0  0999 V2000
    6.6475  -17.8922   19.5255 C   0  0  0  0  0  0  0  0  0  0  0  0
    6.6811  -16.4208   19.8290 C   0  0  0  0  0  0  0  0  0  0  0  0
    7.3625  -16.1533   21.1735 C   0  0  2  0  0  0  0  0  0  0  0  0
    6.6421  -17.0043   22.1901 C   0  0  0  0  0  0  0  0  0  0  0  0
    7.1761  -14.6829   21.5357 C   0  0  2  0  0  0  0  0  0  0  0  0
    7.7588  -13.9228   20.4495 N   0  0  0  0  0  0  0  0  0  0  0  0
    7.8771  -14.3451   22.7938 C   0  0  0  0  0  0  0  0  0  0  0  0
    9.1297  -14.3138   22.7814 O   0  0  0  0  0  0  0  0  0  0  0  0
    6.5432  -11.7225   25.6095 C   0  0  0  0  0  0  0  0  0  0  0  0
    6.9142  -13.0548   26.1649 C   0  0  2  0  0  0  0  0  0  0  0  0
    7.6408  -12.8274   27.4775 C   0  0  0  0  0  0  0  0  0  0  0  0
    7.8554  -13.8307   25.2666 C   0  0  2  0  0  0  0  0  0  0  0  0
    7.2192  -14.0560   24.0070 N   0  0  0  0  0  0  0  0  0  0  0  0
    8.3995  -15.0282   25.8997 C   0  0  0  0  0  0  0  0  0  0  0  0
    7.6317  -15.9664   26.2271 O   0  0  0  0  0  0  0  0  0  0  0  0
    9.7792  -15.2096   26.1788 N   0  0  0  0  0  0  0  0  0  0  0  0
   10.2798  -16.4240   26.8479 C   0  0  1  0  0  0  0  0  0  0  0  0
   11.6307  -16.6839   26.2735 C   0  0  0  0  0  0  0  0  0  0  0  0
   11.6483  -17.0743   24.8276 C   0  0  0  0  0  0  0  0  0  0  0  0
   13.0477  -17.2561   24.3967 C   0  0  0  0  0  0  0  0  0  0  0  0
   13.9392  -17.4471   25.2454 O   0  0  0  0  0  0  0  0  0  0  0  0
   10.3146  -16.2126   28.2989 C   0  0  0  0  0  0  0  0  0  0  0  0
   10.5442  -17.2459   29.1840 O   0  0  0  0  0  0  0  0  0  0  0  0
   13.3795  -17.2167   23.0605 O   0  0  0  0  0  0  0  0  0  0  0  0
   10.1352  -15.0662   28.8333 O   0  0  0  0  0  0  0  0  0  0  0  0
  1  2  1  0
  2  3  1  0
  3  5  1  0
  3  4  1  1
  5  6  1  6
  7  5  1  0
  7  8  2  0
 10  9  1  6
 10 12  1  0
 11 10  1  0
 12 13  1  6
 13  7  1  0
 14 12  1  0
 15 14  2  0
 16 14  1  0
 17 18  1  6
 17 16  1  0
 18 19  1  0
 20 21  2  0
 20 19  1  0
 22 17  1  0
 23 22  1  0
 24 20  1  0
 25 22  2  0
M  END
$$$$
