IVE.pdb
     RDKit          3D

 25 24  0  0  1  0  0  0  0  0999 V2000
    7.0843  -11.5436   27.2407 C   0  0  0  0  0  0  0  0  0  0  0  0
    6.5422  -12.9178   26.9649 C   0  0  0  0  0  0  0  0  0  0  0  0
    7.4537  -13.6843   26.0030 C   0  0  2  0  0  0  0  0  0  0  0  0
    7.5526  -12.8445   24.7534 C   0  0  0  0  0  0  0  0  0  0  0  0
    6.7939  -15.0154   25.6554 C   0  0  2  0  0  0  0  0  0  0  0  0
    6.6276  -15.7226   26.9082 N   0  0  0  0  0  0  0  0  0  0  0  0
    7.6473  -15.8205   24.7544 C   0  0  0  0  0  0  0  0  0  0  0  0
    8.5282  -16.5476   25.2695 O   0  0  0  0  0  0  0  0  0  0  0  0
    6.3922  -17.5689   21.2616 C   0  0  0  0  0  0  0  0  0  0  0  0
    7.6157  -16.7280   21.1319 C   0  0  2  0  0  0  0  0  0  0  0  0
    8.5653  -17.4295   20.1786 C   0  0  0  0  0  0  0  0  0  0  0  0
    8.3550  -16.5503   22.4421 C   0  0  2  0  0  0  0  0  0  0  0  0
    7.5282  -15.8183   23.3493 N   0  0  0  0  0  0  0  0  0  0  0  0
    9.7026  -16.0147   22.2751 C   0  0  0  0  0  0  0  0  0  0  0  0
    9.8623  -14.8084   21.9645 O   0  0  0  0  0  0  0  0  0  0  0  0
   10.8805  -16.7882   22.4449 N   0  0  0  0  0  0  0  0  0  0  0  0
   12.2208  -16.2136   22.2298 C   0  0  1  0  0  0  0  0  0  0  0  0
   13.0353  -16.6134   23.4126 C   0  0  0  0  0  0  0  0  0  0  0  0
   14.4758  -16.2056   23.3665 C   0  0  0  0  0  0  0  0  0  0  0  0
   15.1551  -16.7061   24.5769 C   0  0  0  0  0  0  0  0  0  0  0  0
   14.8952  -17.8450   25.0092 O   0  0  0  0  0  0  0  0  0  0  0  0
   12.7773  -16.7111   20.9671 C   0  0  0  0  0  0  0  0  0  0  0  0
   13.6941  -15.9854   20.2348 O   0  0  0  0  0  0  0  0  0  0  0  0
   16.0773  -15.9237   25.2362 O   0  0  0  0  0  0  0  0  0  0  0  0
   12.4506  -17.8404   20.4671 O   0  0  0  0  0  0  0  0  0  0  0  0
  1  2  1  0
  2  3  1  0
  3  5  1  0
  3  4  1  6
  5  6  1  1
  7  5  1  0
  7  8  2  0
 10  9  1  1
 10 12  1  0
 11 10  1  0
 12 13  1  1
 13  7  1  0
 14 12  1  0
 15 14  2  0
 16 14  1  0
 17 18  1  1
 17 16  1  0
 18 19  1  0
 20 21  2  0
 20 19  1  0
 22 17  1  0
 23 22  1  0
 24 20  1  0
 25 22  2  0
M  END
$$$$
