IVE.pdb
     RDKit          3D

 25 24  0  0  1  0  0  0  0  0999 V2000
    6.4202  -17.6474   19.1803 C   0  0  0  0  0  0  0  0  0  0  0  0
    6.3579  -16.2124   19.6221 C   0  0  0  0  0  0  0  0  0  0  0  0
    7.0789  -16.0180   20.9585 C   0  0  2  0  0  0  0  0  0  0  0  0
    6.4043  -16.9422   21.9420 C   0  0  0  0  0  0  0  0  0  0  0  0
    6.8832  -14.5762   21.4179 C   0  0  2  0  0  0  0  0  0  0  0  0
    7.3252  -13.7398   20.3214 N   0  0  0  0  0  0  0  0  0  0  0  0
    7.6992  -14.2769   22.6148 C   0  0  0  0  0  0  0  0  0  0  0  0
    8.9335  -14.1223   22.4640 O   0  0  0  0  0  0  0  0  0  0  0  0
    6.6286  -11.8157   25.5091 C   0  0  0  0  0  0  0  0  0  0  0  0
    7.0903  -13.1145   26.0757 C   0  0  2  0  0  0  0  0  0  0  0  0
    7.9683  -12.8142   27.2763 C   0  0  0  0  0  0  0  0  0  0  0  0
    7.9284  -13.9207   25.1050 C   0  0  2  0  0  0  0  0  0  0  0  0
    7.1704  -14.1551   23.9163 N   0  0  0  0  0  0  0  0  0  0  0  0
    8.5121  -15.1172   25.7038 C   0  0  0  0  0  0  0  0  0  0  0  0
    7.7643  -16.0299   26.1338 O   0  0  0  0  0  0  0  0  0  0  0  0
    9.9097  -15.3254   25.8370 N   0  0  0  0  0  0  0  0  0  0  0  0
   10.4550  -16.5670   26.4150 C   0  0  1  0  0  0  0  0  0  0  0  0
   11.8495  -16.6831   25.9009 C   0  0  0  0  0  0  0  0  0  0  0  0
   11.9712  -16.9556   24.4331 C   0  0  0  0  0  0  0  0  0  0  0  0
   13.3997  -16.9684   24.0642 C   0  0  0  0  0  0  0  0  0  0  0  0
   14.1654  -16.0954   24.5147 O   0  0  0  0  0  0  0  0  0  0  0  0
   10.3970  -16.5002   27.8791 C   0  0  0  0  0  0  0  0  0  0  0  0
   10.6343  -17.6039   28.6723 O   0  0  0  0  0  0  0  0  0  0  0  0
   13.8970  -17.9396   23.2236 O   0  0  0  0  0  0  0  0  0  0  0  0
   10.1242  -15.4234   28.5100 O   0  0  0  0  0  0  0  0  0  0  0  0
  1  2  1  0
  2  3  1  0
  3  5  1  0
  3  4  1  1
  5  6  1  6
  7  5  1  0
  7  8  2  0
 10  9  1  6
 10 12  1  0
 11 10  1  0
 12 13  1  6
 13  7  1  0
 14 12  1  0
 15 14  2  0
 16 14  1  0
 17 18  1  1
 17 16  1  0
 18 19  1  0
 20 21  2  0
 20 19  1  0
 22 17  1  0
 23 22  1  0
 24 20  1  0
 25 22  2  0
M  END
$$$$
