IVE.pdb
     RDKit          3D

 25 24  0  0  1  0  0  0  0  0999 V2000
    6.8948  -11.2321   27.6148 C   0  0  0  0  0  0  0  0  0  0  0  0
    6.1443  -12.3977   27.0347 C   0  0  0  0  0  0  0  0  0  0  0  0
    7.0858  -13.3289   26.2665 C   0  0  2  0  0  0  0  0  0  0  0  0
    7.9956  -12.4377   25.4573 C   0  0  0  0  0  0  0  0  0  0  0  0
    6.2590  -14.1888   25.3151 C   0  0  2  0  0  0  0  0  0  0  0  0
    5.3841  -14.9862   26.1493 N   0  0  0  0  0  0  0  0  0  0  0  0
    7.1198  -15.0887   24.5168 C   0  0  0  0  0  0  0  0  0  0  0  0
    7.3867  -16.2195   24.9859 O   0  0  0  0  0  0  0  0  0  0  0  0
    7.2717  -14.7668   20.4672 C   0  0  0  0  0  0  0  0  0  0  0  0
    8.6115  -15.0092   21.0731 C   0  0  2  0  0  0  0  0  0  0  0  0
    9.3272  -16.0438   20.2246 C   0  0  0  0  0  0  0  0  0  0  0  0
    8.5344  -15.5667   22.4795 C   0  0  2  0  0  0  0  0  0  0  0  0
    7.6582  -14.7495   23.2585 N   0  0  0  0  0  0  0  0  0  0  0  0
    9.8446  -15.8020   23.0785 C   0  0  0  0  0  0  0  0  0  0  0  0
   10.6972  -14.8802   23.1001 O   0  0  0  0  0  0  0  0  0  0  0  0
   10.2322  -17.0394   23.6556 N   0  0  0  0  0  0  0  0  0  0  0  0
   11.6393  -17.3335   23.9821 C   0  0  1  0  0  0  0  0  0  0  0  0
   11.7636  -18.8190   23.9689 C   0  0  0  0  0  0  0  0  0  0  0  0
   12.5226  -19.4091   25.1174 C   0  0  0  0  0  0  0  0  0  0  0  0
   12.5803  -20.8742   24.9522 C   0  0  0  0  0  0  0  0  0  0  0  0
   11.9261  -21.6115   25.7136 O   0  0  0  0  0  0  0  0  0  0  0  0
   12.5213  -16.6846   23.0062 C   0  0  0  0  0  0  0  0  0  0  0  0
   13.5159  -15.8078   23.3878 O   0  0  0  0  0  0  0  0  0  0  0  0
   13.3534  -21.4369   23.9607 O   0  0  0  0  0  0  0  0  0  0  0  0
   12.4258  -16.8876   21.7486 O   0  0  0  0  0  0  0  0  0  0  0  0
  1  2  1  0
  2  3  1  0
  3  5  1  0
  3  4  1  6
  5  6  1  1
  7  5  1  0
  7  8  2  0
 10  9  1  6
 10 12  1  0
 11 10  1  0
 12 13  1  1
 13  7  1  0
 14 12  1  0
 15 14  2  0
 16 14  1  0
 17 18  1  6
 17 16  1  0
 18 19  1  0
 20 21  2  0
 20 19  1  0
 22 17  1  0
 23 22  1  0
 24 20  1  0
 25 22  2  0
M  END
$$$$
