IVE.pdb
     RDKit          3D

 25 24  0  0  1  0  0  0  0  0999 V2000
    6.3674  -18.6839   20.2661 C   0  0  0  0  0  0  0  0  0  0  0  0
    6.2088  -17.1930   20.3685 C   0  0  0  0  0  0  0  0  0  0  0  0
    6.9916  -16.6387   21.5616 C   0  0  2  0  0  0  0  0  0  0  0  0
    6.5060  -17.3935   22.7744 C   0  0  0  0  0  0  0  0  0  0  0  0
    6.6525  -15.1604   21.7285 C   0  0  2  0  0  0  0  0  0  0  0  0
    6.9417  -14.5339   20.4553 N   0  0  0  0  0  0  0  0  0  0  0  0
    7.4849  -14.5321   22.7776 C   0  0  0  0  0  0  0  0  0  0  0  0
    8.6973  -14.3354   22.5299 O   0  0  0  0  0  0  0  0  0  0  0  0
    5.9372  -11.8294   25.2936 C   0  0  0  0  0  0  0  0  0  0  0  0
    6.8324  -12.7816   26.0098 C   0  0  2  0  0  0  0  0  0  0  0  0
    7.7045  -11.9793   26.9577 C   0  0  0  0  0  0  0  0  0  0  0  0
    7.7634  -13.5334   25.0809 C   0  0  2  0  0  0  0  0  0  0  0  0
    6.9947  -14.1411   24.0407 N   0  0  0  0  0  0  0  0  0  0  0  0
    8.6682  -14.4395   25.7817 C   0  0  0  0  0  0  0  0  0  0  0  0
    8.3908  -14.8251   26.9442 O   0  0  0  0  0  0  0  0  0  0  0  0
    9.8768  -14.9293   25.2215 N   0  0  0  0  0  0  0  0  0  0  0  0
   10.7019  -15.9321   25.9189 C   0  0  1  0  0  0  0  0  0  0  0  0
    9.9217  -17.2020   25.8871 C   0  0  0  0  0  0  0  0  0  0  0  0
   10.6410  -18.4096   26.4046 C   0  0  0  0  0  0  0  0  0  0  0  0
    9.8063  -19.0618   27.4317 C   0  0  0  0  0  0  0  0  0  0  0  0
    8.6637  -18.6277   27.6712 O   0  0  0  0  0  0  0  0  0  0  0  0
   12.0038  -16.0529   25.2542 C   0  0  0  0  0  0  0  0  0  0  0  0
   12.3061  -15.3537   24.1038 O   0  0  0  0  0  0  0  0  0  0  0  0
   10.2796  -20.1500   28.1310 O   0  0  0  0  0  0  0  0  0  0  0  0
   12.9352  -16.8085   25.6940 O   0  0  0  0  0  0  0  0  0  0  0  0
  1  2  1  0
  2  3  1  0
  3  5  1  0
  3  4  1  1
  5  6  1  6
  7  5  1  0
  7  8  2  0
 10  9  1  6
 10 12  1  0
 11 10  1  0
 12 13  1  6
 13  7  1  0
 14 12  1  0
 15 14  2  0
 16 14  1  0
 17 18  1  6
 17 16  1  0
 18 19  1  0
 20 21  2  0
 20 19  1  0
 22 17  1  0
 23 22  1  0
 24 20  1  0
 25 22  2  0
M  END
$$$$
