IVE.pdb
     RDKit          3D

 25 24  0  0  1  0  0  0  0  0999 V2000
    7.0577  -11.1422   27.2323 C   0  0  0  0  0  0  0  0  0  0  0  0
    7.1908  -12.6385   27.2758 C   0  0  0  0  0  0  0  0  0  0  0  0
    6.6190  -13.2773   26.0075 C   0  0  2  0  0  0  0  0  0  0  0  0
    5.1457  -12.9517   25.9966 C   0  0  0  0  0  0  0  0  0  0  0  0
    6.7922  -14.7905   26.0978 C   0  0  2  0  0  0  0  0  0  0  0  0
    7.8695  -15.0179   27.0385 N   0  0  0  0  0  0  0  0  0  0  0  0
    7.1627  -15.3693   24.7879 C   0  0  0  0  0  0  0  0  0  0  0  0
    6.6497  -16.4645   24.4603 O   0  0  0  0  0  0  0  0  0  0  0  0
    6.6359  -14.1692   21.5228 C   0  0  0  0  0  0  0  0  0  0  0  0
    8.0947  -14.4730   21.5047 C   0  0  2  0  0  0  0  0  0  0  0  0
    8.3941  -15.2494   20.2358 C   0  0  0  0  0  0  0  0  0  0  0  0
    8.5349  -15.3384   22.6675 C   0  0  2  0  0  0  0  0  0  0  0  0
    8.0595  -14.7614   23.8854 N   0  0  0  0  0  0  0  0  0  0  0  0
    9.9625  -15.6424   22.6512 C   0  0  0  0  0  0  0  0  0  0  0  0
   10.7646  -14.9129   23.2850 O   0  0  0  0  0  0  0  0  0  0  0  0
   10.5227  -16.7396   21.9465 N   0  0  0  0  0  0  0  0  0  0  0  0
   11.6953  -17.4709   22.4596 C   0  0  1  0  0  0  0  0  0  0  0  0
   11.2786  -18.0517   23.7679 C   0  0  0  0  0  0  0  0  0  0  0  0
   12.3000  -18.9172   24.4396 C   0  0  0  0  0  0  0  0  0  0  0  0
   11.7930  -19.3162   25.7665 C   0  0  0  0  0  0  0  0  0  0  0  0
   11.3833  -18.4492   26.5614 O   0  0  0  0  0  0  0  0  0  0  0  0
   12.1039  -18.4949   21.4922 C   0  0  0  0  0  0  0  0  0  0  0  0
   11.1924  -19.1481   20.6884 O   0  0  0  0  0  0  0  0  0  0  0  0
   11.7680  -20.6427   26.1365 O   0  0  0  0  0  0  0  0  0  0  0  0
   13.3219  -18.8461   21.3329 O   0  0  0  0  0  0  0  0  0  0  0  0
  1  2  1  0
  2  3  1  0
  3  5  1  0
  3  4  1  1
  5  6  1  1
  7  5  1  0
  7  8  2  0
 10  9  1  1
 10 12  1  0
 11 10  1  0
 12 13  1  1
 13  7  1  0
 14 12  1  0
 15 14  2  0
 16 14  1  0
 17 18  1  1
 17 16  1  0
 18 19  1  0
 20 21  2  0
 20 19  1  0
 22 17  1  0
 23 22  1  0
 24 20  1  0
 25 22  2  0
M  END
$$$$
