IVE.pdb
     RDKit          3D

 25 24  0  0  1  0  0  0  0  0999 V2000
    6.7343  -11.7662   27.9230 C   0  0  0  0  0  0  0  0  0  0  0  0
    5.9840  -12.5473   26.8811 C   0  0  0  0  0  0  0  0  0  0  0  0
    6.9233  -13.4812   26.1136 C   0  0  2  0  0  0  0  0  0  0  0  0
    7.9732  -12.6005   25.4822 C   0  0  0  0  0  0  0  0  0  0  0  0
    6.1315  -14.1779   25.0110 C   0  0  2  0  0  0  0  0  0  0  0  0
    5.0887  -14.9304   25.6770 N   0  0  0  0  0  0  0  0  0  0  0  0
    6.9849  -15.1095   24.2415 C   0  0  0  0  0  0  0  0  0  0  0  0
    7.1588  -16.2636   24.6973 O   0  0  0  0  0  0  0  0  0  0  0  0
    7.2922  -15.1813   20.1856 C   0  0  0  0  0  0  0  0  0  0  0  0
    8.6131  -15.1369   20.8743 C   0  0  2  0  0  0  0  0  0  0  0  0
    9.5494  -16.0862   20.1498 C   0  0  0  0  0  0  0  0  0  0  0  0
    8.5459  -15.5962   22.3163 C   0  0  2  0  0  0  0  0  0  0  0  0
    7.6147  -14.7757   23.0249 N   0  0  0  0  0  0  0  0  0  0  0  0
    9.8580  -15.7147   22.9448 C   0  0  0  0  0  0  0  0  0  0  0  0
   10.5633  -14.6902   23.1185 O   0  0  0  0  0  0  0  0  0  0  0  0
   10.4076  -16.9465   23.3864 N   0  0  0  0  0  0  0  0  0  0  0  0
   11.7883  -17.0395   23.8945 C   0  0  1  0  0  0  0  0  0  0  0  0
   11.7484  -18.0169   25.0195 C   0  0  0  0  0  0  0  0  0  0  0  0
   10.9989  -17.5651   26.2350 C   0  0  0  0  0  0  0  0  0  0  0  0
   11.1053  -18.6036   27.2778 C   0  0  0  0  0  0  0  0  0  0  0  0
   12.2266  -18.9709   27.6766 O   0  0  0  0  0  0  0  0  0  0  0  0
   12.6875  -17.4587   22.8143 C   0  0  0  0  0  0  0  0  0  0  0  0
   14.0499  -17.2482   22.8725 O   0  0  0  0  0  0  0  0  0  0  0  0
    9.9728  -19.1731   27.8167 O   0  0  0  0  0  0  0  0  0  0  0  0
   12.2702  -18.0413   21.7567 O   0  0  0  0  0  0  0  0  0  0  0  0
  1  2  1  0
  2  3  1  0
  3  5  1  0
  3  4  1  6
  5  6  1  1
  7  5  1  0
  7  8  2  0
 10  9  1  6
 10 12  1  0
 11 10  1  0
 12 13  1  1
 13  7  1  0
 14 12  1  0
 15 14  2  0
 16 14  1  0
 17 18  1  1
 17 16  1  0
 18 19  1  0
 20 21  2  0
 20 19  1  0
 22 17  1  0
 23 22  1  0
 24 20  1  0
 25 22  2  0
M  END
$$$$
