IVE.pdb
     RDKit          3D

 25 24  0  0  1  0  0  0  0  0999 V2000
    6.4587  -11.6344   27.9509 C   0  0  0  0  0  0  0  0  0  0  0  0
    5.8425  -12.7027   27.0921 C   0  0  0  0  0  0  0  0  0  0  0  0
    6.9138  -13.4522   26.2958 C   0  0  2  0  0  0  0  0  0  0  0  0
    7.5996  -12.4211   25.4338 C   0  0  0  0  0  0  0  0  0  0  0  0
    6.2305  -14.4769   25.3951 C   0  0  2  0  0  0  0  0  0  0  0  0
    5.5656  -15.4114   26.2793 N   0  0  0  0  0  0  0  0  0  0  0  0
    7.2150  -15.2087   24.5685 C   0  0  0  0  0  0  0  0  0  0  0  0
    7.7469  -16.2342   25.0539 O   0  0  0  0  0  0  0  0  0  0  0  0
    6.9527  -14.9634   20.4854 C   0  0  0  0  0  0  0  0  0  0  0  0
    8.3521  -14.9841   20.9975 C   0  0  2  0  0  0  0  0  0  0  0  0
    9.1679  -15.8863   20.0902 C   0  0  0  0  0  0  0  0  0  0  0  0
    8.4627  -15.5488   22.3988 C   0  0  2  0  0  0  0  0  0  0  0  0
    7.5907  -14.8208   23.2659 N   0  0  0  0  0  0  0  0  0  0  0  0
    9.8404  -15.6584   22.8686 C   0  0  0  0  0  0  0  0  0  0  0  0
   10.5129  -14.6196   23.0821 O   0  0  0  0  0  0  0  0  0  0  0  0
   10.4912  -16.8968   23.1077 N   0  0  0  0  0  0  0  0  0  0  0  0
   11.8619  -16.9588   23.6467 C   0  0  1  0  0  0  0  0  0  0  0  0
   11.8982  -18.1485   24.5444 C   0  0  0  0  0  0  0  0  0  0  0  0
   13.2219  -18.4255   25.1882 C   0  0  0  0  0  0  0  0  0  0  0  0
   13.0599  -19.5168   26.1680 C   0  0  0  0  0  0  0  0  0  0  0  0
   14.0419  -19.9147   26.8227 O   0  0  0  0  0  0  0  0  0  0  0  0
   12.8248  -17.0540   22.5444 C   0  0  0  0  0  0  0  0  0  0  0  0
   12.5281  -17.7103   21.3676 O   0  0  0  0  0  0  0  0  0  0  0  0
   11.8290  -20.1022   26.3666 O   0  0  0  0  0  0  0  0  0  0  0  0
   13.9927  -16.5394   22.6026 O   0  0  0  0  0  0  0  0  0  0  0  0
  1  2  1  0
  2  3  1  0
  3  5  1  0
  3  4  1  6
  5  6  1  1
  7  5  1  0
  7  8  2  0
 10  9  1  6
 10 12  1  0
 11 10  1  0
 12 13  1  1
 13  7  1  0
 14 12  1  0
 15 14  2  0
 16 14  1  0
 17 18  1  1
 17 16  1  0
 18 19  1  0
 20 21  2  0
 20 19  1  0
 22 17  1  0
 23 22  1  0
 24 20  1  0
 25 22  2  0
M  END
$$$$
