IVE.pdb
     RDKit          3D

 25 24  0  0  1  0  0  0  0  0999 V2000
    6.8904  -17.9703   19.5135 C   0  0  0  0  0  0  0  0  0  0  0  0
    7.0034  -16.4980   19.7925 C   0  0  0  0  0  0  0  0  0  0  0  0
    7.4605  -16.2458   21.2316 C   0  0  2  0  0  0  0  0  0  0  0  0
    6.4490  -16.9242   22.1223 C   0  0  0  0  0  0  0  0  0  0  0  0
    7.4311  -14.7443   21.5012 C   0  0  2  0  0  0  0  0  0  0  0  0
    8.2680  -14.1360   20.4879 N   0  0  0  0  0  0  0  0  0  0  0  0
    7.9801  -14.4263   22.8375 C   0  0  0  0  0  0  0  0  0  0  0  0
    9.2133  -14.5581   23.0156 O   0  0  0  0  0  0  0  0  0  0  0  0
    6.3943  -11.6535   25.2891 C   0  0  0  0  0  0  0  0  0  0  0  0
    6.6889  -12.9221   26.0135 C   0  0  2  0  0  0  0  0  0  0  0  0
    7.3458  -12.5641   27.3337 C   0  0  0  0  0  0  0  0  0  0  0  0
    7.6543  -13.8204   25.2679 C   0  0  2  0  0  0  0  0  0  0  0  0
    7.1974  -13.9833   23.9237 N   0  0  0  0  0  0  0  0  0  0  0  0
    7.9416  -15.0668   25.9714 C   0  0  0  0  0  0  0  0  0  0  0  0
    7.2861  -16.1032   25.7007 O   0  0  0  0  0  0  0  0  0  0  0  0
    8.9417  -15.1906   26.9708 N   0  0  0  0  0  0  0  0  0  0  0  0
    9.6509  -16.4621   27.2018 C   0  0  1  0  0  0  0  0  0  0  0  0
   10.4354  -16.7276   25.9622 C   0  0  0  0  0  0  0  0  0  0  0  0
   11.3258  -17.9310   26.0124 C   0  0  0  0  0  0  0  0  0  0  0  0
   12.0255  -18.0643   24.7202 C   0  0  0  0  0  0  0  0  0  0  0  0
   13.1013  -18.6889   24.6580 O   0  0  0  0  0  0  0  0  0  0  0  0
   10.4993  -16.3479   28.3929 C   0  0  0  0  0  0  0  0  0  0  0  0
   10.8290  -15.1260   28.9425 O   0  0  0  0  0  0  0  0  0  0  0  0
   11.4992  -17.5029   23.5779 O   0  0  0  0  0  0  0  0  0  0  0  0
   10.9848  -17.3653   28.9938 O   0  0  0  0  0  0  0  0  0  0  0  0
  1  2  1  0
  2  3  1  0
  3  5  1  0
  3  4  1  1
  5  6  1  6
  7  5  1  0
  7  8  2  0
 10  9  1  6
 10 12  1  0
 11 10  1  0
 12 13  1  6
 13  7  1  0
 14 12  1  0
 15 14  2  0
 16 14  1  0
 17 18  1  6
 17 16  1  0
 18 19  1  0
 20 21  2  0
 20 19  1  0
 22 17  1  0
 23 22  1  0
 24 20  1  0
 25 22  2  0
M  END
$$$$
