IVE.pdb
     RDKit          3D

 25 24  0  0  1  0  0  0  0  0999 V2000
    7.4191  -18.2677   21.4756 C   0  0  0  0  0  0  0  0  0  0  0  0
    7.8128  -16.8176   21.4499 C   0  0  0  0  0  0  0  0  0  0  0  0
    6.5783  -15.9132   21.4886 C   0  0  2  0  0  0  0  0  0  0  0  0
    5.8456  -16.1407   20.1894 C   0  0  0  0  0  0  0  0  0  0  0  0
    7.0355  -14.4589   21.5523 C   0  0  2  0  0  0  0  0  0  0  0  0
    7.9276  -14.2669   20.4278 N   0  0  0  0  0  0  0  0  0  0  0  0
    7.7694  -14.1795   22.8060 C   0  0  0  0  0  0  0  0  0  0  0  0
    9.0216  -14.2117   22.7764 O   0  0  0  0  0  0  0  0  0  0  0  0
    6.4865  -11.6975   25.8036 C   0  0  0  0  0  0  0  0  0  0  0  0
    6.8843  -13.0556   26.2708 C   0  0  2  0  0  0  0  0  0  0  0  0
    7.6548  -12.8958   27.5682 C   0  0  0  0  0  0  0  0  0  0  0  0
    7.7982  -13.7731   25.2988 C   0  0  2  0  0  0  0  0  0  0  0  0
    7.1431  -13.8790   24.0331 N   0  0  0  0  0  0  0  0  0  0  0  0
    8.3230  -15.0304   25.8227 C   0  0  0  0  0  0  0  0  0  0  0  0
    7.5563  -16.0133   25.9749 O   0  0  0  0  0  0  0  0  0  0  0  0
    9.6823  -15.2235   26.1827 N   0  0  0  0  0  0  0  0  0  0  0  0
   10.1814  -16.5307   26.6463 C   0  0  1  0  0  0  0  0  0  0  0  0
   11.4119  -16.8076   25.8515 C   0  0  0  0  0  0  0  0  0  0  0  0
   12.2189  -17.9839   26.3081 C   0  0  0  0  0  0  0  0  0  0  0  0
   13.4046  -18.1182   25.4402 C   0  0  0  0  0  0  0  0  0  0  0  0
   14.3349  -18.8767   25.7726 O   0  0  0  0  0  0  0  0  0  0  0  0
   10.4411  -16.4795   28.0890 C   0  0  0  0  0  0  0  0  0  0  0  0
   10.5939  -17.6225   28.8465 O   0  0  0  0  0  0  0  0  0  0  0  0
   13.4934  -17.4107   24.2618 O   0  0  0  0  0  0  0  0  0  0  0  0
   10.5413  -15.3808   28.7331 O   0  0  0  0  0  0  0  0  0  0  0  0
  1  2  1  0
  2  3  1  0
  3  5  1  0
  3  4  1  6
  5  6  1  6
  7  5  1  0
  7  8  2  0
 10  9  1  6
 10 12  1  0
 11 10  1  0
 12 13  1  6
 13  7  1  0
 14 12  1  0
 15 14  2  0
 16 14  1  0
 17 18  1  6
 17 16  1  0
 18 19  1  0
 20 21  2  0
 20 19  1  0
 22 17  1  0
 23 22  1  0
 24 20  1  0
 25 22  2  0
M  END
$$$$
