IVE.pdb
     RDKit          3D

 25 24  0  0  1  0  0  0  0  0999 V2000
    8.5511  -12.8783   28.2228 C   0  0  0  0  0  0  0  0  0  0  0  0
    7.6375  -13.7988   27.4636 C   0  0  0  0  0  0  0  0  0  0  0  0
    6.9317  -13.0559   26.3262 C   0  0  2  0  0  0  0  0  0  0  0  0
    6.0033  -12.0630   26.9809 C   0  0  0  0  0  0  0  0  0  0  0  0
    6.1036  -14.0559   25.5248 C   0  0  2  0  0  0  0  0  0  0  0  0
    5.4142  -14.8793   26.4964 N   0  0  0  0  0  0  0  0  0  0  0  0
    6.9642  -14.9166   24.6840 C   0  0  0  0  0  0  0  0  0  0  0  0
    7.2146  -16.0757   25.0887 O   0  0  0  0  0  0  0  0  0  0  0  0
    7.1242  -14.3179   20.6873 C   0  0  0  0  0  0  0  0  0  0  0  0
    8.4593  -14.6634   21.2522 C   0  0  2  0  0  0  0  0  0  0  0  0
    9.1067  -15.6809   20.3311 C   0  0  0  0  0  0  0  0  0  0  0  0
    8.3761  -15.2988   22.6248 C   0  0  2  0  0  0  0  0  0  0  0  0
    7.5199  -14.5099   23.4535 N   0  0  0  0  0  0  0  0  0  0  0  0
    9.6835  -15.5944   23.2029 C   0  0  0  0  0  0  0  0  0  0  0  0
    9.9491  -15.2218   24.3724 O   0  0  0  0  0  0  0  0  0  0  0  0
   10.7060  -16.2956   22.5120 N   0  0  0  0  0  0  0  0  0  0  0  0
   11.8878  -16.8289   23.2134 C   0  0  1  0  0  0  0  0  0  0  0  0
   11.3621  -17.7000   24.3030 C   0  0  0  0  0  0  0  0  0  0  0  0
   11.0924  -17.0075   25.6035 C   0  0  0  0  0  0  0  0  0  0  0  0
   10.9492  -18.0212   26.6661 C   0  0  0  0  0  0  0  0  0  0  0  0
   10.4388  -17.7083   27.7584 O   0  0  0  0  0  0  0  0  0  0  0  0
   12.7384  -17.5594   22.2677 C   0  0  0  0  0  0  0  0  0  0  0  0
   14.1148  -17.5501   22.3630 O   0  0  0  0  0  0  0  0  0  0  0  0
   11.3759  -19.3148   26.4617 O   0  0  0  0  0  0  0  0  0  0  0  0
   12.2630  -18.2463   21.3011 O   0  0  0  0  0  0  0  0  0  0  0  0
  1  2  1  0
  2  3  1  0
  3  5  1  0
  3  4  1  1
  5  6  1  1
  7  5  1  0
  7  8  2  0
 10  9  1  6
 10 12  1  0
 11 10  1  0
 12 13  1  1
 13  7  1  0
 14 12  1  0
 15 14  2  0
 16 14  1  0
 17 18  1  1
 17 16  1  0
 18 19  1  0
 20 21  2  0
 20 19  1  0
 22 17  1  0
 23 22  1  0
 24 20  1  0
 25 22  2  0
M  END
$$$$
