MIG.pdb
     RDKit          3D

 21 20  0  0  1  0  0  0  0  0999 V2000
    9.3928  -19.0886   29.0349 C   0  0  0  0  0  0  0  0  0  0  0  0
    8.0695  -20.3227   28.9819 S   0  0  0  0  0  0  0  0  0  0  0  0
    6.8675  -19.9117   27.7080 C   0  0  0  0  0  0  0  0  0  0  0  0
    7.2900  -18.7553   26.8565 C   0  0  0  0  0  0  0  0  0  0  0  0
    6.2571  -18.2516   25.9054 C   0  0  2  0  0  0  0  0  0  0  0  0
    5.7810  -19.2906   25.0328 N   0  0  0  0  0  0  0  0  0  0  0  0
    6.6464  -17.0166   25.2024 C   0  0  0  0  0  0  0  0  0  0  0  0
    6.8770  -17.0787   23.9507 O   0  0  0  0  0  0  0  0  0  0  0  0
    5.6096  -11.9758   27.0061 C   0  0  0  0  0  0  0  0  0  0  0  0
    5.8401  -13.0614   25.9685 C   0  0  0  0  0  0  0  0  0  0  0  0
    7.2902  -13.4417   25.8925 C   0  0  2  0  0  0  0  0  0  0  0  0
    8.1787  -12.2645   25.5660 C   0  0  0  0  0  0  0  0  0  0  0  0
    7.6011  -14.6819   25.1253 C   0  0  2  0  0  0  0  0  0  0  0  0
    6.7954  -15.7382   25.7833 N   0  0  0  0  0  0  0  0  0  0  0  0
    8.9996  -15.1196   25.1404 C   0  0  0  0  0  0  0  0  0  0  0  0
    9.5862  -15.2322   26.2589 O   0  0  0  0  0  0  0  0  0  0  0  0
    9.7646  -15.4344   24.0011 N   0  0  0  0  0  0  0  0  0  0  0  0
   11.1750  -15.7081   24.1572 C   0  0  0  0  0  0  0  0  0  0  0  0
   11.8441  -15.9490   22.8565 C   0  0  0  0  0  0  0  0  0  0  0  0
   13.2148  -16.1615   22.8736 O   0  0  0  0  0  0  0  0  0  0  0  0
   11.2493  -15.9715   21.7531 O   0  0  0  0  0  0  0  0  0  0  0  0
  2  1  1  0
  3  2  1  0
  4  3  1  0
  5  4  1  0
  5  6  1  6
  7  5  1  0
  7 14  1  0
  8  7  2  0
  9 10  1  0
 11 10  1  0
 11 12  1  6
 13 15  1  0
 13 14  1  1
 13 11  1  0
 15 16  2  0
 17 18  1  0
 17 15  1  0
 19 18  1  0
 20 19  1  0
 21 19  2  0
M  END
$$$$
