MIG.pdb
     RDKit          3D

 21 20  0  0  1  0  0  0  0  0999 V2000
   10.7946  -14.2763   29.9711 C   0  0  0  0  0  0  0  0  0  0  0  0
   11.5750  -15.8889   29.7116 S   0  0  0  0  0  0  0  0  0  0  0  0
   10.3796  -17.0811   29.0901 C   0  0  0  0  0  0  0  0  0  0  0  0
    9.1159  -16.4428   28.6035 C   0  0  0  0  0  0  0  0  0  0  0  0
    8.1932  -17.3437   27.8537 C   0  0  2  0  0  0  0  0  0  0  0  0
    8.7570  -18.6535   27.6686 N   0  0  0  0  0  0  0  0  0  0  0  0
    7.6530  -16.7489   26.6186 C   0  0  0  0  0  0  0  0  0  0  0  0
    6.8391  -17.4369   25.9201 O   0  0  0  0  0  0  0  0  0  0  0  0
    6.3697  -11.6049   26.3771 C   0  0  0  0  0  0  0  0  0  0  0  0
    6.1067  -13.0048   25.8483 C   0  0  0  0  0  0  0  0  0  0  0  0
    7.2582  -13.4989   25.0217 C   0  0  2  0  0  0  0  0  0  0  0  0
    7.4357  -12.7063   23.7481 C   0  0  0  0  0  0  0  0  0  0  0  0
    7.3506  -14.9769   24.8475 C   0  0  2  0  0  0  0  0  0  0  0  0
    7.9493  -15.4640   26.1132 N   0  0  0  0  0  0  0  0  0  0  0  0
    8.1977  -15.4481   23.7484 C   0  0  0  0  0  0  0  0  0  0  0  0
    7.8189  -15.2329   22.5576 O   0  0  0  0  0  0  0  0  0  0  0  0
    9.4200  -16.1302   23.8998 N   0  0  0  0  0  0  0  0  0  0  0  0
   10.1912  -16.4570   22.7221 C   0  0  0  0  0  0  0  0  0  0  0  0
   11.5339  -15.8292   22.7424 C   0  0  0  0  0  0  0  0  0  0  0  0
   12.2464  -15.8075   21.5523 O   0  0  0  0  0  0  0  0  0  0  0  0
   12.0579  -15.3218   23.7621 O   0  0  0  0  0  0  0  0  0  0  0  0
  2  1  1  0
  3  2  1  0
  4  3  1  0
  5  4  1  0
  5  6  1  6
  7  5  1  0
  7 14  1  0
  8  7  2  0
  9 10  1  0
 11 10  1  0
 11 12  1  6
 13 15  1  0
 13 14  1  1
 13 11  1  0
 15 16  2  0
 17 18  1  0
 17 15  1  0
 19 18  1  0
 20 19  1  0
 21 19  2  0
M  END
$$$$
