MIG.pdb
     RDKit          3D

 21 20  0  0  1  0  0  0  0  0999 V2000
   10.1915  -14.1770   29.0436 C   0  0  0  0  0  0  0  0  0  0  0  0
   11.2815  -15.5803   29.3893 S   0  0  0  0  0  0  0  0  0  0  0  0
   10.4369  -17.1358   29.0674 C   0  0  0  0  0  0  0  0  0  0  0  0
    9.9522  -17.2569   27.6563 C   0  0  0  0  0  0  0  0  0  0  0  0
    8.4734  -17.3704   27.4965 C   0  0  2  0  0  0  0  0  0  0  0  0
    8.0243  -18.7306   27.6217 N   0  0  0  0  0  0  0  0  0  0  0  0
    7.9478  -16.6777   26.3070 C   0  0  0  0  0  0  0  0  0  0  0  0
    7.3852  -17.3734   25.3997 O   0  0  0  0  0  0  0  0  0  0  0  0
    6.0820  -11.6831   26.5941 C   0  0  0  0  0  0  0  0  0  0  0  0
    6.0097  -13.0297   25.8942 C   0  0  0  0  0  0  0  0  0  0  0  0
    7.2458  -13.2876   25.0826 C   0  0  2  0  0  0  0  0  0  0  0  0
    7.3650  -12.3540   23.9011 C   0  0  0  0  0  0  0  0  0  0  0  0
    7.5376  -14.7167   24.7726 C   0  0  2  0  0  0  0  0  0  0  0  0
    8.0031  -15.2888   26.0586 N   0  0  0  0  0  0  0  0  0  0  0  0
    8.5830  -14.9631   23.7756 C   0  0  0  0  0  0  0  0  0  0  0  0
    8.2622  -14.9580   22.5489 O   0  0  0  0  0  0  0  0  0  0  0  0
    9.9391  -15.2079   24.0641 N   0  0  0  0  0  0  0  0  0  0  0  0
   10.8702  -15.3710   22.9710 C   0  0  0  0  0  0  0  0  0  0  0  0
   11.3343  -16.7725   22.8375 C   0  0  0  0  0  0  0  0  0  0  0  0
   12.6897  -17.0148   23.0066 O   0  0  0  0  0  0  0  0  0  0  0  0
   10.5809  -17.7417   22.5832 O   0  0  0  0  0  0  0  0  0  0  0  0
  2  1  1  0
  3  2  1  0
  4  3  1  0
  5  4  1  0
  5  6  1  6
  7  5  1  0
  7 14  1  0
  8  7  2  0
  9 10  1  0
 11 10  1  0
 11 12  1  6
 13 15  1  0
 13 14  1  1
 13 11  1  0
 15 16  2  0
 17 18  1  0
 17 15  1  0
 19 18  1  0
 20 19  1  0
 21 19  2  0
M  END
$$$$
