MIG.pdb
     RDKit          3D

 21 20  0  0  1  0  0  0  0  0999 V2000
    7.2154  -11.0089   26.1269 C   0  0  0  0  0  0  0  0  0  0  0  0
    6.4363  -12.0877   27.3541 S   0  0  0  0  0  0  0  0  0  0  0  0
    7.0681  -13.7665   27.2172 C   0  0  0  0  0  0  0  0  0  0  0  0
    6.5917  -14.4721   25.9859 C   0  0  0  0  0  0  0  0  0  0  0  0
    7.5587  -15.4386   25.3893 C   0  0  2  0  0  0  0  0  0  0  0  0
    8.9170  -15.1213   25.7385 N   0  0  0  0  0  0  0  0  0  0  0  0
    7.3544  -15.6734   23.9491 C   0  0  0  0  0  0  0  0  0  0  0  0
    6.2652  -16.2169   23.5721 O   0  0  0  0  0  0  0  0  0  0  0  0
    7.5732  -11.9297   20.6875 C   0  0  0  0  0  0  0  0  0  0  0  0
    7.2165  -13.2583   21.3327 C   0  0  0  0  0  0  0  0  0  0  0  0
    8.0619  -14.3721   20.7866 C   0  0  2  0  0  0  0  0  0  0  0  0
    7.9803  -14.4732   19.2817 C   0  0  0  0  0  0  0  0  0  0  0  0
    7.9625  -15.6777   21.4999 C   0  0  2  0  0  0  0  0  0  0  0  0
    8.2609  -15.3522   22.9151 N   0  0  0  0  0  0  0  0  0  0  0  0
    8.9033  -16.7194   21.0786 C   0  0  0  0  0  0  0  0  0  0  0  0
    8.7215  -17.2807   19.9563 O   0  0  0  0  0  0  0  0  0  0  0  0
   10.0142  -17.1599   21.8230 N   0  0  0  0  0  0  0  0  0  0  0  0
   10.9458  -18.0814   21.2136 C   0  0  0  0  0  0  0  0  0  0  0  0
   12.0879  -18.3922   22.1060 C   0  0  0  0  0  0  0  0  0  0  0  0
   12.7574  -19.5883   21.8927 O   0  0  0  0  0  0  0  0  0  0  0  0
   12.4800  -17.6447   23.0330 O   0  0  0  0  0  0  0  0  0  0  0  0
  2  1  1  0
  3  2  1  0
  4  3  1  0
  5  4  1  0
  5  6  1  6
  7  5  1  0
  7 14  1  0
  8  7  2  0
  9 10  1  0
 11 10  1  0
 11 12  1  6
 13 15  1  0
 13 14  1  1
 13 11  1  0
 15 16  2  0
 17 18  1  0
 17 15  1  0
 19 18  1  0
 20 19  1  0
 21 19  2  0
M  END
$$$$
