MIG.pdb
     RDKit          3D

 21 20  0  0  1  0  0  0  0  0999 V2000
    8.0097  -19.0096   28.6719 C   0  0  0  0  0  0  0  0  0  0  0  0
    6.3904  -19.3569   27.9411 S   0  0  0  0  0  0  0  0  0  0  0  0
    6.5687  -20.3007   26.4199 C   0  0  0  0  0  0  0  0  0  0  0  0
    7.0312  -19.4674   25.2655 C   0  0  0  0  0  0  0  0  0  0  0  0
    6.0638  -18.4333   24.7964 C   0  0  2  0  0  0  0  0  0  0  0  0
    5.2045  -18.9358   23.7588 N   0  0  0  0  0  0  0  0  0  0  0  0
    6.6862  -17.1365   24.4771 C   0  0  0  0  0  0  0  0  0  0  0  0
    7.0914  -16.9357   23.2857 O   0  0  0  0  0  0  0  0  0  0  0  0
    5.6311  -12.5330   27.0734 C   0  0  0  0  0  0  0  0  0  0  0  0
    6.0178  -13.3872   25.8778 C   0  0  0  0  0  0  0  0  0  0  0  0
    7.4379  -13.8615   25.9851 C   0  0  2  0  0  0  0  0  0  0  0  0
    8.4240  -12.7191   26.0502 C   0  0  0  0  0  0  0  0  0  0  0  0
    7.8300  -14.9643   25.0613 C   0  0  2  0  0  0  0  0  0  0  0  0
    6.8873  -16.0648   25.3742 N   0  0  0  0  0  0  0  0  0  0  0  0
    9.1892  -15.4891   25.2189 C   0  0  0  0  0  0  0  0  0  0  0  0
    9.6852  -15.5437   26.3845 O   0  0  0  0  0  0  0  0  0  0  0  0
   10.0089  -15.9491   24.1707 N   0  0  0  0  0  0  0  0  0  0  0  0
   11.3342  -16.4361   24.4790 C   0  0  0  0  0  0  0  0  0  0  0  0
   12.3910  -15.6384   23.8123 C   0  0  0  0  0  0  0  0  0  0  0  0
   13.4973  -15.2843   24.5707 O   0  0  0  0  0  0  0  0  0  0  0  0
   12.3437  -15.2689   22.6153 O   0  0  0  0  0  0  0  0  0  0  0  0
  2  1  1  0
  3  2  1  0
  4  3  1  0
  5  4  1  0
  5  6  1  6
  7  5  1  0
  7 14  1  0
  8  7  2  0
  9 10  1  0
 11 10  1  0
 11 12  1  6
 13 15  1  0
 13 14  1  1
 13 11  1  0
 15 16  2  0
 17 18  1  0
 17 15  1  0
 19 18  1  0
 20 19  1  0
 21 19  2  0
M  END
$$$$
