MIG.pdb
     RDKit          3D

 21 20  0  0  1  0  0  0  0  0999 V2000
    8.4232  -11.5574   19.0897 C   0  0  0  0  0  0  0  0  0  0  0  0
    7.5238  -12.9296   18.3248 S   0  0  0  0  0  0  0  0  0  0  0  0
    7.4113  -14.3247   19.4552 C   0  0  0  0  0  0  0  0  0  0  0  0
    8.4695  -14.3064   20.5137 C   0  0  0  0  0  0  0  0  0  0  0  0
    8.4640  -15.4739   21.4424 C   0  0  2  0  0  0  0  0  0  0  0  0
    7.2272  -16.2044   21.3765 N   0  0  0  0  0  0  0  0  0  0  0  0
    8.8884  -15.1455   22.8146 C   0  0  0  0  0  0  0  0  0  0  0  0
   10.0751  -14.7184   22.9963 O   0  0  0  0  0  0  0  0  0  0  0  0
    6.8487  -12.3630   27.6316 C   0  0  0  0  0  0  0  0  0  0  0  0
    7.9526  -13.3038   27.1791 C   0  0  0  0  0  0  0  0  0  0  0  0
    7.5881  -13.9922   25.8959 C   0  0  2  0  0  0  0  0  0  0  0  0
    6.2049  -14.5978   25.9393 C   0  0  0  0  0  0  0  0  0  0  0  0
    8.6334  -14.8803   25.3112 C   0  0  2  0  0  0  0  0  0  0  0  0
    8.0995  -15.2572   23.9805 N   0  0  0  0  0  0  0  0  0  0  0  0
    8.9133  -16.1196   26.0417 C   0  0  0  0  0  0  0  0  0  0  0  0
    8.0109  -17.0089   26.0923 O   0  0  0  0  0  0  0  0  0  0  0  0
   10.1196  -16.4174   26.7038 N   0  0  0  0  0  0  0  0  0  0  0  0
   10.2938  -17.7277   27.2879 C   0  0  0  0  0  0  0  0  0  0  0  0
   10.3906  -17.6715   28.7661 C   0  0  0  0  0  0  0  0  0  0  0  0
   10.6209  -18.8639   29.4364 O   0  0  0  0  0  0  0  0  0  0  0  0
   10.2776  -16.6196   29.4388 O   0  0  0  0  0  0  0  0  0  0  0  0
  2  1  1  0
  3  2  1  0
  4  3  1  0
  5  4  1  0
  5  6  1  1
  7  5  1  0
  7 14  1  0
  8  7  2  0
  9 10  1  0
 11 10  1  0
 11 12  1  1
 13 15  1  0
 13 14  1  6
 13 11  1  0
 15 16  2  0
 17 18  1  0
 17 15  1  0
 19 18  1  0
 20 19  1  0
 21 19  2  0
M  END
$$$$
