MIG.pdb
     RDKit          3D

 21 20  0  0  1  0  0  0  0  0999 V2000
    6.6104  -10.8496   26.8221 C   0  0  0  0  0  0  0  0  0  0  0  0
    6.7311  -12.2282   27.9890 S   0  0  0  0  0  0  0  0  0  0  0  0
    6.1643  -13.7567   27.2281 C   0  0  0  0  0  0  0  0  0  0  0  0
    7.1197  -14.2910   26.2071 C   0  0  0  0  0  0  0  0  0  0  0  0
    6.6461  -15.4888   25.4545 C   0  0  2  0  0  0  0  0  0  0  0  0
    6.3880  -16.6019   26.3275 N   0  0  0  0  0  0  0  0  0  0  0  0
    7.4808  -15.8284   24.2888 C   0  0  0  0  0  0  0  0  0  0  0  0
    8.0653  -16.9605   24.2710 O   0  0  0  0  0  0  0  0  0  0  0  0
    8.4659  -12.3623   19.7578 C   0  0  0  0  0  0  0  0  0  0  0  0
    8.7514  -13.2065   20.9883 C   0  0  0  0  0  0  0  0  0  0  0  0
    8.0989  -14.5544   20.8862 C   0  0  2  0  0  0  0  0  0  0  0  0
    6.6275  -14.4594   20.5582 C   0  0  0  0  0  0  0  0  0  0  0  0
    8.4289  -15.5239   21.9700 C   0  0  2  0  0  0  0  0  0  0  0  0
    7.7083  -15.0112   23.1599 N   0  0  0  0  0  0  0  0  0  0  0  0
    9.8455  -15.6387   22.3274 C   0  0  0  0  0  0  0  0  0  0  0  0
   10.3582  -14.7427   23.0637 O   0  0  0  0  0  0  0  0  0  0  0  0
   10.7046  -16.6769   21.9195 N   0  0  0  0  0  0  0  0  0  0  0  0
   12.0862  -16.6509   22.3427 C   0  0  0  0  0  0  0  0  0  0  0  0
   12.9868  -16.1490   21.2777 C   0  0  0  0  0  0  0  0  0  0  0  0
   14.3349  -16.0332   21.5840 O   0  0  0  0  0  0  0  0  0  0  0  0
   12.6051  -15.8262   20.1280 O   0  0  0  0  0  0  0  0  0  0  0  0
  2  1  1  0
  3  2  1  0
  4  3  1  0
  5  4  1  0
  5  6  1  1
  7  5  1  0
  7 14  1  0
  8  7  2  0
  9 10  1  0
 11 10  1  0
 11 12  1  1
 13 15  1  0
 13 14  1  1
 13 11  1  0
 15 16  2  0
 17 18  1  0
 17 15  1  0
 19 18  1  0
 20 19  1  0
 21 19  2  0
M  END
$$$$
