MIG.pdb
     RDKit          3D

 21 20  0  0  1  0  0  0  0  0999 V2000
   10.8566  -14.6058   28.5068 C   0  0  0  0  0  0  0  0  0  0  0  0
   10.5646  -15.7301   29.8951 S   0  0  0  0  0  0  0  0  0  0  0  0
   10.2320  -17.3966   29.3046 C   0  0  0  0  0  0  0  0  0  0  0  0
    9.7548  -17.4300   27.8862 C   0  0  0  0  0  0  0  0  0  0  0  0
    8.2734  -17.4420   27.7109 C   0  0  2  0  0  0  0  0  0  0  0  0
    7.7177  -18.7479   27.9417 N   0  0  0  0  0  0  0  0  0  0  0  0
    7.8166  -16.8141   26.4586 C   0  0  0  0  0  0  0  0  0  0  0  0
    7.3949  -17.5676   25.5215 O   0  0  0  0  0  0  0  0  0  0  0  0
    5.8059  -12.0520   26.4913 C   0  0  0  0  0  0  0  0  0  0  0  0
    5.8410  -13.3760   25.7468 C   0  0  0  0  0  0  0  0  0  0  0  0
    7.1170  -13.5299   24.9713 C   0  0  2  0  0  0  0  0  0  0  0  0
    7.1284  -12.6998   23.7093 C   0  0  0  0  0  0  0  0  0  0  0  0
    7.6114  -14.9258   24.7971 C   0  0  2  0  0  0  0  0  0  0  0  0
    7.7964  -15.4302   26.1789 N   0  0  0  0  0  0  0  0  0  0  0  0
    8.8897  -15.0778   24.0969 C   0  0  0  0  0  0  0  0  0  0  0  0
    9.9028  -14.4622   24.5468 O   0  0  0  0  0  0  0  0  0  0  0  0
    9.0978  -15.8636   22.9473 N   0  0  0  0  0  0  0  0  0  0  0  0
   10.3958  -15.8471   22.3122 C   0  0  0  0  0  0  0  0  0  0  0  0
   10.4138  -16.6382   21.0586 C   0  0  0  0  0  0  0  0  0  0  0  0
   11.2696  -16.2178   20.0510 O   0  0  0  0  0  0  0  0  0  0  0  0
    9.7079  -17.6546   20.8580 O   0  0  0  0  0  0  0  0  0  0  0  0
  2  1  1  0
  3  2  1  0
  4  3  1  0
  5  4  1  0
  5  6  1  6
  7  5  1  0
  7 14  1  0
  8  7  2  0
  9 10  1  0
 11 10  1  0
 11 12  1  6
 13 15  1  0
 13 14  1  1
 13 11  1  0
 15 16  2  0
 17 18  1  0
 17 15  1  0
 19 18  1  0
 20 19  1  0
 21 19  2  0
M  END
$$$$
