MIG.pdb
     RDKit          3D

 21 20  0  0  1  0  0  0  0  0999 V2000
    8.2625  -12.6209   18.3422 C   0  0  0  0  0  0  0  0  0  0  0  0
    6.6567  -12.7120   19.1729 S   0  0  0  0  0  0  0  0  0  0  0  0
    6.7102  -13.8887   20.5327 C   0  0  0  0  0  0  0  0  0  0  0  0
    7.9945  -14.6553   20.5924 C   0  0  0  0  0  0  0  0  0  0  0  0
    8.1118  -15.6173   21.7266 C   0  0  2  0  0  0  0  0  0  0  0  0
    6.8732  -16.3038   21.9764 N   0  0  0  0  0  0  0  0  0  0  0  0
    8.7267  -15.0411   22.9353 C   0  0  0  0  0  0  0  0  0  0  0  0
    9.8918  -14.5340   22.8397 O   0  0  0  0  0  0  0  0  0  0  0  0
    5.7882  -12.3294   26.5329 C   0  0  0  0  0  0  0  0  0  0  0  0
    6.9545  -12.6986   25.6319 C   0  0  0  0  0  0  0  0  0  0  0  0
    7.7659  -13.8147   26.2229 C   0  0  2  0  0  0  0  0  0  0  0  0
    8.1769  -13.5360   27.6495 C   0  0  0  0  0  0  0  0  0  0  0  0
    8.8548  -14.3581   25.3612 C   0  0  2  0  0  0  0  0  0  0  0  0
    8.1473  -14.9902   24.2220 N   0  0  0  0  0  0  0  0  0  0  0  0
    9.7135  -15.3786   25.9687 C   0  0  0  0  0  0  0  0  0  0  0  0
   10.5875  -15.0107   26.8104 O   0  0  0  0  0  0  0  0  0  0  0  0
    9.6519  -16.7586   25.6969 N   0  0  0  0  0  0  0  0  0  0  0  0
   10.5777  -17.6464   26.3628 C   0  0  0  0  0  0  0  0  0  0  0  0
    9.9848  -18.2666   27.5716 C   0  0  0  0  0  0  0  0  0  0  0  0
    8.6709  -17.9423   27.8762 O   0  0  0  0  0  0  0  0  0  0  0  0
   10.5954  -19.0593   28.3270 O   0  0  0  0  0  0  0  0  0  0  0  0
  2  1  1  0
  3  2  1  0
  4  3  1  0
  5  4  1  0
  5  6  1  1
  7  5  1  0
  7 14  1  0
  8  7  2  0
  9 10  1  0
 11 10  1  0
 11 12  1  1
 13 15  1  0
 13 14  1  6
 13 11  1  0
 15 16  2  0
 17 18  1  0
 17 15  1  0
 19 18  1  0
 20 19  1  0
 21 19  2  0
M  END
$$$$
