MIG.pdb
     RDKit          3D

 21 20  0  0  1  0  0  0  0  0999 V2000
    8.0135  -12.6763   18.2285 C   0  0  0  0  0  0  0  0  0  0  0  0
    7.7613  -14.4428   17.9239 S   0  0  0  0  0  0  0  0  0  0  0  0
    7.0949  -15.2513   19.3864 C   0  0  0  0  0  0  0  0  0  0  0  0
    7.5095  -14.5867   20.6621 C   0  0  0  0  0  0  0  0  0  0  0  0
    6.9903  -15.2189   21.9095 C   0  0  2  0  0  0  0  0  0  0  0  0
    5.5907  -15.5325   21.8080 N   0  0  0  0  0  0  0  0  0  0  0  0
    7.3491  -14.4918   23.1397 C   0  0  0  0  0  0  0  0  0  0  0  0
    7.3526  -13.2178   23.1117 O   0  0  0  0  0  0  0  0  0  0  0  0
    5.9572  -12.4585   27.1708 C   0  0  0  0  0  0  0  0  0  0  0  0
    6.7764  -12.9089   25.9731 C   0  0  0  0  0  0  0  0  0  0  0  0
    7.8662  -13.8555   26.3848 C   0  0  2  0  0  0  0  0  0  0  0  0
    8.6685  -13.3371   27.5550 C   0  0  0  0  0  0  0  0  0  0  0  0
    8.6861  -14.4286   25.2791 C   0  0  2  0  0  0  0  0  0  0  0  0
    7.6992  -15.0715   24.3788 N   0  0  0  0  0  0  0  0  0  0  0  0
    9.6660  -15.4492   25.6609 C   0  0  0  0  0  0  0  0  0  0  0  0
    9.2958  -16.3842   26.4332 O   0  0  0  0  0  0  0  0  0  0  0  0
   11.0079  -15.4860   25.2365 N   0  0  0  0  0  0  0  0  0  0  0  0
   11.8817  -16.5102   25.7619 C   0  0  0  0  0  0  0  0  0  0  0  0
   13.2249  -16.4729   25.1359 C   0  0  0  0  0  0  0  0  0  0  0  0
   13.7135  -17.6566   24.6026 O   0  0  0  0  0  0  0  0  0  0  0  0
   13.9378  -15.4444   25.0612 O   0  0  0  0  0  0  0  0  0  0  0  0
  2  1  1  0
  3  2  1  0
  4  3  1  0
  5  4  1  0
  5  6  1  6
  7  5  1  0
  7 14  1  0
  8  7  2  0
  9 10  1  0
 11 10  1  0
 11 12  1  1
 13 15  1  0
 13 14  1  6
 13 11  1  0
 15 16  2  0
 17 18  1  0
 17 15  1  0
 19 18  1  0
 20 19  1  0
 21 19  2  0
M  END
$$$$
