MIG.pdb
     RDKit          3D

 21 20  0  0  1  0  0  0  0  0999 V2000
    7.0430  -21.5833   20.9580 C   0  0  0  0  0  0  0  0  0  0  0  0
    7.4332  -22.1285   19.2766 S   0  0  0  0  0  0  0  0  0  0  0  0
    7.5147  -20.7238   18.1556 C   0  0  0  0  0  0  0  0  0  0  0  0
    8.4013  -19.6266   18.6564 C   0  0  0  0  0  0  0  0  0  0  0  0
    8.3676  -18.3650   17.8610 C   0  0  2  0  0  0  0  0  0  0  0  0
    8.9447  -18.5398   16.5556 N   0  0  0  0  0  0  0  0  0  0  0  0
    8.8815  -17.1897   18.5860 C   0  0  0  0  0  0  0  0  0  0  0  0
   10.0981  -16.8536   18.4105 O   0  0  0  0  0  0  0  0  0  0  0  0
    8.7733  -12.0759   19.9181 C   0  0  0  0  0  0  0  0  0  0  0  0
    8.0899  -12.9331   20.9701 C   0  0  0  0  0  0  0  0  0  0  0  0
    7.6870  -14.2654   20.4080 C   0  0  2  0  0  0  0  0  0  0  0  0
    6.4711  -14.8382   21.0974 C   0  0  0  0  0  0  0  0  0  0  0  0
    8.7913  -15.2432   20.1894 C   0  0  2  0  0  0  0  0  0  0  0  0
    8.1505  -16.3752   19.4782 N   0  0  0  0  0  0  0  0  0  0  0  0
    9.4274  -15.7822   21.3946 C   0  0  0  0  0  0  0  0  0  0  0  0
    8.6925  -16.0855   22.3824 O   0  0  0  0  0  0  0  0  0  0  0  0
   10.8090  -15.9995   21.5559 N   0  0  0  0  0  0  0  0  0  0  0  0
   11.3002  -16.4751   22.8291 C   0  0  0  0  0  0  0  0  0  0  0  0
   12.7156  -16.0986   23.0573 C   0  0  0  0  0  0  0  0  0  0  0  0
   13.2791  -16.4435   24.2771 O   0  0  0  0  0  0  0  0  0  0  0  0
   13.4260  -15.4927   22.2206 O   0  0  0  0  0  0  0  0  0  0  0  0
  2  1  1  0
  3  2  1  0
  4  3  1  0
  5  4  1  0
  5  6  1  6
  7  5  1  0
  7 14  1  0
  8  7  2  0
  9 10  1  0
 11 10  1  0
 11 12  1  1
 13 15  1  0
 13 14  1  1
 13 11  1  0
 15 16  2  0
 17 18  1  0
 17 15  1  0
 19 18  1  0
 20 19  1  0
 21 19  2  0
M  END
$$$$
