MIG.pdb
     RDKit          3D

 21 20  0  0  1  0  0  0  0  0999 V2000
   10.6930  -14.7250   30.7187 C   0  0  0  0  0  0  0  0  0  0  0  0
   10.1371  -15.2427   29.0756 S   0  0  0  0  0  0  0  0  0  0  0  0
   10.0314  -17.0359   28.9760 C   0  0  0  0  0  0  0  0  0  0  0  0
    9.4940  -17.5180   27.6647 C   0  0  0  0  0  0  0  0  0  0  0  0
    8.0165  -17.3983   27.4972 C   0  0  2  0  0  0  0  0  0  0  0  0
    7.3535  -18.6617   27.6759 N   0  0  0  0  0  0  0  0  0  0  0  0
    7.6116  -16.6818   26.2750 C   0  0  0  0  0  0  0  0  0  0  0  0
    7.1972  -17.3639   25.2817 O   0  0  0  0  0  0  0  0  0  0  0  0
    5.8205  -11.7498   26.5387 C   0  0  0  0  0  0  0  0  0  0  0  0
    5.7963  -13.0659   25.7799 C   0  0  0  0  0  0  0  0  0  0  0  0
    7.0662  -13.2708   25.0062 C   0  0  2  0  0  0  0  0  0  0  0  0
    7.1639  -12.3584   23.8063 C   0  0  0  0  0  0  0  0  0  0  0  0
    7.4465  -14.6874   24.7378 C   0  0  2  0  0  0  0  0  0  0  0  0
    7.6350  -15.2832   26.0822 N   0  0  0  0  0  0  0  0  0  0  0  0
    8.6870  -14.8938   23.9854 C   0  0  0  0  0  0  0  0  0  0  0  0
    9.7845  -14.5581   24.5246 O   0  0  0  0  0  0  0  0  0  0  0  0
    8.7708  -15.4444   22.6924 N   0  0  0  0  0  0  0  0  0  0  0  0
    9.9849  -15.2620   21.9299 C   0  0  0  0  0  0  0  0  0  0  0  0
   10.9216  -16.3995   22.0915 C   0  0  0  0  0  0  0  0  0  0  0  0
   11.9263  -16.5383   21.1451 O   0  0  0  0  0  0  0  0  0  0  0  0
   10.8593  -17.2350   23.0242 O   0  0  0  0  0  0  0  0  0  0  0  0
  2  1  1  0
  3  2  1  0
  4  3  1  0
  5  4  1  0
  5  6  1  6
  7  5  1  0
  7 14  1  0
  8  7  2  0
  9 10  1  0
 11 10  1  0
 11 12  1  6
 13 15  1  0
 13 14  1  1
 13 11  1  0
 15 16  2  0
 17 18  1  0
 17 15  1  0
 19 18  1  0
 20 19  1  0
 21 19  2  0
M  END
$$$$
