MIG.pdb
     RDKit          3D

 21 20  0  0  1  0  0  0  0  0999 V2000
    9.3803  -14.3741   29.9808 C   0  0  0  0  0  0  0  0  0  0  0  0
   10.9077  -15.3237   29.7760 S   0  0  0  0  0  0  0  0  0  0  0  0
   10.5458  -17.0744   29.5742 C   0  0  0  0  0  0  0  0  0  0  0  0
    9.4303  -17.3335   28.6101 C   0  0  0  0  0  0  0  0  0  0  0  0
    9.7531  -17.0775   27.1764 C   0  0  2  0  0  0  0  0  0  0  0  0
   10.9939  -16.3666   27.0257 N   0  0  0  0  0  0  0  0  0  0  0  0
    8.6376  -16.4958   26.4093 C   0  0  0  0  0  0  0  0  0  0  0  0
    7.5496  -17.1541   26.3279 O   0  0  0  0  0  0  0  0  0  0  0  0
    7.5172  -11.4987   26.6790 C   0  0  0  0  0  0  0  0  0  0  0  0
    7.8865  -12.9530   26.4393 C   0  0  0  0  0  0  0  0  0  0  0  0
    7.1150  -13.5268   25.2866 C   0  0  2  0  0  0  0  0  0  0  0  0
    5.6218  -13.3807   25.4624 C   0  0  0  0  0  0  0  0  0  0  0  0
    7.5526  -14.8710   24.8121 C   0  0  2  0  0  0  0  0  0  0  0  0
    8.6462  -15.2541   25.7369 N   0  0  0  0  0  0  0  0  0  0  0  0
    8.0851  -14.9349   23.4482 C   0  0  0  0  0  0  0  0  0  0  0  0
    7.2922  -14.7347   22.4793 O   0  0  0  0  0  0  0  0  0  0  0  0
    9.4257  -15.2022   23.1114 N   0  0  0  0  0  0  0  0  0  0  0  0
    9.8068  -15.2276   21.7176 C   0  0  0  0  0  0  0  0  0  0  0  0
   10.2922  -16.5633   21.2959 C   0  0  0  0  0  0  0  0  0  0  0  0
    9.3828  -17.6105   21.3228 O   0  0  0  0  0  0  0  0  0  0  0  0
   11.4647  -16.7992   20.9201 O   0  0  0  0  0  0  0  0  0  0  0  0
  2  1  1  0
  3  2  1  0
  4  3  1  0
  5  4  1  0
  5  6  1  1
  7  5  1  0
  7 14  1  0
  8  7  2  0
  9 10  1  0
 11 10  1  0
 11 12  1  1
 13 15  1  0
 13 14  1  1
 13 11  1  0
 15 16  2  0
 17 18  1  0
 17 15  1  0
 19 18  1  0
 20 19  1  0
 21 19  2  0
M  END
$$$$
