HMS.pdb
     RDKit          3D

 25 25  0  0  1  0  0  0  0  0999 V2000
    9.0425  -16.3524   19.6030 N   0  0  0  0  0  0  0  0  0  0  0  0
    8.2879  -16.7743   20.7698 C   0  0  1  0  0  0  0  0  0  0  0  0
    8.3588  -18.2865   20.8941 C   0  0  0  0  0  0  0  0  0  0  0  0
    7.4602  -18.9189   19.8690 C   0  0  0  0  0  0  0  0  0  0  0  0
    6.8585  -18.2241   18.8525 C   0  0  0  0  0  0  0  0  0  0  0  0
    6.1456  -19.1380   18.1645 N   0  0  0  0  0  0  0  0  0  0  0  0
    6.3086  -20.3363   18.7401 C   0  0  0  0  0  0  0  0  0  0  0  0
    7.1301  -20.2200   19.8114 N   0  0  0  0  0  0  0  0  0  0  0  0
    8.8338  -16.1895   22.0048 C   0  0  0  0  0  0  0  0  0  0  0  0
   10.0718  -16.1888   22.1886 O   0  0  0  0  0  0  0  0  0  0  0  0
    6.9231  -10.8582   26.6327 C   0  0  0  0  0  0  0  0  0  0  0  0
    6.2943  -12.5610   26.6785 S   0  0  0  0  0  0  0  0  0  0  0  0
    7.6287  -13.7209   26.1857 C   0  0  0  0  0  0  0  0  0  0  0  0
    7.3379  -14.2811   24.8190 C   0  0  0  0  0  0  0  0  0  0  0  0
    8.4407  -15.0973   24.2341 C   0  0  2  0  0  0  0  0  0  0  0  0
    7.9642  -15.6392   22.9617 N   0  0  0  0  0  0  0  0  0  0  0  0
    8.8959  -16.2272   25.0594 C   0  0  0  0  0  0  0  0  0  0  0  0
    8.1525  -17.2399   25.1314 O   0  0  0  0  0  0  0  0  0  0  0  0
   12.4532  -18.8521   26.4682 O   0  0  0  0  0  0  0  0  0  0  0  0
   12.0564  -17.6614   25.8574 C   0  0  0  0  0  0  0  0  0  0  0  0
   10.6290  -17.3987   26.3555 C   0  0  2  0  0  0  0  0  0  0  0  0
   10.1225  -16.1846   25.7498 N   0  0  0  0  0  0  0  0  0  0  0  0
   10.6462  -17.3215   27.8270 C   0  0  0  0  0  0  0  0  0  0  0  0
   10.3219  -16.2589   28.3920 O   0  0  0  0  0  0  0  0  0  0  0  0
   11.0138  -18.4020   28.5804 O   0  0  0  0  0  0  0  0  0  0  0  0
  2  1  1  6
  3  2  1  0
  4  3  1  0
  5  4  2  0
  6  5  1  0
  7  6  1  0
  7  8  2  0
  8  4  1  0
  9  2  1  0
  9 10  2  0
 12 11  1  0
 12 13  1  0
 13 14  1  0
 15 14  1  1
 15 17  1  0
 16 15  1  0
 16  9  1  0
 17 22  1  0
 18 17  2  0
 20 19  1  0
 21 22  1  0
 21 20  1  6
 23 21  1  0
 24 23  2  0
 25 23  1  0
M  END
$$$$
