HMS.pdb
     RDKit          3D

 25 25  0  0  1  0  0  0  0  0999 V2000
    8.1436  -15.6658   20.0171 N   0  0  0  0  0  0  0  0  0  0  0  0
    7.5567  -16.3399   21.1617 C   0  0  1  0  0  0  0  0  0  0  0  0
    7.7092  -17.8417   20.9929 C   0  0  0  0  0  0  0  0  0  0  0  0
    6.9091  -18.2990   19.8059 C   0  0  0  0  0  0  0  0  0  0  0  0
    5.6360  -18.7990   19.8933 C   0  0  0  0  0  0  0  0  0  0  0  0
    5.2763  -19.0909   18.6276 N   0  0  0  0  0  0  0  0  0  0  0  0
    6.2889  -18.7809   17.8077 C   0  0  0  0  0  0  0  0  0  0  0  0
    7.3228  -18.2824   18.5277 N   0  0  0  0  0  0  0  0  0  0  0  0
    8.2230  -15.9522   22.4151 C   0  0  0  0  0  0  0  0  0  0  0  0
    9.4732  -15.9600   22.4735 O   0  0  0  0  0  0  0  0  0  0  0  0
    7.5166  -11.0418   27.1208 C   0  0  0  0  0  0  0  0  0  0  0  0
    6.1653  -11.8918   26.2555 S   0  0  0  0  0  0  0  0  0  0  0  0
    6.8625  -13.0072   24.9754 C   0  0  0  0  0  0  0  0  0  0  0  0
    7.0740  -14.3799   25.5561 C   0  0  0  0  0  0  0  0  0  0  0  0
    8.0551  -15.2241   24.8148 C   0  0  2  0  0  0  0  0  0  0  0  0
    7.4531  -15.5781   23.5296 N   0  0  0  0  0  0  0  0  0  0  0  0
    8.4460  -16.4739   25.4855 C   0  0  0  0  0  0  0  0  0  0  0  0
    7.5299  -17.2239   25.9120 O   0  0  0  0  0  0  0  0  0  0  0  0
   12.2992  -17.5963   25.6426 O   0  0  0  0  0  0  0  0  0  0  0  0
   11.4021  -18.6558   25.7871 C   0  0  0  0  0  0  0  0  0  0  0  0
   10.1258  -18.0379   26.3734 C   0  0  2  0  0  0  0  0  0  0  0  0
    9.7994  -16.8270   25.6491 N   0  0  0  0  0  0  0  0  0  0  0  0
   10.3362  -17.7875   27.8103 C   0  0  0  0  0  0  0  0  0  0  0  0
   10.2787  -16.6217   28.2474 O   0  0  0  0  0  0  0  0  0  0  0  0
   10.5938  -18.8192   28.6702 O   0  0  0  0  0  0  0  0  0  0  0  0
  2  1  1  6
  3  2  1  0
  4  3  1  0
  5  4  2  0
  6  5  1  0
  7  6  1  0
  7  8  2  0
  8  4  1  0
  9  2  1  0
  9 10  2  0
 12 11  1  0
 12 13  1  0
 13 14  1  0
 15 14  1  1
 15 17  1  0
 16 15  1  0
 16  9  1  0
 17 22  1  0
 18 17  2  0
 20 19  1  0
 21 22  1  0
 21 20  1  6
 23 21  1  0
 24 23  2  0
 25 23  1  0
M  END
$$$$
