HMS.pdb
     RDKit          3D

 25 25  0  0  1  0  0  0  0  0999 V2000
    8.5468  -15.5264   19.5124 N   0  0  0  0  0  0  0  0  0  0  0  0
    7.7770  -15.9587   20.6654 C   0  0  1  0  0  0  0  0  0  0  0  0
    7.6582  -17.4729   20.6511 C   0  0  0  0  0  0  0  0  0  0  0  0
    6.8576  -17.9041   19.4546 C   0  0  0  0  0  0  0  0  0  0  0  0
    5.5056  -18.1261   19.4836 C   0  0  0  0  0  0  0  0  0  0  0  0
    5.1742  -18.4939   18.2300 N   0  0  0  0  0  0  0  0  0  0  0  0
    6.2792  -18.4946   17.4731 C   0  0  0  0  0  0  0  0  0  0  0  0
    7.3462  -18.1272   18.2231 N   0  0  0  0  0  0  0  0  0  0  0  0
    8.4268  -15.5645   21.9254 C   0  0  0  0  0  0  0  0  0  0  0  0
    9.6765  -15.5475   21.9926 O   0  0  0  0  0  0  0  0  0  0  0  0
    6.5243  -10.7543   26.2050 C   0  0  0  0  0  0  0  0  0  0  0  0
    6.4063  -12.3438   27.0751 S   0  0  0  0  0  0  0  0  0  0  0  0
    7.6494  -13.5096   26.3937 C   0  0  0  0  0  0  0  0  0  0  0  0
    7.2749  -13.8882   24.9857 C   0  0  0  0  0  0  0  0  0  0  0  0
    8.2285  -14.8207   24.3180 C   0  0  2  0  0  0  0  0  0  0  0  0
    7.6420  -15.2120   23.0365 N   0  0  0  0  0  0  0  0  0  0  0  0
    8.5352  -16.0511   25.0643 C   0  0  0  0  0  0  0  0  0  0  0  0
    7.6149  -16.8975   25.2063 O   0  0  0  0  0  0  0  0  0  0  0  0
   11.8754  -17.2376   24.8076 O   0  0  0  0  0  0  0  0  0  0  0  0
   11.2986  -18.2131   25.6225 C   0  0  0  0  0  0  0  0  0  0  0  0
   10.0791  -17.5421   26.2682 C   0  0  2  0  0  0  0  0  0  0  0  0
    9.8146  -16.2819   25.6054 N   0  0  0  0  0  0  0  0  0  0  0  0
   10.3389  -17.3699   27.7085 C   0  0  0  0  0  0  0  0  0  0  0  0
   10.3120  -16.2279   28.2071 O   0  0  0  0  0  0  0  0  0  0  0  0
   10.6090  -18.4483   28.5048 O   0  0  0  0  0  0  0  0  0  0  0  0
  2  1  1  6
  3  2  1  0
  4  3  1  0
  5  4  2  0
  6  5  1  0
  7  6  1  0
  7  8  2  0
  8  4  1  0
  9  2  1  0
  9 10  2  0
 12 11  1  0
 12 13  1  0
 13 14  1  0
 15 14  1  1
 15 17  1  0
 16 15  1  0
 16  9  1  0
 17 22  1  0
 18 17  2  0
 20 19  1  0
 21 22  1  0
 21 20  1  6
 23 21  1  0
 24 23  2  0
 25 23  1  0
M  END
$$$$
