HMS.pdb
     RDKit          3D

 25 25  0  0  1  0  0  0  0  0999 V2000
    7.7403  -15.7247   20.2307 N   0  0  0  0  0  0  0  0  0  0  0  0
    9.1055  -15.4316   20.6298 C   0  0  1  0  0  0  0  0  0  0  0  0
    9.6110  -14.2317   19.8476 C   0  0  0  0  0  0  0  0  0  0  0  0
    8.8184  -14.0870   18.5791 C   0  0  0  0  0  0  0  0  0  0  0  0
    7.8847  -13.1052   18.3732 C   0  0  0  0  0  0  0  0  0  0  0  0
    7.4050  -13.3193   17.1319 N   0  0  0  0  0  0  0  0  0  0  0  0
    8.0223  -14.3861   16.6077 C   0  0  0  0  0  0  0  0  0  0  0  0
    8.9129  -14.8821   17.5002 N   0  0  0  0  0  0  0  0  0  0  0  0
    9.1904  -15.1099   22.0631 C   0  0  0  0  0  0  0  0  0  0  0  0
   10.2749  -14.7036   22.5379 O   0  0  0  0  0  0  0  0  0  0  0  0
    7.5063  -11.8074   27.9959 C   0  0  0  0  0  0  0  0  0  0  0  0
    7.7478  -12.4933   26.3320 S   0  0  0  0  0  0  0  0  0  0  0  0
    6.6009  -13.9035   26.0776 C   0  0  0  0  0  0  0  0  0  0  0  0
    6.7230  -14.4113   24.6657 C   0  0  0  0  0  0  0  0  0  0  0  0
    8.0731  -14.9343   24.3077 C   0  0  2  0  0  0  0  0  0  0  0  0
    8.0583  -15.2605   22.8818 N   0  0  0  0  0  0  0  0  0  0  0  0
    8.4975  -16.1390   25.0381 C   0  0  0  0  0  0  0  0  0  0  0  0
    7.6051  -16.8489   25.5702 O   0  0  0  0  0  0  0  0  0  0  0  0
   11.7446  -18.0923   24.2321 O   0  0  0  0  0  0  0  0  0  0  0  0
   11.6662  -18.0503   25.6251 C   0  0  0  0  0  0  0  0  0  0  0  0
   10.2216  -17.6430   25.9442 C   0  0  2  0  0  0  0  0  0  0  0  0
    9.8564  -16.4932   25.1430 N   0  0  0  0  0  0  0  0  0  0  0  0
   10.1127  -17.3723   27.3888 C   0  0  0  0  0  0  0  0  0  0  0  0
    9.7896  -16.2336   27.7794 O   0  0  0  0  0  0  0  0  0  0  0  0
   10.3617  -18.3555   28.3059 O   0  0  0  0  0  0  0  0  0  0  0  0
  2  1  1  6
  3  2  1  0
  4  3  1  0
  5  4  2  0
  6  5  1  0
  7  6  1  0
  7  8  2  0
  8  4  1  0
  9  2  1  0
  9 10  2  0
 12 11  1  0
 12 13  1  0
 13 14  1  0
 15 14  1  1
 15 17  1  0
 16 15  1  0
 16  9  1  0
 17 22  1  0
 18 17  2  0
 20 19  1  0
 21 22  1  0
 21 20  1  1
 23 21  1  0
 24 23  2  0
 25 23  1  0
M  END
$$$$
