HMS.pdb
     RDKit          3D

 25 25  0  0  1  0  0  0  0  0999 V2000
    9.5153  -16.4157   19.6915 N   0  0  0  0  0  0  0  0  0  0  0  0
    8.5267  -16.6302   20.7334 C   0  0  1  0  0  0  0  0  0  0  0  0
    8.2756  -18.1202   20.8888 C   0  0  0  0  0  0  0  0  0  0  0  0
    7.4913  -18.6244   19.7103 C   0  0  0  0  0  0  0  0  0  0  0  0
    6.1454  -18.8806   19.7454 C   0  0  0  0  0  0  0  0  0  0  0  0
    5.8286  -19.3117   18.5082 N   0  0  0  0  0  0  0  0  0  0  0  0
    6.9361  -19.3164   17.7551 C   0  0  0  0  0  0  0  0  0  0  0  0
    7.9902  -18.8884   18.4910 N   0  0  0  0  0  0  0  0  0  0  0  0
    8.9881  -16.1083   22.0295 C   0  0  0  0  0  0  0  0  0  0  0  0
   10.1897  -16.2427   22.3528 O   0  0  0  0  0  0  0  0  0  0  0  0
    6.6357  -11.3850   27.9671 C   0  0  0  0  0  0  0  0  0  0  0  0
    6.2846  -12.2107   26.3884 S   0  0  0  0  0  0  0  0  0  0  0  0
    7.6275  -13.4026   26.0078 C   0  0  0  0  0  0  0  0  0  0  0  0
    7.3900  -14.0234   24.6570 C   0  0  0  0  0  0  0  0  0  0  0  0
    8.4757  -14.9343   24.1920 C   0  0  2  0  0  0  0  0  0  0  0  0
    8.0797  -15.4663   22.8882 N   0  0  0  0  0  0  0  0  0  0  0  0
    8.7617  -16.0771   25.0736 C   0  0  0  0  0  0  0  0  0  0  0  0
    7.8362  -16.9032   25.2845 O   0  0  0  0  0  0  0  0  0  0  0  0
   12.5581  -17.1125   26.0278 O   0  0  0  0  0  0  0  0  0  0  0  0
   11.5791  -18.1043   25.9482 C   0  0  0  0  0  0  0  0  0  0  0  0
   10.2839  -17.4451   26.4401 C   0  0  2  0  0  0  0  0  0  0  0  0
   10.0276  -16.2481   25.6663 N   0  0  0  0  0  0  0  0  0  0  0  0
   10.4134  -17.1600   27.8802 C   0  0  0  0  0  0  0  0  0  0  0  0
   10.6438  -18.0926   28.6745 O   0  0  0  0  0  0  0  0  0  0  0  0
   10.2841  -15.8844   28.3556 O   0  0  0  0  0  0  0  0  0  0  0  0
  2  1  1  6
  3  2  1  0
  4  3  1  0
  5  4  2  0
  6  5  1  0
  7  6  1  0
  7  8  2  0
  8  4  1  0
  9  2  1  0
  9 10  2  0
 12 11  1  0
 12 13  1  0
 13 14  1  0
 15 14  1  1
 15 17  1  0
 16 15  1  0
 16  9  1  0
 17 22  1  0
 18 17  2  0
 20 19  1  0
 21 22  1  0
 21 20  1  6
 23 21  1  0
 24 23  2  0
 25 23  1  0
M  END
$$$$
