HMS.pdb
     RDKit          3D

 25 25  0  0  1  0  0  0  0  0999 V2000
   10.2529  -14.9010   20.4105 N   0  0  0  0  0  0  0  0  0  0  0  0
    8.8924  -14.7242   20.8867 C   0  0  1  0  0  0  0  0  0  0  0  0
    7.9477  -15.5426   20.0236 C   0  0  0  0  0  0  0  0  0  0  0  0
    7.9116  -14.9707   18.6343 C   0  0  0  0  0  0  0  0  0  0  0  0
    8.7106  -15.4082   17.6104 C   0  0  0  0  0  0  0  0  0  0  0  0
    8.3788  -14.6507   16.5460 N   0  0  0  0  0  0  0  0  0  0  0  0
    7.4190  -13.7904   16.9099 C   0  0  0  0  0  0  0  0  0  0  0  0
    7.1119  -13.9752   18.2165 N   0  0  0  0  0  0  0  0  0  0  0  0
    8.7458  -15.1774   22.2788 C   0  0  0  0  0  0  0  0  0  0  0  0
    9.5540  -16.0144   22.7403 O   0  0  0  0  0  0  0  0  0  0  0  0
    7.5456  -11.9515   28.8236 C   0  0  0  0  0  0  0  0  0  0  0  0
    7.6406  -12.1653   27.0230 S   0  0  0  0  0  0  0  0  0  0  0  0
    6.6197  -13.6059   26.5217 C   0  0  0  0  0  0  0  0  0  0  0  0
    6.6709  -13.7710   25.0263 C   0  0  0  0  0  0  0  0  0  0  0  0
    7.7729  -14.6478   24.5350 C   0  0  2  0  0  0  0  0  0  0  0  0
    7.7049  -14.6686   23.0740 N   0  0  0  0  0  0  0  0  0  0  0  0
    7.7282  -16.0413   25.0051 C   0  0  0  0  0  0  0  0  0  0  0  0
    6.6452  -16.6697   24.8800 O   0  0  0  0  0  0  0  0  0  0  0  0
   10.7516  -18.3800   25.0673 O   0  0  0  0  0  0  0  0  0  0  0  0
    9.5170  -18.9875   25.3019 C   0  0  0  0  0  0  0  0  0  0  0  0
    8.7181  -17.9847   26.1449 C   0  0  2  0  0  0  0  0  0  0  0  0
    8.8565  -16.6594   25.5777 N   0  0  0  0  0  0  0  0  0  0  0  0
    9.1967  -18.0473   27.5373 C   0  0  0  0  0  0  0  0  0  0  0  0
    9.6126  -17.0118   28.0928 O   0  0  0  0  0  0  0  0  0  0  0  0
    9.1901  -19.2278   28.2274 O   0  0  0  0  0  0  0  0  0  0  0  0
  2  1  1  6
  3  2  1  0
  4  3  1  0
  5  4  2  0
  6  5  1  0
  7  6  1  0
  7  8  2  0
  8  4  1  0
  9  2  1  0
  9 10  2  0
 12 11  1  0
 12 13  1  0
 13 14  1  0
 15 14  1  1
 15 17  1  0
 16 15  1  0
 16  9  1  0
 17 22  1  0
 18 17  2  0
 20 19  1  0
 21 22  1  0
 21 20  1  6
 23 21  1  0
 24 23  2  0
 25 23  1  0
M  END
$$$$
