HMS.pdb
     RDKit          3D

 25 25  0  0  1  0  0  0  0  0999 V2000
    9.5096  -16.1277   19.1013 N   0  0  0  0  0  0  0  0  0  0  0  0
    8.7191  -16.6280   20.2121 C   0  0  1  0  0  0  0  0  0  0  0  0
    8.8110  -18.1437   20.2516 C   0  0  0  0  0  0  0  0  0  0  0  0
    8.2807  -18.7142   18.9664 C   0  0  0  0  0  0  0  0  0  0  0  0
    7.0621  -18.3843   18.4331 C   0  0  0  0  0  0  0  0  0  0  0  0
    6.9611  -19.1006   17.2959 N   0  0  0  0  0  0  0  0  0  0  0  0
    8.0719  -19.8338   17.1465 C   0  0  0  0  0  0  0  0  0  0  0  0
    8.9124  -19.6054   18.1843 N   0  0  0  0  0  0  0  0  0  0  0  0
    9.2084  -16.1081   21.4987 C   0  0  0  0  0  0  0  0  0  0  0  0
   10.4362  -16.1266   21.7413 O   0  0  0  0  0  0  0  0  0  0  0  0
    6.8238  -11.6817   27.6350 C   0  0  0  0  0  0  0  0  0  0  0  0
    6.4349  -12.5540   26.0906 S   0  0  0  0  0  0  0  0  0  0  0  0
    7.8594  -13.6041   25.6039 C   0  0  0  0  0  0  0  0  0  0  0  0
    7.6273  -14.1725   24.2294 C   0  0  0  0  0  0  0  0  0  0  0  0
    8.7234  -15.0501   23.7264 C   0  0  2  0  0  0  0  0  0  0  0  0
    8.2971  -15.5977   22.4387 N   0  0  0  0  0  0  0  0  0  0  0  0
    9.0771  -16.1810   24.5986 C   0  0  0  0  0  0  0  0  0  0  0  0
    8.2702  -17.1440   24.6695 O   0  0  0  0  0  0  0  0  0  0  0  0
   12.1861  -17.8365   24.4725 O   0  0  0  0  0  0  0  0  0  0  0  0
   12.0617  -17.7660   25.8610 C   0  0  0  0  0  0  0  0  0  0  0  0
   10.6049  -17.3622   26.1240 C   0  0  2  0  0  0  0  0  0  0  0  0
   10.2781  -16.1933   25.3339 N   0  0  0  0  0  0  0  0  0  0  0  0
   10.4314  -17.1244   27.5680 C   0  0  0  0  0  0  0  0  0  0  0  0
   10.0208  -16.0165   27.9649 O   0  0  0  0  0  0  0  0  0  0  0  0
   10.7155  -18.1049   28.4780 O   0  0  0  0  0  0  0  0  0  0  0  0
  2  1  1  6
  3  2  1  0
  4  3  1  0
  5  4  2  0
  6  5  1  0
  7  6  1  0
  7  8  2  0
  8  4  1  0
  9  2  1  0
  9 10  2  0
 12 11  1  0
 12 13  1  0
 13 14  1  0
 15 14  1  1
 15 17  1  0
 16 15  1  0
 16  9  1  0
 17 22  1  0
 18 17  2  0
 20 19  1  0
 21 22  1  0
 21 20  1  1
 23 21  1  0
 24 23  2  0
 25 23  1  0
M  END
$$$$
