HMS.pdb
     RDKit          3D

 25 25  0  0  1  0  0  0  0  0999 V2000
   10.3771  -14.4309   20.0227 N   0  0  0  0  0  0  0  0  0  0  0  0
    9.0844  -14.2741   20.6654 C   0  0  1  0  0  0  0  0  0  0  0  0
    8.0413  -15.0660   19.8959 C   0  0  0  0  0  0  0  0  0  0  0  0
    7.9915  -14.5842   18.4733 C   0  0  0  0  0  0  0  0  0  0  0  0
    7.6690  -13.3012   18.1155 C   0  0  0  0  0  0  0  0  0  0  0  0
    7.7346  -13.2756   16.7694 N   0  0  0  0  0  0  0  0  0  0  0  0
    8.0823  -14.4922   16.3302 C   0  0  0  0  0  0  0  0  0  0  0  0
    8.2482  -15.3276   17.3840 N   0  0  0  0  0  0  0  0  0  0  0  0
    9.1065  -14.7740   22.0492 C   0  0  0  0  0  0  0  0  0  0  0  0
   10.0059  -15.5708   22.3997 O   0  0  0  0  0  0  0  0  0  0  0  0
    6.7268  -10.7196   27.0944 C   0  0  0  0  0  0  0  0  0  0  0  0
    6.0285  -12.3933   27.1844 S   0  0  0  0  0  0  0  0  0  0  0  0
    7.2527  -13.6036   26.5478 C   0  0  0  0  0  0  0  0  0  0  0  0
    7.2408  -13.5966   25.0424 C   0  0  0  0  0  0  0  0  0  0  0  0
    8.3228  -14.4040   24.4084 C   0  0  2  0  0  0  0  0  0  0  0  0
    8.1227  -14.3538   22.9603 N   0  0  0  0  0  0  0  0  0  0  0  0
    8.3687  -15.8201   24.8051 C   0  0  0  0  0  0  0  0  0  0  0  0
    7.4231  -16.5647   24.4379 O   0  0  0  0  0  0  0  0  0  0  0  0
   11.6546  -17.7595   25.3064 O   0  0  0  0  0  0  0  0  0  0  0  0
   10.4775  -18.4951   25.1590 C   0  0  0  0  0  0  0  0  0  0  0  0
    9.4114  -17.7301   25.9544 C   0  0  2  0  0  0  0  0  0  0  0  0
    9.4330  -16.3337   25.5711 N   0  0  0  0  0  0  0  0  0  0  0  0
    9.6680  -17.9165   27.3935 C   0  0  0  0  0  0  0  0  0  0  0  0
    9.8757  -16.9222   28.1160 O   0  0  0  0  0  0  0  0  0  0  0  0
    9.6808  -19.1673   27.9460 O   0  0  0  0  0  0  0  0  0  0  0  0
  2  1  1  6
  3  2  1  0
  4  3  1  0
  5  4  2  0
  6  5  1  0
  7  6  1  0
  7  8  2  0
  8  4  1  0
  9  2  1  0
  9 10  2  0
 12 11  1  0
 12 13  1  0
 13 14  1  0
 15 14  1  1
 15 17  1  0
 16 15  1  0
 16  9  1  0
 17 22  1  0
 18 17  2  0
 20 19  1  0
 21 22  1  0
 21 20  1  6
 23 21  1  0
 24 23  2  0
 25 23  1  0
M  END
$$$$
