HMS.pdb
     RDKit          3D

 25 25  0  0  1  0  0  0  0  0999 V2000
    9.9146  -16.1363   19.4657 N   0  0  0  0  0  0  0  0  0  0  0  0
    8.7016  -15.9710   20.2469 C   0  0  1  0  0  0  0  0  0  0  0  0
    7.8429  -17.2166   20.1111 C   0  0  0  0  0  0  0  0  0  0  0  0
    7.4677  -17.4149   18.6695 C   0  0  0  0  0  0  0  0  0  0  0  0
    6.9159  -16.4358   17.8852 C   0  0  0  0  0  0  0  0  0  0  0  0
    6.7283  -17.0047   16.6778 N   0  0  0  0  0  0  0  0  0  0  0  0
    7.1488  -18.2753   16.7285 C   0  0  0  0  0  0  0  0  0  0  0  0
    7.6163  -18.5522   17.9697 N   0  0  0  0  0  0  0  0  0  0  0  0
    9.0024  -15.7784   21.6743 C   0  0  0  0  0  0  0  0  0  0  0  0
   10.0385  -16.2877   22.1576 O   0  0  0  0  0  0  0  0  0  0  0  0
    6.7677  -11.2216   27.7741 C   0  0  0  0  0  0  0  0  0  0  0  0
    6.4200  -11.8912   26.1224 S   0  0  0  0  0  0  0  0  0  0  0  0
    7.5716  -13.2755   25.7670 C   0  0  0  0  0  0  0  0  0  0  0  0
    7.4087  -13.7196   24.3378 C   0  0  0  0  0  0  0  0  0  0  0  0
    8.4272  -14.7052   23.8731 C   0  0  2  0  0  0  0  0  0  0  0  0
    8.1279  -15.0274   22.4781 N   0  0  0  0  0  0  0  0  0  0  0  0
    8.4714  -15.9691   24.6249 C   0  0  0  0  0  0  0  0  0  0  0  0
    7.4637  -16.7208   24.5715 O   0  0  0  0  0  0  0  0  0  0  0  0
   11.7739  -17.8566   25.3744 O   0  0  0  0  0  0  0  0  0  0  0  0
   10.5759  -18.5628   25.4943 C   0  0  0  0  0  0  0  0  0  0  0  0
    9.5788  -17.5791   26.1209 C   0  0  2  0  0  0  0  0  0  0  0  0
    9.6013  -16.3335   25.3825 N   0  0  0  0  0  0  0  0  0  0  0  0
    9.9258  -17.3911   27.5407 C   0  0  0  0  0  0  0  0  0  0  0  0
   10.1870  -16.2485   27.9649 O   0  0  0  0  0  0  0  0  0  0  0  0
    9.9645  -18.4552   28.3987 O   0  0  0  0  0  0  0  0  0  0  0  0
  2  1  1  6
  3  2  1  0
  4  3  1  0
  5  4  2  0
  6  5  1  0
  7  6  1  0
  7  8  2  0
  8  4  1  0
  9  2  1  0
  9 10  2  0
 12 11  1  0
 12 13  1  0
 13 14  1  0
 15 14  1  1
 15 17  1  0
 16 15  1  0
 16  9  1  0
 17 22  1  0
 18 17  2  0
 20 19  1  0
 21 22  1  0
 21 20  1  6
 23 21  1  0
 24 23  2  0
 25 23  1  0
M  END
$$$$
