HMS.pdb
     RDKit          3D

 25 25  0  0  1  0  0  0  0  0999 V2000
    9.5630  -15.2178   19.2928 N   0  0  0  0  0  0  0  0  0  0  0  0
    8.8816  -16.1612   20.1616 C   0  0  1  0  0  0  0  0  0  0  0  0
    9.3709  -17.5670   19.8586 C   0  0  0  0  0  0  0  0  0  0  0  0
    9.0602  -17.9113   18.4292 C   0  0  0  0  0  0  0  0  0  0  0  0
    7.7969  -18.1724   17.9667 C   0  0  0  0  0  0  0  0  0  0  0  0
    7.9417  -18.4355   16.6527 N   0  0  0  0  0  0  0  0  0  0  0  0
    9.2385  -18.3378   16.3325 C   0  0  0  0  0  0  0  0  0  0  0  0
    9.9570  -18.0097   17.4335 N   0  0  0  0  0  0  0  0  0  0  0  0
    9.1531  -15.8801   21.5802 C   0  0  0  0  0  0  0  0  0  0  0  0
   10.2507  -16.2225   22.0747 O   0  0  0  0  0  0  0  0  0  0  0  0
    7.0530  -11.5447   27.7009 C   0  0  0  0  0  0  0  0  0  0  0  0
    7.0242  -11.9320   25.9271 S   0  0  0  0  0  0  0  0  0  0  0  0
    7.2508  -13.7378   25.6899 C   0  0  0  0  0  0  0  0  0  0  0  0
    7.2497  -14.0628   24.2199 C   0  0  0  0  0  0  0  0  0  0  0  0
    8.4157  -14.8718   23.7612 C   0  0  2  0  0  0  0  0  0  0  0  0
    8.1823  -15.2325   22.3630 N   0  0  0  0  0  0  0  0  0  0  0  0
    8.6550  -16.1154   24.5103 C   0  0  0  0  0  0  0  0  0  0  0  0
    7.7964  -17.0309   24.4198 O   0  0  0  0  0  0  0  0  0  0  0  0
   12.2788  -17.4703   25.5111 O   0  0  0  0  0  0  0  0  0  0  0  0
   11.1668  -18.3022   25.3702 C   0  0  0  0  0  0  0  0  0  0  0  0
    9.9973  -17.5375   26.0042 C   0  0  2  0  0  0  0  0  0  0  0  0
    9.8051  -16.2838   25.3052 N   0  0  0  0  0  0  0  0  0  0  0  0
   10.2809  -17.3386   27.4366 C   0  0  0  0  0  0  0  0  0  0  0  0
   10.3338  -16.1824   27.8993 O   0  0  0  0  0  0  0  0  0  0  0  0
   10.4867  -18.4074   28.2644 O   0  0  0  0  0  0  0  0  0  0  0  0
  2  1  1  6
  3  2  1  0
  4  3  1  0
  5  4  2  0
  6  5  1  0
  7  6  1  0
  7  8  2  0
  8  4  1  0
  9  2  1  0
  9 10  2  0
 12 11  1  0
 12 13  1  0
 13 14  1  0
 15 14  1  1
 15 17  1  0
 16 15  1  0
 16  9  1  0
 17 22  1  0
 18 17  2  0
 20 19  1  0
 21 22  1  0
 21 20  1  6
 23 21  1  0
 24 23  2  0
 25 23  1  0
M  END
$$$$
