HMS.pdb
     RDKit          3D

 25 25  0  0  1  0  0  0  0  0999 V2000
    9.8906  -16.4250   19.5522 N   0  0  0  0  0  0  0  0  0  0  0  0
    8.7068  -16.2658   20.3782 C   0  0  1  0  0  0  0  0  0  0  0  0
    7.9659  -17.5895   20.4548 C   0  0  0  0  0  0  0  0  0  0  0  0
    7.4188  -17.9398   19.0997 C   0  0  0  0  0  0  0  0  0  0  0  0
    7.6170  -17.1767   17.9787 C   0  0  0  0  0  0  0  0  0  0  0  0
    6.9735  -17.8220   16.9856 N   0  0  0  0  0  0  0  0  0  0  0  0
    6.4091  -18.9295   17.4840 C   0  0  0  0  0  0  0  0  0  0  0  0
    6.6769  -19.0216   18.8090 N   0  0  0  0  0  0  0  0  0  0  0  0
    9.0567  -15.8594   21.7484 C   0  0  0  0  0  0  0  0  0  0  0  0
   10.1838  -16.1527   22.2068 O   0  0  0  0  0  0  0  0  0  0  0  0
    7.1167  -11.4487   26.9985 C   0  0  0  0  0  0  0  0  0  0  0  0
    5.8813  -12.5844   26.3046 S   0  0  0  0  0  0  0  0  0  0  0  0
    6.7200  -14.0865   25.6651 C   0  0  0  0  0  0  0  0  0  0  0  0
    7.3328  -13.7949   24.3214 C   0  0  0  0  0  0  0  0  0  0  0  0
    8.4020  -14.7482   23.9057 C   0  0  2  0  0  0  0  0  0  0  0  0
    8.1267  -15.1487   22.5260 N   0  0  0  0  0  0  0  0  0  0  0  0
    8.5056  -15.9726   24.7150 C   0  0  0  0  0  0  0  0  0  0  0  0
    7.5896  -16.8286   24.6066 O   0  0  0  0  0  0  0  0  0  0  0  0
   11.9571  -17.5850   25.6730 O   0  0  0  0  0  0  0  0  0  0  0  0
   10.7726  -18.3175   25.5794 C   0  0  0  0  0  0  0  0  0  0  0  0
    9.7025  -17.4600   26.2678 C   0  0  2  0  0  0  0  0  0  0  0  0
    9.5915  -16.1874   25.5855 N   0  0  0  0  0  0  0  0  0  0  0  0
   10.0627  -17.3008   27.6879 C   0  0  0  0  0  0  0  0  0  0  0  0
   10.2133  -18.3111   28.4022 O   0  0  0  0  0  0  0  0  0  0  0  0
   10.2339  -16.0577   28.2315 O   0  0  0  0  0  0  0  0  0  0  0  0
  2  1  1  6
  3  2  1  0
  4  3  1  0
  5  4  2  0
  6  5  1  0
  7  6  1  0
  7  8  2  0
  8  4  1  0
  9  2  1  0
  9 10  2  0
 12 11  1  0
 12 13  1  0
 13 14  1  0
 15 14  1  1
 15 17  1  0
 16 15  1  0
 16  9  1  0
 17 22  1  0
 18 17  2  0
 20 19  1  0
 21 22  1  0
 21 20  1  6
 23 21  1  0
 24 23  2  0
 25 23  1  0
M  END
$$$$
