HMS.pdb
     RDKit          3D

 25 25  0  0  1  0  0  0  0  0999 V2000
    9.8834  -16.1926   19.6655 N   0  0  0  0  0  0  0  0  0  0  0  0
    8.7131  -16.1539   20.5245 C   0  0  1  0  0  0  0  0  0  0  0  0
    8.0464  -17.5187   20.5271 C   0  0  0  0  0  0  0  0  0  0  0  0
    7.5304  -17.8298   19.1503 C   0  0  0  0  0  0  0  0  0  0  0  0
    7.7418  -17.0278   18.0594 C   0  0  0  0  0  0  0  0  0  0  0  0
    7.1258  -17.6468   17.0327 N   0  0  0  0  0  0  0  0  0  0  0  0
    6.5646  -18.7765   17.4829 C   0  0  0  0  0  0  0  0  0  0  0  0
    6.8072  -18.9095   18.8093 N   0  0  0  0  0  0  0  0  0  0  0  0
    9.0739  -15.8205   21.9115 C   0  0  0  0  0  0  0  0  0  0  0  0
   10.1826  -16.1866   22.3624 O   0  0  0  0  0  0  0  0  0  0  0  0
    6.6338  -11.2502   27.9421 C   0  0  0  0  0  0  0  0  0  0  0  0
    6.3190  -11.9862   26.3123 S   0  0  0  0  0  0  0  0  0  0  0  0
    7.6278  -13.2153   25.9313 C   0  0  0  0  0  0  0  0  0  0  0  0
    7.4473  -13.7339   24.5296 C   0  0  0  0  0  0  0  0  0  0  0  0
    8.4911  -14.7025   24.0858 C   0  0  2  0  0  0  0  0  0  0  0  0
    8.1748  -15.0971   22.7133 N   0  0  0  0  0  0  0  0  0  0  0  0
    8.5971  -15.9292   24.8912 C   0  0  0  0  0  0  0  0  0  0  0  0
    7.8230  -16.8823   24.6157 O   0  0  0  0  0  0  0  0  0  0  0  0
   11.3339  -19.1728   26.0254 O   0  0  0  0  0  0  0  0  0  0  0  0
   10.9844  -17.9401   25.4717 C   0  0  0  0  0  0  0  0  0  0  0  0
    9.9110  -17.3600   26.4021 C   0  0  2  0  0  0  0  0  0  0  0  0
    9.5320  -16.0414   25.9384 N   0  0  0  0  0  0  0  0  0  0  0  0
   10.4378  -17.3362   27.7782 C   0  0  0  0  0  0  0  0  0  0  0  0
   10.5906  -16.2447   28.3604 O   0  0  0  0  0  0  0  0  0  0  0  0
   10.7611  -18.4973   28.4241 O   0  0  0  0  0  0  0  0  0  0  0  0
  2  1  1  6
  3  2  1  0
  4  3  1  0
  5  4  2  0
  6  5  1  0
  7  6  1  0
  7  8  2  0
  8  4  1  0
  9  2  1  0
  9 10  2  0
 12 11  1  0
 12 13  1  0
 13 14  1  0
 15 14  1  1
 15 17  1  0
 16 15  1  0
 16  9  1  0
 17 22  1  0
 18 17  2  0
 20 19  1  0
 21 22  1  0
 21 20  1  6
 23 21  1  0
 24 23  2  0
 25 23  1  0
M  END
$$$$
