HMS.pdb
     RDKit          3D

 25 25  0  0  1  0  0  0  0  0999 V2000
    9.2854  -17.2213   19.7214 N   0  0  0  0  0  0  0  0  0  0  0  0
    8.3978  -17.4361   20.8505 C   0  0  1  0  0  0  0  0  0  0  0  0
    8.2600  -18.9272   21.1047 C   0  0  0  0  0  0  0  0  0  0  0  0
    7.5041  -19.5635   19.9724 C   0  0  0  0  0  0  0  0  0  0  0  0
    6.1494  -19.7705   19.9833 C   0  0  0  0  0  0  0  0  0  0  0  0
    5.8654  -20.3568   18.8033 N   0  0  0  0  0  0  0  0  0  0  0  0
    7.0005  -20.4991   18.1068 C   0  0  0  0  0  0  0  0  0  0  0  0
    8.0401  -20.0074   18.8231 N   0  0  0  0  0  0  0  0  0  0  0  0
    8.9232  -16.8118   22.0751 C   0  0  0  0  0  0  0  0  0  0  0  0
   10.1508  -16.8648   22.3131 O   0  0  0  0  0  0  0  0  0  0  0  0
    6.7909  -11.6313   27.6988 C   0  0  0  0  0  0  0  0  0  0  0  0
    6.3910  -12.5852   26.2063 S   0  0  0  0  0  0  0  0  0  0  0  0
    7.7463  -13.7722   25.8558 C   0  0  0  0  0  0  0  0  0  0  0  0
    7.4616  -14.5063   24.5727 C   0  0  0  0  0  0  0  0  0  0  0  0
    8.5130  -15.4844   24.1696 C   0  0  2  0  0  0  0  0  0  0  0  0
    8.0460  -16.1644   22.9617 N   0  0  0  0  0  0  0  0  0  0  0  0
    8.8321  -16.5160   25.1690 C   0  0  0  0  0  0  0  0  0  0  0  0
    7.9245  -17.3276   25.4868 O   0  0  0  0  0  0  0  0  0  0  0  0
   12.6181  -17.5020   25.9338 O   0  0  0  0  0  0  0  0  0  0  0  0
   11.6281  -18.4678   26.1225 C   0  0  0  0  0  0  0  0  0  0  0  0
   10.4028  -17.7053   26.6436 C   0  0  2  0  0  0  0  0  0  0  0  0
   10.1094  -16.5992   25.7559 N   0  0  0  0  0  0  0  0  0  0  0  0
   10.6729  -17.2571   28.0212 C   0  0  0  0  0  0  0  0  0  0  0  0
   10.9600  -18.0963   28.8969 O   0  0  0  0  0  0  0  0  0  0  0  0
   10.6125  -15.9312   28.3505 O   0  0  0  0  0  0  0  0  0  0  0  0
  2  1  1  6
  3  2  1  0
  4  3  1  0
  5  4  2  0
  6  5  1  0
  7  6  1  0
  7  8  2  0
  8  4  1  0
  9  2  1  0
  9 10  2  0
 12 11  1  0
 12 13  1  0
 13 14  1  0
 15 14  1  1
 15 17  1  0
 16 15  1  0
 16  9  1  0
 17 22  1  0
 18 17  2  0
 20 19  1  0
 21 22  1  0
 21 20  1  6
 23 21  1  0
 24 23  2  0
 25 23  1  0
M  END
$$$$
