HMS.pdb
     RDKit          3D

 25 25  0  0  1  0  0  0  0  0999 V2000
   10.3280  -14.8260   20.3010 N   0  0  0  0  0  0  0  0  0  0  0  0
    9.0436  -14.4658   20.8750 C   0  0  1  0  0  0  0  0  0  0  0  0
    7.9397  -15.2079   20.1415 C   0  0  0  0  0  0  0  0  0  0  0  0
    7.9117  -14.7753   18.7026 C   0  0  0  0  0  0  0  0  0  0  0  0
    7.9832  -13.4673   18.2999 C   0  0  0  0  0  0  0  0  0  0  0  0
    7.9258  -13.5016   16.9536 N   0  0  0  0  0  0  0  0  0  0  0  0
    7.8238  -14.7769   16.5575 C   0  0  0  0  0  0  0  0  0  0  0  0
    7.8134  -15.5916   17.6401 N   0  0  0  0  0  0  0  0  0  0  0  0
    8.9688  -14.8292   22.2989 C   0  0  0  0  0  0  0  0  0  0  0  0
    9.7255  -15.7206   22.7454 O   0  0  0  0  0  0  0  0  0  0  0  0
    8.3421  -11.8031   28.1991 C   0  0  0  0  0  0  0  0  0  0  0  0
    6.7269  -12.0729   27.4145 S   0  0  0  0  0  0  0  0  0  0  0  0
    6.6967  -13.7305   26.6271 C   0  0  0  0  0  0  0  0  0  0  0  0
    6.8937  -13.5924   25.1410 C   0  0  0  0  0  0  0  0  0  0  0  0
    8.0213  -14.3956   24.5861 C   0  0  2  0  0  0  0  0  0  0  0  0
    8.0532  -14.1750   23.1404 N   0  0  0  0  0  0  0  0  0  0  0  0
    7.9358  -15.8464   24.8156 C   0  0  0  0  0  0  0  0  0  0  0  0
    6.8783  -16.4351   24.4710 O   0  0  0  0  0  0  0  0  0  0  0  0
   10.9812  -18.2247   25.0150 O   0  0  0  0  0  0  0  0  0  0  0  0
    9.7302  -18.8412   24.9582 C   0  0  0  0  0  0  0  0  0  0  0  0
    8.7915  -17.9444   25.7761 C   0  0  2  0  0  0  0  0  0  0  0  0
    8.9985  -16.5608   25.4016 N   0  0  0  0  0  0  0  0  0  0  0  0
    9.0422  -18.1767   27.2095 C   0  0  0  0  0  0  0  0  0  0  0  0
    9.3405  -17.2166   27.9463 O   0  0  0  0  0  0  0  0  0  0  0  0
    8.9515  -19.4333   27.7413 O   0  0  0  0  0  0  0  0  0  0  0  0
  2  1  1  6
  3  2  1  0
  4  3  1  0
  5  4  2  0
  6  5  1  0
  7  6  1  0
  7  8  2  0
  8  4  1  0
  9  2  1  0
  9 10  2  0
 12 11  1  0
 12 13  1  0
 13 14  1  0
 15 14  1  6
 15 17  1  0
 16 15  1  0
 16  9  1  0
 17 22  1  0
 18 17  2  0
 20 19  1  0
 21 22  1  0
 21 20  1  6
 23 21  1  0
 24 23  2  0
 25 23  1  0
M  END
$$$$
