HQC.pdb
     RDKit          3D

 26 26  0  0  1  0  0  0  0  0999 V2000
    7.9390  -16.9922   19.9635 N   0  0  0  0  0  0  0  0  0  0  0  0
    8.7782  -16.1592   20.7552 C   0  0  1  0  0  0  0  0  0  0  0  0
    8.1835  -14.7798   20.9026 C   0  0  0  0  0  0  0  0  0  0  0  0
    7.9955  -14.0880   19.6319 C   0  0  0  0  0  0  0  0  0  0  0  0
    6.8705  -13.3906   19.2610 C   0  0  0  0  0  0  0  0  0  0  0  0
    7.0435  -12.8876   18.0358 N   0  0  0  0  0  0  0  0  0  0  0  0
    8.2651  -13.2632   17.6366 C   0  0  0  0  0  0  0  0  0  0  0  0
    8.8564  -14.0000   18.6094 N   0  0  0  0  0  0  0  0  0  0  0  0
    9.0020  -16.7118   22.1279 C   0  0  0  0  0  0  0  0  0  0  0  0
    8.0967  -17.3888   22.6784 O   0  0  0  0  0  0  0  0  0  0  0  0
   13.9258  -19.5423   23.7248 N   0  0  0  0  0  0  0  0  0  0  0  0
   12.8548  -19.8311   22.8517 C   0  0  0  0  0  0  0  0  0  0  0  0
   13.0188  -20.8030   22.0500 O   0  0  0  0  0  0  0  0  0  0  0  0
   11.6012  -19.0315   22.8772 C   0  0  0  0  0  0  0  0  0  0  0  0
   11.7486  -17.9692   23.9059 C   0  0  0  0  0  0  0  0  0  0  0  0
   10.5564  -17.0682   24.0440 C   0  0  2  0  0  0  0  0  0  0  0  0
   10.2359  -16.4557   22.7748 N   0  0  0  0  0  0  0  0  0  0  0  0
   10.6910  -16.0372   25.0643 C   0  0  0  0  0  0  0  0  0  0  0  0
   10.8143  -14.8034   24.8254 O   0  0  0  0  0  0  0  0  0  0  0  0
   10.6865  -16.4164   26.4326 N   0  0  0  0  0  0  0  0  0  0  0  0
   10.7208  -15.4233   27.4811 C   0  0  1  0  0  0  0  0  0  0  0  0
    9.4950  -14.5367   27.4368 C   0  0  0  0  0  0  0  0  0  0  0  0
    9.5905  -13.4114   28.8527 S   0  0  0  0  0  0  0  0  0  0  0  0
   10.7945  -16.1153   28.7889 C   0  0  0  0  0  0  0  0  0  0  0  0
   10.4515  -17.3115   28.8837 O   0  0  0  0  0  0  0  0  0  0  0  0
   11.2398  -15.4734   29.9410 O   0  0  0  0  0  0  0  0  0  0  0  0
  2  1  1  6
  3  4  1  0
  3  2  1  0
  4  8  1  0
  5  6  1  0
  5  4  2  0
  6  7  1  0
  7  8  2  0
  9  2  1  0
  9 17  1  0
 10  9  2  0
 11 12  1  0
 12 14  1  0
 13 12  2  0
 15 14  1  0
 16 15  1  6
 16 18  1  0
 17 16  1  0
 18 19  2  0
 18 20  1  0
 20 21  1  0
 21 24  1  0
 22 23  1  0
 21 22  1  1
 24 25  2  0
 24 26  1  0
M  END
$$$$
