HQC.pdb
     RDKit          3D

 26 26  0  0  1  0  0  0  0  0999 V2000
    9.6128  -14.8605   20.0138 N   0  0  0  0  0  0  0  0  0  0  0  0
    8.3027  -14.5265   20.4583 C   0  0  1  0  0  0  0  0  0  0  0  0
    7.2564  -15.1412   19.5609 C   0  0  0  0  0  0  0  0  0  0  0  0
    7.3153  -14.6613   18.1843 C   0  0  0  0  0  0  0  0  0  0  0  0
    8.2833  -13.8329   17.6679 C   0  0  0  0  0  0  0  0  0  0  0  0
    8.0253  -13.5982   16.3786 N   0  0  0  0  0  0  0  0  0  0  0  0
    6.9061  -14.2710   16.0833 C   0  0  0  0  0  0  0  0  0  0  0  0
    6.4635  -14.9261   17.1849 N   0  0  0  0  0  0  0  0  0  0  0  0
    8.0376  -14.9892   21.8566 C   0  0  0  0  0  0  0  0  0  0  0  0
    6.8950  -14.8282   22.3562 O   0  0  0  0  0  0  0  0  0  0  0  0
   11.4153  -19.2075   24.9917 N   0  0  0  0  0  0  0  0  0  0  0  0
   10.9604  -19.1792   23.6556 C   0  0  0  0  0  0  0  0  0  0  0  0
   11.3565  -20.1195   22.8984 O   0  0  0  0  0  0  0  0  0  0  0  0
   10.0627  -18.0982   23.1687 C   0  0  0  0  0  0  0  0  0  0  0  0
    9.8239  -17.1523   24.2898 C   0  0  0  0  0  0  0  0  0  0  0  0
    8.9042  -16.0142   23.9574 C   0  0  2  0  0  0  0  0  0  0  0  0
    9.0877  -15.6002   22.5848 N   0  0  0  0  0  0  0  0  0  0  0  0
    9.0265  -14.8594   24.8369 C   0  0  0  0  0  0  0  0  0  0  0  0
    9.7994  -13.8817   24.6336 O   0  0  0  0  0  0  0  0  0  0  0  0
    8.2334  -14.8013   26.0131 N   0  0  0  0  0  0  0  0  0  0  0  0
    8.3911  -13.7270   26.9659 C   0  0  1  0  0  0  0  0  0  0  0  0
    7.0821  -13.0040   27.1986 C   0  0  0  0  0  0  0  0  0  0  0  0
    6.5117  -12.3886   25.5936 S   0  0  0  0  0  0  0  0  0  0  0  0
    8.8875  -14.2926   28.2420 C   0  0  0  0  0  0  0  0  0  0  0  0
    9.0038  -15.5280   28.3752 O   0  0  0  0  0  0  0  0  0  0  0  0
    9.2371  -13.4865   29.3216 O   0  0  0  0  0  0  0  0  0  0  0  0
  2  1  1  6
  3  4  1  0
  3  2  1  0
  4  8  1  0
  5  6  1  0
  5  4  2  0
  6  7  1  0
  7  8  2  0
  9  2  1  0
  9 17  1  0
 10  9  2  0
 11 12  1  0
 12 14  1  0
 13 12  2  0
 15 14  1  0
 16 15  1  1
 16 18  1  0
 17 16  1  0
 18 19  2  0
 18 20  1  0
 20 21  1  0
 21 24  1  0
 22 23  1  0
 21 22  1  1
 24 25  2  0
 24 26  1  0
M  END
$$$$
