HQC.pdb
     RDKit          3D

 26 26  0  0  1  0  0  0  0  0999 V2000
   12.9421  -16.0485   14.4215 N   0  0  0  0  0  0  0  0  0  0  0  0
   12.4151  -15.6917   15.6944 C   0  0  1  0  0  0  0  0  0  0  0  0
   11.3227  -16.6459   16.1118 C   0  0  0  0  0  0  0  0  0  0  0  0
   10.1302  -16.5679   15.2746 C   0  0  0  0  0  0  0  0  0  0  0  0
    9.9143  -15.6483   14.2759 C   0  0  0  0  0  0  0  0  0  0  0  0
    8.7209  -15.8701   13.7185 N   0  0  0  0  0  0  0  0  0  0  0  0
    8.1883  -16.9187   14.3582 C   0  0  0  0  0  0  0  0  0  0  0  0
    9.0459  -17.3534   15.3144 N   0  0  0  0  0  0  0  0  0  0  0  0
   13.4592  -15.6918   16.7665 C   0  0  0  0  0  0  0  0  0  0  0  0
   14.2111  -16.6909   16.8990 O   0  0  0  0  0  0  0  0  0  0  0  0
   17.9112  -14.2295   18.8467 N   0  0  0  0  0  0  0  0  0  0  0  0
   17.4840  -13.8582   17.5534 C   0  0  0  0  0  0  0  0  0  0  0  0
   18.2710  -14.1290   16.5934 O   0  0  0  0  0  0  0  0  0  0  0  0
   16.1764  -13.1842   17.3363 C   0  0  0  0  0  0  0  0  0  0  0  0
   15.3856  -13.2895   18.5902 C   0  0  0  0  0  0  0  0  0  0  0  0
   14.5354  -14.5223   18.6871 C   0  0  2  0  0  0  0  0  0  0  0  0
   13.5734  -14.5590   17.6091 N   0  0  0  0  0  0  0  0  0  0  0  0
   13.8486  -14.6862   19.9612 C   0  0  0  0  0  0  0  0  0  0  0  0
   12.7008  -14.2287   20.2213 O   0  0  0  0  0  0  0  0  0  0  0  0
   14.4904  -15.4066   21.0029 N   0  0  0  0  0  0  0  0  0  0  0  0
   13.7711  -15.7929   22.1946 C   0  0  1  0  0  0  0  0  0  0  0  0
   12.6797  -16.7920   21.8766 C   0  0  0  0  0  0  0  0  0  0  0  0
   11.1555  -15.8557   21.5932 S   0  0  0  0  0  0  0  0  0  0  0  0
   14.7294  -16.3837   23.1576 C   0  0  0  0  0  0  0  0  0  0  0  0
   15.8264  -16.8242   22.7578 O   0  0  0  0  0  0  0  0  0  0  0  0
   14.4513  -16.4697   24.5188 O   0  0  0  0  0  0  0  0  0  0  0  0
  2  1  1  6
  3  4  1  0
  3  2  1  0
  4  8  1  0
  5  6  1  0
  5  4  2  0
  6  7  1  0
  7  8  2  0
  9  2  1  0
  9 17  1  0
 10  9  2  0
 11 12  1  0
 12 14  1  0
 13 12  2  0
 15 14  1  0
 16 15  1  1
 16 18  1  0
 17 16  1  0
 18 19  2  0
 18 20  1  0
 20 21  1  0
 21 24  1  0
 22 23  1  0
 21 22  1  6
 24 25  2  0
 24 26  1  0
M  END
$$$$
