HQC.pdb
     RDKit          3D

 26 26  0  0  1  0  0  0  0  0999 V2000
    7.1287  -16.5841   19.5304 N   0  0  0  0  0  0  0  0  0  0  0  0
    8.0267  -15.7558   20.2603 C   0  0  1  0  0  0  0  0  0  0  0  0
    7.8044  -14.2996   19.9315 C   0  0  0  0  0  0  0  0  0  0  0  0
    8.0210  -13.9807   18.5244 C   0  0  0  0  0  0  0  0  0  0  0  0
    7.1346  -13.3164   17.7103 C   0  0  0  0  0  0  0  0  0  0  0  0
    7.6579  -13.1981   16.4871 N   0  0  0  0  0  0  0  0  0  0  0  0
    8.8623  -13.7815   16.5277 C   0  0  0  0  0  0  0  0  0  0  0  0
    9.0934  -14.2644   17.7735 N   0  0  0  0  0  0  0  0  0  0  0  0
    7.8813  -15.9197   21.7407 C   0  0  0  0  0  0  0  0  0  0  0  0
    6.7386  -16.0941   22.2355 O   0  0  0  0  0  0  0  0  0  0  0  0
   11.3189  -19.0614   25.9508 N   0  0  0  0  0  0  0  0  0  0  0  0
   10.7740  -19.3149   24.6735 C   0  0  0  0  0  0  0  0  0  0  0  0
   11.2538  -20.3029   24.0347 O   0  0  0  0  0  0  0  0  0  0  0  0
    9.6926  -18.4620   24.1126 C   0  0  0  0  0  0  0  0  0  0  0  0
   10.0018  -17.0454   24.4387 C   0  0  0  0  0  0  0  0  0  0  0  0
    8.9647  -16.0619   23.9814 C   0  0  2  0  0  0  0  0  0  0  0  0
    9.0425  -15.8736   22.5506 N   0  0  0  0  0  0  0  0  0  0  0  0
    9.0207  -14.7681   24.6485 C   0  0  0  0  0  0  0  0  0  0  0  0
    9.7521  -13.8049   24.2854 O   0  0  0  0  0  0  0  0  0  0  0  0
    8.2067  -14.5452   25.7903 N   0  0  0  0  0  0  0  0  0  0  0  0
    8.2925  -13.3117   26.5372 C   0  0  1  0  0  0  0  0  0  0  0  0
    7.0970  -12.4235   26.2681 C   0  0  0  0  0  0  0  0  0  0  0  0
    5.6296  -13.2929   26.8772 S   0  0  0  0  0  0  0  0  0  0  0  0
    8.3647  -13.6346   27.9813 C   0  0  0  0  0  0  0  0  0  0  0  0
    8.2061  -14.8105   28.3678 O   0  0  0  0  0  0  0  0  0  0  0  0
    8.6071  -12.6604   28.9455 O   0  0  0  0  0  0  0  0  0  0  0  0
  2  1  1  6
  3  4  1  0
  3  2  1  0
  4  8  1  0
  5  6  1  0
  5  4  2  0
  6  7  1  0
  7  8  2  0
  9  2  1  0
  9 17  1  0
 10  9  2  0
 11 12  1  0
 12 14  1  0
 13 12  2  0
 15 14  1  0
 16 15  1  1
 16 18  1  0
 17 16  1  0
 18 19  2  0
 18 20  1  0
 20 21  1  0
 21 24  1  0
 22 23  1  0
 21 22  1  1
 24 25  2  0
 24 26  1  0
M  END
$$$$
