HQC.pdb
     RDKit          3D

 26 26  0  0  1  0  0  0  0  0999 V2000
    7.9759  -17.1073   19.2680 N   0  0  0  0  0  0  0  0  0  0  0  0
    8.2912  -15.9149   19.9780 C   0  0  1  0  0  0  0  0  0  0  0  0
    7.4971  -14.7462   19.4476 C   0  0  0  0  0  0  0  0  0  0  0  0
    7.8194  -14.4019   18.0669 C   0  0  0  0  0  0  0  0  0  0  0  0
    8.5863  -13.3328   17.6685 C   0  0  0  0  0  0  0  0  0  0  0  0
    8.6744  -13.3215   16.3358 N   0  0  0  0  0  0  0  0  0  0  0  0
    7.9706  -14.3725   15.8966 C   0  0  0  0  0  0  0  0  0  0  0  0
    7.4426  -15.0409   16.9515 N   0  0  0  0  0  0  0  0  0  0  0  0
    8.0133  -16.0314   21.4439 C   0  0  0  0  0  0  0  0  0  0  0  0
    6.9005  -16.4710   21.8306 O   0  0  0  0  0  0  0  0  0  0  0  0
   12.1038  -18.1946   25.1248 N   0  0  0  0  0  0  0  0  0  0  0  0
   11.1834  -17.7756   26.1098 C   0  0  0  0  0  0  0  0  0  0  0  0
   11.4309  -18.1239   27.3063 O   0  0  0  0  0  0  0  0  0  0  0  0
    9.9871  -16.9671   25.7541 C   0  0  0  0  0  0  0  0  0  0  0  0
   10.0290  -16.6928   24.2940 C   0  0  0  0  0  0  0  0  0  0  0  0
    8.8724  -15.8868   23.7797 C   0  0  2  0  0  0  0  0  0  0  0  0
    9.0178  -15.6407   22.3630 N   0  0  0  0  0  0  0  0  0  0  0  0
    8.6559  -14.6254   24.4753 C   0  0  0  0  0  0  0  0  0  0  0  0
    8.8991  -13.4863   23.9875 O   0  0  0  0  0  0  0  0  0  0  0  0
    8.1357  -14.6468   25.7963 N   0  0  0  0  0  0  0  0  0  0  0  0
    7.7708  -13.4240   26.4733 C   0  0  1  0  0  0  0  0  0  0  0  0
    6.4193  -12.9237   26.0110 C   0  0  0  0  0  0  0  0  0  0  0  0
    5.9848  -11.5038   27.0480 S   0  0  0  0  0  0  0  0  0  0  0  0
    7.7408  -13.6793   27.9323 C   0  0  0  0  0  0  0  0  0  0  0  0
    7.4617  -14.8170   28.3625 O   0  0  0  0  0  0  0  0  0  0  0  0
    8.0169  -12.6819   28.8632 O   0  0  0  0  0  0  0  0  0  0  0  0
  2  1  1  6
  3  4  1  0
  3  2  1  0
  4  8  1  0
  5  6  1  0
  5  4  2  0
  6  7  1  0
  7  8  2  0
  9  2  1  0
  9 17  1  0
 10  9  2  0
 11 12  1  0
 12 14  1  0
 13 12  2  0
 15 14  1  0
 16 15  1  1
 16 18  1  0
 17 16  1  0
 18 19  2  0
 18 20  1  0
 20 21  1  0
 21 24  1  0
 22 23  1  0
 21 22  1  6
 24 25  2  0
 24 26  1  0
M  END
$$$$
