HQC.pdb
     RDKit          3D

 26 26  0  0  1  0  0  0  0  0999 V2000
    9.3023  -16.9640   19.7312 N   0  0  0  0  0  0  0  0  0  0  0  0
    9.5286  -15.9484   20.7021 C   0  0  1  0  0  0  0  0  0  0  0  0
    8.3347  -15.0315   20.8110 C   0  0  0  0  0  0  0  0  0  0  0  0
    7.9962  -14.3651   19.5580 C   0  0  0  0  0  0  0  0  0  0  0  0
    8.3291  -13.0737   19.2248 C   0  0  0  0  0  0  0  0  0  0  0  0
    7.8597  -12.7943   18.0059 N   0  0  0  0  0  0  0  0  0  0  0  0
    7.2368  -13.8977   17.5733 C   0  0  0  0  0  0  0  0  0  0  0  0
    7.3155  -14.8664   18.5189 N   0  0  0  0  0  0  0  0  0  0  0  0
    9.8031  -16.5084   22.0625 C   0  0  0  0  0  0  0  0  0  0  0  0
    8.9910  -17.3211   22.5734 O   0  0  0  0  0  0  0  0  0  0  0  0
   12.2707  -19.8101   24.8798 N   0  0  0  0  0  0  0  0  0  0  0  0
   12.5621  -19.7063   23.5025 C   0  0  0  0  0  0  0  0  0  0  0  0
   12.5961  -20.7920   22.8435 O   0  0  0  0  0  0  0  0  0  0  0  0
   12.8150  -18.3871   22.8644 C   0  0  0  0  0  0  0  0  0  0  0  0
   12.7047  -17.3365   23.9098 C   0  0  0  0  0  0  0  0  0  0  0  0
   11.3506  -16.6971   24.0079 C   0  0  2  0  0  0  0  0  0  0  0  0
   10.9782  -16.1053   22.7430 N   0  0  0  0  0  0  0  0  0  0  0  0
   11.2239  -15.7059   25.0677 C   0  0  0  0  0  0  0  0  0  0  0  0
   11.3230  -14.4584   24.8987 O   0  0  0  0  0  0  0  0  0  0  0  0
   10.9709  -16.1435   26.3945 N   0  0  0  0  0  0  0  0  0  0  0  0
   10.6230  -15.2042   27.4354 C   0  0  1  0  0  0  0  0  0  0  0  0
    9.4027  -14.3931   27.0565 C   0  0  0  0  0  0  0  0  0  0  0  0
    9.0594  -13.2605   28.4275 S   0  0  0  0  0  0  0  0  0  0  0  0
   10.3600  -15.9553   28.6850 C   0  0  0  0  0  0  0  0  0  0  0  0
    9.8140  -17.0765   28.6375 O   0  0  0  0  0  0  0  0  0  0  0  0
   10.7038  -15.4520   29.9364 O   0  0  0  0  0  0  0  0  0  0  0  0
  2  1  1  6
  3  4  1  0
  3  2  1  0
  4  8  1  0
  5  6  1  0
  5  4  2  0
  6  7  1  0
  7  8  2  0
  9  2  1  0
  9 17  1  0
 10  9  2  0
 11 12  1  0
 12 14  1  0
 13 12  2  0
 15 14  1  0
 16 15  1  6
 16 18  1  0
 17 16  1  0
 18 19  2  0
 18 20  1  0
 20 21  1  0
 21 24  1  0
 22 23  1  0
 21 22  1  6
 24 25  2  0
 24 26  1  0
M  END
$$$$
