HQC.pdb
     RDKit          3D

 26 26  0  0  1  0  0  0  0  0999 V2000
    6.9921  -16.9105   19.3010 N   0  0  0  0  0  0  0  0  0  0  0  0
    7.6481  -16.0122   20.1886 C   0  0  1  0  0  0  0  0  0  0  0  0
    7.3102  -14.5801   19.8525 C   0  0  0  0  0  0  0  0  0  0  0  0
    7.7468  -14.1761   18.5202 C   0  0  0  0  0  0  0  0  0  0  0  0
    6.9207  -13.7839   17.4938 C   0  0  0  0  0  0  0  0  0  0  0  0
    7.6572  -13.4852   16.4204 N   0  0  0  0  0  0  0  0  0  0  0  0
    8.9353  -13.6866   16.7647 C   0  0  0  0  0  0  0  0  0  0  0  0
    8.9997  -14.1105   18.0511 N   0  0  0  0  0  0  0  0  0  0  0  0
    7.2769  -16.2480   21.6190 C   0  0  0  0  0  0  0  0  0  0  0  0
    6.0633  -16.3080   21.9424 O   0  0  0  0  0  0  0  0  0  0  0  0
    6.7097  -19.3634   25.2625 N   0  0  0  0  0  0  0  0  0  0  0  0
    7.4326  -18.7421   26.3038 C   0  0  0  0  0  0  0  0  0  0  0  0
    7.0179  -18.9472   27.4871 O   0  0  0  0  0  0  0  0  0  0  0  0
    8.6189  -17.8918   26.0191 C   0  0  0  0  0  0  0  0  0  0  0  0
    8.7386  -17.7394   24.5456 C   0  0  0  0  0  0  0  0  0  0  0  0
    8.0093  -16.5551   23.9821 C   0  0  2  0  0  0  0  0  0  0  0  0
    8.3094  -16.3983   22.5770 N   0  0  0  0  0  0  0  0  0  0  0  0
    8.2609  -15.3008   24.6788 C   0  0  0  0  0  0  0  0  0  0  0  0
    9.3766  -14.7105   24.7128 O   0  0  0  0  0  0  0  0  0  0  0  0
    7.1954  -14.6745   25.3777 N   0  0  0  0  0  0  0  0  0  0  0  0
    7.4079  -13.4554   26.1229 C   0  0  1  0  0  0  0  0  0  0  0  0
    6.0940  -12.8394   26.5528 C   0  0  0  0  0  0  0  0  0  0  0  0
    6.4826  -11.3819   27.5551 S   0  0  0  0  0  0  0  0  0  0  0  0
    8.2327  -13.7642   27.3142 C   0  0  0  0  0  0  0  0  0  0  0  0
    8.3038  -14.9355   27.7389 O   0  0  0  0  0  0  0  0  0  0  0  0
    8.9468  -12.7816   27.9939 O   0  0  0  0  0  0  0  0  0  0  0  0
  2  1  1  6
  3  4  1  0
  3  2  1  0
  4  8  1  0
  5  6  1  0
  5  4  2  0
  6  7  1  0
  7  8  2  0
  9  2  1  0
  9 17  1  0
 10  9  2  0
 11 12  1  0
 12 14  1  0
 13 12  2  0
 15 14  1  0
 16 15  1  1
 16 18  1  0
 17 16  1  0
 18 19  2  0
 18 20  1  0
 20 21  1  0
 21 24  1  0
 22 23  1  0
 21 22  1  1
 24 25  2  0
 24 26  1  0
M  END
$$$$
