HQC.pdb
     RDKit          3D

 26 26  0  0  1  0  0  0  0  0999 V2000
    7.3525  -17.1594   18.9514 N   0  0  0  0  0  0  0  0  0  0  0  0
    7.9774  -16.0775   19.6327 C   0  0  1  0  0  0  0  0  0  0  0  0
    7.3555  -14.7604   19.2370 C   0  0  0  0  0  0  0  0  0  0  0  0
    7.6732  -14.3532   17.8725 C   0  0  0  0  0  0  0  0  0  0  0  0
    8.4260  -15.0762   16.9779 C   0  0  0  0  0  0  0  0  0  0  0  0
    8.5138  -14.4048   15.8266 N   0  0  0  0  0  0  0  0  0  0  0  0
    7.8238  -13.2694   15.9918 C   0  0  0  0  0  0  0  0  0  0  0  0
    7.3046  -13.2292   17.2438 N   0  0  0  0  0  0  0  0  0  0  0  0
    7.8772  -16.2039   21.1205 C   0  0  0  0  0  0  0  0  0  0  0  0
    6.7584  -16.4259   21.6495 O   0  0  0  0  0  0  0  0  0  0  0  0
   12.3973  -18.3261   24.6480 N   0  0  0  0  0  0  0  0  0  0  0  0
   11.6277  -17.6885   25.6450 C   0  0  0  0  0  0  0  0  0  0  0  0
   12.0756  -17.7429   26.8328 O   0  0  0  0  0  0  0  0  0  0  0  0
   10.3576  -16.9908   25.3112 C   0  0  0  0  0  0  0  0  0  0  0  0
   10.2799  -16.8489   23.8338 C   0  0  0  0  0  0  0  0  0  0  0  0
    9.0185  -16.2056   23.3369 C   0  0  2  0  0  0  0  0  0  0  0  0
    9.0533  -16.0692   21.8984 N   0  0  0  0  0  0  0  0  0  0  0  0
    8.7166  -14.9159   23.9431 C   0  0  0  0  0  0  0  0  0  0  0  0
    8.7823  -13.8076   23.3415 O   0  0  0  0  0  0  0  0  0  0  0  0
    8.3175  -14.8706   25.3050 N   0  0  0  0  0  0  0  0  0  0  0  0
    8.0081  -13.6153   25.9494 C   0  0  1  0  0  0  0  0  0  0  0  0
    6.5954  -13.1718   25.6362 C   0  0  0  0  0  0  0  0  0  0  0  0
    6.2614  -11.6922   26.6259 S   0  0  0  0  0  0  0  0  0  0  0  0
    8.1714  -13.7793   27.4127 C   0  0  0  0  0  0  0  0  0  0  0  0
    8.2152  -14.9218   27.9128 O   0  0  0  0  0  0  0  0  0  0  0  0
    8.2804  -12.6891   28.2712 O   0  0  0  0  0  0  0  0  0  0  0  0
  2  1  1  6
  3  4  1  0
  3  2  1  0
  4  8  1  0
  5  6  1  0
  5  4  2  0
  6  7  1  0
  7  8  2  0
  9  2  1  0
  9 17  1  0
 10  9  2  0
 11 12  1  0
 12 14  1  0
 13 12  2  0
 15 14  1  0
 16 15  1  1
 16 18  1  0
 17 16  1  0
 18 19  2  0
 18 20  1  0
 20 21  1  0
 21 24  1  0
 22 23  1  0
 21 22  1  1
 24 25  2  0
 24 26  1  0
M  END
$$$$
