HQC.pdb
     RDKit          3D

 26 26  0  0  1  0  0  0  0  0999 V2000
    5.8035  -16.6288   19.7020 N   0  0  0  0  0  0  0  0  0  0  0  0
    6.8933  -17.0501   20.5145 C   0  0  1  0  0  0  0  0  0  0  0  0
    8.1839  -16.4163   20.0556 C   0  0  0  0  0  0  0  0  0  0  0  0
    8.1097  -14.9639   19.9380 C   0  0  0  0  0  0  0  0  0  0  0  0
    7.4054  -14.2752   18.9791 C   0  0  0  0  0  0  0  0  0  0  0  0
    7.5599  -12.9626   19.1718 N   0  0  0  0  0  0  0  0  0  0  0  0
    8.3534  -12.8232   20.2412 C   0  0  0  0  0  0  0  0  0  0  0  0
    8.6955  -14.0457   20.7177 N   0  0  0  0  0  0  0  0  0  0  0  0
    6.6989  -16.7032   21.9572 C   0  0  0  0  0  0  0  0  0  0  0  0
    5.8438  -15.8386   22.2768 O   0  0  0  0  0  0  0  0  0  0  0  0
    8.2932  -20.0852   27.9964 N   0  0  0  0  0  0  0  0  0  0  0  0
    7.2601  -19.8382   27.0667 C   0  0  0  0  0  0  0  0  0  0  0  0
    6.5354  -20.8303   26.7426 O   0  0  0  0  0  0  0  0  0  0  0  0
    7.0393  -18.4809   26.5007 C   0  0  0  0  0  0  0  0  0  0  0  0
    7.3519  -18.5266   25.0484 C   0  0  0  0  0  0  0  0  0  0  0  0
    7.2185  -17.2092   24.3424 C   0  0  2  0  0  0  0  0  0  0  0  0
    7.4888  -17.3625   22.9309 N   0  0  0  0  0  0  0  0  0  0  0  0
    8.0491  -16.1433   24.8863 C   0  0  0  0  0  0  0  0  0  0  0  0
    8.7988  -15.3959   24.1979 O   0  0  0  0  0  0  0  0  0  0  0  0
    8.0354  -15.9044   26.2859 N   0  0  0  0  0  0  0  0  0  0  0  0
    8.7256  -14.7702   26.8550 C   0  0  1  0  0  0  0  0  0  0  0  0
    7.8258  -13.5548   26.9159 C   0  0  0  0  0  0  0  0  0  0  0  0
    8.7942  -12.2004   27.6286 S   0  0  0  0  0  0  0  0  0  0  0  0
    9.1825  -15.1271   28.2184 C   0  0  0  0  0  0  0  0  0  0  0  0
    8.7739  -16.1741   28.7607 O   0  0  0  0  0  0  0  0  0  0  0  0
   10.0672  -14.3262   28.9349 O   0  0  0  0  0  0  0  0  0  0  0  0
  2  1  1  6
  3  4  1  0
  3  2  1  0
  4  8  1  0
  5  6  1  0
  5  4  2  0
  6  7  1  0
  7  8  2  0
  9  2  1  0
  9 17  1  0
 10  9  2  0
 11 12  1  0
 12 14  1  0
 13 12  2  0
 15 14  1  0
 16 15  1  1
 16 18  1  0
 17 16  1  0
 18 19  2  0
 18 20  1  0
 20 21  1  0
 21 24  1  0
 22 23  1  0
 21 22  1  1
 24 25  2  0
 24 26  1  0
M  END
$$$$
