HQC.pdb
     RDKit          3D

 26 26  0  0  1  0  0  0  0  0999 V2000
    8.1347  -17.7920   17.4519 N   0  0  0  0  0  0  0  0  0  0  0  0
    9.1002  -16.9000   17.9973 C   0  0  1  0  0  0  0  0  0  0  0  0
    8.4726  -15.5710   18.3403 C   0  0  0  0  0  0  0  0  0  0  0  0
    8.1635  -14.7541   17.1716 C   0  0  0  0  0  0  0  0  0  0  0  0
    8.4292  -15.0943   15.8664 C   0  0  0  0  0  0  0  0  0  0  0  0
    8.0133  -14.1152   15.0588 N   0  0  0  0  0  0  0  0  0  0  0  0
    7.4903  -13.1662   15.8452 C   0  0  0  0  0  0  0  0  0  0  0  0
    7.5781  -13.5496   17.1428 N   0  0  0  0  0  0  0  0  0  0  0  0
    9.7409  -17.4390   19.2377 C   0  0  0  0  0  0  0  0  0  0  0  0
    9.0346  -18.0320   20.0924 O   0  0  0  0  0  0  0  0  0  0  0  0
   14.9410  -21.1111   20.9607 N   0  0  0  0  0  0  0  0  0  0  0  0
   14.9538  -19.7386   20.6309 C   0  0  0  0  0  0  0  0  0  0  0  0
   15.7899  -19.3724   19.7470 O   0  0  0  0  0  0  0  0  0  0  0  0
   14.0307  -18.7776   21.2909 C   0  0  0  0  0  0  0  0  0  0  0  0
   13.2700  -18.0627   20.2331 C   0  0  0  0  0  0  0  0  0  0  0  0
   11.8207  -17.8407   20.5523 C   0  0  2  0  0  0  0  0  0  0  0  0
   11.1352  -17.2657   19.4172 N   0  0  0  0  0  0  0  0  0  0  0  0
   11.5786  -17.0245   21.7343 C   0  0  0  0  0  0  0  0  0  0  0  0
   11.5782  -15.7618   21.7463 O   0  0  0  0  0  0  0  0  0  0  0  0
   11.3223  -17.6661   22.9747 N   0  0  0  0  0  0  0  0  0  0  0  0
   11.0826  -16.8989   24.1750 C   0  0  1  0  0  0  0  0  0  0  0  0
    9.6285  -16.4943   24.2858 C   0  0  0  0  0  0  0  0  0  0  0  0
    9.4441  -15.5564   25.8242 S   0  0  0  0  0  0  0  0  0  0  0  0
   11.4678  -17.7183   25.3477 C   0  0  0  0  0  0  0  0  0  0  0  0
   11.7167  -18.9331   25.2072 O   0  0  0  0  0  0  0  0  0  0  0  0
   11.5658  -17.1783   26.6268 O   0  0  0  0  0  0  0  0  0  0  0  0
  2  1  1  1
  3  4  1  0
  3  2  1  0
  4  8  1  0
  5  6  1  0
  5  4  2  0
  6  7  1  0
  7  8  2  0
  9  2  1  0
  9 17  1  0
 10  9  2  0
 11 12  1  0
 12 14  1  0
 13 12  2  0
 15 14  1  0
 16 15  1  6
 16 18  1  0
 17 16  1  0
 18 19  2  0
 18 20  1  0
 20 21  1  0
 21 24  1  0
 22 23  1  0
 21 22  1  1
 24 25  2  0
 24 26  1  0
M  END
$$$$
