HQC.pdb
     RDKit          3D

 26 26  0  0  1  0  0  0  0  0999 V2000
    9.1107  -15.4302   20.4046 N   0  0  0  0  0  0  0  0  0  0  0  0
    7.9222  -14.6845   20.6424 C   0  0  1  0  0  0  0  0  0  0  0  0
    6.9211  -14.8983   19.5333 C   0  0  0  0  0  0  0  0  0  0  0  0
    7.4213  -14.5187   18.2163 C   0  0  0  0  0  0  0  0  0  0  0  0
    8.3182  -13.5081   17.9634 C   0  0  0  0  0  0  0  0  0  0  0  0
    8.5518  -13.4400   16.6501 N   0  0  0  0  0  0  0  0  0  0  0  0
    7.8103  -14.3974   16.0791 C   0  0  0  0  0  0  0  0  0  0  0  0
    7.1135  -15.0641   17.0322 N   0  0  0  0  0  0  0  0  0  0  0  0
    7.2630  -15.0551   21.9338 C   0  0  0  0  0  0  0  0  0  0  0  0
    6.1219  -14.5989   22.2002 O   0  0  0  0  0  0  0  0  0  0  0  0
    7.8363  -20.2084   25.1038 N   0  0  0  0  0  0  0  0  0  0  0  0
    7.3082  -19.3822   26.1193 C   0  0  0  0  0  0  0  0  0  0  0  0
    7.0254  -19.9449   27.2227 O   0  0  0  0  0  0  0  0  0  0  0  0
    7.0973  -17.9268   25.8983 C   0  0  0  0  0  0  0  0  0  0  0  0
    7.5204  -17.6013   24.5113 C   0  0  0  0  0  0  0  0  0  0  0  0
    7.4581  -16.1416   24.1690 C   0  0  2  0  0  0  0  0  0  0  0  0
    7.9464  -15.9156   22.8276 N   0  0  0  0  0  0  0  0  0  0  0  0
    8.1635  -15.2704   25.0993 C   0  0  0  0  0  0  0  0  0  0  0  0
    9.4195  -15.1578   25.1646 O   0  0  0  0  0  0  0  0  0  0  0  0
    7.4121  -14.4802   26.0088 N   0  0  0  0  0  0  0  0  0  0  0  0
    8.0623  -13.5416   26.8936 C   0  0  1  0  0  0  0  0  0  0  0  0
    7.0622  -12.5903   27.5144 C   0  0  0  0  0  0  0  0  0  0  0  0
    6.1570  -11.7984   26.1603 S   0  0  0  0  0  0  0  0  0  0  0  0
    8.7640  -14.2983   27.9566 C   0  0  0  0  0  0  0  0  0  0  0  0
    9.3840  -13.6894   28.8523 O   0  0  0  0  0  0  0  0  0  0  0  0
    8.7606  -15.6896   27.9988 O   0  0  0  0  0  0  0  0  0  0  0  0
  2  1  1  6
  3  4  1  0
  3  2  1  0
  4  8  1  0
  5  6  1  0
  5  4  2  0
  6  7  1  0
  7  8  2  0
  9  2  1  0
  9 17  1  0
 10  9  2  0
 11 12  1  0
 12 14  1  0
 13 12  2  0
 15 14  1  0
 16 15  1  1
 16 18  1  0
 17 16  1  0
 18 19  2  0
 18 20  1  0
 20 21  1  0
 21 24  1  0
 22 23  1  0
 21 22  1  1
 24 25  2  0
 24 26  1  0
M  END
$$$$
