HQC.pdb
     RDKit          3D

 26 26  0  0  1  0  0  0  0  0999 V2000
    8.4324  -17.4742   18.7902 N   0  0  0  0  0  0  0  0  0  0  0  0
    8.6535  -16.2712   19.5177 C   0  0  1  0  0  0  0  0  0  0  0  0
    7.5892  -15.2482   19.2035 C   0  0  0  0  0  0  0  0  0  0  0  0
    7.6812  -14.7089   17.8509 C   0  0  0  0  0  0  0  0  0  0  0  0
    8.5831  -15.1060   16.8924 C   0  0  0  0  0  0  0  0  0  0  0  0
    8.3822  -14.4024   15.7750 N   0  0  0  0  0  0  0  0  0  0  0  0
    7.3641  -13.5695   16.0247 C   0  0  0  0  0  0  0  0  0  0  0  0
    6.9278  -13.7506   17.2957 N   0  0  0  0  0  0  0  0  0  0  0  0
    8.6570  -16.4902   20.9982 C   0  0  0  0  0  0  0  0  0  0  0  0
    7.7440  -17.1756   21.5252 O   0  0  0  0  0  0  0  0  0  0  0  0
   13.2739  -18.3890   24.6489 N   0  0  0  0  0  0  0  0  0  0  0  0
   12.9827  -18.1570   23.2872 C   0  0  0  0  0  0  0  0  0  0  0  0
   13.9548  -18.2428   22.4736 O   0  0  0  0  0  0  0  0  0  0  0  0
   11.6036  -17.8291   22.8378 C   0  0  0  0  0  0  0  0  0  0  0  0
   11.1507  -16.6194   23.5730 C   0  0  0  0  0  0  0  0  0  0  0  0
    9.7792  -16.1408   23.1967 C   0  0  2  0  0  0  0  0  0  0  0  0
    9.6955  -15.9159   21.7714 N   0  0  0  0  0  0  0  0  0  0  0  0
    9.3376  -14.9479   23.9066 C   0  0  0  0  0  0  0  0  0  0  0  0
    9.2087  -13.8070   23.3811 O   0  0  0  0  0  0  0  0  0  0  0  0
    9.0230  -15.0443   25.2878 N   0  0  0  0  0  0  0  0  0  0  0  0
    8.4610  -13.9228   26.0041 C   0  0  1  0  0  0  0  0  0  0  0  0
    7.1046  -13.5428   25.4505 C   0  0  0  0  0  0  0  0  0  0  0  0
    6.4492  -12.2133   26.4912 S   0  0  0  0  0  0  0  0  0  0  0  0
    8.3368  -14.2866   27.4348 C   0  0  0  0  0  0  0  0  0  0  0  0
    8.1296  -15.4727   27.7628 O   0  0  0  0  0  0  0  0  0  0  0  0
    8.4438  -13.3405   28.4502 O   0  0  0  0  0  0  0  0  0  0  0  0
  2  1  1  6
  3  4  1  0
  3  2  1  0
  4  8  1  0
  5  6  1  0
  5  4  2  0
  6  7  1  0
  7  8  2  0
  9  2  1  0
  9 17  1  0
 10  9  2  0
 11 12  1  0
 12 14  1  0
 13 12  2  0
 15 14  1  0
 16 15  1  6
 16 18  1  0
 17 16  1  0
 18 19  2  0
 18 20  1  0
 20 21  1  0
 21 24  1  0
 22 23  1  0
 21 22  1  6
 24 25  2  0
 24 26  1  0
M  END
$$$$
