HQC.pdb
     RDKit          3D

 26 26  0  0  1  0  0  0  0  0999 V2000
    8.4197  -17.4366   20.5370 N   0  0  0  0  0  0  0  0  0  0  0  0
    9.1311  -16.4550   21.2825 C   0  0  1  0  0  0  0  0  0  0  0  0
    8.2686  -15.2432   21.5384 C   0  0  0  0  0  0  0  0  0  0  0  0
    8.1005  -14.3903   20.3666 C   0  0  0  0  0  0  0  0  0  0  0  0
    8.6485  -14.6192   19.1269 C   0  0  0  0  0  0  0  0  0  0  0  0
    8.2887  -13.6386   18.2943 N   0  0  0  0  0  0  0  0  0  0  0  0
    7.5215  -12.7989   19.0005 C   0  0  0  0  0  0  0  0  0  0  0  0
    7.4005  -13.2520   20.2728 N   0  0  0  0  0  0  0  0  0  0  0  0
    9.6014  -16.9716   22.6060 C   0  0  0  0  0  0  0  0  0  0  0  0
    8.8429  -17.7049   23.2899 O   0  0  0  0  0  0  0  0  0  0  0  0
   15.1844  -18.9618   23.9532 N   0  0  0  0  0  0  0  0  0  0  0  0
   14.1554  -19.5023   23.1521 C   0  0  0  0  0  0  0  0  0  0  0  0
   14.4708  -20.4758   22.3991 O   0  0  0  0  0  0  0  0  0  0  0  0
   12.7744  -18.9524   23.1950 C   0  0  0  0  0  0  0  0  0  0  0  0
   12.7792  -17.7521   24.0714 C   0  0  0  0  0  0  0  0  0  0  0  0
   11.4272  -17.1406   24.2950 C   0  0  2  0  0  0  0  0  0  0  0  0
   10.8973  -16.6184   23.0559 N   0  0  0  0  0  0  0  0  0  0  0  0
   11.3929  -16.1033   25.3172 C   0  0  0  0  0  0  0  0  0  0  0  0
   11.9415  -14.9711   25.2089 O   0  0  0  0  0  0  0  0  0  0  0  0
   10.7011  -16.3544   26.5315 N   0  0  0  0  0  0  0  0  0  0  0  0
   10.6709  -15.3707   27.5889 C   0  0  1  0  0  0  0  0  0  0  0  0
    9.4653  -14.4649   27.4609 C   0  0  0  0  0  0  0  0  0  0  0  0
    9.5326  -13.2788   28.8279 S   0  0  0  0  0  0  0  0  0  0  0  0
   10.6355  -16.0747   28.8920 C   0  0  0  0  0  0  0  0  0  0  0  0
   10.3189  -17.2807   28.9428 O   0  0  0  0  0  0  0  0  0  0  0  0
   10.9472  -15.4334   30.0875 O   0  0  0  0  0  0  0  0  0  0  0  0
  2  1  1  1
  3  4  1  0
  3  2  1  0
  4  8  1  0
  5  6  1  0
  5  4  2  0
  6  7  1  0
  7  8  2  0
  9  2  1  0
  9 17  1  0
 10  9  2  0
 11 12  1  0
 12 14  1  0
 13 12  2  0
 15 14  1  0
 16 15  1  6
 16 18  1  0
 17 16  1  0
 18 19  2  0
 18 20  1  0
 20 21  1  0
 21 24  1  0
 22 23  1  0
 21 22  1  6
 24 25  2  0
 24 26  1  0
M  END
$$$$
