HTC.pdb
     RDKit          3D

 24 24  0  0  1  0  0  0  0  0999 V2000
    8.9572  -16.9185   14.9265 N   0  0  0  0  0  0  0  0  0  0  0  0
    9.1171  -16.1396   16.1149 C   0  0  1  0  0  0  0  0  0  0  0  0
    7.8407  -15.3636   16.3653 C   0  0  0  0  0  0  0  0  0  0  0  0
    7.7802  -14.2694   15.3480 C   0  0  0  0  0  0  0  0  0  0  0  0
    7.2094  -14.3689   14.0787 C   0  0  0  0  0  0  0  0  0  0  0  0
    7.3401  -13.1914   13.4464 N   0  0  0  0  0  0  0  0  0  0  0  0
    7.9774  -12.3683   14.2943 C   0  0  0  0  0  0  0  0  0  0  0  0
    8.2438  -13.0233   15.4474 N   0  0  0  0  0  0  0  0  0  0  0  0
    9.4403  -16.9867   17.3045 C   0  0  0  0  0  0  0  0  0  0  0  0
    8.7624  -18.0238   17.5209 O   0  0  0  0  0  0  0  0  0  0  0  0
   11.5123  -19.5669   18.2451 C   0  0  0  0  0  0  0  0  0  0  0  0
   11.8984  -18.4370   19.1475 C   0  0  1  0  0  0  0  0  0  0  0  0
   12.9910  -17.7146   18.6925 O   0  0  0  0  0  0  0  0  0  0  0  0
   10.7580  -17.4500   19.3680 C   0  0  2  0  0  0  0  0  0  0  0  0
   10.4913  -16.6624   18.2061 N   0  0  0  0  0  0  0  0  0  0  0  0
   11.1492  -16.6240   20.5447 C   0  0  0  0  0  0  0  0  0  0  0  0
   11.8321  -15.5841   20.3643 O   0  0  0  0  0  0  0  0  0  0  0  0
   10.7841  -16.9564   21.8844 N   0  0  0  0  0  0  0  0  0  0  0  0
   11.2124  -16.1923   23.0272 C   0  0  1  0  0  0  0  0  0  0  0  0
   10.2210  -16.2910   24.1759 C   0  0  0  0  0  0  0  0  0  0  0  0
    8.6866  -15.4998   23.6176 S   0  0  0  0  0  0  0  0  0  0  0  0
   12.5226  -16.6973   23.4985 C   0  0  0  0  0  0  0  0  0  0  0  0
   13.2230  -15.9639   24.4292 O   0  0  0  0  0  0  0  0  0  0  0  0
   13.0083  -17.7708   23.0738 O   0  0  0  0  0  0  0  0  0  0  0  0
  2  3  1  0
  2  1  1  6
  4  3  1  0
  5  4  2  0
  6  7  1  0
  6  5  1  0
  7  8  2  0
  8  4  1  0
  9 10  2  0
  9  2  1  0
 12 11  1  6
 12 14  1  0
 13 12  1  0
 14 15  1  6
 15  9  1  0
 16 14  1  0
 17 16  2  0
 18 16  1  0
 19 18  1  0
 20 21  1  0
 19 20  1  1
 22 23  1  0
 22 19  1  0
 24 22  2  0
M  END
$$$$
