HTC.pdb
     RDKit          3D

 24 24  0  0  1  0  0  0  0  0999 V2000
    7.2655  -16.4716   19.8913 N   0  0  0  0  0  0  0  0  0  0  0  0
    8.1947  -15.7300   20.6857 C   0  0  1  0  0  0  0  0  0  0  0  0
    7.8679  -14.2556   20.5700 C   0  0  0  0  0  0  0  0  0  0  0  0
    8.0625  -13.8694   19.1386 C   0  0  0  0  0  0  0  0  0  0  0  0
    7.1011  -13.2805   18.3165 C   0  0  0  0  0  0  0  0  0  0  0  0
    7.6311  -13.0769   17.0995 N   0  0  0  0  0  0  0  0  0  0  0  0
    8.8955  -13.5255   17.1508 C   0  0  0  0  0  0  0  0  0  0  0  0
    9.1560  -14.0060   18.3881 N   0  0  0  0  0  0  0  0  0  0  0  0
    8.1667  -16.1470   22.1219 C   0  0  0  0  0  0  0  0  0  0  0  0
    7.0691  -16.1571   22.7360 O   0  0  0  0  0  0  0  0  0  0  0  0
    9.3721  -19.4656   23.5940 C   0  0  0  0  0  0  0  0  0  0  0  0
   10.0321  -18.3426   24.3310 C   0  0  1  0  0  0  0  0  0  0  0  0
   11.3488  -18.1304   23.9512 O   0  0  0  0  0  0  0  0  0  0  0  0
    9.2908  -17.0209   24.1668 C   0  0  2  0  0  0  0  0  0  0  0  0
    9.3410  -16.5351   22.8241 N   0  0  0  0  0  0  0  0  0  0  0  0
    9.9072  -16.0784   25.1424 C   0  0  0  0  0  0  0  0  0  0  0  0
   10.8373  -15.3233   24.7617 O   0  0  0  0  0  0  0  0  0  0  0  0
    9.4910  -15.9869   26.5051 N   0  0  0  0  0  0  0  0  0  0  0  0
   10.1154  -15.1076   27.4590 C   0  0  1  0  0  0  0  0  0  0  0  0
    9.0997  -14.2095   28.1477 C   0  0  0  0  0  0  0  0  0  0  0  0
   10.0073  -13.2357   29.3806 S   0  0  0  0  0  0  0  0  0  0  0  0
   10.8054  -15.9098   28.4953 C   0  0  0  0  0  0  0  0  0  0  0  0
   11.7943  -15.3169   29.2472 O   0  0  0  0  0  0  0  0  0  0  0  0
   10.5137  -17.1097   28.7047 O   0  0  0  0  0  0  0  0  0  0  0  0
  2  3  1  0
  2  1  1  6
  4  3  1  0
  5  4  2  0
  6  7  1  0
  6  5  1  0
  7  8  2  0
  8  4  1  0
  9 10  2  0
  9  2  1  0
 12 11  1  6
 12 14  1  0
 13 12  1  0
 14 15  1  6
 15  9  1  0
 16 14  1  0
 17 16  2  0
 18 16  1  0
 19 18  1  0
 20 21  1  0
 19 20  1  1
 22 23  1  0
 22 19  1  0
 24 22  2  0
M  END
$$$$
