HTC.pdb
     RDKit          3D

 24 24  0  0  1  0  0  0  0  0999 V2000
   11.3960  -16.1315   18.4522 N   0  0  0  0  0  0  0  0  0  0  0  0
   11.5603  -15.5342   19.7408 C   0  0  1  0  0  0  0  0  0  0  0  0
   12.1565  -14.1528   19.5660 C   0  0  0  0  0  0  0  0  0  0  0  0
   13.6191  -14.3303   19.3108 C   0  0  0  0  0  0  0  0  0  0  0  0
   14.5451  -14.8543   20.2134 C   0  0  0  0  0  0  0  0  0  0  0  0
   15.7594  -14.8618   19.6400 N   0  0  0  0  0  0  0  0  0  0  0  0
   15.6052  -14.3554   18.4062 C   0  0  0  0  0  0  0  0  0  0  0  0
   14.3066  -14.0334   18.2076 N   0  0  0  0  0  0  0  0  0  0  0  0
   10.2676  -15.4406   20.4874 C   0  0  0  0  0  0  0  0  0  0  0  0
    9.2382  -15.0439   19.8832 O   0  0  0  0  0  0  0  0  0  0  0  0
    7.9655  -17.9461   21.6677 C   0  0  0  0  0  0  0  0  0  0  0  0
    8.4235  -17.1926   22.8771 C   0  0  1  0  0  0  0  0  0  0  0  0
    9.4470  -17.8241   23.5672 O   0  0  0  0  0  0  0  0  0  0  0  0
    8.8998  -15.7840   22.5417 C   0  0  2  0  0  0  0  0  0  0  0  0
   10.1570  -15.7849   21.8628 N   0  0  0  0  0  0  0  0  0  0  0  0
    8.9455  -15.0454   23.8349 C   0  0  0  0  0  0  0  0  0  0  0  0
   10.0368  -14.9572   24.4525 O   0  0  0  0  0  0  0  0  0  0  0  0
    7.7992  -14.4242   24.4168 N   0  0  0  0  0  0  0  0  0  0  0  0
    7.8297  -13.7615   25.6947 C   0  0  1  0  0  0  0  0  0  0  0  0
    6.5129  -13.0653   26.0010 C   0  0  0  0  0  0  0  0  0  0  0  0
    6.6944  -12.2865   27.6296 S   0  0  0  0  0  0  0  0  0  0  0  0
    8.0903  -14.7545   26.7623 C   0  0  0  0  0  0  0  0  0  0  0  0
    8.9876  -14.4414   27.7580 O   0  0  0  0  0  0  0  0  0  0  0  0
    7.5175  -15.8682   26.7826 O   0  0  0  0  0  0  0  0  0  0  0  0
  2  3  1  0
  2  1  1  6
  4  3  1  0
  5  4  2  0
  6  7  1  0
  6  5  1  0
  7  8  2  0
  8  4  1  0
  9 10  2  0
  9  2  1  0
 12 11  1  6
 12 14  1  0
 13 12  1  0
 14 15  1  1
 15  9  1  0
 16 14  1  0
 17 16  2  0
 18 16  1  0
 19 18  1  0
 20 21  1  0
 19 20  1  1
 22 23  1  0
 22 19  1  0
 24 22  2  0
M  END
$$$$
