HTC.pdb
     RDKit          3D

 24 24  0  0  1  0  0  0  0  0999 V2000
    8.1273  -17.2236   20.1241 N   0  0  0  0  0  0  0  0  0  0  0  0
    7.7401  -15.9607   20.6715 C   0  0  1  0  0  0  0  0  0  0  0  0
    6.7158  -15.3248   19.7547 C   0  0  0  0  0  0  0  0  0  0  0  0
    7.4552  -14.4127   18.8288 C   0  0  0  0  0  0  0  0  0  0  0  0
    8.6138  -13.7008   19.1409 C   0  0  0  0  0  0  0  0  0  0  0  0
    8.9931  -12.9892   18.0670 N   0  0  0  0  0  0  0  0  0  0  0  0
    8.0971  -13.2448   17.1004 C   0  0  0  0  0  0  0  0  0  0  0  0
    7.1647  -14.1083   17.5636 N   0  0  0  0  0  0  0  0  0  0  0  0
    7.1770  -16.0933   22.0508 C   0  0  0  0  0  0  0  0  0  0  0  0
    6.1040  -16.7283   22.2164 O   0  0  0  0  0  0  0  0  0  0  0  0
    6.4380  -18.0824   23.9837 C   0  0  0  0  0  0  0  0  0  0  0  0
    7.4032  -17.3069   24.8246 C   0  0  1  0  0  0  0  0  0  0  0  0
    8.7162  -17.7334   24.6948 O   0  0  0  0  0  0  0  0  0  0  0  0
    7.3755  -15.8139   24.5189 C   0  0  2  0  0  0  0  0  0  0  0  0
    7.8121  -15.5253   23.1894 N   0  0  0  0  0  0  0  0  0  0  0  0
    8.2251  -15.1647   25.5565 C   0  0  0  0  0  0  0  0  0  0  0  0
    9.4494  -14.9944   25.3281 O   0  0  0  0  0  0  0  0  0  0  0  0
    7.7144  -14.7200   26.8135 N   0  0  0  0  0  0  0  0  0  0  0  0
    8.4738  -13.9039   27.7248 C   0  0  1  0  0  0  0  0  0  0  0  0
    7.5734  -13.0329   28.5868 C   0  0  0  0  0  0  0  0  0  0  0  0
    6.3329  -12.3019   27.4828 S   0  0  0  0  0  0  0  0  0  0  0  0
    9.2751  -14.7720   28.6180 C   0  0  0  0  0  0  0  0  0  0  0  0
   10.1768  -14.1892   29.4793 O   0  0  0  0  0  0  0  0  0  0  0  0
    9.1542  -16.0186   28.6101 O   0  0  0  0  0  0  0  0  0  0  0  0
  2  3  1  0
  2  1  1  6
  4  3  1  0
  5  4  2  0
  6  7  1  0
  6  5  1  0
  7  8  2  0
  8  4  1  0
  9 10  2  0
  9  2  1  0
 12 11  1  6
 12 14  1  0
 13 12  1  0
 14 15  1  6
 15  9  1  0
 16 14  1  0
 17 16  2  0
 18 16  1  0
 19 18  1  0
 20 21  1  0
 19 20  1  1
 22 23  1  0
 22 19  1  0
 24 22  2  0
M  END
$$$$
