HTC.pdb
     RDKit          3D

 24 24  0  0  1  0  0  0  0  0999 V2000
    9.5772  -17.3219   16.1171 N   0  0  0  0  0  0  0  0  0  0  0  0
   10.1327  -17.3568   17.4341 C   0  0  1  0  0  0  0  0  0  0  0  0
   11.4675  -16.6411   17.4200 C   0  0  0  0  0  0  0  0  0  0  0  0
   12.4072  -17.4715   16.6055 C   0  0  0  0  0  0  0  0  0  0  0  0
   12.8810  -18.7380   16.9493 C   0  0  0  0  0  0  0  0  0  0  0  0
   13.7023  -19.1759   15.9812 N   0  0  0  0  0  0  0  0  0  0  0  0
   13.7465  -18.2108   15.0489 C   0  0  0  0  0  0  0  0  0  0  0  0
   12.9606  -17.1775   15.4287 N   0  0  0  0  0  0  0  0  0  0  0  0
    9.2273  -16.7268   18.4444 C   0  0  0  0  0  0  0  0  0  0  0  0
    8.1372  -16.2279   18.0638 O   0  0  0  0  0  0  0  0  0  0  0  0
    6.7136  -17.4091   19.4123 C   0  0  0  0  0  0  0  0  0  0  0  0
    7.4174  -17.4653   20.7320 C   0  0  1  0  0  0  0  0  0  0  0  0
    7.9408  -18.7151   21.0267 O   0  0  0  0  0  0  0  0  0  0  0  0
    8.5573  -16.4581   20.8293 C   0  0  2  0  0  0  0  0  0  0  0  0
    9.5537  -16.6697   19.8274 N   0  0  0  0  0  0  0  0  0  0  0  0
    9.0981  -16.5797   22.2123 C   0  0  0  0  0  0  0  0  0  0  0  0
   10.1507  -17.2397   22.4034 O   0  0  0  0  0  0  0  0  0  0  0  0
    8.4748  -15.9775   23.3470 N   0  0  0  0  0  0  0  0  0  0  0  0
    9.1558  -15.7702   24.5986 C   0  0  1  0  0  0  0  0  0  0  0  0
    8.3527  -14.8844   25.5381 C   0  0  0  0  0  0  0  0  0  0  0  0
    8.0944  -13.3056   24.6823 S   0  0  0  0  0  0  0  0  0  0  0  0
    9.3775  -17.0744   25.2645 C   0  0  0  0  0  0  0  0  0  0  0  0
   10.1678  -17.1212   26.3905 O   0  0  0  0  0  0  0  0  0  0  0  0
    8.8664  -18.1326   24.8312 O   0  0  0  0  0  0  0  0  0  0  0  0
  2  3  1  0
  2  1  1  6
  4  3  1  0
  5  4  2  0
  6  7  1  0
  6  5  1  0
  7  8  2  0
  8  4  1  0
  9 10  2  0
  9  2  1  0
 12 11  1  6
 12 14  1  0
 13 12  1  0
 14 15  1  6
 15  9  1  0
 16 14  1  0
 17 16  2  0
 18 16  1  0
 19 18  1  0
 20 21  1  0
 19 20  1  1
 22 23  1  0
 22 19  1  0
 24 22  2  0
M  END
$$$$
