HTC.pdb
     RDKit          3D

 24 24  0  0  1  0  0  0  0  0999 V2000
   12.4731  -15.1460   15.6783 N   0  0  0  0  0  0  0  0  0  0  0  0
   11.3026  -15.7582   16.2257 C   0  0  1  0  0  0  0  0  0  0  0  0
   11.4763  -17.2625   16.1897 C   0  0  0  0  0  0  0  0  0  0  0  0
   11.3507  -17.6892   14.7621 C   0  0  0  0  0  0  0  0  0  0  0  0
   10.7887  -16.9329   13.7330 C   0  0  0  0  0  0  0  0  0  0  0  0
   10.8483  -17.6359   12.5903 N   0  0  0  0  0  0  0  0  0  0  0  0
   11.4331  -18.8069   12.8893 C   0  0  0  0  0  0  0  0  0  0  0  0
   11.7374  -18.8380   14.2068 N   0  0  0  0  0  0  0  0  0  0  0  0
   11.0350  -15.3095   17.6272 C   0  0  0  0  0  0  0  0  0  0  0  0
   12.0051  -15.1066   18.4016 O   0  0  0  0  0  0  0  0  0  0  0  0
    7.9296  -12.7745   18.8968 C   0  0  0  0  0  0  0  0  0  0  0  0
    8.0846  -14.0692   19.6315 C   0  0  1  0  0  0  0  0  0  0  0  0
    7.1624  -15.0333   19.2535 O   0  0  0  0  0  0  0  0  0  0  0  0
    9.4734  -14.6742   19.4620 C   0  0  2  0  0  0  0  0  0  0  0  0
    9.7175  -15.1020   18.1208 N   0  0  0  0  0  0  0  0  0  0  0  0
    9.5602  -15.7897   20.4459 C   0  0  0  0  0  0  0  0  0  0  0  0
    9.5369  -16.9762   20.0314 O   0  0  0  0  0  0  0  0  0  0  0  0
    9.6698  -15.5784   21.8537 N   0  0  0  0  0  0  0  0  0  0  0  0
    9.7060  -16.6556   22.8085 C   0  0  1  0  0  0  0  0  0  0  0  0
    9.9051  -16.1458   24.2272 C   0  0  0  0  0  0  0  0  0  0  0  0
   11.5574  -15.3991   24.2922 S   0  0  0  0  0  0  0  0  0  0  0  0
    8.4299  -17.4058   22.7583 C   0  0  0  0  0  0  0  0  0  0  0  0
    8.3342  -18.6024   23.4317 O   0  0  0  0  0  0  0  0  0  0  0  0
    7.4386  -16.9811   22.1213 O   0  0  0  0  0  0  0  0  0  0  0  0
  2  3  1  0
  2  1  1  1
  4  3  1  0
  5  4  2  0
  6  7  1  0
  6  5  1  0
  7  8  2  0
  8  4  1  0
  9 10  2  0
  9  2  1  0
 12 11  1  6
 12 14  1  0
 13 12  1  0
 14 15  1  6
 15  9  1  0
 16 14  1  0
 17 16  2  0
 18 16  1  0
 19 18  1  0
 20 21  1  0
 19 20  1  1
 22 23  1  0
 22 19  1  0
 24 22  2  0
M  END
$$$$
