HTC.pdb
     RDKit          3D

 24 24  0  0  1  0  0  0  0  0999 V2000
   11.9409  -16.9230   19.2083 N   0  0  0  0  0  0  0  0  0  0  0  0
   11.1140  -17.4449   20.2516 C   0  0  1  0  0  0  0  0  0  0  0  0
   11.9187  -18.4420   21.0594 C   0  0  0  0  0  0  0  0  0  0  0  0
   12.1217  -19.6483   20.1994 C   0  0  0  0  0  0  0  0  0  0  0  0
   11.1208  -20.5222   19.7739 C   0  0  0  0  0  0  0  0  0  0  0  0
   11.6729  -21.4863   19.0196 N   0  0  0  0  0  0  0  0  0  0  0  0
   12.9896  -21.2284   18.9693 C   0  0  0  0  0  0  0  0  0  0  0  0
   13.2606  -20.1134   19.6854 N   0  0  0  0  0  0  0  0  0  0  0  0
   10.5901  -16.3677   21.1474 C   0  0  0  0  0  0  0  0  0  0  0  0
   11.3970  -15.5500   21.6596 O   0  0  0  0  0  0  0  0  0  0  0  0
    7.1870  -14.1250   20.5523 C   0  0  0  0  0  0  0  0  0  0  0  0
    7.2809  -14.7804   21.8946 C   0  0  1  0  0  0  0  0  0  0  0  0
    6.5005  -15.9209   22.0088 O   0  0  0  0  0  0  0  0  0  0  0  0
    8.7101  -15.1665   22.2572 C   0  0  2  0  0  0  0  0  0  0  0  0
    9.2060  -16.2317   21.4442 N   0  0  0  0  0  0  0  0  0  0  0  0
    8.6889  -15.5118   23.7065 C   0  0  0  0  0  0  0  0  0  0  0  0
    9.0149  -16.6715   24.0655 O   0  0  0  0  0  0  0  0  0  0  0  0
    8.3126  -14.5816   24.7222 N   0  0  0  0  0  0  0  0  0  0  0  0
    8.2424  -14.9293   26.1177 C   0  0  1  0  0  0  0  0  0  0  0  0
    7.7781  -13.7577   26.9686 C   0  0  0  0  0  0  0  0  0  0  0  0
    8.8939  -12.3721   26.6122 S   0  0  0  0  0  0  0  0  0  0  0  0
    7.2876  -16.0463   26.3030 C   0  0  0  0  0  0  0  0  0  0  0  0
    7.2497  -16.6953   27.5163 O   0  0  0  0  0  0  0  0  0  0  0  0
    6.5161  -16.4146   25.3876 O   0  0  0  0  0  0  0  0  0  0  0  0
  2  3  1  0
  2  1  1  6
  4  3  1  0
  5  4  2  0
  6  7  1  0
  6  5  1  0
  7  8  2  0
  8  4  1  0
  9 10  2  0
  9  2  1  0
 12 11  1  6
 12 14  1  0
 13 12  1  0
 14 15  1  6
 15  9  1  0
 16 14  1  0
 17 16  2  0
 18 16  1  0
 19 18  1  0
 20 21  1  0
 19 20  1  1
 22 23  1  0
 22 19  1  0
 24 22  2  0
M  END
$$$$
