HTC.pdb
     RDKit          3D

 24 24  0  0  1  0  0  0  0  0999 V2000
    8.1580  -16.4612   19.9433 N   0  0  0  0  0  0  0  0  0  0  0  0
    8.0019  -15.2839   20.7396 C   0  0  1  0  0  0  0  0  0  0  0  0
    6.9340  -14.4101   20.1148 C   0  0  0  0  0  0  0  0  0  0  0  0
    7.4433  -13.9754   18.7777 C   0  0  0  0  0  0  0  0  0  0  0  0
    8.4347  -13.0190   18.5561 C   0  0  0  0  0  0  0  0  0  0  0  0
    8.6302  -12.8895   17.2338 N   0  0  0  0  0  0  0  0  0  0  0  0
    7.7839  -13.7424   16.6346 C   0  0  0  0  0  0  0  0  0  0  0  0
    7.0645  -14.4004   17.5721 N   0  0  0  0  0  0  0  0  0  0  0  0
    7.6348  -15.6048   22.1537 C   0  0  0  0  0  0  0  0  0  0  0  0
    6.5060  -16.1041   22.3957 O   0  0  0  0  0  0  0  0  0  0  0  0
    6.6733  -17.6519   23.9206 C   0  0  0  0  0  0  0  0  0  0  0  0
    7.9045  -17.2584   24.6753 C   0  0  1  0  0  0  0  0  0  0  0  0
    9.0437  -17.9348   24.2660 O   0  0  0  0  0  0  0  0  0  0  0  0
    8.1986  -15.7662   24.5755 C   0  0  2  0  0  0  0  0  0  0  0  0
    8.5186  -15.3654   23.2419 N   0  0  0  0  0  0  0  0  0  0  0  0
    9.3049  -15.4987   25.5370 C   0  0  0  0  0  0  0  0  0  0  0  0
   10.4886  -15.7468   25.1943 O   0  0  0  0  0  0  0  0  0  0  0  0
    9.0878  -14.9682   26.8446 N   0  0  0  0  0  0  0  0  0  0  0  0
   10.1614  -14.5932   27.7277 C   0  0  1  0  0  0  0  0  0  0  0  0
    9.8076  -13.3699   28.5587 C   0  0  0  0  0  0  0  0  0  0  0  0
    8.4333  -12.5387   27.7148 S   0  0  0  0  0  0  0  0  0  0  0  0
   10.4583  -15.7128   28.6508 C   0  0  0  0  0  0  0  0  0  0  0  0
   11.5537  -15.6202   29.4791 O   0  0  0  0  0  0  0  0  0  0  0  0
    9.7409  -16.7385   28.6972 O   0  0  0  0  0  0  0  0  0  0  0  0
  2  3  1  0
  2  1  1  6
  4  3  1  0
  5  4  2  0
  6  7  1  0
  6  5  1  0
  7  8  2  0
  8  4  1  0
  9 10  2  0
  9  2  1  0
 12 11  1  6
 12 14  1  0
 13 12  1  0
 14 15  1  6
 15  9  1  0
 16 14  1  0
 17 16  2  0
 18 16  1  0
 19 18  1  0
 20 21  1  0
 19 20  1  1
 22 23  1  0
 22 19  1  0
 24 22  2  0
M  END
$$$$
