YWC.pdb
     RDKit          3D

 33 35  0  0  1  0  0  0  0  0999 V2000
    8.5028  -14.5914   14.8462 O   0  0  0  0  0  0  0  0  0  0  0  0
    8.4480  -14.4035   16.2269 C   0  0  0  0  0  0  0  0  0  0  0  0
    7.9620  -13.2432   16.7868 C   0  0  0  0  0  0  0  0  0  0  0  0
    7.9447  -13.1443   18.1543 C   0  0  0  0  0  0  0  0  0  0  0  0
    8.3925  -14.1555   18.9959 C   0  0  0  0  0  0  0  0  0  0  0  0
    8.3457  -13.9839   20.4841 C   0  0  0  0  0  0  0  0  0  0  0  0
    8.9717  -15.2169   21.1038 C   0  0  2  0  0  0  0  0  0  0  0  0
    8.2352  -16.3607   20.7259 N   0  0  0  0  0  0  0  0  0  0  0  0
    9.1043  -14.9799   22.5429 C   0  0  0  0  0  0  0  0  0  0  0  0
    8.8874  -13.8094   22.9566 O   0  0  0  0  0  0  0  0  0  0  0  0
    8.8729  -15.3035   18.4034 C   0  0  0  0  0  0  0  0  0  0  0  0
    8.9077  -15.4446   17.0133 C   0  0  0  0  0  0  0  0  0  0  0  0
    9.4547  -15.9507   23.5075 N   0  0  0  0  0  0  0  0  0  0  0  0
    9.1289  -15.7892   24.9079 C   0  0  1  0  0  0  0  0  0  0  0  0
    7.7723  -16.4082   25.2052 C   0  0  0  0  0  0  0  0  0  0  0  0
    6.8267  -15.3223   25.5720 C   0  0  0  0  0  0  0  0  0  0  0  0
    5.4819  -15.4549   25.7881 C   0  0  0  0  0  0  0  0  0  0  0  0
    4.9947  -14.2429   26.0964 N   0  0  0  0  0  0  0  0  0  0  0  0
    5.9963  -13.3480   26.0805 C   0  0  0  0  0  0  0  0  0  0  0  0
    6.0322  -11.9891   26.3220 C   0  0  0  0  0  0  0  0  0  0  0  0
    7.2029  -11.2635   26.2450 C   0  0  0  0  0  0  0  0  0  0  0  0
    8.3765  -11.9439   25.9111 C   0  0  0  0  0  0  0  0  0  0  0  0
    8.3539  -13.3016   25.6675 C   0  0  0  0  0  0  0  0  0  0  0  0
    7.1510  -14.0022   25.7548 C   0  0  0  0  0  0  0  0  0  0  0  0
   10.1882  -16.5354   25.6852 C   0  0  0  0  0  0  0  0  0  0  0  0
   11.0171  -17.2703   25.0948 O   0  0  0  0  0  0  0  0  0  0  0  0
   10.2688  -16.4223   27.0937 N   0  0  0  0  0  0  0  0  0  0  0  0
   11.2341  -17.0754   27.9424 C   0  0  1  0  0  0  0  0  0  0  0  0
   11.0729  -16.6708   29.3768 C   0  0  0  0  0  0  0  0  0  0  0  0
   12.5197  -15.8696   30.0557 S   0  0  0  0  0  0  0  0  0  0  0  0
   11.2954  -18.5540   27.7517 C   0  0  0  0  0  0  0  0  0  0  0  0
   12.3668  -19.1693   27.1479 O   0  0  0  0  0  0  0  0  0  0  0  0
   10.3591  -19.2952   28.1444 O   0  0  0  0  0  0  0  0  0  0  0  0
  2  1  1  0
  3  2  2  0
  4  3  1  0
  5  4  2  0
  5 11  1  0
  6  5  1  0
  7  6  1  0
  7  8  1  1
  9  7  1  0
  9 10  2  0
 11 12  2  0
 12  2  1  0
 13  9  1  0
 14 13  1  0
 14 15  1  6
 16 15  1  0
 16 17  2  0
 18 17  1  0
 19 18  1  0
 20 19  2  0
 21 20  1  0
 22 21  2  0
 22 23  1  0
 23 24  2  0
 24 19  1  0
 24 16  1  0
 25 14  1  0
 26 25  2  0
 27 25  1  0
 28 27  1  0
 28 29  1  1
 29 30  1  0
 31 28  1  0
 31 32  1  0
 33 31  2  0
M  END
$$$$
