YWC.pdb
     RDKit          3D

 33 35  0  0  1  0  0  0  0  0999 V2000
   11.4151  -24.5884   19.9038 O   0  0  0  0  0  0  0  0  0  0  0  0
   11.3864  -23.2593   20.3246 C   0  0  0  0  0  0  0  0  0  0  0  0
   10.7355  -22.2806   19.6075 C   0  0  0  0  0  0  0  0  0  0  0  0
   10.7581  -20.9995   20.0958 C   0  0  0  0  0  0  0  0  0  0  0  0
   11.4041  -20.6459   21.2743 C   0  0  0  0  0  0  0  0  0  0  0  0
   11.3905  -19.2257   21.7535 C   0  0  0  0  0  0  0  0  0  0  0  0
   10.3663  -18.4764   20.9255 C   0  0  2  0  0  0  0  0  0  0  0  0
   10.7477  -18.5024   19.5663 N   0  0  0  0  0  0  0  0  0  0  0  0
   10.1878  -17.1507   21.5216 C   0  0  0  0  0  0  0  0  0  0  0  0
   11.1287  -16.3243   21.3810 O   0  0  0  0  0  0  0  0  0  0  0  0
   12.0461  -21.6492   21.9679 C   0  0  0  0  0  0  0  0  0  0  0  0
   12.0468  -22.9679   21.5048 C   0  0  0  0  0  0  0  0  0  0  0  0
    9.0514  -16.7185   22.2409 N   0  0  0  0  0  0  0  0  0  0  0  0
    8.8932  -15.3449   22.6670 C   0  0  1  0  0  0  0  0  0  0  0  0
    7.4183  -14.9797   22.7220 C   0  0  0  0  0  0  0  0  0  0  0  0
    7.0250  -14.8119   24.1451 C   0  0  0  0  0  0  0  0  0  0  0  0
    6.5453  -15.7879   24.9757 C   0  0  0  0  0  0  0  0  0  0  0  0
    6.3121  -15.2289   26.1734 N   0  0  0  0  0  0  0  0  0  0  0  0
    6.6317  -13.9253   26.1212 C   0  0  0  0  0  0  0  0  0  0  0  0
    6.5805  -12.9176   27.0636 C   0  0  0  0  0  0  0  0  0  0  0  0
    6.9692  -11.6259   26.7746 C   0  0  0  0  0  0  0  0  0  0  0  0
    7.4254  -11.3507   25.4831 C   0  0  0  0  0  0  0  0  0  0  0  0
    7.4814  -12.3490   24.5325 C   0  0  0  0  0  0  0  0  0  0  0  0
    7.0799  -13.6435   24.8615 C   0  0  0  0  0  0  0  0  0  0  0  0
    9.4714  -15.2570   24.0602 C   0  0  0  0  0  0  0  0  0  0  0  0
    9.4733  -14.1682   24.6851 O   0  0  0  0  0  0  0  0  0  0  0  0
   10.0227  -16.3982   24.6901 N   0  0  0  0  0  0  0  0  0  0  0  0
   10.7573  -16.4097   25.9306 C   0  0  1  0  0  0  0  0  0  0  0  0
    9.9295  -15.8931   27.0685 C   0  0  0  0  0  0  0  0  0  0  0  0
    8.9797  -17.1652   27.8905 S   0  0  0  0  0  0  0  0  0  0  0  0
   11.4125  -17.7174   26.2261 C   0  0  0  0  0  0  0  0  0  0  0  0
   11.2420  -18.8187   25.4204 O   0  0  0  0  0  0  0  0  0  0  0  0
   12.1533  -17.8559   27.2322 O   0  0  0  0  0  0  0  0  0  0  0  0
  2  1  1  0
  3  2  2  0
  4  3  1  0
  5  4  2  0
  5 11  1  0
  6  5  1  0
  7  6  1  0
  7  8  1  6
  9  7  1  0
  9 10  2  0
 11 12  2  0
 12  2  1  0
 13  9  1  0
 14 13  1  0
 14 15  1  1
 16 15  1  0
 16 17  2  0
 18 17  1  0
 19 18  1  0
 20 19  2  0
 21 20  1  0
 22 21  2  0
 22 23  1  0
 23 24  2  0
 24 19  1  0
 24 16  1  0
 25 14  1  0
 26 25  2  0
 27 25  1  0
 28 27  1  0
 28 29  1  1
 29 30  1  0
 31 28  1  0
 31 32  1  0
 33 31  2  0
M  END
$$$$
