YWC.pdb
     RDKit          3D

 33 35  0  0  1  0  0  0  0  0999 V2000
    7.6906  -13.3143   15.9190 O   0  0  0  0  0  0  0  0  0  0  0  0
    7.8492  -13.4806   17.2943 C   0  0  0  0  0  0  0  0  0  0  0  0
    6.7871  -13.7685   18.1219 C   0  0  0  0  0  0  0  0  0  0  0  0
    7.0348  -13.9158   19.4625 C   0  0  0  0  0  0  0  0  0  0  0  0
    8.3011  -13.7887   20.0206 C   0  0  0  0  0  0  0  0  0  0  0  0
    8.5040  -13.9626   21.4955 C   0  0  0  0  0  0  0  0  0  0  0  0
    9.2039  -15.2903   21.7046 C   0  0  2  0  0  0  0  0  0  0  0  0
    8.4450  -16.3225   21.1112 N   0  0  0  0  0  0  0  0  0  0  0  0
    9.4814  -15.4328   23.1354 C   0  0  0  0  0  0  0  0  0  0  0  0
   10.2531  -14.5856   23.6599 O   0  0  0  0  0  0  0  0  0  0  0  0
    9.3422  -13.5002   19.1647 C   0  0  0  0  0  0  0  0  0  0  0  0
    9.1326  -13.3422   17.7919 C   0  0  0  0  0  0  0  0  0  0  0  0
    8.9585  -16.4384   23.9786 N   0  0  0  0  0  0  0  0  0  0  0  0
    9.3596  -16.5599   25.3633 C   0  0  1  0  0  0  0  0  0  0  0  0
    8.1374  -16.7431   26.2490 C   0  0  0  0  0  0  0  0  0  0  0  0
    7.2364  -15.5768   26.0597 C   0  0  0  0  0  0  0  0  0  0  0  0
    6.0263  -15.5806   25.4207 C   0  0  0  0  0  0  0  0  0  0  0  0
    5.5341  -14.3329   25.4674 N   0  0  0  0  0  0  0  0  0  0  0  0
    6.4014  -13.5409   26.1190 C   0  0  0  0  0  0  0  0  0  0  0  0
    6.3759  -12.1972   26.4352 C   0  0  0  0  0  0  0  0  0  0  0  0
    7.4035  -11.5890   27.1261 C   0  0  0  0  0  0  0  0  0  0  0  0
    8.4935  -12.3750   27.5080 C   0  0  0  0  0  0  0  0  0  0  0  0
    8.5309  -13.7188   27.1981 C   0  0  0  0  0  0  0  0  0  0  0  0
    7.4733  -14.2990   26.4981 C   0  0  0  0  0  0  0  0  0  0  0  0
   10.2206  -17.7982   25.4552 C   0  0  0  0  0  0  0  0  0  0  0  0
   10.3840  -18.5401   24.4558 O   0  0  0  0  0  0  0  0  0  0  0  0
   10.8607  -18.1482   26.6680 N   0  0  0  0  0  0  0  0  0  0  0  0
   11.9471  -19.0849   26.8134 C   0  0  1  0  0  0  0  0  0  0  0  0
   13.2277  -18.5370   26.2593 C   0  0  0  0  0  0  0  0  0  0  0  0
   14.0378  -19.6455   25.1144 S   0  0  0  0  0  0  0  0  0  0  0  0
   12.0889  -19.6270   28.1963 C   0  0  0  0  0  0  0  0  0  0  0  0
   12.9254  -20.6792   28.4865 O   0  0  0  0  0  0  0  0  0  0  0  0
   11.4424  -19.1315   29.1537 O   0  0  0  0  0  0  0  0  0  0  0  0
  2  1  1  0
  3  2  2  0
  4  3  1  0
  5  4  2  0
  5 11  1  0
  6  5  1  0
  7  6  1  0
  7  8  1  1
  9  7  1  0
  9 10  2  0
 11 12  2  0
 12  2  1  0
 13  9  1  0
 14 13  1  0
 14 15  1  1
 16 15  1  0
 16 17  2  0
 18 17  1  0
 19 18  1  0
 20 19  2  0
 21 20  1  0
 22 21  2  0
 22 23  1  0
 23 24  2  0
 24 19  1  0
 24 16  1  0
 25 14  1  0
 26 25  2  0
 27 25  1  0
 28 27  1  0
 28 29  1  1
 29 30  1  0
 31 28  1  0
 31 32  1  0
 33 31  2  0
M  END
$$$$
