YWC.pdb
     RDKit          3D

 33 35  0  0  1  0  0  0  0  0999 V2000
   13.2884  -21.5634   16.8591 O   0  0  0  0  0  0  0  0  0  0  0  0
   13.0831  -20.6380   17.8817 C   0  0  0  0  0  0  0  0  0  0  0  0
   13.7520  -19.4352   17.9228 C   0  0  0  0  0  0  0  0  0  0  0  0
   13.4880  -18.5849   18.9656 C   0  0  0  0  0  0  0  0  0  0  0  0
   12.5816  -18.8799   19.9769 C   0  0  0  0  0  0  0  0  0  0  0  0
   12.3384  -17.9053   21.0894 C   0  0  0  0  0  0  0  0  0  0  0  0
   11.2966  -16.9160   20.6075 C   0  0  2  0  0  0  0  0  0  0  0  0
   11.8427  -16.1200   19.5771 N   0  0  0  0  0  0  0  0  0  0  0  0
   10.7829  -16.1979   21.7758 C   0  0  0  0  0  0  0  0  0  0  0  0
   11.4066  -15.1640   22.1368 O   0  0  0  0  0  0  0  0  0  0  0  0
   11.9291  -20.0919   19.9061 C   0  0  0  0  0  0  0  0  0  0  0  0
   12.1693  -20.9871   18.8600 C   0  0  0  0  0  0  0  0  0  0  0  0
    9.6481  -16.5643   22.5331 N   0  0  0  0  0  0  0  0  0  0  0  0
    9.1661  -15.7528   23.6296 C   0  0  1  0  0  0  0  0  0  0  0  0
    7.6458  -15.7436   23.6462 C   0  0  0  0  0  0  0  0  0  0  0  0
    7.1901  -15.0330   24.8691 C   0  0  0  0  0  0  0  0  0  0  0  0
    6.6005  -15.6003   25.9660 C   0  0  0  0  0  0  0  0  0  0  0  0
    6.3433  -14.6202   26.8461 N   0  0  0  0  0  0  0  0  0  0  0  0
    6.7548  -13.4486   26.3341 C   0  0  0  0  0  0  0  0  0  0  0  0
    6.7236  -12.1582   26.8240 C   0  0  0  0  0  0  0  0  0  0  0  0
    7.2157  -11.0902   26.1026 C   0  0  0  0  0  0  0  0  0  0  0  0
    7.7578  -11.3442   24.8403 C   0  0  0  0  0  0  0  0  0  0  0  0
    7.7948  -12.6292   24.3396 C   0  0  0  0  0  0  0  0  0  0  0  0
    7.2877  -13.6841   25.0980 C   0  0  0  0  0  0  0  0  0  0  0  0
    9.6654  -16.4034   24.8988 C   0  0  0  0  0  0  0  0  0  0  0  0
    9.7540  -17.6525   24.9859 O   0  0  0  0  0  0  0  0  0  0  0  0
   10.0436  -15.6199   26.0152 N   0  0  0  0  0  0  0  0  0  0  0  0
   10.6336  -16.1121   27.2351 C   0  0  1  0  0  0  0  0  0  0  0  0
   10.5665  -15.0931   28.3324 C   0  0  0  0  0  0  0  0  0  0  0  0
   10.9561  -13.4357   27.7872 S   0  0  0  0  0  0  0  0  0  0  0  0
   10.1264  -17.4537   27.6465 C   0  0  0  0  0  0  0  0  0  0  0  0
   10.6790  -18.1547   28.6926 O   0  0  0  0  0  0  0  0  0  0  0  0
    9.1634  -17.9925   27.0445 O   0  0  0  0  0  0  0  0  0  0  0  0
  2  1  1  0
  3  2  2  0
  4  3  1  0
  5  4  2  0
  5 11  1  0
  6  5  1  0
  7  6  1  0
  7  8  1  6
  9  7  1  0
  9 10  2  0
 11 12  2  0
 12  2  1  0
 13  9  1  0
 14 13  1  0
 14 15  1  1
 16 15  1  0
 16 17  2  0
 18 17  1  0
 19 18  1  0
 20 19  2  0
 21 20  1  0
 22 21  2  0
 22 23  1  0
 23 24  2  0
 24 19  1  0
 24 16  1  0
 25 14  1  0
 26 25  2  0
 27 25  1  0
 28 27  1  0
 28 29  1  1
 29 30  1  0
 31 28  1  0
 31 32  1  0
 33 31  2  0
M  END
$$$$
