YWC.pdb
     RDKit          3D

 33 35  0  0  1  0  0  0  0  0999 V2000
    4.1689  -23.2454   26.7518 O   0  0  0  0  0  0  0  0  0  0  0  0
    4.9986  -22.4321   25.9807 C   0  0  0  0  0  0  0  0  0  0  0  0
    5.6688  -21.3557   26.5173 C   0  0  0  0  0  0  0  0  0  0  0  0
    6.4641  -20.6102   25.6853 C   0  0  0  0  0  0  0  0  0  0  0  0
    6.6234  -20.8899   24.3334 C   0  0  0  0  0  0  0  0  0  0  0  0
    7.5090  -20.0348   23.4783 C   0  0  0  0  0  0  0  0  0  0  0  0
    6.6346  -18.9803   22.8304 C   0  0  2  0  0  0  0  0  0  0  0  0
    5.8680  -19.5699   21.8016 N   0  0  0  0  0  0  0  0  0  0  0  0
    7.4943  -17.8623   22.4361 C   0  0  0  0  0  0  0  0  0  0  0  0
    7.9040  -17.8428   21.2444 O   0  0  0  0  0  0  0  0  0  0  0  0
    5.9385  -21.9740   23.8279 C   0  0  0  0  0  0  0  0  0  0  0  0
    5.1178  -22.7597   24.6418 C   0  0  0  0  0  0  0  0  0  0  0  0
    7.9041  -16.8035   23.2767 N   0  0  0  0  0  0  0  0  0  0  0  0
    8.9768  -15.9056   22.9076 C   0  0  1  0  0  0  0  0  0  0  0  0
    9.0180  -14.7195   23.8581 C   0  0  0  0  0  0  0  0  0  0  0  0
    7.8285  -14.7830   24.7463 C   0  0  0  0  0  0  0  0  0  0  0  0
    7.0127  -15.8654   24.9352 C   0  0  0  0  0  0  0  0  0  0  0  0
    6.0592  -15.5122   25.8112 N   0  0  0  0  0  0  0  0  0  0  0  0
    6.2511  -14.2352   26.1806 C   0  0  0  0  0  0  0  0  0  0  0  0
    5.5651  -13.4045   27.0442 C   0  0  0  0  0  0  0  0  0  0  0  0
    5.9567  -12.1013   27.2707 C   0  0  0  0  0  0  0  0  0  0  0  0
    7.0844  -11.6276   26.5956 C   0  0  0  0  0  0  0  0  0  0  0  0
    7.7784  -12.4477   25.7301 C   0  0  0  0  0  0  0  0  0  0  0  0
    7.3526  -13.7601   25.5263 C   0  0  0  0  0  0  0  0  0  0  0  0
   10.2613  -16.6890   23.0467 C   0  0  0  0  0  0  0  0  0  0  0  0
   10.3118  -17.7123   23.7721 O   0  0  0  0  0  0  0  0  0  0  0  0
   11.4337  -16.2870   22.3633 N   0  0  0  0  0  0  0  0  0  0  0  0
   12.6893  -16.9954   22.3455 C   0  0  1  0  0  0  0  0  0  0  0  0
   13.2265  -17.1340   20.9529 C   0  0  0  0  0  0  0  0  0  0  0  0
   12.2605  -16.2597   19.7289 S   0  0  0  0  0  0  0  0  0  0  0  0
   13.6921  -16.4602   23.3122 C   0  0  0  0  0  0  0  0  0  0  0  0
   13.4517  -15.3365   24.0676 O   0  0  0  0  0  0  0  0  0  0  0  0
   14.8023  -17.0279   23.4718 O   0  0  0  0  0  0  0  0  0  0  0  0
  2  1  1  0
  3  2  2  0
  4  3  1  0
  5  4  2  0
  5 11  1  0
  6  5  1  0
  7  6  1  0
  7  8  1  6
  9  7  1  0
  9 10  2  0
 11 12  2  0
 12  2  1  0
 13  9  1  0
 14 13  1  0
 14 15  1  1
 16 15  1  0
 16 17  2  0
 18 17  1  0
 19 18  1  0
 20 19  2  0
 21 20  1  0
 22 21  2  0
 22 23  1  0
 23 24  2  0
 24 19  1  0
 24 16  1  0
 25 14  1  0
 26 25  2  0
 27 25  1  0
 28 27  1  0
 28 29  1  6
 29 30  1  0
 31 28  1  0
 31 32  1  0
 33 31  2  0
M  END
$$$$
