YWC.pdb
     RDKit          3D

 33 35  0  0  1  0  0  0  0  0999 V2000
    7.8272  -14.4700   14.2496 O   0  0  0  0  0  0  0  0  0  0  0  0
    8.0834  -14.2780   15.6067 C   0  0  0  0  0  0  0  0  0  0  0  0
    7.5022  -13.2546   16.3214 C   0  0  0  0  0  0  0  0  0  0  0  0
    7.8108  -13.1405   17.6526 C   0  0  0  0  0  0  0  0  0  0  0  0
    8.6779  -14.0054   18.3094 C   0  0  0  0  0  0  0  0  0  0  0  0
    8.9727  -13.8256   19.7679 C   0  0  0  0  0  0  0  0  0  0  0  0
    9.5453  -15.1316   20.2803 C   0  0  2  0  0  0  0  0  0  0  0  0
    8.8602  -16.2132   19.6851 N   0  0  0  0  0  0  0  0  0  0  0  0
    9.5329  -15.0855   21.7440 C   0  0  0  0  0  0  0  0  0  0  0  0
   10.3676  -14.3250   22.3037 O   0  0  0  0  0  0  0  0  0  0  0  0
    9.2426  -15.0188   17.5651 C   0  0  0  0  0  0  0  0  0  0  0  0
    8.9546  -15.1702   16.2058 C   0  0  0  0  0  0  0  0  0  0  0  0
    8.6656  -15.8202   22.5827 N   0  0  0  0  0  0  0  0  0  0  0  0
    8.8196  -15.8297   24.0213 C   0  0  1  0  0  0  0  0  0  0  0  0
    7.6114  -16.4827   24.6736 C   0  0  0  0  0  0  0  0  0  0  0  0
    6.9839  -15.5018   25.5967 C   0  0  0  0  0  0  0  0  0  0  0  0
    6.2191  -15.7928   26.6936 C   0  0  0  0  0  0  0  0  0  0  0  0
    5.8465  -14.6314   27.2534 N   0  0  0  0  0  0  0  0  0  0  0  0
    6.3557  -13.6142   26.5391 C   0  0  0  0  0  0  0  0  0  0  0  0
    6.2733  -12.2437   26.6845 C   0  0  0  0  0  0  0  0  0  0  0  0
    6.8928  -11.3769   25.8082 C   0  0  0  0  0  0  0  0  0  0  0  0
    7.6206  -11.9234   24.7482 C   0  0  0  0  0  0  0  0  0  0  0  0
    7.7106  -13.2912   24.5920 C   0  0  0  0  0  0  0  0  0  0  0  0
    7.0707  -14.1365   25.4982 C   0  0  0  0  0  0  0  0  0  0  0  0
   10.0454  -16.6622   24.3176 C   0  0  0  0  0  0  0  0  0  0  0  0
   10.9724  -16.7588   23.4767 O   0  0  0  0  0  0  0  0  0  0  0  0
   10.1748  -17.3503   25.5477 N   0  0  0  0  0  0  0  0  0  0  0  0
   10.9081  -16.8927   26.7016 C   0  0  1  0  0  0  0  0  0  0  0  0
   10.4851  -15.5153   27.1153 C   0  0  0  0  0  0  0  0  0  0  0  0
   11.5405  -14.7936   28.3647 S   0  0  0  0  0  0  0  0  0  0  0  0
   10.9180  -17.8688   27.8301 C   0  0  0  0  0  0  0  0  0  0  0  0
   12.0858  -18.2912   28.4207 O   0  0  0  0  0  0  0  0  0  0  0  0
    9.8454  -18.3405   28.2855 O   0  0  0  0  0  0  0  0  0  0  0  0
  2  1  1  0
  3  2  2  0
  4  3  1  0
  5  4  2  0
  5 11  1  0
  6  5  1  0
  7  6  1  0
  7  8  1  1
  9  7  1  0
  9 10  2  0
 11 12  2  0
 12  2  1  0
 13  9  1  0
 14 13  1  0
 14 15  1  1
 16 15  1  0
 16 17  2  0
 18 17  1  0
 19 18  1  0
 20 19  2  0
 21 20  1  0
 22 21  2  0
 22 23  1  0
 23 24  2  0
 24 19  1  0
 24 16  1  0
 25 14  1  0
 26 25  2  0
 27 25  1  0
 28 27  1  0
 28 29  1  1
 29 30  1  0
 31 28  1  0
 31 32  1  0
 33 31  2  0
M  END
$$$$
