YWC.pdb
     RDKit          3D

 33 35  0  0  1  0  0  0  0  0999 V2000
    7.4471  -13.5853   15.8083 O   0  0  0  0  0  0  0  0  0  0  0  0
    7.7690  -13.7059   17.1597 C   0  0  0  0  0  0  0  0  0  0  0  0
    9.0357  -13.4485   17.6340 C   0  0  0  0  0  0  0  0  0  0  0  0
    9.2632  -13.5923   18.9786 C   0  0  0  0  0  0  0  0  0  0  0  0
    8.2795  -13.9835   19.8789 C   0  0  0  0  0  0  0  0  0  0  0  0
    8.5942  -14.1214   21.3379 C   0  0  0  0  0  0  0  0  0  0  0  0
    9.1698  -15.5070   21.5499 C   0  0  2  0  0  0  0  0  0  0  0  0
    8.2817  -16.4721   21.0271 N   0  0  0  0  0  0  0  0  0  0  0  0
    9.5091  -15.6417   22.9681 C   0  0  0  0  0  0  0  0  0  0  0  0
   10.3671  -14.8447   23.4336 O   0  0  0  0  0  0  0  0  0  0  0  0
    7.0226  -14.2336   19.3716 C   0  0  0  0  0  0  0  0  0  0  0  0
    6.7489  -14.0988   18.0076 C   0  0  0  0  0  0  0  0  0  0  0  0
    8.9572  -16.5885   23.8595 N   0  0  0  0  0  0  0  0  0  0  0  0
    9.3690  -16.6653   25.2444 C   0  0  1  0  0  0  0  0  0  0  0  0
    8.1527  -16.8059   26.1458 C   0  0  0  0  0  0  0  0  0  0  0  0
    7.3072  -15.5936   25.9925 C   0  0  0  0  0  0  0  0  0  0  0  0
    6.0488  -15.5434   25.4571 C   0  0  0  0  0  0  0  0  0  0  0  0
    5.6347  -14.2676   25.5020 N   0  0  0  0  0  0  0  0  0  0  0  0
    6.5984  -13.5104   26.0516 C   0  0  0  0  0  0  0  0  0  0  0  0
    6.6770  -12.1589   26.3228 C   0  0  0  0  0  0  0  0  0  0  0  0
    7.7929  -11.5936   26.9045 C   0  0  0  0  0  0  0  0  0  0  0  0
    8.8646  -12.4321   27.2209 C   0  0  0  0  0  0  0  0  0  0  0  0
    8.7984  -13.7841   26.9550 C   0  0  0  0  0  0  0  0  0  0  0  0
    7.6534  -14.3200   26.3658 C   0  0  0  0  0  0  0  0  0  0  0  0
   10.2193  -17.9078   25.3726 C   0  0  0  0  0  0  0  0  0  0  0  0
    9.9881  -18.9178   24.6639 O   0  0  0  0  0  0  0  0  0  0  0  0
   11.2932  -17.9600   26.2930 N   0  0  0  0  0  0  0  0  0  0  0  0
   12.0633  -19.1309   26.6311 C   0  0  1  0  0  0  0  0  0  0  0  0
   13.5314  -18.9048   26.4290 C   0  0  0  0  0  0  0  0  0  0  0  0
   14.5440  -20.2649   26.9952 S   0  0  0  0  0  0  0  0  0  0  0  0
   11.7346  -19.6968   27.9721 C   0  0  0  0  0  0  0  0  0  0  0  0
   11.7232  -21.0510   28.2111 O   0  0  0  0  0  0  0  0  0  0  0  0
   11.4566  -18.9445   28.9401 O   0  0  0  0  0  0  0  0  0  0  0  0
  2  1  1  0
  3  2  2  0
  4  3  1  0
  5  4  2  0
  5 11  1  0
  6  5  1  0
  7  6  1  0
  7  8  1  1
  9  7  1  0
  9 10  2  0
 11 12  2  0
 12  2  1  0
 13  9  1  0
 14 13  1  0
 14 15  1  1
 16 15  1  0
 16 17  2  0
 18 17  1  0
 19 18  1  0
 20 19  2  0
 21 20  1  0
 22 21  2  0
 22 23  1  0
 23 24  2  0
 24 19  1  0
 24 16  1  0
 25 14  1  0
 26 25  2  0
 27 25  1  0
 28 27  1  0
 28 29  1  1
 29 30  1  0
 31 28  1  0
 31 32  1  0
 33 31  2  0
M  END
$$$$
