YWC.pdb
     RDKit          3D

 33 35  0  0  1  0  0  0  0  0999 V2000
    7.9310  -13.2834   15.9129 O   0  0  0  0  0  0  0  0  0  0  0  0
    8.0662  -13.4626   17.2891 C   0  0  0  0  0  0  0  0  0  0  0  0
    6.9858  -13.7288   18.1000 C   0  0  0  0  0  0  0  0  0  0  0  0
    7.2109  -13.8911   19.4429 C   0  0  0  0  0  0  0  0  0  0  0  0
    8.4722  -13.7996   20.0192 C   0  0  0  0  0  0  0  0  0  0  0  0
    8.6501  -13.9881   21.4955 C   0  0  0  0  0  0  0  0  0  0  0  0
    9.4216  -15.2762   21.6996 C   0  0  2  0  0  0  0  0  0  0  0  0
    8.7065  -16.3505   21.1268 N   0  0  0  0  0  0  0  0  0  0  0  0
    9.7325  -15.3940   23.1258 C   0  0  0  0  0  0  0  0  0  0  0  0
   10.5879  -14.5974   23.5969 O   0  0  0  0  0  0  0  0  0  0  0  0
    9.5321  -13.5319   19.1797 C   0  0  0  0  0  0  0  0  0  0  0  0
    9.3457  -13.3598   17.8053 C   0  0  0  0  0  0  0  0  0  0  0  0
    9.1558  -16.3239   24.0193 N   0  0  0  0  0  0  0  0  0  0  0  0
    9.4640  -16.3183   25.4329 C   0  0  1  0  0  0  0  0  0  0  0  0
    8.2098  -16.6024   26.2440 C   0  0  0  0  0  0  0  0  0  0  0  0
    7.2498  -15.4871   26.0376 C   0  0  0  0  0  0  0  0  0  0  0  0
    6.0072  -15.5792   25.4718 C   0  0  0  0  0  0  0  0  0  0  0  0
    5.4647  -14.3516   25.4719 N   0  0  0  0  0  0  0  0  0  0  0  0
    6.3319  -13.4864   26.0228 C   0  0  0  0  0  0  0  0  0  0  0  0
    6.2658  -12.1276   26.2585 C   0  0  0  0  0  0  0  0  0  0  0  0
    7.3029  -11.4369   26.8503 C   0  0  0  0  0  0  0  0  0  0  0  0
    8.4457  -12.1532   27.2146 C   0  0  0  0  0  0  0  0  0  0  0  0
    8.5240  -13.5112   26.9845 C   0  0  0  0  0  0  0  0  0  0  0  0
    7.4551  -14.1759   26.3838 C   0  0  0  0  0  0  0  0  0  0  0  0
   10.4576  -17.4335   25.6615 C   0  0  0  0  0  0  0  0  0  0  0  0
   10.9502  -18.0609   24.6921 O   0  0  0  0  0  0  0  0  0  0  0  0
   10.8541  -17.7945   26.9713 N   0  0  0  0  0  0  0  0  0  0  0  0
   11.7988  -18.8274   27.3164 C   0  0  1  0  0  0  0  0  0  0  0  0
   13.1342  -18.2549   27.6853 C   0  0  0  0  0  0  0  0  0  0  0  0
   13.0730  -17.1653   29.1013 S   0  0  0  0  0  0  0  0  0  0  0  0
   11.2796  -19.8026   28.3193 C   0  0  0  0  0  0  0  0  0  0  0  0
   11.9891  -20.9224   28.6850 O   0  0  0  0  0  0  0  0  0  0  0  0
   10.1639  -19.6287   28.8717 O   0  0  0  0  0  0  0  0  0  0  0  0
  2  1  1  0
  3  2  2  0
  4  3  1  0
  5  4  2  0
  5 11  1  0
  6  5  1  0
  7  6  1  0
  7  8  1  1
  9  7  1  0
  9 10  2  0
 11 12  2  0
 12  2  1  0
 13  9  1  0
 14 13  1  0
 14 15  1  1
 16 15  1  0
 16 17  2  0
 18 17  1  0
 19 18  1  0
 20 19  2  0
 21 20  1  0
 22 21  2  0
 22 23  1  0
 23 24  2  0
 24 19  1  0
 24 16  1  0
 25 14  1  0
 26 25  2  0
 27 25  1  0
 28 27  1  0
 28 29  1  1
 29 30  1  0
 31 28  1  0
 31 32  1  0
 33 31  2  0
M  END
$$$$
