YWC.pdb
     RDKit          3D

 33 35  0  0  1  0  0  0  0  0999 V2000
    9.2667  -21.5509   17.0075 O   0  0  0  0  0  0  0  0  0  0  0  0
    9.6854  -20.7598   18.0767 C   0  0  0  0  0  0  0  0  0  0  0  0
   10.7506  -19.8939   17.9707 C   0  0  0  0  0  0  0  0  0  0  0  0
   11.0932  -19.1538   19.0730 C   0  0  0  0  0  0  0  0  0  0  0  0
   10.4185  -19.2374   20.2850 C   0  0  0  0  0  0  0  0  0  0  0  0
   10.8441  -18.3994   21.4527 C   0  0  0  0  0  0  0  0  0  0  0  0
    9.8904  -17.2252   21.5411 C   0  0  2  0  0  0  0  0  0  0  0  0
   10.1689  -16.3116   20.5012 N   0  0  0  0  0  0  0  0  0  0  0  0
    9.9561  -16.6931   22.9039 C   0  0  0  0  0  0  0  0  0  0  0  0
   10.7659  -15.7511   23.1162 O   0  0  0  0  0  0  0  0  0  0  0  0
    9.3572  -20.1139   20.3577 C   0  0  0  0  0  0  0  0  0  0  0  0
    8.9754  -20.8864   19.2573 C   0  0  0  0  0  0  0  0  0  0  0  0
    9.1897  -17.1449   24.0011 N   0  0  0  0  0  0  0  0  0  0  0  0
    9.2509  -16.4987   25.2942 C   0  0  1  0  0  0  0  0  0  0  0  0
    7.9201  -16.6420   26.0154 C   0  0  0  0  0  0  0  0  0  0  0  0
    7.0023  -15.5786   25.5308 C   0  0  0  0  0  0  0  0  0  0  0  0
    5.9402  -15.7460   24.6843 C   0  0  0  0  0  0  0  0  0  0  0  0
    5.3724  -14.5445   24.4963 N   0  0  0  0  0  0  0  0  0  0  0  0
    6.0478  -13.6224   25.2018 C   0  0  0  0  0  0  0  0  0  0  0  0
    5.8793  -12.2603   25.3520 C   0  0  0  0  0  0  0  0  0  0  0  0
    6.7154  -11.5035   26.1465 C   0  0  0  0  0  0  0  0  0  0  0  0
    7.7579  -12.1548   26.8103 C   0  0  0  0  0  0  0  0  0  0  0  0
    7.9369  -13.5154   26.6684 C   0  0  0  0  0  0  0  0  0  0  0  0
    7.0713  -14.2479   25.8564 C   0  0  0  0  0  0  0  0  0  0  0  0
   10.3167  -17.2201   26.0861 C   0  0  0  0  0  0  0  0  0  0  0  0
   10.6630  -18.3870   25.7789 O   0  0  0  0  0  0  0  0  0  0  0  0
   10.9468  -16.5970   27.1896 N   0  0  0  0  0  0  0  0  0  0  0  0
   12.0345  -17.1421   27.9632 C   0  0  1  0  0  0  0  0  0  0  0  0
   12.8490  -16.0623   28.6097 C   0  0  0  0  0  0  0  0  0  0  0  0
   11.8605  -14.7320   29.2799 S   0  0  0  0  0  0  0  0  0  0  0  0
   11.6148  -18.2119   28.9149 C   0  0  0  0  0  0  0  0  0  0  0  0
   12.5271  -18.9777   29.6023 O   0  0  0  0  0  0  0  0  0  0  0  0
   10.3982  -18.4491   29.1244 O   0  0  0  0  0  0  0  0  0  0  0  0
  2  1  1  0
  3  2  2  0
  4  3  1  0
  5  4  2  0
  5 11  1  0
  6  5  1  0
  7  6  1  0
  7  8  1  6
  9  7  1  0
  9 10  2  0
 11 12  2  0
 12  2  1  0
 13  9  1  0
 14 13  1  0
 14 15  1  1
 16 15  1  0
 16 17  2  0
 18 17  1  0
 19 18  1  0
 20 19  2  0
 21 20  1  0
 22 21  2  0
 22 23  1  0
 23 24  2  0
 24 19  1  0
 24 16  1  0
 25 14  1  0
 26 25  2  0
 27 25  1  0
 28 27  1  0
 28 29  1  1
 29 30  1  0
 31 28  1  0
 31 32  1  0
 33 31  2  0
M  END
$$$$
