YWC.pdb
     RDKit          3D

 33 35  0  0  1  0  0  0  0  0999 V2000
    7.5802  -14.3070   15.7105 O   0  0  0  0  0  0  0  0  0  0  0  0
    7.9202  -14.2727   17.0624 C   0  0  0  0  0  0  0  0  0  0  0  0
    7.1471  -13.6151   17.9929 C   0  0  0  0  0  0  0  0  0  0  0  0
    7.5569  -13.6331   19.3013 C   0  0  0  0  0  0  0  0  0  0  0  0
    8.7098  -14.2808   19.7285 C   0  0  0  0  0  0  0  0  0  0  0  0
    9.1016  -14.2627   21.1752 C   0  0  0  0  0  0  0  0  0  0  0  0
    9.3878  -15.6927   21.5866 C   0  0  2  0  0  0  0  0  0  0  0  0
    8.3835  -16.5417   21.0726 N   0  0  0  0  0  0  0  0  0  0  0  0
    9.5722  -15.7152   23.0392 C   0  0  0  0  0  0  0  0  0  0  0  0
   10.2298  -14.7700   23.5514 O   0  0  0  0  0  0  0  0  0  0  0  0
    9.4610  -14.9292   18.7720 C   0  0  0  0  0  0  0  0  0  0  0  0
    9.0785  -14.9351   17.4277 C   0  0  0  0  0  0  0  0  0  0  0  0
    9.0763  -16.7056   23.9160 N   0  0  0  0  0  0  0  0  0  0  0  0
    9.3768  -16.6936   25.3312 C   0  0  1  0  0  0  0  0  0  0  0  0
    8.0924  -16.7764   26.1406 C   0  0  0  0  0  0  0  0  0  0  0  0
    7.2847  -15.5582   25.8729 C   0  0  0  0  0  0  0  0  0  0  0  0
    6.2298  -15.4572   25.0072 C   0  0  0  0  0  0  0  0  0  0  0  0
    5.7769  -14.1948   25.0583 N   0  0  0  0  0  0  0  0  0  0  0  0
    6.5181  -13.4956   25.9335 C   0  0  0  0  0  0  0  0  0  0  0  0
    6.4703  -12.1798   26.3489 C   0  0  0  0  0  0  0  0  0  0  0  0
    7.3546  -11.6742   27.2792 C   0  0  0  0  0  0  0  0  0  0  0  0
    8.3200  -12.5369   27.8043 C   0  0  0  0  0  0  0  0  0  0  0  0
    8.3781  -13.8538   27.3973 C   0  0  0  0  0  0  0  0  0  0  0  0
    7.4669  -14.3295   26.4546 C   0  0  0  0  0  0  0  0  0  0  0  0
   10.2082  -17.9252   25.6054 C   0  0  0  0  0  0  0  0  0  0  0  0
    9.9257  -19.0220   25.0640 O   0  0  0  0  0  0  0  0  0  0  0  0
   11.3218  -17.8693   26.4771 N   0  0  0  0  0  0  0  0  0  0  0  0
   11.9785  -18.9988   27.0866 C   0  0  1  0  0  0  0  0  0  0  0  0
   13.3377  -18.6355   27.6040 C   0  0  0  0  0  0  0  0  0  0  0  0
   14.6013  -18.6316   26.3394 S   0  0  0  0  0  0  0  0  0  0  0  0
   11.1366  -19.7092   28.0930 C   0  0  0  0  0  0  0  0  0  0  0  0
    9.8759  -19.2744   28.4287 O   0  0  0  0  0  0  0  0  0  0  0  0
   11.5564  -20.7429   28.6721 O   0  0  0  0  0  0  0  0  0  0  0  0
  2  1  1  0
  3  2  2  0
  4  3  1  0
  5  4  2  0
  5 11  1  0
  6  5  1  0
  7  6  1  0
  7  8  1  1
  9  7  1  0
  9 10  2  0
 11 12  2  0
 12  2  1  0
 13  9  1  0
 14 13  1  0
 14 15  1  1
 16 15  1  0
 16 17  2  0
 18 17  1  0
 19 18  1  0
 20 19  2  0
 21 20  1  0
 22 21  2  0
 22 23  1  0
 23 24  2  0
 24 19  1  0
 24 16  1  0
 25 14  1  0
 26 25  2  0
 27 25  1  0
 28 27  1  0
 28 29  1  1
 29 30  1  0
 31 28  1  0
 31 32  1  0
 33 31  2  0
M  END
$$$$
