YWC.pdb
     RDKit          3D

 33 35  0  0  1  0  0  0  0  0999 V2000
    4.7505  -23.8237   21.5411 O   0  0  0  0  0  0  0  0  0  0  0  0
    5.7079  -22.8134   21.6253 C   0  0  0  0  0  0  0  0  0  0  0  0
    6.1129  -22.2906   22.8330 C   0  0  0  0  0  0  0  0  0  0  0  0
    7.0601  -21.2991   22.8222 C   0  0  0  0  0  0  0  0  0  0  0  0
    7.6265  -20.8009   21.6550 C   0  0  0  0  0  0  0  0  0  0  0  0
    8.6587  -19.7156   21.7127 C   0  0  0  0  0  0  0  0  0  0  0  0
    7.9263  -18.3895   21.6806 C   0  0  2  0  0  0  0  0  0  0  0  0
    7.5995  -18.0631   20.3463 N   0  0  0  0  0  0  0  0  0  0  0  0
    8.7373  -17.4092   22.4058 C   0  0  0  0  0  0  0  0  0  0  0  0
    9.4719  -16.6488   21.7200 O   0  0  0  0  0  0  0  0  0  0  0  0
    7.1990  -21.3457   20.4633 C   0  0  0  0  0  0  0  0  0  0  0  0
    6.2356  -22.3578   20.4304 C   0  0  0  0  0  0  0  0  0  0  0  0
    8.7670  -17.2425   23.8082 N   0  0  0  0  0  0  0  0  0  0  0  0
    9.5881  -16.2332   24.4409 C   0  0  1  0  0  0  0  0  0  0  0  0
    9.1506  -16.0295   25.8827 C   0  0  0  0  0  0  0  0  0  0  0  0
    7.8549  -15.3020   25.8859 C   0  0  0  0  0  0  0  0  0  0  0  0
    6.6085  -15.8624   25.8138 C   0  0  0  0  0  0  0  0  0  0  0  0
    5.7089  -14.8670   25.8458 N   0  0  0  0  0  0  0  0  0  0  0  0
    6.3542  -13.6924   25.9361 C   0  0  0  0  0  0  0  0  0  0  0  0
    5.9055  -12.3882   26.0005 C   0  0  0  0  0  0  0  0  0  0  0  0
    6.7737  -11.3200   26.0914 C   0  0  0  0  0  0  0  0  0  0  0  0
    8.1445  -11.5882   26.1176 C   0  0  0  0  0  0  0  0  0  0  0  0
    8.6055  -12.8869   26.0540 C   0  0  0  0  0  0  0  0  0  0  0  0
    7.6974  -13.9417   25.9627 C   0  0  0  0  0  0  0  0  0  0  0  0
   11.0041  -16.7606   24.4291 C   0  0  0  0  0  0  0  0  0  0  0  0
   11.2600  -17.9173   24.8443 O   0  0  0  0  0  0  0  0  0  0  0  0
   12.0711  -15.9632   23.9507 N   0  0  0  0  0  0  0  0  0  0  0  0
   13.4626  -16.3393   23.9201 C   0  0  1  0  0  0  0  0  0  0  0  0
   14.2993  -15.3077   23.2253 C   0  0  0  0  0  0  0  0  0  0  0  0
   16.0281  -15.7500   23.1184 S   0  0  0  0  0  0  0  0  0  0  0  0
   14.0047  -16.7363   25.2524 C   0  0  0  0  0  0  0  0  0  0  0  0
   14.8580  -17.8038   25.4056 O   0  0  0  0  0  0  0  0  0  0  0  0
   13.6974  -16.0982   26.2909 O   0  0  0  0  0  0  0  0  0  0  0  0
  2  1  1  0
  3  2  2  0
  4  3  1  0
  5  4  2  0
  5 11  1  0
  6  5  1  0
  7  6  1  0
  7  8  1  6
  9  7  1  0
  9 10  2  0
 11 12  2  0
 12  2  1  0
 13  9  1  0
 14 13  1  0
 14 15  1  1
 16 15  1  0
 16 17  2  0
 18 17  1  0
 19 18  1  0
 20 19  2  0
 21 20  1  0
 22 21  2  0
 22 23  1  0
 23 24  2  0
 24 19  1  0
 24 16  1  0
 25 14  1  0
 26 25  2  0
 27 25  1  0
 28 27  1  0
 28 29  1  1
 29 30  1  0
 31 28  1  0
 31 32  1  0
 33 31  2  0
M  END
$$$$
