YWC.pdb
     RDKit          3D

 33 35  0  0  1  0  0  0  0  0999 V2000
    7.2057  -13.2893   16.4069 O   0  0  0  0  0  0  0  0  0  0  0  0
    7.4399  -13.5431   17.7579 C   0  0  0  0  0  0  0  0  0  0  0  0
    6.5119  -14.1777   18.5529 C   0  0  0  0  0  0  0  0  0  0  0  0
    6.8262  -14.3866   19.8712 C   0  0  0  0  0  0  0  0  0  0  0  0
    8.0314  -13.9895   20.4380 C   0  0  0  0  0  0  0  0  0  0  0  0
    8.3131  -14.2488   21.8872 C   0  0  0  0  0  0  0  0  0  0  0  0
    9.1334  -15.5201   21.9704 C   0  0  2  0  0  0  0  0  0  0  0  0
    8.4264  -16.5789   21.3600 N   0  0  0  0  0  0  0  0  0  0  0  0
    9.5144  -15.7196   23.3703 C   0  0  0  0  0  0  0  0  0  0  0  0
   10.4008  -14.9571   23.8406 O   0  0  0  0  0  0  0  0  0  0  0  0
    8.9381  -13.3570   19.6150 C   0  0  0  0  0  0  0  0  0  0  0  0
    8.6569  -13.1248   18.2657 C   0  0  0  0  0  0  0  0  0  0  0  0
    8.9736  -16.6934   24.2391 N   0  0  0  0  0  0  0  0  0  0  0  0
    9.5144  -16.9230   25.5613 C   0  0  1  0  0  0  0  0  0  0  0  0
    8.4008  -16.8907   26.5960 C   0  0  0  0  0  0  0  0  0  0  0  0
    7.4584  -15.7974   26.2432 C   0  0  0  0  0  0  0  0  0  0  0  0
    6.2545  -15.9363   25.6076 C   0  0  0  0  0  0  0  0  0  0  0  0
    5.7156  -14.7139   25.4784 N   0  0  0  0  0  0  0  0  0  0  0  0
    6.5474  -13.8064   26.0155 C   0  0  0  0  0  0  0  0  0  0  0  0
    6.4692  -12.4336   26.1411 C   0  0  0  0  0  0  0  0  0  0  0  0
    7.4676  -11.6965   26.7434 C   0  0  0  0  0  0  0  0  0  0  0  0
    8.5831  -12.3794   27.2343 C   0  0  0  0  0  0  0  0  0  0  0  0
    8.6733  -13.7508   27.1150 C   0  0  0  0  0  0  0  0  0  0  0  0
    7.6437  -14.4628   26.4998 C   0  0  0  0  0  0  0  0  0  0  0  0
   10.1250  -18.3051   25.5427 C   0  0  0  0  0  0  0  0  0  0  0  0
   10.3415  -18.8948   24.4559 O   0  0  0  0  0  0  0  0  0  0  0  0
   10.4658  -18.9637   26.7482 N   0  0  0  0  0  0  0  0  0  0  0  0
   11.7812  -19.4204   27.1218 C   0  0  1  0  0  0  0  0  0  0  0  0
   12.8392  -18.4278   26.7444 C   0  0  0  0  0  0  0  0  0  0  0  0
   14.4599  -19.1569   26.5496 S   0  0  0  0  0  0  0  0  0  0  0  0
   11.8774  -19.8716   28.5408 C   0  0  0  0  0  0  0  0  0  0  0  0
   12.1083  -21.1852   28.8760 O   0  0  0  0  0  0  0  0  0  0  0  0
   11.7519  -19.0550   29.4882 O   0  0  0  0  0  0  0  0  0  0  0  0
  2  1  1  0
  3  2  2  0
  4  3  1  0
  5  4  2  0
  5 11  1  0
  6  5  1  0
  7  6  1  0
  7  8  1  1
  9  7  1  0
  9 10  2  0
 11 12  2  0
 12  2  1  0
 13  9  1  0
 14 13  1  0
 14 15  1  1
 16 15  1  0
 16 17  2  0
 18 17  1  0
 19 18  1  0
 20 19  2  0
 21 20  1  0
 22 21  2  0
 22 23  1  0
 23 24  2  0
 24 19  1  0
 24 16  1  0
 25 14  1  0
 26 25  2  0
 27 25  1  0
 28 27  1  0
 28 29  1  1
 29 30  1  0
 31 28  1  0
 31 32  1  0
 33 31  2  0
M  END
$$$$
