YWC.pdb
     RDKit          3D

 33 35  0  0  1  0  0  0  0  0999 V2000
    7.2408  -13.5284   16.0658 O   0  0  0  0  0  0  0  0  0  0  0  0
    7.6279  -13.6683   17.3981 C   0  0  0  0  0  0  0  0  0  0  0  0
    7.7266  -12.5885   18.2467 C   0  0  0  0  0  0  0  0  0  0  0  0
    8.1145  -12.8183   19.5416 C   0  0  0  0  0  0  0  0  0  0  0  0
    8.4107  -14.0838   20.0337 C   0  0  0  0  0  0  0  0  0  0  0  0
    8.8289  -14.2668   21.4614 C   0  0  0  0  0  0  0  0  0  0  0  0
    9.1489  -15.7349   21.6568 C   0  0  2  0  0  0  0  0  0  0  0  0
    8.0718  -16.5190   21.1891 N   0  0  0  0  0  0  0  0  0  0  0  0
    9.5304  -15.9304   23.0571 C   0  0  0  0  0  0  0  0  0  0  0  0
   10.5564  -15.3228   23.4650 O   0  0  0  0  0  0  0  0  0  0  0  0
    8.3022  -15.1429   19.1584 C   0  0  0  0  0  0  0  0  0  0  0  0
    7.9100  -14.9518   17.8306 C   0  0  0  0  0  0  0  0  0  0  0  0
    8.8472  -16.7416   23.9902 N   0  0  0  0  0  0  0  0  0  0  0  0
    9.3397  -16.9394   25.3362 C   0  0  1  0  0  0  0  0  0  0  0  0
    8.1969  -16.8329   26.3334 C   0  0  0  0  0  0  0  0  0  0  0  0
    7.3334  -15.6883   25.9435 C   0  0  0  0  0  0  0  0  0  0  0  0
    6.1369  -15.7614   25.2834 C   0  0  0  0  0  0  0  0  0  0  0  0
    5.6795  -14.5097   25.1240 N   0  0  0  0  0  0  0  0  0  0  0  0
    6.5555  -13.6478   25.6659 C   0  0  0  0  0  0  0  0  0  0  0  0
    6.5618  -12.2710   25.7692 C   0  0  0  0  0  0  0  0  0  0  0  0
    7.5919  -11.5885   26.3824 C   0  0  0  0  0  0  0  0  0  0  0  0
    8.6513  -12.3322   26.9081 C   0  0  0  0  0  0  0  0  0  0  0  0
    8.6568  -13.7084   26.8113 C   0  0  0  0  0  0  0  0  0  0  0  0
    7.5975  -14.3640   26.1842 C   0  0  0  0  0  0  0  0  0  0  0  0
    9.9043  -18.3401   25.3867 C   0  0  0  0  0  0  0  0  0  0  0  0
    9.8688  -19.0816   24.3744 O   0  0  0  0  0  0  0  0  0  0  0  0
   10.4846  -18.8457   26.5744 N   0  0  0  0  0  0  0  0  0  0  0  0
   11.8725  -19.1890   26.7600 C   0  0  1  0  0  0  0  0  0  0  0  0
   12.7817  -18.1112   26.2512 C   0  0  0  0  0  0  0  0  0  0  0  0
   14.3240  -18.7340   25.5958 S   0  0  0  0  0  0  0  0  0  0  0  0
   12.2000  -19.6280   28.1480 C   0  0  0  0  0  0  0  0  0  0  0  0
   12.7663  -20.8529   28.4126 O   0  0  0  0  0  0  0  0  0  0  0  0
   11.9688  -18.8818   29.1329 O   0  0  0  0  0  0  0  0  0  0  0  0
  2  1  1  0
  3  2  2  0
  4  3  1  0
  5  4  2  0
  5 11  1  0
  6  5  1  0
  7  6  1  0
  7  8  1  1
  9  7  1  0
  9 10  2  0
 11 12  2  0
 12  2  1  0
 13  9  1  0
 14 13  1  0
 14 15  1  1
 16 15  1  0
 16 17  2  0
 18 17  1  0
 19 18  1  0
 20 19  2  0
 21 20  1  0
 22 21  2  0
 22 23  1  0
 23 24  2  0
 24 19  1  0
 24 16  1  0
 25 14  1  0
 26 25  2  0
 27 25  1  0
 28 27  1  0
 28 29  1  1
 29 30  1  0
 31 28  1  0
 31 32  1  0
 33 31  2  0
M  END
$$$$
