YHY.pdb
     RDKit          3D

 35 37  0  0  1  0  0  0  0  0999 V2000
   22.1832  -10.3330    6.1196 O   0  0  0  0  0  0  0  0  0  0  0  0
   21.1522  -11.1857    6.4744 C   0  0  0  0  0  0  0  0  0  0  0  0
   19.9359  -11.1832    5.8252 C   0  0  0  0  0  0  0  0  0  0  0  0
   18.9120  -12.0452    6.1950 C   0  0  0  0  0  0  0  0  0  0  0  0
   19.0631  -12.9449    7.2283 C   0  0  0  0  0  0  0  0  0  0  0  0
   17.9875  -13.8752    7.6629 C   0  0  0  0  0  0  0  0  0  0  0  0
   17.3998  -14.5883    6.4514 C   0  0  2  0  0  0  0  0  0  0  0  0
   16.0370  -14.0446    6.3190 N   0  0  0  0  0  0  0  0  0  0  0  0
   17.2900  -16.0291    6.8045 C   0  0  0  0  0  0  0  0  0  0  0  0
   16.4963  -16.3979    7.7420 O   0  0  0  0  0  0  0  0  0  0  0  0
   20.2898  -12.9501    7.8860 C   0  0  0  0  0  0  0  0  0  0  0  0
   21.3040  -12.0902    7.5141 C   0  0  0  0  0  0  0  0  0  0  0  0
   18.0116  -17.0709    6.1721 N   0  0  0  0  0  0  0  0  0  0  0  0
   17.8209  -18.4698    6.5809 C   0  0  1  0  0  0  0  0  0  0  0  0
   16.3825  -18.8807    6.3501 C   0  0  0  0  0  0  0  0  0  0  0  0
   16.1172  -18.9205    4.8960 C   0  0  0  0  0  0  0  0  0  0  0  0
   16.8307  -19.6300    3.9562 C   0  0  0  0  0  0  0  0  0  0  0  0
   16.2907  -19.3901    2.7487 N   0  0  0  0  0  0  0  0  0  0  0  0
   15.2562  -18.5459    2.9104 C   0  0  0  0  0  0  0  0  0  0  0  0
   15.1411  -18.2536    4.2140 N   0  0  0  0  0  0  0  0  0  0  0  0
   18.8176  -19.3485    5.9662 C   0  0  0  0  0  0  0  0  0  0  0  0
   19.4881  -18.9825    4.9688 O   0  0  0  0  0  0  0  0  0  0  0  0
   22.4646  -19.0131   11.3377 O   0  0  0  0  0  0  0  0  0  0  0  0
   22.2216  -19.4159   10.0262 C   0  0  0  0  0  0  0  0  0  0  0  0
   22.1974  -20.7516    9.6984 C   0  0  0  0  0  0  0  0  0  0  0  0
   21.9602  -21.1813    8.4171 C   0  0  0  0  0  0  0  0  0  0  0  0
   21.7376  -20.2704    7.4143 C   0  0  0  0  0  0  0  0  0  0  0  0
   21.5024  -20.7242    6.0552 C   0  0  0  0  0  0  0  0  0  0  0  0
   20.1771  -21.4542    5.8470 C   0  0  2  0  0  0  0  0  0  0  0  0
   19.0938  -20.6640    6.4494 N   0  0  0  0  0  0  0  0  0  0  0  0
   20.2104  -22.7705    6.5133 C   0  0  0  0  0  0  0  0  0  0  0  0
   21.0562  -23.6164    6.1507 O   0  0  0  0  0  0  0  0  0  0  0  0
   21.7567  -18.9300    7.7145 C   0  0  0  0  0  0  0  0  0  0  0  0
   21.9967  -18.5164    9.0077 C   0  0  0  0  0  0  0  0  0  0  0  0
   19.3251  -23.1189    7.5465 O   0  0  0  0  0  0  0  0  0  0  0  0
  1  2  1  0
  2  3  2  0
  3  4  1  0
  5  6  1  0
  5  4  2  0
  6  7  1  0
  7  8  1  1
  9 13  1  0
  9  7  1  0
 10  9  2  0
 11  5  1  0
 12 11  2  0
 12  2  1  0
 14 13  1  0
 14 21  1  0
 14 15  1  6
 16 17  2  0
 16 15  1  0
 18 17  1  0
 19 20  2  0
 19 18  1  0
 20 16  1  0
 21 22  2  0
 23 24  1  0
 24 25  2  0
 24 34  1  0
 25 26  1  0
 26 27  2  0
 27 28  1  0
 29 31  1  0
 29 28  1  1
 30 21  1  0
 30 29  1  0
 31 35  1  0
 32 31  2  0
 33 27  1  0
 34 33  2  0
M  END
$$$$
