YHY.pdb
     RDKit          3D

 35 37  0  0  1  0  0  0  0  0999 V2000
   18.7418  -12.6604  -15.9154 O   0  0  0  0  0  0  0  0  0  0  0  0
   19.0475  -14.0103  -15.9319 C   0  0  0  0  0  0  0  0  0  0  0  0
   18.4107  -14.9010  -16.7696 C   0  0  0  0  0  0  0  0  0  0  0  0
   18.7295  -16.2525  -16.7724 C   0  0  0  0  0  0  0  0  0  0  0  0
   19.6981  -16.7678  -15.9381 C   0  0  0  0  0  0  0  0  0  0  0  0
   20.0595  -18.2098  -15.9017 C   0  0  0  0  0  0  0  0  0  0  0  0
   21.3028  -18.4529  -16.7484 C   0  0  2  0  0  0  0  0  0  0  0  0
   20.8588  -18.2444  -18.1376 N   0  0  0  0  0  0  0  0  0  0  0  0
   21.6649  -19.8869  -16.5896 C   0  0  0  0  0  0  0  0  0  0  0  0
   21.0488  -20.7803  -17.2729 O   0  0  0  0  0  0  0  0  0  0  0  0
   20.3430  -15.8714  -15.0908 C   0  0  0  0  0  0  0  0  0  0  0  0
   20.0214  -14.5286  -15.0923 C   0  0  0  0  0  0  0  0  0  0  0  0
   22.6695  -20.3723  -15.7171 N   0  0  0  0  0  0  0  0  0  0  0  0
   22.9881  -21.8063  -15.6655 C   0  0  1  0  0  0  0  0  0  0  0  0
   24.4841  -22.0044  -15.7832 C   0  0  0  0  0  0  0  0  0  0  0  0
   24.7843  -23.4521  -15.7635 C   0  0  0  0  0  0  0  0  0  0  0  0
   23.8736  -24.4714  -15.5986 C   0  0  0  0  0  0  0  0  0  0  0  0
   24.5401  -25.6387  -15.6193 N   0  0  0  0  0  0  0  0  0  0  0  0
   25.8474  -25.3739  -15.7923 C   0  0  0  0  0  0  0  0  0  0  0  0
   26.0076  -24.0455  -15.8818 N   0  0  0  0  0  0  0  0  0  0  0  0
   22.3719  -22.4508  -14.5043 C   0  0  0  0  0  0  0  0  0  0  0  0
   22.4119  -21.9242  -13.3644 O   0  0  0  0  0  0  0  0  0  0  0  0
   16.9572  -25.2082   -8.5372 O   0  0  0  0  0  0  0  0  0  0  0  0
   17.7191  -24.7250   -9.5990 C   0  0  0  0  0  0  0  0  0  0  0  0
   17.2811  -24.8673  -10.8952 C   0  0  0  0  0  0  0  0  0  0  0  0
   18.0068  -24.4021  -11.9627 C   0  0  0  0  0  0  0  0  0  0  0  0
   19.2094  -23.7724  -11.7572 C   0  0  0  0  0  0  0  0  0  0  0  0
   19.9853  -23.2942  -12.8876 C   0  0  0  0  0  0  0  0  0  0  0  0
   21.0500  -24.2681  -13.3880 C   0  0  2  0  0  0  0  0  0  0  0  0
   21.6922  -23.7045  -14.5842 N   0  0  0  0  0  0  0  0  0  0  0  0
   20.4290  -25.5533  -13.7628 C   0  0  0  0  0  0  0  0  0  0  0  0
   19.9283  -25.6797  -14.9010 O   0  0  0  0  0  0  0  0  0  0  0  0
   19.6702  -23.6175  -10.4724 C   0  0  0  0  0  0  0  0  0  0  0  0
   18.9275  -24.0913   -9.4117 C   0  0  0  0  0  0  0  0  0  0  0  0
   20.3745  -26.6514  -12.8887 O   0  0  0  0  0  0  0  0  0  0  0  0
  1  2  1  0
  2  3  2  0
  3  4  1  0
  5  6  1  0
  5  4  2  0
  6  7  1  0
  7  8  1  6
  9 13  1  0
  9  7  1  0
 10  9  2  0
 11  5  1  0
 12 11  2  0
 12  2  1  0
 14 13  1  0
 14 21  1  0
 14 15  1  1
 16 17  2  0
 16 15  1  0
 18 17  1  0
 19 20  2  0
 19 18  1  0
 20 16  1  0
 21 22  2  0
 23 24  1  0
 24 25  2  0
 24 34  1  0
 25 26  1  0
 26 27  2  0
 27 28  1  0
 29 31  1  0
 29 28  1  6
 30 21  1  0
 30 29  1  0
 31 35  1  0
 32 31  2  0
 33 27  1  0
 34 33  2  0
M  END
$$$$
