YHY.pdb
     RDKit          3D

 35 37  0  0  1  0  0  0  0  0999 V2000
   20.7085  -13.6649  -18.4576 O   0  0  0  0  0  0  0  0  0  0  0  0
   21.4022  -14.7311  -17.9118 C   0  0  0  0  0  0  0  0  0  0  0  0
   22.6184  -14.5753  -17.2815 C   0  0  0  0  0  0  0  0  0  0  0  0
   23.3011  -15.6566  -16.7402 C   0  0  0  0  0  0  0  0  0  0  0  0
   22.7953  -16.9370  -16.8068 C   0  0  0  0  0  0  0  0  0  0  0  0
   23.5009  -18.1221  -16.2512 C   0  0  0  0  0  0  0  0  0  0  0  0
   24.7832  -18.3748  -17.0346 C   0  0  2  0  0  0  0  0  0  0  0  0
   24.3408  -19.0216  -18.2822 N   0  0  0  0  0  0  0  0  0  0  0  0
   25.5801  -19.3631  -16.2595 C   0  0  0  0  0  0  0  0  0  0  0  0
   25.2233  -20.5947  -16.2379 O   0  0  0  0  0  0  0  0  0  0  0  0
   21.5676  -17.0980  -17.4427 C   0  0  0  0  0  0  0  0  0  0  0  0
   20.8936  -16.0191  -17.9794 C   0  0  0  0  0  0  0  0  0  0  0  0
   26.7440  -19.0528  -15.5145 N   0  0  0  0  0  0  0  0  0  0  0  0
   27.4245  -20.0872  -14.7224 C   0  0  1  0  0  0  0  0  0  0  0  0
   28.8640  -20.2144  -15.1723 C   0  0  0  0  0  0  0  0  0  0  0  0
   28.8949  -20.7235  -16.5602 C   0  0  0  0  0  0  0  0  0  0  0  0
   29.0297  -19.9676  -17.7031 C   0  0  0  0  0  0  0  0  0  0  0  0
   28.9919  -20.7952  -18.7618 N   0  0  0  0  0  0  0  0  0  0  0  0
   28.8354  -22.0518  -18.3085 C   0  0  0  0  0  0  0  0  0  0  0  0
   28.7756  -22.0201  -16.9692 N   0  0  0  0  0  0  0  0  0  0  0  0
   27.2465  -19.8660  -13.2861 C   0  0  0  0  0  0  0  0  0  0  0  0
   27.4439  -18.7392  -12.7669 O   0  0  0  0  0  0  0  0  0  0  0  0
   20.4673  -20.9357  -12.5562 O   0  0  0  0  0  0  0  0  0  0  0  0
   21.7363  -20.5834  -12.1013 C   0  0  0  0  0  0  0  0  0  0  0  0
   22.6776  -20.0851  -12.9720 C   0  0  0  0  0  0  0  0  0  0  0  0
   23.9354  -19.7281  -12.5560 C   0  0  0  0  0  0  0  0  0  0  0  0
   24.2897  -19.8631  -11.2365 C   0  0  0  0  0  0  0  0  0  0  0  0
   25.6259  -19.5004  -10.7990 C   0  0  0  0  0  0  0  0  0  0  0  0
   26.6703  -20.6034  -10.9579 C   0  0  2  0  0  0  0  0  0  0  0  0
   26.8419  -20.8999  -12.3874 N   0  0  0  0  0  0  0  0  0  0  0  0
   26.2162  -21.8357  -10.2847 C   0  0  0  0  0  0  0  0  0  0  0  0
   26.0255  -22.8671  -10.9645 O   0  0  0  0  0  0  0  0  0  0  0  0
   23.3686  -20.3586  -10.3459 C   0  0  0  0  0  0  0  0  0  0  0  0
   22.1092  -20.7122  -10.7817 C   0  0  0  0  0  0  0  0  0  0  0  0
   25.9860  -21.9018   -8.9007 O   0  0  0  0  0  0  0  0  0  0  0  0
  1  2  1  0
  2  3  2  0
  3  4  1  0
  5  6  1  0
  5  4  2  0
  6  7  1  0
  7  8  1  6
  9 13  1  0
  9  7  1  0
 10  9  2  0
 11  5  1  0
 12 11  2  0
 12  2  1  0
 14 13  1  0
 14 21  1  0
 14 15  1  1
 16 17  2  0
 16 15  1  0
 18 17  1  0
 19 20  2  0
 19 18  1  0
 20 16  1  0
 21 22  2  0
 23 24  1  0
 24 25  2  0
 24 34  1  0
 25 26  1  0
 26 27  2  0
 27 28  1  0
 29 31  1  0
 29 28  1  6
 30 21  1  0
 30 29  1  0
 31 35  1  0
 32 31  2  0
 33 27  1  0
 34 33  2  0
M  END
$$$$
