YHY.pdb
     RDKit          3D

 35 37  0  0  1  0  0  0  0  0999 V2000
   32.7645  -15.6641  -19.3408 O   0  0  0  0  0  0  0  0  0  0  0  0
   31.4174  -15.8951  -19.1220 C   0  0  0  0  0  0  0  0  0  0  0  0
   30.8924  -17.1665  -19.0279 C   0  0  0  0  0  0  0  0  0  0  0  0
   29.5379  -17.3800  -18.8090 C   0  0  0  0  0  0  0  0  0  0  0  0
   28.6538  -16.3312  -18.6747 C   0  0  0  0  0  0  0  0  0  0  0  0
   27.1954  -16.5178  -18.4523 C   0  0  0  0  0  0  0  0  0  0  0  0
   26.5632  -17.1617  -19.6801 C   0  0  2  0  0  0  0  0  0  0  0  0
   26.5608  -16.1008  -20.7024 N   0  0  0  0  0  0  0  0  0  0  0  0
   25.1505  -17.4707  -19.3318 C   0  0  0  0  0  0  0  0  0  0  0  0
   24.3036  -16.5173  -19.1950 O   0  0  0  0  0  0  0  0  0  0  0  0
   29.1803  -15.0462  -18.7693 C   0  0  0  0  0  0  0  0  0  0  0  0
   30.5280  -14.8400  -18.9876 C   0  0  0  0  0  0  0  0  0  0  0  0
   24.6372  -18.7752  -19.1305 N   0  0  0  0  0  0  0  0  0  0  0  0
   23.2008  -18.9883  -18.9025 C   0  0  1  0  0  0  0  0  0  0  0  0
   22.6771  -20.0314  -19.8661 C   0  0  0  0  0  0  0  0  0  0  0  0
   22.4504  -19.4026  -21.1850 C   0  0  0  0  0  0  0  0  0  0  0  0
   22.5335  -18.0587  -21.4725 C   0  0  0  0  0  0  0  0  0  0  0  0
   22.2395  -17.8877  -22.7731 N   0  0  0  0  0  0  0  0  0  0  0  0
   21.9732  -19.0933  -23.3065 C   0  0  0  0  0  0  0  0  0  0  0  0
   22.0989  -20.0232  -22.3485 N   0  0  0  0  0  0  0  0  0  0  0  0
   22.9161  -19.2566  -17.4916 C   0  0  0  0  0  0  0  0  0  0  0  0
   23.5591  -20.1215  -16.8461 O   0  0  0  0  0  0  0  0  0  0  0  0
   18.7105  -19.1741   -9.6314 O   0  0  0  0  0  0  0  0  0  0  0  0
   19.2015  -18.8613  -10.8972 C   0  0  0  0  0  0  0  0  0  0  0  0
   20.4728  -18.3582  -11.0492 C   0  0  0  0  0  0  0  0  0  0  0  0
   20.9864  -18.0410  -12.2813 C   0  0  0  0  0  0  0  0  0  0  0  0
   20.2285  -18.2217  -13.4117 C   0  0  0  0  0  0  0  0  0  0  0  0
   20.7659  -17.8711  -14.7144 C   0  0  0  0  0  0  0  0  0  0  0  0
   21.5801  -18.9747  -15.3864 C   0  0  2  0  0  0  0  0  0  0  0  0
   21.9028  -18.5644  -16.7606 N   0  0  0  0  0  0  0  0  0  0  0  0
   20.7923  -20.2208  -15.4523 C   0  0  0  0  0  0  0  0  0  0  0  0
   21.0454  -21.1455  -14.6504 O   0  0  0  0  0  0  0  0  0  0  0  0
   18.9552  -18.7223  -13.2881 C   0  0  0  0  0  0  0  0  0  0  0  0
   18.4556  -19.0357  -12.0419 C   0  0  0  0  0  0  0  0  0  0  0  0
   19.7610  -20.4163  -16.3856 O   0  0  0  0  0  0  0  0  0  0  0  0
  1  2  1  0
  2  3  2  0
  3  4  1  0
  5  6  1  0
  5  4  2  0
  6  7  1  0
  7  8  1  6
  9 13  1  0
  9  7  1  0
 10  9  2  0
 11  5  1  0
 12 11  2  0
 12  2  1  0
 14 13  1  0
 14 21  1  0
 14 15  1  6
 16 17  2  0
 16 15  1  0
 18 17  1  0
 19 20  2  0
 19 18  1  0
 20 16  1  0
 21 22  2  0
 23 24  1  0
 24 25  2  0
 24 34  1  0
 25 26  1  0
 26 27  2  0
 27 28  1  0
 29 31  1  0
 29 28  1  6
 30 21  1  0
 30 29  1  0
 31 35  1  0
 32 31  2  0
 33 27  1  0
 34 33  2  0
M  END
$$$$
