YHY.pdb
     RDKit          3D

 35 37  0  0  1  0  0  0  0  0999 V2000
   18.8526   -7.2055  -28.1480 O   0  0  0  0  0  0  0  0  0  0  0  0
   19.1384   -8.5391  -27.9119 C   0  0  0  0  0  0  0  0  0  0  0  0
   18.6424   -9.5518  -28.7051 C   0  0  0  0  0  0  0  0  0  0  0  0
   18.9387  -10.8848  -28.4532 C   0  0  0  0  0  0  0  0  0  0  0  0
   19.7433  -11.2590  -27.3984 C   0  0  0  0  0  0  0  0  0  0  0  0
   20.0737  -12.6751  -27.0877 C   0  0  0  0  0  0  0  0  0  0  0  0
   21.4142  -13.0424  -27.7120 C   0  0  2  0  0  0  0  0  0  0  0  0
   21.1377  -13.1613  -29.1543 N   0  0  0  0  0  0  0  0  0  0  0  0
   21.7794  -14.3901  -27.1992 C   0  0  0  0  0  0  0  0  0  0  0  0
   21.4022  -15.4385  -27.8342 O   0  0  0  0  0  0  0  0  0  0  0  0
   20.2457  -10.2391  -26.5954 C   0  0  0  0  0  0  0  0  0  0  0  0
   19.9472   -8.9154  -26.8506 C   0  0  0  0  0  0  0  0  0  0  0  0
   22.5370  -14.6277  -26.0263 N   0  0  0  0  0  0  0  0  0  0  0  0
   22.8010  -15.9997  -25.5700 C   0  0  1  0  0  0  0  0  0  0  0  0
   24.2579  -16.1415  -25.1851 C   0  0  0  0  0  0  0  0  0  0  0  0
   24.5180  -17.5390  -24.7781 C   0  0  0  0  0  0  0  0  0  0  0  0
   24.9630  -18.5560  -25.5926 C   0  0  0  0  0  0  0  0  0  0  0  0
   25.0551  -19.6761  -24.8551 N   0  0  0  0  0  0  0  0  0  0  0  0
   24.6771  -19.3844  -23.5976 C   0  0  0  0  0  0  0  0  0  0  0  0
   24.3483  -18.0857  -23.5392 N   0  0  0  0  0  0  0  0  0  0  0  0
   21.8491  -16.4136  -24.5375 C   0  0  0  0  0  0  0  0  0  0  0  0
   21.5552  -15.6595  -23.5766 O   0  0  0  0  0  0  0  0  0  0  0  0
   20.5015  -23.4913  -26.8722 O   0  0  0  0  0  0  0  0  0  0  0  0
   20.1483  -22.3113  -26.2208 C   0  0  0  0  0  0  0  0  0  0  0  0
   19.7114  -22.3367  -24.9167 C   0  0  0  0  0  0  0  0  0  0  0  0
   19.3570  -21.1930  -24.2466 C   0  0  0  0  0  0  0  0  0  0  0  0
   19.4316  -19.9745  -24.8747 C   0  0  0  0  0  0  0  0  0  0  0  0
   19.0413  -18.7657  -24.1710 C   0  0  0  0  0  0  0  0  0  0  0  0
   20.1956  -18.0047  -23.5222 C   0  0  2  0  0  0  0  0  0  0  0  0
   21.1973  -17.6845  -24.5494 N   0  0  0  0  0  0  0  0  0  0  0  0
   20.8437  -18.8417  -22.4941 C   0  0  0  0  0  0  0  0  0  0  0  0
   21.9643  -19.3416  -22.7321 O   0  0  0  0  0  0  0  0  0  0  0  0
   19.8643  -19.9210  -26.1773 C   0  0  0  0  0  0  0  0  0  0  0  0
   20.2165  -21.0804  -26.8351 C   0  0  0  0  0  0  0  0  0  0  0  0
   20.2515  -19.1049  -21.2480 O   0  0  0  0  0  0  0  0  0  0  0  0
  1  2  1  0
  2  3  2  0
  3  4  1  0
  5  6  1  0
  5  4  2  0
  6  7  1  0
  7  8  1  6
  9 13  1  0
  9  7  1  0
 10  9  2  0
 11  5  1  0
 12 11  2  0
 12  2  1  0
 14 13  1  0
 14 21  1  0
 14 15  1  1
 16 17  2  0
 16 15  1  0
 18 17  1  0
 19 20  2  0
 19 18  1  0
 20 16  1  0
 21 22  2  0
 23 24  1  0
 24 25  2  0
 24 34  1  0
 25 26  1  0
 26 27  2  0
 27 28  1  0
 29 31  1  0
 29 28  1  6
 30 21  1  0
 30 29  1  0
 31 35  1  0
 32 31  2  0
 33 27  1  0
 34 33  2  0
M  END
$$$$
