YHY.pdb
     RDKit          3D

 35 37  0  0  1  0  0  0  0  0999 V2000
   43.4874  -16.7117  -12.1459 O   0  0  0  0  0  0  0  0  0  0  0  0
   43.2126  -15.7221  -11.2180 C   0  0  0  0  0  0  0  0  0  0  0  0
   42.8709  -16.0081   -9.9133 C   0  0  0  0  0  0  0  0  0  0  0  0
   42.5976  -15.0024   -8.9956 C   0  0  0  0  0  0  0  0  0  0  0  0
   42.6553  -13.6704   -9.3452 C   0  0  0  0  0  0  0  0  0  0  0  0
   42.3575  -12.5650   -8.3962 C   0  0  0  0  0  0  0  0  0  0  0  0
   43.6560  -11.9113   -7.9397 C   0  0  2  0  0  0  0  0  0  0  0  0
   44.2188  -12.8443   -6.9481 N   0  0  0  0  0  0  0  0  0  0  0  0
   43.2871  -10.6548   -7.2342 C   0  0  0  0  0  0  0  0  0  0  0  0
   42.4559  -10.6912   -6.2582 O   0  0  0  0  0  0  0  0  0  0  0  0
   42.9998  -13.3780  -10.6617 C   0  0  0  0  0  0  0  0  0  0  0  0
   43.2701  -14.3823  -11.5698 C   0  0  0  0  0  0  0  0  0  0  0  0
   43.7926   -9.3717   -7.5566 N   0  0  0  0  0  0  0  0  0  0  0  0
   43.3916   -8.1911   -6.7781 C   0  0  1  0  0  0  0  0  0  0  0  0
   44.6185   -7.4052   -6.3685 C   0  0  0  0  0  0  0  0  0  0  0  0
   45.3414   -8.1493   -5.3149 C   0  0  0  0  0  0  0  0  0  0  0  0
   44.9633   -9.3515   -4.7604 C   0  0  0  0  0  0  0  0  0  0  0  0
   45.8692   -9.6872   -3.8256 N   0  0  0  0  0  0  0  0  0  0  0  0
   46.8054   -8.7225   -3.7811 C   0  0  0  0  0  0  0  0  0  0  0  0
   46.4943   -7.7812   -4.6841 N   0  0  0  0  0  0  0  0  0  0  0  0
   42.3669   -7.4119   -7.4755 C   0  0  0  0  0  0  0  0  0  0  0  0
   42.3771   -7.2854   -8.7254 O   0  0  0  0  0  0  0  0  0  0  0  0
   35.3552   -2.1254   -8.9548 O   0  0  0  0  0  0  0  0  0  0  0  0
   36.2670   -3.0463   -8.4430 C   0  0  0  0  0  0  0  0  0  0  0  0
   36.4315   -4.2738   -9.0417 C   0  0  0  0  0  0  0  0  0  0  0  0
   37.3212   -5.2023   -8.5634 C   0  0  0  0  0  0  0  0  0  0  0  0
   38.0816   -4.9219   -7.4553 C   0  0  0  0  0  0  0  0  0  0  0  0
   39.0117   -5.9105   -6.9394 C   0  0  0  0  0  0  0  0  0  0  0  0
   40.4181   -5.8323   -7.5298 C   0  0  2  0  0  0  0  0  0  0  0  0
   41.2994   -6.7508   -6.7946 N   0  0  0  0  0  0  0  0  0  0  0  0
   40.9560   -4.4657   -7.3850 C   0  0  0  0  0  0  0  0  0  0  0  0
   41.5971   -4.1686   -6.3540 O   0  0  0  0  0  0  0  0  0  0  0  0
   37.9368   -3.7034   -6.8379 C   0  0  0  0  0  0  0  0  0  0  0  0
   37.0378   -2.7824   -7.3325 C   0  0  0  0  0  0  0  0  0  0  0  0
   40.7774   -3.4739   -8.3635 O   0  0  0  0  0  0  0  0  0  0  0  0
  1  2  1  0
  2  3  2  0
  3  4  1  0
  5  6  1  0
  5  4  2  0
  6  7  1  0
  7  8  1  1
  9 13  1  0
  9  7  1  0
 10  9  2  0
 11  5  1  0
 12 11  2  0
 12  2  1  0
 14 13  1  0
 14 21  1  0
 14 15  1  6
 16 17  2  0
 16 15  1  0
 18 17  1  0
 19 20  2  0
 19 18  1  0
 20 16  1  0
 21 22  2  0
 23 24  1  0
 24 25  2  0
 24 34  1  0
 25 26  1  0
 26 27  2  0
 27 28  1  0
 29 31  1  0
 29 28  1  1
 30 21  1  0
 30 29  1  0
 31 35  1  0
 32 31  2  0
 33 27  1  0
 34 33  2  0
M  END
$$$$
