YHY.pdb
     RDKit          3D

 35 37  0  0  1  0  0  0  0  0999 V2000
   32.1199  -15.6096  -18.3149 O   0  0  0  0  0  0  0  0  0  0  0  0
   30.8186  -16.0590  -18.1718 C   0  0  0  0  0  0  0  0  0  0  0  0
   30.5202  -17.3075  -17.6688 C   0  0  0  0  0  0  0  0  0  0  0  0
   29.2085  -17.7426  -17.5328 C   0  0  0  0  0  0  0  0  0  0  0  0
   28.1425  -16.9470  -17.8937 C   0  0  0  0  0  0  0  0  0  0  0  0
   26.7250  -17.3806  -17.7756 C   0  0  0  0  0  0  0  0  0  0  0  0
   26.4826  -18.6011  -18.6550 C   0  0  2  0  0  0  0  0  0  0  0  0
   26.5591  -18.0917  -20.0353 N   0  0  0  0  0  0  0  0  0  0  0  0
   25.0863  -19.0485  -18.4046 C   0  0  0  0  0  0  0  0  0  0  0  0
   24.1058  -18.3923  -18.9074 O   0  0  0  0  0  0  0  0  0  0  0  0
   28.4401  -15.6859  -18.4020 C   0  0  0  0  0  0  0  0  0  0  0  0
   29.7463  -15.2588  -18.5353 C   0  0  0  0  0  0  0  0  0  0  0  0
   24.7293  -20.1796  -17.6305 N   0  0  0  0  0  0  0  0  0  0  0  0
   23.3176  -20.5425  -17.4411 C   0  0  1  0  0  0  0  0  0  0  0  0
   23.0508  -21.9022  -18.0502 C   0  0  0  0  0  0  0  0  0  0  0  0
   21.6504  -22.2898  -17.7761 C   0  0  0  0  0  0  0  0  0  0  0  0
   21.2283  -23.2281  -16.8612 C   0  0  0  0  0  0  0  0  0  0  0  0
   19.8878  -23.3053  -16.9256 N   0  0  0  0  0  0  0  0  0  0  0  0
   19.4606  -22.4379  -17.8606 C   0  0  0  0  0  0  0  0  0  0  0  0
   20.5255  -21.8137  -18.3847 N   0  0  0  0  0  0  0  0  0  0  0  0
   22.9123  -20.4059  -16.0409 C   0  0  0  0  0  0  0  0  0  0  0  0
   23.6602  -20.7782  -15.1026 O   0  0  0  0  0  0  0  0  0  0  0  0
   17.7936  -15.1347  -17.1145 O   0  0  0  0  0  0  0  0  0  0  0  0
   18.6837  -15.8784  -16.3425 C   0  0  0  0  0  0  0  0  0  0  0  0
   18.2713  -16.4606  -15.1664 C   0  0  0  0  0  0  0  0  0  0  0  0
   19.1223  -17.1996  -14.3838 C   0  0  0  0  0  0  0  0  0  0  0  0
   20.4294  -17.3777  -14.7642 C   0  0  0  0  0  0  0  0  0  0  0  0
   21.3344  -18.1463  -13.9281 C   0  0  0  0  0  0  0  0  0  0  0  0
   21.3584  -19.6444  -14.2238 C   0  0  2  0  0  0  0  0  0  0  0  0
   21.6572  -19.8481  -15.6486 N   0  0  0  0  0  0  0  0  0  0  0  0
   20.0381  -20.2405  -13.9419 C   0  0  0  0  0  0  0  0  0  0  0  0
   19.6302  -20.2886  -12.7613 O   0  0  0  0  0  0  0  0  0  0  0  0
   20.8673  -16.8066  -15.9343 C   0  0  0  0  0  0  0  0  0  0  0  0
   19.9981  -16.0673  -16.7082 C   0  0  0  0  0  0  0  0  0  0  0  0
   19.2116  -20.7619  -14.9507 O   0  0  0  0  0  0  0  0  0  0  0  0
  1  2  1  0
  2  3  2  0
  3  4  1  0
  5  6  1  0
  5  4  2  0
  6  7  1  0
  7  8  1  6
  9 13  1  0
  9  7  1  0
 10  9  2  0
 11  5  1  0
 12 11  2  0
 12  2  1  0
 14 13  1  0
 14 21  1  0
 14 15  1  1
 16 17  2  0
 16 15  1  0
 18 17  1  0
 19 20  2  0
 19 18  1  0
 20 16  1  0
 21 22  2  0
 23 24  1  0
 24 25  2  0
 24 34  1  0
 25 26  1  0
 26 27  2  0
 27 28  1  0
 29 31  1  0
 29 28  1  6
 30 21  1  0
 30 29  1  0
 31 35  1  0
 32 31  2  0
 33 27  1  0
 34 33  2  0
M  END
$$$$
