YHY.pdb
     RDKit          3D

 35 37  0  0  1  0  0  0  0  0999 V2000
   44.3033   -8.9926    1.1341 O   0  0  0  0  0  0  0  0  0  0  0  0
   44.0699   -8.9711   -0.2301 C   0  0  0  0  0  0  0  0  0  0  0  0
   44.7065   -8.0860   -1.0739 C   0  0  0  0  0  0  0  0  0  0  0  0
   44.4595   -8.0778   -2.4404 C   0  0  0  0  0  0  0  0  0  0  0  0
   43.5666   -8.9545   -3.0183 C   0  0  0  0  0  0  0  0  0  0  0  0
   43.2651   -8.9691   -4.4743 C   0  0  0  0  0  0  0  0  0  0  0  0
   43.7849  -10.2588   -5.0972 C   0  0  2  0  0  0  0  0  0  0  0  0
   45.2513  -10.1161   -5.0898 N   0  0  0  0  0  0  0  0  0  0  0  0
   43.3295  -10.2737   -6.5132 C   0  0  0  0  0  0  0  0  0  0  0  0
   43.8208   -9.4357   -7.3505 O   0  0  0  0  0  0  0  0  0  0  0  0
   42.9220   -9.8495   -2.1692 C   0  0  0  0  0  0  0  0  0  0  0  0
   43.1713   -9.8526   -0.8112 C   0  0  0  0  0  0  0  0  0  0  0  0
   42.3643  -11.1664   -7.0396 N   0  0  0  0  0  0  0  0  0  0  0  0
   41.8564  -10.9986   -8.4087 C   0  0  1  0  0  0  0  0  0  0  0  0
   41.6005  -12.3543   -9.0313 C   0  0  0  0  0  0  0  0  0  0  0  0
   41.0698  -12.1674  -10.3987 C   0  0  0  0  0  0  0  0  0  0  0  0
   41.7676  -12.3336  -11.5738 C   0  0  0  0  0  0  0  0  0  0  0  0
   40.9424  -12.0513  -12.5968 N   0  0  0  0  0  0  0  0  0  0  0  0
   39.7441  -11.7111  -12.0894 C   0  0  0  0  0  0  0  0  0  0  0  0
   39.8101  -11.7787  -10.7518 N   0  0  0  0  0  0  0  0  0  0  0  0
   40.7182  -10.0787   -8.4492 C   0  0  0  0  0  0  0  0  0  0  0  0
   39.8589  -10.0583   -7.5330 O   0  0  0  0  0  0  0  0  0  0  0  0
   35.6115   -3.2779   -7.8515 O   0  0  0  0  0  0  0  0  0  0  0  0
   36.5773   -4.2780   -7.9438 C   0  0  0  0  0  0  0  0  0  0  0  0
   37.7739   -4.0376   -8.5784 C   0  0  0  0  0  0  0  0  0  0  0  0
   38.7458   -5.0002   -8.6857 C   0  0  0  0  0  0  0  0  0  0  0  0
   38.5418   -6.2487   -8.1522 C   0  0  0  0  0  0  0  0  0  0  0  0
   39.5636   -7.2725   -8.2796 C   0  0  0  0  0  0  0  0  0  0  0  0
   39.3748   -8.2181   -9.4639 C   0  0  2  0  0  0  0  0  0  0  0  0
   40.5074   -9.1536   -9.5169 N   0  0  0  0  0  0  0  0  0  0  0  0
   39.3505   -7.4546  -10.7266 C   0  0  0  0  0  0  0  0  0  0  0  0
   40.4266   -7.2176  -11.3168 O   0  0  0  0  0  0  0  0  0  0  0  0
   37.3552   -6.5154   -7.5135 C   0  0  0  0  0  0  0  0  0  0  0  0
   36.3898   -5.5359   -7.4150 C   0  0  0  0  0  0  0  0  0  0  0  0
   38.1607   -6.9771  -11.3001 O   0  0  0  0  0  0  0  0  0  0  0  0
  1  2  1  0
  2  3  2  0
  3  4  1  0
  5  6  1  0
  5  4  2  0
  6  7  1  0
  7  8  1  6
  9 13  1  0
  9  7  1  0
 10  9  2  0
 11  5  1  0
 12 11  2  0
 12  2  1  0
 14 13  1  0
 14 21  1  0
 14 15  1  1
 16 17  2  0
 16 15  1  0
 18 17  1  0
 19 20  2  0
 19 18  1  0
 20 16  1  0
 21 22  2  0
 23 24  1  0
 24 25  2  0
 24 34  1  0
 25 26  1  0
 26 27  2  0
 27 28  1  0
 29 31  1  0
 29 28  1  1
 30 21  1  0
 30 29  1  0
 31 35  1  0
 32 31  2  0
 33 27  1  0
 34 33  2  0
M  END
$$$$
