YHY.pdb
     RDKit          3D

 35 37  0  0  1  0  0  0  0  0999 V2000
   22.7513  -29.7142   -9.7006 O   0  0  0  0  0  0  0  0  0  0  0  0
   23.4070  -30.5710   -8.8335 C   0  0  0  0  0  0  0  0  0  0  0  0
   22.7775  -31.6446   -8.2402 C   0  0  0  0  0  0  0  0  0  0  0  0
   23.4506  -32.4937   -7.3718 C   0  0  0  0  0  0  0  0  0  0  0  0
   24.7802  -32.3043   -7.0622 C   0  0  0  0  0  0  0  0  0  0  0  0
   25.5328  -33.1829   -6.1279 C   0  0  0  0  0  0  0  0  0  0  0  0
   26.6990  -33.8366   -6.8590 C   0  0  2  0  0  0  0  0  0  0  0  0
   26.0723  -34.7945   -7.7866 N   0  0  0  0  0  0  0  0  0  0  0  0
   27.4693  -34.6094   -5.8480 C   0  0  0  0  0  0  0  0  0  0  0  0
   27.1056  -35.8006   -5.5422 O   0  0  0  0  0  0  0  0  0  0  0  0
   25.4189  -31.2213   -7.6593 C   0  0  0  0  0  0  0  0  0  0  0  0
   24.7443  -30.3800   -8.5216 C   0  0  0  0  0  0  0  0  0  0  0  0
   28.6139  -34.1280   -5.1668 N   0  0  0  0  0  0  0  0  0  0  0  0
   29.4021  -35.0191   -4.3035 C   0  0  1  0  0  0  0  0  0  0  0  0
   30.8593  -34.6116   -4.3391 C   0  0  0  0  0  0  0  0  0  0  0  0
   31.4070  -34.8872   -5.6846 C   0  0  0  0  0  0  0  0  0  0  0  0
   30.7591  -35.5366   -6.7113 C   0  0  0  0  0  0  0  0  0  0  0  0
   31.5967  -35.6057   -7.7605 N   0  0  0  0  0  0  0  0  0  0  0  0
   32.7547  -35.0155   -7.4143 C   0  0  0  0  0  0  0  0  0  0  0  0
   32.6503  -34.5739   -6.1524 N   0  0  0  0  0  0  0  0  0  0  0  0
   28.8232  -35.1158   -2.9622 C   0  0  0  0  0  0  0  0  0  0  0  0
   28.3818  -34.1030   -2.3641 O   0  0  0  0  0  0  0  0  0  0  0  0
   22.1776  -34.8017   -3.2029 O   0  0  0  0  0  0  0  0  0  0  0  0
   23.3156  -35.4399   -2.7139 C   0  0  0  0  0  0  0  0  0  0  0  0
   23.7209  -35.2468   -1.4136 C   0  0  0  0  0  0  0  0  0  0  0  0
   24.8358  -35.8608   -0.9011 C   0  0  0  0  0  0  0  0  0  0  0  0
   25.5863  -36.6974   -1.6897 C   0  0  0  0  0  0  0  0  0  0  0  0
   26.7753  -37.3347   -1.1524 C   0  0  0  0  0  0  0  0  0  0  0  0
   27.9759  -36.4059   -0.9838 C   0  0  2  0  0  0  0  0  0  0  0  0
   28.7210  -36.3496   -2.2497 N   0  0  0  0  0  0  0  0  0  0  0  0
   28.8809  -36.9272    0.0587 C   0  0  0  0  0  0  0  0  0  0  0  0
   28.4501  -37.0734    1.2229 O   0  0  0  0  0  0  0  0  0  0  0  0
   25.2038  -36.9074   -2.9923 C   0  0  0  0  0  0  0  0  0  0  0  0
   24.0805  -36.2820   -3.4903 C   0  0  0  0  0  0  0  0  0  0  0  0
   30.2182  -37.2693   -0.2012 O   0  0  0  0  0  0  0  0  0  0  0  0
  1  2  1  0
  2  3  2  0
  3  4  1  0
  5  6  1  0
  5  4  2  0
  6  7  1  0
  7  8  1  6
  9 13  1  0
  9  7  1  0
 10  9  2  0
 11  5  1  0
 12 11  2  0
 12  2  1  0
 14 13  1  0
 14 21  1  0
 14 15  1  1
 16 17  2  0
 16 15  1  0
 18 17  1  0
 19 20  2  0
 19 18  1  0
 20 16  1  0
 21 22  2  0
 23 24  1  0
 24 25  2  0
 24 34  1  0
 25 26  1  0
 26 27  2  0
 27 28  1  0
 29 31  1  0
 29 28  1  6
 30 21  1  0
 30 29  1  0
 31 35  1  0
 32 31  2  0
 33 27  1  0
 34 33  2  0
M  END
$$$$
