YHY.pdb
     RDKit          3D

 35 37  0  0  1  0  0  0  0  0999 V2000
   18.3803  -21.2320  -20.0966 O   0  0  0  0  0  0  0  0  0  0  0  0
   19.6231  -21.7587  -20.4028 C   0  0  0  0  0  0  0  0  0  0  0  0
   20.2150  -21.5849  -21.6358 C   0  0  0  0  0  0  0  0  0  0  0  0
   21.4624  -22.1213  -21.9262 C   0  0  0  0  0  0  0  0  0  0  0  0
   22.1687  -22.8526  -20.9955 C   0  0  0  0  0  0  0  0  0  0  0  0
   23.5004  -23.4539  -21.2714 C   0  0  0  0  0  0  0  0  0  0  0  0
   24.5926  -22.4141  -21.0531 C   0  0  2  0  0  0  0  0  0  0  0  0
   24.5071  -21.5265  -22.2259 N   0  0  0  0  0  0  0  0  0  0  0  0
   25.8947  -23.1309  -21.1104 C   0  0  0  0  0  0  0  0  0  0  0  0
   26.7540  -22.8227  -22.0112 O   0  0  0  0  0  0  0  0  0  0  0  0
   21.5740  -23.0302  -19.7496 C   0  0  0  0  0  0  0  0  0  0  0  0
   20.3332  -22.4949  -19.4668 C   0  0  0  0  0  0  0  0  0  0  0  0
   26.2856  -24.1635  -20.2234 N   0  0  0  0  0  0  0  0  0  0  0  0
   27.6582  -24.6892  -20.2438 C   0  0  1  0  0  0  0  0  0  0  0  0
   28.6472  -23.5435  -20.2237 C   0  0  0  0  0  0  0  0  0  0  0  0
   28.8232  -23.0309  -21.5994 C   0  0  0  0  0  0  0  0  0  0  0  0
   29.1004  -23.7814  -22.7199 C   0  0  0  0  0  0  0  0  0  0  0  0
   29.2048  -22.9478  -23.7694 N   0  0  0  0  0  0  0  0  0  0  0  0
   29.0004  -21.6925  -23.3319 C   0  0  0  0  0  0  0  0  0  0  0  0
   28.7667  -21.7312  -22.0120 N   0  0  0  0  0  0  0  0  0  0  0  0
   27.8622  -25.6959  -19.2006 C   0  0  0  0  0  0  0  0  0  0  0  0
   27.7227  -25.4165  -17.9837 O   0  0  0  0  0  0  0  0  0  0  0  0
   28.1881  -33.4627  -14.9856 O   0  0  0  0  0  0  0  0  0  0  0  0
   28.0284  -32.4043  -15.8776 C   0  0  0  0  0  0  0  0  0  0  0  0
   26.8996  -31.6193  -15.8361 C   0  0  0  0  0  0  0  0  0  0  0  0
   26.7122  -30.5695  -16.6994 C   0  0  0  0  0  0  0  0  0  0  0  0
   27.6653  -30.2734  -17.6422 C   0  0  0  0  0  0  0  0  0  0  0  0
   27.4600  -29.1724  -18.5665 C   0  0  0  0  0  0  0  0  0  0  0  0
   28.4257  -28.0025  -18.3893 C   0  0  2  0  0  0  0  0  0  0  0  0
   28.2285  -27.0462  -19.4881 N   0  0  0  0  0  0  0  0  0  0  0  0
   29.8208  -28.4810  -18.4421 C   0  0  0  0  0  0  0  0  0  0  0  0
   30.3288  -28.7587  -19.5498 O   0  0  0  0  0  0  0  0  0  0  0  0
   28.8022  -31.0418  -17.7056 C   0  0  0  0  0  0  0  0  0  0  0  0
   28.9736  -32.0929  -16.8299 C   0  0  0  0  0  0  0  0  0  0  0  0
   30.6107  -28.6405  -17.2917 O   0  0  0  0  0  0  0  0  0  0  0  0
  1  2  1  0
  2  3  2  0
  3  4  1  0
  5  6  1  0
  5  4  2  0
  6  7  1  0
  7  8  1  6
  9 13  1  0
  9  7  1  0
 10  9  2  0
 11  5  1  0
 12 11  2  0
 12  2  1  0
 14 13  1  0
 14 21  1  0
 14 15  1  1
 16 17  2  0
 16 15  1  0
 18 17  1  0
 19 20  2  0
 19 18  1  0
 20 16  1  0
 21 22  2  0
 23 24  1  0
 24 25  2  0
 24 34  1  0
 25 26  1  0
 26 27  2  0
 27 28  1  0
 29 31  1  0
 29 28  1  6
 30 21  1  0
 30 29  1  0
 31 35  1  0
 32 31  2  0
 33 27  1  0
 34 33  2  0
M  END
$$$$
