YHY.pdb
     RDKit          3D

 35 37  0  0  1  0  0  0  0  0999 V2000
   37.8965   -3.1513    1.3110 O   0  0  0  0  0  0  0  0  0  0  0  0
   36.8797   -2.4388    0.6993 C   0  0  0  0  0  0  0  0  0  0  0  0
   36.8845   -2.1570   -0.6504 C   0  0  0  0  0  0  0  0  0  0  0  0
   35.8562   -1.4400   -1.2475 C   0  0  0  0  0  0  0  0  0  0  0  0
   34.7815   -0.9762   -0.5197 C   0  0  0  0  0  0  0  0  0  0  0  0
   33.6676   -0.1944   -1.1191 C   0  0  0  0  0  0  0  0  0  0  0  0
   34.2278    0.9823   -1.9085 C   0  0  2  0  0  0  0  0  0  0  0  0
   34.7553    1.9037   -0.8871 N   0  0  0  0  0  0  0  0  0  0  0  0
   33.0770    1.6453   -2.5784 C   0  0  0  0  0  0  0  0  0  0  0  0
   32.3181    2.4347   -1.9108 O   0  0  0  0  0  0  0  0  0  0  0  0
   34.7735   -1.2588    0.8432 C   0  0  0  0  0  0  0  0  0  0  0  0
   35.7990   -1.9718    1.4315 C   0  0  0  0  0  0  0  0  0  0  0  0
   32.7318    1.4762   -3.9415 N   0  0  0  0  0  0  0  0  0  0  0  0
   31.5259    2.1102   -4.4932 C   0  0  1  0  0  0  0  0  0  0  0  0
   31.6893    2.3141   -5.9841 C   0  0  0  0  0  0  0  0  0  0  0  0
   32.6682    3.3967   -6.2209 C   0  0  0  0  0  0  0  0  0  0  0  0
   33.2347    4.2075   -5.2631 C   0  0  0  0  0  0  0  0  0  0  0  0
   34.0554    5.0760   -5.8789 N   0  0  0  0  0  0  0  0  0  0  0  0
   34.0152    4.8287   -7.2004 C   0  0  0  0  0  0  0  0  0  0  0  0
   33.1739    3.8077   -7.4200 N   0  0  0  0  0  0  0  0  0  0  0  0
   30.3138    1.3891   -4.1005 C   0  0  0  0  0  0  0  0  0  0  0  0
   30.3698    0.3350   -3.4193 O   0  0  0  0  0  0  0  0  0  0  0  0
   23.2051   -0.7496    0.1226 O   0  0  0  0  0  0  0  0  0  0  0  0
   24.3558   -0.2662   -0.4968 C   0  0  0  0  0  0  0  0  0  0  0  0
   24.4891    1.0743   -0.7752 C   0  0  0  0  0  0  0  0  0  0  0  0
   25.6093    1.5824   -1.3832 C   0  0  0  0  0  0  0  0  0  0  0  0
   26.6418    0.7483   -1.7342 C   0  0  0  0  0  0  0  0  0  0  0  0
   27.8206    1.2833   -2.3921 C   0  0  0  0  0  0  0  0  0  0  0  0
   27.8244    1.1365   -3.9123 C   0  0  2  0  0  0  0  0  0  0  0  0
   29.0019    1.8263   -4.4585 N   0  0  0  0  0  0  0  0  0  0  0  0
   26.6179    1.7623   -4.4875 C   0  0  0  0  0  0  0  0  0  0  0  0
   26.6047    2.9970   -4.6813 O   0  0  0  0  0  0  0  0  0  0  0  0
   26.5341   -0.5950   -1.4678 C   0  0  0  0  0  0  0  0  0  0  0  0
   25.4011   -1.0880   -0.8561 C   0  0  0  0  0  0  0  0  0  0  0  0
   25.4724    1.0251   -4.8298 O   0  0  0  0  0  0  0  0  0  0  0  0
  1  2  1  0
  2  3  2  0
  3  4  1  0
  5  6  1  0
  5  4  2  0
  6  7  1  0
  7  8  1  1
  9 13  1  0
  9  7  1  0
 10  9  2  0
 11  5  1  0
 12 11  2  0
 12  2  1  0
 14 13  1  0
 14 21  1  0
 14 15  1  6
 16 17  2  0
 16 15  1  0
 18 17  1  0
 19 20  2  0
 19 18  1  0
 20 16  1  0
 21 22  2  0
 23 24  1  0
 24 25  2  0
 24 34  1  0
 25 26  1  0
 26 27  2  0
 27 28  1  0
 29 31  1  0
 29 28  1  1
 30 21  1  0
 30 29  1  0
 31 35  1  0
 32 31  2  0
 33 27  1  0
 34 33  2  0
M  END
$$$$
