YHY.pdb
     RDKit          3D

 35 37  0  0  1  0  0  0  0  0999 V2000
   31.9950  -11.2929  -17.7505 O   0  0  0  0  0  0  0  0  0  0  0  0
   30.6901  -10.8574  -17.5966 C   0  0  0  0  0  0  0  0  0  0  0  0
   29.6304  -11.7306  -17.4728 C   0  0  0  0  0  0  0  0  0  0  0  0
   28.3272  -11.2761  -17.3199 C   0  0  0  0  0  0  0  0  0  0  0  0
   28.0311   -9.9305  -17.2841 C   0  0  0  0  0  0  0  0  0  0  0  0
   26.6485   -9.4038  -17.1348 C   0  0  0  0  0  0  0  0  0  0  0  0
   25.8002   -9.8330  -18.3256 C   0  0  2  0  0  0  0  0  0  0  0  0
   26.2647   -8.9907  -19.4416 N   0  0  0  0  0  0  0  0  0  0  0  0
   24.3944   -9.4572  -18.0175 C   0  0  0  0  0  0  0  0  0  0  0  0
   24.0131   -8.2409  -18.1588 O   0  0  0  0  0  0  0  0  0  0  0  0
   29.0986   -9.0460  -17.4090 C   0  0  0  0  0  0  0  0  0  0  0  0
   30.3922   -9.5038  -17.5612 C   0  0  0  0  0  0  0  0  0  0  0  0
   23.4002  -10.3587  -17.5648 N   0  0  0  0  0  0  0  0  0  0  0  0
   22.0413   -9.8862  -17.2641 C   0  0  1  0  0  0  0  0  0  0  0  0
   21.0282  -10.9186  -17.7103 C   0  0  0  0  0  0  0  0  0  0  0  0
   20.8514  -10.8225  -19.1751 C   0  0  0  0  0  0  0  0  0  0  0  0
   21.4107   -9.8757  -20.0036 C   0  0  0  0  0  0  0  0  0  0  0  0
   20.9948  -10.1166  -21.2590 N   0  0  0  0  0  0  0  0  0  0  0  0
   20.1870  -11.1918  -21.2359 C   0  0  0  0  0  0  0  0  0  0  0  0
   20.0928  -11.6301  -19.9721 N   0  0  0  0  0  0  0  0  0  0  0  0
   21.9167   -9.4663  -15.8671 C   0  0  0  0  0  0  0  0  0  0  0  0
   22.4872  -10.0941  -14.9405 O   0  0  0  0  0  0  0  0  0  0  0  0
   24.2289   -3.0321  -17.0996 O   0  0  0  0  0  0  0  0  0  0  0  0
   23.8288   -4.0815  -16.2750 C   0  0  0  0  0  0  0  0  0  0  0  0
   24.3152   -5.3525  -16.4755 C   0  0  0  0  0  0  0  0  0  0  0  0
   23.9420   -6.4072  -15.6811 C   0  0  0  0  0  0  0  0  0  0  0  0
   23.0577   -6.2140  -14.6489 C   0  0  0  0  0  0  0  0  0  0  0  0
   22.6502   -7.3330  -13.8180 C   0  0  0  0  0  0  0  0  0  0  0  0
   21.2341   -7.8407  -14.0817 C   0  0  2  0  0  0  0  0  0  0  0  0
   21.1494   -8.3306  -15.4650 N   0  0  0  0  0  0  0  0  0  0  0  0
   20.2615   -6.7422  -13.9233 C   0  0  0  0  0  0  0  0  0  0  0  0
   20.1633   -6.1692  -12.8168 O   0  0  0  0  0  0  0  0  0  0  0  0
   22.5564   -4.9544  -14.4270 C   0  0  0  0  0  0  0  0  0  0  0  0
   22.9426   -3.9063  -15.2353 C   0  0  0  0  0  0  0  0  0  0  0  0
   19.4325   -6.3078  -14.9707 O   0  0  0  0  0  0  0  0  0  0  0  0
  1  2  1  0
  2  3  2  0
  3  4  1  0
  5  6  1  0
  5  4  2  0
  6  7  1  0
  7  8  1  6
  9 13  1  0
  9  7  1  0
 10  9  2  0
 11  5  1  0
 12 11  2  0
 12  2  1  0
 14 13  1  0
 14 21  1  0
 14 15  1  1
 16 17  2  0
 16 15  1  0
 18 17  1  0
 19 20  2  0
 19 18  1  0
 20 16  1  0
 21 22  2  0
 23 24  1  0
 24 25  2  0
 24 34  1  0
 25 26  1  0
 26 27  2  0
 27 28  1  0
 29 31  1  0
 29 28  1  6
 30 21  1  0
 30 29  1  0
 31 35  1  0
 32 31  2  0
 33 27  1  0
 34 33  2  0
M  END
$$$$
