YNT.pdb
     RDKit          3D

 28 28  0  0  1  0  0  0  0  0999 V2000
   30.9910  -16.6801  -19.0020 O   0  0  0  0  0  0  0  0  0  0  0  0
   29.9993  -17.4231  -18.3797 C   0  0  0  0  0  0  0  0  0  0  0  0
   29.5352  -18.5655  -19.0327 C   0  0  0  0  0  0  0  0  0  0  0  0
   28.5436  -19.3458  -18.4553 C   0  0  0  0  0  0  0  0  0  0  0  0
   28.0373  -18.9727  -17.2441 C   0  0  0  0  0  0  0  0  0  0  0  0
   26.9762  -19.7728  -16.5813 C   0  0  0  0  0  0  0  0  0  0  0  0
   27.5785  -20.7937  -15.6393 C   0  0  2  0  0  0  0  0  0  0  0  0
   28.1038  -21.9293  -16.3568 N   0  0  0  0  0  0  0  0  0  0  0  0
   26.5638  -21.2065  -14.6504 C   0  0  0  0  0  0  0  0  0  0  0  0
   25.9000  -22.2798  -14.8326 O   0  0  0  0  0  0  0  0  0  0  0  0
   28.4989  -17.8324  -16.5893 C   0  0  0  0  0  0  0  0  0  0  0  0
   29.4731  -17.0633  -17.1536 C   0  0  0  0  0  0  0  0  0  0  0  0
   25.1039  -21.5866   -8.8960 N   0  0  0  0  0  0  0  0  0  0  0  0
   24.6875  -20.8784  -10.0557 C   0  0  0  0  0  0  0  0  0  0  0  0
   23.4407  -20.5939  -10.1264 O   0  0  0  0  0  0  0  0  0  0  0  0
   25.6294  -20.4898  -11.1207 C   0  0  0  0  0  0  0  0  0  0  0  0
   25.2632  -20.9347  -12.4932 C   0  0  2  0  0  0  0  0  0  0  0  0
   26.2584  -20.4748  -13.4699 N   0  0  0  0  0  0  0  0  0  0  0  0
   23.8999  -20.6233  -12.9431 C   0  0  0  0  0  0  0  0  0  0  0  0
   23.6624  -19.4230  -13.3020 O   0  0  0  0  0  0  0  0  0  0  0  0
   21.9259  -21.4558  -15.9028 C   0  0  0  0  0  0  0  0  0  0  0  0
   21.0689  -21.8451  -14.7217 C   0  0  1  0  0  0  0  0  0  0  0  0
   21.0988  -23.2097  -14.5670 O   0  0  0  0  0  0  0  0  0  0  0  0
   21.4865  -21.1109  -13.4625 C   0  0  2  0  0  0  0  0  0  0  0  0
   22.8102  -21.5014  -13.0312 N   0  0  0  0  0  0  0  0  0  0  0  0
   20.4296  -21.2942  -12.4756 C   0  0  0  0  0  0  0  0  0  0  0  0
   20.6877  -21.8951  -11.4095 O   0  0  0  0  0  0  0  0  0  0  0  0
   19.1620  -20.8104  -12.7159 O   0  0  0  0  0  0  0  0  0  0  0  0
  1  2  1  0
  2 12  2  0
  3  4  2  0
  3  2  1  0
  4  5  1  0
  5  6  1  0
  5 11  2  0
  7  8  1  6
  7  6  1  0
  9  7  1  0
  9 10  2  0
 12 11  1  0
 13 14  1  0
 14 16  1  0
 14 15  2  0
 17 16  1  1
 17 18  1  0
 17 19  1  0
 18  9  1  0
 19 20  2  0
 19 25  1  0
 22 21  1  6
 22 23  1  0
 24 22  1  0
 24 25  1  1
 26 28  1  0
 26 24  1  0
 27 26  2  0
M  END
$$$$
