YNT.pdb
     RDKit          3D

 28 28  0  0  1  0  0  0  0  0999 V2000
   24.3671  -11.5848  -25.4993 O   0  0  0  0  0  0  0  0  0  0  0  0
   24.0328  -11.0387  -24.2693 C   0  0  0  0  0  0  0  0  0  0  0  0
   23.5365  -11.8982  -23.2886 C   0  0  0  0  0  0  0  0  0  0  0  0
   23.1861  -11.4049  -22.0399 C   0  0  0  0  0  0  0  0  0  0  0  0
   23.3368  -10.0707  -21.7957 C   0  0  0  0  0  0  0  0  0  0  0  0
   22.9785   -9.4910  -20.4762 C   0  0  0  0  0  0  0  0  0  0  0  0
   24.2206   -9.1680  -19.6729 C   0  0  2  0  0  0  0  0  0  0  0  0
   24.9739  -10.3584  -19.3634 N   0  0  0  0  0  0  0  0  0  0  0  0
   23.8361   -8.4424  -18.4468 C   0  0  0  0  0  0  0  0  0  0  0  0
   23.8013   -9.0571  -17.3302 O   0  0  0  0  0  0  0  0  0  0  0  0
   23.8323   -9.2096  -22.7731 C   0  0  0  0  0  0  0  0  0  0  0  0
   24.1777   -9.6909  -24.0012 C   0  0  0  0  0  0  0  0  0  0  0  0
   22.7383   -4.6504  -14.8889 N   0  0  0  0  0  0  0  0  0  0  0  0
   23.1667   -4.0782  -16.1172 C   0  0  0  0  0  0  0  0  0  0  0  0
   23.2935   -2.8038  -16.1328 O   0  0  0  0  0  0  0  0  0  0  0  0
   23.4511   -4.8967  -17.3096 C   0  0  0  0  0  0  0  0  0  0  0  0
   23.1957   -6.3556  -17.1606 C   0  0  2  0  0  0  0  0  0  0  0  0
   23.4893   -7.0637  -18.4129 N   0  0  0  0  0  0  0  0  0  0  0  0
   21.8807   -6.7420  -16.6323 C   0  0  0  0  0  0  0  0  0  0  0  0
   20.8804   -6.6317  -17.4156 O   0  0  0  0  0  0  0  0  0  0  0  0
   20.6968  -10.0691  -15.4942 C   0  0  0  0  0  0  0  0  0  0  0  0
   20.2982   -9.0922  -14.4137 C   0  0  1  0  0  0  0  0  0  0  0  0
   21.1317   -9.2435  -13.3323 O   0  0  0  0  0  0  0  0  0  0  0  0
   20.2742   -7.6669  -14.9305 C   0  0  2  0  0  0  0  0  0  0  0  0
   21.5867   -7.2296  -15.3509 N   0  0  0  0  0  0  0  0  0  0  0  0
   19.6379   -6.8405  -13.9123 C   0  0  0  0  0  0  0  0  0  0  0  0
   18.4141   -6.9766  -13.6930 O   0  0  0  0  0  0  0  0  0  0  0  0
   20.3774   -5.9212  -13.2005 O   0  0  0  0  0  0  0  0  0  0  0  0
  1  2  1  0
  2 12  2  0
  3  4  2  0
  3  2  1  0
  4  5  1  0
  5  6  1  0
  5 11  2  0
  7  8  1  1
  7  6  1  0
  9  7  1  0
  9 10  2  0
 12 11  1  0
 13 14  1  0
 14 16  1  0
 14 15  2  0
 17 16  1  6
 17 18  1  0
 17 19  1  0
 18  9  1  0
 19 20  2  0
 19 25  1  0
 22 21  1  6
 22 23  1  0
 24 22  1  0
 24 25  1  1
 26 28  1  0
 26 24  1  0
 27 26  2  0
M  END
$$$$
