YNT.pdb
     RDKit          3D

 28 28  0  0  1  0  0  0  0  0999 V2000
   18.5724  -21.0362  -19.7400 O   0  0  0  0  0  0  0  0  0  0  0  0
   18.8134  -21.6520  -18.5212 C   0  0  0  0  0  0  0  0  0  0  0  0
   17.7413  -21.7916  -17.6391 C   0  0  0  0  0  0  0  0  0  0  0  0
   17.9263  -22.4000  -16.4058 C   0  0  0  0  0  0  0  0  0  0  0  0
   19.1708  -22.8546  -16.0787 C   0  0  0  0  0  0  0  0  0  0  0  0
   19.4233  -23.5145  -14.7725 C   0  0  0  0  0  0  0  0  0  0  0  0
   19.4889  -22.4943  -13.6557 C   0  0  2  0  0  0  0  0  0  0  0  0
   20.6096  -21.6016  -13.8209 N   0  0  0  0  0  0  0  0  0  0  0  0
   19.5461  -23.1926  -12.3568 C   0  0  0  0  0  0  0  0  0  0  0  0
   20.6618  -23.6273  -11.9187 O   0  0  0  0  0  0  0  0  0  0  0  0
   20.2436  -22.7168  -16.9575 C   0  0  0  0  0  0  0  0  0  0  0  0
   20.0655  -22.1195  -18.1702 C   0  0  0  0  0  0  0  0  0  0  0  0
   18.4131  -25.3009   -7.6165 N   0  0  0  0  0  0  0  0  0  0  0  0
   17.4999  -24.2669   -7.9584 C   0  0  0  0  0  0  0  0  0  0  0  0
   16.7048  -23.8856   -7.0295 O   0  0  0  0  0  0  0  0  0  0  0  0
   17.4632  -23.6624   -9.3022 C   0  0  0  0  0  0  0  0  0  0  0  0
   18.5096  -24.1390  -10.2475 C   0  0  2  0  0  0  0  0  0  0  0  0
   18.4145  -23.4266  -11.5279 N   0  0  0  0  0  0  0  0  0  0  0  0
   18.5944  -25.5904  -10.4568 C   0  0  0  0  0  0  0  0  0  0  0  0
   19.3971  -26.0056  -11.3565 O   0  0  0  0  0  0  0  0  0  0  0  0
   20.5658  -27.7282  -10.5412 C   0  0  0  0  0  0  0  0  0  0  0  0
   19.5982  -28.3375   -9.5545 C   0  0  1  0  0  0  0  0  0  0  0  0
   19.9324  -27.9392   -8.2831 O   0  0  0  0  0  0  0  0  0  0  0  0
   18.1606  -28.0070   -9.9052 C   0  0  2  0  0  0  0  0  0  0  0  0
   17.8909  -26.5926   -9.7735 N   0  0  0  0  0  0  0  0  0  0  0  0
   17.3030  -28.8817   -9.1153 C   0  0  0  0  0  0  0  0  0  0  0  0
   17.3080  -30.1111   -9.3451 O   0  0  0  0  0  0  0  0  0  0  0  0
   16.4973  -28.3587   -8.1274 O   0  0  0  0  0  0  0  0  0  0  0  0
  1  2  1  0
  2 12  2  0
  3  4  2  0
  3  2  1  0
  4  5  1  0
  5  6  1  0
  5 11  2  0
  7  8  1  6
  7  6  1  0
  9  7  1  0
  9 10  2  0
 12 11  1  0
 13 14  1  0
 14 16  1  0
 14 15  2  0
 17 16  1  1
 17 18  1  0
 17 19  1  0
 18  9  1  0
 19 20  2  0
 19 25  1  0
 22 21  1  6
 22 23  1  0
 24 22  1  0
 24 25  1  1
 26 28  1  0
 26 24  1  0
 27 26  2  0
M  END
$$$$
