YNT.pdb
     RDKit          3D

 28 28  0  0  1  0  0  0  0  0999 V2000
   28.8155  -19.7506   -3.6041 O   0  0  0  0  0  0  0  0  0  0  0  0
   28.3672  -19.6565   -4.9129 C   0  0  0  0  0  0  0  0  0  0  0  0
   27.1281  -20.2205   -5.2188 C   0  0  0  0  0  0  0  0  0  0  0  0
   26.6313  -20.1553   -6.5128 C   0  0  0  0  0  0  0  0  0  0  0  0
   27.3768  -19.5320   -7.4710 C   0  0  0  0  0  0  0  0  0  0  0  0
   26.8914  -19.4328   -8.8710 C   0  0  0  0  0  0  0  0  0  0  0  0
   27.1039  -20.7372   -9.6099 C   0  0  2  0  0  0  0  0  0  0  0  0
   28.5052  -21.0616   -9.7166 N   0  0  0  0  0  0  0  0  0  0  0  0
   26.4693  -20.6559  -10.9398 C   0  0  0  0  0  0  0  0  0  0  0  0
   26.9811  -19.9154  -11.8429 O   0  0  0  0  0  0  0  0  0  0  0  0
   28.6146  -18.9676   -7.1687 C   0  0  0  0  0  0  0  0  0  0  0  0
   29.1059  -19.0297   -5.8982 C   0  0  0  0  0  0  0  0  0  0  0  0
   27.0295  -21.6094  -14.2753 N   0  0  0  0  0  0  0  0  0  0  0  0
   26.0850  -22.6658  -14.1677 C   0  0  0  0  0  0  0  0  0  0  0  0
   26.3750  -23.7481  -14.7884 O   0  0  0  0  0  0  0  0  0  0  0  0
   24.8407  -22.5324  -13.3889 C   0  0  0  0  0  0  0  0  0  0  0  0
   24.6884  -21.2556  -12.6391 C   0  0  2  0  0  0  0  0  0  0  0  0
   25.2908  -21.3632  -11.3044 N   0  0  0  0  0  0  0  0  0  0  0  0
   23.3322  -20.6965  -12.5619 C   0  0  0  0  0  0  0  0  0  0  0  0
   22.7402  -20.7520  -11.4337 O   0  0  0  0  0  0  0  0  0  0  0  0
   19.4322  -18.2099  -14.4659 C   0  0  0  0  0  0  0  0  0  0  0  0
   20.8149  -18.7881  -14.6522 C   0  0  1  0  0  0  0  0  0  0  0  0
   21.6967  -17.7760  -14.9437 O   0  0  0  0  0  0  0  0  0  0  0  0
   21.2466  -19.6026  -13.4483 C   0  0  2  0  0  0  0  0  0  0  0  0
   22.5980  -20.0955  -13.5943 N   0  0  0  0  0  0  0  0  0  0  0  0
   20.2314  -20.6236  -13.2213 C   0  0  0  0  0  0  0  0  0  0  0  0
   20.3383  -21.7290  -13.7964 O   0  0  0  0  0  0  0  0  0  0  0  0
   19.1676  -20.3724  -12.3823 O   0  0  0  0  0  0  0  0  0  0  0  0
  1  2  1  0
  2 12  2  0
  3  4  2  0
  3  2  1  0
  4  5  1  0
  5  6  1  0
  5 11  2  0
  7  8  1  6
  7  6  1  0
  9  7  1  0
  9 10  2  0
 12 11  1  0
 13 14  1  0
 14 16  1  0
 14 15  2  0
 17 16  1  1
 17 18  1  0
 17 19  1  0
 18  9  1  0
 19 20  2  0
 19 25  1  0
 22 21  1  1
 22 23  1  0
 24 22  1  0
 24 25  1  6
 26 28  1  0
 26 24  1  0
 27 26  2  0
M  END
$$$$
