YNT.pdb
     RDKit          3D

 28 28  0  0  1  0  0  0  0  0999 V2000
   29.1967   -8.4090  -18.8924 O   0  0  0  0  0  0  0  0  0  0  0  0
   28.4516   -9.0574  -17.9192 C   0  0  0  0  0  0  0  0  0  0  0  0
   27.2013   -8.5285  -17.5965 C   0  0  0  0  0  0  0  0  0  0  0  0
   26.4138   -9.1373  -16.6297 C   0  0  0  0  0  0  0  0  0  0  0  0
   26.8869  -10.2558  -16.0072 C   0  0  0  0  0  0  0  0  0  0  0  0
   26.0843  -10.9472  -14.9664 C   0  0  0  0  0  0  0  0  0  0  0  0
   24.9568  -11.7406  -15.5924 C   0  0  2  0  0  0  0  0  0  0  0  0
   25.4358  -12.5925  -16.6531 N   0  0  0  0  0  0  0  0  0  0  0  0
   23.9159  -10.8136  -16.0775 C   0  0  0  0  0  0  0  0  0  0  0  0
   23.6769  -10.7254  -17.3269 O   0  0  0  0  0  0  0  0  0  0  0  0
   28.1351  -10.7866  -16.3273 C   0  0  0  0  0  0  0  0  0  0  0  0
   28.9116  -10.1910  -17.2768 C   0  0  0  0  0  0  0  0  0  0  0  0
   19.7210   -7.7259  -16.6713 N   0  0  0  0  0  0  0  0  0  0  0  0
   19.5763   -8.9925  -16.0432 C   0  0  0  0  0  0  0  0  0  0  0  0
   18.3819   -9.4469  -15.9568 O   0  0  0  0  0  0  0  0  0  0  0  0
   20.7289   -9.7468  -15.5186 C   0  0  0  0  0  0  0  0  0  0  0  0
   22.0603   -9.1209  -15.7449 C   0  0  2  0  0  0  0  0  0  0  0  0
   23.1322   -9.9826  -15.2305 N   0  0  0  0  0  0  0  0  0  0  0  0
   22.2248   -7.7384  -15.2765 C   0  0  0  0  0  0  0  0  0  0  0  0
   22.3390   -7.5566  -14.0195 O   0  0  0  0  0  0  0  0  0  0  0  0
   24.8478   -5.0440  -16.5946 C   0  0  0  0  0  0  0  0  0  0  0  0
   23.4538   -4.4708  -16.4989 C   0  0  1  0  0  0  0  0  0  0  0  0
   22.9049   -4.3949  -17.7558 O   0  0  0  0  0  0  0  0  0  0  0  0
   22.5893   -5.2622  -15.5369 C   0  0  2  0  0  0  0  0  0  0  0  0
   22.2763   -6.5746  -16.0569 N   0  0  0  0  0  0  0  0  0  0  0  0
   21.4382   -4.4350  -15.1977 C   0  0  0  0  0  0  0  0  0  0  0  0
   20.3049   -4.7680  -15.6087 O   0  0  0  0  0  0  0  0  0  0  0  0
   21.5984   -3.3001  -14.4328 O   0  0  0  0  0  0  0  0  0  0  0  0
  1  2  1  0
  2 12  2  0
  3  4  2  0
  3  2  1  0
  4  5  1  0
  5  6  1  0
  5 11  2  0
  7  8  1  6
  7  6  1  0
  9  7  1  0
  9 10  2  0
 12 11  1  0
 13 14  1  0
 14 16  1  0
 14 15  2  0
 17 16  1  1
 17 18  1  0
 17 19  1  0
 18  9  1  0
 19 20  2  0
 19 25  1  0
 22 21  1  6
 22 23  1  0
 24 22  1  0
 24 25  1  6
 26 28  1  0
 26 24  1  0
 27 26  2  0
M  END
$$$$
