YNT.pdb
     RDKit          3D

 28 28  0  0  1  0  0  0  0  0999 V2000
   28.2630  -19.0723   -4.0507 O   0  0  0  0  0  0  0  0  0  0  0  0
   27.9981  -19.2602   -5.3987 C   0  0  0  0  0  0  0  0  0  0  0  0
   28.8963  -18.7205   -6.3201 C   0  0  0  0  0  0  0  0  0  0  0  0
   28.6798  -18.8785   -7.6816 C   0  0  0  0  0  0  0  0  0  0  0  0
   27.5770  -19.5681   -8.0947 C   0  0  0  0  0  0  0  0  0  0  0  0
   27.2987  -19.7676   -9.5397 C   0  0  0  0  0  0  0  0  0  0  0  0
   26.9848  -21.2193   -9.8339 C   0  0  2  0  0  0  0  0  0  0  0  0
   28.1814  -21.9700  -10.1251 N   0  0  0  0  0  0  0  0  0  0  0  0
   26.0192  -21.2958  -10.9473 C   0  0  0  0  0  0  0  0  0  0  0  0
   26.4052  -21.6930  -12.0959 O   0  0  0  0  0  0  0  0  0  0  0  0
   26.6781  -20.1085   -7.1771 C   0  0  0  0  0  0  0  0  0  0  0  0
   26.8877  -19.9553   -5.8385 C   0  0  0  0  0  0  0  0  0  0  0  0
   20.4231  -22.1694  -12.7093 N   0  0  0  0  0  0  0  0  0  0  0  0
   21.2654  -21.0397  -12.5244 C   0  0  0  0  0  0  0  0  0  0  0  0
   21.0772  -20.0578  -13.3249 O   0  0  0  0  0  0  0  0  0  0  0  0
   22.2988  -20.9923  -11.4743 C   0  0  0  0  0  0  0  0  0  0  0  0
   23.7048  -21.0794  -11.9552 C   0  0  2  0  0  0  0  0  0  0  0  0
   24.6447  -20.9488  -10.8348 N   0  0  0  0  0  0  0  0  0  0  0  0
   24.0771  -20.1885  -13.0622 C   0  0  0  0  0  0  0  0  0  0  0  0
   24.1424  -18.9399  -12.8113 O   0  0  0  0  0  0  0  0  0  0  0  0
   26.6963  -21.1155  -16.0954 C   0  0  0  0  0  0  0  0  0  0  0  0
   26.3044  -19.7250  -15.6549 C   0  0  1  0  0  0  0  0  0  0  0  0
   26.7436  -18.8122  -16.5826 O   0  0  0  0  0  0  0  0  0  0  0  0
   24.8134  -19.6193  -15.4002 C   0  0  2  0  0  0  0  0  0  0  0  0
   24.3785  -20.5504  -14.3829 N   0  0  0  0  0  0  0  0  0  0  0  0
   24.1380  -19.7403  -16.6862 C   0  0  0  0  0  0  0  0  0  0  0  0
   24.3984  -18.9181  -17.5920 O   0  0  0  0  0  0  0  0  0  0  0  0
   23.2242  -20.7492  -16.8997 O   0  0  0  0  0  0  0  0  0  0  0  0
  1  2  1  0
  2 12  2  0
  3  4  2  0
  3  2  1  0
  4  5  1  0
  5  6  1  0
  5 11  2  0
  7  8  1  6
  7  6  1  0
  9  7  1  0
  9 10  2  0
 12 11  1  0
 13 14  1  0
 14 16  1  0
 14 15  2  0
 17 16  1  1
 17 18  1  0
 17 19  1  0
 18  9  1  0
 19 20  2  0
 19 25  1  0
 22 21  1  6
 22 23  1  0
 24 22  1  0
 24 25  1  1
 26 28  1  0
 26 24  1  0
 27 26  2  0
M  END
$$$$
