YNT.pdb
     RDKit          3D

 28 28  0  0  1  0  0  0  0  0999 V2000
   27.1205  -20.4000   -7.3553 O   0  0  0  0  0  0  0  0  0  0  0  0
   26.6864  -20.3944   -8.6722 C   0  0  0  0  0  0  0  0  0  0  0  0
   27.6516  -20.3006   -9.6754 C   0  0  0  0  0  0  0  0  0  0  0  0
   27.2730  -20.2904  -11.0103 C   0  0  0  0  0  0  0  0  0  0  0  0
   25.9455  -20.3735  -11.3163 C   0  0  0  0  0  0  0  0  0  0  0  0
   25.4861  -20.3684  -12.7284 C   0  0  0  0  0  0  0  0  0  0  0  0
   25.4698  -21.7719  -13.2962 C   0  0  2  0  0  0  0  0  0  0  0  0
   26.7331  -22.1105  -13.9041 N   0  0  0  0  0  0  0  0  0  0  0  0
   24.3597  -21.8975  -14.2605 C   0  0  0  0  0  0  0  0  0  0  0  0
   24.4879  -21.4306  -15.4400 O   0  0  0  0  0  0  0  0  0  0  0  0
   24.9791  -20.4674  -10.3167 C   0  0  0  0  0  0  0  0  0  0  0  0
   25.3475  -20.4777   -9.0039 C   0  0  0  0  0  0  0  0  0  0  0  0
   23.2718  -26.1635  -14.8587 N   0  0  0  0  0  0  0  0  0  0  0  0
   22.8252  -25.0301  -15.5907 C   0  0  0  0  0  0  0  0  0  0  0  0
   23.4254  -24.8010  -16.6987 O   0  0  0  0  0  0  0  0  0  0  0  0
   21.7347  -24.1627  -15.1098 C   0  0  0  0  0  0  0  0  0  0  0  0
   22.0740  -22.7191  -14.9816 C   0  0  2  0  0  0  0  0  0  0  0  0
   23.1154  -22.5197  -13.9658 N   0  0  0  0  0  0  0  0  0  0  0  0
   20.9506  -21.7959  -14.7731 C   0  0  0  0  0  0  0  0  0  0  0  0
   20.5361  -21.6398  -13.5773 O   0  0  0  0  0  0  0  0  0  0  0  0
   20.0489  -18.1466  -16.5595 C   0  0  0  0  0  0  0  0  0  0  0  0
   18.9300  -19.1610  -16.5502 C   0  0  1  0  0  0  0  0  0  0  0  0
   18.8107  -19.7195  -17.7995 O   0  0  0  0  0  0  0  0  0  0  0  0
   19.1302  -20.2033  -15.4673 C   0  0  2  0  0  0  0  0  0  0  0  0
   20.2693  -21.0494  -15.7451 N   0  0  0  0  0  0  0  0  0  0  0  0
   17.8632  -20.9017  -15.2896 C   0  0  0  0  0  0  0  0  0  0  0  0
   17.7850  -22.1117  -15.5962 O   0  0  0  0  0  0  0  0  0  0  0  0
   16.7657  -20.2353  -14.7895 O   0  0  0  0  0  0  0  0  0  0  0  0
  1  2  1  0
  2 12  2  0
  3  4  2  0
  3  2  1  0
  4  5  1  0
  5  6  1  0
  5 11  2  0
  7  8  1  6
  7  6  1  0
  9  7  1  0
  9 10  2  0
 12 11  1  0
 13 14  1  0
 14 16  1  0
 14 15  2  0
 17 16  1  1
 17 18  1  0
 17 19  1  0
 18  9  1  0
 19 20  2  0
 19 25  1  0
 22 21  1  6
 22 23  1  0
 24 22  1  0
 24 25  1  6
 26 28  1  0
 26 24  1  0
 27 26  2  0
M  END
$$$$
