YNT.pdb
     RDKit          3D

 28 28  0  0  1  0  0  0  0  0999 V2000
   17.4442  -27.6000   -2.4291 O   0  0  0  0  0  0  0  0  0  0  0  0
   16.9894  -26.3377   -2.0792 C   0  0  0  0  0  0  0  0  0  0  0  0
   16.8531  -26.0482   -0.7210 C   0  0  0  0  0  0  0  0  0  0  0  0
   16.4019  -24.8005   -0.3146 C   0  0  0  0  0  0  0  0  0  0  0  0
   16.0971  -23.8712   -1.2665 C   0  0  0  0  0  0  0  0  0  0  0  0
   15.6116  -22.5202   -0.8862 C   0  0  0  0  0  0  0  0  0  0  0  0
   14.1212  -22.5372   -0.6198 C   0  0  2  0  0  0  0  0  0  0  0  0
   13.3658  -22.3239   -1.8298 N   0  0  0  0  0  0  0  0  0  0  0  0
   13.7947  -21.5238    0.4022 C   0  0  0  0  0  0  0  0  0  0  0  0
   13.2838  -20.4097    0.0505 O   0  0  0  0  0  0  0  0  0  0  0  0
   16.2322  -24.1572   -2.6237 C   0  0  0  0  0  0  0  0  0  0  0  0
   16.6753  -25.3821   -3.0267 C   0  0  0  0  0  0  0  0  0  0  0  0
   11.1985  -18.6180    3.8100 N   0  0  0  0  0  0  0  0  0  0  0  0
   11.8022  -19.8346    4.2289 C   0  0  0  0  0  0  0  0  0  0  0  0
   11.9134  -20.0036    5.4936 O   0  0  0  0  0  0  0  0  0  0  0  0
   12.2758  -20.8488    3.2700 C   0  0  0  0  0  0  0  0  0  0  0  0
   13.6710  -20.6680    2.7837 C   0  0  2  0  0  0  0  0  0  0  0  0
   14.0134  -21.6994    1.7963 N   0  0  0  0  0  0  0  0  0  0  0  0
   14.7153  -20.5538    3.8104 C   0  0  0  0  0  0  0  0  0  0  0  0
   15.4225  -21.5891    4.0429 O   0  0  0  0  0  0  0  0  0  0  0  0
   15.0713  -17.3066    6.5735 C   0  0  0  0  0  0  0  0  0  0  0  0
   16.3261  -18.0013    6.1003 C   0  0  1  0  0  0  0  0  0  0  0  0
   17.2685  -17.9705    7.0992 O   0  0  0  0  0  0  0  0  0  0  0  0
   16.0373  -19.4105    5.6208 C   0  0  2  0  0  0  0  0  0  0  0  0
   15.0374  -19.4243    4.5764 N   0  0  0  0  0  0  0  0  0  0  0  0
   15.7260  -20.2188    6.7931 C   0  0  0  0  0  0  0  0  0  0  0  0
   14.5788  -20.7021    6.9140 O   0  0  0  0  0  0  0  0  0  0  0  0
   16.6854  -20.4469    7.7554 O   0  0  0  0  0  0  0  0  0  0  0  0
  1  2  1  0
  2 12  2  0
  3  4  2  0
  3  2  1  0
  4  5  1  0
  5  6  1  0
  5 11  2  0
  7  8  1  6
  7  6  1  0
  9  7  1  0
  9 10  2  0
 12 11  1  0
 13 14  1  0
 14 16  1  0
 14 15  2  0
 17 16  1  1
 17 18  1  0
 17 19  1  0
 18  9  1  0
 19 20  2  0
 19 25  1  0
 22 21  1  1
 22 23  1  0
 24 22  1  0
 24 25  1  6
 26 28  1  0
 26 24  1  0
 27 26  2  0
M  END
$$$$
