YNT.pdb
     RDKit          3D

 28 28  0  0  1  0  0  0  0  0999 V2000
   26.9595  -32.5472  -14.4807 O   0  0  0  0  0  0  0  0  0  0  0  0
   28.0494  -32.0044  -15.1442 C   0  0  0  0  0  0  0  0  0  0  0  0
   27.8786  -30.7731  -15.7780 C   0  0  0  0  0  0  0  0  0  0  0  0
   28.9359  -30.1843  -16.4568 C   0  0  0  0  0  0  0  0  0  0  0  0
   30.1366  -30.8323  -16.4896 C   0  0  0  0  0  0  0  0  0  0  0  0
   31.3010  -30.2458  -17.2006 C   0  0  0  0  0  0  0  0  0  0  0  0
   31.2385  -30.5505  -18.6824 C   0  0  2  0  0  0  0  0  0  0  0  0
   31.2061  -31.9713  -18.9286 N   0  0  0  0  0  0  0  0  0  0  0  0
   32.3835  -29.9142  -19.3621 C   0  0  0  0  0  0  0  0  0  0  0  0
   33.2983  -30.6382  -19.8767 O   0  0  0  0  0  0  0  0  0  0  0  0
   30.3105  -32.0620  -15.8575 C   0  0  0  0  0  0  0  0  0  0  0  0
   29.2737  -32.6436  -15.1896 C   0  0  0  0  0  0  0  0  0  0  0  0
   32.2483  -25.3685  -23.1546 N   0  0  0  0  0  0  0  0  0  0  0  0
   32.4764  -26.7326  -22.8272 C   0  0  0  0  0  0  0  0  0  0  0  0
   33.0914  -27.4297  -23.7083 O   0  0  0  0  0  0  0  0  0  0  0  0
   32.0341  -27.3195  -21.5495 C   0  0  0  0  0  0  0  0  0  0  0  0
   33.1143  -27.8898  -20.6989 C   0  0  2  0  0  0  0  0  0  0  0  0
   32.5516  -28.5081  -19.4918 N   0  0  0  0  0  0  0  0  0  0  0  0
   34.2279  -26.9930  -20.3617 C   0  0  0  0  0  0  0  0  0  0  0  0
   34.0168  -26.1096  -19.4665 O   0  0  0  0  0  0  0  0  0  0  0  0
   38.0656  -27.6579  -19.4387 C   0  0  0  0  0  0  0  0  0  0  0  0
   37.9212  -26.6590  -20.5623 C   0  0  1  0  0  0  0  0  0  0  0  0
   38.2311  -27.2663  -21.7547 O   0  0  0  0  0  0  0  0  0  0  0  0
   36.5422  -26.0286  -20.5754 C   0  0  2  0  0  0  0  0  0  0  0  0
   35.5180  -26.9926  -20.9108 N   0  0  0  0  0  0  0  0  0  0  0  0
   36.6028  -24.8566  -21.4398 C   0  0  0  0  0  0  0  0  0  0  0  0
   37.3409  -23.8992  -21.1191 O   0  0  0  0  0  0  0  0  0  0  0  0
   35.8553  -24.8058  -22.5963 O   0  0  0  0  0  0  0  0  0  0  0  0
  1  2  1  0
  2 12  2  0
  3  4  2  0
  3  2  1  0
  4  5  1  0
  5  6  1  0
  5 11  2  0
  7  8  1  1
  7  6  1  0
  9  7  1  0
  9 10  2  0
 12 11  1  0
 13 14  1  0
 14 16  1  0
 14 15  2  0
 17 16  1  1
 17 18  1  0
 17 19  1  0
 18  9  1  0
 19 20  2  0
 19 25  1  0
 22 21  1  1
 22 23  1  0
 24 22  1  0
 24 25  1  6
 26 28  1  0
 26 24  1  0
 27 26  2  0
M  END
$$$$
