YNT.pdb
     RDKit          3D

 28 28  0  0  1  0  0  0  0  0999 V2000
   15.8096  -25.8868  -13.6965 O   0  0  0  0  0  0  0  0  0  0  0  0
   16.6173  -24.7614  -13.7585 C   0  0  0  0  0  0  0  0  0  0  0  0
   17.8848  -24.8371  -13.1800 C   0  0  0  0  0  0  0  0  0  0  0  0
   18.7343  -23.7404  -13.2130 C   0  0  0  0  0  0  0  0  0  0  0  0
   18.3046  -22.5958  -13.8193 C   0  0  0  0  0  0  0  0  0  0  0  0
   19.1741  -21.3937  -13.8841 C   0  0  0  0  0  0  0  0  0  0  0  0
   20.2696  -21.5744  -14.9136 C   0  0  2  0  0  0  0  0  0  0  0  0
   21.2405  -22.5515  -14.4859 N   0  0  0  0  0  0  0  0  0  0  0  0
   20.9049  -20.2707  -15.1869 C   0  0  0  0  0  0  0  0  0  0  0  0
   21.8832  -19.8787  -14.4691 O   0  0  0  0  0  0  0  0  0  0  0  0
   17.0393  -22.5170  -14.3981 C   0  0  0  0  0  0  0  0  0  0  0  0
   16.2019  -23.5926  -14.3675 C   0  0  0  0  0  0  0  0  0  0  0  0
   22.7473  -15.8456  -17.3146 N   0  0  0  0  0  0  0  0  0  0  0  0
   22.8476  -17.0579  -18.0495 C   0  0  0  0  0  0  0  0  0  0  0  0
   23.6397  -17.0444  -19.0559 O   0  0  0  0  0  0  0  0  0  0  0  0
   22.0874  -18.2661  -17.6817 C   0  0  0  0  0  0  0  0  0  0  0  0
   21.1910  -18.1241  -16.5019 C   0  0  2  0  0  0  0  0  0  0  0  0
   20.4964  -19.3875  -16.2238 N   0  0  0  0  0  0  0  0  0  0  0  0
   20.2481  -16.9980  -16.5246 C   0  0  0  0  0  0  0  0  0  0  0  0
   19.0246  -17.2646  -16.7652 O   0  0  0  0  0  0  0  0  0  0  0  0
   19.6645  -15.0064  -13.5975 C   0  0  0  0  0  0  0  0  0  0  0  0
   18.7515  -14.9009  -14.7959 C   0  0  1  0  0  0  0  0  0  0  0  0
   17.7919  -13.9479  -14.5553 O   0  0  0  0  0  0  0  0  0  0  0  0
   19.5297  -14.6298  -16.0687 C   0  0  2  0  0  0  0  0  0  0  0  0
   20.5339  -15.6427  -16.3062 N   0  0  0  0  0  0  0  0  0  0  0  0
   20.0283  -13.2621  -15.9964 C   0  0  0  0  0  0  0  0  0  0  0  0
   21.2629  -13.0627  -15.9784 O   0  0  0  0  0  0  0  0  0  0  0  0
   19.1486  -12.2026  -15.9490 O   0  0  0  0  0  0  0  0  0  0  0  0
  1  2  1  0
  2 12  2  0
  3  4  2  0
  3  2  1  0
  4  5  1  0
  5  6  1  0
  5 11  2  0
  7  8  1  1
  7  6  1  0
  9  7  1  0
  9 10  2  0
 12 11  1  0
 13 14  1  0
 14 16  1  0
 14 15  2  0
 17 16  1  6
 17 18  1  0
 17 19  1  0
 18  9  1  0
 19 20  2  0
 19 25  1  0
 22 21  1  1
 22 23  1  0
 24 22  1  0
 24 25  1  1
 26 28  1  0
 26 24  1  0
 27 26  2  0
M  END
$$$$
