LNF.pdb
     RDKit          3D

 28 28  0  0  1  0  0  0  0  0999 V2000
    7.8900  -12.0791   19.1182 C   0  0  0  0  0  0  0  0  0  0  0  0
    8.1685  -13.5807   18.9373 C   0  0  1  0  0  0  0  0  0  0  0  0
    9.6694  -13.7179   18.9389 C   0  0  0  0  0  0  0  0  0  0  0  0
    7.4749  -14.2601   20.0694 C   0  0  0  0  0  0  0  0  0  0  0  0
    7.5814  -15.7536   20.0925 C   0  0  2  0  0  0  0  0  0  0  0  0
    7.0114  -16.4382   18.9870 N   0  0  0  0  0  0  0  0  0  0  0  0
    7.1449  -16.3092   21.4160 C   0  0  0  0  0  0  0  0  0  0  0  0
    5.9361  -16.4706   21.7001 O   0  0  0  0  0  0  0  0  0  0  0  0
    6.1634  -19.1886   25.4337 N   0  0  0  0  0  0  0  0  0  0  0  0
    7.5095  -19.2700   25.0084 C   0  0  0  0  0  0  0  0  0  0  0  0
    8.3402  -19.8383   25.7937 O   0  0  0  0  0  0  0  0  0  0  0  0
    7.8845  -18.7097   23.7035 C   0  0  0  0  0  0  0  0  0  0  0  0
    7.8589  -17.2252   23.6705 C   0  0  2  0  0  0  0  0  0  0  0  0
    8.1286  -16.6607   22.3655 N   0  0  0  0  0  0  0  0  0  0  0  0
    8.8417  -16.6732   24.6254 C   0  0  0  0  0  0  0  0  0  0  0  0
   10.0297  -17.1464   24.6668 O   0  0  0  0  0  0  0  0  0  0  0  0
    8.5896  -15.6239   25.5410 N   0  0  0  0  0  0  0  0  0  0  0  0
    9.1587  -15.6383   26.8981 C   0  0  1  0  0  0  0  0  0  0  0  0
    8.0827  -15.0754   27.7965 C   0  0  0  0  0  0  0  0  0  0  0  0
    7.6016  -13.7926   27.2938 C   0  0  0  0  0  0  0  0  0  0  0  0
    6.2660  -13.6068   27.0314 C   0  0  0  0  0  0  0  0  0  0  0  0
    5.8157  -12.4108   26.5544 C   0  0  0  0  0  0  0  0  0  0  0  0
    6.6861  -11.3740   26.3281 C   0  0  0  0  0  0  0  0  0  0  0  0
    8.0370  -11.5483   26.5887 C   0  0  0  0  0  0  0  0  0  0  0  0
    8.4847  -12.7646   27.0723 C   0  0  0  0  0  0  0  0  0  0  0  0
    9.4879  -17.0054   27.3252 C   0  0  0  0  0  0  0  0  0  0  0  0
   10.5746  -17.2521   28.1393 O   0  0  0  0  0  0  0  0  0  0  0  0
    8.7977  -18.0115   26.9692 O   0  0  0  0  0  0  0  0  0  0  0  0
  2  1  1  1
  2  4  1  0
  3  2  1  0
  5  7  1  0
  5  4  1  0
  5  6  1  6
  7  8  2  0
  9 10  1  0
 10 12  1  0
 11 10  2  0
 13 12  1  6
 14 13  1  0
 14  7  1  0
 15 16  2  0
 15 13  1  0
 17 15  1  0
 18 26  1  0
 18 17  1  0
 18 19  1  1
 20 19  1  0
 21 20  2  0
 22 21  1  0
 23 22  2  0
 23 24  1  0
 24 25  2  0
 25 20  1  0
 26 27  1  0
 28 26  2  0
M  END
$$$$
