LNF.pdb
     RDKit          3D

 28 28  0  0  1  0  0  0  0  0999 V2000
    7.3948  -12.2471   20.0343 C   0  0  0  0  0  0  0  0  0  0  0  0
    7.9174  -13.3537   19.1031 C   0  0  1  0  0  0  0  0  0  0  0  0
    9.1859  -12.8091   18.4981 C   0  0  0  0  0  0  0  0  0  0  0  0
    8.0996  -14.5563   19.9662 C   0  0  0  0  0  0  0  0  0  0  0  0
    8.6162  -15.7792   19.2735 C   0  0  2  0  0  0  0  0  0  0  0  0
    7.7884  -16.3162   18.2527 N   0  0  0  0  0  0  0  0  0  0  0  0
    9.0744  -16.8109   20.2617 C   0  0  0  0  0  0  0  0  0  0  0  0
    8.2939  -17.6697   20.7321 O   0  0  0  0  0  0  0  0  0  0  0  0
   12.6369  -20.6062   22.1666 N   0  0  0  0  0  0  0  0  0  0  0  0
   12.8533  -19.2121   22.2604 C   0  0  0  0  0  0  0  0  0  0  0  0
   13.5521  -18.7908   23.2422 O   0  0  0  0  0  0  0  0  0  0  0  0
   12.2770  -18.3266   21.2399 C   0  0  0  0  0  0  0  0  0  0  0  0
   10.9950  -17.7034   21.6567 C   0  0  2  0  0  0  0  0  0  0  0  0
   10.4259  -16.8114   20.6694 N   0  0  0  0  0  0  0  0  0  0  0  0
   11.1760  -16.9478   22.9132 C   0  0  0  0  0  0  0  0  0  0  0  0
   11.9000  -15.8930   22.9275 O   0  0  0  0  0  0  0  0  0  0  0  0
   10.6011  -17.2889   24.1606 N   0  0  0  0  0  0  0  0  0  0  0  0
   10.9335  -16.5451   25.3862 C   0  0  1  0  0  0  0  0  0  0  0  0
    9.6126  -16.2675   26.0646 C   0  0  0  0  0  0  0  0  0  0  0  0
    9.7987  -15.4324   27.2468 C   0  0  0  0  0  0  0  0  0  0  0  0
   10.0605  -16.0058   28.4674 C   0  0  0  0  0  0  0  0  0  0  0  0
   10.2273  -15.2269   29.5749 C   0  0  0  0  0  0  0  0  0  0  0  0
   10.1367  -13.8601   29.4904 C   0  0  0  0  0  0  0  0  0  0  0  0
    9.8728  -13.2684   28.2643 C   0  0  0  0  0  0  0  0  0  0  0  0
    9.7051  -14.0660   27.1466 C   0  0  0  0  0  0  0  0  0  0  0  0
   11.7856  -17.3415   26.2803 C   0  0  0  0  0  0  0  0  0  0  0  0
   12.8088  -16.7531   26.9953 O   0  0  0  0  0  0  0  0  0  0  0  0
   11.6236  -18.5926   26.4344 O   0  0  0  0  0  0  0  0  0  0  0  0
  2  1  1  1
  2  4  1  0
  3  2  1  0
  5  7  1  0
  5  4  1  0
  5  6  1  1
  7  8  2  0
  9 10  1  0
 10 12  1  0
 11 10  2  0
 13 12  1  6
 14 13  1  0
 14  7  1  0
 15 16  2  0
 15 13  1  0
 17 15  1  0
 18 26  1  0
 18 17  1  0
 18 19  1  1
 20 19  1  0
 21 20  2  0
 22 21  1  0
 23 22  2  0
 23 24  1  0
 24 25  2  0
 25 20  1  0
 26 27  1  0
 28 26  2  0
M  END
$$$$
