LNF.pdb
     RDKit          3D

 28 28  0  0  1  0  0  0  0  0999 V2000
    7.4541  -11.9808   20.7201 C   0  0  0  0  0  0  0  0  0  0  0  0
    7.7015  -13.2808   19.9367 C   0  0  1  0  0  0  0  0  0  0  0  0
    8.9227  -13.0196   19.0929 C   0  0  0  0  0  0  0  0  0  0  0  0
    7.8659  -14.3481   20.9653 C   0  0  0  0  0  0  0  0  0  0  0  0
    8.0931  -15.7300   20.4353 C   0  0  2  0  0  0  0  0  0  0  0  0
    7.2282  -16.1486   19.3900 N   0  0  0  0  0  0  0  0  0  0  0  0
    8.1947  -16.7296   21.5494 C   0  0  0  0  0  0  0  0  0  0  0  0
    7.5465  -17.8009   21.5389 O   0  0  0  0  0  0  0  0  0  0  0  0
   12.0017  -19.9531   22.6140 N   0  0  0  0  0  0  0  0  0  0  0  0
   12.1748  -18.5505   22.5706 C   0  0  0  0  0  0  0  0  0  0  0  0
   13.2908  -18.0834   22.9779 O   0  0  0  0  0  0  0  0  0  0  0  0
   11.0828  -17.7084   22.0648 C   0  0  0  0  0  0  0  0  0  0  0  0
   10.1021  -17.3236   23.1116 C   0  0  2  0  0  0  0  0  0  0  0  0
    9.0483  -16.4516   22.6388 N   0  0  0  0  0  0  0  0  0  0  0  0
   10.7875  -16.6536   24.2358 C   0  0  0  0  0  0  0  0  0  0  0  0
   11.9532  -17.0384   24.5960 O   0  0  0  0  0  0  0  0  0  0  0  0
   10.2596  -15.5779   24.9889 N   0  0  0  0  0  0  0  0  0  0  0  0
    9.6713  -15.7914   26.3209 C   0  0  1  0  0  0  0  0  0  0  0  0
    8.1762  -15.8120   26.1068 C   0  0  0  0  0  0  0  0  0  0  0  0
    7.6125  -14.4718   26.2332 C   0  0  0  0  0  0  0  0  0  0  0  0
    6.2522  -14.2845   26.1942 C   0  0  0  0  0  0  0  0  0  0  0  0
    5.7241  -13.0316   26.3047 C   0  0  0  0  0  0  0  0  0  0  0  0
    6.5396  -11.9381   26.4561 C   0  0  0  0  0  0  0  0  0  0  0  0
    7.9147  -12.1132   26.4968 C   0  0  0  0  0  0  0  0  0  0  0  0
    8.4414  -13.3874   26.3841 C   0  0  0  0  0  0  0  0  0  0  0  0
   10.1016  -17.0735   26.8960 C   0  0  0  0  0  0  0  0  0  0  0  0
   10.5221  -17.1572   28.2078 O   0  0  0  0  0  0  0  0  0  0  0  0
   10.1080  -18.1508   26.2217 O   0  0  0  0  0  0  0  0  0  0  0  0
  2  1  1  1
  2  4  1  0
  3  2  1  0
  5  7  1  0
  5  4  1  0
  5  6  1  6
  7  8  2  0
  9 10  1  0
 10 12  1  0
 11 10  2  0
 13 12  1  6
 14 13  1  0
 14  7  1  0
 15 16  2  0
 15 13  1  0
 17 15  1  0
 18 26  1  0
 18 17  1  0
 18 19  1  6
 20 19  1  0
 21 20  2  0
 22 21  1  0
 23 22  2  0
 23 24  1  0
 24 25  2  0
 25 20  1  0
 26 27  1  0
 28 26  2  0
M  END
$$$$
