LNF.pdb
     RDKit          3D

 28 28  0  0  1  0  0  0  0  0999 V2000
    8.7059  -12.3534   18.8108 C   0  0  0  0  0  0  0  0  0  0  0  0
    8.7099  -13.3539   19.9786 C   0  0  1  0  0  0  0  0  0  0  0  0
    7.9971  -12.6591   21.1103 C   0  0  0  0  0  0  0  0  0  0  0  0
    8.0292  -14.5777   19.4653 C   0  0  0  0  0  0  0  0  0  0  0  0
    7.7306  -15.6304   20.4875 C   0  0  2  0  0  0  0  0  0  0  0  0
    7.0429  -15.1952   21.6508 N   0  0  0  0  0  0  0  0  0  0  0  0
    8.9495  -16.4485   20.7972 C   0  0  0  0  0  0  0  0  0  0  0  0
    9.4559  -17.2264   19.9568 O   0  0  0  0  0  0  0  0  0  0  0  0
   12.3593  -14.7964   19.2221 N   0  0  0  0  0  0  0  0  0  0  0  0
   12.3514  -15.6036   20.3830 C   0  0  0  0  0  0  0  0  0  0  0  0
   12.9838  -16.7114   20.3325 O   0  0  0  0  0  0  0  0  0  0  0  0
   11.6310  -15.1381   21.5754 C   0  0  0  0  0  0  0  0  0  0  0  0
   10.9625  -16.2324   22.3245 C   0  0  2  0  0  0  0  0  0  0  0  0
    9.5408  -16.3341   22.0739 N   0  0  0  0  0  0  0  0  0  0  0  0
   11.1650  -16.0584   23.7775 C   0  0  0  0  0  0  0  0  0  0  0  0
   12.3473  -15.9264   24.2480 O   0  0  0  0  0  0  0  0  0  0  0  0
   10.1340  -16.0202   24.7463 N   0  0  0  0  0  0  0  0  0  0  0  0
   10.4243  -15.7502   26.1635 C   0  0  1  0  0  0  0  0  0  0  0  0
   10.1559  -14.2767   26.3603 C   0  0  0  0  0  0  0  0  0  0  0  0
    8.7241  -13.9974   26.3206 C   0  0  0  0  0  0  0  0  0  0  0  0
    8.1390  -13.2319   27.2998 C   0  0  0  0  0  0  0  0  0  0  0  0
    6.7994  -12.9760   27.2683 C   0  0  0  0  0  0  0  0  0  0  0  0
    6.0137  -13.4774   26.2608 C   0  0  0  0  0  0  0  0  0  0  0  0
    6.5917  -14.2518   25.2662 C   0  0  0  0  0  0  0  0  0  0  0  0
    7.9509  -14.5061   25.3062 C   0  0  0  0  0  0  0  0  0  0  0  0
    9.5464  -16.5303   27.0470 C   0  0  0  0  0  0  0  0  0  0  0  0
    8.6464  -17.4398   26.5300 O   0  0  0  0  0  0  0  0  0  0  0  0
    9.5732  -16.4052   28.3115 O   0  0  0  0  0  0  0  0  0  0  0  0
  2  1  1  6
  2  4  1  0
  3  2  1  0
  5  7  1  0
  5  4  1  0
  5  6  1  1
  7  8  2  0
  9 10  1  0
 10 12  1  0
 11 10  2  0
 13 12  1  6
 14 13  1  0
 14  7  1  0
 15 16  2  0
 15 13  1  0
 17 15  1  0
 18 26  1  0
 18 17  1  0
 18 19  1  6
 20 19  1  0
 21 20  2  0
 22 21  1  0
 23 22  2  0
 23 24  1  0
 24 25  2  0
 25 20  1  0
 26 27  1  0
 28 26  2  0
M  END
$$$$
