LNF.pdb
     RDKit          3D

 28 28  0  0  1  0  0  0  0  0999 V2000
    7.7012  -13.5711   17.6217 C   0  0  0  0  0  0  0  0  0  0  0  0
    8.4725  -13.4162   18.9431 C   0  0  1  0  0  0  0  0  0  0  0  0
    8.5241  -11.9340   19.2113 C   0  0  0  0  0  0  0  0  0  0  0  0
    7.7123  -14.2103   19.9510 C   0  0  0  0  0  0  0  0  0  0  0  0
    8.4569  -15.3503   20.5738 C   0  0  2  0  0  0  0  0  0  0  0  0
    8.7168  -16.4626   19.7305 N   0  0  0  0  0  0  0  0  0  0  0  0
    7.8520  -15.7401   21.8903 C   0  0  0  0  0  0  0  0  0  0  0  0
    7.3229  -14.8979   22.6511 O   0  0  0  0  0  0  0  0  0  0  0  0
    6.6797  -20.8961   25.1453 N   0  0  0  0  0  0  0  0  0  0  0  0
    6.3903  -19.5988   24.6632 C   0  0  0  0  0  0  0  0  0  0  0  0
    5.5099  -18.9212   25.2920 O   0  0  0  0  0  0  0  0  0  0  0  0
    7.1055  -19.0962   23.4828 C   0  0  0  0  0  0  0  0  0  0  0  0
    7.3041  -17.6245   23.4966 C   0  0  2  0  0  0  0  0  0  0  0  0
    7.8807  -17.0970   22.2786 N   0  0  0  0  0  0  0  0  0  0  0  0
    8.1723  -17.2341   24.6264 C   0  0  0  0  0  0  0  0  0  0  0  0
    9.4364  -17.4179   24.5558 O   0  0  0  0  0  0  0  0  0  0  0  0
    7.7252  -16.6489   25.8349 N   0  0  0  0  0  0  0  0  0  0  0  0
    8.6723  -16.2415   26.8850 C   0  0  1  0  0  0  0  0  0  0  0  0
    7.8816  -15.3667   27.8291 C   0  0  0  0  0  0  0  0  0  0  0  0
    7.4362  -14.1479   27.1613 C   0  0  0  0  0  0  0  0  0  0  0  0
    6.1198  -13.9966   26.7987 C   0  0  0  0  0  0  0  0  0  0  0  0
    5.7033  -12.8611   26.1678 C   0  0  0  0  0  0  0  0  0  0  0  0
    6.5891  -11.8519   25.8842 C   0  0  0  0  0  0  0  0  0  0  0  0
    7.9209  -11.9918   26.2447 C   0  0  0  0  0  0  0  0  0  0  0  0
    8.3343  -13.1467   26.8842 C   0  0  0  0  0  0  0  0  0  0  0  0
    9.1932  -17.4053   27.6158 C   0  0  0  0  0  0  0  0  0  0  0  0
   10.2736  -17.2840   28.4658 O   0  0  0  0  0  0  0  0  0  0  0  0
    8.6812  -18.5628   27.5004 O   0  0  0  0  0  0  0  0  0  0  0  0
  2  1  1  6
  2  4  1  0
  3  2  1  0
  5  7  1  0
  5  4  1  0
  5  6  1  6
  7  8  2  0
  9 10  1  0
 10 12  1  0
 11 10  2  0
 13 12  1  6
 14 13  1  0
 14  7  1  0
 15 16  2  0
 15 13  1  0
 17 15  1  0
 18 26  1  0
 18 17  1  0
 18 19  1  1
 20 19  1  0
 21 20  2  0
 22 21  1  0
 23 22  2  0
 23 24  1  0
 24 25  2  0
 25 20  1  0
 26 27  1  0
 28 26  2  0
M  END
$$$$
