LNF.pdb
     RDKit          3D

 28 28  0  0  1  0  0  0  0  0999 V2000
    6.4221  -12.2447   19.2527 C   0  0  0  0  0  0  0  0  0  0  0  0
    7.7100  -13.0808   19.3376 C   0  0  1  0  0  0  0  0  0  0  0  0
    8.8355  -12.0831   19.4356 C   0  0  0  0  0  0  0  0  0  0  0  0
    7.5443  -13.9593   20.5313 C   0  0  0  0  0  0  0  0  0  0  0  0
    8.7643  -14.7188   20.9518 C   0  0  2  0  0  0  0  0  0  0  0  0
    9.4293  -15.4482   19.9312 N   0  0  0  0  0  0  0  0  0  0  0  0
    8.4983  -15.5374   22.1807 C   0  0  0  0  0  0  0  0  0  0  0  0
    7.5965  -15.2352   22.9950 O   0  0  0  0  0  0  0  0  0  0  0  0
   10.0663  -20.0234   21.1129 N   0  0  0  0  0  0  0  0  0  0  0  0
    9.2129  -19.6797   22.1866 C   0  0  0  0  0  0  0  0  0  0  0  0
    7.9949  -20.0549   22.1123 O   0  0  0  0  0  0  0  0  0  0  0  0
    9.7572  -18.9222   23.3213 C   0  0  0  0  0  0  0  0  0  0  0  0
    9.1002  -17.6052   23.5198 C   0  0  2  0  0  0  0  0  0  0  0  0
    9.2888  -16.6819   22.4216 N   0  0  0  0  0  0  0  0  0  0  0  0
    9.5979  -16.9640   24.7542 C   0  0  0  0  0  0  0  0  0  0  0  0
   10.7290  -16.3662   24.7539 O   0  0  0  0  0  0  0  0  0  0  0  0
    8.9167  -16.9427   25.9945 N   0  0  0  0  0  0  0  0  0  0  0  0
    9.5509  -16.4021   27.2074 C   0  0  1  0  0  0  0  0  0  0  0  0
    8.4682  -15.6284   27.9224 C   0  0  0  0  0  0  0  0  0  0  0  0
    8.1497  -14.3960   27.2085 C   0  0  0  0  0  0  0  0  0  0  0  0
    9.0012  -13.3196   27.2680 C   0  0  0  0  0  0  0  0  0  0  0  0
    8.7013  -12.1644   26.6074 C   0  0  0  0  0  0  0  0  0  0  0  0
    7.5465  -12.0563   25.8735 C   0  0  0  0  0  0  0  0  0  0  0  0
    6.6782  -13.1354   25.8053 C   0  0  0  0  0  0  0  0  0  0  0  0
    6.9905  -14.3029   26.4783 C   0  0  0  0  0  0  0  0  0  0  0  0
   10.0410  -17.4786   28.0796 C   0  0  0  0  0  0  0  0  0  0  0  0
   10.8369  -17.1999   29.1720 O   0  0  0  0  0  0  0  0  0  0  0  0
    9.7599  -18.7005   27.8715 O   0  0  0  0  0  0  0  0  0  0  0  0
  2  1  1  1
  2  4  1  0
  3  2  1  0
  5  7  1  0
  5  4  1  0
  5  6  1  6
  7  8  2  0
  9 10  1  0
 10 12  1  0
 11 10  2  0
 13 12  1  6
 14 13  1  0
 14  7  1  0
 15 16  2  0
 15 13  1  0
 17 15  1  0
 18 26  1  0
 18 17  1  0
 18 19  1  1
 20 19  1  0
 21 20  2  0
 22 21  1  0
 23 22  2  0
 23 24  1  0
 24 25  2  0
 25 20  1  0
 26 27  1  0
 28 26  2  0
M  END
$$$$
