LNF.pdb
     RDKit          3D

 28 28  0  0  1  0  0  0  0  0999 V2000
    6.4973  -12.2368   19.1453 C   0  0  0  0  0  0  0  0  0  0  0  0
    7.8144  -13.0305   19.1430 C   0  0  1  0  0  0  0  0  0  0  0  0
    8.9057  -12.0058   19.3180 C   0  0  0  0  0  0  0  0  0  0  0  0
    7.6948  -14.0164   20.2557 C   0  0  0  0  0  0  0  0  0  0  0  0
    8.9843  -14.5937   20.7517 C   0  0  2  0  0  0  0  0  0  0  0  0
    9.8509  -15.1294   19.7629 N   0  0  0  0  0  0  0  0  0  0  0  0
    8.7540  -15.5306   21.9008 C   0  0  0  0  0  0  0  0  0  0  0  0
    7.7455  -15.4394   22.6374 O   0  0  0  0  0  0  0  0  0  0  0  0
   11.2175  -19.5972   20.8344 N   0  0  0  0  0  0  0  0  0  0  0  0
   10.2357  -19.4927   21.8466 C   0  0  0  0  0  0  0  0  0  0  0  0
    9.1368  -20.1166   21.6657 O   0  0  0  0  0  0  0  0  0  0  0  0
   10.5204  -18.6874   23.0415 C   0  0  0  0  0  0  0  0  0  0  0  0
    9.6010  -17.5328   23.2066 C   0  0  2  0  0  0  0  0  0  0  0  0
    9.7031  -16.5441   22.1547 N   0  0  0  0  0  0  0  0  0  0  0  0
    9.8477  -16.8606   24.4988 C   0  0  0  0  0  0  0  0  0  0  0  0
   10.9177  -16.1813   24.6732 O   0  0  0  0  0  0  0  0  0  0  0  0
    8.9780  -16.8934   25.6148 N   0  0  0  0  0  0  0  0  0  0  0  0
    9.3743  -16.3218   26.9117 C   0  0  1  0  0  0  0  0  0  0  0  0
    8.0966  -15.8217   27.5435 C   0  0  0  0  0  0  0  0  0  0  0  0
    7.6421  -14.5935   26.8996 C   0  0  0  0  0  0  0  0  0  0  0  0
    8.3530  -13.4276   27.0488 C   0  0  0  0  0  0  0  0  0  0  0  0
    7.9255  -12.2769   26.4537 C   0  0  0  0  0  0  0  0  0  0  0  0
    6.7804  -12.2628   25.6973 C   0  0  0  0  0  0  0  0  0  0  0  0
    6.0531  -13.4329   25.5387 C   0  0  0  0  0  0  0  0  0  0  0  0
    6.4942  -14.5950   26.1458 C   0  0  0  0  0  0  0  0  0  0  0  0
    9.9849  -17.3384   27.7798 C   0  0  0  0  0  0  0  0  0  0  0  0
   10.0103  -18.6669   27.4073 O   0  0  0  0  0  0  0  0  0  0  0  0
   10.5101  -17.0465   28.8997 O   0  0  0  0  0  0  0  0  0  0  0  0
  2  1  1  1
  2  4  1  0
  3  2  1  0
  5  7  1  0
  5  4  1  0
  5  6  1  6
  7  8  2  0
  9 10  1  0
 10 12  1  0
 11 10  2  0
 13 12  1  6
 14 13  1  0
 14  7  1  0
 15 16  2  0
 15 13  1  0
 17 15  1  0
 18 26  1  0
 18 17  1  0
 18 19  1  1
 20 19  1  0
 21 20  2  0
 22 21  1  0
 23 22  2  0
 23 24  1  0
 24 25  2  0
 25 20  1  0
 26 27  1  0
 28 26  2  0
M  END
$$$$
