LNF.pdb
     RDKit          3D

 28 28  0  0  1  0  0  0  0  0999 V2000
    8.6509  -12.7802   18.9375 C   0  0  0  0  0  0  0  0  0  0  0  0
    8.0425  -13.1898   20.2892 C   0  0  1  0  0  0  0  0  0  0  0  0
    6.7486  -12.4250   20.4000 C   0  0  0  0  0  0  0  0  0  0  0  0
    7.8924  -14.6726   20.2327 C   0  0  0  0  0  0  0  0  0  0  0  0
    7.3828  -15.3207   21.4827 C   0  0  2  0  0  0  0  0  0  0  0  0
    7.2325  -14.4716   22.6107 N   0  0  0  0  0  0  0  0  0  0  0  0
    8.1410  -16.5782   21.7909 C   0  0  0  0  0  0  0  0  0  0  0  0
    8.2613  -17.5009   20.9531 O   0  0  0  0  0  0  0  0  0  0  0  0
   12.9319  -17.5204   22.5364 N   0  0  0  0  0  0  0  0  0  0  0  0
   12.4391  -16.1987   22.6340 C   0  0  0  0  0  0  0  0  0  0  0  0
   13.2871  -15.2704   22.8546 O   0  0  0  0  0  0  0  0  0  0  0  0
   10.9989  -15.9567   22.4767 C   0  0  0  0  0  0  0  0  0  0  0  0
   10.1564  -16.8567   23.3049 C   0  0  2  0  0  0  0  0  0  0  0  0
    8.7360  -16.7208   23.0630 N   0  0  0  0  0  0  0  0  0  0  0  0
   10.4063  -16.6165   24.7409 C   0  0  0  0  0  0  0  0  0  0  0  0
   11.6061  -16.5570   25.1809 O   0  0  0  0  0  0  0  0  0  0  0  0
    9.4048  -16.4362   25.7246 N   0  0  0  0  0  0  0  0  0  0  0  0
    9.7507  -16.1798   27.1318 C   0  0  1  0  0  0  0  0  0  0  0  0
    8.4789  -15.6854   27.7799 C   0  0  0  0  0  0  0  0  0  0  0  0
    7.9715  -14.5003   27.0959 C   0  0  0  0  0  0  0  0  0  0  0  0
    8.7273  -13.3546   27.0394 C   0  0  0  0  0  0  0  0  0  0  0  0
    8.2514  -12.2436   26.4069 C   0  0  0  0  0  0  0  0  0  0  0  0
    7.0120  -12.2498   25.8173 C   0  0  0  0  0  0  0  0  0  0  0  0
    6.2386  -13.3998   25.8671 C   0  0  0  0  0  0  0  0  0  0  0  0
    6.7294  -14.5217   26.5106 C   0  0  0  0  0  0  0  0  0  0  0  0
   10.1980  -17.4075   27.8045 C   0  0  0  0  0  0  0  0  0  0  0  0
   10.7273  -17.3660   29.0783 O   0  0  0  0  0  0  0  0  0  0  0  0
   10.1209  -18.5496   27.2522 O   0  0  0  0  0  0  0  0  0  0  0  0
  2  1  1  6
  2  4  1  0
  3  2  1  0
  5  7  1  0
  5  4  1  0
  5  6  1  1
  7  8  2  0
  9 10  1  0
 10 12  1  0
 11 10  2  0
 13 12  1  6
 14 13  1  0
 14  7  1  0
 15 16  2  0
 15 13  1  0
 17 15  1  0
 18 26  1  0
 18 17  1  0
 18 19  1  1
 20 19  1  0
 21 20  2  0
 22 21  1  0
 23 22  2  0
 23 24  1  0
 24 25  2  0
 25 20  1  0
 26 27  1  0
 28 26  2  0
M  END
$$$$
