LNF.pdb
     RDKit          3D

 28 28  0  0  1  0  0  0  0  0999 V2000
    7.9344  -12.0580   20.9834 C   0  0  0  0  0  0  0  0  0  0  0  0
    7.5026  -13.4452   20.4794 C   0  0  1  0  0  0  0  0  0  0  0  0
    7.8700  -13.4783   19.0181 C   0  0  0  0  0  0  0  0  0  0  0  0
    8.2295  -14.4298   21.3318 C   0  0  0  0  0  0  0  0  0  0  0  0
    7.9082  -15.8699   21.0768 C   0  0  2  0  0  0  0  0  0  0  0  0
    6.5299  -16.2106   21.0663 N   0  0  0  0  0  0  0  0  0  0  0  0
    8.7298  -16.7728   21.9490 C   0  0  0  0  0  0  0  0  0  0  0  0
    8.2041  -17.6244   22.7015 O   0  0  0  0  0  0  0  0  0  0  0  0
   11.9323  -19.1240   20.3891 N   0  0  0  0  0  0  0  0  0  0  0  0
   12.5667  -17.9197   20.7721 C   0  0  0  0  0  0  0  0  0  0  0  0
   13.2167  -17.2868   19.8740 O   0  0  0  0  0  0  0  0  0  0  0  0
   12.4488  -17.4572   22.1612 C   0  0  0  0  0  0  0  0  0  0  0  0
   11.0550  -17.4799   22.6735 C   0  0  2  0  0  0  0  0  0  0  0  0
   10.1363  -16.6570   21.9164 N   0  0  0  0  0  0  0  0  0  0  0  0
   11.0186  -17.0379   24.0826 C   0  0  0  0  0  0  0  0  0  0  0  0
   11.6969  -17.6645   24.9680 O   0  0  0  0  0  0  0  0  0  0  0  0
   10.2746  -15.9388   24.5742 N   0  0  0  0  0  0  0  0  0  0  0  0
   10.4217  -15.4740   25.9626 C   0  0  1  0  0  0  0  0  0  0  0  0
   10.2094  -13.9791   25.9160 C   0  0  0  0  0  0  0  0  0  0  0  0
    8.7935  -13.6491   26.0435 C   0  0  0  0  0  0  0  0  0  0  0  0
    7.9376  -13.8438   24.9869 C   0  0  0  0  0  0  0  0  0  0  0  0
    6.6153  -13.5289   25.1020 C   0  0  0  0  0  0  0  0  0  0  0  0
    6.1171  -13.0128   26.2721 C   0  0  0  0  0  0  0  0  0  0  0  0
    6.9705  -12.8110   27.3465 C   0  0  0  0  0  0  0  0  0  0  0  0
    8.3099  -13.1334   27.2207 C   0  0  0  0  0  0  0  0  0  0  0  0
    9.4136  -16.0847   26.8405 C   0  0  0  0  0  0  0  0  0  0  0  0
    8.4284  -16.9036   26.3273 O   0  0  0  0  0  0  0  0  0  0  0  0
    9.4008  -15.8896   28.0963 O   0  0  0  0  0  0  0  0  0  0  0  0
  2  1  1  1
  2  4  1  0
  3  2  1  0
  5  7  1  0
  5  4  1  0
  5  6  1  1
  7  8  2  0
  9 10  1  0
 10 12  1  0
 11 10  2  0
 13 12  1  6
 14 13  1  0
 14  7  1  0
 15 16  2  0
 15 13  1  0
 17 15  1  0
 18 26  1  0
 18 17  1  0
 18 19  1  6
 20 19  1  0
 21 20  2  0
 22 21  1  0
 23 22  2  0
 23 24  1  0
 24 25  2  0
 25 20  1  0
 26 27  1  0
 28 26  2  0
M  END
$$$$
