LNF.pdb
     RDKit          3D

 28 28  0  0  1  0  0  0  0  0999 V2000
    7.0500  -12.2642   19.5981 C   0  0  0  0  0  0  0  0  0  0  0  0
    8.0027  -13.4654   19.7181 C   0  0  1  0  0  0  0  0  0  0  0  0
    9.3934  -12.8870   19.6641 C   0  0  0  0  0  0  0  0  0  0  0  0
    7.6506  -14.1343   21.0038 C   0  0  0  0  0  0  0  0  0  0  0  0
    8.5144  -15.2953   21.3885 C   0  0  2  0  0  0  0  0  0  0  0  0
    8.7452  -16.2650   20.3773 N   0  0  0  0  0  0  0  0  0  0  0  0
    8.0689  -15.8971   22.6887 C   0  0  0  0  0  0  0  0  0  0  0  0
    6.9544  -16.4540   22.8130 O   0  0  0  0  0  0  0  0  0  0  0  0
   11.0106  -19.7154   24.2372 N   0  0  0  0  0  0  0  0  0  0  0  0
   11.5832  -18.5104   23.7687 C   0  0  0  0  0  0  0  0  0  0  0  0
   12.8547  -18.4072   23.8151 O   0  0  0  0  0  0  0  0  0  0  0  0
   10.7048  -17.4509   23.2555 C   0  0  0  0  0  0  0  0  0  0  0  0
    9.7619  -16.9226   24.2741 C   0  0  2  0  0  0  0  0  0  0  0  0
    8.9350  -15.8329   23.8015 N   0  0  0  0  0  0  0  0  0  0  0  0
   10.5008  -16.4592   25.4665 C   0  0  0  0  0  0  0  0  0  0  0  0
   11.3409  -17.2347   26.0406 O   0  0  0  0  0  0  0  0  0  0  0  0
   10.3671  -15.1836   26.0647 N   0  0  0  0  0  0  0  0  0  0  0  0
   10.1129  -15.0367   27.5067 C   0  0  1  0  0  0  0  0  0  0  0  0
    8.6147  -15.1419   27.6686 C   0  0  0  0  0  0  0  0  0  0  0  0
    7.9454  -13.9763   27.1001 C   0  0  0  0  0  0  0  0  0  0  0  0
    6.7203  -14.1071   26.4927 C   0  0  0  0  0  0  0  0  0  0  0  0
    6.0967  -13.0198   25.9542 C   0  0  0  0  0  0  0  0  0  0  0  0
    6.6803  -11.7788   26.0090 C   0  0  0  0  0  0  0  0  0  0  0  0
    7.9170  -11.6328   26.6192 C   0  0  0  0  0  0  0  0  0  0  0  0
    8.5419  -12.7409   27.1626 C   0  0  0  0  0  0  0  0  0  0  0  0
   10.7650  -16.1056   28.2761 C   0  0  0  0  0  0  0  0  0  0  0  0
   10.9537  -17.3589   27.7301 O   0  0  0  0  0  0  0  0  0  0  0  0
   11.1793  -15.9293   29.4646 O   0  0  0  0  0  0  0  0  0  0  0  0
  2  1  1  1
  2  4  1  0
  3  2  1  0
  5  7  1  0
  5  4  1  0
  5  6  1  6
  7  8  2  0
  9 10  1  0
 10 12  1  0
 11 10  2  0
 13 12  1  6
 14 13  1  0
 14  7  1  0
 15 16  2  0
 15 13  1  0
 17 15  1  0
 18 26  1  0
 18 17  1  0
 18 19  1  6
 20 19  1  0
 21 20  2  0
 22 21  1  0
 23 22  2  0
 23 24  1  0
 24 25  2  0
 25 20  1  0
 26 27  1  0
 28 26  2  0
M  END
$$$$
