LNF.pdb
     RDKit          3D

 28 28  0  0  1  0  0  0  0  0999 V2000
    7.4322  -12.1119   18.8943 C   0  0  0  0  0  0  0  0  0  0  0  0
    7.9335  -13.5656   18.9146 C   0  0  1  0  0  0  0  0  0  0  0  0
    9.4359  -13.4755   18.9928 C   0  0  0  0  0  0  0  0  0  0  0  0
    7.2806  -14.2024   20.0946 C   0  0  0  0  0  0  0  0  0  0  0  0
    7.7861  -15.5640   20.4589 C   0  0  2  0  0  0  0  0  0  0  0  0
    7.4576  -16.6138   19.5611 N   0  0  0  0  0  0  0  0  0  0  0  0
    7.4745  -15.8949   21.8888 C   0  0  0  0  0  0  0  0  0  0  0  0
    6.8122  -15.1220   22.6180 O   0  0  0  0  0  0  0  0  0  0  0  0
    6.1275  -19.6329   25.8831 N   0  0  0  0  0  0  0  0  0  0  0  0
    7.3825  -19.5471   25.2374 C   0  0  0  0  0  0  0  0  0  0  0  0
    8.4102  -19.9140   25.8998 O   0  0  0  0  0  0  0  0  0  0  0  0
    7.4462  -19.0512   23.8563 C   0  0  0  0  0  0  0  0  0  0  0  0
    7.6803  -17.5875   23.7661 C   0  0  2  0  0  0  0  0  0  0  0  0
    7.9419  -17.1149   22.4235 N   0  0  0  0  0  0  0  0  0  0  0  0
    8.8171  -17.1954   24.6243 C   0  0  0  0  0  0  0  0  0  0  0  0
   10.0097  -17.5225   24.2963 O   0  0  0  0  0  0  0  0  0  0  0  0
    8.7146  -16.4591   25.8285 N   0  0  0  0  0  0  0  0  0  0  0  0
    9.9092  -16.0895   26.6044 C   0  0  1  0  0  0  0  0  0  0  0  0
   10.0593  -14.5961   26.4338 C   0  0  0  0  0  0  0  0  0  0  0  0
    8.7961  -13.9120   26.6915 C   0  0  0  0  0  0  0  0  0  0  0  0
    7.8225  -13.8645   25.7235 C   0  0  0  0  0  0  0  0  0  0  0  0
    6.6442  -13.2191   25.9602 C   0  0  0  0  0  0  0  0  0  0  0  0
    6.4104  -12.6069   27.1661 C   0  0  0  0  0  0  0  0  0  0  0  0
    7.3850  -12.6473   28.1519 C   0  0  0  0  0  0  0  0  0  0  0  0
    8.5768  -13.3040   27.9031 C   0  0  0  0  0  0  0  0  0  0  0  0
    9.7398  -16.4051   28.0296 C   0  0  0  0  0  0  0  0  0  0  0  0
    8.5754  -16.9814   28.4952 O   0  0  0  0  0  0  0  0  0  0  0  0
   10.6445  -16.1647   28.8894 O   0  0  0  0  0  0  0  0  0  0  0  0
  2  1  1  1
  2  4  1  0
  3  2  1  0
  5  7  1  0
  5  4  1  0
  5  6  1  6
  7  8  2  0
  9 10  1  0
 10 12  1  0
 11 10  2  0
 13 12  1  6
 14 13  1  0
 14  7  1  0
 15 16  2  0
 15 13  1  0
 17 15  1  0
 18 26  1  0
 18 17  1  0
 18 19  1  1
 20 19  1  0
 21 20  2  0
 22 21  1  0
 23 22  2  0
 23 24  1  0
 24 25  2  0
 25 20  1  0
 26 27  1  0
 28 26  2  0
M  END
$$$$
