LNF.pdb
     RDKit          3D

 28 28  0  0  1  0  0  0  0  0999 V2000
    7.0011  -12.0433   19.4112 C   0  0  0  0  0  0  0  0  0  0  0  0
    7.9925  -13.2080   19.2510 C   0  0  1  0  0  0  0  0  0  0  0  0
    9.3505  -12.5687   19.1138 C   0  0  0  0  0  0  0  0  0  0  0  0
    7.8184  -14.0574   20.4645 C   0  0  0  0  0  0  0  0  0  0  0  0
    8.8411  -15.1346   20.6540 C   0  0  2  0  0  0  0  0  0  0  0  0
    8.9962  -16.0461   19.5766 N   0  0  0  0  0  0  0  0  0  0  0  0
    8.6736  -15.8159   21.9803 C   0  0  0  0  0  0  0  0  0  0  0  0
    7.6648  -15.6286   22.6980 O   0  0  0  0  0  0  0  0  0  0  0  0
   10.6029  -20.0695   21.4282 N   0  0  0  0  0  0  0  0  0  0  0  0
    9.8798  -19.7639   22.6042 C   0  0  0  0  0  0  0  0  0  0  0  0
    8.7821  -20.3863   22.7973 O   0  0  0  0  0  0  0  0  0  0  0  0
   10.4163  -18.7636   23.5364 C   0  0  0  0  0  0  0  0  0  0  0  0
    9.5976  -17.5266   23.6084 C   0  0  2  0  0  0  0  0  0  0  0  0
    9.6841  -16.6941   22.4278 N   0  0  0  0  0  0  0  0  0  0  0  0
    9.9953  -16.7149   24.7770 C   0  0  0  0  0  0  0  0  0  0  0  0
   11.1468  -16.1583   24.8081 O   0  0  0  0  0  0  0  0  0  0  0  0
    9.1923  -16.4795   25.9184 N   0  0  0  0  0  0  0  0  0  0  0  0
    9.7414  -15.8333   27.1211 C   0  0  1  0  0  0  0  0  0  0  0  0
    8.5536  -15.2431   27.8442 C   0  0  0  0  0  0  0  0  0  0  0  0
    7.9926  -14.1219   27.0974 C   0  0  0  0  0  0  0  0  0  0  0  0
    8.6149  -12.8973   27.1121 C   0  0  0  0  0  0  0  0  0  0  0  0
    8.0877  -11.8462   26.4206 C   0  0  0  0  0  0  0  0  0  0  0  0
    6.9290  -11.9922   25.6996 C   0  0  0  0  0  0  0  0  0  0  0  0
    6.2906  -13.2231   25.6764 C   0  0  0  0  0  0  0  0  0  0  0  0
    6.8324  -14.2834   26.3806 C   0  0  0  0  0  0  0  0  0  0  0  0
   10.4109  -16.8083   27.9933 C   0  0  0  0  0  0  0  0  0  0  0  0
   11.3687  -16.4070   28.9022 O   0  0  0  0  0  0  0  0  0  0  0  0
   10.1443  -18.0503   27.9517 O   0  0  0  0  0  0  0  0  0  0  0  0
  2  1  1  1
  2  4  1  0
  3  2  1  0
  5  7  1  0
  5  4  1  0
  5  6  1  6
  7  8  2  0
  9 10  1  0
 10 12  1  0
 11 10  2  0
 13 12  1  6
 14 13  1  0
 14  7  1  0
 15 16  2  0
 15 13  1  0
 17 15  1  0
 18 26  1  0
 18 17  1  0
 18 19  1  1
 20 19  1  0
 21 20  2  0
 22 21  1  0
 23 22  2  0
 23 24  1  0
 24 25  2  0
 25 20  1  0
 26 27  1  0
 28 26  2  0
M  END
$$$$
