LNF.pdb
     RDKit          3D

 28 28  0  0  1  0  0  0  0  0999 V2000
    7.4270  -11.8947   20.5394 C   0  0  0  0  0  0  0  0  0  0  0  0
    7.5560  -13.2585   19.8406 C   0  0  1  0  0  0  0  0  0  0  0  0
    8.5548  -13.0526   18.7308 C   0  0  0  0  0  0  0  0  0  0  0  0
    7.9836  -14.2172   20.9000 C   0  0  0  0  0  0  0  0  0  0  0  0
    8.1642  -15.6358   20.4560 C   0  0  2  0  0  0  0  0  0  0  0  0
    7.0909  -16.2017   19.7188 N   0  0  0  0  0  0  0  0  0  0  0  0
    8.6216  -16.5060   21.5894 C   0  0  0  0  0  0  0  0  0  0  0  0
    7.8400  -17.2816   22.1857 O   0  0  0  0  0  0  0  0  0  0  0  0
   12.9769  -17.8557   20.4501 N   0  0  0  0  0  0  0  0  0  0  0  0
   12.2312  -18.4071   21.5174 C   0  0  0  0  0  0  0  0  0  0  0  0
   11.7820  -19.5928   21.3693 O   0  0  0  0  0  0  0  0  0  0  0  0
   12.0132  -17.6060   22.7292 C   0  0  0  0  0  0  0  0  0  0  0  0
   10.5821  -17.3040   22.9862 C   0  0  2  0  0  0  0  0  0  0  0  0
    9.9735  -16.4472   21.9913 N   0  0  0  0  0  0  0  0  0  0  0  0
   10.4216  -16.6645   24.3082 C   0  0  0  0  0  0  0  0  0  0  0  0
   11.2503  -15.7679   24.6906 O   0  0  0  0  0  0  0  0  0  0  0  0
    9.3946  -16.9570   25.2370 N   0  0  0  0  0  0  0  0  0  0  0  0
    9.4819  -16.5179   26.6389 C   0  0  1  0  0  0  0  0  0  0  0  0
    8.0857  -16.0821   27.0165 C   0  0  0  0  0  0  0  0  0  0  0  0
    7.8537  -14.6913   26.6402 C   0  0  0  0  0  0  0  0  0  0  0  0
    6.9147  -14.3774   25.6879 C   0  0  0  0  0  0  0  0  0  0  0  0
    6.7018  -13.0784   25.3296 C   0  0  0  0  0  0  0  0  0  0  0  0
    7.4199  -12.0641   25.9120 C   0  0  0  0  0  0  0  0  0  0  0  0
    8.3710  -12.3672   26.8746 C   0  0  0  0  0  0  0  0  0  0  0  0
    8.5801  -13.6873   27.2317 C   0  0  0  0  0  0  0  0  0  0  0  0
    9.9066  -17.6166   27.5177 C   0  0  0  0  0  0  0  0  0  0  0  0
   10.0732  -18.8950   27.0254 O   0  0  0  0  0  0  0  0  0  0  0  0
   10.1363  -17.4442   28.7558 O   0  0  0  0  0  0  0  0  0  0  0  0
  2  1  1  1
  2  4  1  0
  3  2  1  0
  5  7  1  0
  5  4  1  0
  5  6  1  1
  7  8  2  0
  9 10  1  0
 10 12  1  0
 11 10  2  0
 13 12  1  6
 14 13  1  0
 14  7  1  0
 15 16  2  0
 15 13  1  0
 17 15  1  0
 18 26  1  0
 18 17  1  0
 18 19  1  1
 20 19  1  0
 21 20  2  0
 22 21  1  0
 23 22  2  0
 23 24  1  0
 24 25  2  0
 25 20  1  0
 26 27  1  0
 28 26  2  0
M  END
$$$$
