ILC.pdb
     RDKit          3D

 23 22  0  0  1  0  0  0  0  0999 V2000
    6.8779  -17.6300   18.6655 C   0  0  0  0  0  0  0  0  0  0  0  0
    6.8102  -16.2130   19.1663 C   0  0  0  0  0  0  0  0  0  0  0  0
    7.3631  -16.0951   20.5602 C   0  0  2  0  0  0  0  0  0  0  0  0
    6.6909  -17.1256   21.4570 C   0  0  0  0  0  0  0  0  0  0  0  0
    7.2653  -14.7141   21.1598 C   0  0  2  0  0  0  0  0  0  0  0  0
    8.1213  -13.8660   20.2833 N   0  0  0  0  0  0  0  0  0  0  0  0
    7.8846  -14.5869   22.4978 C   0  0  0  0  0  0  0  0  0  0  0  0
    9.1539  -14.7080   22.6558 O   0  0  0  0  0  0  0  0  0  0  0  0
    5.5348  -11.6640   26.5507 C   0  0  0  0  0  0  0  0  0  0  0  0
    6.6026  -12.2662   25.6513 C   0  0  1  0  0  0  0  0  0  0  0  0
    7.9022  -11.5138   25.7737 C   0  0  0  0  0  0  0  0  0  0  0  0
    6.8062  -13.7335   25.9603 C   0  0  0  0  0  0  0  0  0  0  0  0
    7.7799  -14.3378   25.0035 C   0  0  2  0  0  0  0  0  0  0  0  0
    7.1780  -14.3298   23.6787 N   0  0  0  0  0  0  0  0  0  0  0  0
    8.1298  -15.7360   25.3378 C   0  0  0  0  0  0  0  0  0  0  0  0
    7.2226  -16.5951   25.3367 O   0  0  0  0  0  0  0  0  0  0  0  0
    9.4570  -16.1385   25.6597 N   0  0  0  0  0  0  0  0  0  0  0  0
    9.7510  -17.5162   25.9989 C   0  0  1  0  0  0  0  0  0  0  0  0
   10.5794  -18.1704   24.8883 C   0  0  0  0  0  0  0  0  0  0  0  0
   11.9647  -17.0713   24.4993 S   0  0  0  0  0  0  0  0  0  0  0  0
   10.5455  -17.5422   27.2665 C   0  0  0  0  0  0  0  0  0  0  0  0
   10.8992  -16.3591   27.8981 O   0  0  0  0  0  0  0  0  0  0  0  0
   10.9143  -18.6240   27.7947 O   0  0  0  0  0  0  0  0  0  0  0  0
  2  1  1  0
  2  3  1  0
  3  4  1  1
  5  3  1  0
  5  6  1  6
  7  5  1  0
  8  7  2  0
 10  9  1  1
 11 10  1  0
 12 10  1  0
 13 12  1  1
 13 14  1  0
 14  7  1  0
 15 17  1  0
 15 13  1  0
 16 15  2  0
 18 17  1  0
 18 21  1  0
 18 19  1  6
 20 19  1  0
 21 22  1  0
 23 21  2  0
M  END
$$$$
