ILC.pdb
     RDKit          3D

 23 22  0  0  1  0  0  0  0  0999 V2000
   10.8243  -21.6386   17.9211 C   0  0  0  0  0  0  0  0  0  0  0  0
   10.0995  -20.3722   17.5551 C   0  0  0  0  0  0  0  0  0  0  0  0
   10.3516  -19.2833   18.5618 C   0  0  2  0  0  0  0  0  0  0  0  0
   10.0322  -19.8037   19.9565 C   0  0  0  0  0  0  0  0  0  0  0  0
    9.6195  -17.9930   18.2878 C   0  0  2  0  0  0  0  0  0  0  0  0
   10.0901  -17.5773   16.9365 N   0  0  0  0  0  0  0  0  0  0  0  0
   10.0158  -16.8704   19.1668 C   0  0  0  0  0  0  0  0  0  0  0  0
   11.2076  -16.3916   19.1353 O   0  0  0  0  0  0  0  0  0  0  0  0
    6.3724  -13.2104   20.1961 C   0  0  0  0  0  0  0  0  0  0  0  0
    7.7653  -13.7698   19.9543 C   0  0  1  0  0  0  0  0  0  0  0  0
    8.6699  -12.7289   19.3475 C   0  0  0  0  0  0  0  0  0  0  0  0
    8.3612  -14.3108   21.2358 C   0  0  0  0  0  0  0  0  0  0  0  0
    9.5692  -15.1371   20.9410 C   0  0  2  0  0  0  0  0  0  0  0  0
    9.1650  -16.2409   20.0833 N   0  0  0  0  0  0  0  0  0  0  0  0
   10.1925  -15.7071   22.1558 C   0  0  0  0  0  0  0  0  0  0  0  0
   10.6915  -14.9259   22.9935 O   0  0  0  0  0  0  0  0  0  0  0  0
   10.2450  -17.1078   22.4057 N   0  0  0  0  0  0  0  0  0  0  0  0
   11.0085  -17.6328   23.5197 C   0  0  1  0  0  0  0  0  0  0  0  0
   11.1531  -19.1529   23.3937 C   0  0  0  0  0  0  0  0  0  0  0  0
   12.1666  -19.7373   24.7757 S   0  0  0  0  0  0  0  0  0  0  0  0
   12.3732  -17.0195   23.5013 C   0  0  0  0  0  0  0  0  0  0  0  0
   12.9892  -16.6413   24.6850 O   0  0  0  0  0  0  0  0  0  0  0  0
   12.9991  -16.8291   22.4255 O   0  0  0  0  0  0  0  0  0  0  0  0
  2  1  1  0
  2  3  1  0
  3  4  1  1
  5  3  1  0
  5  6  1  6
  7  5  1  0
  8  7  2  0
 10  9  1  1
 11 10  1  0
 12 10  1  0
 13 12  1  1
 13 14  1  0
 14  7  1  0
 15 17  1  0
 15 13  1  0
 16 15  2  0
 18 17  1  0
 18 21  1  0
 18 19  1  6
 20 19  1  0
 21 22  1  0
 23 21  2  0
M  END
$$$$
