ILC.pdb
     RDKit          3D

 23 22  0  0  1  0  0  0  0  0999 V2000
    7.5192  -12.3825   18.7479 C   0  0  0  0  0  0  0  0  0  0  0  0
    7.3550  -13.7089   19.4384 C   0  0  0  0  0  0  0  0  0  0  0  0
    8.0392  -13.7203   20.7779 C   0  0  2  0  0  0  0  0  0  0  0  0
    9.4494  -13.1667   20.6273 C   0  0  0  0  0  0  0  0  0  0  0  0
    8.0589  -15.0651   21.4616 C   0  0  2  0  0  0  0  0  0  0  0  0
    6.6314  -15.4916   21.4859 N   0  0  0  0  0  0  0  0  0  0  0  0
    8.4431  -15.0156   22.8898 C   0  0  0  0  0  0  0  0  0  0  0  0
    9.6775  -15.0281   23.2458 O   0  0  0  0  0  0  0  0  0  0  0  0
    5.7516  -12.0371   26.6084 C   0  0  0  0  0  0  0  0  0  0  0  0
    6.8935  -12.7369   25.8886 C   0  0  1  0  0  0  0  0  0  0  0  0
    8.2261  -12.1757   26.3116 C   0  0  0  0  0  0  0  0  0  0  0  0
    6.8466  -14.2311   26.1237 C   0  0  0  0  0  0  0  0  0  0  0  0
    7.9288  -14.9142   25.3549 C   0  0  2  0  0  0  0  0  0  0  0  0
    7.5360  -14.9507   23.9543 N   0  0  0  0  0  0  0  0  0  0  0  0
    8.1663  -16.3053   25.7991 C   0  0  0  0  0  0  0  0  0  0  0  0
    7.1996  -17.0964   25.8273 O   0  0  0  0  0  0  0  0  0  0  0  0
    9.4507  -16.7755   26.1946 N   0  0  0  0  0  0  0  0  0  0  0  0
    9.7026  -18.1932   26.3560 C   0  0  1  0  0  0  0  0  0  0  0  0
   10.0578  -18.8255   25.0062 C   0  0  0  0  0  0  0  0  0  0  0  0
   10.5317  -20.5481   25.3003 S   0  0  0  0  0  0  0  0  0  0  0  0
   10.8588  -18.3751   27.2881 C   0  0  0  0  0  0  0  0  0  0  0  0
   10.7943  -19.3067   28.3136 O   0  0  0  0  0  0  0  0  0  0  0  0
   11.9140  -17.6977   27.1742 O   0  0  0  0  0  0  0  0  0  0  0  0
  2  1  1  0
  2  3  1  0
  3  4  1  6
  5  3  1  0
  5  6  1  1
  7  5  1  0
  8  7  2  0
 10  9  1  1
 11 10  1  0
 12 10  1  0
 13 12  1  1
 13 14  1  0
 14  7  1  0
 15 17  1  0
 15 13  1  0
 16 15  2  0
 18 17  1  0
 18 21  1  0
 18 19  1  6
 20 19  1  0
 21 22  1  0
 23 21  2  0
M  END
$$$$
