ILC.pdb
     RDKit          3D

 23 22  0  0  1  0  0  0  0  0999 V2000
    6.8824  -17.9525   18.8558 C   0  0  0  0  0  0  0  0  0  0  0  0
    6.7125  -16.5451   19.3590 C   0  0  0  0  0  0  0  0  0  0  0  0
    7.3473  -16.3636   20.7106 C   0  0  2  0  0  0  0  0  0  0  0  0
    6.8456  -17.4499   21.6521 C   0  0  0  0  0  0  0  0  0  0  0  0
    7.1547  -14.9953   21.3163 C   0  0  2  0  0  0  0  0  0  0  0  0
    7.8315  -14.0686   20.3657 N   0  0  0  0  0  0  0  0  0  0  0  0
    7.8743  -14.7885   22.5927 C   0  0  0  0  0  0  0  0  0  0  0  0
    9.1551  -14.6922   22.6245 O   0  0  0  0  0  0  0  0  0  0  0  0
    5.7017  -11.9182   26.7010 C   0  0  0  0  0  0  0  0  0  0  0  0
    6.7457  -12.4948   25.7580 C   0  0  1  0  0  0  0  0  0  0  0  0
    8.0058  -11.6690   25.7738 C   0  0  0  0  0  0  0  0  0  0  0  0
    7.0499  -13.9363   26.1035 C   0  0  0  0  0  0  0  0  0  0  0  0
    7.9801  -14.5287   25.0973 C   0  0  2  0  0  0  0  0  0  0  0  0
    7.2561  -14.6791   23.8441 N   0  0  0  0  0  0  0  0  0  0  0  0
    8.4906  -15.8600   25.4925 C   0  0  0  0  0  0  0  0  0  0  0  0
    7.6687  -16.7802   25.6897 O   0  0  0  0  0  0  0  0  0  0  0  0
    9.8786  -16.1316   25.6562 N   0  0  0  0  0  0  0  0  0  0  0  0
   10.3378  -17.4652   25.9882 C   0  0  1  0  0  0  0  0  0  0  0  0
   11.7344  -17.7052   25.4056 C   0  0  0  0  0  0  0  0  0  0  0  0
   11.6545  -17.4198   23.6193 S   0  0  0  0  0  0  0  0  0  0  0  0
   10.4124  -17.5932   27.4771 C   0  0  0  0  0  0  0  0  0  0  0  0
   10.8027  -18.7895   28.0604 O   0  0  0  0  0  0  0  0  0  0  0  0
   10.1273  -16.6325   28.2394 O   0  0  0  0  0  0  0  0  0  0  0  0
  2  1  1  0
  2  3  1  0
  3  4  1  1
  5  3  1  0
  5  6  1  6
  7  5  1  0
  8  7  2  0
 10  9  1  1
 11 10  1  0
 12 10  1  0
 13 12  1  1
 13 14  1  0
 14  7  1  0
 15 17  1  0
 15 13  1  0
 16 15  2  0
 18 17  1  0
 18 21  1  0
 18 19  1  6
 20 19  1  0
 21 22  1  0
 23 21  2  0
M  END
$$$$
