ILC.pdb
     RDKit          3D

 23 22  0  0  1  0  0  0  0  0999 V2000
    4.2383  -18.4309   21.0378 C   0  0  0  0  0  0  0  0  0  0  0  0
    5.1786  -18.6872   22.1838 C   0  0  0  0  0  0  0  0  0  0  0  0
    5.9585  -17.4520   22.5424 C   0  0  2  0  0  0  0  0  0  0  0  0
    6.5636  -16.8547   21.2795 C   0  0  0  0  0  0  0  0  0  0  0  0
    7.0151  -17.6611   23.5988 C   0  0  2  0  0  0  0  0  0  0  0  0
    6.2463  -17.9278   24.8471 N   0  0  0  0  0  0  0  0  0  0  0  0
    7.8059  -16.4512   23.9159 C   0  0  0  0  0  0  0  0  0  0  0  0
    8.7208  -16.0286   23.1191 O   0  0  0  0  0  0  0  0  0  0  0  0
    5.4539  -12.3893   26.4446 C   0  0  0  0  0  0  0  0  0  0  0  0
    6.4234  -13.0841   25.5017 C   0  0  1  0  0  0  0  0  0  0  0  0
    6.8465  -12.1651   24.3852 C   0  0  0  0  0  0  0  0  0  0  0  0
    7.6315  -13.6011   26.2521 C   0  0  0  0  0  0  0  0  0  0  0  0
    8.4425  -14.5001   25.3787 C   0  0  2  0  0  0  0  0  0  0  0  0
    7.6415  -15.6749   25.0694 N   0  0  0  0  0  0  0  0  0  0  0  0
    9.6947  -14.9572   26.0207 C   0  0  0  0  0  0  0  0  0  0  0  0
   10.7461  -14.3194   25.8001 O   0  0  0  0  0  0  0  0  0  0  0  0
    9.7469  -16.0929   26.8778 N   0  0  0  0  0  0  0  0  0  0  0  0
   11.0051  -16.5360   27.4437 C   0  0  1  0  0  0  0  0  0  0  0  0
   10.9712  -16.4149   28.9708 C   0  0  0  0  0  0  0  0  0  0  0  0
   10.6710  -14.6793   29.3902 S   0  0  0  0  0  0  0  0  0  0  0  0
   11.2177  -17.9723   27.0826 C   0  0  0  0  0  0  0  0  0  0  0  0
   12.3415  -18.6503   27.5311 O   0  0  0  0  0  0  0  0  0  0  0  0
   10.3950  -18.6045   26.3693 O   0  0  0  0  0  0  0  0  0  0  0  0
  2  1  1  0
  2  3  1  0
  3  4  1  6
  5  3  1  0
  5  6  1  1
  7  5  1  0
  8  7  2  0
 10  9  1  1
 11 10  1  0
 12 10  1  0
 13 12  1  1
 13 14  1  0
 14  7  1  0
 15 17  1  0
 15 13  1  0
 16 15  2  0
 18 17  1  0
 18 21  1  0
 18 19  1  1
 20 19  1  0
 21 22  1  0
 23 21  2  0
M  END
$$$$
