ILC.pdb
     RDKit          3D

 23 22  0  0  1  0  0  0  0  0999 V2000
    6.8844  -12.6792   19.0799 C   0  0  0  0  0  0  0  0  0  0  0  0
    7.2306  -13.9903   19.7313 C   0  0  0  0  0  0  0  0  0  0  0  0
    7.9493  -13.7833   21.0364 C   0  0  2  0  0  0  0  0  0  0  0  0
    9.2542  -13.0420   20.7802 C   0  0  0  0  0  0  0  0  0  0  0  0
    8.1933  -15.0456   21.8260 C   0  0  2  0  0  0  0  0  0  0  0  0
    6.8424  -15.6550   21.9809 N   0  0  0  0  0  0  0  0  0  0  0  0
    8.6448  -14.8155   23.2163 C   0  0  0  0  0  0  0  0  0  0  0  0
    9.8442  -14.4307   23.4695 O   0  0  0  0  0  0  0  0  0  0  0  0
    5.6209  -12.1462   26.3675 C   0  0  0  0  0  0  0  0  0  0  0  0
    6.9243  -12.7207   25.8357 C   0  0  1  0  0  0  0  0  0  0  0  0
    8.0692  -11.7679   26.0620 C   0  0  0  0  0  0  0  0  0  0  0  0
    7.2192  -14.0656   26.4638 C   0  0  0  0  0  0  0  0  0  0  0  0
    8.3031  -14.7654   25.7128 C   0  0  2  0  0  0  0  0  0  0  0  0
    7.8416  -14.9851   24.3504 N   0  0  0  0  0  0  0  0  0  0  0  0
    8.6553  -16.0800   26.2933 C   0  0  0  0  0  0  0  0  0  0  0  0
    8.9924  -16.1309   27.4953 O   0  0  0  0  0  0  0  0  0  0  0  0
    8.6247  -17.2856   25.5366 N   0  0  0  0  0  0  0  0  0  0  0  0
    8.9841  -18.5507   26.1449 C   0  0  1  0  0  0  0  0  0  0  0  0
    8.0744  -19.6675   25.6223 C   0  0  0  0  0  0  0  0  0  0  0  0
    6.3603  -19.2127   25.9874 S   0  0  0  0  0  0  0  0  0  0  0  0
   10.3984  -18.8766   25.7814 C   0  0  0  0  0  0  0  0  0  0  0  0
   11.1091  -18.0551   24.9190 O   0  0  0  0  0  0  0  0  0  0  0  0
   10.9824  -19.8935   26.2400 O   0  0  0  0  0  0  0  0  0  0  0  0
  2  1  1  0
  2  3  1  0
  3  4  1  6
  5  3  1  0
  5  6  1  1
  7  5  1  0
  8  7  2  0
 10  9  1  1
 11 10  1  0
 12 10  1  0
 13 12  1  1
 13 14  1  0
 14  7  1  0
 15 17  1  0
 15 13  1  0
 16 15  2  0
 18 17  1  0
 18 21  1  0
 18 19  1  6
 20 19  1  0
 21 22  1  0
 23 21  2  0
M  END
$$$$
