ILC.pdb
     RDKit          3D

 23 22  0  0  1  0  0  0  0  0999 V2000
    8.0691  -19.2237   18.9911 C   0  0  0  0  0  0  0  0  0  0  0  0
    8.0614  -17.7231   19.0983 C   0  0  0  0  0  0  0  0  0  0  0  0
    8.3225  -17.2710   20.5090 C   0  0  2  0  0  0  0  0  0  0  0  0
    7.3410  -17.9590   21.4477 C   0  0  0  0  0  0  0  0  0  0  0  0
    8.2958  -15.7752   20.7042 C   0  0  2  0  0  0  0  0  0  0  0  0
    9.4267  -15.2711   19.8752 N   0  0  0  0  0  0  0  0  0  0  0  0
    8.6323  -15.3348   22.0762 C   0  0  0  0  0  0  0  0  0  0  0  0
    9.8384  -15.3943   22.5152 O   0  0  0  0  0  0  0  0  0  0  0  0
    8.3625  -12.4024   26.5163 C   0  0  0  0  0  0  0  0  0  0  0  0
    7.1363  -13.2856   26.3485 C   0  0  1  0  0  0  0  0  0  0  0  0
    5.9150  -12.6371   26.9466 C   0  0  0  0  0  0  0  0  0  0  0  0
    6.9030  -13.6165   24.8904 C   0  0  0  0  0  0  0  0  0  0  0  0
    8.0551  -14.3904   24.3404 C   0  0  2  0  0  0  0  0  0  0  0  0
    7.7075  -14.8273   22.9966 N   0  0  0  0  0  0  0  0  0  0  0  0
    8.3823  -15.5909   25.1408 C   0  0  0  0  0  0  0  0  0  0  0  0
    7.4695  -16.4048   25.3968 O   0  0  0  0  0  0  0  0  0  0  0  0
    9.6938  -15.8533   25.6289 N   0  0  0  0  0  0  0  0  0  0  0  0
    9.9876  -17.0824   26.3378 C   0  0  1  0  0  0  0  0  0  0  0  0
   11.3032  -17.6841   25.8328 C   0  0  0  0  0  0  0  0  0  0  0  0
   11.0431  -18.2585   24.1354 S   0  0  0  0  0  0  0  0  0  0  0  0
   10.1302  -16.7767   27.7955 C   0  0  0  0  0  0  0  0  0  0  0  0
   10.3872  -17.7924   28.7042 O   0  0  0  0  0  0  0  0  0  0  0  0
   10.0230  -15.6034   28.2395 O   0  0  0  0  0  0  0  0  0  0  0  0
  2  1  1  0
  2  3  1  0
  3  4  1  1
  5  3  1  0
  5  6  1  6
  7  5  1  0
  8  7  2  0
 10  9  1  6
 11 10  1  0
 12 10  1  0
 13 12  1  1
 13 14  1  0
 14  7  1  0
 15 17  1  0
 15 13  1  0
 16 15  2  0
 18 17  1  0
 18 21  1  0
 18 19  1  6
 20 19  1  0
 21 22  1  0
 23 21  2  0
M  END
$$$$
