ILC.pdb
     RDKit          3D

 23 22  0  0  1  0  0  0  0  0999 V2000
    8.2841  -22.1796   25.3426 C   0  0  0  0  0  0  0  0  0  0  0  0
    7.1866  -21.2505   24.9009 C   0  0  0  0  0  0  0  0  0  0  0  0
    7.6601  -19.8236   24.8519 C   0  0  2  0  0  0  0  0  0  0  0  0
    8.3142  -19.4646   26.1790 C   0  0  0  0  0  0  0  0  0  0  0  0
    6.5938  -18.8201   24.4883 C   0  0  2  0  0  0  0  0  0  0  0  0
    6.1836  -19.1967   23.1062 N   0  0  0  0  0  0  0  0  0  0  0  0
    7.0870  -17.4317   24.3505 C   0  0  0  0  0  0  0  0  0  0  0  0
    7.9247  -17.1133   23.4299 O   0  0  0  0  0  0  0  0  0  0  0  0
    6.8702  -12.1426   24.3273 C   0  0  0  0  0  0  0  0  0  0  0  0
    6.8610  -12.6781   25.7503 C   0  0  1  0  0  0  0  0  0  0  0  0
    6.0637  -11.7817   26.6618 C   0  0  0  0  0  0  0  0  0  0  0  0
    6.3249  -14.0926   25.7928 C   0  0  0  0  0  0  0  0  0  0  0  0
    7.2406  -15.0195   25.0641 C   0  0  2  0  0  0  0  0  0  0  0  0
    6.7038  -16.3674   25.1754 N   0  0  0  0  0  0  0  0  0  0  0  0
    8.6144  -15.0282   25.6134 C   0  0  0  0  0  0  0  0  0  0  0  0
    9.4442  -14.2120   25.1592 O   0  0  0  0  0  0  0  0  0  0  0  0
    9.0255  -15.9285   26.6369 N   0  0  0  0  0  0  0  0  0  0  0  0
   10.1700  -15.6264   27.4726 C   0  0  1  0  0  0  0  0  0  0  0  0
    9.8499  -14.4546   28.4064 C   0  0  0  0  0  0  0  0  0  0  0  0
   11.3751  -13.9854   29.2620 S   0  0  0  0  0  0  0  0  0  0  0  0
   10.4901  -16.8277   28.3053 C   0  0  0  0  0  0  0  0  0  0  0  0
    9.6723  -17.9472   28.2667 O   0  0  0  0  0  0  0  0  0  0  0  0
   11.4987  -16.8617   29.0582 O   0  0  0  0  0  0  0  0  0  0  0  0
  2  1  1  0
  2  3  1  0
  3  4  1  1
  5  3  1  0
  5  6  1  6
  7  5  1  0
  8  7  2  0
 10  9  1  6
 11 10  1  0
 12 10  1  0
 13 12  1  1
 13 14  1  0
 14  7  1  0
 15 17  1  0
 15 13  1  0
 16 15  2  0
 18 17  1  0
 18 21  1  0
 18 19  1  1
 20 19  1  0
 21 22  1  0
 23 21  2  0
M  END
$$$$
