ILC.pdb
     RDKit          3D

 23 22  0  0  1  0  0  0  0  0999 V2000
    9.6628  -21.6192   23.5195 C   0  0  0  0  0  0  0  0  0  0  0  0
    8.4604  -20.7621   23.2321 C   0  0  0  0  0  0  0  0  0  0  0  0
    8.7336  -19.3132   23.5298 C   0  0  2  0  0  0  0  0  0  0  0  0
    9.2833  -19.1850   24.9438 C   0  0  0  0  0  0  0  0  0  0  0  0
    7.5527  -18.3966   23.3261 C   0  0  2  0  0  0  0  0  0  0  0  0
    7.2459  -18.5020   21.8717 N   0  0  0  0  0  0  0  0  0  0  0  0
    7.8549  -16.9618   23.5259 C   0  0  0  0  0  0  0  0  0  0  0  0
    8.6718  -16.3416   22.7521 O   0  0  0  0  0  0  0  0  0  0  0  0
    7.3114  -11.8797   24.8179 C   0  0  0  0  0  0  0  0  0  0  0  0
    7.1111  -12.7536   26.0458 C   0  0  1  0  0  0  0  0  0  0  0  0
    6.1134  -12.1383   26.9924 C   0  0  0  0  0  0  0  0  0  0  0  0
    6.6800  -14.1497   25.6521 C   0  0  0  0  0  0  0  0  0  0  0  0
    7.7411  -14.8130   24.8379 C   0  0  2  0  0  0  0  0  0  0  0  0
    7.3014  -16.1671   24.5369 N   0  0  0  0  0  0  0  0  0  0  0  0
    9.0408  -14.9001   25.5394 C   0  0  0  0  0  0  0  0  0  0  0  0
    9.9416  -14.0914   25.2302 O   0  0  0  0  0  0  0  0  0  0  0  0
    9.3033  -15.8675   26.5505 N   0  0  0  0  0  0  0  0  0  0  0  0
   10.5552  -15.8547   27.2801 C   0  0  1  0  0  0  0  0  0  0  0  0
   10.3155  -15.4449   28.7369 C   0  0  0  0  0  0  0  0  0  0  0  0
   10.3183  -13.6361   28.8192 S   0  0  0  0  0  0  0  0  0  0  0  0
   11.1392  -17.2321   27.2608 C   0  0  0  0  0  0  0  0  0  0  0  0
   12.3387  -17.4954   27.9055 O   0  0  0  0  0  0  0  0  0  0  0  0
   10.5691  -18.1848   26.6670 O   0  0  0  0  0  0  0  0  0  0  0  0
  2  1  1  0
  2  3  1  0
  3  4  1  1
  5  3  1  0
  5  6  1  6
  7  5  1  0
  8  7  2  0
 10  9  1  6
 11 10  1  0
 12 10  1  0
 13 12  1  1
 13 14  1  0
 14  7  1  0
 15 17  1  0
 15 13  1  0
 16 15  2  0
 18 17  1  0
 18 21  1  0
 18 19  1  1
 20 19  1  0
 21 22  1  0
 23 21  2  0
M  END
$$$$
