ILC.pdb
     RDKit          3D

 23 22  0  0  1  0  0  0  0  0999 V2000
    7.8756  -11.7999   20.3828 C   0  0  0  0  0  0  0  0  0  0  0  0
    7.6024  -13.0834   21.1185 C   0  0  0  0  0  0  0  0  0  0  0  0
    8.4075  -14.2224   20.5555 C   0  0  2  0  0  0  0  0  0  0  0  0
    7.9562  -14.5005   19.1283 C   0  0  0  0  0  0  0  0  0  0  0  0
    8.3780  -15.4825   21.3847 C   0  0  2  0  0  0  0  0  0  0  0  0
    6.9435  -15.8853   21.3992 N   0  0  0  0  0  0  0  0  0  0  0  0
    8.7079  -15.2786   22.8127 C   0  0  0  0  0  0  0  0  0  0  0  0
    9.9122  -15.0333   23.1872 O   0  0  0  0  0  0  0  0  0  0  0  0
    5.7601  -12.4140   26.3546 C   0  0  0  0  0  0  0  0  0  0  0  0
    6.9555  -13.0739   25.6858 C   0  0  1  0  0  0  0  0  0  0  0  0
    8.2449  -12.4246   26.1169 C   0  0  0  0  0  0  0  0  0  0  0  0
    6.9853  -14.5592   25.9743 C   0  0  0  0  0  0  0  0  0  0  0  0
    8.1286  -15.2054   25.2644 C   0  0  2  0  0  0  0  0  0  0  0  0
    7.7775  -15.3285   23.8577 N   0  0  0  0  0  0  0  0  0  0  0  0
    8.4401  -16.5577   25.7775 C   0  0  0  0  0  0  0  0  0  0  0  0
    7.5053  -17.3761   25.9098 O   0  0  0  0  0  0  0  0  0  0  0  0
    9.7606  -16.9609   26.1252 N   0  0  0  0  0  0  0  0  0  0  0  0
   10.0247  -18.3066   26.5930 C   0  0  1  0  0  0  0  0  0  0  0  0
   10.8753  -19.0661   25.5697 C   0  0  0  0  0  0  0  0  0  0  0  0
   11.7368  -17.8495   24.5419 S   0  0  0  0  0  0  0  0  0  0  0  0
   10.7818  -18.2299   27.8813 C   0  0  0  0  0  0  0  0  0  0  0  0
   11.0277  -19.3773   28.6207 O   0  0  0  0  0  0  0  0  0  0  0  0
   11.2148  -17.1364   28.3308 O   0  0  0  0  0  0  0  0  0  0  0  0
  2  1  1  0
  2  3  1  0
  3  4  1  6
  5  3  1  0
  5  6  1  1
  7  5  1  0
  8  7  2  0
 10  9  1  1
 11 10  1  0
 12 10  1  0
 13 12  1  1
 13 14  1  0
 14  7  1  0
 15 17  1  0
 15 13  1  0
 16 15  2  0
 18 17  1  0
 18 21  1  0
 18 19  1  6
 20 19  1  0
 21 22  1  0
 23 21  2  0
M  END
$$$$
