ILC.pdb
     RDKit          3D

 23 22  0  0  1  0  0  0  0  0999 V2000
    9.5876  -13.2076   28.1214 C   0  0  0  0  0  0  0  0  0  0  0  0
    8.7041  -14.3368   27.6659 C   0  0  0  0  0  0  0  0  0  0  0  0
    7.9578  -13.9792   26.4098 C   0  0  2  0  0  0  0  0  0  0  0  0
    7.1123  -12.7386   26.6627 C   0  0  0  0  0  0  0  0  0  0  0  0
    7.1186  -15.0953   25.8386 C   0  0  2  0  0  0  0  0  0  0  0  0
    7.3359  -16.2386   26.7692 N   0  0  0  0  0  0  0  0  0  0  0  0
    7.5901  -15.6026   24.5308 C   0  0  0  0  0  0  0  0  0  0  0  0
    7.5472  -16.8557   24.2505 O   0  0  0  0  0  0  0  0  0  0  0  0
    7.5549  -12.1278   20.3831 C   0  0  0  0  0  0  0  0  0  0  0  0
    7.3736  -13.4537   21.1047 C   0  0  1  0  0  0  0  0  0  0  0  0
    6.3997  -14.3405   20.3732 C   0  0  0  0  0  0  0  0  0  0  0  0
    8.7011  -14.1572   21.2860 C   0  0  0  0  0  0  0  0  0  0  0  0
    8.5561  -15.3117   22.2213 C   0  0  2  0  0  0  0  0  0  0  0  0
    8.1077  -14.7996   23.5074 N   0  0  0  0  0  0  0  0  0  0  0  0
    9.8226  -16.0451   22.4381 C   0  0  0  0  0  0  0  0  0  0  0  0
   10.3824  -16.5739   21.4541 O   0  0  0  0  0  0  0  0  0  0  0  0
   10.4261  -16.1710   23.7215 N   0  0  0  0  0  0  0  0  0  0  0  0
   11.8391  -16.4650   23.8495 C   0  0  1  0  0  0  0  0  0  0  0  0
   12.6646  -15.1859   23.6759 C   0  0  0  0  0  0  0  0  0  0  0  0
   14.3969  -15.5841   24.0210 S   0  0  0  0  0  0  0  0  0  0  0  0
   12.0953  -17.0176   25.2162 C   0  0  0  0  0  0  0  0  0  0  0  0
   13.3389  -17.5385   25.5413 O   0  0  0  0  0  0  0  0  0  0  0  0
   11.2028  -17.0279   26.1042 O   0  0  0  0  0  0  0  0  0  0  0  0
  2  1  1  0
  2  3  1  0
  3  4  1  1
  5  3  1  0
  5  6  1  1
  7  5  1  0
  8  7  2  0
 10  9  1  6
 11 10  1  0
 12 10  1  0
 13 12  1  6
 13 14  1  0
 14  7  1  0
 15 17  1  0
 15 13  1  0
 16 15  2  0
 18 17  1  0
 18 21  1  0
 18 19  1  1
 20 19  1  0
 21 22  1  0
 23 21  2  0
M  END
$$$$
