ILC.pdb
     RDKit          3D

 23 22  0  0  1  0  0  0  0  0999 V2000
   11.8533  -15.5508   29.6931 C   0  0  0  0  0  0  0  0  0  0  0  0
   10.5104  -16.2096   29.5324 C   0  0  0  0  0  0  0  0  0  0  0  0
    9.9081  -15.9100   28.1870 C   0  0  2  0  0  0  0  0  0  0  0  0
    9.9053  -14.4044   27.9609 C   0  0  0  0  0  0  0  0  0  0  0  0
    8.5317  -16.4892   27.9721 C   0  0  2  0  0  0  0  0  0  0  0  0
    8.7359  -17.9643   28.0247 N   0  0  0  0  0  0  0  0  0  0  0  0
    7.9761  -16.2518   26.6213 C   0  0  0  0  0  0  0  0  0  0  0  0
    7.5785  -17.2277   25.8863 O   0  0  0  0  0  0  0  0  0  0  0  0
    6.9311  -11.2161   26.0345 C   0  0  0  0  0  0  0  0  0  0  0  0
    6.5774  -12.6944   25.9980 C   0  0  1  0  0  0  0  0  0  0  0  0
    5.1299  -12.9145   26.3536 C   0  0  0  0  0  0  0  0  0  0  0  0
    6.8894  -13.2923   24.6433 C   0  0  0  0  0  0  0  0  0  0  0  0
    7.1515  -14.7568   24.7675 C   0  0  2  0  0  0  0  0  0  0  0  0
    7.8317  -14.9898   26.0326 N   0  0  0  0  0  0  0  0  0  0  0  0
    8.0082  -15.2865   23.6838 C   0  0  0  0  0  0  0  0  0  0  0  0
    7.5536  -15.3091   22.5202 O   0  0  0  0  0  0  0  0  0  0  0  0
    9.3271  -15.7701   23.9158 N   0  0  0  0  0  0  0  0  0  0  0  0
   10.1208  -16.3062   22.8285 C   0  0  1  0  0  0  0  0  0  0  0  0
   10.5626  -15.1794   21.8890 C   0  0  0  0  0  0  0  0  0  0  0  0
   11.7287  -15.8727   20.6898 S   0  0  0  0  0  0  0  0  0  0  0  0
   11.3405  -16.9597   23.3978 C   0  0  0  0  0  0  0  0  0  0  0  0
   12.1805  -17.7072   22.5859 O   0  0  0  0  0  0  0  0  0  0  0  0
   11.6406  -16.8543   24.6161 O   0  0  0  0  0  0  0  0  0  0  0  0
  2  1  1  0
  2  3  1  0
  3  4  1  1
  5  3  1  0
  5  6  1  6
  7  5  1  0
  8  7  2  0
 10  9  1  6
 11 10  1  0
 12 10  1  0
 13 12  1  6
 13 14  1  0
 14  7  1  0
 15 17  1  0
 15 13  1  0
 16 15  2  0
 18 17  1  0
 18 21  1  0
 18 19  1  6
 20 19  1  0
 21 22  1  0
 23 21  2  0
M  END
$$$$
