ILC.pdb
     RDKit          3D

 23 22  0  0  1  0  0  0  0  0999 V2000
    7.4756  -18.8530   20.0366 C   0  0  0  0  0  0  0  0  0  0  0  0
    7.2252  -17.3789   20.2023 C   0  0  0  0  0  0  0  0  0  0  0  0
    7.7099  -16.8851   21.5379 C   0  0  2  0  0  0  0  0  0  0  0  0
    7.1887  -17.8047   22.6337 C   0  0  0  0  0  0  0  0  0  0  0  0
    7.3704  -15.4457   21.8363 C   0  0  2  0  0  0  0  0  0  0  0  0
    7.9621  -14.6807   20.7027 N   0  0  0  0  0  0  0  0  0  0  0  0
    8.0474  -14.8965   23.0321 C   0  0  0  0  0  0  0  0  0  0  0  0
    9.2887  -14.5666   22.9991 O   0  0  0  0  0  0  0  0  0  0  0  0
    5.6036  -11.5271   26.3569 C   0  0  0  0  0  0  0  0  0  0  0  0
    6.6859  -12.2466   25.5679 C   0  0  1  0  0  0  0  0  0  0  0  0
    7.8365  -11.3240   25.2600 C   0  0  0  0  0  0  0  0  0  0  0  0
    7.1712  -13.4733   26.3093 C   0  0  0  0  0  0  0  0  0  0  0  0
    8.1295  -14.2473   25.4659 C   0  0  2  0  0  0  0  0  0  0  0  0
    7.4274  -14.6876   24.2698 N   0  0  0  0  0  0  0  0  0  0  0  0
    8.6655  -15.4458   26.1481 C   0  0  0  0  0  0  0  0  0  0  0  0
    9.2850  -15.2942   27.2225 O   0  0  0  0  0  0  0  0  0  0  0  0
    8.5027  -16.7613   25.6284 N   0  0  0  0  0  0  0  0  0  0  0  0
    9.1876  -17.8860   26.2330 C   0  0  1  0  0  0  0  0  0  0  0  0
    8.1713  -18.8876   26.7913 C   0  0  0  0  0  0  0  0  0  0  0  0
    6.5749  -18.5691   25.9984 S   0  0  0  0  0  0  0  0  0  0  0  0
   10.0083  -18.5709   25.1860 C   0  0  0  0  0  0  0  0  0  0  0  0
   10.8118  -19.6512   25.5189 O   0  0  0  0  0  0  0  0  0  0  0  0
    9.9969  -18.1944   23.9845 O   0  0  0  0  0  0  0  0  0  0  0  0
  2  1  1  0
  2  3  1  0
  3  4  1  1
  5  3  1  0
  5  6  1  6
  7  5  1  0
  8  7  2  0
 10  9  1  1
 11 10  1  0
 12 10  1  0
 13 12  1  1
 13 14  1  0
 14  7  1  0
 15 17  1  0
 15 13  1  0
 16 15  2  0
 18 17  1  0
 18 21  1  0
 18 19  1  6
 20 19  1  0
 21 22  1  0
 23 21  2  0
M  END
$$$$
