ILC.pdb
     RDKit          3D

 23 22  0  0  1  0  0  0  0  0999 V2000
    8.3798  -11.7658   20.1968 C   0  0  0  0  0  0  0  0  0  0  0  0
    7.9035  -12.9494   20.9938 C   0  0  0  0  0  0  0  0  0  0  0  0
    8.3720  -14.2445   20.3890 C   0  0  2  0  0  0  0  0  0  0  0  0
    7.7567  -14.4055   19.0057 C   0  0  0  0  0  0  0  0  0  0  0  0
    8.1134  -15.4642   21.2385 C   0  0  2  0  0  0  0  0  0  0  0  0
    6.6282  -15.5567   21.3151 N   0  0  0  0  0  0  0  0  0  0  0  0
    8.5374  -15.3238   22.6493 C   0  0  0  0  0  0  0  0  0  0  0  0
    9.7816  -15.2931   22.9684 O   0  0  0  0  0  0  0  0  0  0  0  0
    5.6751  -12.3888   26.3806 C   0  0  0  0  0  0  0  0  0  0  0  0
    6.8644  -12.9865   25.6457 C   0  0  1  0  0  0  0  0  0  0  0  0
    8.1459  -12.2981   26.0377 C   0  0  0  0  0  0  0  0  0  0  0  0
    6.9623  -14.4758   25.8957 C   0  0  0  0  0  0  0  0  0  0  0  0
    8.0924  -15.0622   25.1161 C   0  0  2  0  0  0  0  0  0  0  0  0
    7.6603  -15.2125   23.7348 N   0  0  0  0  0  0  0  0  0  0  0  0
    8.5099  -16.3924   25.6114 C   0  0  0  0  0  0  0  0  0  0  0  0
    7.6333  -17.2641   25.7929 O   0  0  0  0  0  0  0  0  0  0  0  0
    9.8685  -16.7161   25.8881 N   0  0  0  0  0  0  0  0  0  0  0  0
   10.2361  -18.0430   26.3396 C   0  0  1  0  0  0  0  0  0  0  0  0
   11.5546  -18.4772   25.6909 C   0  0  0  0  0  0  0  0  0  0  0  0
   12.0579  -20.0477   26.4385 S   0  0  0  0  0  0  0  0  0  0  0  0
   10.4205  -18.0138   27.8242 C   0  0  0  0  0  0  0  0  0  0  0  0
   10.5602  -16.8057   28.4909 O   0  0  0  0  0  0  0  0  0  0  0  0
   10.4545  -19.0705   28.5080 O   0  0  0  0  0  0  0  0  0  0  0  0
  2  1  1  0
  2  3  1  0
  3  4  1  6
  5  3  1  0
  5  6  1  1
  7  5  1  0
  8  7  2  0
 10  9  1  1
 11 10  1  0
 12 10  1  0
 13 12  1  1
 13 14  1  0
 14  7  1  0
 15 17  1  0
 15 13  1  0
 16 15  2  0
 18 17  1  0
 18 21  1  0
 18 19  1  6
 20 19  1  0
 21 22  1  0
 23 21  2  0
M  END
$$$$
