ILC.pdb
     RDKit          3D

 23 22  0  0  1  0  0  0  0  0999 V2000
   11.2207  -20.0350   27.5739 C   0  0  0  0  0  0  0  0  0  0  0  0
   10.1253  -19.1315   28.0708 C   0  0  0  0  0  0  0  0  0  0  0  0
    9.4391  -18.4227   26.9353 C   0  0  2  0  0  0  0  0  0  0  0  0
   10.4839  -17.7389   26.0642 C   0  0  0  0  0  0  0  0  0  0  0  0
    8.3693  -17.4469   27.3590 C   0  0  2  0  0  0  0  0  0  0  0  0
    7.3130  -18.2973   27.9766 N   0  0  0  0  0  0  0  0  0  0  0  0
    7.6785  -16.7762   26.2353 C   0  0  0  0  0  0  0  0  0  0  0  0
    6.8171  -17.4027   25.5169 O   0  0  0  0  0  0  0  0  0  0  0  0
    7.5795  -11.6827   26.8729 C   0  0  0  0  0  0  0  0  0  0  0  0
    6.9681  -13.0192   26.4833 C   0  0  1  0  0  0  0  0  0  0  0  0
    5.4958  -13.0552   26.8012 C   0  0  0  0  0  0  0  0  0  0  0  0
    7.2034  -13.3154   25.0181 C   0  0  0  0  0  0  0  0  0  0  0  0
    7.1724  -14.7876   24.7721 C   0  0  2  0  0  0  0  0  0  0  0  0
    7.8844  -15.4437   25.8584 N   0  0  0  0  0  0  0  0  0  0  0  0
    7.8205  -15.1768   23.5003 C   0  0  0  0  0  0  0  0  0  0  0  0
    7.2124  -14.9624   22.4301 O   0  0  0  0  0  0  0  0  0  0  0  0
    9.1071  -15.7847   23.4497 N   0  0  0  0  0  0  0  0  0  0  0  0
    9.6832  -16.1938   22.1847 C   0  0  1  0  0  0  0  0  0  0  0  0
    9.9083  -14.9738   21.2855 C   0  0  0  0  0  0  0  0  0  0  0  0
    8.4960  -14.8367   20.1608 S   0  0  0  0  0  0  0  0  0  0  0  0
   11.0042  -16.8465   22.4446 C   0  0  0  0  0  0  0  0  0  0  0  0
   11.7530  -17.3586   21.3954 O   0  0  0  0  0  0  0  0  0  0  0  0
   11.4736  -16.9511   23.6082 O   0  0  0  0  0  0  0  0  0  0  0  0
  2  1  1  0
  2  3  1  0
  3  4  1  1
  5  3  1  0
  5  6  1  6
  7  5  1  0
  8  7  2  0
 10  9  1  6
 11 10  1  0
 12 10  1  0
 13 12  1  1
 13 14  1  0
 14  7  1  0
 15 17  1  0
 15 13  1  0
 16 15  2  0
 18 17  1  0
 18 21  1  0
 18 19  1  6
 20 19  1  0
 21 22  1  0
 23 21  2  0
M  END
$$$$
