ILC.pdb
     RDKit          3D

 23 22  0  0  1  0  0  0  0  0999 V2000
   10.2205  -22.2797   19.2185 C   0  0  0  0  0  0  0  0  0  0  0  0
    9.3083  -21.1304   18.8863 C   0  0  0  0  0  0  0  0  0  0  0  0
    9.7572  -19.8604   19.5558 C   0  0  2  0  0  0  0  0  0  0  0  0
    9.9508  -20.1174   21.0439 C   0  0  0  0  0  0  0  0  0  0  0  0
    8.8510  -18.6760   19.3275 C   0  0  2  0  0  0  0  0  0  0  0  0
    8.7989  -18.5270   17.8458 N   0  0  0  0  0  0  0  0  0  0  0  0
    9.4046  -17.3870   19.7985 C   0  0  0  0  0  0  0  0  0  0  0  0
   10.5304  -16.9489   19.3614 O   0  0  0  0  0  0  0  0  0  0  0  0
    7.7394  -14.1492   19.0919 C   0  0  0  0  0  0  0  0  0  0  0  0
    8.0596  -13.3997   20.3754 C   0  0  1  0  0  0  0  0  0  0  0  0
    6.9840  -12.3957   20.6998 C   0  0  0  0  0  0  0  0  0  0  0  0
    8.2562  -14.3600   21.5283 C   0  0  0  0  0  0  0  0  0  0  0  0
    9.3660  -15.3129   21.2297 C   0  0  2  0  0  0  0  0  0  0  0  0
    8.7808  -16.5477   20.7294 N   0  0  0  0  0  0  0  0  0  0  0  0
   10.1824  -15.6432   22.4186 C   0  0  0  0  0  0  0  0  0  0  0  0
   10.7864  -14.7191   23.0037 O   0  0  0  0  0  0  0  0  0  0  0  0
   10.3055  -16.9701   22.9199 N   0  0  0  0  0  0  0  0  0  0  0  0
   11.0771  -17.2409   24.1161 C   0  0  1  0  0  0  0  0  0  0  0  0
   10.3933  -16.6215   25.3394 C   0  0  0  0  0  0  0  0  0  0  0  0
   11.2987  -17.1490   26.8161 S   0  0  0  0  0  0  0  0  0  0  0  0
   11.1589  -18.7219   24.3128 C   0  0  0  0  0  0  0  0  0  0  0  0
   12.3625  -19.3192   24.6570 O   0  0  0  0  0  0  0  0  0  0  0  0
   10.1519  -19.4648   24.1744 O   0  0  0  0  0  0  0  0  0  0  0  0
  2  1  1  0
  2  3  1  0
  3  4  1  1
  5  3  1  0
  5  6  1  6
  7  5  1  0
  8  7  2  0
 10  9  1  6
 11 10  1  0
 12 10  1  0
 13 12  1  1
 13 14  1  0
 14  7  1  0
 15 17  1  0
 15 13  1  0
 16 15  2  0
 18 17  1  0
 18 21  1  0
 18 19  1  1
 20 19  1  0
 21 22  1  0
 23 21  2  0
M  END
$$$$
