CVV.pdb
     RDKit          3D

 21 20  0  0  1  0  0  0  0  0999 V2000
    7.2503  -15.0732   20.7298 N   0  0  0  0  0  0  0  0  0  0  0  0
    6.8156  -15.5146   22.0349 C   0  0  1  0  0  0  0  0  0  0  0  0
    6.7760  -17.0279   22.1148 C   0  0  0  0  0  0  0  0  0  0  0  0
    6.2520  -17.5861   23.7562 S   0  0  0  0  0  0  0  0  0  0  0  0
    7.5968  -14.9172   23.1236 C   0  0  0  0  0  0  0  0  0  0  0  0
    8.8482  -14.8085   23.0776 O   0  0  0  0  0  0  0  0  0  0  0  0
    6.3618  -11.8690   25.6662 C   0  0  0  0  0  0  0  0  0  0  0  0
    6.9617  -13.0455   26.3599 C   0  0  2  0  0  0  0  0  0  0  0  0
    7.8504  -12.6341   27.5279 C   0  0  0  0  0  0  0  0  0  0  0  0
    7.7696  -13.9361   25.4438 C   0  0  2  0  0  0  0  0  0  0  0  0
    6.9794  -14.4121   24.3258 N   0  0  0  0  0  0  0  0  0  0  0  0
    8.3155  -15.0859   26.2378 C   0  0  0  0  0  0  0  0  0  0  0  0
    7.5174  -15.9121   26.7488 O   0  0  0  0  0  0  0  0  0  0  0  0
   11.6309  -17.1800   25.1753 C   0  0  0  0  0  0  0  0  0  0  0  0
   11.6519  -16.7567   26.6314 C   0  0  2  0  0  0  0  0  0  0  0  0
   12.1249  -17.9717   27.4222 C   0  0  0  0  0  0  0  0  0  0  0  0
   10.2596  -16.4277   27.1344 C   0  0  2  0  0  0  0  0  0  0  0  0
    9.6964  -15.2896   26.4427 N   0  0  0  0  0  0  0  0  0  0  0  0
   10.3849  -16.0954   28.5692 C   0  0  0  0  0  0  0  0  0  0  0  0
   10.5044  -17.0666   29.5563 O   0  0  0  0  0  0  0  0  0  0  0  0
   10.3841  -14.8918   28.9175 O   0  0  0  0  0  0  0  0  0  0  0  0
  2  1  1  6
  2  3  1  0
  4  3  1  0
  5 11  1  0
  5  2  1  0
  6  5  2  0
  8  7  1  6
  8 10  1  0
  9  8  1  0
 10 11  1  6
 10 12  1  0
 12 18  1  0
 13 12  2  0
 15 14  1  6
 15 16  1  0
 17 19  1  0
 17 15  1  0
 17 18  1  6
 19 20  1  0
 21 19  2  0
M  END
$$$$
