CVV.pdb
     RDKit          3D

 21 20  0  0  1  0  0  0  0  0999 V2000
    8.3992  -14.7759   18.3520 N   0  0  0  0  0  0  0  0  0  0  0  0
    9.0915  -14.5913   19.6066 C   0  0  1  0  0  0  0  0  0  0  0  0
    9.7687  -13.2362   19.6627 C   0  0  0  0  0  0  0  0  0  0  0  0
   11.2710  -13.2097   18.6515 S   0  0  0  0  0  0  0  0  0  0  0  0
    8.2306  -14.8350   20.7693 C   0  0  0  0  0  0  0  0  0  0  0  0
    7.0263  -14.4769   20.8062 O   0  0  0  0  0  0  0  0  0  0  0  0
    7.0321  -17.9191   22.1534 C   0  0  0  0  0  0  0  0  0  0  0  0
    7.6204  -17.2153   23.3297 C   0  0  2  0  0  0  0  0  0  0  0  0
    6.7648  -17.3715   24.5816 C   0  0  0  0  0  0  0  0  0  0  0  0
    7.8479  -15.7394   23.0955 C   0  0  2  0  0  0  0  0  0  0  0  0
    8.7097  -15.5048   21.9539 N   0  0  0  0  0  0  0  0  0  0  0  0
    8.4317  -15.1324   24.3370 C   0  0  0  0  0  0  0  0  0  0  0  0
    9.6351  -15.3581   24.6225 O   0  0  0  0  0  0  0  0  0  0  0  0
    5.9132  -13.1443   27.1686 C   0  0  0  0  0  0  0  0  0  0  0  0
    7.3029  -12.5918   26.9165 C   0  0  2  0  0  0  0  0  0  0  0  0
    7.1542  -11.5503   25.8127 C   0  0  0  0  0  0  0  0  0  0  0  0
    8.2366  -13.6602   26.3810 C   0  0  2  0  0  0  0  0  0  0  0  0
    7.6895  -14.3110   25.2115 N   0  0  0  0  0  0  0  0  0  0  0  0
    8.4004  -14.6674   27.4503 C   0  0  0  0  0  0  0  0  0  0  0  0
    7.8873  -15.9555   27.3523 O   0  0  0  0  0  0  0  0  0  0  0  0
    9.0258  -14.3551   28.4901 O   0  0  0  0  0  0  0  0  0  0  0  0
  2  1  1  6
  2  3  1  0
  4  3  1  0
  5 11  1  0
  5  2  1  0
  6  5  2  0
  8  7  1  6
  8 10  1  0
  9  8  1  0
 10 11  1  6
 10 12  1  0
 12 18  1  0
 13 12  2  0
 15 14  1  6
 15 16  1  0
 17 19  1  0
 17 15  1  0
 17 18  1  6
 19 20  1  0
 21 19  2  0
M  END
$$$$
