CVV.pdb
     RDKit          3D

 21 20  0  0  1  0  0  0  0  0999 V2000
    7.8542  -14.5254   20.0834 N   0  0  0  0  0  0  0  0  0  0  0  0
    7.3099  -15.0150   21.3289 C   0  0  1  0  0  0  0  0  0  0  0  0
    7.2942  -16.5305   21.3600 C   0  0  0  0  0  0  0  0  0  0  0  0
    6.2815  -17.1495   22.7281 S   0  0  0  0  0  0  0  0  0  0  0  0
    7.9748  -14.4382   22.5026 C   0  0  0  0  0  0  0  0  0  0  0  0
    9.2142  -14.2335   22.5456 O   0  0  0  0  0  0  0  0  0  0  0  0
    7.7281  -12.1504   26.9209 C   0  0  0  0  0  0  0  0  0  0  0  0
    7.0252  -12.7693   25.7598 C   0  0  2  0  0  0  0  0  0  0  0  0
    5.8471  -13.6338   26.1938 C   0  0  0  0  0  0  0  0  0  0  0  0
    7.9298  -13.6090   24.8872 C   0  0  2  0  0  0  0  0  0  0  0  0
    7.2483  -14.0654   23.6921 N   0  0  0  0  0  0  0  0  0  0  0  0
    8.4378  -14.7719   25.6874 C   0  0  0  0  0  0  0  0  0  0  0  0
    7.7134  -15.7915   25.8151 O   0  0  0  0  0  0  0  0  0  0  0  0
   12.3768  -16.8981   27.9637 C   0  0  0  0  0  0  0  0  0  0  0  0
   11.7754  -15.7167   27.2271 C   0  0  2  0  0  0  0  0  0  0  0  0
   11.8335  -14.5376   28.1923 C   0  0  0  0  0  0  0  0  0  0  0  0
   10.3100  -15.9465   26.9117 C   0  0  2  0  0  0  0  0  0  0  0  0
    9.7029  -14.7793   26.3116 N   0  0  0  0  0  0  0  0  0  0  0  0
    9.6301  -16.2276   28.1937 C   0  0  0  0  0  0  0  0  0  0  0  0
    9.6314  -17.4865   28.7830 O   0  0  0  0  0  0  0  0  0  0  0  0
    9.0260  -15.2989   28.7788 O   0  0  0  0  0  0  0  0  0  0  0  0
  2  1  1  6
  2  3  1  0
  4  3  1  0
  5 11  1  0
  5  2  1  0
  6  5  2  0
  8  7  1  1
  8 10  1  0
  9  8  1  0
 10 11  1  6
 10 12  1  0
 12 18  1  0
 13 12  2  0
 15 14  1  1
 15 16  1  0
 17 19  1  0
 17 15  1  0
 17 18  1  1
 19 20  1  0
 21 19  2  0
M  END
$$$$
