CVV.pdb
     RDKit          3D

 21 20  0  0  1  0  0  0  0  0999 V2000
    7.1019  -16.1080   21.0709 N   0  0  0  0  0  0  0  0  0  0  0  0
    6.6607  -16.3676   22.4219 C   0  0  1  0  0  0  0  0  0  0  0  0
    6.5765  -17.8568   22.6925 C   0  0  0  0  0  0  0  0  0  0  0  0
    6.0028  -18.1872   24.3783 S   0  0  0  0  0  0  0  0  0  0  0  0
    7.4648  -15.6613   23.4254 C   0  0  0  0  0  0  0  0  0  0  0  0
    8.7187  -15.5983   23.3653 O   0  0  0  0  0  0  0  0  0  0  0  0
    6.0938  -12.3890   25.6089 C   0  0  0  0  0  0  0  0  0  0  0  0
    6.8584  -13.3884   26.4099 C   0  0  2  0  0  0  0  0  0  0  0  0
    7.7893  -12.7269   27.4196 C   0  0  0  0  0  0  0  0  0  0  0  0
    7.6776  -14.3367   25.5645 C   0  0  2  0  0  0  0  0  0  0  0  0
    6.8685  -14.9884   24.5538 N   0  0  0  0  0  0  0  0  0  0  0  0
    8.3294  -15.3493   26.4592 C   0  0  0  0  0  0  0  0  0  0  0  0
    7.6079  -16.1459   27.1116 O   0  0  0  0  0  0  0  0  0  0  0  0
   12.5186  -15.1118   27.4240 C   0  0  0  0  0  0  0  0  0  0  0  0
   11.8845  -16.4687   27.1856 C   0  0  2  0  0  0  0  0  0  0  0  0
   12.0685  -16.7710   25.7024 C   0  0  0  0  0  0  0  0  0  0  0  0
   10.3897  -16.4354   27.4388 C   0  0  2  0  0  0  0  0  0  0  0  0
    9.7285  -15.4542   26.6075 N   0  0  0  0  0  0  0  0  0  0  0  0
   10.1988  -16.0612   28.8560 C   0  0  0  0  0  0  0  0  0  0  0  0
   10.3658  -16.9644   29.8991 O   0  0  0  0  0  0  0  0  0  0  0  0
    9.8733  -14.8842   29.1362 O   0  0  0  0  0  0  0  0  0  0  0  0
  2  1  1  6
  2  3  1  0
  4  3  1  0
  5 11  1  0
  5  2  1  0
  6  5  2  0
  8  7  1  6
  8 10  1  0
  9  8  1  0
 10 11  1  6
 10 12  1  0
 12 18  1  0
 13 12  2  0
 15 14  1  6
 15 16  1  0
 17 19  1  0
 17 15  1  0
 17 18  1  6
 19 20  1  0
 21 19  2  0
M  END
$$$$
