CVV.pdb
     RDKit          3D

 21 20  0  0  1  0  0  0  0  0999 V2000
    8.2204  -15.1485   20.6130 N   0  0  0  0  0  0  0  0  0  0  0  0
    7.3660  -15.2398   21.7744 C   0  0  1  0  0  0  0  0  0  0  0  0
    6.8043  -16.6391   21.9309 C   0  0  0  0  0  0  0  0  0  0  0  0
    8.1202  -17.8452   22.2374 S   0  0  0  0  0  0  0  0  0  0  0  0
    8.0195  -14.7595   22.9969 C   0  0  0  0  0  0  0  0  0  0  0  0
    9.2691  -14.6863   23.1121 O   0  0  0  0  0  0  0  0  0  0  0  0
    6.4886  -11.8547   25.4902 C   0  0  0  0  0  0  0  0  0  0  0  0
    7.0271  -13.0394   26.2194 C   0  0  2  0  0  0  0  0  0  0  0  0
    7.7931  -12.6430   27.4763 C   0  0  0  0  0  0  0  0  0  0  0  0
    7.9286  -13.9082   25.3724 C   0  0  2  0  0  0  0  0  0  0  0  0
    7.2695  -14.3368   24.1547 N   0  0  0  0  0  0  0  0  0  0  0  0
    8.3697  -15.0905   26.1836 C   0  0  0  0  0  0  0  0  0  0  0  0
    7.5268  -15.9704   26.4938 O   0  0  0  0  0  0  0  0  0  0  0  0
   11.6174  -17.1974   25.3376 C   0  0  0  0  0  0  0  0  0  0  0  0
   11.5957  -16.8106   26.8038 C   0  0  2  0  0  0  0  0  0  0  0  0
   12.0147  -18.0547   27.5795 C   0  0  0  0  0  0  0  0  0  0  0  0
   10.1936  -16.4637   27.2660 C   0  0  2  0  0  0  0  0  0  0  0  0
    9.6990  -15.2674   26.6217 N   0  0  0  0  0  0  0  0  0  0  0  0
   10.2652  -16.2220   28.7224 C   0  0  0  0  0  0  0  0  0  0  0  0
   10.1991  -14.9485   29.2755 O   0  0  0  0  0  0  0  0  0  0  0  0
   10.3906  -17.1995   29.4962 O   0  0  0  0  0  0  0  0  0  0  0  0
  2  1  1  6
  2  3  1  0
  4  3  1  0
  5 11  1  0
  5  2  1  0
  6  5  2  0
  8  7  1  6
  8 10  1  0
  9  8  1  0
 10 11  1  6
 10 12  1  0
 12 18  1  0
 13 12  2  0
 15 14  1  6
 15 16  1  0
 17 19  1  0
 17 15  1  0
 17 18  1  6
 19 20  1  0
 21 19  2  0
M  END
$$$$
