CVV.pdb
     RDKit          3D

 21 20  0  0  1  0  0  0  0  0999 V2000
    7.5963  -17.2917   18.4961 N   0  0  0  0  0  0  0  0  0  0  0  0
    8.1315  -16.3804   19.4811 C   0  0  1  0  0  0  0  0  0  0  0  0
    8.1981  -14.9665   18.9383 C   0  0  0  0  0  0  0  0  0  0  0  0
    8.7566  -13.8009   20.2070 S   0  0  0  0  0  0  0  0  0  0  0  0
    7.4238  -16.4543   20.7641 C   0  0  0  0  0  0  0  0  0  0  0  0
    6.1785  -16.3122   20.8590 O   0  0  0  0  0  0  0  0  0  0  0  0
    6.7597  -19.1255   23.0904 C   0  0  0  0  0  0  0  0  0  0  0  0
    7.4287  -18.0774   23.9144 C   0  0  2  0  0  0  0  0  0  0  0  0
    6.8184  -17.9625   25.3065 C   0  0  0  0  0  0  0  0  0  0  0  0
    7.4085  -16.7071   23.2764 C   0  0  2  0  0  0  0  0  0  0  0  0
    8.1117  -16.6959   22.0090 N   0  0  0  0  0  0  0  0  0  0  0  0
    8.0110  -15.7166   24.2285 C   0  0  0  0  0  0  0  0  0  0  0  0
    9.2621  -15.6484   24.3322 O   0  0  0  0  0  0  0  0  0  0  0  0
    5.9708  -12.1864   25.4259 C   0  0  0  0  0  0  0  0  0  0  0  0
    6.6988  -12.9669   26.5033 C   0  0  2  0  0  0  0  0  0  0  0  0
    7.4034  -11.9339   27.3760 C   0  0  0  0  0  0  0  0  0  0  0  0
    7.7831  -13.8482   25.9140 C   0  0  2  0  0  0  0  0  0  0  0  0
    7.2350  -14.8467   25.0232 N   0  0  0  0  0  0  0  0  0  0  0  0
    8.4453  -14.5337   27.0437 C   0  0  0  0  0  0  0  0  0  0  0  0
    9.6419  -14.0889   27.5935 O   0  0  0  0  0  0  0  0  0  0  0  0
    7.9127  -15.5579   27.5309 O   0  0  0  0  0  0  0  0  0  0  0  0
  2  1  1  6
  2  3  1  0
  4  3  1  0
  5 11  1  0
  5  2  1  0
  6  5  2  0
  8  7  1  6
  8 10  1  0
  9  8  1  0
 10 11  1  6
 10 12  1  0
 12 18  1  0
 13 12  2  0
 15 14  1  6
 15 16  1  0
 17 19  1  0
 17 15  1  0
 17 18  1  6
 19 20  1  0
 21 19  2  0
M  END
$$$$
