CVV.pdb
     RDKit          3D

 21 20  0  0  1  0  0  0  0  0999 V2000
    6.9678  -19.5070   22.6163 N   0  0  0  0  0  0  0  0  0  0  0  0
    6.4222  -18.2268   23.0042 C   0  0  1  0  0  0  0  0  0  0  0  0
    5.9312  -18.2538   24.4381 C   0  0  0  0  0  0  0  0  0  0  0  0
    7.2221  -18.8422   25.5640 S   0  0  0  0  0  0  0  0  0  0  0  0
    7.3475  -17.1170   22.7506 C   0  0  0  0  0  0  0  0  0  0  0  0
    8.5925  -17.2763   22.6826 O   0  0  0  0  0  0  0  0  0  0  0  0
    6.6645  -14.0163   20.1193 C   0  0  0  0  0  0  0  0  0  0  0  0
    7.1350  -13.5830   21.4670 C   0  0  2  0  0  0  0  0  0  0  0  0
    8.0931  -12.4000   21.3897 C   0  0  0  0  0  0  0  0  0  0  0  0
    7.8093  -14.6852   22.2515 C   0  0  2  0  0  0  0  0  0  0  0  0
    6.8897  -15.7619   22.5614 N   0  0  0  0  0  0  0  0  0  0  0  0
    8.3919  -14.1049   23.5063 C   0  0  0  0  0  0  0  0  0  0  0  0
    9.4495  -13.4288   23.4357 O   0  0  0  0  0  0  0  0  0  0  0  0
    6.0181  -13.5623   26.8311 C   0  0  0  0  0  0  0  0  0  0  0  0
    7.3960  -12.9306   26.7821 C   0  0  2  0  0  0  0  0  0  0  0  0
    7.2440  -11.6361   25.9906 C   0  0  0  0  0  0  0  0  0  0  0  0
    8.3765  -13.7955   26.0138 C   0  0  2  0  0  0  0  0  0  0  0  0
    7.8058  -14.2815   24.7774 N   0  0  0  0  0  0  0  0  0  0  0  0
    8.6986  -14.9536   26.8741 C   0  0  0  0  0  0  0  0  0  0  0  0
    9.3915  -14.8279   28.0724 O   0  0  0  0  0  0  0  0  0  0  0  0
    8.3356  -16.0979   26.5154 O   0  0  0  0  0  0  0  0  0  0  0  0
  2  1  1  1
  2  3  1  0
  4  3  1  0
  5 11  1  0
  5  2  1  0
  6  5  2  0
  8  7  1  6
  8 10  1  0
  9  8  1  0
 10 11  1  1
 10 12  1  0
 12 18  1  0
 13 12  2  0
 15 14  1  6
 15 16  1  0
 17 19  1  0
 17 15  1  0
 17 18  1  6
 19 20  1  0
 21 19  2  0
M  END
$$$$
