CVV.pdb
     RDKit          3D

 21 20  0  0  1  0  0  0  0  0999 V2000
    9.2390  -17.5316   16.3308 N   0  0  0  0  0  0  0  0  0  0  0  0
    8.3131  -17.4941   17.4392 C   0  0  1  0  0  0  0  0  0  0  0  0
    7.9766  -18.8926   17.9176 C   0  0  0  0  0  0  0  0  0  0  0  0
    6.7880  -18.8519   19.2835 S   0  0  0  0  0  0  0  0  0  0  0  0
    8.7701  -16.6249   18.5291 C   0  0  0  0  0  0  0  0  0  0  0  0
    9.9652  -16.5985   18.9177 O   0  0  0  0  0  0  0  0  0  0  0  0
    7.6239  -12.7397   19.4893 C   0  0  0  0  0  0  0  0  0  0  0  0
    7.4742  -13.7368   20.5886 C   0  0  2  0  0  0  0  0  0  0  0  0
    7.8174  -13.1472   21.9518 C   0  0  0  0  0  0  0  0  0  0  0  0
    8.3091  -14.9812   20.3897 C   0  0  2  0  0  0  0  0  0  0  0  0
    7.8753  -15.7378   19.2320 N   0  0  0  0  0  0  0  0  0  0  0  0
    8.2382  -15.8202   21.6313 C   0  0  0  0  0  0  0  0  0  0  0  0
    7.1266  -16.2778   21.9995 O   0  0  0  0  0  0  0  0  0  0  0  0
   10.7440  -18.3147   25.1906 C   0  0  0  0  0  0  0  0  0  0  0  0
   10.7578  -17.4411   23.9510 C   0  0  2  0  0  0  0  0  0  0  0  0
   11.5062  -16.1689   24.3338 C   0  0  0  0  0  0  0  0  0  0  0  0
    9.3567  -17.0169   23.5549 C   0  0  2  0  0  0  0  0  0  0  0  0
    9.3698  -16.1256   22.4164 N   0  0  0  0  0  0  0  0  0  0  0  0
    8.7783  -16.3000   24.7110 C   0  0  0  0  0  0  0  0  0  0  0  0
    8.0925  -16.9504   25.7301 O   0  0  0  0  0  0  0  0  0  0  0  0
    8.9074  -15.0558   24.7822 O   0  0  0  0  0  0  0  0  0  0  0  0
  2  1  1  6
  2  3  1  0
  4  3  1  0
  5 11  1  0
  5  2  1  0
  6  5  2  0
  8  7  1  6
  8 10  1  0
  9  8  1  0
 10 11  1  6
 10 12  1  0
 12 18  1  0
 13 12  2  0
 15 14  1  1
 15 16  1  0
 17 19  1  0
 17 15  1  0
 17 18  1  6
 19 20  1  0
 21 19  2  0
M  END
$$$$
