CVV.pdb
     RDKit          3D

 21 20  0  0  1  0  0  0  0  0999 V2000
    8.4975  -15.2950   20.7112 N   0  0  0  0  0  0  0  0  0  0  0  0
    7.7072  -15.6009   21.8812 C   0  0  1  0  0  0  0  0  0  0  0  0
    7.4910  -17.0950   22.0192 C   0  0  0  0  0  0  0  0  0  0  0  0
    6.4254  -17.7297   20.6993 S   0  0  0  0  0  0  0  0  0  0  0  0
    8.2501  -14.9991   23.1041 C   0  0  0  0  0  0  0  0  0  0  0  0
    9.4846  -14.9028   23.3203 O   0  0  0  0  0  0  0  0  0  0  0  0
    6.4297  -11.9600   25.2040 C   0  0  0  0  0  0  0  0  0  0  0  0
    6.9700  -13.0373   26.0831 C   0  0  2  0  0  0  0  0  0  0  0  0
    7.6503  -12.4784   27.3274 C   0  0  0  0  0  0  0  0  0  0  0  0
    7.9481  -13.9518   25.3818 C   0  0  2  0  0  0  0  0  0  0  0  0
    7.4007  -14.4747   24.1457 N   0  0  0  0  0  0  0  0  0  0  0  0
    8.3255  -15.0675   26.3110 C   0  0  0  0  0  0  0  0  0  0  0  0
    7.4425  -15.8822   26.6815 O   0  0  0  0  0  0  0  0  0  0  0  0
   12.4596  -15.9082   27.1520 C   0  0  0  0  0  0  0  0  0  0  0  0
   11.3571  -16.9474   27.2171 C   0  0  2  0  0  0  0  0  0  0  0  0
   11.1476  -17.4374   25.7884 C   0  0  0  0  0  0  0  0  0  0  0  0
   10.0428  -16.3356   27.6623 C   0  0  2  0  0  0  0  0  0  0  0  0
    9.6374  -15.2511   26.7962 N   0  0  0  0  0  0  0  0  0  0  0  0
   10.2536  -15.8007   29.0240 C   0  0  0  0  0  0  0  0  0  0  0  0
   10.1559  -14.4464   29.3212 O   0  0  0  0  0  0  0  0  0  0  0  0
   10.5320  -16.5938   29.9532 O   0  0  0  0  0  0  0  0  0  0  0  0
  2  1  1  6
  2  3  1  0
  4  3  1  0
  5 11  1  0
  5  2  1  0
  6  5  2  0
  8  7  1  6
  8 10  1  0
  9  8  1  0
 10 11  1  6
 10 12  1  0
 12 18  1  0
 13 12  2  0
 15 14  1  6
 15 16  1  0
 17 19  1  0
 17 15  1  0
 17 18  1  6
 19 20  1  0
 21 19  2  0
M  END
$$$$
