CVV.pdb
     RDKit          3D

 21 20  0  0  1  0  0  0  0  0999 V2000
    7.3011  -15.4103   20.8756 N   0  0  0  0  0  0  0  0  0  0  0  0
    6.7694  -15.7414   22.1774 C   0  0  1  0  0  0  0  0  0  0  0  0
    6.6206  -17.2411   22.3416 C   0  0  0  0  0  0  0  0  0  0  0  0
    5.9455  -17.6606   23.9690 S   0  0  0  0  0  0  0  0  0  0  0  0
    7.5324  -15.1319   23.2722 C   0  0  0  0  0  0  0  0  0  0  0  0
    8.7890  -15.1290   23.3013 O   0  0  0  0  0  0  0  0  0  0  0  0
    6.1739  -11.9153   25.5174 C   0  0  0  0  0  0  0  0  0  0  0  0
    6.8308  -12.9837   26.3249 C   0  0  2  0  0  0  0  0  0  0  0  0
    7.7251  -12.4115   27.4187 C   0  0  0  0  0  0  0  0  0  0  0  0
    7.6546  -13.9430   25.4965 C   0  0  2  0  0  0  0  0  0  0  0  0
    6.8899  -14.4918   24.3942 N   0  0  0  0  0  0  0  0  0  0  0  0
    8.1691  -15.0372   26.3845 C   0  0  0  0  0  0  0  0  0  0  0  0
    7.3558  -15.8568   26.8818 O   0  0  0  0  0  0  0  0  0  0  0  0
   12.4265  -15.6252   26.8966 C   0  0  0  0  0  0  0  0  0  0  0  0
   11.4149  -16.7549   26.9181 C   0  0  2  0  0  0  0  0  0  0  0  0
   11.1801  -17.1452   25.4629 C   0  0  0  0  0  0  0  0  0  0  0  0
   10.0776  -16.2926   27.4639 C   0  0  2  0  0  0  0  0  0  0  0  0
    9.5365  -15.1949   26.6937 N   0  0  0  0  0  0  0  0  0  0  0  0
   10.3116  -15.8298   28.8481 C   0  0  0  0  0  0  0  0  0  0  0  0
   10.5945  -16.7020   29.8927 O   0  0  0  0  0  0  0  0  0  0  0  0
   10.2543  -14.6033   29.0977 O   0  0  0  0  0  0  0  0  0  0  0  0
  2  1  1  6
  2  3  1  0
  4  3  1  0
  5 11  1  0
  5  2  1  0
  6  5  2  0
  8  7  1  6
  8 10  1  0
  9  8  1  0
 10 11  1  6
 10 12  1  0
 12 18  1  0
 13 12  2  0
 15 14  1  6
 15 16  1  0
 17 19  1  0
 17 15  1  0
 17 18  1  6
 19 20  1  0
 21 19  2  0
M  END
$$$$
