CSL.pdb
     RDKit          3D

 21 20  0  0  1  0  0  0  0  0999 V2000
   29.2136  -22.4382  -17.0989 N   0  0  0  0  0  0  0  0  0  0  0  0
   27.8796  -22.1571  -17.5834 C   0  0  1  0  0  0  0  0  0  0  0  0
   27.1838  -23.5169  -17.7226 C   0  0  0  0  0  0  0  0  0  0  0  0
   26.8146  -24.2511  -16.1291 S   0  0  0  0  0  0  0  0  0  0  0  0
   27.1343  -21.3951  -16.5815 C   0  0  0  0  0  0  0  0  0  0  0  0
   27.6147  -21.3395  -15.3974 O   0  0  0  0  0  0  0  0  0  0  0  0
   23.3663  -19.3910  -17.0793 O   0  0  0  0  0  0  0  0  0  0  0  0
   24.5012  -18.8358  -16.4974 C   0  0  0  0  0  0  0  0  0  0  0  0
   25.3735  -19.8867  -15.8381 C   0  0  2  0  0  0  0  0  0  0  0  0
   25.9114  -20.7160  -16.8487 N   0  0  0  0  0  0  0  0  0  0  0  0
   24.5567  -20.5832  -14.8223 C   0  0  0  0  0  0  0  0  0  0  0  0
   23.9760  -21.6261  -15.1853 O   0  0  0  0  0  0  0  0  0  0  0  0
   25.7345  -20.2147   -9.3415 C   0  0  0  0  0  0  0  0  0  0  0  0
   25.4752  -20.6901  -10.7818 C   0  0  1  0  0  0  0  0  0  0  0  0
   25.7688  -22.2167  -10.7116 C   0  0  0  0  0  0  0  0  0  0  0  0
   24.0388  -20.4559  -11.0436 C   0  0  0  0  0  0  0  0  0  0  0  0
   23.5777  -20.7099  -12.4651 C   0  0  2  0  0  0  0  0  0  0  0  0
   24.3981  -20.1454  -13.4892 N   0  0  0  0  0  0  0  0  0  0  0  0
   22.1495  -20.4176  -12.5401 C   0  0  0  0  0  0  0  0  0  0  0  0
   21.7434  -19.3839  -13.1258 O   0  0  0  0  0  0  0  0  0  0  0  0
   21.2025  -21.2548  -11.9778 O   0  0  0  0  0  0  0  0  0  0  0  0
  2  1  1  1
  2  3  1  0
  3  4  1  0
  5  6  2  0
  5  2  1  0
  7  8  1  0
  9  8  1  6
  9 10  1  0
 10  5  1  0
 11  9  1  0
 11 12  2  0
 14 15  1  1
 14 13  1  0
 16 14  1  0
 17 18  1  0
 17 16  1  1
 18 11  1  0
 19 17  1  0
 20 19  2  0
 21 19  1  0
M  END
$$$$
