CSL.pdb
     RDKit          3D

 21 20  0  0  1  0  0  0  0  0999 V2000
   13.6711  -13.2219  -15.8535 N   0  0  0  0  0  0  0  0  0  0  0  0
   14.1096  -12.0140  -15.1889 C   0  0  1  0  0  0  0  0  0  0  0  0
   14.3208  -12.3924  -13.7175 C   0  0  0  0  0  0  0  0  0  0  0  0
   12.8016  -12.2899  -12.7708 S   0  0  0  0  0  0  0  0  0  0  0  0
   15.4097  -11.5979  -15.7149 C   0  0  0  0  0  0  0  0  0  0  0  0
   16.2693  -12.5107  -15.9673 O   0  0  0  0  0  0  0  0  0  0  0  0
   18.0067   -8.7148  -18.3538 O   0  0  0  0  0  0  0  0  0  0  0  0
   16.8410   -8.9284  -17.6256 C   0  0  0  0  0  0  0  0  0  0  0  0
   17.0276   -9.9816  -16.5506 C   0  0  2  0  0  0  0  0  0  0  0  0
   15.7698  -10.2421  -15.9600 N   0  0  0  0  0  0  0  0  0  0  0  0
   18.0711   -9.5017  -15.6205 C   0  0  0  0  0  0  0  0  0  0  0  0
   17.6903   -8.8043  -14.6586 O   0  0  0  0  0  0  0  0  0  0  0  0
   22.5325  -10.1857  -12.7254 C   0  0  0  0  0  0  0  0  0  0  0  0
   22.9007   -9.6814  -14.1317 C   0  0  1  0  0  0  0  0  0  0  0  0
   24.2083  -10.4593  -14.4584 C   0  0  0  0  0  0  0  0  0  0  0  0
   21.8079  -10.1165  -15.0278 C   0  0  0  0  0  0  0  0  0  0  0  0
   20.5294   -9.3058  -14.9504 C   0  0  2  0  0  0  0  0  0  0  0  0
   19.4487   -9.7814  -15.7544 N   0  0  0  0  0  0  0  0  0  0  0  0
   20.8751   -7.8948  -15.0930 C   0  0  0  0  0  0  0  0  0  0  0  0
   20.9713   -7.3772  -16.2329 O   0  0  0  0  0  0  0  0  0  0  0  0
   21.1065   -7.0853  -13.9952 O   0  0  0  0  0  0  0  0  0  0  0  0
  2  1  1  6
  2  3  1  0
  3  4  1  0
  5  6  2  0
  5  2  1  0
  7  8  1  0
  9  8  1  6
  9 10  1  0
 10  5  1  0
 11  9  1  0
 11 12  2  0
 14 15  1  6
 14 13  1  0
 16 14  1  0
 17 18  1  0
 17 16  1  6
 18 11  1  0
 19 17  1  0
 20 19  2  0
 21 19  1  0
M  END
$$$$
