CSL.pdb
     RDKit          3D

 21 20  0  0  1  0  0  0  0  0999 V2000
   15.8451   -9.4493  -10.2056 N   0  0  0  0  0  0  0  0  0  0  0  0
   15.8521   -8.8636  -11.5286 C   0  0  1  0  0  0  0  0  0  0  0  0
   15.1936   -7.4856  -11.3856 C   0  0  0  0  0  0  0  0  0  0  0  0
   15.2460   -6.5519  -12.9153 S   0  0  0  0  0  0  0  0  0  0  0  0
   17.2290   -8.6368  -11.9676 C   0  0  0  0  0  0  0  0  0  0  0  0
   18.0328   -8.0808  -11.1426 O   0  0  0  0  0  0  0  0  0  0  0  0
   20.8220   -9.2873  -15.0933 O   0  0  0  0  0  0  0  0  0  0  0  0
   19.4871   -9.4979  -14.7642 C   0  0  0  0  0  0  0  0  0  0  0  0
   19.0548   -8.6575  -13.5783 C   0  0  2  0  0  0  0  0  0  0  0  0
   17.7217   -8.9982  -13.2539 N   0  0  0  0  0  0  0  0  0  0  0  0
   19.2741   -7.2373  -13.9237 C   0  0  0  0  0  0  0  0  0  0  0  0
   18.3717   -6.6699  -14.5722 O   0  0  0  0  0  0  0  0  0  0  0  0
   19.8777   -2.6787  -15.4219 C   0  0  0  0  0  0  0  0  0  0  0  0
   20.1600   -2.7069  -13.9096 C   0  0  1  0  0  0  0  0  0  0  0  0
   19.1249   -1.6970  -13.3348 C   0  0  0  0  0  0  0  0  0  0  0  0
   19.8455   -4.0782  -13.4543 C   0  0  0  0  0  0  0  0  0  0  0  0
   20.7732   -5.1679  -13.9538 C   0  0  2  0  0  0  0  0  0  0  0  0
   20.4241   -6.4985  -13.5692 N   0  0  0  0  0  0  0  0  0  0  0  0
   22.1476   -4.7532  -13.6892 C   0  0  0  0  0  0  0  0  0  0  0  0
   22.6097   -3.7131  -14.2196 O   0  0  0  0  0  0  0  0  0  0  0  0
   22.9816   -5.4783  -12.8570 O   0  0  0  0  0  0  0  0  0  0  0  0
  2  1  1  1
  2  3  1  0
  3  4  1  0
  5  6  2  0
  5  2  1  0
  7  8  1  0
  9  8  1  6
  9 10  1  0
 10  5  1  0
 11  9  1  0
 11 12  2  0
 14 15  1  1
 14 13  1  0
 16 14  1  0
 17 18  1  0
 17 16  1  1
 18 11  1  0
 19 17  1  0
 20 19  2  0
 21 19  1  0
M  END
$$$$
