CSL.pdb
     RDKit          3D

 21 20  0  0  1  0  0  0  0  0999 V2000
   16.9164  -13.8457  -17.3001 N   0  0  0  0  0  0  0  0  0  0  0  0
   16.5802  -12.7625  -16.4019 C   0  0  1  0  0  0  0  0  0  0  0  0
   16.8093  -13.3009  -14.9840 C   0  0  0  0  0  0  0  0  0  0  0  0
   15.4233  -14.2783  -14.4023 S   0  0  0  0  0  0  0  0  0  0  0  0
   17.5092  -11.6486  -16.5923 C   0  0  0  0  0  0  0  0  0  0  0  0
   18.7337  -11.9293  -16.8329 O   0  0  0  0  0  0  0  0  0  0  0  0
   16.4874   -7.5696  -16.3763 O   0  0  0  0  0  0  0  0  0  0  0  0
   17.3437   -8.0615  -17.3558 C   0  0  0  0  0  0  0  0  0  0  0  0
   18.0837   -9.3017  -16.8928 C   0  0  2  0  0  0  0  0  0  0  0  0
   17.1293  -10.2778  -16.5254 N   0  0  0  0  0  0  0  0  0  0  0  0
   19.0168   -8.8999  -15.8194 C   0  0  0  0  0  0  0  0  0  0  0  0
   18.5790   -8.9328  -14.6515 O   0  0  0  0  0  0  0  0  0  0  0  0
   24.3312  -10.2524  -15.2977 C   0  0  0  0  0  0  0  0  0  0  0  0
   22.8439   -9.9474  -15.0478 C   0  0  1  0  0  0  0  0  0  0  0  0
   22.6362  -10.3753  -13.5661 C   0  0  0  0  0  0  0  0  0  0  0  0
   22.6921   -8.4829  -15.1845 C   0  0  0  0  0  0  0  0  0  0  0  0
   21.2747   -7.9548  -15.0852 C   0  0  2  0  0  0  0  0  0  0  0  0
   20.3504   -8.4886  -16.0345 N   0  0  0  0  0  0  0  0  0  0  0  0
   21.3365   -6.4999  -14.9839 C   0  0  0  0  0  0  0  0  0  0  0  0
   20.8626   -5.7796  -15.8967 O   0  0  0  0  0  0  0  0  0  0  0  0
   21.9103   -5.8675  -13.8954 O   0  0  0  0  0  0  0  0  0  0  0  0
  2  1  1  6
  2  3  1  0
  3  4  1  0
  5  6  2  0
  5  2  1  0
  7  8  1  0
  9  8  1  1
  9 10  1  0
 10  5  1  0
 11  9  1  0
 11 12  2  0
 14 15  1  1
 14 13  1  0
 16 14  1  0
 17 18  1  0
 17 16  1  6
 18 11  1  0
 19 17  1  0
 20 19  2  0
 21 19  1  0
M  END
$$$$
