CSL.pdb
     RDKit          3D

 21 20  0  0  1  0  0  0  0  0999 V2000
   17.7249  -12.9124  -14.5642 N   0  0  0  0  0  0  0  0  0  0  0  0
   17.0091  -11.7695  -15.0885 C   0  0  1  0  0  0  0  0  0  0  0  0
   15.5223  -12.1439  -15.0447 C   0  0  0  0  0  0  0  0  0  0  0  0
   15.0816  -13.3050  -16.3379 S   0  0  0  0  0  0  0  0  0  0  0  0
   17.1873  -10.6189  -14.2027 C   0  0  0  0  0  0  0  0  0  0  0  0
   17.2627  -10.8417  -12.9455 O   0  0  0  0  0  0  0  0  0  0  0  0
   18.5161   -6.0348  -13.6235 O   0  0  0  0  0  0  0  0  0  0  0  0
   18.2062   -7.0922  -14.4725 C   0  0  0  0  0  0  0  0  0  0  0  0
   17.6218   -8.2723  -13.7204 C   0  0  2  0  0  0  0  0  0  0  0  0
   17.2808   -9.2731  -14.6587 N   0  0  0  0  0  0  0  0  0  0  0  0
   16.5002   -7.7755  -12.8961 C   0  0  0  0  0  0  0  0  0  0  0  0
   15.4042   -7.6202  -13.4717 O   0  0  0  0  0  0  0  0  0  0  0  0
   13.3939   -7.6166   -8.5432 C   0  0  0  0  0  0  0  0  0  0  0  0
   14.6043   -6.6839   -8.3624 C   0  0  1  0  0  0  0  0  0  0  0  0
   14.9663   -6.8571   -6.8588 C   0  0  0  0  0  0  0  0  0  0  0  0
   15.6811   -7.2316   -9.2152 C   0  0  0  0  0  0  0  0  0  0  0  0
   15.6166   -6.8547  -10.6820 C   0  0  2  0  0  0  0  0  0  0  0  0
   16.5948   -7.4718  -11.5203 N   0  0  0  0  0  0  0  0  0  0  0  0
   15.5025   -5.4024  -10.7749 C   0  0  0  0  0  0  0  0  0  0  0  0
   16.5332   -4.6867  -10.8209 O   0  0  0  0  0  0  0  0  0  0  0  0
   14.2739   -4.7677  -10.8153 O   0  0  0  0  0  0  0  0  0  0  0  0
  2  1  1  1
  2  3  1  0
  3  4  1  0
  5  6  2  0
  5  2  1  0
  7  8  1  0
  9  8  1  6
  9 10  1  0
 10  5  1  0
 11  9  1  0
 11 12  2  0
 14 15  1  1
 14 13  1  0
 16 14  1  0
 17 18  1  0
 17 16  1  1
 18 11  1  0
 19 17  1  0
 20 19  2  0
 21 19  1  0
M  END
$$$$
