CSL.pdb
     RDKit          3D

 21 20  0  0  1  0  0  0  0  0999 V2000
   27.0700  -21.2454  -17.2324 N   0  0  0  0  0  0  0  0  0  0  0  0
   27.2253  -21.9458  -15.9760 C   0  0  1  0  0  0  0  0  0  0  0  0
   28.7142  -22.2983  -15.8683 C   0  0  0  0  0  0  0  0  0  0  0  0
   29.1193  -23.7945  -16.7694 S   0  0  0  0  0  0  0  0  0  0  0  0
   26.9157  -21.0492  -14.8623 C   0  0  0  0  0  0  0  0  0  0  0  0
   26.9508  -19.7902  -15.0844 O   0  0  0  0  0  0  0  0  0  0  0  0
   23.8728  -21.0758  -13.2308 O   0  0  0  0  0  0  0  0  0  0  0  0
   24.7764  -20.0351  -13.0437 C   0  0  0  0  0  0  0  0  0  0  0  0
   26.1404  -20.5377  -12.6116 C   0  0  2  0  0  0  0  0  0  0  0  0
   26.5797  -21.4967  -13.5528 N   0  0  0  0  0  0  0  0  0  0  0  0
   26.0248  -21.0280  -11.2222 C   0  0  0  0  0  0  0  0  0  0  0  0
   25.6494  -22.2081  -11.0711 O   0  0  0  0  0  0  0  0  0  0  0  0
   28.7312  -20.3971   -7.5227 C   0  0  0  0  0  0  0  0  0  0  0  0
   27.4764  -20.0167   -6.7176 C   0  0  1  0  0  0  0  0  0  0  0  0
   27.9704  -18.8455   -5.8197 C   0  0  0  0  0  0  0  0  0  0  0  0
   26.4859  -19.5267   -7.7001 C   0  0  0  0  0  0  0  0  0  0  0  0
   26.0018  -20.5456   -8.7127 C   0  0  2  0  0  0  0  0  0  0  0  0
   26.3093  -20.2529  -10.0766 N   0  0  0  0  0  0  0  0  0  0  0  0
   24.6083  -20.8599   -8.4125 C   0  0  0  0  0  0  0  0  0  0  0  0
   23.6830  -20.3589   -9.0976 O   0  0  0  0  0  0  0  0  0  0  0  0
   24.2579  -21.7088   -7.3777 O   0  0  0  0  0  0  0  0  0  0  0  0
  2  1  1  6
  2  3  1  0
  3  4  1  0
  5  6  2  0
  5  2  1  0
  7  8  1  0
  9  8  1  6
  9 10  1  0
 10  5  1  0
 11  9  1  0
 11 12  2  0
 14 15  1  1
 14 13  1  0
 16 14  1  0
 17 18  1  0
 17 16  1  1
 18 11  1  0
 19 17  1  0
 20 19  2  0
 21 19  1  0
M  END
$$$$
