CSL.pdb
     RDKit          3D

 21 20  0  0  1  0  0  0  0  0999 V2000
   24.4626  -12.9975  -18.3799 N   0  0  0  0  0  0  0  0  0  0  0  0
   23.9456  -12.7019  -17.0614 C   0  0  1  0  0  0  0  0  0  0  0  0
   25.1648  -12.6361  -16.1329 C   0  0  0  0  0  0  0  0  0  0  0  0
   25.9017  -14.2498  -15.8731 S   0  0  0  0  0  0  0  0  0  0  0  0
   23.3283  -11.3757  -17.0523 C   0  0  0  0  0  0  0  0  0  0  0  0
   23.8910  -10.4526  -17.7358 O   0  0  0  0  0  0  0  0  0  0  0  0
   20.0421  -10.2107  -14.7160 O   0  0  0  0  0  0  0  0  0  0  0  0
   20.1062   -9.8627  -16.0612 C   0  0  0  0  0  0  0  0  0  0  0  0
   21.5354   -9.8021  -16.5648 C   0  0  2  0  0  0  0  0  0  0  0  0
   22.1433  -11.0566  -16.3298 N   0  0  0  0  0  0  0  0  0  0  0  0
   22.1976   -8.6515  -15.9154 C   0  0  0  0  0  0  0  0  0  0  0  0
   22.8156   -8.8818  -14.8563 O   0  0  0  0  0  0  0  0  0  0  0  0
   25.4656   -3.8421  -17.4124 C   0  0  0  0  0  0  0  0  0  0  0  0
   24.4667   -4.2820  -16.3278 C   0  0  1  0  0  0  0  0  0  0  0  0
   23.4734   -3.0864  -16.2520 C   0  0  0  0  0  0  0  0  0  0  0  0
   23.7840   -5.4830  -16.8550 C   0  0  0  0  0  0  0  0  0  0  0  0
   22.8369   -6.1772  -15.8966 C   0  0  2  0  0  0  0  0  0  0  0  0
   22.1722   -7.3307  -16.4144 N   0  0  0  0  0  0  0  0  0  0  0  0
   21.9910   -5.1621  -15.2763 C   0  0  0  0  0  0  0  0  0  0  0  0
   20.8898   -4.8514  -15.7935 O   0  0  0  0  0  0  0  0  0  0  0  0
   22.3634   -4.5129  -14.1128 O   0  0  0  0  0  0  0  0  0  0  0  0
  2  1  1  6
  2  3  1  0
  3  4  1  0
  5  6  2  0
  5  2  1  0
  7  8  1  0
  9  8  1  1
  9 10  1  0
 10  5  1  0
 11  9  1  0
 11 12  2  0
 14 15  1  6
 14 13  1  0
 16 14  1  0
 17 18  1  0
 17 16  1  6
 18 11  1  0
 19 17  1  0
 20 19  2  0
 21 19  1  0
M  END
$$$$
