CSL.pdb
     RDKit          3D

 21 20  0  0  1  0  0  0  0  0999 V2000
   16.9764  -10.1191  -12.3198 N   0  0  0  0  0  0  0  0  0  0  0  0
   17.7299  -10.1695  -13.5539 C   0  0  1  0  0  0  0  0  0  0  0  0
   16.6952  -10.3171  -14.6766 C   0  0  0  0  0  0  0  0  0  0  0  0
   16.0872  -11.9981  -14.8157 S   0  0  0  0  0  0  0  0  0  0  0  0
   18.4190   -8.8975  -13.7711 C   0  0  0  0  0  0  0  0  0  0  0  0
   17.8409   -7.8308  -13.3663 O   0  0  0  0  0  0  0  0  0  0  0  0
   21.8554   -8.4551  -16.0765 O   0  0  0  0  0  0  0  0  0  0  0  0
   21.6905   -7.6303  -14.9686 C   0  0  0  0  0  0  0  0  0  0  0  0
   20.2320   -7.4872  -14.5788 C   0  0  2  0  0  0  0  0  0  0  0  0
   19.6894   -8.7808  -14.4039 N   0  0  0  0  0  0  0  0  0  0  0  0
   19.5660   -6.6601  -15.6067 C   0  0  0  0  0  0  0  0  0  0  0  0
   18.9983   -7.2675  -16.5370 O   0  0  0  0  0  0  0  0  0  0  0  0
   16.5528   -4.1073  -18.6657 C   0  0  0  0  0  0  0  0  0  0  0  0
   17.0476   -3.1384  -17.5776 C   0  0  1  0  0  0  0  0  0  0  0  0
   15.7442   -2.4237  -17.1172 C   0  0  0  0  0  0  0  0  0  0  0  0
   17.5841   -3.9794  -16.4861 C   0  0  0  0  0  0  0  0  0  0  0  0
   19.0438   -4.3685  -16.6100 C   0  0  2  0  0  0  0  0  0  0  0  0
   19.5351   -5.2484  -15.5976 N   0  0  0  0  0  0  0  0  0  0  0  0
   19.8199   -3.1559  -16.8511 C   0  0  0  0  0  0  0  0  0  0  0  0
   20.5019   -2.6452  -15.9288 O   0  0  0  0  0  0  0  0  0  0  0  0
   19.8342   -2.5317  -18.0857 O   0  0  0  0  0  0  0  0  0  0  0  0
  2  1  1  1
  2  3  1  0
  3  4  1  0
  5  6  2  0
  5  2  1  0
  7  8  1  0
  9  8  1  6
  9 10  1  0
 10  5  1  0
 11  9  1  0
 11 12  2  0
 14 15  1  1
 14 13  1  0
 16 14  1  0
 17 18  1  0
 17 16  1  1
 18 11  1  0
 19 17  1  0
 20 19  2  0
 21 19  1  0
M  END
$$$$
