CSL.pdb
     RDKit          3D

 21 20  0  0  1  0  0  0  0  0999 V2000
   26.4447  -19.1495  -15.5853 N   0  0  0  0  0  0  0  0  0  0  0  0
   26.5796  -20.2416  -14.6459 C   0  0  1  0  0  0  0  0  0  0  0  0
   28.0648  -20.6250  -14.6520 C   0  0  0  0  0  0  0  0  0  0  0  0
   28.4273  -21.9347  -13.4824 S   0  0  0  0  0  0  0  0  0  0  0  0
   26.2619  -19.7804  -13.2944 C   0  0  0  0  0  0  0  0  0  0  0  0
   26.5454  -18.5692  -12.9969 O   0  0  0  0  0  0  0  0  0  0  0  0
   23.2966  -21.2653  -11.0621 O   0  0  0  0  0  0  0  0  0  0  0  0
   23.8520  -20.0042  -10.8730 C   0  0  0  0  0  0  0  0  0  0  0  0
   25.3586  -20.0153  -11.0456 C   0  0  2  0  0  0  0  0  0  0  0  0
   25.6585  -20.5992  -12.2977 N   0  0  0  0  0  0  0  0  0  0  0  0
   25.9451  -20.7018   -9.8756 C   0  0  0  0  0  0  0  0  0  0  0  0
   25.7118  -21.9224   -9.7637 O   0  0  0  0  0  0  0  0  0  0  0  0
   29.4970  -19.3037   -4.9276 C   0  0  0  0  0  0  0  0  0  0  0  0
   28.2513  -20.0796   -5.3903 C   0  0  1  0  0  0  0  0  0  0  0  0
   27.1342  -19.5598   -4.4397 C   0  0  0  0  0  0  0  0  0  0  0  0
   27.9850  -19.6468   -6.7789 C   0  0  0  0  0  0  0  0  0  0  0  0
   26.9996  -20.4962   -7.5568 C   0  0  2  0  0  0  0  0  0  0  0  0
   26.7395  -20.0687   -8.8948 N   0  0  0  0  0  0  0  0  0  0  0  0
   25.8338  -20.7320   -6.7106 C   0  0  0  0  0  0  0  0  0  0  0  0
   25.7513  -21.7783   -6.0213 O   0  0  0  0  0  0  0  0  0  0  0  0
   24.7906  -19.8264   -6.6360 O   0  0  0  0  0  0  0  0  0  0  0  0
  2  1  1  6
  2  3  1  0
  3  4  1  0
  5  6  2  0
  5  2  1  0
  7  8  1  0
  9  8  1  1
  9 10  1  0
 10  5  1  0
 11  9  1  0
 11 12  2  0
 14 15  1  1
 14 13  1  0
 16 14  1  0
 17 18  1  0
 17 16  1  1
 18 11  1  0
 19 17  1  0
 20 19  2  0
 21 19  1  0
M  END
$$$$
