CSL.pdb
     RDKit          3D

 21 20  0  0  1  0  0  0  0  0999 V2000
   13.6523   -9.1736   -9.6202 N   0  0  0  0  0  0  0  0  0  0  0  0
   15.0790   -9.3636   -9.7675 C   0  0  1  0  0  0  0  0  0  0  0  0
   15.2522  -10.5361  -10.7411 C   0  0  0  0  0  0  0  0  0  0  0  0
   15.0741  -12.1222   -9.9242 S   0  0  0  0  0  0  0  0  0  0  0  0
   15.6769   -8.1886  -10.4014 C   0  0  0  0  0  0  0  0  0  0  0  0
   15.4385   -7.9963  -11.6432 O   0  0  0  0  0  0  0  0  0  0  0  0
   17.1375   -5.0832   -8.2827 O   0  0  0  0  0  0  0  0  0  0  0  0
   16.7812   -4.8947   -9.6139 C   0  0  0  0  0  0  0  0  0  0  0  0
   17.0003   -6.1453  -10.4433 C   0  0  2  0  0  0  0  0  0  0  0  0
   16.5043   -7.2526   -9.7178 N   0  0  0  0  0  0  0  0  0  0  0  0
   18.4349   -6.2139  -10.7917 C   0  0  0  0  0  0  0  0  0  0  0  0
   19.2113   -6.6188   -9.9029 O   0  0  0  0  0  0  0  0  0  0  0  0
   21.2248   -8.9726  -14.2574 C   0  0  0  0  0  0  0  0  0  0  0  0
   20.7749   -8.1513  -13.0365 C   0  0  1  0  0  0  0  0  0  0  0  0
   21.8748   -8.4541  -11.9781 C   0  0  0  0  0  0  0  0  0  0  0  0
   20.8349   -6.7318  -13.4464 C   0  0  0  0  0  0  0  0  0  0  0  0
   20.3414   -5.7285  -12.4229 C   0  0  2  0  0  0  0  0  0  0  0  0
   18.9685   -5.8546  -12.0487 N   0  0  0  0  0  0  0  0  0  0  0  0
   20.7841   -4.4004  -12.8362 C   0  0  0  0  0  0  0  0  0  0  0  0
   19.9465   -3.5324  -13.1849 O   0  0  0  0  0  0  0  0  0  0  0  0
   22.1226   -4.0515  -12.8596 O   0  0  0  0  0  0  0  0  0  0  0  0
  2  1  1  6
  2  3  1  0
  3  4  1  0
  5  6  2  0
  5  2  1  0
  7  8  1  0
  9  8  1  1
  9 10  1  0
 10  5  1  0
 11  9  1  0
 11 12  2  0
 14 15  1  1
 14 13  1  0
 16 14  1  0
 17 18  1  0
 17 16  1  6
 18 11  1  0
 19 17  1  0
 20 19  2  0
 21 19  1  0
M  END
$$$$
