CSL.pdb
     RDKit          3D

 21 20  0  0  1  0  0  0  0  0999 V2000
   21.8539  -21.6340  -13.1740 N   0  0  0  0  0  0  0  0  0  0  0  0
   22.4612  -20.5140  -12.4883 C   0  0  1  0  0  0  0  0  0  0  0  0
   21.3801  -19.9498  -11.5578 C   0  0  0  0  0  0  0  0  0  0  0  0
   20.4593  -18.6165  -12.3253 S   0  0  0  0  0  0  0  0  0  0  0  0
   23.5560  -20.9821  -11.6386 C   0  0  0  0  0  0  0  0  0  0  0  0
   23.2672  -21.7797  -10.6813 O   0  0  0  0  0  0  0  0  0  0  0  0
   28.2263  -21.6947  -10.8505 O   0  0  0  0  0  0  0  0  0  0  0  0
   27.1960  -21.2609  -11.6784 C   0  0  0  0  0  0  0  0  0  0  0  0
   25.8810  -21.1396  -10.9329 C   0  0  2  0  0  0  0  0  0  0  0  0
   24.9169  -20.6022  -11.8162 N   0  0  0  0  0  0  0  0  0  0  0  0
   26.1236  -20.3466   -9.7095 C   0  0  0  0  0  0  0  0  0  0  0  0
   25.9150  -19.1188   -9.7840 O   0  0  0  0  0  0  0  0  0  0  0  0
   28.1469  -21.4292   -3.8750 C   0  0  0  0  0  0  0  0  0  0  0  0
   27.8705  -20.3505   -4.9370 C   0  0  1  0  0  0  0  0  0  0  0  0
   29.2849  -19.7754   -5.2375 C   0  0  0  0  0  0  0  0  0  0  0  0
   27.3435  -21.0606   -6.1222 C   0  0  0  0  0  0  0  0  0  0  0  0
   27.0012  -20.1896   -7.3145 C   0  0  2  0  0  0  0  0  0  0  0  0
   26.5695  -20.8875   -8.4837 N   0  0  0  0  0  0  0  0  0  0  0  0
   28.0778  -19.2205   -7.4952 C   0  0  0  0  0  0  0  0  0  0  0  0
   29.0660  -19.4975   -8.2186 O   0  0  0  0  0  0  0  0  0  0  0  0
   28.0520  -17.9786   -6.8861 O   0  0  0  0  0  0  0  0  0  0  0  0
  2  1  1  1
  2  3  1  0
  3  4  1  0
  5  6  2  0
  5  2  1  0
  7  8  1  0
  9  8  1  6
  9 10  1  0
 10  5  1  0
 11  9  1  0
 11 12  2  0
 14 15  1  6
 14 13  1  0
 16 14  1  0
 17 18  1  0
 17 16  1  1
 18 11  1  0
 19 17  1  0
 20 19  2  0
 21 19  1  0
M  END
$$$$
