CSL.pdb
     RDKit          3D

 21 20  0  0  1  0  0  0  0  0999 V2000
   26.9045  -21.5603  -11.9570 N   0  0  0  0  0  0  0  0  0  0  0  0
   25.5083  -21.3523  -11.6394 C   0  0  1  0  0  0  0  0  0  0  0  0
   25.4820  -20.3418  -10.4857 C   0  0  0  0  0  0  0  0  0  0  0  0
   24.7312  -21.0256   -9.0081 S   0  0  0  0  0  0  0  0  0  0  0  0
   24.8258  -20.7270  -12.7722 C   0  0  0  0  0  0  0  0  0  0  0  0
   25.3945  -19.7272  -13.3315 O   0  0  0  0  0  0  0  0  0  0  0  0
   21.6619  -22.4389  -14.8359 O   0  0  0  0  0  0  0  0  0  0  0  0
   22.5787  -21.5622  -15.4064 C   0  0  0  0  0  0  0  0  0  0  0  0
   23.0472  -20.5093  -14.4206 C   0  0  2  0  0  0  0  0  0  0  0  0
   23.5715  -21.1662  -13.2840 N   0  0  0  0  0  0  0  0  0  0  0  0
   21.9129  -19.6002  -14.1535 C   0  0  0  0  0  0  0  0  0  0  0  0
   21.1994  -19.8658  -13.1651 O   0  0  0  0  0  0  0  0  0  0  0  0
   19.6541  -14.7075  -13.8027 C   0  0  0  0  0  0  0  0  0  0  0  0
   19.4938  -15.2971  -15.2149 C   0  0  1  0  0  0  0  0  0  0  0  0
   19.6440  -14.0541  -16.1392 C   0  0  0  0  0  0  0  0  0  0  0  0
   20.6313  -16.2215  -15.4102 C   0  0  0  0  0  0  0  0  0  0  0  0
   20.4579  -17.6117  -14.8315 C   0  0  2  0  0  0  0  0  0  0  0  0
   21.5954  -18.4693  -14.9372 N   0  0  0  0  0  0  0  0  0  0  0  0
   19.1894  -18.1507  -15.3122 C   0  0  0  0  0  0  0  0  0  0  0  0
   19.1150  -18.6811  -16.4479 O   0  0  0  0  0  0  0  0  0  0  0  0
   18.0376  -18.0991  -14.5476 O   0  0  0  0  0  0  0  0  0  0  0  0
  2  1  1  6
  2  3  1  0
  3  4  1  0
  5  6  2  0
  5  2  1  0
  7  8  1  0
  9  8  1  6
  9 10  1  0
 10  5  1  0
 11  9  1  0
 11 12  2  0
 14 15  1  6
 14 13  1  0
 16 14  1  0
 17 18  1  0
 17 16  1  6
 18 11  1  0
 19 17  1  0
 20 19  2  0
 21 19  1  0
M  END
$$$$
