CSL.pdb
     RDKit          3D

 21 20  0  0  1  0  0  0  0  0999 V2000
   16.3168  -11.4805  -15.3679 N   0  0  0  0  0  0  0  0  0  0  0  0
   17.1061  -10.7022  -16.2977 C   0  0  1  0  0  0  0  0  0  0  0  0
   16.1889   -9.5775  -16.7945 C   0  0  0  0  0  0  0  0  0  0  0  0
   15.2247  -10.0754  -18.2218 S   0  0  0  0  0  0  0  0  0  0  0  0
   18.2218  -10.0668  -15.5966 C   0  0  0  0  0  0  0  0  0  0  0  0
   17.9633   -9.4384  -14.5130 O   0  0  0  0  0  0  0  0  0  0  0  0
   22.2094  -10.0952  -16.9095 O   0  0  0  0  0  0  0  0  0  0  0  0
   21.8953  -10.1112  -15.5546 C   0  0  0  0  0  0  0  0  0  0  0  0
   20.5566   -9.4563  -15.2740 C   0  0  2  0  0  0  0  0  0  0  0  0
   19.5711  -10.1084  -16.0499 N   0  0  0  0  0  0  0  0  0  0  0  0
   20.6978   -8.0070  -15.5266 C   0  0  0  0  0  0  0  0  0  0  0  0
   20.2355   -7.5754  -16.6020 O   0  0  0  0  0  0  0  0  0  0  0  0
   20.8425   -3.4077  -16.7253 C   0  0  0  0  0  0  0  0  0  0  0  0
   20.3509   -3.4639  -15.2683 C   0  0  1  0  0  0  0  0  0  0  0  0
   18.9618   -2.7654  -15.3336 C   0  0  0  0  0  0  0  0  0  0  0  0
   20.1892   -4.8966  -14.9400 C   0  0  0  0  0  0  0  0  0  0  0  0
   21.4735   -5.6871  -14.7869 C   0  0  2  0  0  0  0  0  0  0  0  0
   21.3141   -7.0988  -14.6382 N   0  0  0  0  0  0  0  0  0  0  0  0
   22.3050   -5.0173  -13.7915 C   0  0  0  0  0  0  0  0  0  0  0  0
   22.7576   -3.8672  -14.0130 O   0  0  0  0  0  0  0  0  0  0  0  0
   22.6221   -5.6140  -12.5843 O   0  0  0  0  0  0  0  0  0  0  0  0
  2  1  1  1
  2  3  1  0
  3  4  1  0
  5  6  2  0
  5  2  1  0
  7  8  1  0
  9  8  1  6
  9 10  1  0
 10  5  1  0
 11  9  1  0
 11 12  2  0
 14 15  1  6
 14 13  1  0
 16 14  1  0
 17 18  1  0
 17 16  1  1
 18 11  1  0
 19 17  1  0
 20 19  2  0
 21 19  1  0
M  END
$$$$
