NTF.pdb
     RDKit          3D

 27 27  0  0  1  0  0  0  0  0999 V2000
    9.4503  -14.4467   15.8628 N   0  0  0  0  0  0  0  0  0  0  0  0
    8.3147  -13.8123   16.4375 C   0  0  0  0  0  0  0  0  0  0  0  0
    7.6092  -13.1006   15.6770 O   0  0  0  0  0  0  0  0  0  0  0  0
    7.9102  -13.9272   17.8415 C   0  0  0  0  0  0  0  0  0  0  0  0
    8.8335  -14.7892   18.6611 C   0  0  2  0  0  0  0  0  0  0  0  0
    9.3436  -15.9176   17.9710 N   0  0  0  0  0  0  0  0  0  0  0  0
    8.1163  -15.1788   19.8934 C   0  0  0  0  0  0  0  0  0  0  0  0
    6.9039  -15.5449   19.8275 O   0  0  0  0  0  0  0  0  0  0  0  0
    7.0406  -17.3507   20.7047 C   0  0  0  0  0  0  0  0  0  0  0  0
    7.8606  -17.2825   21.9925 C   0  0  1  0  0  0  0  0  0  0  0  0
    9.1000  -17.8836   21.7959 O   0  0  0  0  0  0  0  0  0  0  0  0
    8.0778  -15.8071   22.3085 C   0  0  2  0  0  0  0  0  0  0  0  0
    8.7026  -15.1736   21.1875 N   0  0  0  0  0  0  0  0  0  0  0  0
    8.8844  -15.7129   23.5552 C   0  0  0  0  0  0  0  0  0  0  0  0
   10.1135  -15.5187   23.5637 O   0  0  0  0  0  0  0  0  0  0  0  0
    8.2045  -15.8534   24.7883 N   0  0  0  0  0  0  0  0  0  0  0  0
    8.8809  -15.5995   26.0594 C   0  0  1  0  0  0  0  0  0  0  0  0
    7.9340  -15.0506   27.0617 C   0  0  0  0  0  0  0  0  0  0  0  0
    7.4040  -13.7381   26.7196 C   0  0  0  0  0  0  0  0  0  0  0  0
    8.2537  -12.6558   26.5361 C   0  0  0  0  0  0  0  0  0  0  0  0
    7.7687  -11.4287   26.1955 C   0  0  0  0  0  0  0  0  0  0  0  0
    6.4201  -11.1944   26.0155 C   0  0  0  0  0  0  0  0  0  0  0  0
    5.5538  -12.2683   26.1954 C   0  0  0  0  0  0  0  0  0  0  0  0
    6.0479  -13.5083   26.5399 C   0  0  0  0  0  0  0  0  0  0  0  0
    9.5472  -16.8081   26.5699 C   0  0  0  0  0  0  0  0  0  0  0  0
    9.4820  -18.0209   25.9309 O   0  0  0  0  0  0  0  0  0  0  0  0
   10.2066  -16.6843   27.6633 O   0  0  0  0  0  0  0  0  0  0  0  0
  2  1  1  0
  3  2  2  0
  4  2  1  0
  5  6  1  6
  5  4  1  0
  7  5  1  0
  7  8  2  0
 10  9  1  6
 10 12  1  0
 11 10  1  0
 12 13  1  6
 12 14  1  0
 13  7  1  0
 14 16  1  0
 15 14  2  0
 16 17  1  0
 17 25  1  0
 18 19  1  0
 17 18  1  1
 19 24  2  0
 20 21  2  0
 20 19  1  0
 21 22  1  0
 22 23  2  0
 24 23  1  0
 25 27  2  0
 25 26  1  0
M  END
$$$$
