NTF.pdb
     RDKit          3D

 27 27  0  0  1  0  0  0  0  0999 V2000
    8.2706  -12.8577   16.2089 N   0  0  0  0  0  0  0  0  0  0  0  0
    8.8564  -13.3510   17.4072 C   0  0  0  0  0  0  0  0  0  0  0  0
   10.0937  -13.1773   17.5544 O   0  0  0  0  0  0  0  0  0  0  0  0
    8.1279  -14.0418   18.4749 C   0  0  0  0  0  0  0  0  0  0  0  0
    8.7525  -15.3525   18.8737 C   0  0  2  0  0  0  0  0  0  0  0  0
    8.6504  -16.3699   17.8916 N   0  0  0  0  0  0  0  0  0  0  0  0
    8.1524  -15.7692   20.1585 C   0  0  0  0  0  0  0  0  0  0  0  0
    6.9631  -16.2088   20.1850 O   0  0  0  0  0  0  0  0  0  0  0  0
    7.3014  -18.0475   21.1594 C   0  0  0  0  0  0  0  0  0  0  0  0
    8.1965  -17.8238   22.3778 C   0  0  1  0  0  0  0  0  0  0  0  0
    9.4697  -18.3263   22.1275 O   0  0  0  0  0  0  0  0  0  0  0  0
    8.2987  -16.3175   22.5889 C   0  0  2  0  0  0  0  0  0  0  0  0
    8.8300  -15.7122   21.4059 N   0  0  0  0  0  0  0  0  0  0  0  0
    9.1355  -16.0731   23.7948 C   0  0  0  0  0  0  0  0  0  0  0  0
   10.3611  -15.8629   23.7478 O   0  0  0  0  0  0  0  0  0  0  0  0
    8.4899  -16.0833   25.0539 N   0  0  0  0  0  0  0  0  0  0  0  0
    9.1965  -15.6857   26.2706 C   0  0  1  0  0  0  0  0  0  0  0  0
    8.2511  -15.1423   27.2774 C   0  0  0  0  0  0  0  0  0  0  0  0
    7.5224  -13.9634   26.8304 C   0  0  0  0  0  0  0  0  0  0  0  0
    6.1466  -14.0057   26.6505 C   0  0  0  0  0  0  0  0  0  0  0  0
    5.4535  -12.9020   26.2525 C   0  0  0  0  0  0  0  0  0  0  0  0
    6.0727  -11.6926   26.0082 C   0  0  0  0  0  0  0  0  0  0  0  0
    7.4519  -11.6321   26.1836 C   0  0  0  0  0  0  0  0  0  0  0  0
    8.1498  -12.7506   26.5863 C   0  0  0  0  0  0  0  0  0  0  0  0
    9.9809  -16.7978   26.8301 C   0  0  0  0  0  0  0  0  0  0  0  0
    9.9009  -18.0812   26.3503 O   0  0  0  0  0  0  0  0  0  0  0  0
   10.7610  -16.5175   27.8092 O   0  0  0  0  0  0  0  0  0  0  0  0
  2  1  1  0
  3  2  2  0
  4  2  1  0
  5  6  1  6
  5  4  1  0
  7  5  1  0
  7  8  2  0
 10  9  1  6
 10 12  1  0
 11 10  1  0
 12 13  1  6
 12 14  1  0
 13  7  1  0
 14 16  1  0
 15 14  2  0
 16 17  1  0
 17 25  1  0
 18 19  1  0
 17 18  1  1
 19 24  2  0
 20 21  2  0
 20 19  1  0
 21 22  1  0
 22 23  2  0
 24 23  1  0
 25 27  2  0
 25 26  1  0
M  END
$$$$
