NTF.pdb
     RDKit          3D

 27 27  0  0  1  0  0  0  0  0999 V2000
    8.6805  -11.8538   17.9095 N   0  0  0  0  0  0  0  0  0  0  0  0
    9.3990  -12.8991   18.5524 C   0  0  0  0  0  0  0  0  0  0  0  0
   10.5504  -13.1565   18.1156 O   0  0  0  0  0  0  0  0  0  0  0  0
    8.8985  -13.6923   19.6786 C   0  0  0  0  0  0  0  0  0  0  0  0
    8.7536  -15.1570   19.3608 C   0  0  2  0  0  0  0  0  0  0  0  0
    7.8036  -15.4427   18.3480 N   0  0  0  0  0  0  0  0  0  0  0  0
    8.4423  -15.8661   20.6196 C   0  0  0  0  0  0  0  0  0  0  0  0
    7.3519  -15.6297   21.2227 O   0  0  0  0  0  0  0  0  0  0  0  0
    8.9215  -19.3966   23.8867 C   0  0  0  0  0  0  0  0  0  0  0  0
    9.3648  -18.8457   22.5318 C   0  0  1  0  0  0  0  0  0  0  0  0
    8.6398  -19.4567   21.5133 O   0  0  0  0  0  0  0  0  0  0  0  0
    9.0495  -17.3542   22.5290 C   0  0  2  0  0  0  0  0  0  0  0  0
    9.3007  -16.8233   21.2240 N   0  0  0  0  0  0  0  0  0  0  0  0
    9.8664  -16.7048   23.5895 C   0  0  0  0  0  0  0  0  0  0  0  0
   11.0553  -16.3726   23.4323 O   0  0  0  0  0  0  0  0  0  0  0  0
    9.2454  -16.4584   24.8369 N   0  0  0  0  0  0  0  0  0  0  0  0
    9.9824  -15.8482   25.9426 C   0  0  1  0  0  0  0  0  0  0  0  0
   10.0268  -14.3720   25.7973 C   0  0  0  0  0  0  0  0  0  0  0  0
    8.7275  -13.7254   25.9168 C   0  0  0  0  0  0  0  0  0  0  0  0
    7.8723  -13.6448   24.8262 C   0  0  0  0  0  0  0  0  0  0  0  0
    6.6461  -13.0602   24.9338 C   0  0  0  0  0  0  0  0  0  0  0  0
    6.1893  -12.5209   26.1197 C   0  0  0  0  0  0  0  0  0  0  0  0
    7.0337  -12.5930   27.2234 C   0  0  0  0  0  0  0  0  0  0  0  0
    8.2735  -13.1852   27.1110 C   0  0  0  0  0  0  0  0  0  0  0  0
    9.4202  -16.2332   27.2468 C   0  0  0  0  0  0  0  0  0  0  0  0
    8.2627  -16.9595   27.3739 O   0  0  0  0  0  0  0  0  0  0  0  0
   10.0669  -15.8537   28.2876 O   0  0  0  0  0  0  0  0  0  0  0  0
  2  1  1  0
  3  2  2  0
  4  2  1  0
  5  6  1  6
  5  4  1  0
  7  5  1  0
  7  8  2  0
 10  9  1  1
 10 12  1  0
 11 10  1  0
 12 13  1  6
 12 14  1  0
 13  7  1  0
 14 16  1  0
 15 14  2  0
 16 17  1  0
 17 25  1  0
 18 19  1  0
 17 18  1  6
 19 24  2  0
 20 21  2  0
 20 19  1  0
 21 22  1  0
 22 23  2  0
 24 23  1  0
 25 27  2  0
 25 26  1  0
M  END
$$$$
