NTF.pdb
     RDKit          3D

 27 27  0  0  1  0  0  0  0  0999 V2000
    3.0067  -19.7291   21.9774 N   0  0  0  0  0  0  0  0  0  0  0  0
    3.5278  -19.2630   20.7390 C   0  0  0  0  0  0  0  0  0  0  0  0
    2.7974  -19.3954   19.7233 O   0  0  0  0  0  0  0  0  0  0  0  0
    4.8445  -18.6441   20.5624 C   0  0  0  0  0  0  0  0  0  0  0  0
    5.6339  -18.5429   21.8406 C   0  0  2  0  0  0  0  0  0  0  0  0
    4.8963  -18.0431   22.9434 N   0  0  0  0  0  0  0  0  0  0  0  0
    6.8348  -17.7252   21.5690 C   0  0  0  0  0  0  0  0  0  0  0  0
    7.7163  -18.1493   20.7619 O   0  0  0  0  0  0  0  0  0  0  0  0
    7.2815  -14.3837   20.1024 C   0  0  0  0  0  0  0  0  0  0  0  0
    7.9115  -14.2985   21.4922 C   0  0  1  0  0  0  0  0  0  0  0  0
    6.9851  -13.7963   22.4010 O   0  0  0  0  0  0  0  0  0  0  0  0
    8.2806  -15.7188   21.9053 C   0  0  2  0  0  0  0  0  0  0  0  0
    7.0834  -16.4590   22.1637 N   0  0  0  0  0  0  0  0  0  0  0  0
    9.1830  -15.6396   23.0857 C   0  0  0  0  0  0  0  0  0  0  0  0
   10.3284  -15.1553   23.0418 O   0  0  0  0  0  0  0  0  0  0  0  0
    8.6997  -16.1455   24.3157 N   0  0  0  0  0  0  0  0  0  0  0  0
    9.5344  -16.1431   25.5161 C   0  0  1  0  0  0  0  0  0  0  0  0
    9.8365  -14.7555   25.9471 C   0  0  0  0  0  0  0  0  0  0  0  0
    8.6608  -13.9820   26.3214 C   0  0  0  0  0  0  0  0  0  0  0  0
    7.4073  -14.3112   25.8241 C   0  0  0  0  0  0  0  0  0  0  0  0
    6.2984  -13.6061   26.1850 C   0  0  0  0  0  0  0  0  0  0  0  0
    6.3575  -12.5363   27.0556 C   0  0  0  0  0  0  0  0  0  0  0  0
    7.6064  -12.1924   27.5639 C   0  0  0  0  0  0  0  0  0  0  0  0
    8.7260  -12.9079   27.1967 C   0  0  0  0  0  0  0  0  0  0  0  0
    8.9160  -16.9116   26.6080 C   0  0  0  0  0  0  0  0  0  0  0  0
    7.7024  -17.5400   26.4823 O   0  0  0  0  0  0  0  0  0  0  0  0
    9.5683  -16.9728   27.7109 O   0  0  0  0  0  0  0  0  0  0  0  0
  2  1  1  0
  3  2  2  0
  4  2  1  0
  5  6  1  1
  5  4  1  0
  7  5  1  0
  7  8  2  0
 10  9  1  6
 10 12  1  0
 11 10  1  0
 12 13  1  1
 12 14  1  0
 13  7  1  0
 14 16  1  0
 15 14  2  0
 16 17  1  0
 17 25  1  0
 18 19  1  0
 17 18  1  1
 19 24  2  0
 20 21  2  0
 20 19  1  0
 21 22  1  0
 22 23  2  0
 24 23  1  0
 25 27  2  0
 25 26  1  0
M  END
$$$$
