NTF.pdb
     RDKit          3D

 27 27  0  0  1  0  0  0  0  0999 V2000
   13.4682  -18.6986   16.3293 N   0  0  0  0  0  0  0  0  0  0  0  0
   12.3437  -17.8890   16.0093 C   0  0  0  0  0  0  0  0  0  0  0  0
   12.2523  -17.4771   14.8242 O   0  0  0  0  0  0  0  0  0  0  0  0
   11.2916  -17.5029   16.9538 C   0  0  0  0  0  0  0  0  0  0  0  0
   11.5525  -17.9675   18.3621 C   0  0  2  0  0  0  0  0  0  0  0  0
   11.4610  -19.3711   18.5395 N   0  0  0  0  0  0  0  0  0  0  0  0
   10.6289  -17.2408   19.2584 C   0  0  0  0  0  0  0  0  0  0  0  0
   10.5910  -15.9734   19.2304 O   0  0  0  0  0  0  0  0  0  0  0  0
    6.9601  -17.8555   19.7650 C   0  0  0  0  0  0  0  0  0  0  0  0
    7.5578  -17.8237   21.1712 C   0  0  1  0  0  0  0  0  0  0  0  0
    7.7538  -19.1223   21.6308 O   0  0  0  0  0  0  0  0  0  0  0  0
    8.9127  -17.1325   21.0672 C   0  0  2  0  0  0  0  0  0  0  0  0
    9.7525  -17.8762   20.1785 N   0  0  0  0  0  0  0  0  0  0  0  0
    9.4783  -17.0105   22.4380 C   0  0  0  0  0  0  0  0  0  0  0  0
   10.3937  -17.7348   22.8690 O   0  0  0  0  0  0  0  0  0  0  0  0
    8.9367  -16.0142   23.2845 N   0  0  0  0  0  0  0  0  0  0  0  0
    9.3808  -15.8746   24.6705 C   0  0  1  0  0  0  0  0  0  0  0  0
    9.4540  -14.4447   25.0607 C   0  0  0  0  0  0  0  0  0  0  0  0
    9.7635  -14.2294   26.4673 C   0  0  0  0  0  0  0  0  0  0  0  0
   11.0387  -14.4736   26.9585 C   0  0  0  0  0  0  0  0  0  0  0  0
   11.3432  -14.2553   28.2687 C   0  0  0  0  0  0  0  0  0  0  0  0
   10.4116  -13.7843   29.1722 C   0  0  0  0  0  0  0  0  0  0  0  0
    9.1279  -13.5340   28.6969 C   0  0  0  0  0  0  0  0  0  0  0  0
    8.8235  -13.7559   27.3708 C   0  0  0  0  0  0  0  0  0  0  0  0
    8.5200  -16.6300   25.5944 C   0  0  0  0  0  0  0  0  0  0  0  0
    7.1777  -16.8165   25.3776 O   0  0  0  0  0  0  0  0  0  0  0  0
    9.0838  -17.1189   26.6378 O   0  0  0  0  0  0  0  0  0  0  0  0
  2  1  1  0
  3  2  2  0
  4  2  1  0
  5  6  1  6
  5  4  1  0
  7  5  1  0
  7  8  2  0
 10  9  1  6
 10 12  1  0
 11 10  1  0
 12 13  1  6
 12 14  1  0
 13  7  1  0
 14 16  1  0
 15 14  2  0
 16 17  1  0
 17 25  1  0
 18 19  1  0
 17 18  1  1
 19 24  2  0
 20 21  2  0
 20 19  1  0
 21 22  1  0
 22 23  2  0
 24 23  1  0
 25 27  2  0
 25 26  1  0
M  END
$$$$
