NTF.pdb
     RDKit          3D

 27 27  0  0  1  0  0  0  0  0999 V2000
    9.4106  -13.8769   17.0473 N   0  0  0  0  0  0  0  0  0  0  0  0
    8.1716  -13.3180   17.4653 C   0  0  0  0  0  0  0  0  0  0  0  0
    7.3892  -12.9195   16.5644 O   0  0  0  0  0  0  0  0  0  0  0  0
    7.7438  -13.1740   18.8597 C   0  0  0  0  0  0  0  0  0  0  0  0
    8.7387  -13.7194   19.8497 C   0  0  2  0  0  0  0  0  0  0  0  0
    9.7451  -14.5361   19.2752 N   0  0  0  0  0  0  0  0  0  0  0  0
    7.9867  -14.4352   20.9016 C   0  0  0  0  0  0  0  0  0  0  0  0
    6.9926  -13.8763   21.4563 O   0  0  0  0  0  0  0  0  0  0  0  0
    6.5021  -17.9136   21.0587 C   0  0  0  0  0  0  0  0  0  0  0  0
    7.4470  -17.8072   22.2552 C   0  0  1  0  0  0  0  0  0  0  0  0
    8.6636  -18.4105   21.9516 O   0  0  0  0  0  0  0  0  0  0  0  0
    7.6871  -16.3229   22.5066 C   0  0  2  0  0  0  0  0  0  0  0  0
    8.3044  -15.7446   21.3522 N   0  0  0  0  0  0  0  0  0  0  0  0
    8.5118  -16.1878   23.7377 C   0  0  0  0  0  0  0  0  0  0  0  0
    9.7141  -15.8671   23.7259 O   0  0  0  0  0  0  0  0  0  0  0  0
    7.8822  -16.4403   24.9796 N   0  0  0  0  0  0  0  0  0  0  0  0
    8.6136  -16.3133   26.2393 C   0  0  1  0  0  0  0  0  0  0  0  0
    7.8085  -15.5782   27.2462 C   0  0  0  0  0  0  0  0  0  0  0  0
    7.4712  -14.2164   26.8558 C   0  0  0  0  0  0  0  0  0  0  0  0
    6.2281  -13.9214   26.3130 C   0  0  0  0  0  0  0  0  0  0  0  0
    5.8960  -12.6467   25.9640 C   0  0  0  0  0  0  0  0  0  0  0  0
    6.7667  -11.5880   26.1283 C   0  0  0  0  0  0  0  0  0  0  0  0
    8.0175  -11.8657   26.6713 C   0  0  0  0  0  0  0  0  0  0  0  0
    8.3501  -13.1564   27.0232 C   0  0  0  0  0  0  0  0  0  0  0  0
    9.0349  -17.6250   26.7563 C   0  0  0  0  0  0  0  0  0  0  0  0
    8.6489  -18.8106   26.1829 O   0  0  0  0  0  0  0  0  0  0  0  0
    9.7940  -17.6200   27.7904 O   0  0  0  0  0  0  0  0  0  0  0  0
  2  1  1  0
  3  2  2  0
  4  2  1  0
  5  6  1  6
  5  4  1  0
  7  5  1  0
  7  8  2  0
 10  9  1  6
 10 12  1  0
 11 10  1  0
 12 13  1  6
 12 14  1  0
 13  7  1  0
 14 16  1  0
 15 14  2  0
 16 17  1  0
 17 25  1  0
 18 19  1  0
 17 18  1  1
 19 24  2  0
 20 21  2  0
 20 19  1  0
 21 22  1  0
 22 23  2  0
 24 23  1  0
 25 27  2  0
 25 26  1  0
M  END
$$$$
