NTF.pdb
     RDKit          3D

 27 27  0  0  1  0  0  0  0  0999 V2000
    1.8430  -19.8537   21.0614 N   0  0  0  0  0  0  0  0  0  0  0  0
    2.0427  -19.1932   22.3049 C   0  0  0  0  0  0  0  0  0  0  0  0
    1.0307  -19.0219   23.0323 O   0  0  0  0  0  0  0  0  0  0  0  0
    3.3331  -18.7016   22.7962 C   0  0  0  0  0  0  0  0  0  0  0  0
    4.4568  -18.8838   21.8108 C   0  0  2  0  0  0  0  0  0  0  0  0
    4.3434  -20.0449   21.0051 N   0  0  0  0  0  0  0  0  0  0  0  0
    5.7287  -18.8614   22.5633 C   0  0  0  0  0  0  0  0  0  0  0  0
    5.9470  -19.7337   23.4576 O   0  0  0  0  0  0  0  0  0  0  0  0
    8.4886  -19.8856   21.3411 C   0  0  0  0  0  0  0  0  0  0  0  0
    9.0242  -18.5456   21.8444 C   0  0  1  0  0  0  0  0  0  0  0  0
    9.0386  -17.6217   20.8039 O   0  0  0  0  0  0  0  0  0  0  0  0
    8.0631  -18.0541   22.9208 C   0  0  2  0  0  0  0  0  0  0  0  0
    6.7580  -17.9049   22.3529 N   0  0  0  0  0  0  0  0  0  0  0  0
    8.6030  -16.7860   23.4816 C   0  0  0  0  0  0  0  0  0  0  0  0
    8.0810  -15.6733   23.2873 O   0  0  0  0  0  0  0  0  0  0  0  0
    9.7717  -16.8653   24.2755 N   0  0  0  0  0  0  0  0  0  0  0  0
   10.5386  -15.6680   24.6163 C   0  0  1  0  0  0  0  0  0  0  0  0
    9.6775  -14.6613   25.2854 C   0  0  0  0  0  0  0  0  0  0  0  0
    9.6212  -14.7989   26.7341 C   0  0  0  0  0  0  0  0  0  0  0  0
   10.2261  -15.8753   27.3685 C   0  0  0  0  0  0  0  0  0  0  0  0
   10.1965  -16.0015   28.7250 C   0  0  0  0  0  0  0  0  0  0  0  0
    9.5703  -15.0767   29.5367 C   0  0  0  0  0  0  0  0  0  0  0  0
    8.9586  -13.9911   28.9174 C   0  0  0  0  0  0  0  0  0  0  0  0
    8.9906  -13.8666   27.5448 C   0  0  0  0  0  0  0  0  0  0  0  0
   11.7112  -15.9925   25.4438 C   0  0  0  0  0  0  0  0  0  0  0  0
   12.7414  -15.1105   25.6545 O   0  0  0  0  0  0  0  0  0  0  0  0
   11.7374  -17.1607   25.9733 O   0  0  0  0  0  0  0  0  0  0  0  0
  2  1  1  0
  3  2  2  0
  4  2  1  0
  5  6  1  1
  5  4  1  0
  7  5  1  0
  7  8  2  0
 10  9  1  6
 10 12  1  0
 11 10  1  0
 12 13  1  6
 12 14  1  0
 13  7  1  0
 14 16  1  0
 15 14  2  0
 16 17  1  0
 17 25  1  0
 18 19  1  0
 17 18  1  1
 19 24  2  0
 20 21  2  0
 20 19  1  0
 21 22  1  0
 22 23  2  0
 24 23  1  0
 25 27  2  0
 25 26  1  0
M  END
$$$$
