NTF.pdb
     RDKit          3D

 27 27  0  0  1  0  0  0  0  0999 V2000
    8.3653  -12.5904   16.5675 N   0  0  0  0  0  0  0  0  0  0  0  0
    7.9523  -13.8162   17.1584 C   0  0  0  0  0  0  0  0  0  0  0  0
    8.0612  -14.8557   16.4583 O   0  0  0  0  0  0  0  0  0  0  0  0
    7.4130  -13.9545   18.5142 C   0  0  0  0  0  0  0  0  0  0  0  0
    8.4747  -14.1600   19.5619 C   0  0  2  0  0  0  0  0  0  0  0  0
    9.5771  -14.9397   19.1298 N   0  0  0  0  0  0  0  0  0  0  0  0
    7.8272  -14.7416   20.7565 C   0  0  0  0  0  0  0  0  0  0  0  0
    6.8642  -14.1307   21.3112 O   0  0  0  0  0  0  0  0  0  0  0  0
    6.4905  -18.2296   21.3768 C   0  0  0  0  0  0  0  0  0  0  0  0
    7.4717  -17.9465   22.5138 C   0  0  1  0  0  0  0  0  0  0  0  0
    8.7020  -18.5329   22.2332 O   0  0  0  0  0  0  0  0  0  0  0  0
    7.6553  -16.4347   22.5821 C   0  0  2  0  0  0  0  0  0  0  0  0
    8.2155  -15.9733   21.3487 N   0  0  0  0  0  0  0  0  0  0  0  0
    8.5069  -16.1229   23.7617 C   0  0  0  0  0  0  0  0  0  0  0  0
    9.7009  -15.7837   23.6749 O   0  0  0  0  0  0  0  0  0  0  0  0
    7.9141  -16.2218   25.0428 N   0  0  0  0  0  0  0  0  0  0  0  0
    8.6814  -15.9438   26.2560 C   0  0  1  0  0  0  0  0  0  0  0  0
    7.8784  -15.1502   27.2192 C   0  0  0  0  0  0  0  0  0  0  0  0
    7.5431  -13.8128   26.7507 C   0  0  0  0  0  0  0  0  0  0  0  0
    6.2372  -13.4868   26.4109 C   0  0  0  0  0  0  0  0  0  0  0  0
    5.9102  -12.2322   25.9914 C   0  0  0  0  0  0  0  0  0  0  0  0
    6.8481  -11.2252   25.8815 C   0  0  0  0  0  0  0  0  0  0  0  0
    8.1624  -11.5344   26.2181 C   0  0  0  0  0  0  0  0  0  0  0  0
    8.4896  -12.8046   26.6422 C   0  0  0  0  0  0  0  0  0  0  0  0
    9.1795  -17.1809   26.8779 C   0  0  0  0  0  0  0  0  0  0  0  0
   10.0845  -17.1839   27.9096 O   0  0  0  0  0  0  0  0  0  0  0  0
    8.7268  -18.2851   26.4072 O   0  0  0  0  0  0  0  0  0  0  0  0
  2  1  1  0
  3  2  2  0
  4  2  1  0
  5  6  1  6
  5  4  1  0
  7  5  1  0
  7  8  2  0
 10  9  1  6
 10 12  1  0
 11 10  1  0
 12 13  1  6
 12 14  1  0
 13  7  1  0
 14 16  1  0
 15 14  2  0
 16 17  1  0
 17 25  1  0
 18 19  1  0
 17 18  1  1
 19 24  2  0
 20 21  2  0
 20 19  1  0
 21 22  1  0
 22 23  2  0
 24 23  1  0
 25 27  2  0
 25 26  1  0
M  END
$$$$
