NTF.pdb
     RDKit          3D

 27 27  0  0  1  0  0  0  0  0999 V2000
    8.1652  -12.2352   17.0523 N   0  0  0  0  0  0  0  0  0  0  0  0
    7.8804  -13.6018   17.3235 C   0  0  0  0  0  0  0  0  0  0  0  0
    7.9825  -14.4100   16.3648 O   0  0  0  0  0  0  0  0  0  0  0  0
    7.4796  -14.1324   18.6296 C   0  0  0  0  0  0  0  0  0  0  0  0
    8.6302  -14.2968   19.5868 C   0  0  2  0  0  0  0  0  0  0  0  0
    9.7479  -14.9789   19.0433 N   0  0  0  0  0  0  0  0  0  0  0  0
    8.1183  -14.9650   20.8016 C   0  0  0  0  0  0  0  0  0  0  0  0
    7.0852  -14.5125   21.3815 O   0  0  0  0  0  0  0  0  0  0  0  0
    7.3566  -18.6512   21.3534 C   0  0  0  0  0  0  0  0  0  0  0  0
    8.3047  -18.2239   22.4733 C   0  0  1  0  0  0  0  0  0  0  0  0
    9.6122  -18.5656   22.1415 O   0  0  0  0  0  0  0  0  0  0  0  0
    8.2101  -16.7067   22.5869 C   0  0  2  0  0  0  0  0  0  0  0  0
    8.7162  -16.1132   21.3870 N   0  0  0  0  0  0  0  0  0  0  0  0
    8.9540  -16.2847   23.8044 C   0  0  0  0  0  0  0  0  0  0  0  0
   10.0961  -15.7916   23.7736 O   0  0  0  0  0  0  0  0  0  0  0  0
    8.3167  -16.4594   25.0557 N   0  0  0  0  0  0  0  0  0  0  0  0
    8.9437  -16.0034   26.2953 C   0  0  1  0  0  0  0  0  0  0  0  0
    7.9580  -15.3123   27.1633 C   0  0  0  0  0  0  0  0  0  0  0  0
    7.5001  -14.0336   26.6382 C   0  0  0  0  0  0  0  0  0  0  0  0
    8.3185  -12.9133   26.6852 C   0  0  0  0  0  0  0  0  0  0  0  0
    7.9066  -11.7176   26.1777 C   0  0  0  0  0  0  0  0  0  0  0  0
    6.6660  -11.5538   25.5944 C   0  0  0  0  0  0  0  0  0  0  0  0
    5.8325  -12.6667   25.5387 C   0  0  0  0  0  0  0  0  0  0  0  0
    6.2525  -13.8747   26.0531 C   0  0  0  0  0  0  0  0  0  0  0  0
    9.5936  -17.1112   27.0136 C   0  0  0  0  0  0  0  0  0  0  0  0
   10.4630  -16.9140   28.0570 O   0  0  0  0  0  0  0  0  0  0  0  0
    9.3122  -18.2984   26.6176 O   0  0  0  0  0  0  0  0  0  0  0  0
  2  1  1  0
  3  2  2  0
  4  2  1  0
  5  6  1  6
  5  4  1  0
  7  5  1  0
  7  8  2  0
 10  9  1  6
 10 12  1  0
 11 10  1  0
 12 13  1  6
 12 14  1  0
 13  7  1  0
 14 16  1  0
 15 14  2  0
 16 17  1  0
 17 25  1  0
 18 19  1  0
 17 18  1  1
 19 24  2  0
 20 21  2  0
 20 19  1  0
 21 22  1  0
 22 23  2  0
 24 23  1  0
 25 27  2  0
 25 26  1  0
M  END
$$$$
