NTF.pdb
     RDKit          3D

 27 27  0  0  1  0  0  0  0  0999 V2000
   10.7202  -18.2632   15.7853 N   0  0  0  0  0  0  0  0  0  0  0  0
   11.3781  -17.9134   16.9965 C   0  0  0  0  0  0  0  0  0  0  0  0
   12.4411  -18.5281   17.2699 O   0  0  0  0  0  0  0  0  0  0  0  0
   10.9103  -16.8960   17.9421 C   0  0  0  0  0  0  0  0  0  0  0  0
   10.6280  -17.4420   19.3167 C   0  0  2  0  0  0  0  0  0  0  0  0
    9.6692  -18.4860   19.3438 N   0  0  0  0  0  0  0  0  0  0  0  0
   10.2313  -16.3112   20.1817 C   0  0  0  0  0  0  0  0  0  0  0  0
   11.0455  -15.3614   20.3898 O   0  0  0  0  0  0  0  0  0  0  0  0
    7.3189  -13.9190   20.3300 C   0  0  0  0  0  0  0  0  0  0  0  0
    7.3162  -14.6659   21.6633 C   0  0  1  0  0  0  0  0  0  0  0  0
    6.3976  -15.7102   21.6181 O   0  0  0  0  0  0  0  0  0  0  0  0
    8.7113  -15.2503   21.8530 C   0  0  2  0  0  0  0  0  0  0  0  0
    8.9654  -16.2054   20.8180 N   0  0  0  0  0  0  0  0  0  0  0  0
    8.7876  -15.8366   23.2185 C   0  0  0  0  0  0  0  0  0  0  0  0
    8.4498  -17.0046   23.4830 O   0  0  0  0  0  0  0  0  0  0  0  0
    9.2717  -15.0106   24.2605 N   0  0  0  0  0  0  0  0  0  0  0  0
    9.0718  -15.3670   25.6644 C   0  0  1  0  0  0  0  0  0  0  0  0
    7.6624  -15.1420   26.0715 C   0  0  0  0  0  0  0  0  0  0  0  0
    7.3611  -13.7620   26.4258 C   0  0  0  0  0  0  0  0  0  0  0  0
    6.0790  -13.3914   26.8076 C   0  0  0  0  0  0  0  0  0  0  0  0
    5.7923  -12.1068   27.1609 C   0  0  0  0  0  0  0  0  0  0  0  0
    6.7496  -11.1120   27.1592 C   0  0  0  0  0  0  0  0  0  0  0  0
    8.0405  -11.4659   26.7790 C   0  0  0  0  0  0  0  0  0  0  0  0
    8.3269  -12.7663   26.4223 C   0  0  0  0  0  0  0  0  0  0  0  0
    9.4842  -16.7531   25.9360 C   0  0  0  0  0  0  0  0  0  0  0  0
    9.9003  -17.6131   24.9507 O   0  0  0  0  0  0  0  0  0  0  0  0
    9.4376  -17.1391   27.1585 O   0  0  0  0  0  0  0  0  0  0  0  0
  2  1  1  0
  3  2  2  0
  4  2  1  0
  5  6  1  6
  5  4  1  0
  7  5  1  0
  7  8  2  0
 10  9  1  6
 10 12  1  0
 11 10  1  0
 12 13  1  6
 12 14  1  0
 13  7  1  0
 14 16  1  0
 15 14  2  0
 16 17  1  0
 17 25  1  0
 18 19  1  0
 17 18  1  6
 19 24  2  0
 20 21  2  0
 20 19  1  0
 21 22  1  0
 22 23  2  0
 24 23  1  0
 25 27  2  0
 25 26  1  0
M  END
$$$$
