NTF.pdb
     RDKit          3D

 27 27  0  0  1  0  0  0  0  0999 V2000
    7.6978  -12.2835   17.7402 N   0  0  0  0  0  0  0  0  0  0  0  0
    8.3983  -13.1046   18.6662 C   0  0  0  0  0  0  0  0  0  0  0  0
    9.6104  -13.3375   18.4234 O   0  0  0  0  0  0  0  0  0  0  0  0
    7.8140  -13.6944   19.8740 C   0  0  0  0  0  0  0  0  0  0  0  0
    7.9545  -15.1923   19.9360 C   0  0  2  0  0  0  0  0  0  0  0  0
    7.2111  -15.8890   18.9502 N   0  0  0  0  0  0  0  0  0  0  0  0
    7.5939  -15.6260   21.3022 C   0  0  0  0  0  0  0  0  0  0  0  0
    6.4801  -15.2791   21.7998 O   0  0  0  0  0  0  0  0  0  0  0  0
    6.8412  -18.7482   22.6576 C   0  0  0  0  0  0  0  0  0  0  0  0
    7.9742  -18.2959   23.5782 C   0  0  1  0  0  0  0  0  0  0  0  0
    9.1782  -18.8481   23.1520 O   0  0  0  0  0  0  0  0  0  0  0  0
    8.0654  -16.7784   23.4651 C   0  0  2  0  0  0  0  0  0  0  0  0
    8.4285  -16.4281   22.1259 N   0  0  0  0  0  0  0  0  0  0  0  0
    9.0413  -16.2950   24.4789 C   0  0  0  0  0  0  0  0  0  0  0  0
   10.2208  -16.0029   24.2106 O   0  0  0  0  0  0  0  0  0  0  0  0
    8.5901  -16.1656   25.8139 N   0  0  0  0  0  0  0  0  0  0  0  0
    9.4692  -15.6541   26.8643 C   0  0  1  0  0  0  0  0  0  0  0  0
    8.7242  -14.7664   27.7914 C   0  0  0  0  0  0  0  0  0  0  0  0
    7.9195  -13.7532   27.1231 C   0  0  0  0  0  0  0  0  0  0  0  0
    8.4417  -13.0124   26.0716 C   0  0  0  0  0  0  0  0  0  0  0  0
    7.6895  -12.0768   25.4267 C   0  0  0  0  0  0  0  0  0  0  0  0
    6.3803  -11.8152   25.7780 C   0  0  0  0  0  0  0  0  0  0  0  0
    5.8406  -12.5488   26.8301 C   0  0  0  0  0  0  0  0  0  0  0  0
    6.6043  -13.4945   27.4802 C   0  0  0  0  0  0  0  0  0  0  0  0
   10.1307  -16.7455   27.5968 C   0  0  0  0  0  0  0  0  0  0  0  0
    9.8430  -18.0698   27.3798 O   0  0  0  0  0  0  0  0  0  0  0  0
   11.0072  -16.4054   28.4695 O   0  0  0  0  0  0  0  0  0  0  0  0
  2  1  1  0
  3  2  2  0
  4  2  1  0
  5  6  1  6
  5  4  1  0
  7  5  1  0
  7  8  2  0
 10  9  1  6
 10 12  1  0
 11 10  1  0
 12 13  1  6
 12 14  1  0
 13  7  1  0
 14 16  1  0
 15 14  2  0
 16 17  1  0
 17 25  1  0
 18 19  1  0
 17 18  1  1
 19 24  2  0
 20 21  2  0
 20 19  1  0
 21 22  1  0
 22 23  2  0
 24 23  1  0
 25 27  2  0
 25 26  1  0
M  END
$$$$
