NTF.pdb
     RDKit          3D

 27 27  0  0  1  0  0  0  0  0999 V2000
    8.3277  -12.2202   17.1184 N   0  0  0  0  0  0  0  0  0  0  0  0
    8.0017  -13.5374   17.5441 C   0  0  0  0  0  0  0  0  0  0  0  0
    8.1050  -14.4574   16.6923 O   0  0  0  0  0  0  0  0  0  0  0  0
    7.5572  -13.8973   18.8935 C   0  0  0  0  0  0  0  0  0  0  0  0
    8.6922  -14.1102   19.8598 C   0  0  2  0  0  0  0  0  0  0  0  0
    9.7963  -14.8143   19.3166 N   0  0  0  0  0  0  0  0  0  0  0  0
    8.1484  -14.7840   21.0576 C   0  0  0  0  0  0  0  0  0  0  0  0
    7.1128  -14.3214   21.6250 O   0  0  0  0  0  0  0  0  0  0  0  0
    7.3770  -18.4815   21.5741 C   0  0  0  0  0  0  0  0  0  0  0  0
    8.2856  -18.0549   22.7266 C   0  0  1  0  0  0  0  0  0  0  0  0
    9.6030  -18.4015   22.4429 O   0  0  0  0  0  0  0  0  0  0  0  0
    8.1920  -16.5371   22.8335 C   0  0  2  0  0  0  0  0  0  0  0  0
    8.7173  -15.9487   21.6394 N   0  0  0  0  0  0  0  0  0  0  0  0
    8.9182  -16.1122   24.0607 C   0  0  0  0  0  0  0  0  0  0  0  0
   10.0498  -15.5947   24.0433 O   0  0  0  0  0  0  0  0  0  0  0  0
    8.2760  -16.3134   25.3055 N   0  0  0  0  0  0  0  0  0  0  0  0
    8.9283  -15.9484   26.5621 C   0  0  1  0  0  0  0  0  0  0  0  0
    8.0035  -15.1832   27.4350 C   0  0  0  0  0  0  0  0  0  0  0  0
    7.5008  -13.9558   26.8338 C   0  0  0  0  0  0  0  0  0  0  0  0
    8.2391  -12.7818   26.8950 C   0  0  0  0  0  0  0  0  0  0  0  0
    7.7864  -11.6336   26.3175 C   0  0  0  0  0  0  0  0  0  0  0  0
    6.5816  -11.5728   25.6462 C   0  0  0  0  0  0  0  0  0  0  0  0
    5.8283  -12.7407   25.5750 C   0  0  0  0  0  0  0  0  0  0  0  0
    6.2894  -13.9004   26.1604 C   0  0  0  0  0  0  0  0  0  0  0  0
    9.4571  -17.1301   27.2617 C   0  0  0  0  0  0  0  0  0  0  0  0
    9.2496  -18.4125   26.8191 O   0  0  0  0  0  0  0  0  0  0  0  0
   10.1349  -16.9125   28.3288 O   0  0  0  0  0  0  0  0  0  0  0  0
  2  1  1  0
  3  2  2  0
  4  2  1  0
  5  6  1  6
  5  4  1  0
  7  5  1  0
  7  8  2  0
 10  9  1  6
 10 12  1  0
 11 10  1  0
 12 13  1  6
 12 14  1  0
 13  7  1  0
 14 16  1  0
 15 14  2  0
 16 17  1  0
 17 25  1  0
 18 19  1  0
 17 18  1  1
 19 24  2  0
 20 21  2  0
 20 19  1  0
 21 22  1  0
 22 23  2  0
 24 23  1  0
 25 27  2  0
 25 26  1  0
M  END
$$$$
