NTF.pdb
     RDKit          3D

 27 27  0  0  1  0  0  0  0  0999 V2000
   14.4610  -15.9297   18.4934 N   0  0  0  0  0  0  0  0  0  0  0  0
   14.0907  -14.6486   18.9873 C   0  0  0  0  0  0  0  0  0  0  0  0
   15.0215  -13.8431   19.2468 O   0  0  0  0  0  0  0  0  0  0  0  0
   12.7131  -14.2026   19.2140 C   0  0  0  0  0  0  0  0  0  0  0  0
   11.6872  -15.2728   18.9506 C   0  0  2  0  0  0  0  0  0  0  0  0
   11.0707  -15.1888   17.6767 N   0  0  0  0  0  0  0  0  0  0  0  0
   10.6937  -15.2283   20.0440 C   0  0  0  0  0  0  0  0  0  0  0  0
   10.0027  -14.1803   20.2249 O   0  0  0  0  0  0  0  0  0  0  0  0
    7.8581  -17.4038   20.5787 C   0  0  0  0  0  0  0  0  0  0  0  0
    8.5664  -17.4353   21.9326 C   0  0  1  0  0  0  0  0  0  0  0  0
    9.3459  -18.5837   22.0314 O   0  0  0  0  0  0  0  0  0  0  0  0
    9.4815  -16.2173   21.9886 C   0  0  2  0  0  0  0  0  0  0  0  0
   10.4470  -16.3063   20.9360 N   0  0  0  0  0  0  0  0  0  0  0  0
   10.0980  -16.1614   23.3416 C   0  0  0  0  0  0  0  0  0  0  0  0
   11.2724  -16.5004   23.5746 O   0  0  0  0  0  0  0  0  0  0  0  0
    9.2945  -15.6962   24.4095 N   0  0  0  0  0  0  0  0  0  0  0  0
    9.8136  -15.6297   25.7748 C   0  0  1  0  0  0  0  0  0  0  0  0
    9.7974  -14.2340   26.2791 C   0  0  0  0  0  0  0  0  0  0  0  0
    8.4766  -13.6207   26.2831 C   0  0  0  0  0  0  0  0  0  0  0  0
    7.5208  -13.9884   25.3459 C   0  0  0  0  0  0  0  0  0  0  0  0
    6.2755  -13.4352   25.3547 C   0  0  0  0  0  0  0  0  0  0  0  0
    5.8974  -12.4883   26.2855 C   0  0  0  0  0  0  0  0  0  0  0  0
    6.8432  -12.1079   27.2327 C   0  0  0  0  0  0  0  0  0  0  0  0
    8.1020  -12.6696   27.2208 C   0  0  0  0  0  0  0  0  0  0  0  0
    9.0763  -16.5259   26.6795 C   0  0  0  0  0  0  0  0  0  0  0  0
    7.9639  -17.2283   26.2886 O   0  0  0  0  0  0  0  0  0  0  0  0
    9.5214  -16.6280   27.8783 O   0  0  0  0  0  0  0  0  0  0  0  0
  2  1  1  0
  3  2  2  0
  4  2  1  0
  5  6  1  6
  5  4  1  0
  7  5  1  0
  7  8  2  0
 10  9  1  6
 10 12  1  0
 11 10  1  0
 12 13  1  6
 12 14  1  0
 13  7  1  0
 14 16  1  0
 15 14  2  0
 16 17  1  0
 17 25  1  0
 18 19  1  0
 17 18  1  1
 19 24  2  0
 20 21  2  0
 20 19  1  0
 21 22  1  0
 22 23  2  0
 24 23  1  0
 25 27  2  0
 25 26  1  0
M  END
$$$$
