QVS.pdb
     RDKit          3D

 23 22  0  0  1  0  0  0  0  0999 V2000
    5.1475  -18.1694   23.6869 N   0  0  0  0  0  0  0  0  0  0  0  0
    6.3448  -18.4487   22.9730 C   0  0  0  0  0  0  0  0  0  0  0  0
    6.9558  -19.5100   23.2078 O   0  0  0  0  0  0  0  0  0  0  0  0
    6.8512  -17.4956   21.9797 C   0  0  0  0  0  0  0  0  0  0  0  0
    6.0677  -16.2213   21.8926 C   0  0  0  0  0  0  0  0  0  0  0  0
    6.9457  -15.0267   21.7611 C   0  0  2  0  0  0  0  0  0  0  0  0
    7.7763  -14.9639   20.6000 N   0  0  0  0  0  0  0  0  0  0  0  0
    7.6924  -14.7516   23.0391 C   0  0  0  0  0  0  0  0  0  0  0  0
    8.9302  -15.0070   23.1133 O   0  0  0  0  0  0  0  0  0  0  0  0
    7.0291  -11.5378   25.4997 C   0  0  0  0  0  0  0  0  0  0  0  0
    7.2109  -12.8301   26.2250 C   0  0  1  0  0  0  0  0  0  0  0  0
    5.8415  -13.3859   26.5876 C   0  0  0  0  0  0  0  0  0  0  0  0
    7.9040  -13.8919   25.3938 C   0  0  2  0  0  0  0  0  0  0  0  0
    7.0986  -14.2122   24.2035 N   0  0  0  0  0  0  0  0  0  0  0  0
    8.1616  -15.1313   26.1761 C   0  0  0  0  0  0  0  0  0  0  0  0
    7.2583  -15.9519   26.4570 O   0  0  0  0  0  0  0  0  0  0  0  0
   11.8625  -16.5949   26.3506 O   0  0  0  0  0  0  0  0  0  0  0  0
   10.8241  -17.4642   26.6037 C   0  0  0  0  0  0  0  0  0  0  0  0
    9.7412  -16.6958   27.3718 C   0  0  2  0  0  0  0  0  0  0  0  0
    9.4821  -15.4548   26.6566 N   0  0  0  0  0  0  0  0  0  0  0  0
   10.1514  -16.4759   28.7576 C   0  0  0  0  0  0  0  0  0  0  0  0
   10.4441  -17.5488   29.5694 O   0  0  0  0  0  0  0  0  0  0  0  0
   10.2419  -15.3231   29.2220 O   0  0  0  0  0  0  0  0  0  0  0  0
  2  1  1  0
  3  2  2  0
  4  2  1  0
  5  4  1  0
  6  5  1  0
  6  8  1  0
  6  7  1  6
  8  9  2  0
 11 10  1  6
 11 12  1  0
 13 11  1  0
 14  8  1  0
 13 14  1  6
 15 13  1  0
 15 20  1  0
 16 15  2  0
 17 18  1  0
 19 21  1  0
 19 20  1  0
 19 18  1  6
 21 22  1  0
 23 21  2  0
M  END
$$$$
