QVS.pdb
     RDKit          3D

 23 22  0  0  1  0  0  0  0  0999 V2000
    8.2806  -21.4018   18.1975 N   0  0  0  0  0  0  0  0  0  0  0  0
    8.0570  -21.0241   16.8453 C   0  0  0  0  0  0  0  0  0  0  0  0
    7.7707  -21.9048   16.0103 O   0  0  0  0  0  0  0  0  0  0  0  0
    8.1678  -19.6177   16.4438 C   0  0  0  0  0  0  0  0  0  0  0  0
    8.5062  -18.6817   17.5639 C   0  0  0  0  0  0  0  0  0  0  0  0
    8.4743  -17.2561   17.1375 C   0  0  2  0  0  0  0  0  0  0  0  0
    9.0518  -16.9523   15.8662 N   0  0  0  0  0  0  0  0  0  0  0  0
    8.9494  -16.3439   18.2370 C   0  0  0  0  0  0  0  0  0  0  0  0
   10.1886  -16.1352   18.3914 O   0  0  0  0  0  0  0  0  0  0  0  0
    8.0099  -13.2695   22.0716 C   0  0  0  0  0  0  0  0  0  0  0  0
    7.6029  -13.9438   20.8033 C   0  0  1  0  0  0  0  0  0  0  0  0
    7.4601  -12.8921   19.7127 C   0  0  0  0  0  0  0  0  0  0  0  0
    8.6220  -14.9497   20.3052 C   0  0  2  0  0  0  0  0  0  0  0  0
    8.0901  -15.6797   19.1424 N   0  0  0  0  0  0  0  0  0  0  0  0
    9.0177  -15.9140   21.3673 C   0  0  0  0  0  0  0  0  0  0  0  0
    8.2283  -16.7683   21.8313 O   0  0  0  0  0  0  0  0  0  0  0  0
   12.8716  -15.8734   22.9221 O   0  0  0  0  0  0  0  0  0  0  0  0
   12.2565  -17.1012   22.8122 C   0  0  0  0  0  0  0  0  0  0  0  0
   10.7429  -16.8840   22.9343 C   0  0  2  0  0  0  0  0  0  0  0  0
   10.3482  -15.9139   21.9235 N   0  0  0  0  0  0  0  0  0  0  0  0
   10.3911  -16.4646   24.2898 C   0  0  0  0  0  0  0  0  0  0  0  0
   10.6689  -17.2849   25.3602 O   0  0  0  0  0  0  0  0  0  0  0  0
    9.8387  -15.3668   24.4959 O   0  0  0  0  0  0  0  0  0  0  0  0
  2  1  1  0
  3  2  2  0
  4  2  1  0
  5  4  1  0
  6  5  1  0
  6  8  1  0
  6  7  1  6
  8  9  2  0
 11 10  1  1
 11 12  1  0
 13 11  1  0
 14  8  1  0
 13 14  1  6
 15 13  1  0
 15 20  1  0
 16 15  2  0
 17 18  1  0
 19 21  1  0
 19 20  1  0
 19 18  1  1
 21 22  1  0
 23 21  2  0
M  END
$$$$
