QVS.pdb
     RDKit          3D

 23 22  0  0  1  0  0  0  0  0999 V2000
    5.3927  -20.6656   24.8853 N   0  0  0  0  0  0  0  0  0  0  0  0
    6.3310  -20.6110   23.8187 C   0  0  0  0  0  0  0  0  0  0  0  0
    7.1322  -21.5547   23.6686 O   0  0  0  0  0  0  0  0  0  0  0  0
    6.3544  -19.4563   22.9146 C   0  0  0  0  0  0  0  0  0  0  0  0
    7.4163  -18.4474   23.2304 C   0  0  0  0  0  0  0  0  0  0  0  0
    7.0369  -17.0745   22.7989 C   0  0  2  0  0  0  0  0  0  0  0  0
    7.1370  -16.7888   21.4024 N   0  0  0  0  0  0  0  0  0  0  0  0
    7.6858  -16.0282   23.6655 C   0  0  0  0  0  0  0  0  0  0  0  0
    8.8950  -15.7085   23.4691 O   0  0  0  0  0  0  0  0  0  0  0  0
    7.4551  -12.5513   27.2461 C   0  0  0  0  0  0  0  0  0  0  0  0
    6.7956  -13.4665   26.2681 C   0  0  1  0  0  0  0  0  0  0  0  0
    6.1908  -12.6333   25.1475 C   0  0  0  0  0  0  0  0  0  0  0  0
    7.7573  -14.4396   25.6147 C   0  0  2  0  0  0  0  0  0  0  0  0
    7.0276  -15.3517   24.7184 N   0  0  0  0  0  0  0  0  0  0  0  0
    8.5222  -15.2263   26.6200 C   0  0  0  0  0  0  0  0  0  0  0  0
    7.9826  -16.0777   27.3631 O   0  0  0  0  0  0  0  0  0  0  0  0
   12.5733  -14.8484   26.7428 O   0  0  0  0  0  0  0  0  0  0  0  0
   12.0988  -16.0576   27.2018 C   0  0  0  0  0  0  0  0  0  0  0  0
   10.6900  -15.8296   27.7643 C   0  0  2  0  0  0  0  0  0  0  0  0
    9.9426  -15.0459   26.7917 N   0  0  0  0  0  0  0  0  0  0  0  0
   10.7574  -15.1888   29.0765 C   0  0  0  0  0  0  0  0  0  0  0  0
   10.1899  -13.9493   29.2694 O   0  0  0  0  0  0  0  0  0  0  0  0
   11.3249  -15.7502   30.0333 O   0  0  0  0  0  0  0  0  0  0  0  0
  2  1  1  0
  3  2  2  0
  4  2  1  0
  5  4  1  0
  6  5  1  0
  6  8  1  0
  6  7  1  6
  8  9  2  0
 11 10  1  1
 11 12  1  0
 13 11  1  0
 14  8  1  0
 13 14  1  6
 15 13  1  0
 15 20  1  0
 16 15  2  0
 17 18  1  0
 19 21  1  0
 19 20  1  0
 19 18  1  6
 21 22  1  0
 23 21  2  0
M  END
$$$$
