QVS.pdb
     RDKit          3D

 23 22  0  0  1  0  0  0  0  0999 V2000
    7.2962  -21.0508   25.6355 N   0  0  0  0  0  0  0  0  0  0  0  0
    6.1467  -20.9807   24.8020 C   0  0  0  0  0  0  0  0  0  0  0  0
    5.3995  -21.9753   24.7164 O   0  0  0  0  0  0  0  0  0  0  0  0
    5.8523  -19.7547   24.0524 C   0  0  0  0  0  0  0  0  0  0  0  0
    6.8011  -18.6261   24.3193 C   0  0  0  0  0  0  0  0  0  0  0  0
    6.4749  -17.4134   23.5204 C   0  0  2  0  0  0  0  0  0  0  0  0
    6.5181  -17.5494   22.0986 N   0  0  0  0  0  0  0  0  0  0  0  0
    7.2234  -16.2078   24.0232 C   0  0  0  0  0  0  0  0  0  0  0  0
    8.3711  -15.9403   23.5604 O   0  0  0  0  0  0  0  0  0  0  0  0
    7.6810  -12.3392   27.1563 C   0  0  0  0  0  0  0  0  0  0  0  0
    6.8347  -13.2912   26.3775 C   0  0  1  0  0  0  0  0  0  0  0  0
    6.1667  -12.5348   25.2385 C   0  0  0  0  0  0  0  0  0  0  0  0
    7.6272  -14.4179   25.7441 C   0  0  2  0  0  0  0  0  0  0  0  0
    6.7278  -15.3204   25.0063 N   0  0  0  0  0  0  0  0  0  0  0  0
    8.3997  -15.1915   26.7538 C   0  0  0  0  0  0  0  0  0  0  0  0
    7.8787  -16.0796   27.4665 O   0  0  0  0  0  0  0  0  0  0  0  0
   12.4781  -15.1572   26.7203 O   0  0  0  0  0  0  0  0  0  0  0  0
   11.8340  -16.2251   27.3055 C   0  0  0  0  0  0  0  0  0  0  0  0
   10.5539  -15.6998   27.9677 C   0  0  2  0  0  0  0  0  0  0  0  0
    9.8064  -14.9547   26.9654 N   0  0  0  0  0  0  0  0  0  0  0  0
   10.8765  -14.8973   29.1463 C   0  0  0  0  0  0  0  0  0  0  0  0
   11.5594  -15.4620   30.2001 O   0  0  0  0  0  0  0  0  0  0  0  0
   10.5410  -13.6992   29.2149 O   0  0  0  0  0  0  0  0  0  0  0  0
  2  1  1  0
  3  2  2  0
  4  2  1  0
  5  4  1  0
  6  5  1  0
  6  8  1  0
  6  7  1  6
  8  9  2  0
 11 10  1  6
 11 12  1  0
 13 11  1  0
 14  8  1  0
 13 14  1  1
 15 13  1  0
 15 20  1  0
 16 15  2  0
 17 18  1  0
 19 21  1  0
 19 20  1  0
 19 18  1  6
 21 22  1  0
 23 21  2  0
M  END
$$$$
