QVS.pdb
     RDKit          3D

 23 22  0  0  1  0  0  0  0  0999 V2000
    4.9700  -20.3241   17.4998 N   0  0  0  0  0  0  0  0  0  0  0  0
    6.3017  -20.5810   17.9260 C   0  0  0  0  0  0  0  0  0  0  0  0
    6.6844  -21.7626   18.0366 O   0  0  0  0  0  0  0  0  0  0  0  0
    7.2057  -19.4678   18.2344 C   0  0  0  0  0  0  0  0  0  0  0  0
    6.5892  -18.1112   18.0769 C   0  0  0  0  0  0  0  0  0  0  0  0
    7.5367  -17.1254   17.4891 C   0  0  2  0  0  0  0  0  0  0  0  0
    8.2816  -17.5518   16.3466 N   0  0  0  0  0  0  0  0  0  0  0  0
    8.3934  -16.4880   18.5505 C   0  0  0  0  0  0  0  0  0  0  0  0
    9.6328  -16.7423   18.5969 O   0  0  0  0  0  0  0  0  0  0  0  0
    7.6123  -12.7510   20.0601 C   0  0  0  0  0  0  0  0  0  0  0  0
    8.1358  -13.7083   21.0792 C   0  0  1  0  0  0  0  0  0  0  0  0
    6.9696  -14.2325   21.9043 C   0  0  0  0  0  0  0  0  0  0  0  0
    8.8160  -14.9190   20.4710 C   0  0  2  0  0  0  0  0  0  0  0  0
    7.9049  -15.5972   19.5340 N   0  0  0  0  0  0  0  0  0  0  0  0
    9.2764  -15.8797   21.5100 C   0  0  0  0  0  0  0  0  0  0  0  0
    8.5368  -16.7772   21.9745 O   0  0  0  0  0  0  0  0  0  0  0  0
   13.2285  -15.9310   22.5675 O   0  0  0  0  0  0  0  0  0  0  0  0
   12.5524  -17.1269   22.6713 C   0  0  0  0  0  0  0  0  0  0  0  0
   11.0871  -16.8143   23.0002 C   0  0  2  0  0  0  0  0  0  0  0  0
   10.6157  -15.8254   22.0419 N   0  0  0  0  0  0  0  0  0  0  0  0
   10.9548  -16.3682   24.3860 C   0  0  0  0  0  0  0  0  0  0  0  0
   10.4025  -15.1384   24.6656 O   0  0  0  0  0  0  0  0  0  0  0  0
   11.3368  -17.0885   25.3284 O   0  0  0  0  0  0  0  0  0  0  0  0
  2  1  1  0
  3  2  2  0
  4  2  1  0
  5  4  1  0
  6  5  1  0
  6  8  1  0
  6  7  1  6
  8  9  2  0
 11 10  1  6
 11 12  1  0
 13 11  1  0
 14  8  1  0
 13 14  1  6
 15 13  1  0
 15 20  1  0
 16 15  2  0
 17 18  1  0
 19 21  1  0
 19 20  1  0
 19 18  1  6
 21 22  1  0
 23 21  2  0
M  END
$$$$
