QVS.pdb
     RDKit          3D

 23 22  0  0  1  0  0  0  0  0999 V2000
    9.2683  -21.1889   19.2650 N   0  0  0  0  0  0  0  0  0  0  0  0
    8.0224  -21.0688   18.5910 C   0  0  0  0  0  0  0  0  0  0  0  0
    7.1513  -21.9430   18.7690 O   0  0  0  0  0  0  0  0  0  0  0  0
    7.7736  -19.9332   17.6967 C   0  0  0  0  0  0  0  0  0  0  0  0
    8.9182  -18.9723   17.5872 C   0  0  0  0  0  0  0  0  0  0  0  0
    8.4644  -17.5839   17.3017 C   0  0  2  0  0  0  0  0  0  0  0  0
    8.6650  -17.1027   15.9712 N   0  0  0  0  0  0  0  0  0  0  0  0
    8.9422  -16.6228   18.3575 C   0  0  0  0  0  0  0  0  0  0  0  0
   10.1533  -16.2543   18.3728 O   0  0  0  0  0  0  0  0  0  0  0  0
    7.9898  -13.2711   21.9124 C   0  0  0  0  0  0  0  0  0  0  0  0
    7.5868  -14.1367   20.7645 C   0  0  1  0  0  0  0  0  0  0  0  0
    7.3505  -13.2564   19.5459 C   0  0  0  0  0  0  0  0  0  0  0  0
    8.6488  -15.1449   20.3721 C   0  0  2  0  0  0  0  0  0  0  0  0
    8.1154  -16.0814   19.3688 N   0  0  0  0  0  0  0  0  0  0  0  0
    9.1588  -15.9024   21.5471 C   0  0  0  0  0  0  0  0  0  0  0  0
    8.4478  -16.7068   22.1917 O   0  0  0  0  0  0  0  0  0  0  0  0
   13.0078  -15.2449   23.0754 O   0  0  0  0  0  0  0  0  0  0  0  0
   12.5460  -16.5426   23.0515 C   0  0  0  0  0  0  0  0  0  0  0  0
   11.0157  -16.5015   23.1490 C   0  0  2  0  0  0  0  0  0  0  0  0
   10.5160  -15.7467   22.0091 N   0  0  0  0  0  0  0  0  0  0  0  0
   10.5968  -15.9360   24.4303 C   0  0  0  0  0  0  0  0  0  0  0  0
   10.9318  -16.5686   25.6065 O   0  0  0  0  0  0  0  0  0  0  0  0
    9.9353  -14.8810   24.4775 O   0  0  0  0  0  0  0  0  0  0  0  0
  2  1  1  0
  3  2  2  0
  4  2  1  0
  5  4  1  0
  6  5  1  0
  6  8  1  0
  6  7  1  6
  8  9  2  0
 11 10  1  1
 11 12  1  0
 13 11  1  0
 14  8  1  0
 13 14  1  6
 15 13  1  0
 15 20  1  0
 16 15  2  0
 17 18  1  0
 19 21  1  0
 19 20  1  0
 19 18  1  1
 21 22  1  0
 23 21  2  0
M  END
$$$$
