QVS.pdb
     RDKit          3D

 23 22  0  0  1  0  0  0  0  0999 V2000
   11.8725  -20.5029   15.4365 N   0  0  0  0  0  0  0  0  0  0  0  0
   10.5032  -20.2467   15.7199 C   0  0  0  0  0  0  0  0  0  0  0  0
    9.8359  -21.1148   16.3164 O   0  0  0  0  0  0  0  0  0  0  0  0
    9.8891  -18.9794   15.3093 C   0  0  0  0  0  0  0  0  0  0  0  0
   10.1347  -17.8413   16.2526 C   0  0  0  0  0  0  0  0  0  0  0  0
    8.9279  -17.5030   17.0553 C   0  0  2  0  0  0  0  0  0  0  0  0
    7.7978  -17.0029   16.3377 N   0  0  0  0  0  0  0  0  0  0  0  0
    9.2843  -16.6673   18.2558 C   0  0  0  0  0  0  0  0  0  0  0  0
   10.4656  -16.6891   18.7107 O   0  0  0  0  0  0  0  0  0  0  0  0
    8.1144  -13.0176   21.4757 C   0  0  0  0  0  0  0  0  0  0  0  0
    7.7323  -13.9485   20.3727 C   0  0  1  0  0  0  0  0  0  0  0  0
    7.4988  -13.1382   19.1059 C   0  0  0  0  0  0  0  0  0  0  0  0
    8.8090  -14.9645   20.0455 C   0  0  2  0  0  0  0  0  0  0  0  0
    8.3709  -15.8316   18.9391 N   0  0  0  0  0  0  0  0  0  0  0  0
    9.1667  -15.7966   21.2263 C   0  0  0  0  0  0  0  0  0  0  0  0
    8.4148  -16.6930   21.6729 O   0  0  0  0  0  0  0  0  0  0  0  0
   12.6506  -17.2846   24.2128 O   0  0  0  0  0  0  0  0  0  0  0  0
   12.2994  -16.5968   23.0720 C   0  0  0  0  0  0  0  0  0  0  0  0
   10.7729  -16.4456   23.0625 C   0  0  2  0  0  0  0  0  0  0  0  0
   10.4141  -15.6107   21.9255 N   0  0  0  0  0  0  0  0  0  0  0  0
   10.3018  -15.9024   24.3352 C   0  0  0  0  0  0  0  0  0  0  0  0
   10.2464  -16.7071   25.4511 O   0  0  0  0  0  0  0  0  0  0  0  0
    9.9458  -14.7119   24.4293 O   0  0  0  0  0  0  0  0  0  0  0  0
  2  1  1  0
  3  2  2  0
  4  2  1  0
  5  4  1  0
  6  5  1  0
  6  8  1  0
  6  7  1  6
  8  9  2  0
 11 10  1  1
 11 12  1  0
 13 11  1  0
 14  8  1  0
 13 14  1  6
 15 13  1  0
 15 20  1  0
 16 15  2  0
 17 18  1  0
 19 21  1  0
 19 20  1  0
 19 18  1  1
 21 22  1  0
 23 21  2  0
M  END
$$$$
