QVS.pdb
     RDKit          3D

 23 22  0  0  1  0  0  0  0  0999 V2000
   10.4928  -17.4394   28.4108 N   0  0  0  0  0  0  0  0  0  0  0  0
    9.6577  -18.5293   28.7790 C   0  0  0  0  0  0  0  0  0  0  0  0
    9.2282  -18.5948   29.9478 O   0  0  0  0  0  0  0  0  0  0  0  0
    9.3142  -19.5613   27.7948 C   0  0  0  0  0  0  0  0  0  0  0  0
    8.6040  -19.0436   26.5812 C   0  0  0  0  0  0  0  0  0  0  0  0
    7.2675  -18.4763   26.9082 C   0  0  2  0  0  0  0  0  0  0  0  0
    6.2305  -19.4101   27.2160 N   0  0  0  0  0  0  0  0  0  0  0  0
    6.8503  -17.4389   25.9001 C   0  0  0  0  0  0  0  0  0  0  0  0
    6.0657  -17.7552   24.9581 O   0  0  0  0  0  0  0  0  0  0  0  0
    5.9081  -13.4863   26.2731 C   0  0  0  0  0  0  0  0  0  0  0  0
    6.9838  -13.7484   25.2715 C   0  0  1  0  0  0  0  0  0  0  0  0
    8.3334  -13.4701   25.9171 C   0  0  0  0  0  0  0  0  0  0  0  0
    7.0200  -15.1864   24.7928 C   0  0  2  0  0  0  0  0  0  0  0  0
    7.2818  -16.0925   25.9234 N   0  0  0  0  0  0  0  0  0  0  0  0
    8.0434  -15.3949   23.7328 C   0  0  0  0  0  0  0  0  0  0  0  0
    9.2127  -15.7642   23.9871 O   0  0  0  0  0  0  0  0  0  0  0  0
    7.6547  -13.9632   19.9141 O   0  0  0  0  0  0  0  0  0  0  0  0
    7.9975  -15.2973   19.9405 C   0  0  0  0  0  0  0  0  0  0  0  0
    8.6609  -15.5880   21.2927 C   0  0  2  0  0  0  0  0  0  0  0  0
    7.7366  -15.1796   22.3403 N   0  0  0  0  0  0  0  0  0  0  0  0
    9.9555  -14.9154   21.3858 C   0  0  0  0  0  0  0  0  0  0  0  0
   10.1794  -13.9826   22.3734 O   0  0  0  0  0  0  0  0  0  0  0  0
   10.8694  -15.1738   20.5789 O   0  0  0  0  0  0  0  0  0  0  0  0
  2  1  1  0
  3  2  2  0
  4  2  1  0
  5  4  1  0
  6  5  1  0
  6  8  1  0
  6  7  1  6
  8  9  2  0
 11 10  1  1
 11 12  1  0
 13 11  1  0
 14  8  1  0
 13 14  1  1
 15 13  1  0
 15 20  1  0
 16 15  2  0
 17 18  1  0
 19 21  1  0
 19 20  1  0
 19 18  1  6
 21 22  1  0
 23 21  2  0
M  END
$$$$
