QVS.pdb
     RDKit          3D

 23 22  0  0  1  0  0  0  0  0999 V2000
    4.7512  -19.4184   22.3853 N   0  0  0  0  0  0  0  0  0  0  0  0
    5.9373  -19.4301   21.6018 C   0  0  0  0  0  0  0  0  0  0  0  0
    6.1257  -20.3687   20.8028 O   0  0  0  0  0  0  0  0  0  0  0  0
    6.9237  -18.3532   21.7397 C   0  0  0  0  0  0  0  0  0  0  0  0
    6.5255  -17.2714   22.6969 C   0  0  0  0  0  0  0  0  0  0  0  0
    7.0883  -15.9468   22.3177 C   0  0  2  0  0  0  0  0  0  0  0  0
    7.8662  -15.8978   21.1201 N   0  0  0  0  0  0  0  0  0  0  0  0
    7.7611  -15.2812   23.4886 C   0  0  0  0  0  0  0  0  0  0  0  0
    9.0247  -15.2700   23.5667 O   0  0  0  0  0  0  0  0  0  0  0  0
    7.5916  -12.3694   27.5379 C   0  0  0  0  0  0  0  0  0  0  0  0
    6.9081  -13.0491   26.3978 C   0  0  1  0  0  0  0  0  0  0  0  0
    6.5230  -12.0025   25.3625 C   0  0  0  0  0  0  0  0  0  0  0  0
    7.7877  -14.0591   25.6874 C   0  0  2  0  0  0  0  0  0  0  0  0
    7.0679  -14.6462   24.5449 N   0  0  0  0  0  0  0  0  0  0  0  0
    8.2465  -15.1392   26.6024 C   0  0  0  0  0  0  0  0  0  0  0  0
    7.4647  -15.9859   27.0924 O   0  0  0  0  0  0  0  0  0  0  0  0
   12.1499  -16.2774   26.7988 O   0  0  0  0  0  0  0  0  0  0  0  0
   11.1520  -17.1329   27.2113 C   0  0  0  0  0  0  0  0  0  0  0  0
   10.0709  -16.2968   27.9079 C   0  0  2  0  0  0  0  0  0  0  0  0
    9.6334  -15.2675   26.9764 N   0  0  0  0  0  0  0  0  0  0  0  0
   10.5765  -15.7459   29.1641 C   0  0  0  0  0  0  0  0  0  0  0  0
   11.0252  -16.5885   30.1563 O   0  0  0  0  0  0  0  0  0  0  0  0
   10.6088  -14.5149   29.3549 O   0  0  0  0  0  0  0  0  0  0  0  0
  2  1  1  0
  3  2  2  0
  4  2  1  0
  5  4  1  0
  6  5  1  0
  6  8  1  0
  6  7  1  6
  8  9  2  0
 11 10  1  1
 11 12  1  0
 13 11  1  0
 14  8  1  0
 13 14  1  6
 15 13  1  0
 15 20  1  0
 16 15  2  0
 17 18  1  0
 19 21  1  0
 19 20  1  0
 19 18  1  6
 21 22  1  0
 23 21  2  0
M  END
$$$$
