QVS.pdb
     RDKit          3D

 23 22  0  0  1  0  0  0  0  0999 V2000
   12.5228  -17.4457   15.4810 N   0  0  0  0  0  0  0  0  0  0  0  0
   11.6366  -18.3258   14.8020 C   0  0  0  0  0  0  0  0  0  0  0  0
   12.1118  -19.2381   14.0971 O   0  0  0  0  0  0  0  0  0  0  0  0
   10.1854  -18.1547   14.9289 C   0  0  0  0  0  0  0  0  0  0  0  0
    9.7737  -16.9727   15.7529 C   0  0  0  0  0  0  0  0  0  0  0  0
    9.1160  -17.3739   17.0264 C   0  0  2  0  0  0  0  0  0  0  0  0
    7.7316  -17.7204   16.9536 N   0  0  0  0  0  0  0  0  0  0  0  0
    9.4259  -16.4020   18.1336 C   0  0  0  0  0  0  0  0  0  0  0  0
   10.6276  -16.0869   18.3778 O   0  0  0  0  0  0  0  0  0  0  0  0
    8.0024  -13.1502   21.6413 C   0  0  0  0  0  0  0  0  0  0  0  0
    7.6952  -14.0179   20.4658 C   0  0  1  0  0  0  0  0  0  0  0  0
    7.4692  -13.1328   19.2487 C   0  0  0  0  0  0  0  0  0  0  0  0
    8.8232  -14.9660   20.1093 C   0  0  2  0  0  0  0  0  0  0  0  0
    8.4459  -15.7929   18.9509 N   0  0  0  0  0  0  0  0  0  0  0  0
    9.1969  -15.8419   21.2528 C   0  0  0  0  0  0  0  0  0  0  0  0
    8.5013  -16.8206   21.6087 O   0  0  0  0  0  0  0  0  0  0  0  0
   12.8688  -16.8029   22.1557 O   0  0  0  0  0  0  0  0  0  0  0  0
   12.2756  -16.3800   23.3249 C   0  0  0  0  0  0  0  0  0  0  0  0
   10.7551  -16.4619   23.1398 C   0  0  2  0  0  0  0  0  0  0  0  0
   10.3951  -15.6051   22.0195 N   0  0  0  0  0  0  0  0  0  0  0  0
   10.0658  -16.0971   24.3762 C   0  0  0  0  0  0  0  0  0  0  0  0
   10.1760  -16.8986   25.4903 O   0  0  0  0  0  0  0  0  0  0  0  0
    9.3733  -15.0631   24.4407 O   0  0  0  0  0  0  0  0  0  0  0  0
  2  1  1  0
  3  2  2  0
  4  2  1  0
  5  4  1  0
  6  5  1  0
  6  8  1  0
  6  7  1  6
  8  9  2  0
 11 10  1  1
 11 12  1  0
 13 11  1  0
 14  8  1  0
 13 14  1  6
 15 13  1  0
 15 20  1  0
 16 15  2  0
 17 18  1  0
 19 21  1  0
 19 20  1  0
 19 18  1  1
 21 22  1  0
 23 21  2  0
M  END
$$$$
