YTF.pdb
     RDKit          3D

 31 32  0  0  1  0  0  0  0  0999 V2000
   16.9008  -15.6083   18.3098 O   0  0  0  0  0  0  0  0  0  0  0  0
   15.6226  -15.2026   18.6411 C   0  0  0  0  0  0  0  0  0  0  0  0
   14.8843  -14.3582   17.8373 C   0  0  0  0  0  0  0  0  0  0  0  0
   13.6147  -13.9403   18.1423 C   0  0  0  0  0  0  0  0  0  0  0  0
   13.0451  -14.3829   19.3070 C   0  0  0  0  0  0  0  0  0  0  0  0
   11.6709  -13.9548   19.6764 C   0  0  0  0  0  0  0  0  0  0  0  0
   10.7230  -15.0495   19.2545 C   0  0  2  0  0  0  0  0  0  0  0  0
   10.2115  -14.7336   17.9372 N   0  0  0  0  0  0  0  0  0  0  0  0
    9.5716  -15.0357   20.2255 C   0  0  0  0  0  0  0  0  0  0  0  0
    8.3986  -14.8023   19.8358 O   0  0  0  0  0  0  0  0  0  0  0  0
   13.7464  -15.2268   20.1387 C   0  0  0  0  0  0  0  0  0  0  0  0
   15.0360  -15.6420   19.8139 C   0  0  0  0  0  0  0  0  0  0  0  0
    7.1119  -15.9421   20.6350 C   0  0  0  0  0  0  0  0  0  0  0  0
    7.6434  -16.4341   21.9794 C   0  0  1  0  0  0  0  0  0  0  0  0
    8.1910  -17.6751   21.7856 O   0  0  0  0  0  0  0  0  0  0  0  0
    8.6428  -15.4100   22.5358 C   0  0  2  0  0  0  0  0  0  0  0  0
    9.7549  -15.2830   21.6117 N   0  0  0  0  0  0  0  0  0  0  0  0
    9.0901  -15.9355   23.8516 C   0  0  0  0  0  0  0  0  0  0  0  0
   10.0135  -16.8029   23.8554 O   0  0  0  0  0  0  0  0  0  0  0  0
    8.5691  -15.5453   25.0946 N   0  0  0  0  0  0  0  0  0  0  0  0
    9.0807  -16.0464   26.3742 C   0  0  1  0  0  0  0  0  0  0  0  0
    9.1741  -14.8064   27.2746 C   0  0  0  0  0  0  0  0  0  0  0  0
    8.0550  -13.8816   27.0167 C   0  0  0  0  0  0  0  0  0  0  0  0
    6.7830  -14.1363   27.4572 C   0  0  0  0  0  0  0  0  0  0  0  0
    5.7687  -13.2432   27.1921 C   0  0  0  0  0  0  0  0  0  0  0  0
    5.9704  -12.0696   26.4851 C   0  0  0  0  0  0  0  0  0  0  0  0
    7.2650  -11.8364   26.0516 C   0  0  0  0  0  0  0  0  0  0  0  0
    8.2948  -12.7176   26.3063 C   0  0  0  0  0  0  0  0  0  0  0  0
    8.1979  -17.0604   26.9493 C   0  0  0  0  0  0  0  0  0  0  0  0
    8.4796  -17.6144   28.0394 O   0  0  0  0  0  0  0  0  0  0  0  0
    7.0255  -17.4456   26.3177 O   0  0  0  0  0  0  0  0  0  0  0  0
  2  1  1  0
  3  2  2  0
  4  3  1  0
  5  4  2  0
  5 11  1  0
  6  5  1  0
  7  6  1  0
  7  8  1  6
  9  7  1  0
  9 17  1  0
 10  9  2  0
 11 12  2  0
 12  2  1  0
 14 13  1  6
 14 16  1  0
 15 14  1  0
 16 17  1  6
 16 18  1  0
 18 20  1  0
 19 18  2  0
 20 21  1  0
 21 29  1  0
 21 22  1  1
 23 22  1  0
 24 23  2  0
 25 24  1  0
 26 25  2  0
 26 27  1  0
 27 28  2  0
 28 23  1  0
 29 30  2  0
 29 31  1  0
M  END
$$$$
