YTF.pdb
     RDKit          3D

 31 32  0  0  1  0  0  0  0  0999 V2000
    7.4549  -12.2672   15.9532 O   0  0  0  0  0  0  0  0  0  0  0  0
    7.4281  -12.9420   17.1583 C   0  0  0  0  0  0  0  0  0  0  0  0
    7.9773  -12.4177   18.3105 C   0  0  0  0  0  0  0  0  0  0  0  0
    7.9644  -13.0658   19.5185 C   0  0  0  0  0  0  0  0  0  0  0  0
    7.3754  -14.3007   19.5894 C   0  0  0  0  0  0  0  0  0  0  0  0
    7.3391  -15.0383   20.8788 C   0  0  0  0  0  0  0  0  0  0  0  0
    8.5596  -15.9228   20.9329 C   0  0  2  0  0  0  0  0  0  0  0  0
    8.4454  -16.9292   19.8982 N   0  0  0  0  0  0  0  0  0  0  0  0
    8.5447  -16.6152   22.2707 C   0  0  0  0  0  0  0  0  0  0  0  0
    7.7930  -17.6015   22.4810 O   0  0  0  0  0  0  0  0  0  0  0  0
    6.8150  -14.8613   18.4636 C   0  0  0  0  0  0  0  0  0  0  0  0
    6.8366  -14.1892   17.2435 C   0  0  0  0  0  0  0  0  0  0  0  0
    9.8558  -19.0305   22.9677 C   0  0  0  0  0  0  0  0  0  0  0  0
   10.5950  -18.1870   24.0040 C   0  0  1  0  0  0  0  0  0  0  0  0
   11.7602  -17.7466   23.4331 O   0  0  0  0  0  0  0  0  0  0  0  0
    9.6815  -17.0467   24.4756 C   0  0  2  0  0  0  0  0  0  0  0  0
    9.3701  -16.1908   23.3453 N   0  0  0  0  0  0  0  0  0  0  0  0
   10.4389  -16.3096   25.5198 C   0  0  0  0  0  0  0  0  0  0  0  0
   11.1808  -15.3538   25.1439 O   0  0  0  0  0  0  0  0  0  0  0  0
   10.3971  -16.5890   26.8942 N   0  0  0  0  0  0  0  0  0  0  0  0
   10.2871  -15.5502   27.9232 C   0  0  1  0  0  0  0  0  0  0  0  0
    8.7782  -15.3312   28.1032 C   0  0  0  0  0  0  0  0  0  0  0  0
    8.3149  -14.1753   27.3136 C   0  0  0  0  0  0  0  0  0  0  0  0
    7.2236  -14.2468   26.4887 C   0  0  0  0  0  0  0  0  0  0  0  0
    6.8278  -13.1408   25.7696 C   0  0  0  0  0  0  0  0  0  0  0  0
    7.4915  -11.9272   25.8374 C   0  0  0  0  0  0  0  0  0  0  0  0
    8.5909  -11.8821   26.6785 C   0  0  0  0  0  0  0  0  0  0  0  0
    9.0038  -12.9778   27.4070 C   0  0  0  0  0  0  0  0  0  0  0  0
   10.9217  -15.9604   29.1751 C   0  0  0  0  0  0  0  0  0  0  0  0
   11.0642  -15.1472   30.1201 O   0  0  0  0  0  0  0  0  0  0  0  0
   11.3866  -17.2525   29.3647 O   0  0  0  0  0  0  0  0  0  0  0  0
  2  1  1  0
  3  2  2  0
  4  3  1  0
  5  4  2  0
  5 11  1  0
  6  5  1  0
  7  6  1  0
  7  8  1  6
  9  7  1  0
  9 17  1  0
 10  9  2  0
 11 12  2  0
 12  2  1  0
 14 13  1  6
 14 16  1  0
 15 14  1  0
 16 17  1  6
 16 18  1  0
 18 20  1  0
 19 18  2  0
 20 21  1  0
 21 29  1  0
 21 22  1  1
 23 22  1  0
 24 23  2  0
 25 24  1  0
 26 25  2  0
 26 27  1  0
 27 28  2  0
 28 23  1  0
 29 30  2  0
 29 31  1  0
M  END
$$$$
