YTF.pdb
     RDKit          3D

 31 32  0  0  1  0  0  0  0  0999 V2000
    7.9046  -11.9161   16.7377 O   0  0  0  0  0  0  0  0  0  0  0  0
    7.7465  -12.5858   17.9355 C   0  0  0  0  0  0  0  0  0  0  0  0
    8.6980  -12.5472   18.9343 C   0  0  0  0  0  0  0  0  0  0  0  0
    8.5663  -13.2021   20.1314 C   0  0  0  0  0  0  0  0  0  0  0  0
    7.4302  -13.9354   20.3516 C   0  0  0  0  0  0  0  0  0  0  0  0
    7.2464  -14.6612   21.6352 C   0  0  0  0  0  0  0  0  0  0  0  0
    7.9514  -15.9890   21.5136 C   0  0  2  0  0  0  0  0  0  0  0  0
    7.1489  -16.8623   20.6830 N   0  0  0  0  0  0  0  0  0  0  0  0
    8.0195  -16.5816   22.8968 C   0  0  0  0  0  0  0  0  0  0  0  0
    6.9761  -16.9475   23.4964 O   0  0  0  0  0  0  0  0  0  0  0  0
    6.4550  -14.0013   19.3819 C   0  0  0  0  0  0  0  0  0  0  0  0
    6.6045  -13.3296   18.1705 C   0  0  0  0  0  0  0  0  0  0  0  0
    9.5630  -19.6641   23.9610 C   0  0  0  0  0  0  0  0  0  0  0  0
   10.2395  -18.5985   24.8205 C   0  0  1  0  0  0  0  0  0  0  0  0
   11.4701  -18.3393   24.2766 O   0  0  0  0  0  0  0  0  0  0  0  0
    9.3365  -17.3592   24.8970 C   0  0  2  0  0  0  0  0  0  0  0  0
    9.2519  -16.7529   23.5809 N   0  0  0  0  0  0  0  0  0  0  0  0
    9.9712  -16.4399   25.8764 C   0  0  0  0  0  0  0  0  0  0  0  0
   10.9103  -15.6969   25.4626 O   0  0  0  0  0  0  0  0  0  0  0  0
    9.6113  -16.3287   27.2280 N   0  0  0  0  0  0  0  0  0  0  0  0
   10.3838  -15.5549   28.2050 C   0  0  1  0  0  0  0  0  0  0  0  0
    9.3450  -14.6921   28.9353 C   0  0  0  0  0  0  0  0  0  0  0  0
    8.6454  -13.7985   27.9937 C   0  0  0  0  0  0  0  0  0  0  0  0
    9.2677  -12.7297   27.4048 C   0  0  0  0  0  0  0  0  0  0  0  0
    8.5738  -11.9218   26.5315 C   0  0  0  0  0  0  0  0  0  0  0  0
    7.2447  -12.1375   26.2076 C   0  0  0  0  0  0  0  0  0  0  0  0
    6.6397  -13.2244   26.8166 C   0  0  0  0  0  0  0  0  0  0  0  0
    7.3165  -14.0456   27.6939 C   0  0  0  0  0  0  0  0  0  0  0  0
   11.1058  -16.4240   29.1334 C   0  0  0  0  0  0  0  0  0  0  0  0
   11.8956  -15.9433   29.9817 O   0  0  0  0  0  0  0  0  0  0  0  0
   10.9470  -17.8010   29.1122 O   0  0  0  0  0  0  0  0  0  0  0  0
  2  1  1  0
  3  2  2  0
  4  3  1  0
  5  4  2  0
  5 11  1  0
  6  5  1  0
  7  6  1  0
  7  8  1  6
  9  7  1  0
  9 17  1  0
 10  9  2  0
 11 12  2  0
 12  2  1  0
 14 13  1  6
 14 16  1  0
 15 14  1  0
 16 17  1  6
 16 18  1  0
 18 20  1  0
 19 18  2  0
 20 21  1  0
 21 29  1  0
 21 22  1  1
 23 22  1  0
 24 23  2  0
 25 24  1  0
 26 25  2  0
 26 27  1  0
 27 28  2  0
 28 23  1  0
 29 30  2  0
 29 31  1  0
M  END
$$$$
