YTF.pdb
     RDKit          3D

 31 32  0  0  1  0  0  0  0  0999 V2000
    8.6731  -12.9335   15.8216 O   0  0  0  0  0  0  0  0  0  0  0  0
    8.3893  -13.3435   17.1098 C   0  0  0  0  0  0  0  0  0  0  0  0
    7.1682  -13.1076   17.7077 C   0  0  0  0  0  0  0  0  0  0  0  0
    6.8607  -13.5034   18.9837 C   0  0  0  0  0  0  0  0  0  0  0  0
    7.8147  -14.1693   19.7073 C   0  0  0  0  0  0  0  0  0  0  0  0
    7.5237  -14.6163   21.0942 C   0  0  0  0  0  0  0  0  0  0  0  0
    7.4195  -16.1209   21.0762 C   0  0  2  0  0  0  0  0  0  0  0  0
    6.1185  -16.4864   20.5560 N   0  0  0  0  0  0  0  0  0  0  0  0
    7.5060  -16.5871   22.5060 C   0  0  0  0  0  0  0  0  0  0  0  0
    6.5246  -16.4734   23.2846 O   0  0  0  0  0  0  0  0  0  0  0  0
    9.0471  -14.4257   19.1494 C   0  0  0  0  0  0  0  0  0  0  0  0
    9.3434  -14.0165   17.8510 C   0  0  0  0  0  0  0  0  0  0  0  0
    8.3679  -19.9681   23.8259 C   0  0  0  0  0  0  0  0  0  0  0  0
    9.3613  -19.0095   24.4787 C   0  0  1  0  0  0  0  0  0  0  0  0
   10.5621  -19.1452   23.8327 O   0  0  0  0  0  0  0  0  0  0  0  0
    8.8003  -17.5815   24.4232 C   0  0  2  0  0  0  0  0  0  0  0  0
    8.6871  -17.1706   23.0357 N   0  0  0  0  0  0  0  0  0  0  0  0
    9.7627  -16.7257   25.1640 C   0  0  0  0  0  0  0  0  0  0  0  0
   10.8009  -16.3396   24.5490 O   0  0  0  0  0  0  0  0  0  0  0  0
    9.6120  -16.3095   26.4955 N   0  0  0  0  0  0  0  0  0  0  0  0
   10.6799  -15.6579   27.2603 C   0  0  1  0  0  0  0  0  0  0  0  0
   10.4512  -14.1538   27.0548 C   0  0  0  0  0  0  0  0  0  0  0  0
    9.0550  -13.7865   27.3547 C   0  0  0  0  0  0  0  0  0  0  0  0
    8.7157  -13.0568   28.4634 C   0  0  0  0  0  0  0  0  0  0  0  0
    7.3976  -12.7376   28.7031 C   0  0  0  0  0  0  0  0  0  0  0  0
    6.3685  -13.1248   27.8611 C   0  0  0  0  0  0  0  0  0  0  0  0
    6.7389  -13.8612   26.7480 C   0  0  0  0  0  0  0  0  0  0  0  0
    8.0527  -14.1915   26.4896 C   0  0  0  0  0  0  0  0  0  0  0  0
   10.6278  -16.0188   28.6765 C   0  0  0  0  0  0  0  0  0  0  0  0
    9.7870  -16.8496   29.0976 O   0  0  0  0  0  0  0  0  0  0  0  0
   11.4979  -15.4617   29.6007 O   0  0  0  0  0  0  0  0  0  0  0  0
  2  1  1  0
  3  2  2  0
  4  3  1  0
  5  4  2  0
  5 11  1  0
  6  5  1  0
  7  6  1  0
  7  8  1  1
  9  7  1  0
  9 17  1  0
 10  9  2  0
 11 12  2  0
 12  2  1  0
 14 13  1  6
 14 16  1  0
 15 14  1  0
 16 17  1  6
 16 18  1  0
 18 20  1  0
 19 18  2  0
 20 21  1  0
 21 29  1  0
 21 22  1  1
 23 22  1  0
 24 23  2  0
 25 24  1  0
 26 25  2  0
 26 27  1  0
 27 28  2  0
 28 23  1  0
 29 30  2  0
 29 31  1  0
M  END
$$$$
