YTF.pdb
     RDKit          3D

 31 32  0  0  1  0  0  0  0  0999 V2000
    8.0723  -11.9379   16.5806 O   0  0  0  0  0  0  0  0  0  0  0  0
    7.9332  -12.6768   17.7394 C   0  0  0  0  0  0  0  0  0  0  0  0
    6.9253  -13.6042   17.9074 C   0  0  0  0  0  0  0  0  0  0  0  0
    6.7646  -14.3502   19.0463 C   0  0  0  0  0  0  0  0  0  0  0  0
    7.6507  -14.1679   20.0751 C   0  0  0  0  0  0  0  0  0  0  0  0
    7.5134  -14.9557   21.3277 C   0  0  0  0  0  0  0  0  0  0  0  0
    8.3650  -16.1923   21.1845 C   0  0  2  0  0  0  0  0  0  0  0  0
    7.7412  -17.0719   20.2182 N   0  0  0  0  0  0  0  0  0  0  0  0
    8.3678  -16.8844   22.5225 C   0  0  0  0  0  0  0  0  0  0  0  0
    7.7638  -17.9752   22.6885 O   0  0  0  0  0  0  0  0  0  0  0  0
    8.6717  -13.2528   19.9500 C   0  0  0  0  0  0  0  0  0  0  0  0
    8.8208  -12.5026   18.7856 C   0  0  0  0  0  0  0  0  0  0  0  0
    9.6653  -19.1697   23.4154 C   0  0  0  0  0  0  0  0  0  0  0  0
   10.3313  -18.2509   24.4372 C   0  0  1  0  0  0  0  0  0  0  0  0
   11.4970  -17.7863   23.8871 O   0  0  0  0  0  0  0  0  0  0  0  0
    9.3551  -17.1314   24.8256 C   0  0  2  0  0  0  0  0  0  0  0  0
    9.0452  -16.3430   23.6469 N   0  0  0  0  0  0  0  0  0  0  0  0
   10.0456  -16.3144   25.8566 C   0  0  0  0  0  0  0  0  0  0  0  0
   11.0220  -15.5986   25.4831 O   0  0  0  0  0  0  0  0  0  0  0  0
    9.7003  -16.2722   27.2160 N   0  0  0  0  0  0  0  0  0  0  0  0
   10.3901  -15.4265   28.1952 C   0  0  1  0  0  0  0  0  0  0  0  0
    9.2684  -14.6828   28.9340 C   0  0  0  0  0  0  0  0  0  0  0  0
    8.4424  -13.9043   27.9927 C   0  0  0  0  0  0  0  0  0  0  0  0
    8.8156  -12.6624   27.5510 C   0  0  0  0  0  0  0  0  0  0  0  0
    8.0114  -11.9717   26.6718 C   0  0  0  0  0  0  0  0  0  0  0  0
    6.8132  -12.4785   26.1971 C   0  0  0  0  0  0  0  0  0  0  0  0
    6.4596  -13.7354   26.6592 C   0  0  0  0  0  0  0  0  0  0  0  0
    7.2504  -14.4436   27.5396 C   0  0  0  0  0  0  0  0  0  0  0  0
   11.2037  -16.2194   29.1160 C   0  0  0  0  0  0  0  0  0  0  0  0
   11.1168  -17.4711   29.1357 O   0  0  0  0  0  0  0  0  0  0  0  0
   12.0949  -15.6240   29.9951 O   0  0  0  0  0  0  0  0  0  0  0  0
  2  1  1  0
  3  2  2  0
  4  3  1  0
  5  4  2  0
  5 11  1  0
  6  5  1  0
  7  6  1  0
  7  8  1  6
  9  7  1  0
  9 17  1  0
 10  9  2  0
 11 12  2  0
 12  2  1  0
 14 13  1  6
 14 16  1  0
 15 14  1  0
 16 17  1  6
 16 18  1  0
 18 20  1  0
 19 18  2  0
 20 21  1  0
 21 29  1  0
 21 22  1  1
 23 22  1  0
 24 23  2  0
 25 24  1  0
 26 25  2  0
 26 27  1  0
 27 28  2  0
 28 23  1  0
 29 30  2  0
 29 31  1  0
M  END
$$$$
