YTF.pdb
     RDKit          3D

 31 32  0  0  1  0  0  0  0  0999 V2000
    7.0235  -12.8038   15.4628 O   0  0  0  0  0  0  0  0  0  0  0  0
    7.7811  -13.4305   16.4331 C   0  0  0  0  0  0  0  0  0  0  0  0
    7.9563  -12.8956   17.6930 C   0  0  0  0  0  0  0  0  0  0  0  0
    8.7024  -13.4963   18.6737 C   0  0  0  0  0  0  0  0  0  0  0  0
    9.3084  -14.6921   18.3913 C   0  0  0  0  0  0  0  0  0  0  0  0
   10.1264  -15.3777   19.4252 C   0  0  0  0  0  0  0  0  0  0  0  0
    9.5220  -16.7402   19.6556 C   0  0  2  0  0  0  0  0  0  0  0  0
    8.6427  -17.0477   18.5470 N   0  0  0  0  0  0  0  0  0  0  0  0
    8.6904  -16.6487   20.9083 C   0  0  0  0  0  0  0  0  0  0  0  0
    7.4366  -16.5674   20.8487 O   0  0  0  0  0  0  0  0  0  0  0  0
    9.1600  -15.2616   17.1466 C   0  0  0  0  0  0  0  0  0  0  0  0
    8.3981  -14.6379   16.1610 C   0  0  0  0  0  0  0  0  0  0  0  0
    6.8215  -18.2033   22.3348 C   0  0  0  0  0  0  0  0  0  0  0  0
    7.7798  -18.0479   23.5135 C   0  0  1  0  0  0  0  0  0  0  0  0
    8.6449  -19.1102   23.4941 O   0  0  0  0  0  0  0  0  0  0  0  0
    8.4862  -16.6881   23.4177 C   0  0  2  0  0  0  0  0  0  0  0  0
    9.2773  -16.6500   22.2013 N   0  0  0  0  0  0  0  0  0  0  0  0
    9.3449  -16.5777   24.6251 C   0  0  0  0  0  0  0  0  0  0  0  0
   10.4694  -17.1608   24.6025 O   0  0  0  0  0  0  0  0  0  0  0  0
    9.0078  -15.8758   25.7924 N   0  0  0  0  0  0  0  0  0  0  0  0
    9.9552  -15.6279   26.8837 C   0  0  1  0  0  0  0  0  0  0  0  0
   10.0162  -14.0994   27.0138 C   0  0  0  0  0  0  0  0  0  0  0  0
    8.6688  -13.5077   26.9195 C   0  0  0  0  0  0  0  0  0  0  0  0
    8.0862  -12.8511   27.9713 C   0  0  0  0  0  0  0  0  0  0  0  0
    6.8249  -12.3146   27.8371 C   0  0  0  0  0  0  0  0  0  0  0  0
    6.0937  -12.4055   26.6645 C   0  0  0  0  0  0  0  0  0  0  0  0
    6.7056  -13.0740   25.6172 C   0  0  0  0  0  0  0  0  0  0  0  0
    7.9676  -13.6184   25.7308 C   0  0  0  0  0  0  0  0  0  0  0  0
    9.5189  -16.2544   28.1309 C   0  0  0  0  0  0  0  0  0  0  0  0
    8.4270  -16.8698   28.1934 O   0  0  0  0  0  0  0  0  0  0  0  0
   10.2879  -16.1933   29.2826 O   0  0  0  0  0  0  0  0  0  0  0  0
  2  1  1  0
  3  2  2  0
  4  3  1  0
  5  4  2  0
  5 11  1  0
  6  5  1  0
  7  6  1  0
  7  8  1  6
  9  7  1  0
  9 17  1  0
 10  9  2  0
 11 12  2  0
 12  2  1  0
 14 13  1  6
 14 16  1  0
 15 14  1  0
 16 17  1  6
 16 18  1  0
 18 20  1  0
 19 18  2  0
 20 21  1  0
 21 29  1  0
 21 22  1  1
 23 22  1  0
 24 23  2  0
 25 24  1  0
 26 25  2  0
 26 27  1  0
 27 28  2  0
 28 23  1  0
 29 30  2  0
 29 31  1  0
M  END
$$$$
