YTF.pdb
     RDKit          3D

 31 32  0  0  1  0  0  0  0  0999 V2000
    9.0993  -12.3075   17.0499 O   0  0  0  0  0  0  0  0  0  0  0  0
    8.5212  -12.9362   18.1356 C   0  0  0  0  0  0  0  0  0  0  0  0
    9.2290  -13.2260   19.2842 C   0  0  0  0  0  0  0  0  0  0  0  0
    8.6801  -13.8486   20.3753 C   0  0  0  0  0  0  0  0  0  0  0  0
    7.3578  -14.2039   20.3262 C   0  0  0  0  0  0  0  0  0  0  0  0
    6.7225  -14.8808   21.4865 C   0  0  0  0  0  0  0  0  0  0  0  0
    7.0061  -16.3571   21.3648 C   0  0  2  0  0  0  0  0  0  0  0  0
    5.9138  -16.9784   20.6455 N   0  0  0  0  0  0  0  0  0  0  0  0
    7.0331  -16.9187   22.7623 C   0  0  0  0  0  0  0  0  0  0  0  0
    6.1253  -17.6890   23.1682 O   0  0  0  0  0  0  0  0  0  0  0  0
    6.6141  -13.9337   19.1994 C   0  0  0  0  0  0  0  0  0  0  0  0
    7.1875  -13.3001   18.0991 C   0  0  0  0  0  0  0  0  0  0  0  0
    7.6958  -19.4217   23.7044 C   0  0  0  0  0  0  0  0  0  0  0  0
    8.7049  -18.7529   24.6351 C   0  0  1  0  0  0  0  0  0  0  0  0
    9.9356  -18.8175   24.0361 O   0  0  0  0  0  0  0  0  0  0  0  0
    8.2487  -17.3172   24.9311 C   0  0  2  0  0  0  0  0  0  0  0  0
    8.0737  -16.6076   23.6769 N   0  0  0  0  0  0  0  0  0  0  0  0
    9.3192  -16.7007   25.7565 C   0  0  0  0  0  0  0  0  0  0  0  0
   10.3000  -16.1752   25.1508 O   0  0  0  0  0  0  0  0  0  0  0  0
    9.3295  -16.6539   27.1589 N   0  0  0  0  0  0  0  0  0  0  0  0
   10.3591  -15.9530   27.9327 C   0  0  1  0  0  0  0  0  0  0  0  0
    9.5827  -15.1483   28.9846 C   0  0  0  0  0  0  0  0  0  0  0  0
    8.5782  -14.2772   28.3470 C   0  0  0  0  0  0  0  0  0  0  0  0
    8.8800  -13.0133   27.9132 C   0  0  0  0  0  0  0  0  0  0  0  0
    7.9087  -12.2353   27.3234 C   0  0  0  0  0  0  0  0  0  0  0  0
    6.6077  -12.6733   27.1402 C   0  0  0  0  0  0  0  0  0  0  0  0
    6.3294  -13.9543   27.5875 C   0  0  0  0  0  0  0  0  0  0  0  0
    7.2874  -14.7495   28.1806 C   0  0  0  0  0  0  0  0  0  0  0  0
   11.2954  -16.8869   28.5567 C   0  0  0  0  0  0  0  0  0  0  0  0
   11.0900  -18.1243   28.5194 O   0  0  0  0  0  0  0  0  0  0  0  0
   12.4365  -16.4452   29.2082 O   0  0  0  0  0  0  0  0  0  0  0  0
  2  1  1  0
  3  2  2  0
  4  3  1  0
  5  4  2  0
  5 11  1  0
  6  5  1  0
  7  6  1  0
  7  8  1  6
  9  7  1  0
  9 17  1  0
 10  9  2  0
 11 12  2  0
 12  2  1  0
 14 13  1  6
 14 16  1  0
 15 14  1  0
 16 17  1  6
 16 18  1  0
 18 20  1  0
 19 18  2  0
 20 21  1  0
 21 29  1  0
 21 22  1  1
 23 22  1  0
 24 23  2  0
 25 24  1  0
 26 25  2  0
 26 27  1  0
 27 28  2  0
 28 23  1  0
 29 30  2  0
 29 31  1  0
M  END
$$$$
