YTF.pdb
     RDKit          3D

 31 32  0  0  1  0  0  0  0  0999 V2000
    8.7021  -11.7670   17.2531 O   0  0  0  0  0  0  0  0  0  0  0  0
    8.3017  -12.5176   18.3414 C   0  0  0  0  0  0  0  0  0  0  0  0
    9.1806  -12.9136   19.3288 C   0  0  0  0  0  0  0  0  0  0  0  0
    8.8098  -13.6583   20.4185 C   0  0  0  0  0  0  0  0  0  0  0  0
    7.4968  -14.0312   20.5369 C   0  0  0  0  0  0  0  0  0  0  0  0
    7.0516  -14.8387   21.7021 C   0  0  0  0  0  0  0  0  0  0  0  0
    7.5514  -16.2472   21.4988 C   0  0  2  0  0  0  0  0  0  0  0  0
    6.5673  -16.9785   20.7286 N   0  0  0  0  0  0  0  0  0  0  0  0
    7.6530  -16.8811   22.8615 C   0  0  0  0  0  0  0  0  0  0  0  0
    6.6381  -17.3588   23.4307 O   0  0  0  0  0  0  0  0  0  0  0  0
    6.5859  -13.6575   19.5744 C   0  0  0  0  0  0  0  0  0  0  0  0
    6.9794  -12.9006   18.4729 C   0  0  0  0  0  0  0  0  0  0  0  0
    9.2021  -19.9038   23.9059 C   0  0  0  0  0  0  0  0  0  0  0  0
    9.9124  -18.8353   24.7339 C   0  0  1  0  0  0  0  0  0  0  0  0
   11.1122  -18.5649   24.1299 O   0  0  0  0  0  0  0  0  0  0  0  0
    9.0048  -17.6034   24.8592 C   0  0  2  0  0  0  0  0  0  0  0  0
    8.8864  -16.9680   23.5595 N   0  0  0  0  0  0  0  0  0  0  0  0
    9.6572  -16.7026   25.8443 C   0  0  0  0  0  0  0  0  0  0  0  0
   10.5014  -15.8654   25.4067 O   0  0  0  0  0  0  0  0  0  0  0  0
    9.4110  -16.7055   27.2257 N   0  0  0  0  0  0  0  0  0  0  0  0
   10.1828  -15.9055   28.1819 C   0  0  1  0  0  0  0  0  0  0  0  0
    9.1588  -14.9549   28.8181 C   0  0  0  0  0  0  0  0  0  0  0  0
    8.6072  -14.0255   27.8150 C   0  0  0  0  0  0  0  0  0  0  0  0
    9.1917  -12.8170   27.5422 C   0  0  0  0  0  0  0  0  0  0  0  0
    8.6403  -11.9810   26.5967 C   0  0  0  0  0  0  0  0  0  0  0  0
    7.4957  -12.3047   25.8875 C   0  0  0  0  0  0  0  0  0  0  0  0
    6.9250  -13.5318   26.1825 C   0  0  0  0  0  0  0  0  0  0  0  0
    7.4611  -14.3835   27.1254 C   0  0  0  0  0  0  0  0  0  0  0  0
   10.8321  -16.7445   29.1883 C   0  0  0  0  0  0  0  0  0  0  0  0
   11.6042  -16.2438   30.0414 O   0  0  0  0  0  0  0  0  0  0  0  0
   10.6215  -18.1137   29.2384 O   0  0  0  0  0  0  0  0  0  0  0  0
  2  1  1  0
  3  2  2  0
  4  3  1  0
  5  4  2  0
  5 11  1  0
  6  5  1  0
  7  6  1  0
  7  8  1  6
  9  7  1  0
  9 17  1  0
 10  9  2  0
 11 12  2  0
 12  2  1  0
 14 13  1  6
 14 16  1  0
 15 14  1  0
 16 17  1  6
 16 18  1  0
 18 20  1  0
 19 18  2  0
 20 21  1  0
 21 29  1  0
 21 22  1  1
 23 22  1  0
 24 23  2  0
 25 24  1  0
 26 25  2  0
 26 27  1  0
 27 28  2  0
 28 23  1  0
 29 30  2  0
 29 31  1  0
M  END
$$$$
