YTF.pdb
     RDKit          3D

 31 32  0  0  1  0  0  0  0  0999 V2000
    8.8100  -12.5463   16.0209 O   0  0  0  0  0  0  0  0  0  0  0  0
    8.4508  -13.0769   17.2447 C   0  0  0  0  0  0  0  0  0  0  0  0
    9.3694  -13.6540   18.0975 C   0  0  0  0  0  0  0  0  0  0  0  0
    9.0401  -14.1877   19.3166 C   0  0  0  0  0  0  0  0  0  0  0  0
    7.7292  -14.1477   19.7128 C   0  0  0  0  0  0  0  0  0  0  0  0
    7.3281  -14.7147   21.0266 C   0  0  0  0  0  0  0  0  0  0  0  0
    7.4490  -16.2151   20.9320 C   0  0  2  0  0  0  0  0  0  0  0  0
    6.3059  -16.7244   20.2037 N   0  0  0  0  0  0  0  0  0  0  0  0
    7.3926  -16.7526   22.3380 C   0  0  0  0  0  0  0  0  0  0  0  0
    6.3112  -16.7743   22.9800 O   0  0  0  0  0  0  0  0  0  0  0  0
    6.7795  -13.5810   18.8927 C   0  0  0  0  0  0  0  0  0  0  0  0
    7.1311  -13.0430   17.6567 C   0  0  0  0  0  0  0  0  0  0  0  0
    7.6564  -19.9731   23.6893 C   0  0  0  0  0  0  0  0  0  0  0  0
    8.8003  -19.2374   24.3836 C   0  0  1  0  0  0  0  0  0  0  0  0
    9.9652  -19.5757   23.7463 O   0  0  0  0  0  0  0  0  0  0  0  0
    8.5166  -17.7286   24.3688 C   0  0  2  0  0  0  0  0  0  0  0  0
    8.5458  -17.2544   22.9972 N   0  0  0  0  0  0  0  0  0  0  0  0
    9.5855  -17.0948   25.1831 C   0  0  0  0  0  0  0  0  0  0  0  0
   10.7322  -16.9749   24.6578 O   0  0  0  0  0  0  0  0  0  0  0  0
    9.4249  -16.6165   26.4924 N   0  0  0  0  0  0  0  0  0  0  0  0
   10.5448  -16.1814   27.3329 C   0  0  1  0  0  0  0  0  0  0  0  0
   10.7400  -14.6970   26.9930 C   0  0  0  0  0  0  0  0  0  0  0  0
    9.4557  -13.9734   27.0324 C   0  0  0  0  0  0  0  0  0  0  0  0
    9.2322  -12.9323   27.8942 C   0  0  0  0  0  0  0  0  0  0  0  0
    8.0160  -12.2861   27.8958 C   0  0  0  0  0  0  0  0  0  0  0  0
    6.9784  -12.6415   27.0502 C   0  0  0  0  0  0  0  0  0  0  0  0
    7.2307  -13.6968   26.1894 C   0  0  0  0  0  0  0  0  0  0  0  0
    8.4412  -14.3572   26.1718 C   0  0  0  0  0  0  0  0  0  0  0  0
   10.2595  -16.3722   28.7544 C   0  0  0  0  0  0  0  0  0  0  0  0
   11.0843  -16.0132   29.6294 O   0  0  0  0  0  0  0  0  0  0  0  0
    9.0769  -16.9521   29.1867 O   0  0  0  0  0  0  0  0  0  0  0  0
  2  1  1  0
  3  2  2  0
  4  3  1  0
  5  4  2  0
  5 11  1  0
  6  5  1  0
  7  6  1  0
  7  8  1  6
  9  7  1  0
  9 17  1  0
 10  9  2  0
 11 12  2  0
 12  2  1  0
 14 13  1  6
 14 16  1  0
 15 14  1  0
 16 17  1  6
 16 18  1  0
 18 20  1  0
 19 18  2  0
 20 21  1  0
 21 29  1  0
 21 22  1  1
 23 22  1  0
 24 23  2  0
 25 24  1  0
 26 25  2  0
 26 27  1  0
 27 28  2  0
 28 23  1  0
 29 30  2  0
 29 31  1  0
M  END
$$$$
