YTF.pdb
     RDKit          3D

 31 32  0  0  1  0  0  0  0  0999 V2000
    9.2880  -12.3093   17.0043 O   0  0  0  0  0  0  0  0  0  0  0  0
    8.7016  -12.8960   18.1089 C   0  0  0  0  0  0  0  0  0  0  0  0
    9.4429  -13.4780   19.1168 C   0  0  0  0  0  0  0  0  0  0  0  0
    8.8867  -14.0667   20.2229 C   0  0  0  0  0  0  0  0  0  0  0  0
    7.5215  -14.0796   20.3372 C   0  0  0  0  0  0  0  0  0  0  0  0
    6.8767  -14.7071   21.5199 C   0  0  0  0  0  0  0  0  0  0  0  0
    7.0802  -16.1978   21.4131 C   0  0  2  0  0  0  0  0  0  0  0  0
    6.0459  -16.7440   20.5595 N   0  0  0  0  0  0  0  0  0  0  0  0
    6.9033  -16.7682   22.7960 C   0  0  0  0  0  0  0  0  0  0  0  0
    5.7682  -16.8177   23.3356 O   0  0  0  0  0  0  0  0  0  0  0  0
    6.7433  -13.5100   19.3545 C   0  0  0  0  0  0  0  0  0  0  0  0
    7.3246  -12.9158   18.2366 C   0  0  0  0  0  0  0  0  0  0  0  0
    7.1823  -19.9862   24.3810 C   0  0  0  0  0  0  0  0  0  0  0  0
    8.2386  -19.1391   25.0870 C   0  0  1  0  0  0  0  0  0  0  0  0
    9.4586  -19.4555   24.5494 O   0  0  0  0  0  0  0  0  0  0  0  0
    7.8784  -17.6538   24.9419 C   0  0  2  0  0  0  0  0  0  0  0  0
    7.9984  -17.2712   23.5469 N   0  0  0  0  0  0  0  0  0  0  0  0
    8.8399  -16.9059   25.7926 C   0  0  0  0  0  0  0  0  0  0  0  0
    9.9175  -16.5117   25.2553 O   0  0  0  0  0  0  0  0  0  0  0  0
    8.6481  -16.6003   27.1486 N   0  0  0  0  0  0  0  0  0  0  0  0
    9.6568  -15.9257   27.9715 C   0  0  1  0  0  0  0  0  0  0  0  0
    8.9101  -14.7591   28.6337 C   0  0  0  0  0  0  0  0  0  0  0  0
    8.3730  -13.8330   27.6196 C   0  0  0  0  0  0  0  0  0  0  0  0
    7.1141  -13.9740   27.0983 C   0  0  0  0  0  0  0  0  0  0  0  0
    6.6548  -13.0846   26.1523 C   0  0  0  0  0  0  0  0  0  0  0  0
    7.4177  -12.0266   25.6869 C   0  0  0  0  0  0  0  0  0  0  0  0
    8.6861  -11.9070   26.2302 C   0  0  0  0  0  0  0  0  0  0  0  0
    9.1650  -12.7866   27.1782 C   0  0  0  0  0  0  0  0  0  0  0  0
   10.2322  -16.8278   28.9683 C   0  0  0  0  0  0  0  0  0  0  0  0
   11.1363  -16.4351   29.7449 O   0  0  0  0  0  0  0  0  0  0  0  0
    9.8047  -18.1406   29.0929 O   0  0  0  0  0  0  0  0  0  0  0  0
  2  1  1  0
  3  2  2  0
  4  3  1  0
  5  4  2  0
  5 11  1  0
  6  5  1  0
  7  6  1  0
  7  8  1  6
  9  7  1  0
  9 17  1  0
 10  9  2  0
 11 12  2  0
 12  2  1  0
 14 13  1  6
 14 16  1  0
 15 14  1  0
 16 17  1  6
 16 18  1  0
 18 20  1  0
 19 18  2  0
 20 21  1  0
 21 29  1  0
 21 22  1  1
 23 22  1  0
 24 23  2  0
 25 24  1  0
 26 25  2  0
 26 27  1  0
 27 28  2  0
 28 23  1  0
 29 30  2  0
 29 31  1  0
M  END
$$$$
