YTF.pdb
     RDKit          3D

 31 32  0  0  1  0  0  0  0  0999 V2000
   18.0463  -21.8512   21.2026 O   0  0  0  0  0  0  0  0  0  0  0  0
   17.0128  -20.9345   21.2051 C   0  0  0  0  0  0  0  0  0  0  0  0
   15.8091  -21.1805   21.8333 C   0  0  0  0  0  0  0  0  0  0  0  0
   14.7679  -20.2888   21.8510 C   0  0  0  0  0  0  0  0  0  0  0  0
   14.9276  -19.0878   21.2115 C   0  0  0  0  0  0  0  0  0  0  0  0
   13.8246  -18.0920   21.2059 C   0  0  0  0  0  0  0  0  0  0  0  0
   12.7056  -18.6553   20.3660 C   0  0  2  0  0  0  0  0  0  0  0  0
   13.1132  -18.6275   18.9769 N   0  0  0  0  0  0  0  0  0  0  0  0
   11.5233  -17.7366   20.5312 C   0  0  0  0  0  0  0  0  0  0  0  0
   11.4619  -16.6429   19.9130 O   0  0  0  0  0  0  0  0  0  0  0  0
   16.1126  -18.8009   20.5719 C   0  0  0  0  0  0  0  0  0  0  0  0
   17.1610  -19.7184   20.5634 C   0  0  0  0  0  0  0  0  0  0  0  0
    7.9290  -18.7311   19.9636 C   0  0  0  0  0  0  0  0  0  0  0  0
    8.0030  -18.1356   21.3678 C   0  0  1  0  0  0  0  0  0  0  0  0
    8.0085  -19.1723   22.2637 O   0  0  0  0  0  0  0  0  0  0  0  0
    9.2425  -17.2359   21.4731 C   0  0  2  0  0  0  0  0  0  0  0  0
   10.4346  -18.0592   21.3836 N   0  0  0  0  0  0  0  0  0  0  0  0
    9.1533  -16.5546   22.7904 C   0  0  0  0  0  0  0  0  0  0  0  0
    9.7689  -17.0781   23.7662 O   0  0  0  0  0  0  0  0  0  0  0  0
    8.4389  -15.3730   23.0401 N   0  0  0  0  0  0  0  0  0  0  0  0
    8.2543  -14.8131   24.3826 C   0  0  1  0  0  0  0  0  0  0  0  0
    7.3847  -13.5653   24.1737 C   0  0  0  0  0  0  0  0  0  0  0  0
    7.0484  -12.9345   25.4634 C   0  0  0  0  0  0  0  0  0  0  0  0
    5.8057  -13.0490   26.0283 C   0  0  0  0  0  0  0  0  0  0  0  0
    5.5370  -12.4418   27.2350 C   0  0  0  0  0  0  0  0  0  0  0  0
    6.4810  -11.7017   27.9270 C   0  0  0  0  0  0  0  0  0  0  0  0
    7.7287  -11.6018   27.3340 C   0  0  0  0  0  0  0  0  0  0  0  0
    8.0182  -12.2019   26.1266 C   0  0  0  0  0  0  0  0  0  0  0  0
    7.6112  -15.7692   25.2830 C   0  0  0  0  0  0  0  0  0  0  0  0
    8.0718  -15.9810   26.4309 O   0  0  0  0  0  0  0  0  0  0  0  0
    6.4776  -16.4726   24.9065 O   0  0  0  0  0  0  0  0  0  0  0  0
  2  1  1  0
  3  2  2  0
  4  3  1  0
  5  4  2  0
  5 11  1  0
  6  5  1  0
  7  6  1  0
  7  8  1  6
  9  7  1  0
  9 17  1  0
 10  9  2  0
 11 12  2  0
 12  2  1  0
 14 13  1  6
 14 16  1  0
 15 14  1  0
 16 17  1  1
 16 18  1  0
 18 20  1  0
 19 18  2  0
 20 21  1  0
 21 29  1  0
 21 22  1  6
 23 22  1  0
 24 23  2  0
 25 24  1  0
 26 25  2  0
 26 27  1  0
 27 28  2  0
 28 23  1  0
 29 30  2  0
 29 31  1  0
M  END
$$$$
