YTF.pdb
     RDKit          3D

 31 32  0  0  1  0  0  0  0  0999 V2000
    8.3503  -12.1885   16.7455 O   0  0  0  0  0  0  0  0  0  0  0  0
    8.1001  -12.8824   17.9134 C   0  0  0  0  0  0  0  0  0  0  0  0
    6.8671  -13.4347   18.1944 C   0  0  0  0  0  0  0  0  0  0  0  0
    6.5921  -14.1276   19.3449 C   0  0  0  0  0  0  0  0  0  0  0  0
    7.5929  -14.2821   20.2677 C   0  0  0  0  0  0  0  0  0  0  0  0
    7.3383  -15.0261   21.5286 C   0  0  0  0  0  0  0  0  0  0  0  0
    8.0614  -16.3462   21.4333 C   0  0  2  0  0  0  0  0  0  0  0  0
    7.3160  -17.2171   20.5487 N   0  0  0  0  0  0  0  0  0  0  0  0
    8.0556  -16.9539   22.8116 C   0  0  0  0  0  0  0  0  0  0  0  0
    7.3841  -17.9879   23.0606 O   0  0  0  0  0  0  0  0  0  0  0  0
    8.8387  -13.7471   20.0277 C   0  0  0  0  0  0  0  0  0  0  0  0
    9.1015  -13.0456   18.8531 C   0  0  0  0  0  0  0  0  0  0  0  0
    9.5144  -19.1648   23.4337 C   0  0  0  0  0  0  0  0  0  0  0  0
   10.2918  -18.2504   24.3778 C   0  0  1  0  0  0  0  0  0  0  0  0
   11.3329  -17.7061   23.6726 O   0  0  0  0  0  0  0  0  0  0  0  0
    9.3398  -17.1980   24.9637 C   0  0  2  0  0  0  0  0  0  0  0  0
    8.8003  -16.3933   23.8828 N   0  0  0  0  0  0  0  0  0  0  0  0
   10.1508  -16.3753   25.8979 C   0  0  0  0  0  0  0  0  0  0  0  0
   11.4076  -16.3696   25.7373 O   0  0  0  0  0  0  0  0  0  0  0  0
    9.6331  -15.6009   26.9473 N   0  0  0  0  0  0  0  0  0  0  0  0
   10.4603  -15.0546   28.0277 C   0  0  1  0  0  0  0  0  0  0  0  0
    9.6157  -13.9285   28.6405 C   0  0  0  0  0  0  0  0  0  0  0  0
    8.7279  -13.3250   27.6296 C   0  0  0  0  0  0  0  0  0  0  0  0
    7.3832  -13.5840   27.5932 C   0  0  0  0  0  0  0  0  0  0  0  0
    6.5928  -12.9975   26.6298 C   0  0  0  0  0  0  0  0  0  0  0  0
    7.0976  -12.1366   25.6697 C   0  0  0  0  0  0  0  0  0  0  0  0
    8.4596  -11.8918   25.7290 C   0  0  0  0  0  0  0  0  0  0  0  0
    9.2685  -12.4688   26.6853 C   0  0  0  0  0  0  0  0  0  0  0  0
   10.7944  -16.0745   29.0209 C   0  0  0  0  0  0  0  0  0  0  0  0
   11.5705  -15.8153   29.9723 O   0  0  0  0  0  0  0  0  0  0  0  0
   10.2712  -17.3563   28.9504 O   0  0  0  0  0  0  0  0  0  0  0  0
  2  1  1  0
  3  2  2  0
  4  3  1  0
  5  4  2  0
  5 11  1  0
  6  5  1  0
  7  6  1  0
  7  8  1  6
  9  7  1  0
  9 17  1  0
 10  9  2  0
 11 12  2  0
 12  2  1  0
 14 13  1  6
 14 16  1  0
 15 14  1  0
 16 17  1  6
 16 18  1  0
 18 20  1  0
 19 18  2  0
 20 21  1  0
 21 29  1  0
 21 22  1  1
 23 22  1  0
 24 23  2  0
 25 24  1  0
 26 25  2  0
 26 27  1  0
 27 28  2  0
 28 23  1  0
 29 30  2  0
 29 31  1  0
M  END
$$$$
