YTF.pdb
     RDKit          3D

 31 32  0  0  1  0  0  0  0  0999 V2000
   -1.8339  -20.3736   23.0556 O   0  0  0  0  0  0  0  0  0  0  0  0
   -0.4611  -20.2218   23.0796 C   0  0  0  0  0  0  0  0  0  0  0  0
    0.3965  -21.2874   23.2620 C   0  0  0  0  0  0  0  0  0  0  0  0
    1.7617  -21.1647   23.2899 C   0  0  0  0  0  0  0  0  0  0  0  0
    2.3074  -19.9185   23.1282 C   0  0  0  0  0  0  0  0  0  0  0  0
    3.7825  -19.7401   23.1518 C   0  0  0  0  0  0  0  0  0  0  0  0
    4.2298  -19.4524   21.7404 C   0  0  2  0  0  0  0  0  0  0  0  0
    3.9844  -20.6276   20.9308 N   0  0  0  0  0  0  0  0  0  0  0  0
    5.7161  -19.2121   21.7881 C   0  0  0  0  0  0  0  0  0  0  0  0
    6.5247  -20.1716   21.8745 O   0  0  0  0  0  0  0  0  0  0  0  0
    1.4884  -18.8273   22.9434 C   0  0  0  0  0  0  0  0  0  0  0  0
    0.1027  -18.9694   22.9176 C   0  0  0  0  0  0  0  0  0  0  0  0
    7.8085  -17.7755   19.2576 C   0  0  0  0  0  0  0  0  0  0  0  0
    8.0871  -16.8976   20.4757 C   0  0  1  0  0  0  0  0  0  0  0  0
    7.3975  -15.7246   20.3143 O   0  0  0  0  0  0  0  0  0  0  0  0
    7.6982  -17.6597   21.7504 C   0  0  2  0  0  0  0  0  0  0  0  0
    6.2676  -17.9045   21.7382 N   0  0  0  0  0  0  0  0  0  0  0  0
    8.0888  -16.7919   22.8913 C   0  0  0  0  0  0  0  0  0  0  0  0
    7.2679  -15.9000   23.2598 O   0  0  0  0  0  0  0  0  0  0  0  0
    9.2990  -16.8825   23.5957 N   0  0  0  0  0  0  0  0  0  0  0  0
    9.7159  -15.9064   24.6072 C   0  0  1  0  0  0  0  0  0  0  0  0
    8.6900  -16.0497   25.7404 C   0  0  0  0  0  0  0  0  0  0  0  0
    9.0277  -15.1673   26.8726 C   0  0  0  0  0  0  0  0  0  0  0  0
    9.8023  -15.5904   27.9202 C   0  0  0  0  0  0  0  0  0  0  0  0
   10.0914  -14.7307   28.9566 C   0  0  0  0  0  0  0  0  0  0  0  0
    9.6288  -13.4260   28.9981 C   0  0  0  0  0  0  0  0  0  0  0  0
    8.8482  -13.0239   27.9269 C   0  0  0  0  0  0  0  0  0  0  0  0
    8.5471  -13.8689   26.8794 C   0  0  0  0  0  0  0  0  0  0  0  0
   11.0753  -16.1651   25.0798 C   0  0  0  0  0  0  0  0  0  0  0  0
   11.5398  -17.3308   25.0945 O   0  0  0  0  0  0  0  0  0  0  0  0
   11.8966  -15.1414   25.5260 O   0  0  0  0  0  0  0  0  0  0  0  0
  2  1  1  0
  3  2  2  0
  4  3  1  0
  5  4  2  0
  5 11  1  0
  6  5  1  0
  7  6  1  0
  7  8  1  6
  9  7  1  0
  9 17  1  0
 10  9  2  0
 11 12  2  0
 12  2  1  0
 14 13  1  6
 14 16  1  0
 15 14  1  0
 16 17  1  6
 16 18  1  0
 18 20  1  0
 19 18  2  0
 20 21  1  0
 21 29  1  0
 21 22  1  1
 23 22  1  0
 24 23  2  0
 25 24  1  0
 26 25  2  0
 26 27  1  0
 27 28  2  0
 28 23  1  0
 29 30  2  0
 29 31  1  0
M  END
$$$$
