NGC.pdb
     RDKit          3D

 19 18  0  0  1  0  0  0  0  0999 V2000
    9.3582  -14.3964   17.0091 N   0  0  0  0  0  0  0  0  0  0  0  0
    8.1922  -13.6451   17.2453 C   0  0  0  0  0  0  0  0  0  0  0  0
    7.6516  -13.1167   16.2101 O   0  0  0  0  0  0  0  0  0  0  0  0
    7.6218  -13.4733   18.6003 C   0  0  0  0  0  0  0  0  0  0  0  0
    8.4686  -14.1700   19.6381 C   0  0  2  0  0  0  0  0  0  0  0  0
    8.8100  -15.5058   19.2378 N   0  0  0  0  0  0  0  0  0  0  0  0
    7.7984  -14.0938   20.9529 C   0  0  0  0  0  0  0  0  0  0  0  0
    7.5942  -13.0068   21.4985 O   0  0  0  0  0  0  0  0  0  0  0  0
    7.3614  -15.2776   21.6475 N   0  0  0  0  0  0  0  0  0  0  0  0
    6.7548  -15.2110   22.9421 C   0  0  0  0  0  0  0  0  0  0  0  0
    7.5699  -14.6881   24.0260 C   0  0  0  0  0  0  0  0  0  0  0  0
    8.8365  -14.7059   23.9214 O   0  0  0  0  0  0  0  0  0  0  0  0
    7.0925  -14.1303   25.2593 N   0  0  0  0  0  0  0  0  0  0  0  0
    8.0011  -13.6990   26.2971 C   0  0  1  0  0  0  0  0  0  0  0  0
    7.2439  -12.8052   27.2487 C   0  0  0  0  0  0  0  0  0  0  0  0
    6.2308  -11.5868   26.3760 S   0  0  0  0  0  0  0  0  0  0  0  0
    8.7081  -14.7828   26.9638 C   0  0  0  0  0  0  0  0  0  0  0  0
    8.3241  -15.9793   26.7700 O   0  0  0  0  0  0  0  0  0  0  0  0
    9.7718  -14.5788   27.7907 O   0  0  0  0  0  0  0  0  0  0  0  0
  1  2  1  0
  2  3  2  0
  4  2  1  0
  4  5  1  0
  5  6  1  6
  7  5  1  0
  7  8  2  0
  9  7  1  0
 10  9  1  0
 10 11  1  0
 11 13  1  0
 12 11  2  0
 13 14  1  0
 14 17  1  0
 14 15  1  1
 16 15  1  0
 17 18  2  0
 17 19  1  0
M  END
$$$$
