NGC.pdb
     RDKit          3D

 19 18  0  0  1  0  0  0  0  0999 V2000
    0.2464  -20.5021   21.6965 N   0  0  0  0  0  0  0  0  0  0  0  0
   -0.0683  -19.6328   20.6357 C   0  0  0  0  0  0  0  0  0  0  0  0
   -1.0766  -18.8648   20.8263 O   0  0  0  0  0  0  0  0  0  0  0  0
    0.7122  -19.6028   19.3784 C   0  0  0  0  0  0  0  0  0  0  0  0
    1.8522  -20.5917   19.4233 C   0  0  2  0  0  0  0  0  0  0  0  0
    1.4587  -21.8310   20.0317 N   0  0  0  0  0  0  0  0  0  0  0  0
    3.0270  -19.9607   20.0599 C   0  0  0  0  0  0  0  0  0  0  0  0
    3.5118  -18.9212   19.6068 O   0  0  0  0  0  0  0  0  0  0  0  0
    3.6513  -20.5310   21.2260 N   0  0  0  0  0  0  0  0  0  0  0  0
    4.8022  -19.9344   21.8325 C   0  0  0  0  0  0  0  0  0  0  0  0
    5.4030  -20.6461   22.9483 C   0  0  0  0  0  0  0  0  0  0  0  0
    4.8762  -21.7283   23.3570 O   0  0  0  0  0  0  0  0  0  0  0  0
    6.5737  -20.2528   23.6796 N   0  0  0  0  0  0  0  0  0  0  0  0
    7.0221  -20.9853   24.8419 C   0  0  1  0  0  0  0  0  0  0  0  0
    8.1855  -21.8559   24.4338 C   0  0  0  0  0  0  0  0  0  0  0  0
    9.4209  -20.9377   23.4834 S   0  0  0  0  0  0  0  0  0  0  0  0
    7.3041  -20.1538   26.0030 C   0  0  0  0  0  0  0  0  0  0  0  0
    7.5376  -20.7149   27.1198 O   0  0  0  0  0  0  0  0  0  0  0  0
    7.3332  -18.7923   25.9530 O   0  0  0  0  0  0  0  0  0  0  0  0
  1  2  1  0
  2  3  2  0
  4  2  1  0
  4  5  1  0
  5  6  1  1
  7  5  1  0
  7  8  2  0
  9  7  1  0
 10  9  1  0
 10 11  1  0
 11 13  1  0
 12 11  2  0
 13 14  1  0
 14 17  1  0
 14 15  1  6
 16 15  1  0
 17 18  2  0
 17 19  1  0
M  END
$$$$
