NGC.pdb
     RDKit          3D

 19 18  0  0  1  0  0  0  0  0999 V2000
    8.3861  -18.8375   17.1027 N   0  0  0  0  0  0  0  0  0  0  0  0
    8.8855  -17.6961   17.7566 C   0  0  0  0  0  0  0  0  0  0  0  0
   10.0239  -17.2734   17.3464 O   0  0  0  0  0  0  0  0  0  0  0  0
    8.1474  -17.0227   18.8487 C   0  0  0  0  0  0  0  0  0  0  0  0
    9.0432  -16.7786   20.0394 C   0  0  2  0  0  0  0  0  0  0  0  0
    9.4902  -18.0081   20.6306 N   0  0  0  0  0  0  0  0  0  0  0  0
    8.3648  -15.8717   20.9886 C   0  0  0  0  0  0  0  0  0  0  0  0
    8.1423  -14.6953   20.6928 O   0  0  0  0  0  0  0  0  0  0  0  0
    7.9410  -16.3204   22.2901 N   0  0  0  0  0  0  0  0  0  0  0  0
    7.1374  -15.5009   23.1450 C   0  0  0  0  0  0  0  0  0  0  0  0
    7.8336  -14.7174   24.1521 C   0  0  0  0  0  0  0  0  0  0  0  0
    9.0983  -14.8018   24.2467 O   0  0  0  0  0  0  0  0  0  0  0  0
    7.2347  -13.8197   25.0984 N   0  0  0  0  0  0  0  0  0  0  0  0
    8.0287  -13.1068   26.0730 C   0  0  1  0  0  0  0  0  0  0  0  0
    7.1638  -12.0415   26.7014 C   0  0  0  0  0  0  0  0  0  0  0  0
    5.4136  -12.4993   26.7008 S   0  0  0  0  0  0  0  0  0  0  0  0
    8.6904  -13.9612   27.0483 C   0  0  0  0  0  0  0  0  0  0  0  0
    8.3560  -15.1857   27.1212 O   0  0  0  0  0  0  0  0  0  0  0  0
    9.6606  -13.5120   27.8933 O   0  0  0  0  0  0  0  0  0  0  0  0
  1  2  1  0
  2  3  2  0
  4  2  1  0
  4  5  1  0
  5  6  1  1
  7  5  1  0
  7  8  2  0
  9  7  1  0
 10  9  1  0
 10 11  1  0
 11 13  1  0
 12 11  2  0
 13 14  1  0
 14 17  1  0
 14 15  1  1
 16 15  1  0
 17 18  2  0
 17 19  1  0
M  END
$$$$
