NGC.pdb
     RDKit          3D

 19 18  0  0  1  0  0  0  0  0999 V2000
    7.4831  -12.8442   18.0384 N   0  0  0  0  0  0  0  0  0  0  0  0
    8.4987  -13.6626   18.5664 C   0  0  0  0  0  0  0  0  0  0  0  0
    9.2936  -14.1865   17.7081 O   0  0  0  0  0  0  0  0  0  0  0  0
    8.6444  -13.9061   20.0191 C   0  0  0  0  0  0  0  0  0  0  0  0
    8.0001  -15.2119   20.4181 C   0  0  2  0  0  0  0  0  0  0  0  0
    6.6190  -15.2650   20.0298 N   0  0  0  0  0  0  0  0  0  0  0  0
    8.2249  -15.4524   21.8587 C   0  0  0  0  0  0  0  0  0  0  0  0
    9.3523  -15.7027   22.2914 O   0  0  0  0  0  0  0  0  0  0  0  0
    7.1440  -15.4073   22.8095 N   0  0  0  0  0  0  0  0  0  0  0  0
    7.3377  -15.7430   24.1872 C   0  0  0  0  0  0  0  0  0  0  0  0
    8.4155  -15.0629   24.8862 C   0  0  0  0  0  0  0  0  0  0  0  0
    8.9710  -14.0536   24.3493 O   0  0  0  0  0  0  0  0  0  0  0  0
    8.9542  -15.4133   26.1696 N   0  0  0  0  0  0  0  0  0  0  0  0
    9.9566  -14.5990   26.8180 C   0  0  1  0  0  0  0  0  0  0  0  0
    9.3708  -13.2293   27.0602 C   0  0  0  0  0  0  0  0  0  0  0  0
    7.7007  -13.3168   27.7499 S   0  0  0  0  0  0  0  0  0  0  0  0
   10.5353  -15.1975   28.0121 C   0  0  0  0  0  0  0  0  0  0  0  0
   11.4542  -14.5731   28.6302 O   0  0  0  0  0  0  0  0  0  0  0  0
   10.1369  -16.4030   28.5072 O   0  0  0  0  0  0  0  0  0  0  0  0
  1  2  1  0
  2  3  2  0
  4  2  1  0
  4  5  1  0
  5  6  1  1
  7  5  1  0
  7  8  2  0
  9  7  1  0
 10  9  1  0
 10 11  1  0
 11 13  1  0
 12 11  2  0
 13 14  1  0
 14 17  1  0
 14 15  1  1
 16 15  1  0
 17 18  2  0
 17 19  1  0
M  END
$$$$
