NGC.pdb
     RDKit          3D

 19 18  0  0  1  0  0  0  0  0999 V2000
    7.7907  -18.1150   15.2721 N   0  0  0  0  0  0  0  0  0  0  0  0
    7.6238  -16.7752   15.6684 C   0  0  0  0  0  0  0  0  0  0  0  0
    6.8533  -16.0677   14.9277 O   0  0  0  0  0  0  0  0  0  0  0  0
    8.2927  -16.2138   16.8636 C   0  0  0  0  0  0  0  0  0  0  0  0
    9.2782  -17.1979   17.4467 C   0  0  2  0  0  0  0  0  0  0  0  0
    9.4562  -18.3408   16.5963 N   0  0  0  0  0  0  0  0  0  0  0  0
    8.8765  -17.5380   18.8275 C   0  0  0  0  0  0  0  0  0  0  0  0
    8.7264  -16.6587   19.6790 O   0  0  0  0  0  0  0  0  0  0  0  0
    8.6477  -18.9010   19.2333 N   0  0  0  0  0  0  0  0  0  0  0  0
    9.7082  -19.7311   19.7178 C   0  0  0  0  0  0  0  0  0  0  0  0
   10.4317  -19.2608   20.8875 C   0  0  0  0  0  0  0  0  0  0  0  0
   11.0753  -20.0925   21.6015 O   0  0  0  0  0  0  0  0  0  0  0  0
   10.5073  -17.9062   21.3558 N   0  0  0  0  0  0  0  0  0  0  0  0
   11.3871  -17.5271   22.4378 C   0  0  1  0  0  0  0  0  0  0  0  0
   11.7757  -16.0811   22.2484 C   0  0  0  0  0  0  0  0  0  0  0  0
   12.8842  -15.4987   23.5541 S   0  0  0  0  0  0  0  0  0  0  0  0
   10.8631  -17.8137   23.7654 C   0  0  0  0  0  0  0  0  0  0  0  0
    9.6080  -17.7511   23.9585 O   0  0  0  0  0  0  0  0  0  0  0  0
   11.6563  -18.1514   24.8207 O   0  0  0  0  0  0  0  0  0  0  0  0
  1  2  1  0
  2  3  2  0
  4  2  1  0
  4  5  1  0
  5  6  1  6
  7  5  1  0
  7  8  2  0
  9  7  1  0
 10  9  1  0
 10 11  1  0
 11 13  1  0
 12 11  2  0
 13 14  1  0
 14 17  1  0
 14 15  1  1
 16 15  1  0
 17 18  2  0
 17 19  1  0
M  END
$$$$
