NGC.pdb
     RDKit          3D

 19 18  0  0  1  0  0  0  0  0999 V2000
    9.4917  -18.1050   18.0847 N   0  0  0  0  0  0  0  0  0  0  0  0
    8.3477  -17.2875   18.0318 C   0  0  0  0  0  0  0  0  0  0  0  0
    7.7676  -17.2156   16.8910 O   0  0  0  0  0  0  0  0  0  0  0  0
    7.8420  -16.5555   19.2147 C   0  0  0  0  0  0  0  0  0  0  0  0
    8.7461  -16.7594   20.4066 C   0  0  2  0  0  0  0  0  0  0  0  0
    8.8819  -18.1490   20.7408 N   0  0  0  0  0  0  0  0  0  0  0  0
    8.2795  -15.9185   21.5286 C   0  0  0  0  0  0  0  0  0  0  0  0
    8.3559  -14.6888   21.4738 O   0  0  0  0  0  0  0  0  0  0  0  0
    7.7228  -16.4963   22.7247 N   0  0  0  0  0  0  0  0  0  0  0  0
    7.3681  -15.6932   23.8550 C   0  0  0  0  0  0  0  0  0  0  0  0
    8.4597  -15.1254   24.6289 C   0  0  0  0  0  0  0  0  0  0  0  0
    9.5212  -14.7554   24.0358 O   0  0  0  0  0  0  0  0  0  0  0  0
    8.4837  -14.9257   26.0500 N   0  0  0  0  0  0  0  0  0  0  0  0
    9.5383  -14.1740   26.6913 C   0  0  1  0  0  0  0  0  0  0  0  0
    9.0964  -12.7350   26.7997 C   0  0  0  0  0  0  0  0  0  0  0  0
    7.3721  -12.5916   27.3279 S   0  0  0  0  0  0  0  0  0  0  0  0
    9.9907  -14.7347   27.9562 C   0  0  0  0  0  0  0  0  0  0  0  0
   10.9500  -14.1709   28.5714 O   0  0  0  0  0  0  0  0  0  0  0  0
    9.4318  -15.8416   28.5211 O   0  0  0  0  0  0  0  0  0  0  0  0
  1  2  1  0
  2  3  2  0
  4  2  1  0
  4  5  1  0
  5  6  1  1
  7  5  1  0
  7  8  2  0
  9  7  1  0
 10  9  1  0
 10 11  1  0
 11 13  1  0
 12 11  2  0
 13 14  1  0
 14 17  1  0
 14 15  1  1
 16 15  1  0
 17 18  2  0
 17 19  1  0
M  END
$$$$
