NGC.pdb
     RDKit          3D

 19 18  0  0  1  0  0  0  0  0999 V2000
    7.9758  -12.2894   17.6872 N   0  0  0  0  0  0  0  0  0  0  0  0
    7.7991  -13.5658   18.2524 C   0  0  0  0  0  0  0  0  0  0  0  0
    7.3101  -14.4571   17.4717 O   0  0  0  0  0  0  0  0  0  0  0  0
    8.1538  -13.8655   19.6579 C   0  0  0  0  0  0  0  0  0  0  0  0
    9.0689  -15.0634   19.7432 C   0  0  2  0  0  0  0  0  0  0  0  0
    8.3824  -16.2823   19.4202 N   0  0  0  0  0  0  0  0  0  0  0  0
    9.7322  -15.0837   21.0635 C   0  0  0  0  0  0  0  0  0  0  0  0
   10.4591  -14.1542   21.4223 O   0  0  0  0  0  0  0  0  0  0  0  0
    9.5605  -16.1831   21.9781 N   0  0  0  0  0  0  0  0  0  0  0  0
   10.2690  -16.2480   23.2199 C   0  0  0  0  0  0  0  0  0  0  0  0
    9.5688  -15.7783   24.4038 C   0  0  0  0  0  0  0  0  0  0  0  0
   10.1039  -15.9260   25.5473 O   0  0  0  0  0  0  0  0  0  0  0  0
    8.2837  -15.1401   24.4373 N   0  0  0  0  0  0  0  0  0  0  0  0
    7.4311  -15.2151   25.6019 C   0  0  1  0  0  0  0  0  0  0  0  0
    6.3575  -14.1624   25.4720 C   0  0  0  0  0  0  0  0  0  0  0  0
    7.0194  -12.5860   24.8808 S   0  0  0  0  0  0  0  0  0  0  0  0
    6.9046  -16.5444   25.8752 C   0  0  0  0  0  0  0  0  0  0  0  0
    6.8697  -17.3982   24.9337 O   0  0  0  0  0  0  0  0  0  0  0  0
    6.4455  -16.9248   27.1005 O   0  0  0  0  0  0  0  0  0  0  0  0
  1  2  1  0
  2  3  2  0
  4  2  1  0
  4  5  1  0
  5  6  1  1
  7  5  1  0
  7  8  2  0
  9  7  1  0
 10  9  1  0
 10 11  1  0
 11 13  1  0
 12 11  2  0
 13 14  1  0
 14 17  1  0
 14 15  1  6
 16 15  1  0
 17 18  2  0
 17 19  1  0
M  END
$$$$
