NGC.pdb
     RDKit          3D

 19 18  0  0  1  0  0  0  0  0999 V2000
    6.8739  -17.0264   13.2652 N   0  0  0  0  0  0  0  0  0  0  0  0
    6.7762  -17.2058   14.6573 C   0  0  0  0  0  0  0  0  0  0  0  0
    6.7247  -18.4219   15.0592 O   0  0  0  0  0  0  0  0  0  0  0  0
    6.7354  -16.0668   15.6017 C   0  0  0  0  0  0  0  0  0  0  0  0
    8.0896  -15.8304   16.2259 C   0  0  2  0  0  0  0  0  0  0  0  0
    8.4871  -16.9243   17.0664 N   0  0  0  0  0  0  0  0  0  0  0  0
    8.0953  -14.5200   16.9091 C   0  0  0  0  0  0  0  0  0  0  0  0
    7.9211  -13.4750   16.2777 O   0  0  0  0  0  0  0  0  0  0  0  0
    8.3056  -14.4100   18.3297 N   0  0  0  0  0  0  0  0  0  0  0  0
    8.3393  -13.1408   18.9905 C   0  0  0  0  0  0  0  0  0  0  0  0
    8.5518  -13.1516   20.4283 C   0  0  0  0  0  0  0  0  0  0  0  0
    8.5752  -12.0522   21.0657 O   0  0  0  0  0  0  0  0  0  0  0  0
    8.7503  -14.3098   21.2523 N   0  0  0  0  0  0  0  0  0  0  0  0
    9.1303  -14.1945   22.6419 C   0  0  1  0  0  0  0  0  0  0  0  0
    8.0189  -13.4892   23.3803 C   0  0  0  0  0  0  0  0  0  0  0  0
    6.7423  -14.6393   23.9463 S   0  0  0  0  0  0  0  0  0  0  0  0
    9.5273  -15.4505   23.2614 C   0  0  0  0  0  0  0  0  0  0  0  0
    9.2225  -16.5433   22.6875 O   0  0  0  0  0  0  0  0  0  0  0  0
   10.2176  -15.5153   24.4345 O   0  0  0  0  0  0  0  0  0  0  0  0
  1  2  1  0
  2  3  2  0
  4  2  1  0
  4  5  1  0
  5  6  1  1
  7  5  1  0
  7  8  2  0
  9  7  1  0
 10  9  1  0
 10 11  1  0
 11 13  1  0
 12 11  2  0
 13 14  1  0
 14 17  1  0
 14 15  1  1
 16 15  1  0
 17 18  2  0
 17 19  1  0
M  END
$$$$
