NGC.pdb
     RDKit          3D

 19 18  0  0  1  0  0  0  0  0999 V2000
    5.5652  -21.8400   22.1013 N   0  0  0  0  0  0  0  0  0  0  0  0
    5.7990  -20.7032   22.8969 C   0  0  0  0  0  0  0  0  0  0  0  0
    4.9039  -20.4471   23.7778 O   0  0  0  0  0  0  0  0  0  0  0  0
    7.0003  -19.8543   22.7315 C   0  0  0  0  0  0  0  0  0  0  0  0
    6.9995  -18.7139   23.7210 C   0  0  2  0  0  0  0  0  0  0  0  0
    5.7966  -17.9349   23.6352 N   0  0  0  0  0  0  0  0  0  0  0  0
    8.2365  -17.9215   23.5606 C   0  0  0  0  0  0  0  0  0  0  0  0
    9.3431  -18.4661   23.5627 O   0  0  0  0  0  0  0  0  0  0  0  0
    8.2012  -16.4907   23.3989 N   0  0  0  0  0  0  0  0  0  0  0  0
    9.3991  -15.7115   23.3192 C   0  0  0  0  0  0  0  0  0  0  0  0
   10.1930  -15.5971   24.5313 C   0  0  0  0  0  0  0  0  0  0  0  0
   11.2416  -14.8788   24.5272 O   0  0  0  0  0  0  0  0  0  0  0  0
    9.9227  -16.2304   25.7906 N   0  0  0  0  0  0  0  0  0  0  0  0
   10.2901  -15.6113   27.0438 C   0  0  1  0  0  0  0  0  0  0  0  0
    9.3881  -14.4221   27.2675 C   0  0  0  0  0  0  0  0  0  0  0  0
    9.7778  -13.5536   28.8059 S   0  0  0  0  0  0  0  0  0  0  0  0
   10.3294  -16.5257   28.1757 C   0  0  0  0  0  0  0  0  0  0  0  0
   10.9081  -16.1561   29.2458 O   0  0  0  0  0  0  0  0  0  0  0  0
    9.7702  -17.7681   28.1476 O   0  0  0  0  0  0  0  0  0  0  0  0
  1  2  1  0
  2  3  2  0
  4  2  1  0
  4  5  1  0
  5  6  1  6
  7  5  1  0
  7  8  2  0
  9  7  1  0
 10  9  1  0
 10 11  1  0
 11 13  1  0
 12 11  2  0
 13 14  1  0
 14 17  1  0
 14 15  1  1
 16 15  1  0
 17 18  2  0
 17 19  1  0
M  END
$$$$
