NGC.pdb
     RDKit          3D

 19 18  0  0  1  0  0  0  0  0999 V2000
    9.9111  -14.1659   16.0165 N   0  0  0  0  0  0  0  0  0  0  0  0
    9.8886  -15.0737   17.0913 C   0  0  0  0  0  0  0  0  0  0  0  0
   10.2369  -16.2753   16.8120 O   0  0  0  0  0  0  0  0  0  0  0  0
    9.4894  -14.6721   18.4589 C   0  0  0  0  0  0  0  0  0  0  0  0
    7.9873  -14.5824   18.5817 C   0  0  2  0  0  0  0  0  0  0  0  0
    7.4498  -13.5199   17.7797 N   0  0  0  0  0  0  0  0  0  0  0  0
    7.6136  -14.5005   20.0091 C   0  0  0  0  0  0  0  0  0  0  0  0
    7.4595  -13.4092   20.5626 O   0  0  0  0  0  0  0  0  0  0  0  0
    7.4180  -15.6832   20.8075 N   0  0  0  0  0  0  0  0  0  0  0  0
    6.8376  -15.6228   22.1143 C   0  0  0  0  0  0  0  0  0  0  0  0
    7.6737  -15.1033   23.1838 C   0  0  0  0  0  0  0  0  0  0  0  0
    8.8689  -14.7530   22.9298 O   0  0  0  0  0  0  0  0  0  0  0  0
    7.2936  -14.9332   24.5572 N   0  0  0  0  0  0  0  0  0  0  0  0
    8.1739  -14.3021   25.5140 C   0  0  1  0  0  0  0  0  0  0  0  0
    7.3567  -13.3526   26.3557 C   0  0  0  0  0  0  0  0  0  0  0  0
    8.3527  -12.5484   27.6340 S   0  0  0  0  0  0  0  0  0  0  0  0
    8.9690  -15.2324   26.3022 C   0  0  0  0  0  0  0  0  0  0  0  0
    8.4495  -16.3365   26.6598 O   0  0  0  0  0  0  0  0  0  0  0  0
   10.2542  -14.9793   26.6776 O   0  0  0  0  0  0  0  0  0  0  0  0
  1  2  1  0
  2  3  2  0
  4  2  1  0
  4  5  1  0
  5  6  1  6
  7  5  1  0
  7  8  2  0
  9  7  1  0
 10  9  1  0
 10 11  1  0
 11 13  1  0
 12 11  2  0
 13 14  1  0
 14 17  1  0
 14 15  1  1
 16 15  1  0
 17 18  2  0
 17 19  1  0
M  END
$$$$
