NGC.pdb
     RDKit          3D

 19 18  0  0  1  0  0  0  0  0999 V2000
    9.2470  -18.6767   18.6573 N   0  0  0  0  0  0  0  0  0  0  0  0
    9.5356  -17.9334   19.8167 C   0  0  0  0  0  0  0  0  0  0  0  0
   10.6140  -18.2555   20.4300 O   0  0  0  0  0  0  0  0  0  0  0  0
    8.6538  -16.8477   20.3012 C   0  0  0  0  0  0  0  0  0  0  0  0
    8.2073  -17.1037   21.7206 C   0  0  2  0  0  0  0  0  0  0  0  0
    7.4167  -18.2977   21.8232 N   0  0  0  0  0  0  0  0  0  0  0  0
    7.5388  -15.8977   22.2520 C   0  0  0  0  0  0  0  0  0  0  0  0
    6.6721  -15.9857   23.1249 O   0  0  0  0  0  0  0  0  0  0  0  0
    7.8679  -14.5794   21.7739 N   0  0  0  0  0  0  0  0  0  0  0  0
    7.2589  -13.4055   22.3212 C   0  0  0  0  0  0  0  0  0  0  0  0
    7.5092  -13.1265   23.7255 C   0  0  0  0  0  0  0  0  0  0  0  0
    7.1342  -12.0172   24.2198 O   0  0  0  0  0  0  0  0  0  0  0  0
    8.1624  -13.9941   24.6639 N   0  0  0  0  0  0  0  0  0  0  0  0
    8.1976  -13.6920   26.0768 C   0  0  1  0  0  0  0  0  0  0  0  0
    6.7785  -13.5169   26.5597 C   0  0  0  0  0  0  0  0  0  0  0  0
    6.2814  -11.7778   26.5922 S   0  0  0  0  0  0  0  0  0  0  0  0
    8.9648  -14.6384   26.8735 C   0  0  0  0  0  0  0  0  0  0  0  0
    9.4428  -15.6727   26.3093 O   0  0  0  0  0  0  0  0  0  0  0  0
    9.2011  -14.4695   28.2049 O   0  0  0  0  0  0  0  0  0  0  0  0
  1  2  1  0
  2  3  2  0
  4  2  1  0
  4  5  1  0
  5  6  1  6
  7  5  1  0
  7  8  2  0
  9  7  1  0
 10  9  1  0
 10 11  1  0
 11 13  1  0
 12 11  2  0
 13 14  1  0
 14 17  1  0
 14 15  1  1
 16 15  1  0
 17 18  2  0
 17 19  1  0
M  END
$$$$
