NGC.pdb
     RDKit          3D

 19 18  0  0  1  0  0  0  0  0999 V2000
    9.5558  -14.8582   17.9947 N   0  0  0  0  0  0  0  0  0  0  0  0
    8.2914  -14.5387   17.4666 C   0  0  0  0  0  0  0  0  0  0  0  0
    7.9269  -15.2208   16.4444 O   0  0  0  0  0  0  0  0  0  0  0  0
    7.4329  -13.4836   18.0504 C   0  0  0  0  0  0  0  0  0  0  0  0
    8.0334  -12.9379   19.3237 C   0  0  2  0  0  0  0  0  0  0  0  0
    9.4338  -12.6588   19.1753 N   0  0  0  0  0  0  0  0  0  0  0  0
    7.7217  -13.8483   20.4451 C   0  0  0  0  0  0  0  0  0  0  0  0
    6.5572  -14.0333   20.8067 O   0  0  0  0  0  0  0  0  0  0  0  0
    8.7577  -14.5500   21.1584 N   0  0  0  0  0  0  0  0  0  0  0  0
    8.4616  -15.4130   22.2612 C   0  0  0  0  0  0  0  0  0  0  0  0
    8.6012  -14.8508   23.5943 C   0  0  0  0  0  0  0  0  0  0  0  0
    9.7300  -14.8943   24.1769 O   0  0  0  0  0  0  0  0  0  0  0  0
    7.5671  -14.2253   24.3685 N   0  0  0  0  0  0  0  0  0  0  0  0
    7.8062  -13.7599   25.7156 C   0  0  1  0  0  0  0  0  0  0  0  0
    6.6606  -12.8635   26.1179 C   0  0  0  0  0  0  0  0  0  0  0  0
    6.9159  -12.1252   27.7496 S   0  0  0  0  0  0  0  0  0  0  0  0
    8.0742  -14.8192   26.6774 C   0  0  0  0  0  0  0  0  0  0  0  0
    7.3831  -15.8852   26.6276 O   0  0  0  0  0  0  0  0  0  0  0  0
    9.0386  -14.7267   27.6358 O   0  0  0  0  0  0  0  0  0  0  0  0
  1  2  1  0
  2  3  2  0
  4  2  1  0
  4  5  1  0
  5  6  1  6
  7  5  1  0
  7  8  2  0
  9  7  1  0
 10  9  1  0
 10 11  1  0
 11 13  1  0
 12 11  2  0
 13 14  1  0
 14 17  1  0
 14 15  1  1
 16 15  1  0
 17 18  2  0
 17 19  1  0
M  END
$$$$
