NGC.pdb
     RDKit          3D

 19 18  0  0  1  0  0  0  0  0999 V2000
    9.9163  -19.8592   18.4725 N   0  0  0  0  0  0  0  0  0  0  0  0
    9.3849  -18.5605   18.5766 C   0  0  0  0  0  0  0  0  0  0  0  0
    9.6112  -17.7854   17.5812 O   0  0  0  0  0  0  0  0  0  0  0  0
    8.6130  -18.1131   19.7577 C   0  0  0  0  0  0  0  0  0  0  0  0
    9.3323  -17.0047   20.4883 C   0  0  2  0  0  0  0  0  0  0  0  0
   10.6526  -17.4006   20.8899 N   0  0  0  0  0  0  0  0  0  0  0  0
    8.4898  -16.5204   21.6015 C   0  0  0  0  0  0  0  0  0  0  0  0
    8.2074  -17.2566   22.5498 O   0  0  0  0  0  0  0  0  0  0  0  0
    7.9652  -15.1792   21.6234 N   0  0  0  0  0  0  0  0  0  0  0  0
    7.1263  -14.7154   22.6861 C   0  0  0  0  0  0  0  0  0  0  0  0
    7.7893  -14.1869   23.8668 C   0  0  0  0  0  0  0  0  0  0  0  0
    9.0574  -14.2274   23.9433 O   0  0  0  0  0  0  0  0  0  0  0  0
    7.1526  -13.5997   25.0112 N   0  0  0  0  0  0  0  0  0  0  0  0
    7.9194  -13.0739   26.1176 C   0  0  1  0  0  0  0  0  0  0  0  0
    7.2202  -11.8407   26.6355 C   0  0  0  0  0  0  0  0  0  0  0  0
    5.4204  -11.9808   26.5194 S   0  0  0  0  0  0  0  0  0  0  0  0
    8.2164  -14.0477   27.1581 C   0  0  0  0  0  0  0  0  0  0  0  0
    9.0046  -13.7205   28.1005 O   0  0  0  0  0  0  0  0  0  0  0  0
    7.6857  -15.3027   27.1751 O   0  0  0  0  0  0  0  0  0  0  0  0
  1  2  1  0
  2  3  2  0
  4  2  1  0
  4  5  1  0
  5  6  1  1
  7  5  1  0
  7  8  2  0
  9  7  1  0
 10  9  1  0
 10 11  1  0
 11 13  1  0
 12 11  2  0
 13 14  1  0
 14 17  1  0
 14 15  1  1
 16 15  1  0
 17 18  2  0
 17 19  1  0
M  END
$$$$
