CLI.pdb
     RDKit          3D

 23 22  0  0  1  0  0  0  0  0999 V2000
   19.5621  -13.5761  -19.3486 N   0  0  0  0  0  0  0  0  0  0  0  0
   20.2578  -12.3363  -19.4866 C   0  0  1  0  0  0  0  0  0  0  0  0
   19.7467  -11.6287  -20.7241 C   0  0  0  0  0  0  0  0  0  0  0  0
   20.2456  -12.4727  -22.2232 S   0  0  0  0  0  0  0  0  0  0  0  0
   20.0487  -11.4435  -18.3086 C   0  0  0  0  0  0  0  0  0  0  0  0
   18.9040  -11.2437  -17.8301 O   0  0  0  0  0  0  0  0  0  0  0  0
   23.4419   -9.5943  -13.5998 C   0  0  0  0  0  0  0  0  0  0  0  0
   22.1491   -9.6537  -14.4414 C   0  0  2  0  0  0  0  0  0  0  0  0
   21.2898  -10.7620  -13.8759 C   0  0  0  0  0  0  0  0  0  0  0  0
   22.5379   -9.9243  -15.8751 C   0  0  0  0  0  0  0  0  0  0  0  0
   21.2509   -9.8700  -16.7109 C   0  0  2  0  0  0  0  0  0  0  0  0
   21.1929  -10.8322  -17.7536 N   0  0  0  0  0  0  0  0  0  0  0  0
   20.8293   -8.5234  -17.0448 C   0  0  0  0  0  0  0  0  0  0  0  0
   21.3452   -7.8505  -18.0066 O   0  0  0  0  0  0  0  0  0  0  0  0
   17.2303   -6.2627  -18.8344 C   0  0  0  0  0  0  0  0  0  0  0  0
   17.2895   -7.1802  -17.6143 C   0  0  0  0  0  0  0  0  0  0  0  0
   17.9181   -6.4352  -16.4790 C   0  0  2  0  0  0  0  0  0  0  0  0
   17.4696   -4.9828  -16.4905 C   0  0  0  0  0  0  0  0  0  0  0  0
   19.4205   -6.5011  -16.5110 C   0  0  2  0  0  0  0  0  0  0  0  0
   19.8026   -7.8870  -16.2991 N   0  0  0  0  0  0  0  0  0  0  0  0
   20.0705   -5.5753  -15.5999 C   0  0  0  0  0  0  0  0  0  0  0  0
   20.3153   -5.9261  -14.2895 O   0  0  0  0  0  0  0  0  0  0  0  0
   20.4204   -4.4410  -15.9892 O   0  0  0  0  0  0  0  0  0  0  0  0
  2  3  1  0
  2  1  1  1
  3  4  1  0
  5  2  1  0
  6  5  2  0
  8  7  1  1
  8 10  1  0
  9  8  1  0
 11 10  1  6
 11 12  1  0
 12  5  1  0
 13 11  1  0
 13 20  1  0
 14 13  2  0
 15 16  1  0
 16 17  1  0
 17 19  1  0
 17 18  1  6
 19 20  1  1
 19 21  1  0
 21 22  1  0
 23 21  2  0
M  END
$$$$
