CLI.pdb
     RDKit          3D

 23 22  0  0  1  0  0  0  0  0999 V2000
   18.2072  -14.7285  -17.8378 N   0  0  0  0  0  0  0  0  0  0  0  0
   17.6473  -13.4173  -17.7520 C   0  0  1  0  0  0  0  0  0  0  0  0
   16.7307  -13.3593  -16.5480 C   0  0  0  0  0  0  0  0  0  0  0  0
   15.2947  -14.4095  -16.7578 S   0  0  0  0  0  0  0  0  0  0  0  0
   18.6991  -12.3691  -17.5990 C   0  0  0  0  0  0  0  0  0  0  0  0
   19.6890  -12.5363  -16.8432 O   0  0  0  0  0  0  0  0  0  0  0  0
   19.7919   -6.8706  -20.4118 C   0  0  0  0  0  0  0  0  0  0  0  0
   20.1879   -8.0031  -19.4404 C   0  0  2  0  0  0  0  0  0  0  0  0
   21.5373   -8.5260  -19.8787 C   0  0  0  0  0  0  0  0  0  0  0  0
   19.1242   -9.0723  -19.5122 C   0  0  0  0  0  0  0  0  0  0  0  0
   19.3556  -10.0212  -18.3274 C   0  0  2  0  0  0  0  0  0  0  0  0
   18.5347  -11.1798  -18.3404 N   0  0  0  0  0  0  0  0  0  0  0  0
   19.4991   -9.3405  -17.0551 C   0  0  0  0  0  0  0  0  0  0  0  0
   18.4980   -9.0111  -16.3248 O   0  0  0  0  0  0  0  0  0  0  0  0
   22.2947  -10.1190  -12.1006 C   0  0  0  0  0  0  0  0  0  0  0  0
   21.8098   -8.9564  -12.9650 C   0  0  0  0  0  0  0  0  0  0  0  0
   21.6177   -9.4433  -14.3668 C   0  0  2  0  0  0  0  0  0  0  0  0
   22.9460   -9.8912  -14.9548 C   0  0  0  0  0  0  0  0  0  0  0  0
   20.9964   -8.4014  -15.2563 C   0  0  2  0  0  0  0  0  0  0  0  0
   20.7872   -9.0074  -16.5605 N   0  0  0  0  0  0  0  0  0  0  0  0
   21.7382   -7.1538  -15.3097 C   0  0  0  0  0  0  0  0  0  0  0  0
   22.4364   -6.7932  -16.4422 O   0  0  0  0  0  0  0  0  0  0  0  0
   21.7566   -6.3829  -14.3268 O   0  0  0  0  0  0  0  0  0  0  0  0
  2  3  1  0
  2  1  1  1
  3  4  1  0
  5  2  1  0
  6  5  2  0
  8  7  1  6
  8 10  1  0
  9  8  1  0
 11 10  1  6
 11 12  1  0
 12  5  1  0
 13 11  1  0
 13 20  1  0
 14 13  2  0
 15 16  1  0
 16 17  1  0
 17 19  1  0
 17 18  1  6
 19 20  1  6
 19 21  1  0
 21 22  1  0
 23 21  2  0
M  END
$$$$
