CLI.pdb
     RDKit          3D

 23 22  0  0  1  0  0  0  0  0999 V2000
   17.7510  -10.2392  -18.7512 N   0  0  0  0  0  0  0  0  0  0  0  0
   17.1041   -9.5333  -17.6913 C   0  0  1  0  0  0  0  0  0  0  0  0
   16.0745  -10.4458  -17.0585 C   0  0  0  0  0  0  0  0  0  0  0  0
   14.8413  -10.9759  -18.2447 S   0  0  0  0  0  0  0  0  0  0  0  0
   18.0684   -9.1019  -16.6366 C   0  0  0  0  0  0  0  0  0  0  0  0
   17.6925   -8.4552  -15.6268 O   0  0  0  0  0  0  0  0  0  0  0  0
   23.9555  -10.6277  -15.2267 C   0  0  0  0  0  0  0  0  0  0  0  0
   22.6995   -9.7526  -15.0271 C   0  0  2  0  0  0  0  0  0  0  0  0
   22.1909  -10.0015  -13.6250 C   0  0  0  0  0  0  0  0  0  0  0  0
   21.6826  -10.1516  -16.0694 C   0  0  0  0  0  0  0  0  0  0  0  0
   20.5272   -9.1439  -15.9835 C   0  0  2  0  0  0  0  0  0  0  0  0
   19.4229   -9.4515  -16.8215 N   0  0  0  0  0  0  0  0  0  0  0  0
   20.9610   -7.7604  -15.9614 C   0  0  0  0  0  0  0  0  0  0  0  0
   21.5144   -7.1881  -16.9665 O   0  0  0  0  0  0  0  0  0  0  0  0
   17.7390   -4.0673  -15.6607 C   0  0  0  0  0  0  0  0  0  0  0  0
   19.0478   -4.8222  -15.8867 C   0  0  0  0  0  0  0  0  0  0  0  0
   19.8547   -4.7791  -14.6273 C   0  0  2  0  0  0  0  0  0  0  0  0
   20.1670   -3.3395  -14.2519 C   0  0  0  0  0  0  0  0  0  0  0  0
   21.1344   -5.5619  -14.7384 C   0  0  2  0  0  0  0  0  0  0  0  0
   20.7823   -6.9706  -14.7956 N   0  0  0  0  0  0  0  0  0  0  0  0
   22.1077   -5.2496  -13.7066 C   0  0  0  0  0  0  0  0  0  0  0  0
   23.0895   -4.3062  -13.9216 O   0  0  0  0  0  0  0  0  0  0  0  0
   22.0722   -5.8325  -12.6022 O   0  0  0  0  0  0  0  0  0  0  0  0
  2  3  1  0
  2  1  1  6
  3  4  1  0
  5  2  1  0
  6  5  2  0
  8  7  1  6
  8 10  1  0
  9  8  1  0
 11 10  1  6
 11 12  1  0
 12  5  1  0
 13 11  1  0
 13 20  1  0
 14 13  2  0
 15 16  1  0
 16 17  1  0
 17 19  1  0
 17 18  1  6
 19 20  1  1
 19 21  1  0
 21 22  1  0
 23 21  2  0
M  END
$$$$
