CLI.pdb
     RDKit          3D

 23 22  0  0  1  0  0  0  0  0999 V2000
   27.1562  -22.6105  -15.9889 N   0  0  0  0  0  0  0  0  0  0  0  0
   26.6777  -21.4195  -15.3621 C   0  0  1  0  0  0  0  0  0  0  0  0
   26.1856  -20.4710  -16.4351 C   0  0  0  0  0  0  0  0  0  0  0  0
   27.5436  -19.6566  -17.2726 S   0  0  0  0  0  0  0  0  0  0  0  0
   25.5528  -21.6963  -14.4206 C   0  0  0  0  0  0  0  0  0  0  0  0
   24.8649  -22.7442  -14.5082 O   0  0  0  0  0  0  0  0  0  0  0  0
   25.6279  -22.0908  -10.2548 C   0  0  0  0  0  0  0  0  0  0  0  0
   25.9131  -20.6259  -10.6494 C   0  0  2  0  0  0  0  0  0  0  0  0
   26.4306  -19.9166   -9.4184 C   0  0  0  0  0  0  0  0  0  0  0  0
   24.6233  -20.0168  -11.1446 C   0  0  0  0  0  0  0  0  0  0  0  0
   24.2587  -20.7312  -12.4540 C   0  0  2  0  0  0  0  0  0  0  0  0
   25.2939  -20.7296  -13.4259 N   0  0  0  0  0  0  0  0  0  0  0  0
   22.9213  -20.4322  -12.9281 C   0  0  0  0  0  0  0  0  0  0  0  0
   21.9032  -20.3765  -12.1507 O   0  0  0  0  0  0  0  0  0  0  0  0
   22.6542  -17.3135  -17.3397 C   0  0  0  0  0  0  0  0  0  0  0  0
   22.3695  -17.9100  -15.9623 C   0  0  0  0  0  0  0  0  0  0  0  0
   21.5512  -19.1511  -16.1323 C   0  0  2  0  0  0  0  0  0  0  0  0
   20.1934  -18.8089  -16.7241 C   0  0  0  0  0  0  0  0  0  0  0  0
   21.3661  -19.8982  -14.8400 C   0  0  2  0  0  0  0  0  0  0  0  0
   22.6872  -20.1830  -14.3057 N   0  0  0  0  0  0  0  0  0  0  0  0
   20.5220  -21.0745  -14.9550 C   0  0  0  0  0  0  0  0  0  0  0  0
   19.2166  -21.0553  -14.5124 O   0  0  0  0  0  0  0  0  0  0  0  0
   20.9655  -22.1282  -15.4587 O   0  0  0  0  0  0  0  0  0  0  0  0
  2  3  1  0
  2  1  1  6
  3  4  1  0
  5  2  1  0
  6  5  2  0
  8  7  1  1
  8 10  1  0
  9  8  1  0
 11 10  1  1
 11 12  1  0
 12  5  1  0
 13 11  1  0
 13 20  1  0
 14 13  2  0
 15 16  1  0
 16 17  1  0
 17 19  1  0
 17 18  1  1
 19 20  1  6
 19 21  1  0
 21 22  1  0
 23 21  2  0
M  END
$$$$
