CLI.pdb
     RDKit          3D

 23 22  0  0  1  0  0  0  0  0999 V2000
   28.9045  -20.6077  -14.5491 N   0  0  0  0  0  0  0  0  0  0  0  0
   28.2704  -19.9648  -13.4424 C   0  0  1  0  0  0  0  0  0  0  0  0
   27.9147  -18.5484  -13.8432 C   0  0  0  0  0  0  0  0  0  0  0  0
   26.6074  -18.5151  -15.0674 S   0  0  0  0  0  0  0  0  0  0  0  0
   27.0212  -20.6688  -13.0274 C   0  0  0  0  0  0  0  0  0  0  0  0
   26.4837  -21.5393  -13.7571 O   0  0  0  0  0  0  0  0  0  0  0  0
   26.6362  -21.9288   -8.8638 C   0  0  0  0  0  0  0  0  0  0  0  0
   26.3540  -20.4289   -9.0958 C   0  0  2  0  0  0  0  0  0  0  0  0
   26.3665  -19.7504   -7.7446 C   0  0  0  0  0  0  0  0  0  0  0  0
   25.0087  -20.3063   -9.7703 C   0  0  0  0  0  0  0  0  0  0  0  0
   25.2055  -20.6863  -11.2450 C   0  0  2  0  0  0  0  0  0  0  0  0
   26.4680  -20.3150  -11.7785 N   0  0  0  0  0  0  0  0  0  0  0  0
   24.0460  -20.4219  -12.0746 C   0  0  0  0  0  0  0  0  0  0  0  0
   23.8191  -19.2793  -12.6105 O   0  0  0  0  0  0  0  0  0  0  0  0
   23.0634  -23.6321  -15.9365 C   0  0  0  0  0  0  0  0  0  0  0  0
   23.1071  -22.3826  -15.0587 C   0  0  0  0  0  0  0  0  0  0  0  0
   21.8996  -22.3697  -14.1750 C   0  0  2  0  0  0  0  0  0  0  0  0
   20.6354  -22.2713  -15.0134 C   0  0  0  0  0  0  0  0  0  0  0  0
   21.9321  -21.2466  -13.1749 C   0  0  2  0  0  0  0  0  0  0  0  0
   23.0972  -21.4464  -12.3298 N   0  0  0  0  0  0  0  0  0  0  0  0
   20.6963  -21.0859  -12.4289 C   0  0  0  0  0  0  0  0  0  0  0  0
   20.5186  -21.7069  -11.2111 O   0  0  0  0  0  0  0  0  0  0  0  0
   19.7694  -20.3796  -12.8792 O   0  0  0  0  0  0  0  0  0  0  0  0
  2  3  1  0
  2  1  1  6
  3  4  1  0
  5  2  1  0
  6  5  2  0
  8  7  1  1
  8 10  1  0
  9  8  1  0
 11 10  1  1
 11 12  1  0
 12  5  1  0
 13 11  1  0
 13 20  1  0
 14 13  2  0
 15 16  1  0
 16 17  1  0
 17 19  1  0
 17 18  1  6
 19 20  1  1
 19 21  1  0
 21 22  1  0
 23 21  2  0
M  END
$$$$
