CLI.pdb
     RDKit          3D

 23 22  0  0  1  0  0  0  0  0999 V2000
   18.4275  -12.7074  -16.7145 N   0  0  0  0  0  0  0  0  0  0  0  0
   18.8382  -11.4154  -17.1642 C   0  0  1  0  0  0  0  0  0  0  0  0
   17.6495  -10.7211  -17.7952 C   0  0  0  0  0  0  0  0  0  0  0  0
   18.1390   -9.2425  -18.6799 S   0  0  0  0  0  0  0  0  0  0  0  0
   19.3435  -10.5679  -16.0440 C   0  0  0  0  0  0  0  0  0  0  0  0
   18.6844  -10.4167  -14.9849 O   0  0  0  0  0  0  0  0  0  0  0  0
   22.4754  -10.6135  -13.2791 C   0  0  0  0  0  0  0  0  0  0  0  0
   23.0134  -10.5677  -14.7253 C   0  0  2  0  0  0  0  0  0  0  0  0
   24.4907  -10.8853  -14.6705 C   0  0  0  0  0  0  0  0  0  0  0  0
   22.7593   -9.1841  -15.2738 C   0  0  0  0  0  0  0  0  0  0  0  0
   21.2370   -9.0077  -15.3697 C   0  0  2  0  0  0  0  0  0  0  0  0
   20.5953   -9.9423  -16.2248 N   0  0  0  0  0  0  0  0  0  0  0  0
   20.8168   -7.6248  -15.4863 C   0  0  0  0  0  0  0  0  0  0  0  0
   21.2511   -6.6976  -14.7145 O   0  0  0  0  0  0  0  0  0  0  0  0
   19.8663   -5.7774  -20.4214 C   0  0  0  0  0  0  0  0  0  0  0  0
   20.2737   -5.9781  -18.9628 C   0  0  0  0  0  0  0  0  0  0  0  0
   19.1075   -5.6488  -18.0851 C   0  0  2  0  0  0  0  0  0  0  0  0
   18.6775   -4.2068  -18.3008 C   0  0  0  0  0  0  0  0  0  0  0  0
   19.4035   -5.8758  -16.6279 C   0  0  2  0  0  0  0  0  0  0  0  0
   19.8861   -7.2392  -16.4864 N   0  0  0  0  0  0  0  0  0  0  0  0
   18.2944   -5.5595  -15.7450 C   0  0  0  0  0  0  0  0  0  0  0  0
   18.3331   -4.4487  -14.9297 O   0  0  0  0  0  0  0  0  0  0  0  0
   17.2824   -6.2911  -15.7088 O   0  0  0  0  0  0  0  0  0  0  0  0
  2  3  1  0
  2  1  1  1
  3  4  1  0
  5  2  1  0
  6  5  2  0
  8  7  1  1
  8 10  1  0
  9  8  1  0
 11 10  1  6
 11 12  1  0
 12  5  1  0
 13 11  1  0
 13 20  1  0
 14 13  2  0
 15 16  1  0
 16 17  1  0
 17 19  1  0
 17 18  1  1
 19 20  1  6
 19 21  1  0
 21 22  1  0
 23 21  2  0
M  END
$$$$
