CLI.pdb
     RDKit          3D

 23 22  0  0  1  0  0  0  0  0999 V2000
   28.6008  -18.8322  -17.1542 N   0  0  0  0  0  0  0  0  0  0  0  0
   28.0169  -18.3307  -15.9509 C   0  0  1  0  0  0  0  0  0  0  0  0
   27.2100  -17.0930  -16.2827 C   0  0  0  0  0  0  0  0  0  0  0  0
   28.2638  -15.6746  -16.5771 S   0  0  0  0  0  0  0  0  0  0  0  0
   27.1119  -19.3299  -15.3099 C   0  0  0  0  0  0  0  0  0  0  0  0
   26.4160  -20.1211  -15.9946 O   0  0  0  0  0  0  0  0  0  0  0  0
   25.5422  -20.4641   -9.3305 C   0  0  0  0  0  0  0  0  0  0  0  0
   25.3864  -20.7177  -10.8453 C   0  0  2  0  0  0  0  0  0  0  0  0
   25.5743  -22.1997  -11.0793 C   0  0  0  0  0  0  0  0  0  0  0  0
   26.4329  -19.9012  -11.5649 C   0  0  0  0  0  0  0  0  0  0  0  0
   26.0934  -19.9485  -13.0618 C   0  0  2  0  0  0  0  0  0  0  0  0
   27.0705  -19.3487  -13.8996 N   0  0  0  0  0  0  0  0  0  0  0  0
   24.7074  -19.6391  -13.3549 C   0  0  0  0  0  0  0  0  0  0  0  0
   24.2154  -18.4616  -13.2304 O   0  0  0  0  0  0  0  0  0  0  0  0
   22.6413  -20.3218  -17.9116 C   0  0  0  0  0  0  0  0  0  0  0  0
   22.8787  -19.8404  -16.4813 C   0  0  0  0  0  0  0  0  0  0  0  0
   22.1891  -20.7732  -15.5361 C   0  0  2  0  0  0  0  0  0  0  0  0
   20.6961  -20.8014  -15.8207 C   0  0  0  0  0  0  0  0  0  0  0  0
   22.4227  -20.4075  -14.0959 C   0  0  2  0  0  0  0  0  0  0  0  0
   23.8242  -20.6560  -13.8028 N   0  0  0  0  0  0  0  0  0  0  0  0
   21.5131  -21.0566  -13.1681 C   0  0  0  0  0  0  0  0  0  0  0  0
   21.7033  -22.3689  -12.7913 O   0  0  0  0  0  0  0  0  0  0  0  0
   20.5390  -20.4349  -12.6934 O   0  0  0  0  0  0  0  0  0  0  0  0
  2  3  1  0
  2  1  1  6
  3  4  1  0
  5  2  1  0
  6  5  2  0
  8  7  1  1
  8 10  1  0
  9  8  1  0
 11 10  1  1
 11 12  1  0
 12  5  1  0
 13 11  1  0
 13 20  1  0
 14 13  2  0
 15 16  1  0
 16 17  1  0
 17 19  1  0
 17 18  1  6
 19 20  1  1
 19 21  1  0
 21 22  1  0
 23 21  2  0
M  END
$$$$
