CLI.pdb
     RDKit          3D

 23 22  0  0  1  0  0  0  0  0999 V2000
   16.4716  -11.9081  -14.4505 N   0  0  0  0  0  0  0  0  0  0  0  0
   16.4694  -10.5274  -14.8166 C   0  0  1  0  0  0  0  0  0  0  0  0
   15.1111  -10.1798  -15.3889 C   0  0  0  0  0  0  0  0  0  0  0  0
   14.8849  -10.8726  -17.0252 S   0  0  0  0  0  0  0  0  0  0  0  0
   16.7336   -9.6383  -13.6470 C   0  0  0  0  0  0  0  0  0  0  0  0
   16.2765   -9.8995  -12.5060 O   0  0  0  0  0  0  0  0  0  0  0  0
   20.4952   -8.5132  -12.0722 C   0  0  0  0  0  0  0  0  0  0  0  0
   20.2760   -7.8484  -13.4481 C   0  0  2  0  0  0  0  0  0  0  0  0
   21.6004   -7.2652  -13.8866 C   0  0  0  0  0  0  0  0  0  0  0  0
   19.2210   -6.7803  -13.2872 C   0  0  0  0  0  0  0  0  0  0  0  0
   17.9050   -7.4923  -12.9422 C   0  0  2  0  0  0  0  0  0  0  0  0
   17.5201   -8.4896  -13.8770 N   0  0  0  0  0  0  0  0  0  0  0  0
   16.8619   -6.5972  -12.4801 C   0  0  0  0  0  0  0  0  0  0  0  0
   16.0480   -6.0068  -13.2758 O   0  0  0  0  0  0  0  0  0  0  0  0
   14.7204   -7.1044   -7.3359 C   0  0  0  0  0  0  0  0  0  0  0  0
   15.6700   -6.4441   -8.3340 C   0  0  0  0  0  0  0  0  0  0  0  0
   14.8970   -6.0621   -9.5570 C   0  0  2  0  0  0  0  0  0  0  0  0
   14.2543   -7.2916  -10.1783 C   0  0  0  0  0  0  0  0  0  0  0  0
   15.7504   -5.3652  -10.5811 C   0  0  2  0  0  0  0  0  0  0  0  0
   16.7008   -6.3377  -11.0939 N   0  0  0  0  0  0  0  0  0  0  0  0
   16.3737   -4.1457  -10.0975 C   0  0  0  0  0  0  0  0  0  0  0  0
   17.7376   -4.0736   -9.9109 O   0  0  0  0  0  0  0  0  0  0  0  0
   15.6824   -3.1372   -9.8412 O   0  0  0  0  0  0  0  0  0  0  0  0
  2  3  1  0
  2  1  1  1
  3  4  1  0
  5  2  1  0
  6  5  2  0
  8  7  1  1
  8 10  1  0
  9  8  1  0
 11 10  1  6
 11 12  1  0
 12  5  1  0
 13 11  1  0
 13 20  1  0
 14 13  2  0
 15 16  1  0
 16 17  1  0
 17 19  1  0
 17 18  1  6
 19 20  1  1
 19 21  1  0
 21 22  1  0
 23 21  2  0
M  END
$$$$
