CLI.pdb
     RDKit          3D

 23 22  0  0  1  0  0  0  0  0999 V2000
   22.4145  -13.9418  -19.8872 N   0  0  0  0  0  0  0  0  0  0  0  0
   21.1030  -13.4698  -19.5746 C   0  0  1  0  0  0  0  0  0  0  0  0
   20.4806  -14.4046  -18.5588 C   0  0  0  0  0  0  0  0  0  0  0  0
   20.2150  -16.0401  -19.2393 S   0  0  0  0  0  0  0  0  0  0  0  0
   21.1267  -12.0921  -19.0003 C   0  0  0  0  0  0  0  0  0  0  0  0
   22.1786  -11.5963  -18.5240 O   0  0  0  0  0  0  0  0  0  0  0  0
   19.9994   -7.9520  -20.6425 C   0  0  0  0  0  0  0  0  0  0  0  0
   18.9105   -9.0455  -20.6829 C   0  0  2  0  0  0  0  0  0  0  0  0
   17.7568   -8.5074  -21.4989 C   0  0  0  0  0  0  0  0  0  0  0  0
   18.4978   -9.3456  -19.2619 C   0  0  0  0  0  0  0  0  0  0  0  0
   19.6887  -10.0354  -18.5808 C   0  0  2  0  0  0  0  0  0  0  0  0
   19.9156  -11.3683  -19.0149 N   0  0  0  0  0  0  0  0  0  0  0  0
   19.7624   -9.7953  -17.1527 C   0  0  0  0  0  0  0  0  0  0  0  0
   18.9820  -10.3648  -16.3096 O   0  0  0  0  0  0  0  0  0  0  0  0
   23.7221  -10.9700  -14.4546 C   0  0  0  0  0  0  0  0  0  0  0  0
   22.3592  -10.5469  -15.0001 C   0  0  0  0  0  0  0  0  0  0  0  0
   22.1598   -9.0894  -14.7261 C   0  0  2  0  0  0  0  0  0  0  0  0
   22.3043   -8.8092  -13.2390 C   0  0  0  0  0  0  0  0  0  0  0  0
   20.8241   -8.5924  -15.2071 C   0  0  2  0  0  0  0  0  0  0  0  0
   20.7275   -8.8984  -16.6244 N   0  0  0  0  0  0  0  0  0  0  0  0
   20.5682   -7.1967  -14.8972 C   0  0  0  0  0  0  0  0  0  0  0  0
   19.8613   -6.8400  -13.7688 O   0  0  0  0  0  0  0  0  0  0  0  0
   20.9856   -6.2916  -15.6505 O   0  0  0  0  0  0  0  0  0  0  0  0
  2  3  1  0
  2  1  1  1
  3  4  1  0
  5  2  1  0
  6  5  2  0
  8  7  1  1
  8 10  1  0
  9  8  1  0
 11 10  1  1
 11 12  1  0
 12  5  1  0
 13 11  1  0
 13 20  1  0
 14 13  2  0
 15 16  1  0
 16 17  1  0
 17 19  1  0
 17 18  1  1
 19 20  1  6
 19 21  1  0
 21 22  1  0
 23 21  2  0
M  END
$$$$
