CLI.pdb
     RDKit          3D

 23 22  0  0  1  0  0  0  0  0999 V2000
   20.6811  -15.0441  -18.5091 N   0  0  0  0  0  0  0  0  0  0  0  0
   19.7397  -14.4569  -17.6094 C   0  0  1  0  0  0  0  0  0  0  0  0
   19.1194  -15.5554  -16.7718 C   0  0  0  0  0  0  0  0  0  0  0  0
   18.0963  -16.6442  -17.7600 S   0  0  0  0  0  0  0  0  0  0  0  0
   20.3825  -13.4677  -16.6947 C   0  0  0  0  0  0  0  0  0  0  0  0
   19.7210  -12.8551  -15.8194 O   0  0  0  0  0  0  0  0  0  0  0  0
   23.8799  -14.2671  -14.3353 C   0  0  0  0  0  0  0  0  0  0  0  0
   24.2056  -14.1118  -15.8362 C   0  0  2  0  0  0  0  0  0  0  0  0
   25.6120  -14.6237  -16.0510 C   0  0  0  0  0  0  0  0  0  0  0  0
   24.0830  -12.6493  -16.1911 C   0  0  0  0  0  0  0  0  0  0  0  0
   22.5866  -12.3050  -16.1809 C   0  0  2  0  0  0  0  0  0  0  0  0
   21.7673  -13.2491  -16.8546 N   0  0  0  0  0  0  0  0  0  0  0  0
   22.3091  -10.9046  -16.4355 C   0  0  0  0  0  0  0  0  0  0  0  0
   22.6579  -10.3112  -17.5173 O   0  0  0  0  0  0  0  0  0  0  0  0
   18.1268   -7.1290  -16.9727 C   0  0  0  0  0  0  0  0  0  0  0  0
   19.5497   -7.1579  -16.4173 C   0  0  0  0  0  0  0  0  0  0  0  0
   19.9301   -8.5773  -16.1351 C   0  0  2  0  0  0  0  0  0  0  0  0
   18.9866   -9.1802  -15.1069 C   0  0  0  0  0  0  0  0  0  0  0  0
   21.3500   -8.7066  -15.6558 C   0  0  2  0  0  0  0  0  0  0  0  0
   21.6225  -10.1219  -15.4707 N   0  0  0  0  0  0  0  0  0  0  0  0
   21.6529   -7.9007  -14.4860 C   0  0  0  0  0  0  0  0  0  0  0  0
   21.8547   -6.5415  -14.5956 O   0  0  0  0  0  0  0  0  0  0  0  0
   21.7362   -8.4270  -13.3561 O   0  0  0  0  0  0  0  0  0  0  0  0
  2  3  1  0
  2  1  1  6
  3  4  1  0
  5  2  1  0
  6  5  2  0
  8  7  1  1
  8 10  1  0
  9  8  1  0
 11 10  1  6
 11 12  1  0
 12  5  1  0
 13 11  1  0
 13 20  1  0
 14 13  2  0
 15 16  1  0
 16 17  1  0
 17 19  1  0
 17 18  1  1
 19 20  1  1
 19 21  1  0
 21 22  1  0
 23 21  2  0
M  END
$$$$
