CLI.pdb
     RDKit          3D

 23 22  0  0  1  0  0  0  0  0999 V2000
   21.0543  -13.4672  -16.9412 N   0  0  0  0  0  0  0  0  0  0  0  0
   21.8347  -12.3986  -17.4792 C   0  0  1  0  0  0  0  0  0  0  0  0
   21.0228  -11.6946  -18.5461 C   0  0  0  0  0  0  0  0  0  0  0  0
   20.3536  -12.8506  -19.7396 S   0  0  0  0  0  0  0  0  0  0  0  0
   22.2127  -11.4013  -16.4347 C   0  0  0  0  0  0  0  0  0  0  0  0
   21.5417  -11.2667  -15.3808 O   0  0  0  0  0  0  0  0  0  0  0  0
   26.0812  -11.3439  -14.9163 C   0  0  0  0  0  0  0  0  0  0  0  0
   26.0812  -10.6382  -16.2893 C   0  0  2  0  0  0  0  0  0  0  0  0
   27.5225  -10.4758  -16.7164 C   0  0  0  0  0  0  0  0  0  0  0  0
   25.3924   -9.3043  -16.1281 C   0  0  0  0  0  0  0  0  0  0  0  0
   23.9070   -9.5908  -15.8645 C   0  0  2  0  0  0  0  0  0  0  0  0
   23.3577  -10.6144  -16.6812 N   0  0  0  0  0  0  0  0  0  0  0  0
   23.1045   -8.3953  -15.6928 C   0  0  0  0  0  0  0  0  0  0  0  0
   23.3977   -7.4751  -14.8494 O   0  0  0  0  0  0  0  0  0  0  0  0
   20.0834   -4.5109  -19.0107 C   0  0  0  0  0  0  0  0  0  0  0  0
   20.0739   -5.1682  -17.6316 C   0  0  0  0  0  0  0  0  0  0  0  0
   20.9780   -6.3603  -17.6577 C   0  0  2  0  0  0  0  0  0  0  0  0
   20.5034   -7.3575  -18.7022 C   0  0  0  0  0  0  0  0  0  0  0  0
   21.0735   -7.0377  -16.3181 C   0  0  2  0  0  0  0  0  0  0  0  0
   21.9362   -8.1967  -16.4740 N   0  0  0  0  0  0  0  0  0  0  0  0
   19.7861   -7.3500  -15.7225 C   0  0  0  0  0  0  0  0  0  0  0  0
   19.0575   -6.3829  -15.0637 O   0  0  0  0  0  0  0  0  0  0  0  0
   19.3148   -8.5045  -15.7970 O   0  0  0  0  0  0  0  0  0  0  0  0
  2  3  1  0
  2  1  1  1
  3  4  1  0
  5  2  1  0
  6  5  2  0
  8  7  1  1
  8 10  1  0
  9  8  1  0
 11 10  1  6
 11 12  1  0
 12  5  1  0
 13 11  1  0
 13 20  1  0
 14 13  2  0
 15 16  1  0
 16 17  1  0
 17 19  1  0
 17 18  1  6
 19 20  1  6
 19 21  1  0
 21 22  1  0
 23 21  2  0
M  END
$$$$
