CLI.pdb
     RDKit          3D

 23 22  0  0  1  0  0  0  0  0999 V2000
   14.4559  -10.8311  -11.4551 N   0  0  0  0  0  0  0  0  0  0  0  0
   15.4982  -10.3428  -10.6093 C   0  0  1  0  0  0  0  0  0  0  0  0
   16.7280  -11.2036  -10.8089 C   0  0  0  0  0  0  0  0  0  0  0  0
   16.4742  -12.8710  -10.2056 S   0  0  0  0  0  0  0  0  0  0  0  0
   15.8539   -8.9269  -10.9208 C   0  0  0  0  0  0  0  0  0  0  0  0
   15.8715   -8.4980  -12.1019 O   0  0  0  0  0  0  0  0  0  0  0  0
   14.0451   -5.1639   -9.8882 C   0  0  0  0  0  0  0  0  0  0  0  0
   14.5715   -5.9814   -8.6892 C   0  0  2  0  0  0  0  0  0  0  0  0
   13.9714   -5.3862   -7.4354 C   0  0  0  0  0  0  0  0  0  0  0  0
   16.0785   -5.8876   -8.6863 C   0  0  0  0  0  0  0  0  0  0  0  0
   16.5867   -6.7312   -9.8644 C   0  0  2  0  0  0  0  0  0  0  0  0
   16.1703   -8.0884   -9.8309 N   0  0  0  0  0  0  0  0  0  0  0  0
   17.9757   -6.4855  -10.2007 C   0  0  0  0  0  0  0  0  0  0  0  0
   18.9451   -6.7808   -9.4151 O   0  0  0  0  0  0  0  0  0  0  0  0
   21.7755   -8.3579  -13.7760 C   0  0  0  0  0  0  0  0  0  0  0  0
   21.4794   -7.0232  -13.0941 C   0  0  0  0  0  0  0  0  0  0  0  0
   20.0623   -7.0293  -12.6138 C   0  0  2  0  0  0  0  0  0  0  0  0
   19.1128   -7.2537  -13.7795 C   0  0  0  0  0  0  0  0  0  0  0  0
   19.6933   -5.7588  -11.8981 C   0  0  2  0  0  0  0  0  0  0  0  0
   18.3193   -5.8948  -11.4448 N   0  0  0  0  0  0  0  0  0  0  0  0
   19.9304   -4.5546  -12.6748 C   0  0  0  0  0  0  0  0  0  0  0  0
   21.1866   -3.9911  -12.7417 O   0  0  0  0  0  0  0  0  0  0  0  0
   18.9967   -4.0065  -13.2982 O   0  0  0  0  0  0  0  0  0  0  0  0
  2  3  1  0
  2  1  1  6
  3  4  1  0
  5  2  1  0
  6  5  2  0
  8  7  1  6
  8 10  1  0
  9  8  1  0
 11 10  1  1
 11 12  1  0
 12  5  1  0
 13 11  1  0
 13 20  1  0
 14 13  2  0
 15 16  1  0
 16 17  1  0
 17 19  1  0
 17 18  1  6
 19 20  1  6
 19 21  1  0
 21 22  1  0
 23 21  2  0
M  END
$$$$
