CLI.pdb
     RDKit          3D

 23 22  0  0  1  0  0  0  0  0999 V2000
   26.9319  -20.2656  -16.5562 N   0  0  0  0  0  0  0  0  0  0  0  0
   25.8694  -19.5602  -15.9130 C   0  0  1  0  0  0  0  0  0  0  0  0
   25.0603  -18.8352  -16.9679 C   0  0  0  0  0  0  0  0  0  0  0  0
   23.9422  -17.6401  -16.2398 S   0  0  0  0  0  0  0  0  0  0  0  0
   24.9606  -20.4785  -15.1653 C   0  0  0  0  0  0  0  0  0  0  0  0
   24.5661  -21.5626  -15.6636 O   0  0  0  0  0  0  0  0  0  0  0  0
   25.7124  -22.3040  -11.6719 C   0  0  0  0  0  0  0  0  0  0  0  0
   25.4596  -20.8192  -11.3335 C   0  0  2  0  0  0  0  0  0  0  0  0
   25.9084  -20.5960   -9.9069 C   0  0  0  0  0  0  0  0  0  0  0  0
   23.9844  -20.5465  -11.5043 C   0  0  0  0  0  0  0  0  0  0  0  0
   23.6593  -20.7320  -12.9936 C   0  0  2  0  0  0  0  0  0  0  0  0
   24.5622  -20.0772  -13.8725 N   0  0  0  0  0  0  0  0  0  0  0  0
   22.2477  -20.6090  -13.3016 C   0  0  0  0  0  0  0  0  0  0  0  0
   21.6151  -19.4956  -13.2359 O   0  0  0  0  0  0  0  0  0  0  0  0
   20.0915  -22.1041  -17.7169 C   0  0  0  0  0  0  0  0  0  0  0  0
   20.3678  -21.4297  -16.3743 C   0  0  0  0  0  0  0  0  0  0  0  0
   19.7926  -22.2743  -15.2812 C   0  0  2  0  0  0  0  0  0  0  0  0
   18.2949  -22.4427  -15.4794 C   0  0  0  0  0  0  0  0  0  0  0  0
   20.0613  -21.7058  -13.9147 C   0  0  2  0  0  0  0  0  0  0  0  0
   21.4977  -21.7470  -13.6981 N   0  0  0  0  0  0  0  0  0  0  0  0
   19.2972  -22.3372  -12.8531 C   0  0  0  0  0  0  0  0  0  0  0  0
   19.8166  -23.3970  -12.1410 O   0  0  0  0  0  0  0  0  0  0  0  0
   18.1518  -21.9295  -12.5657 O   0  0  0  0  0  0  0  0  0  0  0  0
  2  3  1  0
  2  1  1  6
  3  4  1  0
  5  2  1  0
  6  5  2  0
  8  7  1  1
  8 10  1  0
  9  8  1  0
 11 10  1  1
 11 12  1  0
 12  5  1  0
 13 11  1  0
 13 20  1  0
 14 13  2  0
 15 16  1  0
 16 17  1  0
 17 19  1  0
 17 18  1  6
 19 20  1  1
 19 21  1  0
 21 22  1  0
 23 21  2  0
M  END
$$$$
