CLI.pdb
     RDKit          3D

 23 22  0  0  1  0  0  0  0  0999 V2000
   17.4542  -14.2950  -18.1256 N   0  0  0  0  0  0  0  0  0  0  0  0
   18.2553  -13.2221  -18.6232 C   0  0  1  0  0  0  0  0  0  0  0  0
   17.3799  -12.3089  -19.4555 C   0  0  0  0  0  0  0  0  0  0  0  0
   16.9965  -13.0309  -21.0494 S   0  0  0  0  0  0  0  0  0  0  0  0
   18.8643  -12.4210  -17.5206 C   0  0  0  0  0  0  0  0  0  0  0  0
   18.1679  -11.9563  -16.5835 O   0  0  0  0  0  0  0  0  0  0  0  0
   24.6310  -11.4229  -15.3971 C   0  0  0  0  0  0  0  0  0  0  0  0
   23.1518  -10.9988  -15.5207 C   0  0  2  0  0  0  0  0  0  0  0  0
   22.5247  -11.1344  -14.1515 C   0  0  0  0  0  0  0  0  0  0  0  0
   22.4897  -11.9050  -16.5308 C   0  0  0  0  0  0  0  0  0  0  0  0
   21.0522  -11.3990  -16.7189 C   0  0  2  0  0  0  0  0  0  0  0  0
   20.2580  -12.2069  -17.5750 N   0  0  0  0  0  0  0  0  0  0  0  0
   20.9595   -9.9644  -16.9086 C   0  0  0  0  0  0  0  0  0  0  0  0
   21.3622   -9.3754  -17.9740 O   0  0  0  0  0  0  0  0  0  0  0  0
   16.7833   -7.3695  -17.3636 C   0  0  0  0  0  0  0  0  0  0  0  0
   18.2704   -7.7181  -17.3939 C   0  0  0  0  0  0  0  0  0  0  0  0
   18.8899   -7.3079  -16.0950 C   0  0  2  0  0  0  0  0  0  0  0  0
   18.7454   -5.8081  -15.8938 C   0  0  0  0  0  0  0  0  0  0  0  0
   20.3412   -7.6930  -16.0043 C   0  0  2  0  0  0  0  0  0  0  0  0
   20.4041   -9.1407  -15.8948 N   0  0  0  0  0  0  0  0  0  0  0  0
   21.0701   -7.0007  -14.9559 C   0  0  0  0  0  0  0  0  0  0  0  0
   21.8078   -5.8701  -15.2346 O   0  0  0  0  0  0  0  0  0  0  0  0
   21.0413   -7.4192  -13.7792 O   0  0  0  0  0  0  0  0  0  0  0  0
  2  3  1  0
  2  1  1  1
  3  4  1  0
  5  2  1  0
  6  5  2  0
  8  7  1  1
  8 10  1  0
  9  8  1  0
 11 10  1  6
 11 12  1  0
 12  5  1  0
 13 11  1  0
 13 20  1  0
 14 13  2  0
 15 16  1  0
 16 17  1  0
 17 19  1  0
 17 18  1  6
 19 20  1  1
 19 21  1  0
 21 22  1  0
 23 21  2  0
M  END
$$$$
