PMT.pdb
     RDKit          3D

 23 23  0  0  1  0  0  0  0  0999 V2000
   14.8959  -19.2820    3.6142 N   0  0  0  0  0  0  0  0  0  0  0  0
   14.2794  -19.1906    2.3309 C   0  0  0  0  0  0  0  0  0  0  0  0
   15.2976  -19.5117    1.2815 C   0  0  0  0  0  0  0  0  0  0  0  0
   16.5397  -19.8920    2.0381 C   0  0  0  0  0  0  0  0  0  0  0  0
   16.1738  -19.9028    3.4944 C   0  0  1  0  0  0  0  0  0  0  0  0
   17.2381  -19.1425    4.2307 C   0  0  0  0  0  0  0  0  0  0  0  0
   18.4341  -19.4924    4.1144 O   0  0  0  0  0  0  0  0  0  0  0  0
   18.9558  -12.2377    3.8220 C   0  0  0  0  0  0  0  0  0  0  0  0
   17.8817  -13.2059    4.9338 S   0  0  0  0  0  0  0  0  0  0  0  0
   18.3709  -14.9584    4.8290 C   0  0  0  0  0  0  0  0  0  0  0  0
   17.5011  -15.7964    5.7150 C   0  0  0  0  0  0  0  0  0  0  0  0
   17.8921  -17.2353    5.7670 C   0  0  2  0  0  0  0  0  0  0  0  0
   16.9090  -18.0413    5.0503 N   0  0  0  0  0  0  0  0  0  0  0  0
   18.1230  -17.7649    7.1065 C   0  0  0  0  0  0  0  0  0  0  0  0
   17.2043  -18.0764    7.8969 O   0  0  0  0  0  0  0  0  0  0  0  0
   20.7781  -20.6401    8.0912 C   0  0  0  0  0  0  0  0  0  0  0  0
   21.0136  -19.3636    8.8287 C   0  0  1  0  0  0  0  0  0  0  0  0
   22.0363  -18.6036    8.2455 O   0  0  0  0  0  0  0  0  0  0  0  0
   19.7833  -18.4798    8.8595 C   0  0  2  0  0  0  0  0  0  0  0  0
   19.4741  -17.9430    7.5555 N   0  0  0  0  0  0  0  0  0  0  0  0
   19.9520  -17.3488    9.7988 C   0  0  0  0  0  0  0  0  0  0  0  0
   20.1084  -17.5665   11.1581 O   0  0  0  0  0  0  0  0  0  0  0  0
   19.9612  -16.1400    9.4094 O   0  0  0  0  0  0  0  0  0  0  0  0
  2  3  1  0
  2  1  1  0
  4  3  1  0
  5  4  1  0
  5  6  1  1
  5  1  1  0
  6  7  2  0
  8  9  1  0
  9 10  1  0
 10 11  1  0
 12 11  1  1
 12 14  1  0
 13 12  1  0
 13  6  1  0
 14 15  2  0
 17 16  1  6
 17 19  1  0
 18 17  1  0
 19 21  1  0
 20 14  1  0
 19 20  1  6
 21 23  2  0
 21 22  1  0
M  END
$$$$
