PMT.pdb
     RDKit          3D

 23 23  0  0  1  0  0  0  0  0999 V2000
   28.4849  -20.8787   -5.1226 N   0  0  0  0  0  0  0  0  0  0  0  0
   29.3038  -20.4142   -4.0507 C   0  0  0  0  0  0  0  0  0  0  0  0
   29.2537  -18.9183   -4.0172 C   0  0  0  0  0  0  0  0  0  0  0  0
   28.2718  -18.5310   -5.0877 C   0  0  0  0  0  0  0  0  0  0  0  0
   27.6892  -19.8070   -5.6236 C   0  0  1  0  0  0  0  0  0  0  0  0
   27.7349  -19.7272   -7.1219 C   0  0  0  0  0  0  0  0  0  0  0  0
   27.4890  -18.6375   -7.6862 O   0  0  0  0  0  0  0  0  0  0  0  0
   31.9720  -23.6241   -8.2583 C   0  0  0  0  0  0  0  0  0  0  0  0
   32.1312  -22.3282   -9.5320 S   0  0  0  0  0  0  0  0  0  0  0  0
   30.8031  -21.1054   -9.2820 C   0  0  0  0  0  0  0  0  0  0  0  0
   29.4777  -21.6896   -9.6637 C   0  0  0  0  0  0  0  0  0  0  0  0
   28.3115  -20.8189   -9.3357 C   0  0  2  0  0  0  0  0  0  0  0  0
   28.0504  -20.8616   -7.9005 N   0  0  0  0  0  0  0  0  0  0  0  0
   27.0976  -21.1000  -10.0945 C   0  0  0  0  0  0  0  0  0  0  0  0
   26.1824  -21.8492   -9.6860 O   0  0  0  0  0  0  0  0  0  0  0  0
   26.7599  -19.1357  -13.8707 C   0  0  0  0  0  0  0  0  0  0  0  0
   25.5679  -19.2209  -12.9759 C   0  0  1  0  0  0  0  0  0  0  0  0
   24.3784  -19.3682  -13.7019 O   0  0  0  0  0  0  0  0  0  0  0  0
   25.6424  -20.3992  -12.0263 C   0  0  2  0  0  0  0  0  0  0  0  0
   26.9315  -20.4903  -11.3826 N   0  0  0  0  0  0  0  0  0  0  0  0
   25.3819  -21.6766  -12.7263 C   0  0  0  0  0  0  0  0  0  0  0  0
   24.1555  -21.9288  -13.3197 O   0  0  0  0  0  0  0  0  0  0  0  0
   26.2583  -22.5914  -12.8157 O   0  0  0  0  0  0  0  0  0  0  0  0
  2  3  1  0
  2  1  1  0
  4  3  1  0
  5  4  1  0
  5  6  1  6
  5  1  1  0
  6  7  2  0
  8  9  1  0
  9 10  1  0
 10 11  1  0
 12 11  1  1
 12 14  1  0
 13 12  1  0
 13  6  1  0
 14 15  2  0
 17 16  1  6
 17 19  1  0
 18 17  1  0
 19 21  1  0
 20 14  1  0
 19 20  1  6
 21 23  2  0
 21 22  1  0
M  END
$$$$
