PMT.pdb
     RDKit          3D

 23 23  0  0  1  0  0  0  0  0999 V2000
   27.2936  -19.4103  -15.2314 N   0  0  0  0  0  0  0  0  0  0  0  0
   28.5659  -18.7660  -15.2711 C   0  0  0  0  0  0  0  0  0  0  0  0
   29.6225  -19.7590  -14.8984 C   0  0  0  0  0  0  0  0  0  0  0  0
   28.8963  -21.0638  -14.7256 C   0  0  0  0  0  0  0  0  0  0  0  0
   27.4686  -20.8211  -15.1225 C   0  0  1  0  0  0  0  0  0  0  0  0
   26.5980  -21.4133  -14.0526 C   0  0  0  0  0  0  0  0  0  0  0  0
   26.0656  -22.5299  -14.2429 O   0  0  0  0  0  0  0  0  0  0  0  0
   26.7923  -19.5123   -7.9534 C   0  0  0  0  0  0  0  0  0  0  0  0
   25.5018  -20.7893   -7.7770 S   0  0  0  0  0  0  0  0  0  0  0  0
   24.8107  -21.1445   -9.4256 C   0  0  0  0  0  0  0  0  0  0  0  0
   25.8002  -20.7908  -10.4931 C   0  0  0  0  0  0  0  0  0  0  0  0
   25.3353  -21.0932  -11.8781 C   0  0  2  0  0  0  0  0  0  0  0  0
   26.3724  -20.7296  -12.8384 N   0  0  0  0  0  0  0  0  0  0  0  0
   24.0548  -20.4977  -12.2440 C   0  0  0  0  0  0  0  0  0  0  0  0
   23.8599  -19.2639  -12.3186 O   0  0  0  0  0  0  0  0  0  0  0  0
   22.3778  -20.7862  -15.4313 C   0  0  0  0  0  0  0  0  0  0  0  0
   21.4041  -21.3320  -14.4399 C   0  0  1  0  0  0  0  0  0  0  0  0
   21.4260  -22.7327  -14.4019 O   0  0  0  0  0  0  0  0  0  0  0  0
   21.6897  -20.8578  -13.0295 C   0  0  2  0  0  0  0  0  0  0  0  0
   22.9489  -21.3636  -12.5367 N   0  0  0  0  0  0  0  0  0  0  0  0
   20.6234  -21.2738  -12.0916 C   0  0  0  0  0  0  0  0  0  0  0  0
   19.3130  -20.8610  -12.2713 O   0  0  0  0  0  0  0  0  0  0  0  0
   20.8548  -22.0194  -11.0899 O   0  0  0  0  0  0  0  0  0  0  0  0
  2  3  1  0
  2  1  1  0
  4  3  1  0
  5  4  1  0
  5  6  1  1
  5  1  1  0
  6  7  2  0
  8  9  1  0
  9 10  1  0
 10 11  1  0
 12 11  1  1
 12 14  1  0
 13 12  1  0
 13  6  1  0
 14 15  2  0
 17 16  1  6
 17 19  1  0
 18 17  1  0
 19 21  1  0
 20 14  1  0
 19 20  1  1
 21 23  2  0
 21 22  1  0
M  END
$$$$
