PMT.pdb
     RDKit          3D

 23 23  0  0  1  0  0  0  0  0999 V2000
   27.6822  -19.4265  -14.1832 N   0  0  0  0  0  0  0  0  0  0  0  0
   28.9903  -18.8834  -14.3539 C   0  0  0  0  0  0  0  0  0  0  0  0
   29.9987  -19.9504  -14.0611 C   0  0  0  0  0  0  0  0  0  0  0  0
   29.1949  -21.1927  -13.7953 C   0  0  0  0  0  0  0  0  0  0  0  0
   27.7588  -20.8450  -14.0626 C   0  0  1  0  0  0  0  0  0  0  0  0
   26.9504  -21.3541  -12.9048 C   0  0  0  0  0  0  0  0  0  0  0  0
   26.7406  -22.5832  -12.7959 O   0  0  0  0  0  0  0  0  0  0  0  0
   27.7174  -19.1746   -7.2247 C   0  0  0  0  0  0  0  0  0  0  0  0
   26.3012  -20.3239   -7.1982 S   0  0  0  0  0  0  0  0  0  0  0  0
   26.1489  -21.0921   -8.8438 C   0  0  0  0  0  0  0  0  0  0  0  0
   25.3964  -20.1896   -9.7729 C   0  0  0  0  0  0  0  0  0  0  0  0
   25.2279  -20.7378  -11.1502 C   0  0  2  0  0  0  0  0  0  0  0  0
   26.4250  -20.4676  -11.9400 N   0  0  0  0  0  0  0  0  0  0  0  0
   24.0294  -20.2901  -11.8511 C   0  0  0  0  0  0  0  0  0  0  0  0
   23.7616  -19.0873  -12.0683 O   0  0  0  0  0  0  0  0  0  0  0  0
   23.0103  -21.3841  -15.3392 C   0  0  0  0  0  0  0  0  0  0  0  0
   21.8909  -21.7186  -14.4098 C   0  0  1  0  0  0  0  0  0  0  0  0
   21.9043  -23.0703  -14.0400 O   0  0  0  0  0  0  0  0  0  0  0  0
   21.9498  -20.9191  -13.1242 C   0  0  2  0  0  0  0  0  0  0  0  0
   23.0971  -21.2736  -12.3226 N   0  0  0  0  0  0  0  0  0  0  0  0
   20.7328  -21.1178  -12.3061 C   0  0  0  0  0  0  0  0  0  0  0  0
   19.4857  -20.7416  -12.7780 O   0  0  0  0  0  0  0  0  0  0  0  0
   20.7724  -21.6358  -11.1472 O   0  0  0  0  0  0  0  0  0  0  0  0
  2  3  1  0
  2  1  1  0
  4  3  1  0
  5  4  1  0
  5  6  1  1
  5  1  1  0
  6  7  2  0
  8  9  1  0
  9 10  1  0
 10 11  1  0
 12 11  1  1
 12 14  1  0
 13 12  1  0
 13  6  1  0
 14 15  2  0
 17 16  1  6
 17 19  1  0
 18 17  1  0
 19 21  1  0
 20 14  1  0
 19 20  1  1
 21 23  2  0
 21 22  1  0
M  END
$$$$
