PMT.pdb
     RDKit          3D

 23 23  0  0  1  0  0  0  0  0999 V2000
   28.3452  -19.7798  -16.4584 N   0  0  0  0  0  0  0  0  0  0  0  0
   28.3234  -18.7078  -17.3994 C   0  0  0  0  0  0  0  0  0  0  0  0
   27.7382  -17.4977  -16.7404 C   0  0  0  0  0  0  0  0  0  0  0  0
   27.5003  -17.9009  -15.3118 C   0  0  0  0  0  0  0  0  0  0  0  0
   28.0661  -19.2826  -15.1516 C   0  0  1  0  0  0  0  0  0  0  0  0
   27.0336  -20.1116  -14.4446 C   0  0  0  0  0  0  0  0  0  0  0  0
   26.3423  -20.9222  -15.1016 O   0  0  0  0  0  0  0  0  0  0  0  0
   25.9756  -19.6780   -7.7910 C   0  0  0  0  0  0  0  0  0  0  0  0
   25.6345  -21.4064   -8.2635 S   0  0  0  0  0  0  0  0  0  0  0  0
   25.1240  -21.4377  -10.0128 C   0  0  0  0  0  0  0  0  0  0  0  0
   26.1153  -20.6989  -10.8586 C   0  0  0  0  0  0  0  0  0  0  0  0
   25.7893  -20.6941  -12.3144 C   0  0  2  0  0  0  0  0  0  0  0  0
   26.8325  -19.9896  -13.0527 N   0  0  0  0  0  0  0  0  0  0  0  0
   24.4695  -20.1710  -12.6505 C   0  0  0  0  0  0  0  0  0  0  0  0
   24.1777  -18.9545  -12.6209 O   0  0  0  0  0  0  0  0  0  0  0  0
   22.8537  -19.9526  -15.7468 C   0  0  0  0  0  0  0  0  0  0  0  0
   21.9304  -20.8127  -14.9490 C   0  0  1  0  0  0  0  0  0  0  0  0
   22.1128  -22.1740  -15.2268 O   0  0  0  0  0  0  0  0  0  0  0  0
   22.1319  -20.6462  -13.4566 C   0  0  2  0  0  0  0  0  0  0  0  0
   23.4396  -21.0918  -13.0376 N   0  0  0  0  0  0  0  0  0  0  0  0
   21.1165  -21.3973  -12.6856 C   0  0  0  0  0  0  0  0  0  0  0  0
   19.7740  -21.0619  -12.7558 O   0  0  0  0  0  0  0  0  0  0  0  0
   21.4225  -22.3728  -11.9321 O   0  0  0  0  0  0  0  0  0  0  0  0
  2  3  1  0
  2  1  1  0
  4  3  1  0
  5  4  1  0
  5  6  1  6
  5  1  1  0
  6  7  2  0
  8  9  1  0
  9 10  1  0
 10 11  1  0
 12 11  1  1
 12 14  1  0
 13 12  1  0
 13  6  1  0
 14 15  2  0
 17 16  1  6
 17 19  1  0
 18 17  1  0
 19 21  1  0
 20 14  1  0
 19 20  1  1
 21 23  2  0
 21 22  1  0
M  END
$$$$
