PMT.pdb
     RDKit          3D

 23 23  0  0  1  0  0  0  0  0999 V2000
   30.3483  -22.3146  -11.6644 N   0  0  0  0  0  0  0  0  0  0  0  0
   30.6509  -22.0090  -13.0247 C   0  0  0  0  0  0  0  0  0  0  0  0
   30.0862  -20.6624  -13.3549 C   0  0  0  0  0  0  0  0  0  0  0  0
   29.5074  -20.1489  -12.0660 C   0  0  0  0  0  0  0  0  0  0  0  0
   29.8608  -21.1492  -11.0033 C   0  0  1  0  0  0  0  0  0  0  0  0
   28.6128  -21.4304  -10.2182 C   0  0  0  0  0  0  0  0  0  0  0  0
   27.9605  -22.4721  -10.4547 O   0  0  0  0  0  0  0  0  0  0  0  0
   27.3016  -18.5486   -4.5988 C   0  0  0  0  0  0  0  0  0  0  0  0
   28.5814  -19.8254   -4.8412 S   0  0  0  0  0  0  0  0  0  0  0  0
   28.4668  -20.4414   -6.5527 C   0  0  0  0  0  0  0  0  0  0  0  0
   27.0782  -20.2541   -7.0824 C   0  0  0  0  0  0  0  0  0  0  0  0
   26.9047  -20.6840   -8.5004 C   0  0  2  0  0  0  0  0  0  0  0  0
   28.1662  -20.5382   -9.2195 N   0  0  0  0  0  0  0  0  0  0  0  0
   25.8176  -20.0259   -9.2170 C   0  0  0  0  0  0  0  0  0  0  0  0
   25.6182  -18.7909   -9.1920 O   0  0  0  0  0  0  0  0  0  0  0  0
   25.6685  -20.1551  -12.8351 C   0  0  0  0  0  0  0  0  0  0  0  0
   24.3477  -20.6783  -12.3764 C   0  0  1  0  0  0  0  0  0  0  0  0
   24.3079  -22.0791  -12.3864 O   0  0  0  0  0  0  0  0  0  0  0  0
   24.0160  -20.2474  -10.9622 C   0  0  2  0  0  0  0  0  0  0  0  0
   24.9196  -20.8279   -9.9974 N   0  0  0  0  0  0  0  0  0  0  0  0
   22.6345  -20.6256  -10.5905 C   0  0  0  0  0  0  0  0  0  0  0  0
   22.3878  -21.4575   -9.5103 O   0  0  0  0  0  0  0  0  0  0  0  0
   21.6217  -20.2115  -11.2352 O   0  0  0  0  0  0  0  0  0  0  0  0
  2  3  1  0
  2  1  1  0
  4  3  1  0
  5  4  1  0
  5  6  1  6
  5  1  1  0
  6  7  2  0
  8  9  1  0
  9 10  1  0
 10 11  1  0
 12 11  1  1
 12 14  1  0
 13 12  1  0
 13  6  1  0
 14 15  2  0
 17 16  1  1
 17 19  1  0
 18 17  1  0
 19 21  1  0
 20 14  1  0
 19 20  1  1
 21 23  2  0
 21 22  1  0
M  END
$$$$
