PMT.pdb
     RDKit          3D

 23 23  0  0  1  0  0  0  0  0999 V2000
   28.5393  -21.4854  -15.8279 N   0  0  0  0  0  0  0  0  0  0  0  0
   28.6398  -20.8807  -17.1162 C   0  0  0  0  0  0  0  0  0  0  0  0
   28.0575  -19.5031  -17.0505 C   0  0  0  0  0  0  0  0  0  0  0  0
   27.6887  -19.2976  -15.6077 C   0  0  0  0  0  0  0  0  0  0  0  0
   28.1787  -20.5035  -14.8591 C   0  0  1  0  0  0  0  0  0  0  0  0
   27.0577  -20.9709  -13.9771 C   0  0  0  0  0  0  0  0  0  0  0  0
   26.2203  -21.7845  -14.4280 O   0  0  0  0  0  0  0  0  0  0  0  0
   27.4855  -20.0759   -7.7018 C   0  0  0  0  0  0  0  0  0  0  0  0
   25.7118  -20.4997   -7.6647 S   0  0  0  0  0  0  0  0  0  0  0  0
   25.2033  -21.0071   -9.3397 C   0  0  0  0  0  0  0  0  0  0  0  0
   26.1759  -20.4953  -10.3574 C   0  0  0  0  0  0  0  0  0  0  0  0
   25.8273  -20.8491  -11.7642 C   0  0  2  0  0  0  0  0  0  0  0  0
   26.9356  -20.5063  -12.6497 N   0  0  0  0  0  0  0  0  0  0  0  0
   24.5756  -20.2805  -12.2524 C   0  0  0  0  0  0  0  0  0  0  0  0
   24.4243  -19.0687  -12.5253 O   0  0  0  0  0  0  0  0  0  0  0  0
   22.9971  -21.2365  -15.3773 C   0  0  0  0  0  0  0  0  0  0  0  0
   21.9412  -21.4510  -14.3439 C   0  0  1  0  0  0  0  0  0  0  0  0
   21.8188  -22.8023  -13.9938 O   0  0  0  0  0  0  0  0  0  0  0  0
   22.2277  -20.6972  -13.0612 C   0  0  2  0  0  0  0  0  0  0  0  0
   23.4472  -21.1480  -12.4336 N   0  0  0  0  0  0  0  0  0  0  0  0
   21.1229  -20.8446  -12.0878 C   0  0  0  0  0  0  0  0  0  0  0  0
   19.8331  -20.4516  -12.4064 O   0  0  0  0  0  0  0  0  0  0  0  0
   21.3015  -21.3318  -10.9286 O   0  0  0  0  0  0  0  0  0  0  0  0
  2  3  1  0
  2  1  1  0
  4  3  1  0
  5  4  1  0
  5  6  1  1
  5  1  1  0
  6  7  2  0
  8  9  1  0
  9 10  1  0
 10 11  1  0
 12 11  1  1
 12 14  1  0
 13 12  1  0
 13  6  1  0
 14 15  2  0
 17 16  1  6
 17 19  1  0
 18 17  1  0
 19 21  1  0
 20 14  1  0
 19 20  1  1
 21 23  2  0
 21 22  1  0
M  END
$$$$
