PMT.pdb
     RDKit          3D

 23 23  0  0  1  0  0  0  0  0999 V2000
   38.4312   -8.7717  -13.9323 N   0  0  0  0  0  0  0  0  0  0  0  0
   37.2618   -9.3147  -14.5430 C   0  0  0  0  0  0  0  0  0  0  0  0
   36.1004   -9.1243  -13.6178 C   0  0  0  0  0  0  0  0  0  0  0  0
   36.6453   -8.3452  -12.4533 C   0  0  0  0  0  0  0  0  0  0  0  0
   38.0668   -7.9988  -12.7909 C   0  0  1  0  0  0  0  0  0  0  0  0
   38.9077   -8.3353  -11.5939 C   0  0  0  0  0  0  0  0  0  0  0  0
   38.6260   -7.8296  -10.4842 O   0  0  0  0  0  0  0  0  0  0  0  0
   43.6501  -13.6979   -8.3474 C   0  0  0  0  0  0  0  0  0  0  0  0
   42.5278  -13.2129   -9.7011 S   0  0  0  0  0  0  0  0  0  0  0  0
   42.1418  -11.4405   -9.5254 C   0  0  0  0  0  0  0  0  0  0  0  0
   41.1968  -11.0033  -10.6023 C   0  0  0  0  0  0  0  0  0  0  0  0
   40.9020   -9.5409  -10.5965 C   0  0  2  0  0  0  0  0  0  0  0  0
   40.0088   -9.2119  -11.7027 N   0  0  0  0  0  0  0  0  0  0  0  0
   42.0753   -8.6739  -10.5989 C   0  0  0  0  0  0  0  0  0  0  0  0
   42.8039   -8.4959  -11.6005 O   0  0  0  0  0  0  0  0  0  0  0  0
   42.1828   -4.9384   -9.5085 C   0  0  0  0  0  0  0  0  0  0  0  0
   43.1182   -5.7440   -8.6689 C   0  0  1  0  0  0  0  0  0  0  0  0
   42.5488   -6.0893   -7.4359 O   0  0  0  0  0  0  0  0  0  0  0  0
   43.5204   -7.0428   -9.3373 C   0  0  2  0  0  0  0  0  0  0  0  0
   42.4247   -7.9812   -9.3919 N   0  0  0  0  0  0  0  0  0  0  0  0
   44.6497   -7.6883   -8.6317 C   0  0  0  0  0  0  0  0  0  0  0  0
   45.8932   -7.0807   -8.5680 O   0  0  0  0  0  0  0  0  0  0  0  0
   44.5349   -8.8156   -8.0581 O   0  0  0  0  0  0  0  0  0  0  0  0
  2  3  1  0
  2  1  1  0
  4  3  1  0
  5  4  1  0
  5  6  1  1
  5  1  1  0
  6  7  2  0
  8  9  1  0
  9 10  1  0
 10 11  1  0
 12 11  1  6
 12 14  1  0
 13 12  1  0
 13  6  1  0
 14 15  2  0
 17 16  1  6
 17 19  1  0
 18 17  1  0
 19 21  1  0
 20 14  1  0
 19 20  1  1
 21 23  2  0
 21 22  1  0
M  END
$$$$
