PMT.pdb
     RDKit          3D

 23 23  0  0  1  0  0  0  0  0999 V2000
   22.6995  -10.7577  -17.8888 N   0  0  0  0  0  0  0  0  0  0  0  0
   22.8473  -12.1647  -18.0732 C   0  0  0  0  0  0  0  0  0  0  0  0
   21.4887  -12.7921  -18.1152 C   0  0  0  0  0  0  0  0  0  0  0  0
   20.5202  -11.6450  -18.0364 C   0  0  0  0  0  0  0  0  0  0  0  0
   21.3363  -10.3852  -18.0776 C   0  0  1  0  0  0  0  0  0  0  0  0
   20.8410   -9.4929  -16.9768 C   0  0  0  0  0  0  0  0  0  0  0  0
   19.6534   -9.0983  -16.9942 O   0  0  0  0  0  0  0  0  0  0  0  0
   22.6383  -10.5874  -11.2532 C   0  0  0  0  0  0  0  0  0  0  0  0
   22.1061   -8.8991  -10.8133 S   0  0  0  0  0  0  0  0  0  0  0  0
   21.3879   -8.1150  -12.2935 C   0  0  0  0  0  0  0  0  0  0  0  0
   21.8624   -8.8089  -13.5333 C   0  0  0  0  0  0  0  0  0  0  0  0
   21.2677   -8.2770  -14.7940 C   0  0  2  0  0  0  0  0  0  0  0  0
   21.6943   -9.0940  -15.9254 N   0  0  0  0  0  0  0  0  0  0  0  0
   21.5206   -6.8629  -15.0480 C   0  0  0  0  0  0  0  0  0  0  0  0
   22.6255   -6.4129  -15.4254 O   0  0  0  0  0  0  0  0  0  0  0  0
   18.9508   -4.6474  -17.1305 C   0  0  0  0  0  0  0  0  0  0  0  0
   19.2907   -3.9973  -15.8303 C   0  0  1  0  0  0  0  0  0  0  0  0
   18.2904   -4.1955  -14.8692 O   0  0  0  0  0  0  0  0  0  0  0  0
   20.5749   -4.5366  -15.2339 C   0  0  2  0  0  0  0  0  0  0  0  0
   20.4516   -5.9250  -14.8578 N   0  0  0  0  0  0  0  0  0  0  0  0
   20.9823   -3.7663  -14.0379 C   0  0  0  0  0  0  0  0  0  0  0  0
   21.2476   -2.4088  -14.1189 O   0  0  0  0  0  0  0  0  0  0  0  0
   21.1069   -4.3052  -12.8947 O   0  0  0  0  0  0  0  0  0  0  0  0
  2  3  1  0
  2  1  1  0
  4  3  1  0
  5  4  1  0
  5  6  1  1
  5  1  1  0
  6  7  2  0
  8  9  1  0
  9 10  1  0
 10 11  1  0
 12 11  1  1
 12 14  1  0
 13 12  1  0
 13  6  1  0
 14 15  2  0
 17 16  1  6
 17 19  1  0
 18 17  1  0
 19 21  1  0
 20 14  1  0
 19 20  1  1
 21 23  2  0
 21 22  1  0
M  END
$$$$
