PMT.pdb
     RDKit          3D

 23 23  0  0  1  0  0  0  0  0999 V2000
   20.5815  -13.2861  -16.9212 N   0  0  0  0  0  0  0  0  0  0  0  0
   20.4035  -14.6140  -17.4114 C   0  0  0  0  0  0  0  0  0  0  0  0
   21.5217  -15.4706  -16.9042 C   0  0  0  0  0  0  0  0  0  0  0  0
   22.3258  -14.5778  -16.0007 C   0  0  0  0  0  0  0  0  0  0  0  0
   21.5866  -13.2740  -15.9101 C   0  0  1  0  0  0  0  0  0  0  0  0
   22.5861  -12.1750  -16.1257 C   0  0  0  0  0  0  0  0  0  0  0  0
   23.5624  -12.0723  -15.3495 O   0  0  0  0  0  0  0  0  0  0  0  0
   26.1082  -12.9062  -21.3315 C   0  0  0  0  0  0  0  0  0  0  0  0
   25.0533  -11.4564  -20.9964 S   0  0  0  0  0  0  0  0  0  0  0  0
   24.6247  -11.4502  -19.2250 C   0  0  0  0  0  0  0  0  0  0  0  0
   23.8169  -10.2344  -18.8883 C   0  0  0  0  0  0  0  0  0  0  0  0
   23.3750  -10.1725  -17.4647 C   0  0  2  0  0  0  0  0  0  0  0  0
   22.4398  -11.2583  -17.1893 N   0  0  0  0  0  0  0  0  0  0  0  0
   22.8219   -8.8896  -17.0446 C   0  0  0  0  0  0  0  0  0  0  0  0
   23.4047   -7.7950  -17.2119 O   0  0  0  0  0  0  0  0  0  0  0  0
   19.1995   -7.6450  -17.8493 C   0  0  0  0  0  0  0  0  0  0  0  0
   19.4255   -7.6263  -16.3737 C   0  0  1  0  0  0  0  0  0  0  0  0
   18.8560   -8.7408  -15.7433 O   0  0  0  0  0  0  0  0  0  0  0  0
   20.8975   -7.6334  -16.0153 C   0  0  2  0  0  0  0  0  0  0  0  0
   21.5392   -8.8675  -16.4022 N   0  0  0  0  0  0  0  0  0  0  0  0
   21.1026   -7.4393  -14.5627 C   0  0  0  0  0  0  0  0  0  0  0  0
   20.7588   -6.2472  -13.9459 O   0  0  0  0  0  0  0  0  0  0  0  0
   21.5971   -8.3440  -13.8212 O   0  0  0  0  0  0  0  0  0  0  0  0
  2  3  1  0
  2  1  1  0
  4  3  1  0
  5  4  1  0
  5  6  1  6
  5  1  1  0
  6  7  2  0
  8  9  1  0
  9 10  1  0
 10 11  1  0
 12 11  1  6
 12 14  1  0
 13 12  1  0
 13  6  1  0
 14 15  2  0
 17 16  1  6
 17 19  1  0
 18 17  1  0
 19 21  1  0
 20 14  1  0
 19 20  1  1
 21 23  2  0
 21 22  1  0
M  END
$$$$
