PMT.pdb
     RDKit          3D

 23 23  0  0  1  0  0  0  0  0999 V2000
   25.2010  -12.3078  -15.8657 N   0  0  0  0  0  0  0  0  0  0  0  0
   25.2729  -13.6890  -16.2153 C   0  0  0  0  0  0  0  0  0  0  0  0
   25.0881  -13.8235  -17.6948 C   0  0  0  0  0  0  0  0  0  0  0  0
   24.9947  -12.4150  -18.2118 C   0  0  0  0  0  0  0  0  0  0  0  0
   25.2521  -11.5068  -17.0441 C   0  0  1  0  0  0  0  0  0  0  0  0
   24.1845  -10.4516  -17.0518 C   0  0  0  0  0  0  0  0  0  0  0  0
   24.0750   -9.6966  -18.0440 O   0  0  0  0  0  0  0  0  0  0  0  0
   18.2295  -12.8824  -17.1711 C   0  0  0  0  0  0  0  0  0  0  0  0
   18.8371  -11.7102  -15.9125 S   0  0  0  0  0  0  0  0  0  0  0  0
   20.3587  -10.9264  -16.5389 C   0  0  0  0  0  0  0  0  0  0  0  0
   20.9504  -10.0289  -15.4957 C   0  0  0  0  0  0  0  0  0  0  0  0
   22.2041   -9.3426  -15.9234 C   0  0  2  0  0  0  0  0  0  0  0  0
   23.3050  -10.2999  -15.9581 N   0  0  0  0  0  0  0  0  0  0  0  0
   22.5622   -8.1652  -15.1400 C   0  0  0  0  0  0  0  0  0  0  0  0
   23.0855   -8.2206  -14.0047 O   0  0  0  0  0  0  0  0  0  0  0  0
   21.4978   -4.1830  -16.6481 C   0  0  0  0  0  0  0  0  0  0  0  0
   22.7660   -4.4680  -15.9138 C   0  0  1  0  0  0  0  0  0  0  0  0
   23.1703   -3.3813  -15.1268 O   0  0  0  0  0  0  0  0  0  0  0  0
   22.6374   -5.6534  -14.9790 C   0  0  2  0  0  0  0  0  0  0  0  0
   22.3049   -6.8652  -15.6899 N   0  0  0  0  0  0  0  0  0  0  0  0
   21.6015   -5.4208  -13.9483 C   0  0  0  0  0  0  0  0  0  0  0  0
   21.7591   -4.4360  -12.9866 O   0  0  0  0  0  0  0  0  0  0  0  0
   20.5320   -6.1038  -13.8960 O   0  0  0  0  0  0  0  0  0  0  0  0
  2  3  1  0
  2  1  1  0
  4  3  1  0
  5  4  1  0
  5  6  1  1
  5  1  1  0
  6  7  2  0
  8  9  1  0
  9 10  1  0
 10 11  1  0
 12 11  1  1
 12 14  1  0
 13 12  1  0
 13  6  1  0
 14 15  2  0
 17 16  1  1
 17 19  1  0
 18 17  1  0
 19 21  1  0
 20 14  1  0
 19 20  1  6
 21 23  2  0
 21 22  1  0
M  END
$$$$
