PMT.pdb
     RDKit          3D

 23 23  0  0  1  0  0  0  0  0999 V2000
   13.6261  -23.0982   -5.6304 N   0  0  0  0  0  0  0  0  0  0  0  0
   12.8681  -23.5155   -6.7646 C   0  0  0  0  0  0  0  0  0  0  0  0
   11.7601  -22.5350   -6.9931 C   0  0  0  0  0  0  0  0  0  0  0  0
   11.9707  -21.4541   -5.9697 C   0  0  0  0  0  0  0  0  0  0  0  0
   13.2576  -21.7706   -5.2637 C   0  0  1  0  0  0  0  0  0  0  0  0
   13.0036  -21.6459   -3.7895 C   0  0  0  0  0  0  0  0  0  0  0  0
   12.6186  -20.5499   -3.3236 O   0  0  0  0  0  0  0  0  0  0  0  0
   10.0364  -25.5097    0.4293 C   0  0  0  0  0  0  0  0  0  0  0  0
    9.2764  -24.4145   -0.8157 S   0  0  0  0  0  0  0  0  0  0  0  0
   10.4973  -23.1491   -1.2951 C   0  0  0  0  0  0  0  0  0  0  0  0
   11.8891  -23.6729   -1.1156 C   0  0  0  0  0  0  0  0  0  0  0  0
   12.9580  -22.6997   -1.4846 C   0  0  2  0  0  0  0  0  0  0  0  0
   13.1929  -22.7450   -2.9242 N   0  0  0  0  0  0  0  0  0  0  0  0
   14.2085  -22.8466   -0.7478 C   0  0  0  0  0  0  0  0  0  0  0  0
   15.2004  -23.4729   -1.1833 O   0  0  0  0  0  0  0  0  0  0  0  0
   16.4090  -20.0502    0.9493 C   0  0  0  0  0  0  0  0  0  0  0  0
   15.9108  -21.0266    1.9629 C   0  0  1  0  0  0  0  0  0  0  0  0
   14.7757  -20.5511    2.6333 O   0  0  0  0  0  0  0  0  0  0  0  0
   15.5217  -22.3533    1.3433 C   0  0  2  0  0  0  0  0  0  0  0  0
   14.3206  -22.2446    0.5497 N   0  0  0  0  0  0  0  0  0  0  0  0
   15.3033  -23.3904    2.3761 C   0  0  0  0  0  0  0  0  0  0  0  0
   16.3364  -23.8064    3.2002 O   0  0  0  0  0  0  0  0  0  0  0  0
   14.1733  -23.9419    2.5543 O   0  0  0  0  0  0  0  0  0  0  0  0
  2  3  1  0
  2  1  1  0
  4  3  1  0
  5  4  1  0
  5  6  1  1
  5  1  1  0
  6  7  2  0
  8  9  1  0
  9 10  1  0
 10 11  1  0
 12 11  1  1
 12 14  1  0
 13 12  1  0
 13  6  1  0
 14 15  2  0
 17 16  1  6
 17 19  1  0
 18 17  1  0
 19 21  1  0
 20 14  1  0
 19 20  1  1
 21 23  2  0
 21 22  1  0
M  END
$$$$
