PMT.pdb
     RDKit          3D

 23 23  0  0  1  0  0  0  0  0999 V2000
   30.3820  -20.7643  -11.3194 N   0  0  0  0  0  0  0  0  0  0  0  0
   31.7928  -20.9384  -11.1978 C   0  0  0  0  0  0  0  0  0  0  0  0
   32.0663  -22.3069  -10.6561 C   0  0  0  0  0  0  0  0  0  0  0  0
   30.7201  -22.9680  -10.5526 C   0  0  0  0  0  0  0  0  0  0  0  0
   29.7234  -22.0175  -11.1508 C   0  0  1  0  0  0  0  0  0  0  0  0
   28.5676  -21.9201  -10.1979 C   0  0  0  0  0  0  0  0  0  0  0  0
   27.8301  -22.9162  -10.0238 O   0  0  0  0  0  0  0  0  0  0  0  0
   28.5838  -20.2814   -4.1597 C   0  0  0  0  0  0  0  0  0  0  0  0
   27.3302  -19.0893   -4.7381 S   0  0  0  0  0  0  0  0  0  0  0  0
   26.5980  -19.7236   -6.2819 C   0  0  0  0  0  0  0  0  0  0  0  0
   27.6477  -19.8519   -7.3427 C   0  0  0  0  0  0  0  0  0  0  0  0
   27.1829  -20.5477   -8.5779 C   0  0  2  0  0  0  0  0  0  0  0  0
   28.3023  -20.7235   -9.4976 N   0  0  0  0  0  0  0  0  0  0  0  0
   26.0496  -19.9218   -9.2504 C   0  0  0  0  0  0  0  0  0  0  0  0
   25.7756  -18.7043   -9.1598 O   0  0  0  0  0  0  0  0  0  0  0  0
   25.8000  -19.9151  -12.9072 C   0  0  0  0  0  0  0  0  0  0  0  0
   24.5324  -20.5317  -12.4154 C   0  0  1  0  0  0  0  0  0  0  0  0
   24.5765  -21.9313  -12.4687 O   0  0  0  0  0  0  0  0  0  0  0  0
   24.2324  -20.1640  -10.9765 C   0  0  2  0  0  0  0  0  0  0  0  0
   25.1932  -20.7365  -10.0637 N   0  0  0  0  0  0  0  0  0  0  0  0
   22.8822  -20.6151  -10.5722 C   0  0  0  0  0  0  0  0  0  0  0  0
   21.7488  -20.1383  -11.2108 O   0  0  0  0  0  0  0  0  0  0  0  0
   22.6996  -21.4499   -9.6327 O   0  0  0  0  0  0  0  0  0  0  0  0
  2  3  1  0
  2  1  1  0
  4  3  1  0
  5  4  1  0
  5  6  1  1
  5  1  1  0
  6  7  2  0
  8  9  1  0
  9 10  1  0
 10 11  1  0
 12 11  1  1
 12 14  1  0
 13 12  1  0
 13  6  1  0
 14 15  2  0
 17 16  1  1
 17 19  1  0
 18 17  1  0
 19 21  1  0
 20 14  1  0
 19 20  1  1
 21 23  2  0
 21 22  1  0
M  END
$$$$
