AQM.pdb
     RDKit          3D

 23 22  0  0  1  0  0  0  0  0999 V2000
    8.9792  -18.6106   18.6820 C   0  0  0  0  0  0  0  0  0  0  0  0
    8.2336  -18.3034   19.9850 C   0  0  2  0  0  0  0  0  0  0  0  0
    6.8326  -18.4797   19.8372 N   0  0  0  0  0  0  0  0  0  0  0  0
    8.6407  -16.9467   20.3920 C   0  0  0  0  0  0  0  0  0  0  0  0
    9.8604  -16.7180   20.5626 O   0  0  0  0  0  0  0  0  0  0  0  0
    9.2921  -12.1027   19.2066 N   0  0  0  0  0  0  0  0  0  0  0  0
    8.6966  -13.1761   18.5067 C   0  0  0  0  0  0  0  0  0  0  0  0
    9.3066  -13.6982   17.5628 O   0  0  0  0  0  0  0  0  0  0  0  0
    7.3371  -13.6175   18.9662 C   0  0  0  0  0  0  0  0  0  0  0  0
    7.1969  -13.5496   20.4378 C   0  0  0  0  0  0  0  0  0  0  0  0
    8.0876  -14.5731   21.1124 C   0  0  2  0  0  0  0  0  0  0  0  0
    7.7047  -15.9076   20.5932 N   0  0  0  0  0  0  0  0  0  0  0  0
    7.9628  -14.6267   22.5784 C   0  0  0  0  0  0  0  0  0  0  0  0
    6.8212  -14.8395   23.1021 O   0  0  0  0  0  0  0  0  0  0  0  0
    6.9900  -12.1051   28.5093 C   0  0  0  0  0  0  0  0  0  0  0  0
    6.4474  -12.5383   26.8347 S   0  0  0  0  0  0  0  0  0  0  0  0
    6.8643  -14.2853   26.5488 C   0  0  0  0  0  0  0  0  0  0  0  0
    7.3124  -14.4270   25.1285 C   0  0  0  0  0  0  0  0  0  0  0  0
    8.8104  -14.4991   24.9496 C   0  0  2  0  0  0  0  0  0  0  0  0
    9.0243  -14.4658   23.4956 N   0  0  0  0  0  0  0  0  0  0  0  0
    9.4364  -15.6943   25.5103 C   0  0  0  0  0  0  0  0  0  0  0  0
   10.0521  -15.5990   26.6204 O   0  0  0  0  0  0  0  0  0  0  0  0
    9.3924  -16.9500   24.8825 O   0  0  0  0  0  0  0  0  0  0  0  0
  2  1  1  6
  2  3  1  0
  4  2  1  0
  5  4  2  0
  6  7  1  0
  7  8  2  0
  9  7  1  0
  9 10  1  0
 11 10  1  6
 11 13  1  0
 11 12  1  0
 12  4  1  0
 13 20  1  0
 14 13  2  0
 16 17  1  0
 16 15  1  0
 19 18  1  6
 18 17  1  0
 20 19  1  0
 21 23  1  0
 21 19  1  0
 22 21  2  0
M  END
$$$$
