AQM.pdb
     RDKit          3D

 23 22  0  0  1  0  0  0  0  0999 V2000
    8.1773  -12.2915   19.3812 C   0  0  0  0  0  0  0  0  0  0  0  0
    8.3413  -13.6688   18.7300 C   0  0  2  0  0  0  0  0  0  0  0  0
    7.4150  -13.8576   17.6708 N   0  0  0  0  0  0  0  0  0  0  0  0
    8.2414  -14.6611   19.8151 C   0  0  0  0  0  0  0  0  0  0  0  0
    7.1147  -15.1391   20.0817 O   0  0  0  0  0  0  0  0  0  0  0  0
   12.4375  -18.9201   20.6594 N   0  0  0  0  0  0  0  0  0  0  0  0
   11.6638  -19.2117   21.8052 C   0  0  0  0  0  0  0  0  0  0  0  0
   11.9492  -20.2010   22.4947 O   0  0  0  0  0  0  0  0  0  0  0  0
   10.5258  -18.2818   22.1127 C   0  0  0  0  0  0  0  0  0  0  0  0
   10.4221  -17.1828   21.1272 C   0  0  0  0  0  0  0  0  0  0  0  0
    9.3202  -16.2162   21.5111 C   0  0  2  0  0  0  0  0  0  0  0  0
    9.3679  -15.0842   20.5555 N   0  0  0  0  0  0  0  0  0  0  0  0
    9.4444  -15.6469   22.8632 C   0  0  0  0  0  0  0  0  0  0  0  0
   10.4579  -14.9305   23.1501 O   0  0  0  0  0  0  0  0  0  0  0  0
    6.7929  -10.7795   27.5418 C   0  0  0  0  0  0  0  0  0  0  0  0
    6.3694  -12.3361   26.7147 S   0  0  0  0  0  0  0  0  0  0  0  0
    7.9162  -13.2414   26.4061 C   0  0  0  0  0  0  0  0  0  0  0  0
    7.5838  -14.4690   25.6184 C   0  0  0  0  0  0  0  0  0  0  0  0
    8.7743  -15.3321   25.2735 C   0  0  2  0  0  0  0  0  0  0  0  0
    8.5131  -15.8177   23.9109 N   0  0  0  0  0  0  0  0  0  0  0  0
    8.9852  -16.4685   26.1673 C   0  0  0  0  0  0  0  0  0  0  0  0
    9.4997  -16.2588   27.3126 O   0  0  0  0  0  0  0  0  0  0  0  0
    8.6465  -17.7878   25.8243 O   0  0  0  0  0  0  0  0  0  0  0  0
  2  1  1  1
  2  3  1  0
  4  2  1  0
  5  4  2  0
  6  7  1  0
  7  8  2  0
  9  7  1  0
  9 10  1  0
 11 10  1  6
 11 13  1  0
 11 12  1  0
 12  4  1  0
 13 20  1  0
 14 13  2  0
 16 17  1  0
 16 15  1  0
 19 18  1  1
 18 17  1  0
 20 19  1  0
 21 23  1  0
 21 19  1  0
 22 21  2  0
M  END
$$$$
