AQM.pdb
     RDKit          3D

 23 22  0  0  1  0  0  0  0  0999 V2000
    8.0839  -12.3673   19.7727 C   0  0  0  0  0  0  0  0  0  0  0  0
    8.2411  -13.7027   19.0377 C   0  0  2  0  0  0  0  0  0  0  0  0
    7.2433  -13.8693   18.0416 N   0  0  0  0  0  0  0  0  0  0  0  0
    8.2552  -14.7524   20.0721 C   0  0  0  0  0  0  0  0  0  0  0  0
    7.1599  -15.2230   20.4565 O   0  0  0  0  0  0  0  0  0  0  0  0
   12.5801  -19.0480   20.0889 N   0  0  0  0  0  0  0  0  0  0  0  0
   11.4604  -18.5086   19.4168 C   0  0  0  0  0  0  0  0  0  0  0  0
   11.5027  -18.3633   18.1869 O   0  0  0  0  0  0  0  0  0  0  0  0
   10.2727  -18.1418   20.2588 C   0  0  0  0  0  0  0  0  0  0  0  0
   10.6331  -17.2212   21.3600 C   0  0  0  0  0  0  0  0  0  0  0  0
    9.4829  -16.2887   21.6818 C   0  0  2  0  0  0  0  0  0  0  0  0
    9.4559  -15.2379   20.6368 N   0  0  0  0  0  0  0  0  0  0  0  0
    9.5903  -15.6046   22.9810 C   0  0  0  0  0  0  0  0  0  0  0  0
    9.9037  -14.3703   23.0146 O   0  0  0  0  0  0  0  0  0  0  0  0
    6.2599  -11.3210   27.4095 C   0  0  0  0  0  0  0  0  0  0  0  0
    6.5240  -12.4523   26.0179 S   0  0  0  0  0  0  0  0  0  0  0  0
    7.8824  -13.5762   26.4640 C   0  0  0  0  0  0  0  0  0  0  0  0
    8.1803  -14.4353   25.2760 C   0  0  0  0  0  0  0  0  0  0  0  0
    9.3133  -15.4132   25.4798 C   0  0  2  0  0  0  0  0  0  0  0  0
    9.3656  -16.2021   24.2406 N   0  0  0  0  0  0  0  0  0  0  0  0
    9.1510  -16.3072   26.6240 C   0  0  0  0  0  0  0  0  0  0  0  0
    8.7043  -17.4823   26.4238 O   0  0  0  0  0  0  0  0  0  0  0  0
    9.4652  -15.9331   27.9409 O   0  0  0  0  0  0  0  0  0  0  0  0
  2  1  1  1
  2  3  1  0
  4  2  1  0
  5  4  2  0
  6  7  1  0
  7  8  2  0
  9  7  1  0
  9 10  1  0
 11 10  1  6
 11 13  1  0
 11 12  1  0
 12  4  1  0
 13 20  1  0
 14 13  2  0
 16 17  1  0
 16 15  1  0
 19 18  1  6
 18 17  1  0
 20 19  1  0
 21 23  1  0
 21 19  1  0
 22 21  2  0
M  END
$$$$
