AQM.pdb
     RDKit          3D

 23 22  0  0  1  0  0  0  0  0999 V2000
    7.7871  -12.5945   19.1624 C   0  0  0  0  0  0  0  0  0  0  0  0
    8.5454  -13.8847   19.4914 C   0  0  2  0  0  0  0  0  0  0  0  0
    7.8653  -15.0289   18.9974 N   0  0  0  0  0  0  0  0  0  0  0  0
    8.7636  -13.8837   20.9489 C   0  0  0  0  0  0  0  0  0  0  0  0
    9.4623  -12.9700   21.4448 O   0  0  0  0  0  0  0  0  0  0  0  0
    6.4171  -14.5871   26.5450 N   0  0  0  0  0  0  0  0  0  0  0  0
    6.3583  -13.3924   25.7929 C   0  0  0  0  0  0  0  0  0  0  0  0
    5.9636  -12.3513   26.3370 O   0  0  0  0  0  0  0  0  0  0  0  0
    6.7876  -13.4706   24.3564 C   0  0  0  0  0  0  0  0  0  0  0  0
    7.1146  -14.8546   23.9469 C   0  0  0  0  0  0  0  0  0  0  0  0
    8.4615  -14.9084   23.2549 C   0  0  2  0  0  0  0  0  0  0  0  0
    8.2133  -14.8732   21.7940 N   0  0  0  0  0  0  0  0  0  0  0  0
    9.2475  -16.1222   23.5314 C   0  0  0  0  0  0  0  0  0  0  0  0
    8.6926  -17.2643   23.4281 O   0  0  0  0  0  0  0  0  0  0  0  0
   10.4093  -13.7362   30.0446 C   0  0  0  0  0  0  0  0  0  0  0  0
   10.0788  -13.6848   28.2629 S   0  0  0  0  0  0  0  0  0  0  0  0
   10.6547  -15.2530   27.5443 C   0  0  0  0  0  0  0  0  0  0  0  0
   10.4690  -15.1777   26.0618 C   0  0  0  0  0  0  0  0  0  0  0  0
   11.0284  -16.3564   25.3008 C   0  0  2  0  0  0  0  0  0  0  0  0
   10.6083  -16.1470   23.9078 N   0  0  0  0  0  0  0  0  0  0  0  0
   10.5604  -17.6609   25.7635 C   0  0  0  0  0  0  0  0  0  0  0  0
    9.3503  -17.9897   25.5444 O   0  0  0  0  0  0  0  0  0  0  0  0
   11.3834  -18.5753   26.4414 O   0  0  0  0  0  0  0  0  0  0  0  0
  2  1  1  1
  2  3  1  0
  4  2  1  0
  5  4  2  0
  6  7  1  0
  7  8  2  0
  9  7  1  0
  9 10  1  0
 11 10  1  1
 11 13  1  0
 11 12  1  0
 12  4  1  0
 13 20  1  0
 14 13  2  0
 16 17  1  0
 16 15  1  0
 19 18  1  1
 18 17  1  0
 20 19  1  0
 21 23  1  0
 21 19  1  0
 22 21  2  0
M  END
$$$$
