AQM.pdb
     RDKit          3D

 23 22  0  0  1  0  0  0  0  0999 V2000
    8.2754  -12.4017   18.9960 C   0  0  0  0  0  0  0  0  0  0  0  0
    8.4676  -13.7965   18.3914 C   0  0  2  0  0  0  0  0  0  0  0  0
    7.5555  -14.0341   17.3297 N   0  0  0  0  0  0  0  0  0  0  0  0
    8.3719  -14.7547   19.5071 C   0  0  0  0  0  0  0  0  0  0  0  0
    7.2544  -15.2595   19.7630 O   0  0  0  0  0  0  0  0  0  0  0  0
   12.9645  -18.8540   22.0135 N   0  0  0  0  0  0  0  0  0  0  0  0
   11.6351  -19.2580   21.7565 C   0  0  0  0  0  0  0  0  0  0  0  0
   11.4203  -20.3995   21.3246 O   0  0  0  0  0  0  0  0  0  0  0  0
   10.5533  -18.2536   22.0307 C   0  0  0  0  0  0  0  0  0  0  0  0
   10.5777  -17.1309   21.0669 C   0  0  0  0  0  0  0  0  0  0  0  0
    9.4370  -16.1689   21.3303 C   0  0  2  0  0  0  0  0  0  0  0  0
    9.4923  -15.1166   20.2881 N   0  0  0  0  0  0  0  0  0  0  0  0
    9.4939  -15.4895   22.6352 C   0  0  0  0  0  0  0  0  0  0  0  0
   10.6173  -15.3482   23.2190 O   0  0  0  0  0  0  0  0  0  0  0  0
    7.0306  -11.6698   28.3244 C   0  0  0  0  0  0  0  0  0  0  0  0
    6.4390  -12.2538   26.7134 S   0  0  0  0  0  0  0  0  0  0  0  0
    6.8042  -14.0316   26.5972 C   0  0  0  0  0  0  0  0  0  0  0  0
    6.9991  -14.3699   25.1531 C   0  0  0  0  0  0  0  0  0  0  0  0
    8.4287  -14.6691   24.7682 C   0  0  2  0  0  0  0  0  0  0  0  0
    8.3856  -14.9531   23.3266 N   0  0  0  0  0  0  0  0  0  0  0  0
    9.0278  -15.7999   25.4733 C   0  0  0  0  0  0  0  0  0  0  0  0
    9.9545  -15.5738   26.3162 O   0  0  0  0  0  0  0  0  0  0  0  0
    8.6301  -17.1311   25.2666 O   0  0  0  0  0  0  0  0  0  0  0  0
  2  1  1  1
  2  3  1  0
  4  2  1  0
  5  4  2  0
  6  7  1  0
  7  8  2  0
  9  7  1  0
  9 10  1  0
 11 10  1  6
 11 13  1  0
 11 12  1  0
 12  4  1  0
 13 20  1  0
 14 13  2  0
 16 17  1  0
 16 15  1  0
 19 18  1  1
 18 17  1  0
 20 19  1  0
 21 23  1  0
 21 19  1  0
 22 21  2  0
M  END
$$$$
