AQM.pdb
     RDKit          3D

 23 22  0  0  1  0  0  0  0  0999 V2000
    7.4977  -13.9749   18.6729 C   0  0  0  0  0  0  0  0  0  0  0  0
    8.0911  -15.2340   19.3135 C   0  0  2  0  0  0  0  0  0  0  0  0
    7.1265  -16.2709   19.4146 N   0  0  0  0  0  0  0  0  0  0  0  0
    8.6769  -14.8150   20.5994 C   0  0  0  0  0  0  0  0  0  0  0  0
    9.5998  -13.9683   20.5843 O   0  0  0  0  0  0  0  0  0  0  0  0
    5.4003  -14.4562   25.8067 N   0  0  0  0  0  0  0  0  0  0  0  0
    6.4900  -13.5898   26.0484 C   0  0  0  0  0  0  0  0  0  0  0  0
    6.4108  -12.7547   26.9606 O   0  0  0  0  0  0  0  0  0  0  0  0
    7.6929  -13.7458   25.1637 C   0  0  0  0  0  0  0  0  0  0  0  0
    7.4117  -14.5956   23.9853 C   0  0  0  0  0  0  0  0  0  0  0  0
    8.6566  -14.7752   23.1403 C   0  0  2  0  0  0  0  0  0  0  0  0
    8.2320  -15.3352   21.8353 N   0  0  0  0  0  0  0  0  0  0  0  0
    9.6548  -15.6992   23.7038 C   0  0  0  0  0  0  0  0  0  0  0  0
    9.4942  -16.9552   23.5646 O   0  0  0  0  0  0  0  0  0  0  0  0
    9.8098  -13.0631   28.5600 C   0  0  0  0  0  0  0  0  0  0  0  0
    9.9761  -14.6985   29.3242 S   0  0  0  0  0  0  0  0  0  0  0  0
   10.7831  -15.7964   28.1197 C   0  0  0  0  0  0  0  0  0  0  0  0
   10.5668  -15.2235   26.7548 C   0  0  0  0  0  0  0  0  0  0  0  0
   11.2423  -15.9883   25.6412 C   0  0  2  0  0  0  0  0  0  0  0  0
   10.8197  -15.3162   24.4041 N   0  0  0  0  0  0  0  0  0  0  0  0
   10.8933  -17.4054   25.5734 C   0  0  0  0  0  0  0  0  0  0  0  0
    9.6692  -17.7284   25.4404 O   0  0  0  0  0  0  0  0  0  0  0  0
   11.8461  -18.4348   25.6479 O   0  0  0  0  0  0  0  0  0  0  0  0
  2  1  1  1
  2  3  1  0
  4  2  1  0
  5  4  2  0
  6  7  1  0
  7  8  2  0
  9  7  1  0
  9 10  1  0
 11 10  1  1
 11 13  1  0
 11 12  1  0
 12  4  1  0
 13 20  1  0
 14 13  2  0
 16 17  1  0
 16 15  1  0
 19 18  1  1
 18 17  1  0
 20 19  1  0
 21 23  1  0
 21 19  1  0
 22 21  2  0
M  END
$$$$
