AQM.pdb
     RDKit          3D

 23 22  0  0  1  0  0  0  0  0999 V2000
    8.0895  -12.1509   19.6724 C   0  0  0  0  0  0  0  0  0  0  0  0
    8.3402  -13.5052   19.0009 C   0  0  2  0  0  0  0  0  0  0  0  0
    7.4323  -13.7331   17.9334 N   0  0  0  0  0  0  0  0  0  0  0  0
    8.2957  -14.5188   20.0698 C   0  0  0  0  0  0  0  0  0  0  0  0
    7.1801  -14.8332   20.5449 O   0  0  0  0  0  0  0  0  0  0  0  0
   12.0356  -19.5184   20.5659 N   0  0  0  0  0  0  0  0  0  0  0  0
   11.7355  -19.2532   21.9209 C   0  0  0  0  0  0  0  0  0  0  0  0
   12.4096  -19.7940   22.8091 O   0  0  0  0  0  0  0  0  0  0  0  0
   10.5962  -18.3144   22.1946 C   0  0  0  0  0  0  0  0  0  0  0  0
   10.5771  -17.1719   21.2542 C   0  0  0  0  0  0  0  0  0  0  0  0
    9.4237  -16.2389   21.5623 C   0  0  2  0  0  0  0  0  0  0  0  0
    9.4626  -15.1396   20.5689 N   0  0  0  0  0  0  0  0  0  0  0  0
    9.4734  -15.6186   22.8966 C   0  0  0  0  0  0  0  0  0  0  0  0
   10.3709  -14.7510   23.1506 O   0  0  0  0  0  0  0  0  0  0  0  0
    6.7741  -10.9539   26.5625 C   0  0  0  0  0  0  0  0  0  0  0  0
    6.1364  -12.6197   26.8861 S   0  0  0  0  0  0  0  0  0  0  0  0
    7.5454  -13.7693   26.8642 C   0  0  0  0  0  0  0  0  0  0  0  0
    7.6030  -14.4040   25.5107 C   0  0  0  0  0  0  0  0  0  0  0  0
    8.7790  -15.3287   25.3031 C   0  0  2  0  0  0  0  0  0  0  0  0
    8.5875  -15.8961   23.9607 N   0  0  0  0  0  0  0  0  0  0  0  0
    8.8878  -16.4086   26.2812 C   0  0  0  0  0  0  0  0  0  0  0  0
    9.1091  -16.1112   27.4990 O   0  0  0  0  0  0  0  0  0  0  0  0
    8.7594  -17.7660   25.9433 O   0  0  0  0  0  0  0  0  0  0  0  0
  2  1  1  1
  2  3  1  0
  4  2  1  0
  5  4  2  0
  6  7  1  0
  7  8  2  0
  9  7  1  0
  9 10  1  0
 11 10  1  6
 11 13  1  0
 11 12  1  0
 12  4  1  0
 13 20  1  0
 14 13  2  0
 16 17  1  0
 16 15  1  0
 19 18  1  1
 18 17  1  0
 20 19  1  0
 21 23  1  0
 21 19  1  0
 22 21  2  0
M  END
$$$$
