AQM.pdb
     RDKit          3D

 23 22  0  0  1  0  0  0  0  0999 V2000
    8.3950  -12.3993   19.2813 C   0  0  0  0  0  0  0  0  0  0  0  0
    8.4105  -13.8408   18.7619 C   0  0  2  0  0  0  0  0  0  0  0  0
    7.3913  -14.0578   17.7976 N   0  0  0  0  0  0  0  0  0  0  0  0
    8.3295  -14.7148   19.9458 C   0  0  0  0  0  0  0  0  0  0  0  0
    7.2532  -14.7511   20.5855 O   0  0  0  0  0  0  0  0  0  0  0  0
    9.9935  -20.7106   21.4612 N   0  0  0  0  0  0  0  0  0  0  0  0
    9.4757  -19.6249   22.2026 C   0  0  0  0  0  0  0  0  0  0  0  0
    8.3076  -19.6726   22.6136 O   0  0  0  0  0  0  0  0  0  0  0  0
   10.3976  -18.4651   22.4453 C   0  0  0  0  0  0  0  0  0  0  0  0
   10.3940  -17.5051   21.3191 C   0  0  0  0  0  0  0  0  0  0  0  0
    9.3259  -16.4482   21.5146 C   0  0  2  0  0  0  0  0  0  0  0  0
    9.4194  -15.5045   20.3755 N   0  0  0  0  0  0  0  0  0  0  0  0
    9.4637  -15.6545   22.7469 C   0  0  0  0  0  0  0  0  0  0  0  0
   10.4149  -14.8130   22.8465 O   0  0  0  0  0  0  0  0  0  0  0  0
    6.0772  -11.2219   27.9601 C   0  0  0  0  0  0  0  0  0  0  0  0
    6.0737  -12.2483   26.4658 S   0  0  0  0  0  0  0  0  0  0  0  0
    7.5166  -13.3524   26.5453 C   0  0  0  0  0  0  0  0  0  0  0  0
    7.5715  -14.1334   25.2706 C   0  0  0  0  0  0  0  0  0  0  0  0
    8.8395  -14.9318   25.0805 C   0  0  2  0  0  0  0  0  0  0  0  0
    8.6099  -15.7321   23.8691 N   0  0  0  0  0  0  0  0  0  0  0  0
    9.1792  -15.8143   26.1943 C   0  0  0  0  0  0  0  0  0  0  0  0
    9.5577  -15.2948   27.2931 O   0  0  0  0  0  0  0  0  0  0  0  0
    9.1083  -17.2148   26.1131 O   0  0  0  0  0  0  0  0  0  0  0  0
  2  1  1  1
  2  3  1  0
  4  2  1  0
  5  4  2  0
  6  7  1  0
  7  8  2  0
  9  7  1  0
  9 10  1  0
 11 10  1  6
 11 13  1  0
 11 12  1  0
 12  4  1  0
 13 20  1  0
 14 13  2  0
 16 17  1  0
 16 15  1  0
 19 18  1  1
 18 17  1  0
 20 19  1  0
 21 23  1  0
 21 19  1  0
 22 21  2  0
M  END
$$$$
