AQM.pdb
     RDKit          3D

 23 22  0  0  1  0  0  0  0  0999 V2000
    8.2252  -18.9466   19.0598 C   0  0  0  0  0  0  0  0  0  0  0  0
    8.0311  -18.6087   20.5418 C   0  0  2  0  0  0  0  0  0  0  0  0
    6.6667  -18.7029   20.9229 N   0  0  0  0  0  0  0  0  0  0  0  0
    8.6356  -17.2812   20.7526 C   0  0  0  0  0  0  0  0  0  0  0  0
    9.8458  -17.1272   20.4686 O   0  0  0  0  0  0  0  0  0  0  0  0
    8.9701  -12.5446   19.1450 N   0  0  0  0  0  0  0  0  0  0  0  0
    8.0022  -13.3910   18.5590 C   0  0  0  0  0  0  0  0  0  0  0  0
    7.9809  -13.5274   17.3275 O   0  0  0  0  0  0  0  0  0  0  0  0
    7.0473  -14.0801   19.4904 C   0  0  0  0  0  0  0  0  0  0  0  0
    7.3917  -13.8513   20.9113 C   0  0  0  0  0  0  0  0  0  0  0  0
    8.4604  -14.8223   21.3705 C   0  0  2  0  0  0  0  0  0  0  0  0
    7.8973  -16.1889   21.2605 N   0  0  0  0  0  0  0  0  0  0  0  0
    8.8954  -14.6442   22.7657 C   0  0  0  0  0  0  0  0  0  0  0  0
    9.1294  -13.4710   23.2036 O   0  0  0  0  0  0  0  0  0  0  0  0
    6.5434  -11.2161   27.4497 C   0  0  0  0  0  0  0  0  0  0  0  0
    6.3426  -12.8531   26.6972 S   0  0  0  0  0  0  0  0  0  0  0  0
    7.9581  -13.3642   26.0368 C   0  0  0  0  0  0  0  0  0  0  0  0
    7.8084  -14.7364   25.4600 C   0  0  0  0  0  0  0  0  0  0  0  0
    9.1136  -15.4309   25.1513 C   0  0  2  0  0  0  0  0  0  0  0  0
    9.0797  -15.6837   23.7036 N   0  0  0  0  0  0  0  0  0  0  0  0
    9.3201  -16.6894   25.8643 C   0  0  0  0  0  0  0  0  0  0  0  0
    8.9090  -17.7695   25.3307 O   0  0  0  0  0  0  0  0  0  0  0  0
    9.9533  -16.7676   27.1157 O   0  0  0  0  0  0  0  0  0  0  0  0
  2  1  1  6
  2  3  1  0
  4  2  1  0
  5  4  2  0
  6  7  1  0
  7  8  2  0
  9  7  1  0
  9 10  1  0
 11 10  1  1
 11 13  1  0
 11 12  1  0
 12  4  1  0
 13 20  1  0
 14 13  2  0
 16 17  1  0
 16 15  1  0
 19 18  1  1
 18 17  1  0
 20 19  1  0
 21 23  1  0
 21 19  1  0
 22 21  2  0
M  END
$$$$
