IYM.pdb
     RDKit          3D

 29 29  0  0  1  0  0  0  0  0999 V2000
   29.8270  -24.5575  -16.7834 C   0  0  0  0  0  0  0  0  0  0  0  0
   28.8996  -23.4469  -16.4446 C   0  0  0  0  0  0  0  0  0  0  0  0
   27.8951  -23.0925  -17.5167 C   0  0  2  0  0  0  0  0  0  0  0  0
   28.6496  -22.8603  -18.8199 C   0  0  0  0  0  0  0  0  0  0  0  0
   27.0480  -21.9165  -17.1158 C   0  0  2  0  0  0  0  0  0  0  0  0
   27.9684  -20.7616  -17.1362 N   0  0  0  0  0  0  0  0  0  0  0  0
   26.4898  -21.9845  -15.7569 C   0  0  0  0  0  0  0  0  0  0  0  0
   25.5953  -22.8580  -15.5130 O   0  0  0  0  0  0  0  0  0  0  0  0
   25.2273  -20.2975   -7.0451 O   0  0  0  0  0  0  0  0  0  0  0  0
   25.6724  -20.3667   -8.3685 C   0  0  0  0  0  0  0  0  0  0  0  0
   25.9299  -21.5818   -8.9707 C   0  0  0  0  0  0  0  0  0  0  0  0
   26.3705  -21.6300  -10.2844 C   0  0  0  0  0  0  0  0  0  0  0  0
   26.5623  -20.4822  -11.0196 C   0  0  0  0  0  0  0  0  0  0  0  0
   27.0416  -20.5254  -12.3890 C   0  0  0  0  0  0  0  0  0  0  0  0
   26.1313  -21.2037  -13.3861 C   0  0  2  0  0  0  0  0  0  0  0  0
   26.8404  -21.1730  -14.6529 N   0  0  0  0  0  0  0  0  0  0  0  0
   24.8358  -20.5158  -13.3958 C   0  0  0  0  0  0  0  0  0  0  0  0
   24.8159  -19.3488  -13.8750 O   0  0  0  0  0  0  0  0  0  0  0  0
   26.3010  -19.2832  -10.4028 C   0  0  0  0  0  0  0  0  0  0  0  0
   25.8612  -19.2141   -9.0946 C   0  0  0  0  0  0  0  0  0  0  0  0
   21.6603  -19.2761  -17.3139 C   0  0  0  0  0  0  0  0  0  0  0  0
   20.1659  -19.1360  -16.3087 S   0  0  0  0  0  0  0  0  0  0  0  0
   20.6558  -19.3895  -14.5573 C   0  0  0  0  0  0  0  0  0  0  0  0
   22.0080  -20.0639  -14.4964 C   0  0  0  0  0  0  0  0  0  0  0  0
   22.3962  -20.2797  -13.0592 C   0  0  2  0  0  0  0  0  0  0  0  0
   23.6311  -21.0388  -12.9197 N   0  0  0  0  0  0  0  0  0  0  0  0
   21.2897  -21.0452  -12.3477 C   0  0  0  0  0  0  0  0  0  0  0  0
   21.2608  -22.3001  -12.3463 O   0  0  0  0  0  0  0  0  0  0  0  0
   20.2733  -20.3831  -11.6750 O   0  0  0  0  0  0  0  0  0  0  0  0
  2  1  1  0
  3  2  1  0
  3  4  1  6
  5  6  1  1
  5  3  1  0
  7  5  1  0
  7  8  2  0
  9 10  1  0
 10 11  2  0
 11 12  1  0
 13 12  2  0
 13 14  1  0
 15 14  1  1
 15 16  1  0
 15 17  1  0
 16  7  1  0
 17 26  1  0
 18 17  2  0
 19 13  1  0
 20 10  1  0
 20 19  2  0
 21 22  1  0
 22 23  1  0
 23 24  1  0
 25 24  1  6
 25 27  1  0
 26 25  1  0
 27 28  2  0
 27 29  1  0
M  END
$$$$
