IYM.pdb
     RDKit          3D

 29 29  0  0  1  0  0  0  0  0999 V2000
   30.1840  -16.5088  -18.7633 C   0  0  0  0  0  0  0  0  0  0  0  0
   29.5517  -17.8151  -18.4437 C   0  0  0  0  0  0  0  0  0  0  0  0
   28.5804  -17.7980  -17.2860 C   0  0  2  0  0  0  0  0  0  0  0  0
   29.3212  -17.3070  -16.0484 C   0  0  0  0  0  0  0  0  0  0  0  0
   27.9343  -19.1409  -17.0843 C   0  0  2  0  0  0  0  0  0  0  0  0
   27.2742  -19.4413  -18.3709 N   0  0  0  0  0  0  0  0  0  0  0  0
   26.8847  -19.1795  -16.0548 C   0  0  0  0  0  0  0  0  0  0  0  0
   26.2381  -18.1098  -15.8092 O   0  0  0  0  0  0  0  0  0  0  0  0
   19.6653  -21.2685  -11.6283 O   0  0  0  0  0  0  0  0  0  0  0  0
   20.8237  -21.2512  -12.4108 C   0  0  0  0  0  0  0  0  0  0  0  0
   21.7158  -22.3043  -12.3857 C   0  0  0  0  0  0  0  0  0  0  0  0
   22.8592  -22.2688  -13.1691 C   0  0  0  0  0  0  0  0  0  0  0  0
   23.1366  -21.1961  -13.9859 C   0  0  0  0  0  0  0  0  0  0  0  0
   24.3413  -21.1449  -14.7939 C   0  0  0  0  0  0  0  0  0  0  0  0
   25.4417  -20.2447  -14.2823 C   0  0  2  0  0  0  0  0  0  0  0  0
   26.4926  -20.2978  -15.2828 N   0  0  0  0  0  0  0  0  0  0  0  0
   25.8475  -20.6970  -12.9473 C   0  0  0  0  0  0  0  0  0  0  0  0
   26.4766  -21.7889  -12.8844 O   0  0  0  0  0  0  0  0  0  0  0  0
   22.2371  -20.1583  -13.9968 C   0  0  0  0  0  0  0  0  0  0  0  0
   21.0920  -20.1747  -13.2235 C   0  0  0  0  0  0  0  0  0  0  0  0
   29.1340  -18.8833   -8.0203 C   0  0  0  0  0  0  0  0  0  0  0  0
   27.8037  -19.6227   -7.0474 S   0  0  0  0  0  0  0  0  0  0  0  0
   26.7561  -20.5963   -8.1991 C   0  0  0  0  0  0  0  0  0  0  0  0
   26.6499  -19.8782   -9.5257 C   0  0  0  0  0  0  0  0  0  0  0  0
   25.8167  -20.6969  -10.4735 C   0  0  2  0  0  0  0  0  0  0  0  0
   25.5953  -20.0273  -11.7476 N   0  0  0  0  0  0  0  0  0  0  0  0
   24.4587  -20.9709   -9.8431 C   0  0  0  0  0  0  0  0  0  0  0  0
   23.4272  -20.3671  -10.2266 O   0  0  0  0  0  0  0  0  0  0  0  0
   24.3124  -21.8980   -8.8219 O   0  0  0  0  0  0  0  0  0  0  0  0
  2  1  1  0
  3  2  1  0
  3  4  1  1
  5  6  1  6
  5  3  1  0
  7  5  1  0
  7  8  2  0
  9 10  1  0
 10 11  2  0
 11 12  1  0
 13 12  2  0
 13 14  1  0
 15 14  1  6
 15 16  1  0
 15 17  1  0
 16  7  1  0
 17 26  1  0
 18 17  2  0
 19 13  1  0
 20 10  1  0
 20 19  2  0
 21 22  1  0
 22 23  1  0
 23 24  1  0
 25 24  1  1
 25 27  1  0
 26 25  1  0
 27 28  2  0
 27 29  1  0
M  END
$$$$
