IYM.pdb
     RDKit          3D

 29 29  0  0  1  0  0  0  0  0999 V2000
   29.8779  -23.9700  -18.1777 C   0  0  0  0  0  0  0  0  0  0  0  0
   28.9015  -22.8780  -18.4282 C   0  0  0  0  0  0  0  0  0  0  0  0
   28.4607  -22.1103  -17.2033 C   0  0  2  0  0  0  0  0  0  0  0  0
   27.9038  -23.1042  -16.1917 C   0  0  0  0  0  0  0  0  0  0  0  0
   27.4818  -21.0235  -17.5526 C   0  0  2  0  0  0  0  0  0  0  0  0
   28.2571  -20.0599  -18.3600 N   0  0  0  0  0  0  0  0  0  0  0  0
   26.9460  -20.2748  -16.4057 C   0  0  0  0  0  0  0  0  0  0  0  0
   27.7211  -19.4724  -15.7911 O   0  0  0  0  0  0  0  0  0  0  0  0
   19.8799  -20.0965  -18.2985 O   0  0  0  0  0  0  0  0  0  0  0  0
   20.9860  -19.6929  -17.5448 C   0  0  0  0  0  0  0  0  0  0  0  0
   22.1818  -19.3676  -18.1529 C   0  0  0  0  0  0  0  0  0  0  0  0
   23.2676  -18.9692  -17.3882 C   0  0  0  0  0  0  0  0  0  0  0  0
   23.1878  -18.8869  -16.0165 C   0  0  0  0  0  0  0  0  0  0  0  0
   24.3267  -18.4888  -15.2094 C   0  0  0  0  0  0  0  0  0  0  0  0
   25.2045  -19.6113  -14.7070 C   0  0  2  0  0  0  0  0  0  0  0  0
   25.6309  -20.3386  -15.8892 N   0  0  0  0  0  0  0  0  0  0  0  0
   24.4487  -20.4122  -13.7381 C   0  0  0  0  0  0  0  0  0  0  0  0
   23.8058  -21.3975  -14.1941 O   0  0  0  0  0  0  0  0  0  0  0  0
   21.9899  -19.2149  -15.4303 C   0  0  0  0  0  0  0  0  0  0  0  0
   20.8963  -19.6140  -16.1748 C   0  0  0  0  0  0  0  0  0  0  0  0
   26.2070  -19.0772   -8.1580 C   0  0  0  0  0  0  0  0  0  0  0  0
   26.3948  -20.2018   -9.5591 S   0  0  0  0  0  0  0  0  0  0  0  0
   24.9927  -21.3863   -9.5050 C   0  0  0  0  0  0  0  0  0  0  0  0
   23.7443  -20.7269  -10.0467 C   0  0  0  0  0  0  0  0  0  0  0  0
   23.5964  -21.0571  -11.5069 C   0  0  2  0  0  0  0  0  0  0  0  0
   24.3784  -20.1760  -12.3631 N   0  0  0  0  0  0  0  0  0  0  0  0
   22.1338  -20.9271  -11.9075 C   0  0  0  0  0  0  0  0  0  0  0  0
   21.6792  -19.8570  -12.3806 O   0  0  0  0  0  0  0  0  0  0  0  0
   21.2507  -21.9869  -11.7640 O   0  0  0  0  0  0  0  0  0  0  0  0
  2  1  1  0
  3  2  1  0
  3  4  1  1
  5  6  1  6
  5  3  1  0
  7  5  1  0
  7  8  2  0
  9 10  1  0
 10 11  2  0
 11 12  1  0
 13 12  2  0
 13 14  1  0
 15 14  1  6
 15 16  1  0
 15 17  1  0
 16  7  1  0
 17 26  1  0
 18 17  2  0
 19 13  1  0
 20 10  1  0
 20 19  2  0
 21 22  1  0
 22 23  1  0
 23 24  1  0
 25 24  1  1
 25 27  1  0
 26 25  1  0
 27 28  2  0
 27 29  1  0
M  END
$$$$
