IYM.pdb
     RDKit          3D

 29 29  0  0  1  0  0  0  0  0999 V2000
   27.5479  -19.0167  -21.1043 C   0  0  0  0  0  0  0  0  0  0  0  0
   26.2215  -18.3605  -20.9685 C   0  0  0  0  0  0  0  0  0  0  0  0
   25.2802  -19.0027  -19.9758 C   0  0  2  0  0  0  0  0  0  0  0  0
   25.1141  -20.4691  -20.3549 C   0  0  0  0  0  0  0  0  0  0  0  0
   23.9701  -18.2684  -19.8988 C   0  0  2  0  0  0  0  0  0  0  0  0
   24.3405  -16.8485  -19.7317 N   0  0  0  0  0  0  0  0  0  0  0  0
   23.1250  -18.6201  -18.7476 C   0  0  0  0  0  0  0  0  0  0  0  0
   22.7762  -19.8365  -18.6020 O   0  0  0  0  0  0  0  0  0  0  0  0
   18.4020  -17.9397  -11.1984 O   0  0  0  0  0  0  0  0  0  0  0  0
   19.2533  -17.7328  -12.2879 C   0  0  0  0  0  0  0  0  0  0  0  0
   19.1220  -16.6192  -13.0929 C   0  0  0  0  0  0  0  0  0  0  0  0
   19.9762  -16.4314  -14.1688 C   0  0  0  0  0  0  0  0  0  0  0  0
   20.9690  -17.3381  -14.4636 C   0  0  0  0  0  0  0  0  0  0  0  0
   21.8540  -17.1567  -15.5998 C   0  0  0  0  0  0  0  0  0  0  0  0
   21.6886  -18.1455  -16.7301 C   0  0  2  0  0  0  0  0  0  0  0  0
   22.6407  -17.7426  -17.7498 N   0  0  0  0  0  0  0  0  0  0  0  0
   20.2886  -18.1417  -17.1677 C   0  0  0  0  0  0  0  0  0  0  0  0
   19.8801  -17.1028  -17.7558 O   0  0  0  0  0  0  0  0  0  0  0  0
   21.0834  -18.4396  -13.6512 C   0  0  0  0  0  0  0  0  0  0  0  0
   20.2421  -18.6446  -12.5743 C   0  0  0  0  0  0  0  0  0  0  0  0
   15.7262  -22.9463  -17.6658 C   0  0  0  0  0  0  0  0  0  0  0  0
   14.7386  -21.5074  -17.1995 S   0  0  0  0  0  0  0  0  0  0  0  0
   15.7394  -20.0119  -17.5652 C   0  0  0  0  0  0  0  0  0  0  0  0
   17.1066  -20.1435  -16.9324 C   0  0  0  0  0  0  0  0  0  0  0  0
   17.9914  -19.0263  -17.4139 C   0  0  2  0  0  0  0  0  0  0  0  0
   19.3748  -19.1826  -16.9867 N   0  0  0  0  0  0  0  0  0  0  0  0
   17.4757  -17.7032  -16.8662 C   0  0  0  0  0  0  0  0  0  0  0  0
   17.4569  -17.4701  -15.6330 O   0  0  0  0  0  0  0  0  0  0  0  0
   17.0081  -16.7072  -17.7107 O   0  0  0  0  0  0  0  0  0  0  0  0
  2  1  1  0
  3  2  1  0
  3  4  1  6
  5  6  1  1
  5  3  1  0
  7  5  1  0
  7  8  2  0
  9 10  1  0
 10 11  2  0
 11 12  1  0
 13 12  2  0
 13 14  1  0
 15 14  1  1
 15 16  1  0
 15 17  1  0
 16  7  1  0
 17 26  1  0
 18 17  2  0
 19 13  1  0
 20 10  1  0
 20 19  2  0
 21 22  1  0
 22 23  1  0
 23 24  1  0
 25 24  1  1
 25 27  1  0
 26 25  1  0
 27 28  2  0
 27 29  1  0
M  END
$$$$
