IYM.pdb
     RDKit          3D

 29 29  0  0  1  0  0  0  0  0999 V2000
   26.0359  -19.7440  -21.5634 C   0  0  0  0  0  0  0  0  0  0  0  0
   26.9766  -19.4308  -20.4564 C   0  0  0  0  0  0  0  0  0  0  0  0
   26.8418  -20.2995  -19.2271 C   0  0  2  0  0  0  0  0  0  0  0  0
   27.1606  -21.7365  -19.6205 C   0  0  0  0  0  0  0  0  0  0  0  0
   25.4859  -20.1558  -18.5926 C   0  0  2  0  0  0  0  0  0  0  0  0
   25.2816  -18.6991  -18.4599 N   0  0  0  0  0  0  0  0  0  0  0  0
   25.3674  -20.7213  -17.2401 C   0  0  0  0  0  0  0  0  0  0  0  0
   25.3300  -21.9883  -17.1149 O   0  0  0  0  0  0  0  0  0  0  0  0
   25.3179  -21.3500   -8.3185 O   0  0  0  0  0  0  0  0  0  0  0  0
   25.4546  -20.9829   -9.6605 C   0  0  0  0  0  0  0  0  0  0  0  0
   26.4973  -21.4624  -10.4274 C   0  0  0  0  0  0  0  0  0  0  0  0
   26.6158  -21.0869  -11.7569 C   0  0  0  0  0  0  0  0  0  0  0  0
   25.7087  -20.2353  -12.3456 C   0  0  0  0  0  0  0  0  0  0  0  0
   25.8382  -19.8236  -13.7315 C   0  0  0  0  0  0  0  0  0  0  0  0
   25.0624  -20.6407  -14.7382 C   0  0  2  0  0  0  0  0  0  0  0  0
   25.2908  -20.0044  -16.0234 N   0  0  0  0  0  0  0  0  0  0  0  0
   23.6556  -20.6959  -14.3268 C   0  0  0  0  0  0  0  0  0  0  0  0
   22.9261  -19.7237  -14.6654 O   0  0  0  0  0  0  0  0  0  0  0  0
   24.6786  -19.7688  -11.5662 C   0  0  0  0  0  0  0  0  0  0  0  0
   24.5431  -20.1313  -10.2396 C   0  0  0  0  0  0  0  0  0  0  0  0
   18.7418  -17.7932  -13.0936 C   0  0  0  0  0  0  0  0  0  0  0  0
   19.2612  -18.7482  -11.6509 S   0  0  0  0  0  0  0  0  0  0  0  0
   19.7873  -20.4032  -12.2476 C   0  0  0  0  0  0  0  0  0  0  0  0
   21.2663  -20.3874  -12.5626 C   0  0  0  0  0  0  0  0  0  0  0  0
   21.6433  -21.6646  -13.2623 C   0  0  2  0  0  0  0  0  0  0  0  0
   23.0600  -21.7253  -13.5940 N   0  0  0  0  0  0  0  0  0  0  0  0
   20.8510  -21.7832  -14.5564 C   0  0  0  0  0  0  0  0  0  0  0  0
   19.6746  -22.2211  -14.5638 O   0  0  0  0  0  0  0  0  0  0  0  0
   21.4006  -21.4114  -15.7744 O   0  0  0  0  0  0  0  0  0  0  0  0
  2  1  1  0
  3  2  1  0
  3  4  1  6
  5  6  1  1
  5  3  1  0
  7  5  1  0
  7  8  2  0
  9 10  1  0
 10 11  2  0
 11 12  1  0
 13 12  2  0
 13 14  1  0
 15 14  1  1
 15 16  1  0
 15 17  1  0
 16  7  1  0
 17 26  1  0
 18 17  2  0
 19 13  1  0
 20 10  1  0
 20 19  2  0
 21 22  1  0
 22 23  1  0
 23 24  1  0
 25 24  1  6
 25 27  1  0
 26 25  1  0
 27 28  2  0
 27 29  1  0
M  END
$$$$
