IYM.pdb
     RDKit          3D

 29 29  0  0  1  0  0  0  0  0999 V2000
   21.5420  -14.4669  -19.6054 C   0  0  0  0  0  0  0  0  0  0  0  0
   22.3710  -15.6369  -19.9957 C   0  0  0  0  0  0  0  0  0  0  0  0
   22.2184  -16.8592  -19.1202 C   0  0  2  0  0  0  0  0  0  0  0  0
   21.0330  -16.6350  -18.1896 C   0  0  0  0  0  0  0  0  0  0  0  0
   23.4893  -17.1735  -18.3802 C   0  0  2  0  0  0  0  0  0  0  0  0
   24.4535  -17.5609  -19.4299 N   0  0  0  0  0  0  0  0  0  0  0  0
   23.4042  -18.3085  -17.4489 C   0  0  0  0  0  0  0  0  0  0  0  0
   23.2062  -19.4717  -17.9288 O   0  0  0  0  0  0  0  0  0  0  0  0
   29.2201  -21.3263  -16.8992 O   0  0  0  0  0  0  0  0  0  0  0  0
   28.0595  -20.8714  -16.2664 C   0  0  0  0  0  0  0  0  0  0  0  0
   27.8396  -19.5237  -16.0651 C   0  0  0  0  0  0  0  0  0  0  0  0
   26.6820  -19.0920  -15.4358 C   0  0  0  0  0  0  0  0  0  0  0  0
   25.7284  -19.9827  -14.9976 C   0  0  0  0  0  0  0  0  0  0  0  0
   24.5237  -19.5380  -14.3212 C   0  0  0  0  0  0  0  0  0  0  0  0
   23.2900  -19.4120  -15.1843 C   0  0  2  0  0  0  0  0  0  0  0  0
   23.5227  -18.2624  -16.0403 N   0  0  0  0  0  0  0  0  0  0  0  0
   22.1108  -19.2993  -14.3194 C   0  0  0  0  0  0  0  0  0  0  0  0
   21.8743  -18.1621  -13.8266 O   0  0  0  0  0  0  0  0  0  0  0  0
   25.9656  -21.3193  -15.2068 C   0  0  0  0  0  0  0  0  0  0  0  0
   27.1128  -21.7694  -15.8321 C   0  0  0  0  0  0  0  0  0  0  0  0
   18.4012  -16.4739  -15.9542 C   0  0  0  0  0  0  0  0  0  0  0  0
   17.1398  -17.7655  -15.8913 S   0  0  0  0  0  0  0  0  0  0  0  0
   17.7580  -19.0835  -14.7722 C   0  0  0  0  0  0  0  0  0  0  0  0
   19.2419  -19.2821  -14.9857 C   0  0  0  0  0  0  0  0  0  0  0  0
   19.8109  -20.0760  -13.8417 C   0  0  2  0  0  0  0  0  0  0  0  0
   21.2352  -20.3382  -13.9947 N   0  0  0  0  0  0  0  0  0  0  0  0
   19.0925  -21.4148  -13.7506 C   0  0  0  0  0  0  0  0  0  0  0  0
   19.4893  -22.4139  -14.3984 O   0  0  0  0  0  0  0  0  0  0  0  0
   17.9732  -21.5785  -12.9480 O   0  0  0  0  0  0  0  0  0  0  0  0
  2  1  1  0
  3  2  1  0
  3  4  1  1
  5  6  1  6
  5  3  1  0
  7  5  1  0
  7  8  2  0
  9 10  1  0
 10 11  2  0
 11 12  1  0
 13 12  2  0
 13 14  1  0
 15 14  1  1
 15 16  1  0
 15 17  1  0
 16  7  1  0
 17 26  1  0
 18 17  2  0
 19 13  1  0
 20 10  1  0
 20 19  2  0
 21 22  1  0
 22 23  1  0
 23 24  1  0
 25 24  1  6
 25 27  1  0
 26 25  1  0
 27 28  2  0
 27 29  1  0
M  END
$$$$
