IYM.pdb
     RDKit          3D

 29 29  0  0  1  0  0  0  0  0999 V2000
   19.4780  -10.8768  -21.0242 C   0  0  0  0  0  0  0  0  0  0  0  0
   20.4816  -10.4123  -20.0315 C   0  0  0  0  0  0  0  0  0  0  0  0
   20.1392   -9.1241  -19.3192 C   0  0  2  0  0  0  0  0  0  0  0  0
   19.8903   -8.0491  -20.3699 C   0  0  0  0  0  0  0  0  0  0  0  0
   21.2042   -8.7373  -18.3304 C   0  0  2  0  0  0  0  0  0  0  0  0
   21.2423   -9.8497  -17.3595 N   0  0  0  0  0  0  0  0  0  0  0  0
   20.9251   -7.5164  -17.5593 C   0  0  0  0  0  0  0  0  0  0  0  0
   19.7887   -7.4033  -16.9951 O   0  0  0  0  0  0  0  0  0  0  0  0
   21.1354   -8.9807  -11.2685 O   0  0  0  0  0  0  0  0  0  0  0  0
   21.4479   -8.0796  -12.2907 C   0  0  0  0  0  0  0  0  0  0  0  0
   22.2346   -8.4596  -13.3593 C   0  0  0  0  0  0  0  0  0  0  0  0
   22.5332   -7.5515  -14.3636 C   0  0  0  0  0  0  0  0  0  0  0  0
   22.0606   -6.2593  -14.3265 C   0  0  0  0  0  0  0  0  0  0  0  0
   22.3856   -5.2987  -15.3650 C   0  0  0  0  0  0  0  0  0  0  0  0
   21.4491   -5.2656  -16.5503 C   0  0  2  0  0  0  0  0  0  0  0  0
   21.7959   -6.4199  -17.3601 N   0  0  0  0  0  0  0  0  0  0  0  0
   21.5899   -3.9761  -17.2350 C   0  0  0  0  0  0  0  0  0  0  0  0
   22.5926   -3.8396  -17.9886 O   0  0  0  0  0  0  0  0  0  0  0  0
   21.2799   -5.9003  -13.2550 C   0  0  0  0  0  0  0  0  0  0  0  0
   20.9709   -6.7905  -12.2444 C   0  0  0  0  0  0  0  0  0  0  0  0
   18.8420    2.4369  -20.6923 C   0  0  0  0  0  0  0  0  0  0  0  0
   18.4024    0.9320  -19.7951 S   0  0  0  0  0  0  0  0  0  0  0  0
   19.9636    0.1733  -19.1960 C   0  0  0  0  0  0  0  0  0  0  0  0
   19.6562   -1.0947  -18.4314 C   0  0  0  0  0  0  0  0  0  0  0  0
   20.9359   -1.6870  -17.9078 C   0  0  2  0  0  0  0  0  0  0  0  0
   20.7155   -2.8926  -17.1214 N   0  0  0  0  0  0  0  0  0  0  0  0
   21.6373   -0.6678  -17.0212 C   0  0  0  0  0  0  0  0  0  0  0  0
   21.3889   -0.5902  -15.7933 O   0  0  0  0  0  0  0  0  0  0  0  0
   22.5765    0.2118  -17.5387 O   0  0  0  0  0  0  0  0  0  0  0  0
  2  1  1  0
  3  2  1  0
  3  4  1  6
  5  6  1  1
  5  3  1  0
  7  5  1  0
  7  8  2  0
  9 10  1  0
 10 11  2  0
 11 12  1  0
 13 12  2  0
 13 14  1  0
 15 14  1  1
 15 16  1  0
 15 17  1  0
 16  7  1  0
 17 26  1  0
 18 17  2  0
 19 13  1  0
 20 10  1  0
 20 19  2  0
 21 22  1  0
 22 23  1  0
 23 24  1  0
 25 24  1  1
 25 27  1  0
 26 25  1  0
 27 28  2  0
 27 29  1  0
M  END
$$$$
