IYM.pdb
     RDKit          3D

 29 29  0  0  1  0  0  0  0  0999 V2000
   26.8012  -20.4536  -20.2013 C   0  0  0  0  0  0  0  0  0  0  0  0
   27.7087  -20.8651  -19.0989 C   0  0  0  0  0  0  0  0  0  0  0  0
   27.0392  -21.1079  -17.7659 C   0  0  2  0  0  0  0  0  0  0  0  0
   26.2291  -19.8687  -17.4057 C   0  0  0  0  0  0  0  0  0  0  0  0
   28.0367  -21.4812  -16.7042 C   0  0  2  0  0  0  0  0  0  0  0  0
   28.5142  -22.8250  -17.0882 N   0  0  0  0  0  0  0  0  0  0  0  0
   27.4854  -21.6038  -15.3462 C   0  0  0  0  0  0  0  0  0  0  0  0
   26.7560  -22.6130  -15.0779 O   0  0  0  0  0  0  0  0  0  0  0  0
   26.2592  -20.2597   -6.5868 O   0  0  0  0  0  0  0  0  0  0  0  0
   26.6597  -20.2273   -7.9259 C   0  0  0  0  0  0  0  0  0  0  0  0
   27.4855  -21.2033   -8.4461 C   0  0  0  0  0  0  0  0  0  0  0  0
   27.8716  -21.1540   -9.7769 C   0  0  0  0  0  0  0  0  0  0  0  0
   27.4487  -20.1431  -10.6098 C   0  0  0  0  0  0  0  0  0  0  0  0
   27.8648  -20.0757  -11.9988 C   0  0  0  0  0  0  0  0  0  0  0  0
   27.0305  -20.8689  -12.9773 C   0  0  2  0  0  0  0  0  0  0  0  0
   27.6768  -20.7091  -14.2678 N   0  0  0  0  0  0  0  0  0  0  0  0
   25.6459  -20.3876  -12.9251 C   0  0  0  0  0  0  0  0  0  0  0  0
   25.3455  -19.4368  -13.6982 O   0  0  0  0  0  0  0  0  0  0  0  0
   26.6279  -19.1813  -10.0736 C   0  0  0  0  0  0  0  0  0  0  0  0
   26.2319  -19.2128   -8.7500 C   0  0  0  0  0  0  0  0  0  0  0  0
   21.2551  -18.6598  -14.5105 C   0  0  0  0  0  0  0  0  0  0  0  0
   21.1634  -20.3209  -15.2145 S   0  0  0  0  0  0  0  0  0  0  0  0
   21.3434  -21.5148  -13.8310 C   0  0  0  0  0  0  0  0  0  0  0  0
   22.8089  -21.7197  -13.5190 C   0  0  0  0  0  0  0  0  0  0  0  0
   23.2397  -20.7348  -12.4668 C   0  0  2  0  0  0  0  0  0  0  0  0
   24.6395  -20.8874  -12.0953 N   0  0  0  0  0  0  0  0  0  0  0  0
   22.3959  -20.9326  -11.2156 C   0  0  0  0  0  0  0  0  0  0  0  0
   22.7306  -21.7517  -10.3253 O   0  0  0  0  0  0  0  0  0  0  0  0
   21.2265  -20.2144  -11.0144 O   0  0  0  0  0  0  0  0  0  0  0  0
  2  1  1  0
  3  2  1  0
  3  4  1  1
  5  6  1  6
  5  3  1  0
  7  5  1  0
  7  8  2  0
  9 10  1  0
 10 11  2  0
 11 12  1  0
 13 12  2  0
 13 14  1  0
 15 14  1  1
 15 16  1  0
 15 17  1  0
 16  7  1  0
 17 26  1  0
 18 17  2  0
 19 13  1  0
 20 10  1  0
 20 19  2  0
 21 22  1  0
 22 23  1  0
 23 24  1  0
 25 24  1  6
 25 27  1  0
 26 25  1  0
 27 28  2  0
 27 29  1  0
M  END
$$$$
