IYM.pdb
     RDKit          3D

 29 29  0  0  1  0  0  0  0  0999 V2000
   21.4884  -31.8362   -9.5092 C   0  0  0  0  0  0  0  0  0  0  0  0
   22.9467  -31.5857   -9.3717 C   0  0  0  0  0  0  0  0  0  0  0  0
   23.6577  -32.4447   -8.3516 C   0  0  2  0  0  0  0  0  0  0  0  0
   23.0198  -32.1962   -6.9904 C   0  0  0  0  0  0  0  0  0  0  0  0
   25.1408  -32.1963   -8.3546 C   0  0  2  0  0  0  0  0  0  0  0  0
   25.5790  -32.5327   -9.7244 N   0  0  0  0  0  0  0  0  0  0  0  0
   25.9179  -33.0504   -7.4437 C   0  0  0  0  0  0  0  0  0  0  0  0
   25.8539  -34.3134   -7.5960 O   0  0  0  0  0  0  0  0  0  0  0  0
   32.7212  -36.1305   -2.7451 O   0  0  0  0  0  0  0  0  0  0  0  0
   31.7787  -35.3607   -3.4331 C   0  0  0  0  0  0  0  0  0  0  0  0
   31.6904  -35.4059   -4.8099 C   0  0  0  0  0  0  0  0  0  0  0  0
   30.7487  -34.6351   -5.4743 C   0  0  0  0  0  0  0  0  0  0  0  0
   29.8837  -33.8113   -4.7903 C   0  0  0  0  0  0  0  0  0  0  0  0
   28.9086  -32.9878   -5.4815 C   0  0  0  0  0  0  0  0  0  0  0  0
   27.5040  -33.5409   -5.5457 C   0  0  2  0  0  0  0  0  0  0  0  0
   26.7566  -32.6239   -6.3878 N   0  0  0  0  0  0  0  0  0  0  0  0
   26.9820  -33.6793   -4.1820 C   0  0  0  0  0  0  0  0  0  0  0  0
   26.8836  -32.6216   -3.5012 O   0  0  0  0  0  0  0  0  0  0  0  0
   29.9874  -33.7799   -3.4212 C   0  0  0  0  0  0  0  0  0  0  0  0
   30.9190  -34.5405   -2.7406 C   0  0  0  0  0  0  0  0  0  0  0  0
   21.3903  -32.4888   -1.1422 C   0  0  0  0  0  0  0  0  0  0  0  0
   22.1494  -34.0882   -1.5010 S   0  0  0  0  0  0  0  0  0  0  0  0
   23.9498  -33.8044   -1.7243 C   0  0  0  0  0  0  0  0  0  0  0  0
   24.6297  -35.1016   -2.1011 C   0  0  0  0  0  0  0  0  0  0  0  0
   26.1141  -34.8790   -2.2000 C   0  0  2  0  0  0  0  0  0  0  0  0
   26.5903  -34.8756   -3.5762 N   0  0  0  0  0  0  0  0  0  0  0  0
   26.8409  -35.9880   -1.4527 C   0  0  0  0  0  0  0  0  0  0  0  0
   27.5448  -36.8316   -2.0597 O   0  0  0  0  0  0  0  0  0  0  0  0
   26.7515  -36.1060   -0.0736 O   0  0  0  0  0  0  0  0  0  0  0  0
  2  1  1  0
  3  2  1  0
  3  4  1  1
  5  6  1  6
  5  3  1  0
  7  5  1  0
  7  8  2  0
  9 10  1  0
 10 11  2  0
 11 12  1  0
 13 12  2  0
 13 14  1  0
 15 14  1  1
 15 16  1  0
 15 17  1  0
 16  7  1  0
 17 26  1  0
 18 17  2  0
 19 13  1  0
 20 10  1  0
 20 19  2  0
 21 22  1  0
 22 23  1  0
 23 24  1  0
 25 24  1  6
 25 27  1  0
 26 25  1  0
 27 28  2  0
 27 29  1  0
M  END
$$$$
