IYM.pdb
     RDKit          3D

 29 29  0  0  1  0  0  0  0  0999 V2000
   28.6603  -19.9043   -5.5783 C   0  0  0  0  0  0  0  0  0  0  0  0
   28.3918  -20.6708   -6.8228 C   0  0  0  0  0  0  0  0  0  0  0  0
   27.2503  -20.1540   -7.6677 C   0  0  2  0  0  0  0  0  0  0  0  0
   25.9872  -20.1542   -6.8155 C   0  0  0  0  0  0  0  0  0  0  0  0
   27.0973  -20.9457   -8.9371 C   0  0  2  0  0  0  0  0  0  0  0  0
   28.4727  -21.3324   -9.3110 N   0  0  0  0  0  0  0  0  0  0  0  0
   26.5473  -20.1963  -10.0768 C   0  0  0  0  0  0  0  0  0  0  0  0
   26.1070  -19.0188   -9.8712 O   0  0  0  0  0  0  0  0  0  0  0  0
   25.8028  -16.5212  -18.0183 O   0  0  0  0  0  0  0  0  0  0  0  0
   26.1115  -17.3026  -16.9009 C   0  0  0  0  0  0  0  0  0  0  0  0
   26.0437  -18.6802  -16.9545 C   0  0  0  0  0  0  0  0  0  0  0  0
   26.3540  -19.4381  -15.8356 C   0  0  0  0  0  0  0  0  0  0  0  0
   26.7345  -18.8477  -14.6519 C   0  0  0  0  0  0  0  0  0  0  0  0
   27.0422  -19.6349  -13.4719 C   0  0  0  0  0  0  0  0  0  0  0  0
   25.9108  -19.8191  -12.4875 C   0  0  2  0  0  0  0  0  0  0  0  0
   26.4487  -20.6389  -11.4165 N   0  0  0  0  0  0  0  0  0  0  0  0
   24.7609  -20.4048  -13.1848 C   0  0  0  0  0  0  0  0  0  0  0  0
   24.8051  -21.6454  -13.4104 O   0  0  0  0  0  0  0  0  0  0  0  0
   26.7957  -17.4760  -14.6185 C   0  0  0  0  0  0  0  0  0  0  0  0
   26.4905  -16.7032  -15.7226 C   0  0  0  0  0  0  0  0  0  0  0  0
   19.3645  -22.0167  -11.4542 C   0  0  0  0  0  0  0  0  0  0  0  0
   18.7731  -21.5026  -13.0818 S   0  0  0  0  0  0  0  0  0  0  0  0
   20.2445  -21.2918  -14.1600 C   0  0  0  0  0  0  0  0  0  0  0  0
   21.3677  -20.6533  -13.3742 C   0  0  0  0  0  0  0  0  0  0  0  0
   22.5436  -20.4175  -14.2821 C   0  0  2  0  0  0  0  0  0  0  0  0
   23.6303  -19.7093  -13.6201 N   0  0  0  0  0  0  0  0  0  0  0  0
   22.0990  -19.5867  -15.4774 C   0  0  0  0  0  0  0  0  0  0  0  0
   22.2531  -18.3412  -15.5002 O   0  0  0  0  0  0  0  0  0  0  0  0
   21.5074  -20.1765  -16.5846 O   0  0  0  0  0  0  0  0  0  0  0  0
  2  1  1  0
  3  2  1  0
  3  4  1  1
  5  6  1  6
  5  3  1  0
  7  5  1  0
  7  8  2  0
  9 10  1  0
 10 11  2  0
 11 12  1  0
 13 12  2  0
 13 14  1  0
 15 14  1  6
 15 16  1  0
 15 17  1  0
 16  7  1  0
 17 26  1  0
 18 17  2  0
 19 13  1  0
 20 10  1  0
 20 19  2  0
 21 22  1  0
 22 23  1  0
 23 24  1  0
 25 24  1  1
 25 27  1  0
 26 25  1  0
 27 28  2  0
 27 29  1  0
M  END
$$$$
