IYM.pdb
     RDKit          3D

 29 29  0  0  1  0  0  0  0  0999 V2000
   22.4183  -10.4077  -20.8823 C   0  0  0  0  0  0  0  0  0  0  0  0
   22.4645  -10.5223  -19.4013 C   0  0  0  0  0  0  0  0  0  0  0  0
   21.7327   -9.4376  -18.6451 C   0  0  2  0  0  0  0  0  0  0  0  0
   22.2559   -8.0879  -19.1205 C   0  0  0  0  0  0  0  0  0  0  0  0
   21.8555   -9.6194  -17.1573 C   0  0  2  0  0  0  0  0  0  0  0  0
   21.3272  -10.9736  -16.8958 N   0  0  0  0  0  0  0  0  0  0  0  0
   21.0517   -8.6916  -16.3474 C   0  0  0  0  0  0  0  0  0  0  0  0
   19.7847   -8.7175  -16.4760 O   0  0  0  0  0  0  0  0  0  0  0  0
   18.1139   -4.1188   -9.4144 O   0  0  0  0  0  0  0  0  0  0  0  0
   18.9046   -4.7568  -10.3747 C   0  0  0  0  0  0  0  0  0  0  0  0
   19.6318   -4.0299  -11.2957 C   0  0  0  0  0  0  0  0  0  0  0  0
   20.4105   -4.6808  -12.2402 C   0  0  0  0  0  0  0  0  0  0  0  0
   20.4817   -6.0546  -12.2883 C   0  0  0  0  0  0  0  0  0  0  0  0
   21.2800   -6.7420  -13.2868 C   0  0  0  0  0  0  0  0  0  0  0  0
   20.6624   -6.8577  -14.6608 C   0  0  2  0  0  0  0  0  0  0  0  0
   21.5318   -7.7466  -15.4110 N   0  0  0  0  0  0  0  0  0  0  0  0
   20.5202   -5.5158  -15.2357 C   0  0  0  0  0  0  0  0  0  0  0  0
   21.5864   -4.9006  -15.5127 O   0  0  0  0  0  0  0  0  0  0  0  0
   19.7508   -6.7600  -11.3639 C   0  0  0  0  0  0  0  0  0  0  0  0
   18.9689   -6.1299  -10.4146 C   0  0  0  0  0  0  0  0  0  0  0  0
   17.2109   -0.3424  -19.9471 C   0  0  0  0  0  0  0  0  0  0  0  0
   17.1809   -2.0350  -19.3165 S   0  0  0  0  0  0  0  0  0  0  0  0
   18.3525   -2.1165  -17.9050 C   0  0  0  0  0  0  0  0  0  0  0  0
   18.3363   -3.5049  -17.3057 C   0  0  0  0  0  0  0  0  0  0  0  0
   19.3074   -3.5670  -16.1586 C   0  0  2  0  0  0  0  0  0  0  0  0
   19.3124   -4.8646  -15.4976 N   0  0  0  0  0  0  0  0  0  0  0  0
   18.9350   -2.5133  -15.1253 C   0  0  0  0  0  0  0  0  0  0  0  0
   18.0656   -2.7379  -14.2481 O   0  0  0  0  0  0  0  0  0  0  0  0
   19.5433   -1.2669  -15.1159 O   0  0  0  0  0  0  0  0  0  0  0  0
  2  1  1  0
  3  2  1  0
  3  4  1  6
  5  6  1  6
  5  3  1  0
  7  5  1  0
  7  8  2  0
  9 10  1  0
 10 11  2  0
 11 12  1  0
 13 12  2  0
 13 14  1  0
 15 14  1  1
 15 16  1  0
 15 17  1  0
 16  7  1  0
 17 26  1  0
 18 17  2  0
 19 13  1  0
 20 10  1  0
 20 19  2  0
 21 22  1  0
 22 23  1  0
 23 24  1  0
 25 24  1  6
 25 27  1  0
 26 25  1  0
 27 28  2  0
 27 29  1  0
M  END
$$$$
