IYM.pdb
     RDKit          3D

 29 29  0  0  1  0  0  0  0  0999 V2000
   30.2565  -17.4775  -19.2413 C   0  0  0  0  0  0  0  0  0  0  0  0
   29.0598  -16.6522  -19.5501 C   0  0  0  0  0  0  0  0  0  0  0  0
   27.9698  -16.6757  -18.5035 C   0  0  2  0  0  0  0  0  0  0  0  0
   28.4626  -15.9074  -17.2835 C   0  0  0  0  0  0  0  0  0  0  0  0
   27.5460  -18.0808  -18.1756 C   0  0  2  0  0  0  0  0  0  0  0  0
   27.2265  -18.6948  -19.4803 N   0  0  0  0  0  0  0  0  0  0  0  0
   26.3325  -18.1899  -17.3519 C   0  0  0  0  0  0  0  0  0  0  0  0
   26.3528  -17.6997  -16.1764 O   0  0  0  0  0  0  0  0  0  0  0  0
   17.7778  -19.4880  -15.1212 O   0  0  0  0  0  0  0  0  0  0  0  0
   19.0098  -19.3980  -15.7758 C   0  0  0  0  0  0  0  0  0  0  0  0
   19.7171  -20.5318  -16.1217 C   0  0  0  0  0  0  0  0  0  0  0  0
   20.9372  -20.4221  -16.7709 C   0  0  0  0  0  0  0  0  0  0  0  0
   21.4744  -19.1946  -17.0865 C   0  0  0  0  0  0  0  0  0  0  0  0
   22.7601  -19.0729  -17.7490 C   0  0  0  0  0  0  0  0  0  0  0  0
   23.9485  -18.8373  -16.8461 C   0  0  2  0  0  0  0  0  0  0  0  0
   25.1062  -18.7898  -17.7213 N   0  0  0  0  0  0  0  0  0  0  0  0
   23.9947  -19.8951  -15.8309 C   0  0  0  0  0  0  0  0  0  0  0  0
   24.2690  -21.0585  -16.2348 O   0  0  0  0  0  0  0  0  0  0  0  0
   20.7559  -18.0785  -16.7339 C   0  0  0  0  0  0  0  0  0  0  0  0
   19.5381  -18.1669  -16.0867 C   0  0  0  0  0  0  0  0  0  0  0  0
   25.8919  -19.8791   -9.4301 C   0  0  0  0  0  0  0  0  0  0  0  0
   26.3071  -21.4321  -10.2542 S   0  0  0  0  0  0  0  0  0  0  0  0
   25.0218  -21.7385  -11.5292 C   0  0  0  0  0  0  0  0  0  0  0  0
   24.9628  -20.5704  -12.4878 C   0  0  0  0  0  0  0  0  0  0  0  0
   23.9294  -20.8424  -13.5464 C   0  0  2  0  0  0  0  0  0  0  0  0
   23.7593  -19.7249  -14.4645 N   0  0  0  0  0  0  0  0  0  0  0  0
   22.5872  -21.1152  -12.8824 C   0  0  0  0  0  0  0  0  0  0  0  0
   22.3479  -22.2119  -12.3206 O   0  0  0  0  0  0  0  0  0  0  0  0
   21.5803  -20.1614  -12.8745 O   0  0  0  0  0  0  0  0  0  0  0  0
  2  1  1  0
  3  2  1  0
  3  4  1  1
  5  6  1  6
  5  3  1  0
  7  5  1  0
  7  8  2  0
  9 10  1  0
 10 11  2  0
 11 12  1  0
 13 12  2  0
 13 14  1  0
 15 14  1  6
 15 16  1  0
 15 17  1  0
 16  7  1  0
 17 26  1  0
 18 17  2  0
 19 13  1  0
 20 10  1  0
 20 19  2  0
 21 22  1  0
 22 23  1  0
 23 24  1  0
 25 24  1  1
 25 27  1  0
 26 25  1  0
 27 28  2  0
 27 29  1  0
M  END
$$$$
