IYM.pdb
     RDKit          3D

 29 29  0  0  1  0  0  0  0  0999 V2000
   28.1978  -17.7406  -17.1519 C   0  0  0  0  0  0  0  0  0  0  0  0
   28.5482  -18.5419  -15.9504 C   0  0  0  0  0  0  0  0  0  0  0  0
   27.3739  -19.0932  -15.1752 C   0  0  2  0  0  0  0  0  0  0  0  0
   26.4617  -17.9319  -14.8000 C   0  0  0  0  0  0  0  0  0  0  0  0
   27.8226  -19.8911  -13.9820 C   0  0  2  0  0  0  0  0  0  0  0  0
   28.6124  -21.0046  -14.5457 N   0  0  0  0  0  0  0  0  0  0  0  0
   26.7390  -20.5006  -13.1963 C   0  0  0  0  0  0  0  0  0  0  0  0
   26.2084  -21.5750  -13.6284 O   0  0  0  0  0  0  0  0  0  0  0  0
   29.3641  -20.7204   -6.4853 O   0  0  0  0  0  0  0  0  0  0  0  0
   28.2785  -20.5491   -7.3493 C   0  0  0  0  0  0  0  0  0  0  0  0
   28.0721  -21.4052   -8.4122 C   0  0  0  0  0  0  0  0  0  0  0  0
   26.9893  -21.2190   -9.2579 C   0  0  0  0  0  0  0  0  0  0  0  0
   26.0980  -20.1877   -9.0663 C   0  0  0  0  0  0  0  0  0  0  0  0
   24.9735  -19.9764   -9.9595 C   0  0  0  0  0  0  0  0  0  0  0  0
   25.0697  -20.6437  -11.3116 C   0  0  2  0  0  0  0  0  0  0  0  0
   26.2008  -20.0236  -11.9784 N   0  0  0  0  0  0  0  0  0  0  0  0
   23.7903  -20.4908  -12.0124 C   0  0  0  0  0  0  0  0  0  0  0  0
   23.6064  -19.4054  -12.6290 O   0  0  0  0  0  0  0  0  0  0  0  0
   26.3205  -19.3466   -8.0037 C   0  0  0  0  0  0  0  0  0  0  0  0
   27.3935  -19.5154   -7.1494 C   0  0  0  0  0  0  0  0  0  0  0  0
   20.9352  -23.5562  -16.7171 C   0  0  0  0  0  0  0  0  0  0  0  0
   21.0567  -24.5888  -15.2398 S   0  0  0  0  0  0  0  0  0  0  0  0
   21.0107  -23.4718  -13.7831 C   0  0  0  0  0  0  0  0  0  0  0  0
   21.6521  -22.1477  -14.1329 C   0  0  0  0  0  0  0  0  0  0  0  0
   21.6200  -21.2425  -12.9318 C   0  0  2  0  0  0  0  0  0  0  0  0
   22.7638  -21.4375  -12.0518 N   0  0  0  0  0  0  0  0  0  0  0  0
   20.3559  -21.5149  -12.1290 C   0  0  0  0  0  0  0  0  0  0  0  0
   20.4089  -22.0042  -10.9742 O   0  0  0  0  0  0  0  0  0  0  0  0
   19.0999  -21.2321  -12.6448 O   0  0  0  0  0  0  0  0  0  0  0  0
  2  1  1  0
  3  2  1  0
  3  4  1  1
  5  6  1  6
  5  3  1  0
  7  5  1  0
  7  8  2  0
  9 10  1  0
 10 11  2  0
 11 12  1  0
 13 12  2  0
 13 14  1  0
 15 14  1  1
 15 16  1  0
 15 17  1  0
 16  7  1  0
 17 26  1  0
 18 17  2  0
 19 13  1  0
 20 10  1  0
 20 19  2  0
 21 22  1  0
 22 23  1  0
 23 24  1  0
 25 24  1  6
 25 27  1  0
 26 25  1  0
 27 28  2  0
 27 29  1  0
M  END
$$$$
