IYM.pdb
     RDKit          3D

 29 29  0  0  1  0  0  0  0  0999 V2000
   26.7138  -22.3434  -20.5890 C   0  0  0  0  0  0  0  0  0  0  0  0
   27.3985  -22.7442  -19.3324 C   0  0  0  0  0  0  0  0  0  0  0  0
   26.5794  -22.5907  -18.0717 C   0  0  2  0  0  0  0  0  0  0  0  0
   26.1010  -21.1466  -17.9860 C   0  0  0  0  0  0  0  0  0  0  0  0
   27.3491  -23.0231  -16.8543 C   0  0  2  0  0  0  0  0  0  0  0  0
   27.5229  -24.4811  -17.0135 N   0  0  0  0  0  0  0  0  0  0  0  0
   26.6553  -22.8204  -15.5735 C   0  0  0  0  0  0  0  0  0  0  0  0
   25.6491  -23.5547  -15.3073 O   0  0  0  0  0  0  0  0  0  0  0  0
   24.9083  -19.7138   -7.3404 O   0  0  0  0  0  0  0  0  0  0  0  0
   25.4433  -20.0281   -8.5931 C   0  0  0  0  0  0  0  0  0  0  0  0
   25.6977  -21.3368   -8.9509 C   0  0  0  0  0  0  0  0  0  0  0  0
   26.2283  -21.6285  -10.1982 C   0  0  0  0  0  0  0  0  0  0  0  0
   26.5143  -20.6348  -11.1068 C   0  0  0  0  0  0  0  0  0  0  0  0
   27.0875  -20.9325  -12.4066 C   0  0  0  0  0  0  0  0  0  0  0  0
   26.2038  -21.7072  -13.3563 C   0  0  2  0  0  0  0  0  0  0  0  0
   26.9836  -21.8805  -14.5689 N   0  0  0  0  0  0  0  0  0  0  0  0
   24.9447  -20.9777  -13.5403 C   0  0  0  0  0  0  0  0  0  0  0  0
   25.0169  -19.8550  -14.1116 O   0  0  0  0  0  0  0  0  0  0  0  0
   26.2545  -19.3393  -10.7321 C   0  0  0  0  0  0  0  0  0  0  0  0
   25.7258  -19.0280   -9.4939 C   0  0  0  0  0  0  0  0  0  0  0  0
   20.6571  -21.2868  -17.2924 C   0  0  0  0  0  0  0  0  0  0  0  0
   19.5400  -20.4511  -16.1449 S   0  0  0  0  0  0  0  0  0  0  0  0
   20.5103  -20.0248  -14.6454 C   0  0  0  0  0  0  0  0  0  0  0  0
   21.7227  -20.9233  -14.5476 C   0  0  0  0  0  0  0  0  0  0  0  0
   22.5155  -20.5635  -13.3209 C   0  0  2  0  0  0  0  0  0  0  0  0
   23.6815  -21.4164  -13.1365 N   0  0  0  0  0  0  0  0  0  0  0  0
   21.6308  -20.7024  -12.0902 C   0  0  0  0  0  0  0  0  0  0  0  0
   21.5716  -21.7787  -11.4469 O   0  0  0  0  0  0  0  0  0  0  0  0
   20.8581  -19.6443  -11.6353 O   0  0  0  0  0  0  0  0  0  0  0  0
  2  1  1  0
  3  2  1  0
  3  4  1  1
  5  6  1  6
  5  3  1  0
  7  5  1  0
  7  8  2  0
  9 10  1  0
 10 11  2  0
 11 12  1  0
 13 12  2  0
 13 14  1  0
 15 14  1  1
 15 16  1  0
 15 17  1  0
 16  7  1  0
 17 26  1  0
 18 17  2  0
 19 13  1  0
 20 10  1  0
 20 19  2  0
 21 22  1  0
 22 23  1  0
 23 24  1  0
 25 24  1  6
 25 27  1  0
 26 25  1  0
 27 28  2  0
 27 29  1  0
M  END
$$$$
