VAE.pdb
     RDKit          3D

 22 21  0  0  1  0  0  0  0  0999 V2000
   17.7422  -10.9687  -19.2879 C   0  0  0  0  0  0  0  0  0  0  0  0
   18.3399  -10.3136  -18.0846 C   0  0  2  0  0  0  0  0  0  0  0  0
   19.1209   -9.1025  -18.5771 C   0  0  0  0  0  0  0  0  0  0  0  0
   19.1988  -11.2229  -17.2752 C   0  0  2  0  0  0  0  0  0  0  0  0
   18.3764  -12.3457  -16.7814 N   0  0  0  0  0  0  0  0  0  0  0  0
   19.7790  -10.5740  -16.1071 C   0  0  0  0  0  0  0  0  0  0  0  0
   19.0243  -10.1136  -15.2000 O   0  0  0  0  0  0  0  0  0  0  0  0
   23.1199  -10.0534  -14.5235 C   0  0  0  0  0  0  0  0  0  0  0  0
   21.6641   -9.6821  -14.7950 C   0  0  2  0  0  0  0  0  0  0  0  0
   21.1777  -10.4460  -15.9531 N   0  0  0  0  0  0  0  0  0  0  0  0
   21.6118   -8.2515  -15.1391 C   0  0  0  0  0  0  0  0  0  0  0  0
   21.7909   -7.8761  -16.3157 O   0  0  0  0  0  0  0  0  0  0  0  0
   21.3571   -7.3068  -14.1256 N   0  0  0  0  0  0  0  0  0  0  0  0
   21.3348   -5.8690  -14.4754 C   0  0  1  0  0  0  0  0  0  0  0  0
   19.9300   -5.3787  -14.5122 C   0  0  0  0  0  0  0  0  0  0  0  0
   19.8180   -3.9073  -14.7195 C   0  0  0  0  0  0  0  0  0  0  0  0
   18.4030   -3.4850  -14.6681 C   0  0  0  0  0  0  0  0  0  0  0  0
   17.4892   -4.3556  -14.5190 O   0  0  0  0  0  0  0  0  0  0  0  0
   22.1738   -5.1892  -13.4478 C   0  0  0  0  0  0  0  0  0  0  0  0
   22.6305   -3.9197  -13.6980 O   0  0  0  0  0  0  0  0  0  0  0  0
   18.0873   -2.1472  -14.7851 O   0  0  0  0  0  0  0  0  0  0  0  0
   22.4709   -5.7612  -12.3578 O   0  0  0  0  0  0  0  0  0  0  0  0
  2  3  1  6
  2  1  1  0
  4  6  1  0
  4  2  1  0
  4  5  1  1
  6 10  1  0
  7  6  2  0
  9  8  1  6
  9 11  1  0
 10  9  1  0
 11 13  1  0
 11 12  2  0
 13 14  1  0
 14 15  1  1
 14 19  1  0
 16 17  1  0
 16 15  1  0
 17 21  1  0
 18 17  2  0
 19 20  1  0
 22 19  2  0
M  END
$$$$
