VAE.pdb
     RDKit          3D

 22 21  0  0  1  0  0  0  0  0999 V2000
   19.5769  -12.9062  -18.9695 C   0  0  0  0  0  0  0  0  0  0  0  0
   20.6814  -12.8055  -19.9716 C   0  0  2  0  0  0  0  0  0  0  0  0
   20.4418  -13.8922  -21.0112 C   0  0  0  0  0  0  0  0  0  0  0  0
   22.0415  -12.9148  -19.3732 C   0  0  2  0  0  0  0  0  0  0  0  0
   22.1738  -14.2331  -18.7210 N   0  0  0  0  0  0  0  0  0  0  0  0
   22.3018  -11.9072  -18.3538 C   0  0  0  0  0  0  0  0  0  0  0  0
   21.8373  -12.0564  -17.1849 O   0  0  0  0  0  0  0  0  0  0  0  0
   24.3111   -8.7604  -17.9629 C   0  0  0  0  0  0  0  0  0  0  0  0
   23.2607   -9.7865  -17.5453 C   0  0  2  0  0  0  0  0  0  0  0  0
   23.0713  -10.7559  -18.6343 N   0  0  0  0  0  0  0  0  0  0  0  0
   21.9856   -9.0800  -17.3383 C   0  0  0  0  0  0  0  0  0  0  0  0
   21.1990   -8.9008  -18.2904 O   0  0  0  0  0  0  0  0  0  0  0  0
   21.6600   -8.6062  -16.0521 N   0  0  0  0  0  0  0  0  0  0  0  0
   20.3653   -7.9192  -15.8482 C   0  0  1  0  0  0  0  0  0  0  0  0
   19.5223   -8.6987  -14.9010 C   0  0  0  0  0  0  0  0  0  0  0  0
   18.2768   -7.9908  -14.4910 C   0  0  0  0  0  0  0  0  0  0  0  0
   17.4549   -8.8553  -13.6191 C   0  0  0  0  0  0  0  0  0  0  0  0
   18.0169   -9.5893  -12.7469 O   0  0  0  0  0  0  0  0  0  0  0  0
   20.7045   -6.5540  -15.3550 C   0  0  0  0  0  0  0  0  0  0  0  0
   21.8343   -6.3849  -14.5948 O   0  0  0  0  0  0  0  0  0  0  0  0
   16.0829   -8.8589  -13.7626 O   0  0  0  0  0  0  0  0  0  0  0  0
   19.9713   -5.5569  -15.6227 O   0  0  0  0  0  0  0  0  0  0  0  0
  2  3  1  6
  2  1  1  0
  4  6  1  0
  4  2  1  0
  4  5  1  1
  6 10  1  0
  7  6  2  0
  9  8  1  6
  9 11  1  0
 10  9  1  0
 11 13  1  0
 11 12  2  0
 13 14  1  0
 14 15  1  1
 14 19  1  0
 16 17  1  0
 16 15  1  0
 17 21  1  0
 18 17  2  0
 19 20  1  0
 22 19  2  0
M  END
$$$$
