VAE.pdb
     RDKit          3D

 22 21  0  0  1  0  0  0  0  0999 V2000
  -19.3670   -5.0493  -72.5888 C   0  0  0  0  0  0  0  0  0  0  0  0
  -20.6909   -4.4351  -72.2658 C   0  0  2  0  0  0  0  0  0  0  0  0
  -20.6053   -3.9149  -70.8371 C   0  0  0  0  0  0  0  0  0  0  0  0
  -21.8392   -5.3688  -72.4373 C   0  0  2  0  0  0  0  0  0  0  0  0
  -21.3935   -6.5382  -73.2212 N   0  0  0  0  0  0  0  0  0  0  0  0
  -22.9581   -4.7750  -73.1570 C   0  0  0  0  0  0  0  0  0  0  0  0
  -22.8205   -4.4354  -74.3694 O   0  0  0  0  0  0  0  0  0  0  0  0
  -24.8671   -4.0477  -70.2395 C   0  0  0  0  0  0  0  0  0  0  0  0
  -24.4023   -5.1439  -71.1951 C   0  0  2  0  0  0  0  0  0  0  0  0
  -24.2096   -4.5688  -72.5343 N   0  0  0  0  0  0  0  0  0  0  0  0
  -25.4669   -6.1571  -71.2840 C   0  0  0  0  0  0  0  0  0  0  0  0
  -25.7325   -6.7029  -72.3745 O   0  0  0  0  0  0  0  0  0  0  0  0
  -26.1858   -6.5064  -70.1239 N   0  0  0  0  0  0  0  0  0  0  0  0
  -25.7022   -7.6313  -69.2928 C   0  0  1  0  0  0  0  0  0  0  0  0
  -25.8732   -8.9140  -70.0284 C   0  0  0  0  0  0  0  0  0  0  0  0
  -26.0832   -8.7372  -71.4930 C   0  0  0  0  0  0  0  0  0  0  0  0
  -26.8860   -9.8519  -72.0375 C   0  0  0  0  0  0  0  0  0  0  0  0
  -26.3290  -10.7376  -72.7590 O   0  0  0  0  0  0  0  0  0  0  0  0
  -24.2810   -7.3162  -68.9721 C   0  0  0  0  0  0  0  0  0  0  0  0
  -23.9969   -6.1689  -68.2749 O   0  0  0  0  0  0  0  0  0  0  0  0
  -28.2353   -9.9187  -71.7584 O   0  0  0  0  0  0  0  0  0  0  0  0
  -23.3398   -8.0831  -69.3319 O   0  0  0  0  0  0  0  0  0  0  0  0
  2  3  1  1
  2  1  1  0
  4  6  1  0
  4  2  1  0
  4  5  1  6
  6 10  1  0
  7  6  2  0
  9  8  1  1
  9 11  1  0
 10  9  1  0
 11 13  1  0
 11 12  2  0
 13 14  1  0
 14 15  1  6
 14 19  1  0
 16 17  1  0
 16 15  1  0
 17 21  1  0
 18 17  2  0
 19 20  1  0
 22 19  2  0
M  END
$$$$
