VAE.pdb
     RDKit          3D

 22 21  0  0  1  0  0  0  0  0999 V2000
   20.2833   -7.9567  -19.9800 C   0  0  0  0  0  0  0  0  0  0  0  0
   21.0969   -9.2106  -19.9899 C   0  0  2  0  0  0  0  0  0  0  0  0
   21.0994   -9.7301  -21.4214 C   0  0  0  0  0  0  0  0  0  0  0  0
   20.6090  -10.2457  -19.0359 C   0  0  2  0  0  0  0  0  0  0  0  0
   19.2310  -10.6269  -19.4054 N   0  0  0  0  0  0  0  0  0  0  0  0
   20.5665   -9.7793  -17.6564 C   0  0  0  0  0  0  0  0  0  0  0  0
   19.5877   -9.0829  -17.2549 O   0  0  0  0  0  0  0  0  0  0  0  0
   22.4920  -10.1995  -14.4700 C   0  0  0  0  0  0  0  0  0  0  0  0
   21.5197   -9.4828  -15.4038 C   0  0  2  0  0  0  0  0  0  0  0  0
   21.5971  -10.0894  -16.7409 N   0  0  0  0  0  0  0  0  0  0  0  0
   21.9433   -8.0773  -15.5167 C   0  0  0  0  0  0  0  0  0  0  0  0
   22.8257   -7.7454  -16.3344 O   0  0  0  0  0  0  0  0  0  0  0  0
   21.3422   -7.1070  -14.6910 N   0  0  0  0  0  0  0  0  0  0  0  0
   21.8541   -5.7189  -14.7269 C   0  0  1  0  0  0  0  0  0  0  0  0
   20.8877   -4.8414  -15.4421 C   0  0  0  0  0  0  0  0  0  0  0  0
   21.2553   -3.3977  -15.4067 C   0  0  0  0  0  0  0  0  0  0  0  0
   20.2554   -2.5925  -16.1382 C   0  0  0  0  0  0  0  0  0  0  0  0
   19.3078   -2.0329  -15.5025 O   0  0  0  0  0  0  0  0  0  0  0  0
   22.0687   -5.3295  -13.3042 C   0  0  0  0  0  0  0  0  0  0  0  0
   21.5412   -6.1189  -12.3134 O   0  0  0  0  0  0  0  0  0  0  0  0
   20.3597   -2.4578  -17.5072 O   0  0  0  0  0  0  0  0  0  0  0  0
   22.7226   -4.2892  -12.9984 O   0  0  0  0  0  0  0  0  0  0  0  0
  2  3  1  6
  2  1  1  0
  4  6  1  0
  4  2  1  0
  4  5  1  6
  6 10  1  0
  7  6  2  0
  9  8  1  1
  9 11  1  0
 10  9  1  0
 11 13  1  0
 11 12  2  0
 13 14  1  0
 14 15  1  1
 14 19  1  0
 16 17  1  0
 16 15  1  0
 17 21  1  0
 18 17  2  0
 19 20  1  0
 22 19  2  0
M  END
$$$$
