VAE.pdb
     RDKit          3D

 22 21  0  0  1  0  0  0  0  0999 V2000
   16.3955  -14.4080  -17.4010 C   0  0  0  0  0  0  0  0  0  0  0  0
   17.5862  -14.5425  -16.5075 C   0  0  2  0  0  0  0  0  0  0  0  0
   17.4283  -15.8525  -15.7471 C   0  0  0  0  0  0  0  0  0  0  0  0
   17.7677  -13.3921  -15.5782 C   0  0  2  0  0  0  0  0  0  0  0  0
   16.6095  -13.3266  -14.6644 N   0  0  0  0  0  0  0  0  0  0  0  0
   17.8429  -12.1086  -16.2631 C   0  0  0  0  0  0  0  0  0  0  0  0
   18.8473  -11.8356  -16.9850 O   0  0  0  0  0  0  0  0  0  0  0  0
   15.7457   -9.3823  -17.4552 C   0  0  0  0  0  0  0  0  0  0  0  0
   17.0340   -9.8382  -16.7746 C   0  0  2  0  0  0  0  0  0  0  0  0
   16.8122  -11.1491  -16.1472 N   0  0  0  0  0  0  0  0  0  0  0  0
   17.3571   -8.8734  -15.7104 C   0  0  0  0  0  0  0  0  0  0  0  0
   16.9495   -9.0556  -14.5451 O   0  0  0  0  0  0  0  0  0  0  0  0
   18.1329   -7.7388  -16.0198 N   0  0  0  0  0  0  0  0  0  0  0  0
   18.4883   -6.7964  -14.9356 C   0  0  1  0  0  0  0  0  0  0  0  0
   19.8442   -6.2329  -15.1789 C   0  0  0  0  0  0  0  0  0  0  0  0
   20.9272   -7.2561  -15.1564 C   0  0  0  0  0  0  0  0  0  0  0  0
   22.2487   -6.6124  -15.3068 C   0  0  0  0  0  0  0  0  0  0  0  0
   23.2925   -7.3300  -15.4104 O   0  0  0  0  0  0  0  0  0  0  0  0
   17.4108   -5.7664  -14.9249 C   0  0  0  0  0  0  0  0  0  0  0  0
   17.1854   -5.0538  -13.7741 O   0  0  0  0  0  0  0  0  0  0  0  0
   22.3365   -5.2359  -15.3309 O   0  0  0  0  0  0  0  0  0  0  0  0
   16.7048   -5.5424  -15.9520 O   0  0  0  0  0  0  0  0  0  0  0  0
  2  3  1  1
  2  1  1  0
  4  6  1  0
  4  2  1  0
  4  5  1  1
  6 10  1  0
  7  6  2  0
  9  8  1  1
  9 11  1  0
 10  9  1  0
 11 13  1  0
 11 12  2  0
 13 14  1  0
 14 15  1  6
 14 19  1  0
 16 17  1  0
 16 15  1  0
 17 21  1  0
 18 17  2  0
 19 20  1  0
 22 19  2  0
M  END
$$$$
