VAE.pdb
     RDKit          3D

 22 21  0  0  1  0  0  0  0  0999 V2000
   25.3713  -15.2409  -15.5160 C   0  0  0  0  0  0  0  0  0  0  0  0
   24.8334  -13.9036  -15.9115 C   0  0  2  0  0  0  0  0  0  0  0  0
   25.3474  -12.8960  -14.8918 C   0  0  0  0  0  0  0  0  0  0  0  0
   23.3475  -13.8649  -16.0137 C   0  0  2  0  0  0  0  0  0  0  0  0
   22.9075  -14.8802  -16.9917 N   0  0  0  0  0  0  0  0  0  0  0  0
   22.8381  -12.5803  -16.4750 C   0  0  0  0  0  0  0  0  0  0  0  0
   23.1205  -12.1701  -17.6396 O   0  0  0  0  0  0  0  0  0  0  0  0
   20.0242  -10.4161  -16.0201 C   0  0  0  0  0  0  0  0  0  0  0  0
   21.5356  -10.5049  -16.2172 C   0  0  2  0  0  0  0  0  0  0  0  0
   22.0238  -11.7710  -15.6514 N   0  0  0  0  0  0  0  0  0  0  0  0
   22.1614   -9.4014  -15.4700 C   0  0  0  0  0  0  0  0  0  0  0  0
   22.4791   -9.5476  -14.2720 O   0  0  0  0  0  0  0  0  0  0  0  0
   22.3994   -8.1748  -16.1209 N   0  0  0  0  0  0  0  0  0  0  0  0
   23.0469   -7.0778  -15.3678 C   0  0  1  0  0  0  0  0  0  0  0  0
   23.7038   -6.1339  -16.3129 C   0  0  0  0  0  0  0  0  0  0  0  0
   24.2656   -4.9229  -15.6508 C   0  0  0  0  0  0  0  0  0  0  0  0
   24.8719   -4.0215  -16.6524 C   0  0  0  0  0  0  0  0  0  0  0  0
   26.0836   -4.1862  -16.9987 O   0  0  0  0  0  0  0  0  0  0  0  0
   21.9652   -6.4492  -14.5575 C   0  0  0  0  0  0  0  0  0  0  0  0
   22.2813   -5.9018  -13.3396 O   0  0  0  0  0  0  0  0  0  0  0  0
   24.1155   -3.0067  -17.2011 O   0  0  0  0  0  0  0  0  0  0  0  0
   20.7688   -6.4150  -14.9711 O   0  0  0  0  0  0  0  0  0  0  0  0
  2  3  1  1
  2  1  1  0
  4  6  1  0
  4  2  1  0
  4  5  1  6
  6 10  1  0
  7  6  2  0
  9  8  1  1
  9 11  1  0
 10  9  1  0
 11 13  1  0
 11 12  2  0
 13 14  1  0
 14 15  1  6
 14 19  1  0
 16 17  1  0
 16 15  1  0
 17 21  1  0
 18 17  2  0
 19 20  1  0
 22 19  2  0
M  END
$$$$
