VAE.pdb
     RDKit          3D

 22 21  0  0  1  0  0  0  0  0999 V2000
   18.1101  -14.9051  -16.4930 C   0  0  0  0  0  0  0  0  0  0  0  0
   18.3976  -13.4697  -16.7949 C   0  0  2  0  0  0  0  0  0  0  0  0
   19.9030  -13.3470  -16.9896 C   0  0  0  0  0  0  0  0  0  0  0  0
   17.9056  -12.5299  -15.7487 C   0  0  2  0  0  0  0  0  0  0  0  0
   16.4842  -12.8205  -15.4733 N   0  0  0  0  0  0  0  0  0  0  0  0
   17.9843  -11.1320  -16.1512 C   0  0  0  0  0  0  0  0  0  0  0  0
   19.1124  -10.6024  -16.3781 O   0  0  0  0  0  0  0  0  0  0  0  0
   15.6488   -8.4196  -17.2496 C   0  0  0  0  0  0  0  0  0  0  0  0
   16.9991   -8.9670  -16.7934 C   0  0  2  0  0  0  0  0  0  0  0  0
   16.8230  -10.3414  -16.3020 N   0  0  0  0  0  0  0  0  0  0  0  0
   17.4742   -8.1402  -15.6717 C   0  0  0  0  0  0  0  0  0  0  0  0
   17.1926   -8.4466  -14.4951 O   0  0  0  0  0  0  0  0  0  0  0  0
   18.2521   -6.9963  -15.9385 N   0  0  0  0  0  0  0  0  0  0  0  0
   18.7493   -6.1872  -14.8036 C   0  0  1  0  0  0  0  0  0  0  0  0
   20.2023   -5.9134  -14.9752 C   0  0  0  0  0  0  0  0  0  0  0  0
   20.7864   -5.0891  -13.8799 C   0  0  0  0  0  0  0  0  0  0  0  0
   22.2266   -4.8604  -14.1179 C   0  0  0  0  0  0  0  0  0  0  0  0
   22.8694   -5.6354  -14.8934 O   0  0  0  0  0  0  0  0  0  0  0  0
   17.9112   -4.9546  -14.7872 C   0  0  0  0  0  0  0  0  0  0  0  0
   17.8421   -4.2145  -13.6337 O   0  0  0  0  0  0  0  0  0  0  0  0
   22.8610   -3.8069  -13.4928 O   0  0  0  0  0  0  0  0  0  0  0  0
   17.2657   -4.5843  -15.8117 O   0  0  0  0  0  0  0  0  0  0  0  0
  2  3  1  1
  2  1  1  0
  4  6  1  0
  4  2  1  0
  4  5  1  6
  6 10  1  0
  7  6  2  0
  9  8  1  1
  9 11  1  0
 10  9  1  0
 11 13  1  0
 11 12  2  0
 13 14  1  0
 14 15  1  6
 14 19  1  0
 16 17  1  0
 16 15  1  0
 17 21  1  0
 18 17  2  0
 19 20  1  0
 22 19  2  0
M  END
$$$$
