VAE.pdb
     RDKit          3D

 22 21  0  0  1  0  0  0  0  0999 V2000
   14.1544  -13.0338  -10.1393 C   0  0  0  0  0  0  0  0  0  0  0  0
   14.3620  -11.5734  -10.3811 C   0  0  2  0  0  0  0  0  0  0  0  0
   15.8629  -11.3515  -10.5130 C   0  0  0  0  0  0  0  0  0  0  0  0
   13.7740  -10.7042   -9.3236 C   0  0  2  0  0  0  0  0  0  0  0  0
   12.3143  -10.9235   -9.2794 N   0  0  0  0  0  0  0  0  0  0  0  0
   13.9840   -9.2833   -9.5674 C   0  0  0  0  0  0  0  0  0  0  0  0
   13.3635   -8.7052  -10.5082 O   0  0  0  0  0  0  0  0  0  0  0  0
   15.3046   -6.2971   -7.8582 C   0  0  0  0  0  0  0  0  0  0  0  0
   15.0516   -7.1067   -9.1277 C   0  0  2  0  0  0  0  0  0  0  0  0
   14.8681   -8.5211   -8.7711 N   0  0  0  0  0  0  0  0  0  0  0  0
   16.2456   -7.0043   -9.9830 C   0  0  0  0  0  0  0  0  0  0  0  0
   17.3347   -7.4866   -9.6106 O   0  0  0  0  0  0  0  0  0  0  0  0
   16.1481   -6.3551  -11.2295 N   0  0  0  0  0  0  0  0  0  0  0  0
   17.3110   -6.3821  -12.1443 C   0  0  1  0  0  0  0  0  0  0  0  0
   17.2344   -7.5795  -13.0251 C   0  0  0  0  0  0  0  0  0  0  0  0
   18.3035   -7.6252  -14.0622 C   0  0  0  0  0  0  0  0  0  0  0  0
   18.1310   -8.8092  -14.9293 C   0  0  0  0  0  0  0  0  0  0  0  0
   17.2016   -9.6409  -14.6849 O   0  0  0  0  0  0  0  0  0  0  0  0
   17.2688   -5.0927  -12.8910 C   0  0  0  0  0  0  0  0  0  0  0  0
   18.4483   -4.5273  -13.3059 O   0  0  0  0  0  0  0  0  0  0  0  0
   18.9840   -9.0013  -15.9963 O   0  0  0  0  0  0  0  0  0  0  0  0
   16.1709   -4.5147  -13.1441 O   0  0  0  0  0  0  0  0  0  0  0  0
  2  3  1  1
  2  1  1  0
  4  6  1  0
  4  2  1  0
  4  5  1  6
  6 10  1  0
  7  6  2  0
  9  8  1  1
  9 11  1  0
 10  9  1  0
 11 13  1  0
 11 12  2  0
 13 14  1  0
 14 15  1  6
 14 19  1  0
 16 17  1  0
 16 15  1  0
 17 21  1  0
 18 17  2  0
 19 20  1  0
 22 19  2  0
M  END
$$$$
