VAE.pdb
     RDKit          3D

 22 21  0  0  1  0  0  0  0  0999 V2000
   18.1823  -12.0270  -19.6479 C   0  0  0  0  0  0  0  0  0  0  0  0
   19.0189  -11.9614  -20.8848 C   0  0  2  0  0  0  0  0  0  0  0  0
   18.3225  -12.8096  -21.9406 C   0  0  0  0  0  0  0  0  0  0  0  0
   20.4274  -12.4000  -20.6762 C   0  0  2  0  0  0  0  0  0  0  0  0
   20.4308  -13.8119  -20.2435 N   0  0  0  0  0  0  0  0  0  0  0  0
   21.1186  -11.6370  -19.6455 C   0  0  0  0  0  0  0  0  0  0  0  0
   21.0221  -11.9838  -18.4311 O   0  0  0  0  0  0  0  0  0  0  0  0
   23.5551   -8.7906  -19.4186 C   0  0  0  0  0  0  0  0  0  0  0  0
   22.5572   -9.7995  -18.8552 C   0  0  2  0  0  0  0  0  0  0  0  0
   21.9072  -10.5094  -19.9665 N   0  0  0  0  0  0  0  0  0  0  0  0
   21.5194   -9.0573  -18.1205 C   0  0  0  0  0  0  0  0  0  0  0  0
   20.5049   -8.6344  -18.7114 O   0  0  0  0  0  0  0  0  0  0  0  0
   21.6819   -8.8277  -16.7400 N   0  0  0  0  0  0  0  0  0  0  0  0
   20.6846   -7.9968  -16.0296 C   0  0  1  0  0  0  0  0  0  0  0  0
   20.0035   -8.8073  -14.9833 C   0  0  0  0  0  0  0  0  0  0  0  0
   19.0376   -8.0265  -14.1600 C   0  0  0  0  0  0  0  0  0  0  0  0
   18.4917   -8.8640  -13.0720 C   0  0  0  0  0  0  0  0  0  0  0  0
   18.7754  -10.1020  -13.0250 O   0  0  0  0  0  0  0  0  0  0  0  0
   21.4416   -6.8356  -15.4813 C   0  0  0  0  0  0  0  0  0  0  0  0
   20.7451   -5.7431  -15.0294 O   0  0  0  0  0  0  0  0  0  0  0  0
   17.6759   -8.2929  -12.1173 O   0  0  0  0  0  0  0  0  0  0  0  0
   22.7068   -6.8408  -15.4289 O   0  0  0  0  0  0  0  0  0  0  0  0
  2  3  1  6
  2  1  1  0
  4  6  1  0
  4  2  1  0
  4  5  1  1
  6 10  1  0
  7  6  2  0
  9  8  1  6
  9 11  1  0
 10  9  1  0
 11 13  1  0
 11 12  2  0
 13 14  1  0
 14 15  1  1
 14 19  1  0
 16 17  1  0
 16 15  1  0
 17 21  1  0
 18 17  2  0
 19 20  1  0
 22 19  2  0
M  END
$$$$
