VAE.pdb
     RDKit          3D

 22 21  0  0  1  0  0  0  0  0999 V2000
   17.6503  -14.9465  -16.3772 C   0  0  0  0  0  0  0  0  0  0  0  0
   17.8066  -13.4794  -16.6164 C   0  0  2  0  0  0  0  0  0  0  0  0
   19.1809  -13.2722  -17.2391 C   0  0  0  0  0  0  0  0  0  0  0  0
   17.6352  -12.6533  -15.3884 C   0  0  2  0  0  0  0  0  0  0  0  0
   16.3729  -13.0367  -14.7249 N   0  0  0  0  0  0  0  0  0  0  0  0
   17.5543  -11.2253  -15.6650 C   0  0  0  0  0  0  0  0  0  0  0  0
   18.5594  -10.6150  -16.1360 O   0  0  0  0  0  0  0  0  0  0  0  0
   14.8869   -8.6134  -15.9103 C   0  0  0  0  0  0  0  0  0  0  0  0
   16.3354   -9.0943  -15.8751 C   0  0  2  0  0  0  0  0  0  0  0  0
   16.3701  -10.4932  -15.4240 N   0  0  0  0  0  0  0  0  0  0  0  0
   17.0655   -8.2802  -14.8891 C   0  0  0  0  0  0  0  0  0  0  0  0
   17.1118   -8.6270  -13.6912 O   0  0  0  0  0  0  0  0  0  0  0  0
   17.7134   -7.1025  -15.3109 N   0  0  0  0  0  0  0  0  0  0  0  0
   18.4774   -6.3112  -14.3208 C   0  0  1  0  0  0  0  0  0  0  0  0
   19.9084   -6.2412  -14.7243 C   0  0  0  0  0  0  0  0  0  0  0  0
   20.7330   -5.3656  -13.8447 C   0  0  0  0  0  0  0  0  0  0  0  0
   22.1210   -5.2911  -14.3458 C   0  0  0  0  0  0  0  0  0  0  0  0
   22.6886   -6.3373  -14.7913 O   0  0  0  0  0  0  0  0  0  0  0  0
   17.8107   -4.9792  -14.2658 C   0  0  0  0  0  0  0  0  0  0  0  0
   18.0001   -4.1875  -13.1610 O   0  0  0  0  0  0  0  0  0  0  0  0
   22.7891   -4.0844  -14.3227 O   0  0  0  0  0  0  0  0  0  0  0  0
   17.0766   -4.5713  -15.2135 O   0  0  0  0  0  0  0  0  0  0  0  0
  2  3  1  1
  2  1  1  0
  4  6  1  0
  4  2  1  0
  4  5  1  6
  6 10  1  0
  7  6  2  0
  9  8  1  1
  9 11  1  0
 10  9  1  0
 11 13  1  0
 11 12  2  0
 13 14  1  0
 14 15  1  6
 14 19  1  0
 16 17  1  0
 16 15  1  0
 17 21  1  0
 18 17  2  0
 19 20  1  0
 22 19  2  0
M  END
$$$$
