VAE.pdb
     RDKit          3D

 22 21  0  0  1  0  0  0  0  0999 V2000
   17.9704  -15.4547    3.0874 C   0  0  0  0  0  0  0  0  0  0  0  0
   17.1722  -14.2285    3.3930 C   0  0  2  0  0  0  0  0  0  0  0  0
   16.9290  -13.5128    2.0710 C   0  0  0  0  0  0  0  0  0  0  0  0
   17.8191  -13.3283    4.3884 C   0  0  2  0  0  0  0  0  0  0  0  0
   19.0941  -12.8343    3.8306 N   0  0  0  0  0  0  0  0  0  0  0  0
   18.1339  -13.9953    5.6448 C   0  0  0  0  0  0  0  0  0  0  0  0
   19.2718  -14.5266    5.8102 O   0  0  0  0  0  0  0  0  0  0  0  0
   16.9553  -14.0193    9.1301 C   0  0  0  0  0  0  0  0  0  0  0  0
   17.6249  -14.7128    7.9462 C   0  0  2  0  0  0  0  0  0  0  0  0
   17.1957  -14.0632    6.6991 N   0  0  0  0  0  0  0  0  0  0  0  0
   17.1645  -16.1109    7.9128 C   0  0  0  0  0  0  0  0  0  0  0  0
   16.2175  -16.4484    7.1734 O   0  0  0  0  0  0  0  0  0  0  0  0
   17.8041  -17.0676    8.7254 N   0  0  0  0  0  0  0  0  0  0  0  0
   17.3200  -18.4659    8.7023 C   0  0  1  0  0  0  0  0  0  0  0  0
   18.3533  -19.3494    8.0964 C   0  0  0  0  0  0  0  0  0  0  0  0
   17.9250  -20.7716    7.9768 C   0  0  0  0  0  0  0  0  0  0  0  0
   18.9941  -21.5823    7.3580 C   0  0  0  0  0  0  0  0  0  0  0  0
   20.0757  -21.0257    6.9896 O   0  0  0  0  0  0  0  0  0  0  0  0
   17.0029  -18.8081   10.1180 C   0  0  0  0  0  0  0  0  0  0  0  0
   16.1214  -19.8284   10.3725 O   0  0  0  0  0  0  0  0  0  0  0  0
   18.8062  -22.9378    7.1840 O   0  0  0  0  0  0  0  0  0  0  0  0
   17.5282  -18.1756   11.0811 O   0  0  0  0  0  0  0  0  0  0  0  0
  2  3  1  6
  2  1  1  0
  4  6  1  0
  4  2  1  0
  4  5  1  6
  6 10  1  0
  7  6  2  0
  9  8  1  1
  9 11  1  0
 10  9  1  0
 11 13  1  0
 11 12  2  0
 13 14  1  0
 14 15  1  1
 14 19  1  0
 16 17  1  0
 16 15  1  0
 17 21  1  0
 18 17  2  0
 19 20  1  0
 22 19  2  0
M  END
$$$$
