DRH.pdb
     RDKit          3D

 30 30  0  0  1  0  0  0  0  0999 V2000
   10.4689  -18.5507   19.3742 N   0  0  0  0  0  0  0  0  0  0  0  0
   11.6938  -17.9970   19.8970 C   0  0  1  0  0  0  0  0  0  0  0  0
   12.4442  -17.3424   18.7549 C   0  0  0  0  0  0  0  0  0  0  0  0
   13.8021  -17.0119   19.2576 C   0  0  0  0  0  0  0  0  0  0  0  0
   14.5194  -16.1973   18.6391 O   0  0  0  0  0  0  0  0  0  0  0  0
   11.3767  -17.0330   20.9841 C   0  0  0  0  0  0  0  0  0  0  0  0
   12.1901  -16.8797   21.9531 O   0  0  0  0  0  0  0  0  0  0  0  0
   14.2638  -17.6053   20.4033 O   0  0  0  0  0  0  0  0  0  0  0  0
    7.6688  -12.4497   17.8372 N   0  0  0  0  0  0  0  0  0  0  0  0
    7.5103  -13.7529   17.2655 C   0  0  0  0  0  0  0  0  0  0  0  0
    7.7912  -13.9845   16.0495 N   0  0  0  0  0  0  0  0  0  0  0  0
    7.0259  -14.8119   18.0839 N   0  0  0  0  0  0  0  0  0  0  0  0
    7.1677  -14.7256   19.5142 C   0  0  0  0  0  0  0  0  0  0  0  0
    8.5706  -14.2958   19.8987 C   0  0  0  0  0  0  0  0  0  0  0  0
    8.6792  -14.3687   21.3833 C   0  0  0  0  0  0  0  0  0  0  0  0
    9.6471  -15.4188   21.8952 C   0  0  2  0  0  0  0  0  0  0  0  0
   10.1752  -16.3030   20.9216 N   0  0  0  0  0  0  0  0  0  0  0  0
    9.0573  -16.0785   23.0635 C   0  0  0  0  0  0  0  0  0  0  0  0
    8.0855  -16.9147   22.9263 O   0  0  0  0  0  0  0  0  0  0  0  0
    7.7176  -14.9027   15.6024 N   0  0  0  0  0  0  0  0  0  0  0  0
    9.5089  -15.8428   24.3742 C   0  0  1  0  0  0  0  0  0  0  0  0
    9.7447  -16.9896   25.2757 C   0  0  0  0  0  0  0  0  0  0  0  0
   10.7835  -17.8502   24.6427 C   0  0  0  0  0  0  0  0  0  0  0  0
   11.1649  -19.0213   25.4228 C   0  0  0  0  0  0  0  0  0  0  0  0
   10.7527  -19.2896   26.7277 N   0  0  0  0  0  0  0  0  0  0  0  0
   11.2994  -20.4475   27.1142 C   0  0  0  0  0  0  0  0  0  0  0  0
   12.0406  -20.9295   26.1166 N   0  0  0  0  0  0  0  0  0  0  0  0
   11.9463  -20.0519   25.1018 C   0  0  0  0  0  0  0  0  0  0  0  0
   10.2694  -16.4240   26.5457 O   0  0  0  0  0  0  0  0  0  0  0  0
   10.5459  -17.2135   27.4913 O   0  0  0  0  0  0  0  0  0  0  0  0
  2  3  1  0
  2  1  1  6
  4  5  2  0
  4  3  1  0
  6  2  1  0
  7  6  2  0
  8  4  1  0
 10  9  1  0
 10 11  2  0
 12 10  1  0
 13 12  1  0
 13 14  1  0
 14 15  1  0
 16 15  1  6
 16 17  1  0
 17  6  1  0
 18 16  1  0
 18 19  2  0
 20 18  1  0
 21 20  1  0
 21 22  1  1
 23 22  1  0
 24 23  2  0
 25 24  1  0
 25 26  1  0
 26 27  2  0
 27 23  1  0
 28 21  1  0
 29 28  2  0
 30 28  1  0
M  END
$$$$
