DRH.pdb
     RDKit          3D

 30 30  0  0  1  0  0  0  0  0999 V2000
   12.3947  -14.8430   18.0702 N   0  0  0  0  0  0  0  0  0  0  0  0
   12.9919  -15.4814   19.2173 C   0  0  1  0  0  0  0  0  0  0  0  0
   14.1851  -14.6551   19.6528 C   0  0  0  0  0  0  0  0  0  0  0  0
   15.2416  -14.8390   18.6254 C   0  0  0  0  0  0  0  0  0  0  0  0
   15.4187  -15.9587   18.1006 O   0  0  0  0  0  0  0  0  0  0  0  0
   11.9765  -15.6107   20.2962 C   0  0  0  0  0  0  0  0  0  0  0  0
   11.4312  -14.5665   20.7825 O   0  0  0  0  0  0  0  0  0  0  0  0
   16.0209  -13.7740   18.2562 O   0  0  0  0  0  0  0  0  0  0  0  0
    8.7285  -23.2430   22.2615 N   0  0  0  0  0  0  0  0  0  0  0  0
    9.8722  -22.7207   22.9467 C   0  0  0  0  0  0  0  0  0  0  0  0
   10.7499  -23.4845   23.4541 N   0  0  0  0  0  0  0  0  0  0  0  0
   10.0250  -21.3100   23.0596 N   0  0  0  0  0  0  0  0  0  0  0  0
    8.9043  -20.4501   22.7809 C   0  0  0  0  0  0  0  0  0  0  0  0
    9.2906  -18.9894   22.9145 C   0  0  0  0  0  0  0  0  0  0  0  0
   10.1989  -18.6523   21.7820 C   0  0  0  0  0  0  0  0  0  0  0  0
   10.7140  -17.2253   21.7883 C   0  0  2  0  0  0  0  0  0  0  0  0
   11.6345  -16.8935   20.7630 N   0  0  0  0  0  0  0  0  0  0  0  0
   11.1606  -16.8881   23.1428 C   0  0  0  0  0  0  0  0  0  0  0  0
   12.3539  -17.1801   23.5341 O   0  0  0  0  0  0  0  0  0  0  0  0
   11.5817  -23.1591   23.9546 N   0  0  0  0  0  0  0  0  0  0  0  0
   10.3304  -16.2390   24.0739 C   0  0  2  0  0  0  0  0  0  0  0  0
   10.8411  -15.9688   25.4340 C   0  0  0  0  0  0  0  0  0  0  0  0
    9.9458  -14.9518   26.0542 C   0  0  0  0  0  0  0  0  0  0  0  0
   10.2343  -14.6554   27.4522 C   0  0  0  0  0  0  0  0  0  0  0  0
   11.2386  -15.2540   28.2124 N   0  0  0  0  0  0  0  0  0  0  0  0
   11.2042  -14.7330   29.4438 C   0  0  0  0  0  0  0  0  0  0  0  0
   10.2250  -13.8306   29.5038 N   0  0  0  0  0  0  0  0  0  0  0  0
    9.6498  -13.7982   28.2885 C   0  0  0  0  0  0  0  0  0  0  0  0
   10.7387  -17.2484   26.1824 O   0  0  0  0  0  0  0  0  0  0  0  0
    9.8024  -18.0449   25.8944 O   0  0  0  0  0  0  0  0  0  0  0  0
  2  3  1  0
  2  1  1  6
  4  5  2  0
  4  3  1  0
  6  2  1  0
  7  6  2  0
  8  4  1  0
 10  9  1  0
 10 11  2  0
 12 10  1  0
 13 12  1  0
 13 14  1  0
 14 15  1  0
 16 15  1  1
 16 17  1  0
 17  6  1  0
 18 16  1  0
 18 19  2  0
 20 18  1  0
 21 20  1  0
 21 22  1  6
 23 22  1  0
 24 23  2  0
 25 24  1  0
 25 26  1  0
 26 27  2  0
 27 23  1  0
 28 21  1  0
 29 28  2  0
 30 28  1  0
M  END
$$$$
