DRH.pdb
     RDKit          3D

 30 30  0  0  1  0  0  0  0  0999 V2000
    9.7358  -17.2056   14.4131 N   0  0  0  0  0  0  0  0  0  0  0  0
    8.9137  -16.1756   14.9993 C   0  0  1  0  0  0  0  0  0  0  0  0
    7.5947  -16.1397   14.2541 C   0  0  0  0  0  0  0  0  0  0  0  0
    7.8409  -15.4454   12.9645 C   0  0  0  0  0  0  0  0  0  0  0  0
    9.0080  -15.2959   12.5449 O   0  0  0  0  0  0  0  0  0  0  0  0
    8.7306  -16.4537   16.4487 C   0  0  0  0  0  0  0  0  0  0  0  0
    8.0474  -15.6528   17.1669 O   0  0  0  0  0  0  0  0  0  0  0  0
    6.7812  -14.9698   12.2375 O   0  0  0  0  0  0  0  0  0  0  0  0
    7.6228  -22.3907   16.2290 N   0  0  0  0  0  0  0  0  0  0  0  0
    8.9916  -22.7699   16.0475 C   0  0  0  0  0  0  0  0  0  0  0  0
    9.4050  -23.2666   14.9551 N   0  0  0  0  0  0  0  0  0  0  0  0
    9.9080  -22.5836   17.1207 N   0  0  0  0  0  0  0  0  0  0  0  0
    9.4901  -21.8604   18.2935 C   0  0  0  0  0  0  0  0  0  0  0  0
    8.9141  -20.5068   17.9237 C   0  0  0  0  0  0  0  0  0  0  0  0
    9.7273  -19.4625   18.6088 C   0  0  0  0  0  0  0  0  0  0  0  0
    9.2722  -18.0381   18.3523 C   0  0  2  0  0  0  0  0  0  0  0  0
    9.3199  -17.6049   17.0037 N   0  0  0  0  0  0  0  0  0  0  0  0
    9.9419  -17.1473   19.3040 C   0  0  0  0  0  0  0  0  0  0  0  0
   11.1280  -16.7015   19.0656 O   0  0  0  0  0  0  0  0  0  0  0  0
   10.3670  -23.5732   14.7852 N   0  0  0  0  0  0  0  0  0  0  0  0
    9.3411  -16.7353   20.5068 C   0  0  1  0  0  0  0  0  0  0  0  0
   10.0637  -15.7998   21.3935 C   0  0  0  0  0  0  0  0  0  0  0  0
    9.0765  -14.7988   21.8875 C   0  0  0  0  0  0  0  0  0  0  0  0
    8.5661  -13.8898   20.8683 C   0  0  0  0  0  0  0  0  0  0  0  0
    9.0079  -13.8308   19.5469 N   0  0  0  0  0  0  0  0  0  0  0  0
    8.3122  -12.8821   18.9104 C   0  0  0  0  0  0  0  0  0  0  0  0
    7.4479  -12.3340   19.7645 N   0  0  0  0  0  0  0  0  0  0  0  0
    7.6171  -12.9575   20.9441 C   0  0  0  0  0  0  0  0  0  0  0  0
   10.5697  -16.6080   22.5331 O   0  0  0  0  0  0  0  0  0  0  0  0
   11.2774  -16.0401   23.4109 O   0  0  0  0  0  0  0  0  0  0  0  0
  2  3  1  0
  2  1  1  6
  4  5  2  0
  4  3  1  0
  6  2  1  0
  7  6  2  0
  8  4  1  0
 10  9  1  0
 10 11  2  0
 12 10  1  0
 13 12  1  0
 13 14  1  0
 14 15  1  0
 16 15  1  6
 16 17  1  0
 17  6  1  0
 18 16  1  0
 18 19  2  0
 20 18  1  0
 21 20  1  0
 21 22  1  6
 23 22  1  0
 24 23  2  0
 25 24  1  0
 25 26  1  0
 26 27  2  0
 27 23  1  0
 28 21  1  0
 29 28  2  0
 30 28  1  0
M  END
$$$$
