DRH.pdb
     RDKit          3D

 30 30  0  0  1  0  0  0  0  0999 V2000
   14.8807  -18.0554   15.4824 N   0  0  0  0  0  0  0  0  0  0  0  0
   14.7123  -16.7171   14.9716 C   0  0  1  0  0  0  0  0  0  0  0  0
   13.5124  -16.7098   14.0462 C   0  0  0  0  0  0  0  0  0  0  0  0
   13.7527  -15.6550   13.0286 C   0  0  0  0  0  0  0  0  0  0  0  0
   14.9130  -15.2481   12.8082 O   0  0  0  0  0  0  0  0  0  0  0  0
   14.5494  -15.7708   16.1073 C   0  0  0  0  0  0  0  0  0  0  0  0
   15.4092  -14.8488   16.2929 O   0  0  0  0  0  0  0  0  0  0  0  0
   12.6948  -15.1306   12.3330 O   0  0  0  0  0  0  0  0  0  0  0  0
    7.1621  -13.0613   19.6110 N   0  0  0  0  0  0  0  0  0  0  0  0
    7.8537  -13.4082   18.4062 C   0  0  0  0  0  0  0  0  0  0  0  0
    7.2476  -13.5029   17.2950 N   0  0  0  0  0  0  0  0  0  0  0  0
    9.2551  -13.6518   18.4599 N   0  0  0  0  0  0  0  0  0  0  0  0
    9.8753  -13.9525   19.7240 C   0  0  0  0  0  0  0  0  0  0  0  0
   11.3811  -14.0644   19.5804 C   0  0  0  0  0  0  0  0  0  0  0  0
   11.6637  -14.9332   18.4028 C   0  0  0  0  0  0  0  0  0  0  0  0
   13.1377  -15.1563   18.1214 C   0  0  2  0  0  0  0  0  0  0  0  0
   13.4403  -15.9129   16.9618 N   0  0  0  0  0  0  0  0  0  0  0  0
   13.7884  -15.6293   19.3464 C   0  0  0  0  0  0  0  0  0  0  0  0
   13.8186  -16.8862   19.6324 O   0  0  0  0  0  0  0  0  0  0  0  0
    7.6928  -13.7719   16.4131 N   0  0  0  0  0  0  0  0  0  0  0  0
   14.4054  -14.7573   20.2609 C   0  0  2  0  0  0  0  0  0  0  0  0
   15.2895  -15.3125   21.3068 C   0  0  0  0  0  0  0  0  0  0  0  0
   16.3707  -14.3172   21.5532 C   0  0  0  0  0  0  0  0  0  0  0  0
   17.3720  -14.7318   22.5285 C   0  0  0  0  0  0  0  0  0  0  0  0
   17.4206  -15.9773   23.1538 N   0  0  0  0  0  0  0  0  0  0  0  0
   18.4723  -15.9949   23.9799 C   0  0  0  0  0  0  0  0  0  0  0  0
   19.0960  -14.8189   23.9104 N   0  0  0  0  0  0  0  0  0  0  0  0
   18.4147  -14.0682   23.0265 C   0  0  0  0  0  0  0  0  0  0  0  0
   14.4552  -15.4577   22.5278 O   0  0  0  0  0  0  0  0  0  0  0  0
   14.9960  -15.8939   23.5819 O   0  0  0  0  0  0  0  0  0  0  0  0
  2  3  1  0
  2  1  1  1
  4  5  2  0
  4  3  1  0
  6  2  1  0
  7  6  2  0
  8  4  1  0
 10  9  1  0
 10 11  2  0
 12 10  1  0
 13 12  1  0
 13 14  1  0
 14 15  1  0
 16 15  1  1
 16 17  1  0
 17  6  1  0
 18 16  1  0
 18 19  2  0
 20 18  1  0
 21 20  1  0
 21 22  1  6
 23 22  1  0
 24 23  2  0
 25 24  1  0
 25 26  1  0
 26 27  2  0
 27 23  1  0
 28 21  1  0
 29 28  2  0
 30 28  1  0
M  END
$$$$
