DRH.pdb
     RDKit          3D

 30 30  0  0  1  0  0  0  0  0999 V2000
    9.1134  -20.6572   23.1030 N   0  0  0  0  0  0  0  0  0  0  0  0
    9.0685  -20.0069   21.8164 C   0  0  1  0  0  0  0  0  0  0  0  0
    7.6457  -20.0751   21.2995 C   0  0  0  0  0  0  0  0  0  0  0  0
    6.8682  -20.8897   22.2679 C   0  0  0  0  0  0  0  0  0  0  0  0
    7.1828  -22.0794   22.4823 O   0  0  0  0  0  0  0  0  0  0  0  0
    9.5480  -18.6058   21.9531 C   0  0  0  0  0  0  0  0  0  0  0  0
   10.7987  -18.3617   21.9645 O   0  0  0  0  0  0  0  0  0  0  0  0
    5.8042  -20.3292   22.9247 O   0  0  0  0  0  0  0  0  0  0  0  0
    7.7764  -11.9537   17.9112 N   0  0  0  0  0  0  0  0  0  0  0  0
    8.4665  -13.1908   18.1205 C   0  0  0  0  0  0  0  0  0  0  0  0
    8.9901  -13.8315   17.1580 N   0  0  0  0  0  0  0  0  0  0  0  0
    8.5658  -13.7113   19.4416 N   0  0  0  0  0  0  0  0  0  0  0  0
    7.7875  -13.1190   20.4983 C   0  0  0  0  0  0  0  0  0  0  0  0
    8.0553  -13.8055   21.8241 C   0  0  0  0  0  0  0  0  0  0  0  0
    7.7764  -15.2591   21.6496 C   0  0  0  0  0  0  0  0  0  0  0  0
    8.8547  -16.1788   22.1909 C   0  0  2  0  0  0  0  0  0  0  0  0
    8.6041  -17.5683   22.0682 N   0  0  0  0  0  0  0  0  0  0  0  0
    9.2182  -15.7406   23.5413 C   0  0  0  0  0  0  0  0  0  0  0  0
    9.4589  -14.4980   23.7875 O   0  0  0  0  0  0  0  0  0  0  0  0
    9.4723  -14.7296   17.2540 N   0  0  0  0  0  0  0  0  0  0  0  0
    9.3223  -16.6318   24.6240 C   0  0  1  0  0  0  0  0  0  0  0  0
    9.4816  -16.0942   25.9913 C   0  0  0  0  0  0  0  0  0  0  0  0
    8.1265  -16.0309   26.6078 C   0  0  0  0  0  0  0  0  0  0  0  0
    7.4170  -14.7750   26.3958 C   0  0  0  0  0  0  0  0  0  0  0  0
    7.9532  -13.6387   25.7908 N   0  0  0  0  0  0  0  0  0  0  0  0
    7.0133  -12.6872   25.7703 C   0  0  0  0  0  0  0  0  0  0  0  0
    5.9035  -13.1641   26.3341 N   0  0  0  0  0  0  0  0  0  0  0  0
    6.1681  -14.4292   26.7061 C   0  0  0  0  0  0  0  0  0  0  0  0
   10.3226  -17.0709   26.7307 O   0  0  0  0  0  0  0  0  0  0  0  0
   10.7281  -18.1015   26.1246 O   0  0  0  0  0  0  0  0  0  0  0  0
  2  3  1  0
  2  1  1  1
  4  5  2  0
  4  3  1  0
  6  2  1  0
  7  6  2  0
  8  4  1  0
 10  9  1  0
 10 11  2  0
 12 10  1  0
 13 12  1  0
 13 14  1  0
 14 15  1  0
 16 15  1  1
 16 17  1  0
 17  6  1  0
 18 16  1  0
 18 19  2  0
 20 18  1  0
 21 20  1  0
 21 22  1  1
 23 22  1  0
 24 23  2  0
 25 24  1  0
 25 26  1  0
 26 27  2  0
 27 23  1  0
 28 21  1  0
 29 28  2  0
 30 28  1  0
M  END
$$$$
