DRH.pdb
     RDKit          3D

 30 30  0  0  1  0  0  0  0  0999 V2000
   10.4800  -15.8239   18.6259 N   0  0  0  0  0  0  0  0  0  0  0  0
   11.0370  -15.5799   19.9337 C   0  0  1  0  0  0  0  0  0  0  0  0
   11.7651  -14.2514   19.8992 C   0  0  0  0  0  0  0  0  0  0  0  0
   13.0249  -14.4639   19.1419 C   0  0  0  0  0  0  0  0  0  0  0  0
   13.4933  -15.6147   19.0131 O   0  0  0  0  0  0  0  0  0  0  0  0
    9.9478  -15.5953   20.9462 C   0  0  0  0  0  0  0  0  0  0  0  0
    8.8439  -15.0084   20.6994 O   0  0  0  0  0  0  0  0  0  0  0  0
   13.6705  -13.3909   18.5854 O   0  0  0  0  0  0  0  0  0  0  0  0
    6.2173  -22.9341   22.2099 N   0  0  0  0  0  0  0  0  0  0  0  0
    5.8962  -21.9769   23.2254 C   0  0  0  0  0  0  0  0  0  0  0  0
    4.6956  -21.7462   23.5664 N   0  0  0  0  0  0  0  0  0  0  0  0
    6.9521  -21.2690   23.8659 N   0  0  0  0  0  0  0  0  0  0  0  0
    7.9013  -20.5364   23.0688 C   0  0  0  0  0  0  0  0  0  0  0  0
    8.0020  -19.0943   23.5281 C   0  0  0  0  0  0  0  0  0  0  0  0
    9.0393  -18.4218   22.6956 C   0  0  0  0  0  0  0  0  0  0  0  0
    9.1988  -16.9369   22.9628 C   0  0  2  0  0  0  0  0  0  0  0  0
   10.1586  -16.2630   22.1670 N   0  0  0  0  0  0  0  0  0  0  0  0
    9.3462  -16.7275   24.4058 C   0  0  0  0  0  0  0  0  0  0  0  0
   10.4810  -16.9217   24.9864 O   0  0  0  0  0  0  0  0  0  0  0  0
    4.4162  -21.0686   24.2813 N   0  0  0  0  0  0  0  0  0  0  0  0
    8.2805  -16.3104   25.2229 C   0  0  2  0  0  0  0  0  0  0  0  0
    8.5416  -15.9762   26.6384 C   0  0  0  0  0  0  0  0  0  0  0  0
    7.3143  -15.3262   27.1784 C   0  0  0  0  0  0  0  0  0  0  0  0
    7.0961  -13.9588   26.7221 C   0  0  0  0  0  0  0  0  0  0  0  0
    7.9785  -13.2222   25.9325 N   0  0  0  0  0  0  0  0  0  0  0  0
    7.4443  -12.0155   25.7145 C   0  0  0  0  0  0  0  0  0  0  0  0
    6.2629  -11.9488   26.3282 N   0  0  0  0  0  0  0  0  0  0  0  0
    6.0702  -13.1348   26.9324 C   0  0  0  0  0  0  0  0  0  0  0  0
    8.7738  -17.2662   27.3382 O   0  0  0  0  0  0  0  0  0  0  0  0
    8.4767  -18.3395   26.7434 O   0  0  0  0  0  0  0  0  0  0  0  0
  2  3  1  0
  2  1  1  6
  4  5  2  0
  4  3  1  0
  6  2  1  0
  7  6  2  0
  8  4  1  0
 10  9  1  0
 10 11  2  0
 12 10  1  0
 13 12  1  0
 13 14  1  0
 14 15  1  0
 16 15  1  1
 16 17  1  0
 17  6  1  0
 18 16  1  0
 18 19  2  0
 20 18  1  0
 21 20  1  0
 21 22  1  6
 23 22  1  0
 24 23  2  0
 25 24  1  0
 25 26  1  0
 26 27  2  0
 27 23  1  0
 28 21  1  0
 29 28  2  0
 30 28  1  0
M  END
$$$$
