DRH.pdb
     RDKit          3D

 30 30  0  0  1  0  0  0  0  0999 V2000
    9.7847  -15.2747   15.1217 N   0  0  0  0  0  0  0  0  0  0  0  0
   10.2682  -14.5378   16.2634 C   0  0  1  0  0  0  0  0  0  0  0  0
    9.0822  -14.1864   17.1385 C   0  0  0  0  0  0  0  0  0  0  0  0
    8.1788  -13.3317   16.3267 C   0  0  0  0  0  0  0  0  0  0  0  0
    8.4519  -13.0866   15.1326 O   0  0  0  0  0  0  0  0  0  0  0  0
   11.2769  -15.3550   16.9889 C   0  0  0  0  0  0  0  0  0  0  0  0
   11.0410  -16.5833   17.2334 O   0  0  0  0  0  0  0  0  0  0  0  0
    7.0444  -12.8134   16.8944 O   0  0  0  0  0  0  0  0  0  0  0  0
   16.7353  -12.1210   14.4047 N   0  0  0  0  0  0  0  0  0  0  0  0
   17.2763  -12.0610   15.7291 C   0  0  0  0  0  0  0  0  0  0  0  0
   17.7936  -10.9969   16.1888 N   0  0  0  0  0  0  0  0  0  0  0  0
   17.2309  -13.2250   16.5471 N   0  0  0  0  0  0  0  0  0  0  0  0
   16.5718  -14.4091   16.0607 C   0  0  0  0  0  0  0  0  0  0  0  0
   15.0927  -14.3874   16.3962 C   0  0  0  0  0  0  0  0  0  0  0  0
   14.9347  -14.8809   17.7937 C   0  0  0  0  0  0  0  0  0  0  0  0
   13.5311  -15.3339   18.1489 C   0  0  2  0  0  0  0  0  0  0  0  0
   12.4818  -14.7517   17.3947 N   0  0  0  0  0  0  0  0  0  0  0  0
   13.3586  -15.2494   19.6018 C   0  0  0  0  0  0  0  0  0  0  0  0
   13.1700  -14.1110   20.1770 O   0  0  0  0  0  0  0  0  0  0  0  0
   18.1613  -10.8949   17.1389 N   0  0  0  0  0  0  0  0  0  0  0  0
   13.3874  -16.3821   20.4346 C   0  0  2  0  0  0  0  0  0  0  0  0
   13.1752  -16.2176   21.8878 C   0  0  0  0  0  0  0  0  0  0  0  0
   12.2222  -17.2770   22.3235 C   0  0  0  0  0  0  0  0  0  0  0  0
   11.9533  -17.3052   23.7561 C   0  0  0  0  0  0  0  0  0  0  0  0
   12.4599  -16.4008   24.6891 N   0  0  0  0  0  0  0  0  0  0  0  0
   11.9996  -16.7388   25.8986 C   0  0  0  0  0  0  0  0  0  0  0  0
   11.2236  -17.8162   25.7799 N   0  0  0  0  0  0  0  0  0  0  0  0
   11.2083  -18.1436   24.4756 C   0  0  0  0  0  0  0  0  0  0  0  0
   14.4960  -16.4370   22.5321 O   0  0  0  0  0  0  0  0  0  0  0  0
   15.4320  -16.9285   21.8419 O   0  0  0  0  0  0  0  0  0  0  0  0
  2  3  1  0
  2  1  1  6
  4  5  2  0
  4  3  1  0
  6  2  1  0
  7  6  2  0
  8  4  1  0
 10  9  1  0
 10 11  2  0
 12 10  1  0
 13 12  1  0
 13 14  1  0
 14 15  1  0
 16 15  1  1
 16 17  1  0
 17  6  1  0
 18 16  1  0
 18 19  2  0
 20 18  1  0
 21 20  1  0
 21 22  1  1
 23 22  1  0
 24 23  2  0
 25 24  1  0
 25 26  1  0
 26 27  2  0
 27 23  1  0
 28 21  1  0
 29 28  2  0
 30 28  1  0
M  END
$$$$
