DRH.pdb
     RDKit          3D

 30 30  0  0  1  0  0  0  0  0999 V2000
   16.7911  -14.4818   14.8836 N   0  0  0  0  0  0  0  0  0  0  0  0
   16.2280  -15.4629   15.7785 C   0  0  1  0  0  0  0  0  0  0  0  0
   17.3585  -16.3109   16.3252 C   0  0  0  0  0  0  0  0  0  0  0  0
   17.8161  -17.1925   15.2210 C   0  0  0  0  0  0  0  0  0  0  0  0
   17.0154  -17.5523   14.3322 O   0  0  0  0  0  0  0  0  0  0  0  0
   15.4733  -14.7724   16.8580 C   0  0  0  0  0  0  0  0  0  0  0  0
   16.0275  -13.8348   17.5195 O   0  0  0  0  0  0  0  0  0  0  0  0
   19.1210  -17.6089   15.1825 O   0  0  0  0  0  0  0  0  0  0  0  0
    6.4047  -14.3516   19.0972 N   0  0  0  0  0  0  0  0  0  0  0  0
    7.2910  -13.2364   18.9519 C   0  0  0  0  0  0  0  0  0  0  0  0
    6.8812  -12.1115   18.5304 N   0  0  0  0  0  0  0  0  0  0  0  0
    8.6645  -13.3973   19.2894 N   0  0  0  0  0  0  0  0  0  0  0  0
    9.5560  -14.0311   18.3531 C   0  0  0  0  0  0  0  0  0  0  0  0
   10.9536  -14.1561   18.9291 C   0  0  0  0  0  0  0  0  0  0  0  0
   11.8132  -14.8107   17.9024 C   0  0  0  0  0  0  0  0  0  0  0  0
   13.3034  -14.7083   18.1676 C   0  0  2  0  0  0  0  0  0  0  0  0
   14.1514  -15.1709   17.1304 N   0  0  0  0  0  0  0  0  0  0  0  0
   13.5903  -15.2735   19.4889 C   0  0  0  0  0  0  0  0  0  0  0  0
   13.5097  -16.5441   19.6928 O   0  0  0  0  0  0  0  0  0  0  0  0
    7.4763  -11.2878   18.4050 N   0  0  0  0  0  0  0  0  0  0  0  0
   13.9633  -14.4789   20.5875 C   0  0  1  0  0  0  0  0  0  0  0  0
   13.9060  -15.0523   21.9482 C   0  0  0  0  0  0  0  0  0  0  0  0
   13.1509  -16.3340   21.8622 C   0  0  0  0  0  0  0  0  0  0  0  0
   11.7313  -16.2290   22.1773 C   0  0  0  0  0  0  0  0  0  0  0  0
   11.0409  -15.0378   22.3986 N   0  0  0  0  0  0  0  0  0  0  0  0
    9.7622  -15.3321   22.6583 C   0  0  0  0  0  0  0  0  0  0  0  0
    9.6057  -16.6551   22.6128 N   0  0  0  0  0  0  0  0  0  0  0  0
   10.8090  -17.1800   22.3203 C   0  0  0  0  0  0  0  0  0  0  0  0
   15.3109  -15.3250   22.3480 O   0  0  0  0  0  0  0  0  0  0  0  0
   16.2222  -15.1955   21.4838 O   0  0  0  0  0  0  0  0  0  0  0  0
  2  3  1  0
  2  1  1  6
  4  5  2  0
  4  3  1  0
  6  2  1  0
  7  6  2  0
  8  4  1  0
 10  9  1  0
 10 11  2  0
 12 10  1  0
 13 12  1  0
 13 14  1  0
 14 15  1  0
 16 15  1  6
 16 17  1  0
 17  6  1  0
 18 16  1  0
 18 19  2  0
 20 18  1  0
 21 20  1  0
 21 22  1  1
 23 22  1  0
 24 23  2  0
 25 24  1  0
 25 26  1  0
 26 27  2  0
 27 23  1  0
 28 21  1  0
 29 28  2  0
 30 28  1  0
M  END
$$$$
