DRH.pdb
     RDKit          3D

 30 30  0  0  1  0  0  0  0  0999 V2000
   13.5071  -14.8824   19.5919 N   0  0  0  0  0  0  0  0  0  0  0  0
   13.2707  -15.9707   20.5084 C   0  0  1  0  0  0  0  0  0  0  0  0
   14.6123  -16.4948   20.9792 C   0  0  0  0  0  0  0  0  0  0  0  0
   15.2425  -17.1817   19.8230 C   0  0  0  0  0  0  0  0  0  0  0  0
   15.9355  -16.5345   19.0099 O   0  0  0  0  0  0  0  0  0  0  0  0
   12.4287  -15.4929   21.6373 C   0  0  0  0  0  0  0  0  0  0  0  0
   12.9684  -14.8818   22.6168 O   0  0  0  0  0  0  0  0  0  0  0  0
   15.0596  -18.5292   19.6532 O   0  0  0  0  0  0  0  0  0  0  0  0
    7.8916  -14.7742   17.5919 N   0  0  0  0  0  0  0  0  0  0  0  0
    7.8564  -13.5919   18.3991 C   0  0  0  0  0  0  0  0  0  0  0  0
    8.2119  -12.4629   17.9409 N   0  0  0  0  0  0  0  0  0  0  0  0
    7.4111  -13.6893   19.7475 N   0  0  0  0  0  0  0  0  0  0  0  0
    6.9674  -14.9602   20.2586 C   0  0  0  0  0  0  0  0  0  0  0  0
    8.0963  -15.6904   20.9608 C   0  0  0  0  0  0  0  0  0  0  0  0
    8.7813  -14.7167   21.8574 C   0  0  0  0  0  0  0  0  0  0  0  0
   10.0570  -15.2341   22.4950 C   0  0  2  0  0  0  0  0  0  0  0  0
   11.0414  -15.7265   21.6021 N   0  0  0  0  0  0  0  0  0  0  0  0
    9.7057  -16.1511   23.5829 C   0  0  0  0  0  0  0  0  0  0  0  0
    9.9621  -17.4113   23.4901 O   0  0  0  0  0  0  0  0  0  0  0  0
    8.2126  -11.5927   18.4804 N   0  0  0  0  0  0  0  0  0  0  0  0
    9.0823  -15.7177   24.7665 C   0  0  2  0  0  0  0  0  0  0  0  0
    8.7273  -16.7098   25.8027 C   0  0  0  0  0  0  0  0  0  0  0  0
    8.3034  -15.9567   27.0165 C   0  0  0  0  0  0  0  0  0  0  0  0
    9.3854  -15.2893   27.7303 C   0  0  0  0  0  0  0  0  0  0  0  0
    9.5738  -13.9094   27.8007 N   0  0  0  0  0  0  0  0  0  0  0  0
   10.6630  -13.6684   28.5387 C   0  0  0  0  0  0  0  0  0  0  0  0
   11.1774  -14.8303   28.9417 N   0  0  0  0  0  0  0  0  0  0  0  0
   10.3898  -15.7993   28.4421 C   0  0  0  0  0  0  0  0  0  0  0  0
    7.5773  -17.4831   25.2666 O   0  0  0  0  0  0  0  0  0  0  0  0
    7.0708  -17.1296   24.1655 O   0  0  0  0  0  0  0  0  0  0  0  0
  2  3  1  0
  2  1  1  6
  4  5  2  0
  4  3  1  0
  6  2  1  0
  7  6  2  0
  8  4  1  0
 10  9  1  0
 10 11  2  0
 12 10  1  0
 13 12  1  0
 13 14  1  0
 14 15  1  0
 16 15  1  6
 16 17  1  0
 17  6  1  0
 18 16  1  0
 18 19  2  0
 20 18  1  0
 21 20  1  0
 21 22  1  6
 23 22  1  0
 24 23  2  0
 25 24  1  0
 25 26  1  0
 26 27  2  0
 27 23  1  0
 28 21  1  0
 29 28  2  0
 30 28  1  0
M  END
$$$$
