DRH.pdb
     RDKit          3D

 30 30  0  0  1  0  0  0  0  0999 V2000
   15.2781  -13.9478   15.7561 N   0  0  0  0  0  0  0  0  0  0  0  0
   14.9200  -15.0447   16.6215 C   0  0  1  0  0  0  0  0  0  0  0  0
   16.1859  -15.7921   16.9890 C   0  0  0  0  0  0  0  0  0  0  0  0
   16.6998  -16.4183   15.7442 C   0  0  0  0  0  0  0  0  0  0  0  0
   17.9291  -16.5623   15.5753 O   0  0  0  0  0  0  0  0  0  0  0  0
   14.2122  -14.5193   17.8192 C   0  0  0  0  0  0  0  0  0  0  0  0
   14.7106  -13.5468   18.4748 O   0  0  0  0  0  0  0  0  0  0  0  0
   15.8184  -16.8373   14.7823 O   0  0  0  0  0  0  0  0  0  0  0  0
    6.0423  -13.2443   18.5010 N   0  0  0  0  0  0  0  0  0  0  0  0
    7.2109  -13.4445   17.6981 C   0  0  0  0  0  0  0  0  0  0  0  0
    7.1700  -13.3638   16.4320 N   0  0  0  0  0  0  0  0  0  0  0  0
    8.4468  -13.7410   18.3391 N   0  0  0  0  0  0  0  0  0  0  0  0
    8.4696  -13.9865   19.7577 C   0  0  0  0  0  0  0  0  0  0  0  0
    9.8770  -14.2870   20.2370 C   0  0  0  0  0  0  0  0  0  0  0  0
   10.7015  -14.6311   19.0441 C   0  0  0  0  0  0  0  0  0  0  0  0
   12.1861  -14.7734   19.3219 C   0  0  2  0  0  0  0  0  0  0  0  0
   12.9960  -15.1107   18.2088 N   0  0  0  0  0  0  0  0  0  0  0  0
   12.3692  -15.6343   20.4937 C   0  0  0  0  0  0  0  0  0  0  0  0
   12.0462  -16.8818   20.4508 O   0  0  0  0  0  0  0  0  0  0  0  0
    7.9619  -13.5589   15.8130 N   0  0  0  0  0  0  0  0  0  0  0  0
   12.8979  -15.1590   21.7070 C   0  0  1  0  0  0  0  0  0  0  0  0
   13.1003  -16.1015   22.8270 C   0  0  0  0  0  0  0  0  0  0  0  0
   14.1728  -15.5402   23.6959 C   0  0  0  0  0  0  0  0  0  0  0  0
   15.5164  -15.6176   23.1351 C   0  0  0  0  0  0  0  0  0  0  0  0
   15.8482  -16.2087   21.9164 N   0  0  0  0  0  0  0  0  0  0  0  0
   17.1677  -16.0888   21.7337 C   0  0  0  0  0  0  0  0  0  0  0  0
   17.6922  -15.4489   22.7789 N   0  0  0  0  0  0  0  0  0  0  0  0
   16.6766  -15.1722   23.6160 C   0  0  0  0  0  0  0  0  0  0  0  0
   11.8186  -16.1427   23.5775 O   0  0  0  0  0  0  0  0  0  0  0  0
   11.7735  -16.7849   24.6636 O   0  0  0  0  0  0  0  0  0  0  0  0
  2  3  1  0
  2  1  1  6
  4  5  2  0
  4  3  1  0
  6  2  1  0
  7  6  2  0
  8  4  1  0
 10  9  1  0
 10 11  2  0
 12 10  1  0
 13 12  1  0
 13 14  1  0
 14 15  1  0
 16 15  1  6
 16 17  1  0
 17  6  1  0
 18 16  1  0
 18 19  2  0
 20 18  1  0
 21 20  1  0
 21 22  1  6
 23 22  1  0
 24 23  2  0
 25 24  1  0
 25 26  1  0
 26 27  2  0
 27 23  1  0
 28 21  1  0
 29 28  2  0
 30 28  1  0
M  END
$$$$
