DRH.pdb
     RDKit          3D

 30 30  0  0  1  0  0  0  0  0999 V2000
    9.8861  -14.8663   18.2822 N   0  0  0  0  0  0  0  0  0  0  0  0
    8.7493  -14.2233   18.8943 C   0  0  1  0  0  0  0  0  0  0  0  0
    7.5925  -14.2733   17.9167 C   0  0  0  0  0  0  0  0  0  0  0  0
    8.1177  -13.8404   16.5967 C   0  0  0  0  0  0  0  0  0  0  0  0
    9.2713  -14.1643   16.2433 O   0  0  0  0  0  0  0  0  0  0  0  0
    8.4279  -14.9030   20.1774 C   0  0  0  0  0  0  0  0  0  0  0  0
    7.4571  -14.4863   20.8901 O   0  0  0  0  0  0  0  0  0  0  0  0
    7.3302  -13.0841   15.7686 O   0  0  0  0  0  0  0  0  0  0  0  0
   11.1679  -22.1190   19.4836 N   0  0  0  0  0  0  0  0  0  0  0  0
   11.7744  -21.0787   18.7087 C   0  0  0  0  0  0  0  0  0  0  0  0
   12.8456  -21.2735   18.0564 N   0  0  0  0  0  0  0  0  0  0  0  0
   11.1579  -19.7962   18.6717 N   0  0  0  0  0  0  0  0  0  0  0  0
   10.0954  -19.4925   19.5947 C   0  0  0  0  0  0  0  0  0  0  0  0
   10.5609  -18.5210   20.6625 C   0  0  0  0  0  0  0  0  0  0  0  0
    9.4154  -18.2713   21.5827 C   0  0  0  0  0  0  0  0  0  0  0  0
    9.0326  -16.8110   21.7334 C   0  0  2  0  0  0  0  0  0  0  0  0
    9.2079  -16.0019   20.5830 N   0  0  0  0  0  0  0  0  0  0  0  0
    9.6506  -16.2818   22.9523 C   0  0  0  0  0  0  0  0  0  0  0  0
   10.9127  -16.0208   22.9904 O   0  0  0  0  0  0  0  0  0  0  0  0
   13.3642  -20.5420   17.5620 N   0  0  0  0  0  0  0  0  0  0  0  0
    8.9172  -16.0326   24.1260 C   0  0  2  0  0  0  0  0  0  0  0  0
    9.6038  -15.4530   25.2992 C   0  0  0  0  0  0  0  0  0  0  0  0
    8.5532  -14.9725   26.2402 C   0  0  0  0  0  0  0  0  0  0  0  0
    9.0542  -14.4976   27.5244 C   0  0  0  0  0  0  0  0  0  0  0  0
   10.3952  -14.4700   27.9059 N   0  0  0  0  0  0  0  0  0  0  0  0
   10.4722  -13.9721   29.1449 C   0  0  0  0  0  0  0  0  0  0  0  0
    9.2429  -13.6813   29.5707 N   0  0  0  0  0  0  0  0  0  0  0  0
    8.3987  -14.0065   28.5755 C   0  0  0  0  0  0  0  0  0  0  0  0
   10.3692  -16.5610   25.9271 O   0  0  0  0  0  0  0  0  0  0  0  0
    9.8642  -17.7181   25.9332 O   0  0  0  0  0  0  0  0  0  0  0  0
  2  3  1  0
  2  1  1  6
  4  5  2  0
  4  3  1  0
  6  2  1  0
  7  6  2  0
  8  4  1  0
 10  9  1  0
 10 11  2  0
 12 10  1  0
 13 12  1  0
 13 14  1  0
 14 15  1  0
 16 15  1  6
 16 17  1  0
 17  6  1  0
 18 16  1  0
 18 19  2  0
 20 18  1  0
 21 20  1  0
 21 22  1  1
 23 22  1  0
 24 23  2  0
 25 24  1  0
 25 26  1  0
 26 27  2  0
 27 23  1  0
 28 21  1  0
 29 28  2  0
 30 28  1  0
M  END
$$$$
