DRH.pdb
     RDKit          3D

 30 30  0  0  1  0  0  0  0  0999 V2000
    6.7651  -17.2751   17.9175 N   0  0  0  0  0  0  0  0  0  0  0  0
    7.9592  -17.7844   17.2891 C   0  0  1  0  0  0  0  0  0  0  0  0
    8.1593  -17.0458   15.9812 C   0  0  0  0  0  0  0  0  0  0  0  0
    9.3499  -17.6405   15.3219 C   0  0  0  0  0  0  0  0  0  0  0  0
    9.5559  -18.8707   15.3897 O   0  0  0  0  0  0  0  0  0  0  0  0
    9.1142  -17.6146   18.2104 C   0  0  0  0  0  0  0  0  0  0  0  0
    9.9664  -18.5534   18.3390 O   0  0  0  0  0  0  0  0  0  0  0  0
   10.2209  -16.8326   14.6390 O   0  0  0  0  0  0  0  0  0  0  0  0
   15.7428  -14.0532   17.9222 N   0  0  0  0  0  0  0  0  0  0  0  0
   15.6573  -13.7483   19.3187 C   0  0  0  0  0  0  0  0  0  0  0  0
   16.6927  -13.5016   20.0103 N   0  0  0  0  0  0  0  0  0  0  0  0
   14.3784  -13.7223   19.9429 N   0  0  0  0  0  0  0  0  0  0  0  0
   13.4904  -14.8452   19.7892 C   0  0  0  0  0  0  0  0  0  0  0  0
   12.1930  -14.6225   20.5427 C   0  0  0  0  0  0  0  0  0  0  0  0
   11.0682  -14.8533   19.5925 C   0  0  0  0  0  0  0  0  0  0  0  0
   10.2288  -16.0807   19.8933 C   0  0  2  0  0  0  0  0  0  0  0  0
    9.2449  -16.4112   18.9282 N   0  0  0  0  0  0  0  0  0  0  0  0
    9.7293  -15.9886   21.2680 C   0  0  0  0  0  0  0  0  0  0  0  0
    9.5273  -14.8407   21.8194 O   0  0  0  0  0  0  0  0  0  0  0  0
   16.6931  -13.3672   21.0253 N   0  0  0  0  0  0  0  0  0  0  0  0
    9.4464  -17.1238   22.0483 C   0  0  2  0  0  0  0  0  0  0  0  0
   10.4688  -17.6294   22.9878 C   0  0  0  0  0  0  0  0  0  0  0  0
   11.7559  -17.7198   22.2424 C   0  0  0  0  0  0  0  0  0  0  0  0
   12.8508  -18.3312   22.9859 C   0  0  0  0  0  0  0  0  0  0  0  0
   12.7265  -18.9860   24.2108 N   0  0  0  0  0  0  0  0  0  0  0  0
   13.9365  -19.4156   24.5854 C   0  0  0  0  0  0  0  0  0  0  0  0
   14.8259  -19.0651   23.6565 N   0  0  0  0  0  0  0  0  0  0  0  0
   14.1492  -18.4098   22.6966 C   0  0  0  0  0  0  0  0  0  0  0  0
   10.5856  -16.6144   24.0667 O   0  0  0  0  0  0  0  0  0  0  0  0
   11.3417  -16.8583   25.0479 O   0  0  0  0  0  0  0  0  0  0  0  0
  2  3  1  0
  2  1  1  1
  4  5  2  0
  4  3  1  0
  6  2  1  0
  7  6  2  0
  8  4  1  0
 10  9  1  0
 10 11  2  0
 12 10  1  0
 13 12  1  0
 13 14  1  0
 14 15  1  0
 16 15  1  6
 16 17  1  0
 17  6  1  0
 18 16  1  0
 18 19  2  0
 20 18  1  0
 21 20  1  0
 21 22  1  6
 23 22  1  0
 24 23  2  0
 25 24  1  0
 25 26  1  0
 26 27  2  0
 27 23  1  0
 28 21  1  0
 29 28  2  0
 30 28  1  0
M  END
$$$$
