DRH.pdb
     RDKit          3D

 30 30  0  0  1  0  0  0  0  0999 V2000
   11.6159  -17.5801   18.7056 N   0  0  0  0  0  0  0  0  0  0  0  0
   12.7236  -17.1152   19.5039 C   0  0  1  0  0  0  0  0  0  0  0  0
   13.4712  -16.0623   18.7111 C   0  0  0  0  0  0  0  0  0  0  0  0
   14.2325  -16.7725   17.6519 C   0  0  0  0  0  0  0  0  0  0  0  0
   13.9991  -17.9758   17.4108 O   0  0  0  0  0  0  0  0  0  0  0  0
   12.2139  -16.5856   20.7968 C   0  0  0  0  0  0  0  0  0  0  0  0
   13.0278  -16.3363   21.7451 O   0  0  0  0  0  0  0  0  0  0  0  0
   15.1923  -16.1009   16.9409 O   0  0  0  0  0  0  0  0  0  0  0  0
    9.4063  -12.2842   18.5914 N   0  0  0  0  0  0  0  0  0  0  0  0
    8.0473  -12.7214   18.4803 C   0  0  0  0  0  0  0  0  0  0  0  0
    7.5360  -13.0258   17.3592 N   0  0  0  0  0  0  0  0  0  0  0  0
    7.2537  -12.8157   19.6582 N   0  0  0  0  0  0  0  0  0  0  0  0
    7.3529  -13.9874   20.4891 C   0  0  0  0  0  0  0  0  0  0  0  0
    8.7573  -14.1494   21.0388 C   0  0  0  0  0  0  0  0  0  0  0  0
    8.7696  -15.3592   21.9093 C   0  0  0  0  0  0  0  0  0  0  0  0
   10.1416  -15.9708   22.1216 C   0  0  2  0  0  0  0  0  0  0  0  0
   10.8319  -16.3683   20.9493 N   0  0  0  0  0  0  0  0  0  0  0  0
   10.0449  -17.0063   23.1542 C   0  0  0  0  0  0  0  0  0  0  0  0
    9.6719  -18.2032   22.8532 O   0  0  0  0  0  0  0  0  0  0  0  0
    6.5620  -13.3117   17.2249 N   0  0  0  0  0  0  0  0  0  0  0  0
   10.3483  -16.7590   24.5049 C   0  0  1  0  0  0  0  0  0  0  0  0
   10.8730  -17.8580   25.3418 C   0  0  0  0  0  0  0  0  0  0  0  0
   12.3504  -17.8983   25.1525 C   0  0  0  0  0  0  0  0  0  0  0  0
   13.0412  -18.9048   25.9497 C   0  0  0  0  0  0  0  0  0  0  0  0
   12.6349  -19.3570   27.2048 N   0  0  0  0  0  0  0  0  0  0  0  0
   13.5096  -20.2768   27.6264 C   0  0  0  0  0  0  0  0  0  0  0  0
   14.4543  -20.4317   26.6988 N   0  0  0  0  0  0  0  0  0  0  0  0
   14.1530  -19.5926   25.6918 C   0  0  0  0  0  0  0  0  0  0  0  0
   10.5584  -17.5004   26.7494 O   0  0  0  0  0  0  0  0  0  0  0  0
   10.7043  -18.3790   27.6442 O   0  0  0  0  0  0  0  0  0  0  0  0
  2  3  1  0
  2  1  1  6
  4  5  2  0
  4  3  1  0
  6  2  1  0
  7  6  2  0
  8  4  1  0
 10  9  1  0
 10 11  2  0
 12 10  1  0
 13 12  1  0
 13 14  1  0
 14 15  1  0
 16 15  1  6
 16 17  1  0
 17  6  1  0
 18 16  1  0
 18 19  2  0
 20 18  1  0
 21 20  1  0
 21 22  1  6
 23 22  1  0
 24 23  2  0
 25 24  1  0
 25 26  1  0
 26 27  2  0
 27 23  1  0
 28 21  1  0
 29 28  2  0
 30 28  1  0
M  END
$$$$
