DRH.pdb
     RDKit          3D

 30 30  0  0  1  0  0  0  0  0999 V2000
   11.0545  -18.6863   20.7054 N   0  0  0  0  0  0  0  0  0  0  0  0
   12.1349  -17.7831   21.0172 C   0  0  1  0  0  0  0  0  0  0  0  0
   12.7937  -17.3646   19.7184 C   0  0  0  0  0  0  0  0  0  0  0  0
   13.6645  -18.4884   19.2888 C   0  0  0  0  0  0  0  0  0  0  0  0
   14.0029  -19.3688   20.1079 O   0  0  0  0  0  0  0  0  0  0  0  0
   11.6038  -16.6196   21.7760 C   0  0  0  0  0  0  0  0  0  0  0  0
   12.3930  -15.6901   22.1463 O   0  0  0  0  0  0  0  0  0  0  0  0
   14.0945  -18.5544   17.9894 O   0  0  0  0  0  0  0  0  0  0  0  0
    8.3892  -11.9226   19.1929 N   0  0  0  0  0  0  0  0  0  0  0  0
    7.9426  -13.0024   18.3652 C   0  0  0  0  0  0  0  0  0  0  0  0
    8.3580  -13.1434   17.1742 N   0  0  0  0  0  0  0  0  0  0  0  0
    7.0101  -13.9385   18.8948 N   0  0  0  0  0  0  0  0  0  0  0  0
    7.0021  -14.2100   20.3088 C   0  0  0  0  0  0  0  0  0  0  0  0
    8.3849  -14.5952   20.7986 C   0  0  0  0  0  0  0  0  0  0  0  0
    8.2570  -15.0555   22.2103 C   0  0  0  0  0  0  0  0  0  0  0  0
    9.5421  -15.5799   22.8228 C   0  0  2  0  0  0  0  0  0  0  0  0
   10.2292  -16.5670   22.0730 N   0  0  0  0  0  0  0  0  0  0  0  0
    9.2889  -15.9408   24.2205 C   0  0  0  0  0  0  0  0  0  0  0  0
    8.5231  -16.9355   24.5149 O   0  0  0  0  0  0  0  0  0  0  0  0
    8.1042  -13.9226   16.5603 N   0  0  0  0  0  0  0  0  0  0  0  0
    9.8557  -15.2380   25.2985 C   0  0  2  0  0  0  0  0  0  0  0  0
    9.3993  -15.5302   26.6732 C   0  0  0  0  0  0  0  0  0  0  0  0
    7.9093  -15.5336   26.6587 C   0  0  0  0  0  0  0  0  0  0  0  0
    7.2959  -14.2123   26.5989 C   0  0  0  0  0  0  0  0  0  0  0  0
    7.9871  -13.0013   26.6203 N   0  0  0  0  0  0  0  0  0  0  0  0
    7.0972  -12.0053   26.5483 C   0  0  0  0  0  0  0  0  0  0  0  0
    5.8715  -12.5251   26.4821 N   0  0  0  0  0  0  0  0  0  0  0  0
    6.0130  -13.8622   26.5141 C   0  0  0  0  0  0  0  0  0  0  0  0
    9.8996  -16.8904   27.0012 O   0  0  0  0  0  0  0  0  0  0  0  0
    9.7436  -17.3258   28.1759 O   0  0  0  0  0  0  0  0  0  0  0  0
  2  3  1  0
  2  1  1  6
  4  5  2  0
  4  3  1  0
  6  2  1  0
  7  6  2  0
  8  4  1  0
 10  9  1  0
 10 11  2  0
 12 10  1  0
 13 12  1  0
 13 14  1  0
 14 15  1  0
 16 15  1  6
 16 17  1  0
 17  6  1  0
 18 16  1  0
 18 19  2  0
 20 18  1  0
 21 20  1  0
 21 22  1  1
 23 22  1  0
 24 23  2  0
 25 24  1  0
 25 26  1  0
 26 27  2  0
 27 23  1  0
 28 21  1  0
 29 28  2  0
 30 28  1  0
M  END
$$$$
