FRC.pdb
     RDKit          3D

 29 29  0  0  1  0  0  0  0  0999 V2000
    6.1620  -18.1694   26.1562 N   0  0  0  0  0  0  0  0  0  0  0  0
    6.3052  -16.7515   25.9002 C   0  0  1  0  0  0  0  0  0  0  0  0
    6.8875  -16.1272   27.1462 C   0  0  0  0  0  0  0  0  0  0  0  0
    6.9545  -14.6539   26.9450 C   0  0  0  0  0  0  0  0  0  0  0  0
    8.1682  -13.9850   26.9565 C   0  0  0  0  0  0  0  0  0  0  0  0
    8.2208  -12.6200   26.7692 C   0  0  0  0  0  0  0  0  0  0  0  0
    7.0651  -11.8991   26.5674 C   0  0  0  0  0  0  0  0  0  0  0  0
    5.8529  -12.5381   26.5518 C   0  0  0  0  0  0  0  0  0  0  0  0
    5.8043  -13.9094   26.7403 C   0  0  0  0  0  0  0  0  0  0  0  0
    7.1336  -16.5564   24.7128 C   0  0  0  0  0  0  0  0  0  0  0  0
    8.1244  -17.3106   24.5173 O   0  0  0  0  0  0  0  0  0  0  0  0
    9.3661  -14.4981   16.0740 N   0  0  0  0  0  0  0  0  0  0  0  0
    8.6535  -13.9122   17.1554 C   0  0  0  0  0  0  0  0  0  0  0  0
    8.7904  -12.6434   17.3865 N   0  0  0  0  0  0  0  0  0  0  0  0
    7.7939  -14.6319   18.0067 N   0  0  0  0  0  0  0  0  0  0  0  0
    7.2840  -14.0452   19.2061 C   0  0  0  0  0  0  0  0  0  0  0  0
    8.1874  -14.2721   20.3998 C   0  0  0  0  0  0  0  0  0  0  0  0
    7.3097  -14.3638   21.6161 C   0  0  0  0  0  0  0  0  0  0  0  0
    7.7536  -15.4367   22.5859 C   0  0  2  0  0  0  0  0  0  0  0  0
    6.9037  -15.5536   23.7319 N   0  0  0  0  0  0  0  0  0  0  0  0
    9.1859  -15.2017   22.9785 C   0  0  0  0  0  0  0  0  0  0  0  0
    9.5234  -14.1145   23.4840 O   0  0  0  0  0  0  0  0  0  0  0  0
    8.3146  -12.1474   18.1558 N   0  0  0  0  0  0  0  0  0  0  0  0
   10.1573  -16.2125   22.7765 C   0  0  1  0  0  0  0  0  0  0  0  0
   11.5726  -16.0429   22.9914 C   0  0  0  0  0  0  0  0  0  0  0  0
   12.1365  -17.0366   23.9614 S   0  0  0  0  0  0  0  0  0  0  0  0
   11.2374  -17.1228   25.5043 C   0  0  0  0  0  0  0  0  0  0  0  0
   12.3550  -16.0234   21.7107 O   0  0  0  0  0  0  0  0  0  0  0  0
   13.6940  -15.7319   21.6159 O   0  0  0  0  0  0  0  0  0  0  0  0
  2  3  1  0
  2  1  1  1
  3  4  1  0
  4  9  2  0
  5  4  1  0
  5  6  2  0
  6  7  1  0
  7  8  2  0
  9  8  1  0
 10 20  1  0
 10  2  1  0
 11 10  2  0
 13 12  1  0
 14 13  2  0
 15 13  1  0
 16 15  1  0
 17 18  1  0
 17 16  1  0
 19 18  1  6
 19 20  1  0
 21 19  1  0
 21 22  2  0
 23 24  1  0
 23 21  1  0
 24 25  1  6
 26 25  1  0
 27 24  1  0
 28 27  1  0
 29 27  2  0
M  END
$$$$
