FRC.pdb
     RDKit          3D

 29 29  0  0  1  0  0  0  0  0999 V2000
    6.0386  -16.3571   26.0976 N   0  0  0  0  0  0  0  0  0  0  0  0
    6.3656  -16.3684   24.6872 C   0  0  1  0  0  0  0  0  0  0  0  0
    5.9597  -15.0279   24.1219 C   0  0  0  0  0  0  0  0  0  0  0  0
    6.2711  -13.9796   25.1318 C   0  0  0  0  0  0  0  0  0  0  0  0
    5.7047  -14.0137   26.3961 C   0  0  0  0  0  0  0  0  0  0  0  0
    5.9989  -13.0383   27.3252 C   0  0  0  0  0  0  0  0  0  0  0  0
    6.8623  -12.0132   27.0099 C   0  0  0  0  0  0  0  0  0  0  0  0
    7.4351  -11.9578   25.7662 C   0  0  0  0  0  0  0  0  0  0  0  0
    7.1370  -12.9394   24.8357 C   0  0  0  0  0  0  0  0  0  0  0  0
    7.7878  -16.6599   24.5234 C   0  0  0  0  0  0  0  0  0  0  0  0
    8.3187  -17.5675   25.2184 O   0  0  0  0  0  0  0  0  0  0  0  0
    8.9250  -12.8017   19.4825 N   0  0  0  0  0  0  0  0  0  0  0  0
    8.8490  -13.8282   18.5023 C   0  0  0  0  0  0  0  0  0  0  0  0
    8.1750  -13.6129   17.4154 N   0  0  0  0  0  0  0  0  0  0  0  0
    9.4683  -15.0851   18.6368 N   0  0  0  0  0  0  0  0  0  0  0  0
   10.3309  -15.3670   19.7411 C   0  0  0  0  0  0  0  0  0  0  0  0
    9.5875  -15.4601   21.0569 C   0  0  0  0  0  0  0  0  0  0  0  0
   10.5885  -15.8365   22.1125 C   0  0  0  0  0  0  0  0  0  0  0  0
    9.9545  -16.4812   23.3253 C   0  0  2  0  0  0  0  0  0  0  0  0
    8.6450  -15.9806   23.6154 N   0  0  0  0  0  0  0  0  0  0  0  0
   10.8742  -16.3481   24.5074 C   0  0  0  0  0  0  0  0  0  0  0  0
   12.0764  -16.6556   24.3996 O   0  0  0  0  0  0  0  0  0  0  0  0
    8.0696  -14.3081   16.6605 N   0  0  0  0  0  0  0  0  0  0  0  0
   10.3804  -15.8735   25.7472 C   0  0  1  0  0  0  0  0  0  0  0  0
   11.1313  -15.8623   26.9775 C   0  0  0  0  0  0  0  0  0  0  0  0
   10.5294  -14.9667   28.0178 S   0  0  0  0  0  0  0  0  0  0  0  0
   10.0844  -13.3487   27.4009 C   0  0  0  0  0  0  0  0  0  0  0  0
   11.3782  -17.2404   27.5184 O   0  0  0  0  0  0  0  0  0  0  0  0
   12.1040  -17.5183   28.6511 O   0  0  0  0  0  0  0  0  0  0  0  0
  2  3  1  0
  2  1  1  1
  3  4  1  0
  4  9  2  0
  5  4  1  0
  5  6  2  0
  6  7  1  0
  7  8  2  0
  9  8  1  0
 10 20  1  0
 10  2  1  0
 11 10  2  0
 13 12  1  0
 14 13  2  0
 15 13  1  0
 16 15  1  0
 17 18  1  0
 17 16  1  0
 19 18  1  6
 19 20  1  0
 21 19  1  0
 21 22  2  0
 23 24  1  0
 23 21  1  0
 24 25  1  6
 26 25  1  0
 27 24  1  0
 28 27  1  0
 29 27  2  0
M  END
$$$$
