FRC.pdb
     RDKit          3D

 29 29  0  0  1  0  0  0  0  0999 V2000
    5.5221  -17.6706   24.5510 N   0  0  0  0  0  0  0  0  0  0  0  0
    6.2165  -16.4048   24.6592 C   0  0  1  0  0  0  0  0  0  0  0  0
    6.2818  -16.0529   26.1266 C   0  0  0  0  0  0  0  0  0  0  0  0
    6.7434  -14.6432   26.2506 C   0  0  0  0  0  0  0  0  0  0  0  0
    5.8540  -13.5867   26.1355 C   0  0  0  0  0  0  0  0  0  0  0  0
    6.2905  -12.2840   26.2518 C   0  0  0  0  0  0  0  0  0  0  0  0
    7.6202  -12.0126   26.4846 C   0  0  0  0  0  0  0  0  0  0  0  0
    8.5189  -13.0405   26.6021 C   0  0  0  0  0  0  0  0  0  0  0  0
    8.0765  -14.3476   26.4847 C   0  0  0  0  0  0  0  0  0  0  0  0
    7.5308  -16.5196   24.0317 C   0  0  0  0  0  0  0  0  0  0  0  0
    8.2425  -17.5335   24.2646 O   0  0  0  0  0  0  0  0  0  0  0  0
    8.3614  -15.0972   17.7347 N   0  0  0  0  0  0  0  0  0  0  0  0
    7.9067  -13.7507   17.7148 C   0  0  0  0  0  0  0  0  0  0  0  0
    7.2984  -13.3065   16.6590 N   0  0  0  0  0  0  0  0  0  0  0  0
    8.0766  -12.8522   18.7850 N   0  0  0  0  0  0  0  0  0  0  0  0
    8.9881  -13.1371   19.8486 C   0  0  0  0  0  0  0  0  0  0  0  0
    8.6431  -14.4110   20.5907 C   0  0  0  0  0  0  0  0  0  0  0  0
    9.7536  -14.6760   21.5679 C   0  0  0  0  0  0  0  0  0  0  0  0
    9.3954  -15.7224   22.6000 C   0  0  2  0  0  0  0  0  0  0  0  0
    8.0865  -15.5497   23.1536 N   0  0  0  0  0  0  0  0  0  0  0  0
   10.4507  -15.7584   23.6706 C   0  0  0  0  0  0  0  0  0  0  0  0
   10.7844  -14.7089   24.2525 O   0  0  0  0  0  0  0  0  0  0  0  0
    6.9572  -12.3379   16.5604 N   0  0  0  0  0  0  0  0  0  0  0  0
   11.0701  -16.9826   24.0226 C   0  0  1  0  0  0  0  0  0  0  0  0
   12.2453  -17.0978   24.8493 C   0  0  0  0  0  0  0  0  0  0  0  0
   12.0206  -17.9460   26.0643 S   0  0  0  0  0  0  0  0  0  0  0  0
   10.5039  -17.5683   26.9324 C   0  0  0  0  0  0  0  0  0  0  0  0
   13.4522  -17.5512   24.0808 O   0  0  0  0  0  0  0  0  0  0  0  0
   14.7277  -17.6059   24.5877 O   0  0  0  0  0  0  0  0  0  0  0  0
  2  3  1  0
  2  1  1  1
  3  4  1  0
  4  9  2  0
  5  4  1  0
  5  6  2  0
  6  7  1  0
  7  8  2  0
  9  8  1  0
 10 20  1  0
 10  2  1  0
 11 10  2  0
 13 12  1  0
 14 13  2  0
 15 13  1  0
 16 15  1  0
 17 18  1  0
 17 16  1  0
 19 18  1  6
 19 20  1  0
 21 19  1  0
 21 22  2  0
 23 24  1  0
 23 21  1  0
 24 25  1  1
 26 25  1  0
 27 24  1  0
 28 27  1  0
 29 27  2  0
M  END
$$$$
