FRC.pdb
     RDKit          3D

 29 29  0  0  1  0  0  0  0  0999 V2000
    5.8293  -17.9805   24.7562 N   0  0  0  0  0  0  0  0  0  0  0  0
    6.2727  -16.6025   24.7270 C   0  0  1  0  0  0  0  0  0  0  0  0
    6.5555  -16.1920   26.1528 C   0  0  0  0  0  0  0  0  0  0  0  0
    6.6302  -14.7063   26.2068 C   0  0  0  0  0  0  0  0  0  0  0  0
    7.8147  -14.0608   26.5241 C   0  0  0  0  0  0  0  0  0  0  0  0
    7.8746  -12.6841   26.5717 C   0  0  0  0  0  0  0  0  0  0  0  0
    6.7554  -11.9281   26.3041 C   0  0  0  0  0  0  0  0  0  0  0  0
    5.5724  -12.5434   25.9879 C   0  0  0  0  0  0  0  0  0  0  0  0
    5.5163  -13.9265   25.9411 C   0  0  0  0  0  0  0  0  0  0  0  0
    7.4351  -16.4876   23.8495 C   0  0  0  0  0  0  0  0  0  0  0  0
    8.2682  -17.4321   23.7971 O   0  0  0  0  0  0  0  0  0  0  0  0
    9.2583  -14.7124   18.1787 N   0  0  0  0  0  0  0  0  0  0  0  0
    8.2115  -13.9518   17.5906 C   0  0  0  0  0  0  0  0  0  0  0  0
    7.8663  -14.1971   16.3648 N   0  0  0  0  0  0  0  0  0  0  0  0
    7.5128  -12.9318   18.2637 N   0  0  0  0  0  0  0  0  0  0  0  0
    7.7265  -12.6873   19.6557 C   0  0  0  0  0  0  0  0  0  0  0  0
    7.5701  -13.9340   20.5006 C   0  0  0  0  0  0  0  0  0  0  0  0
    8.8690  -14.1516   21.2244 C   0  0  0  0  0  0  0  0  0  0  0  0
    8.8382  -15.3504   22.1465 C   0  0  2  0  0  0  0  0  0  0  0  0
    7.7088  -15.3617   23.0261 N   0  0  0  0  0  0  0  0  0  0  0  0
   10.1336  -15.4381   22.9050 C   0  0  0  0  0  0  0  0  0  0  0  0
   10.9977  -14.5516   22.7674 O   0  0  0  0  0  0  0  0  0  0  0  0
    7.1604  -13.6496   15.8487 N   0  0  0  0  0  0  0  0  0  0  0  0
   10.3782  -16.5262   23.7781 C   0  0  1  0  0  0  0  0  0  0  0  0
   11.6192  -16.7538   24.4752 C   0  0  0  0  0  0  0  0  0  0  0  0
   11.4315  -16.9406   25.9505 S   0  0  0  0  0  0  0  0  0  0  0  0
   12.9451  -17.3176   26.8241 C   0  0  0  0  0  0  0  0  0  0  0  0
   12.4216  -17.8736   23.8795 O   0  0  0  0  0  0  0  0  0  0  0  0
   11.9362  -18.7929   22.9817 O   0  0  0  0  0  0  0  0  0  0  0  0
  2  3  1  0
  2  1  1  1
  3  4  1  0
  4  9  2  0
  5  4  1  0
  5  6  2  0
  6  7  1  0
  7  8  2  0
  9  8  1  0
 10 20  1  0
 10  2  1  0
 11 10  2  0
 13 12  1  0
 14 13  2  0
 15 13  1  0
 16 15  1  0
 17 18  1  0
 17 16  1  0
 19 18  1  1
 19 20  1  0
 21 19  1  0
 21 22  2  0
 23 24  1  0
 23 21  1  0
 24 25  1  6
 26 25  1  0
 27 24  1  0
 28 27  1  0
 29 27  2  0
M  END
$$$$
