FRC.pdb
     RDKit          3D

 29 29  0  0  1  0  0  0  0  0999 V2000
    5.6105  -17.9252   25.3131 N   0  0  0  0  0  0  0  0  0  0  0  0
    6.0359  -16.5549   25.1190 C   0  0  1  0  0  0  0  0  0  0  0  0
    6.2925  -15.9669   26.4863 C   0  0  0  0  0  0  0  0  0  0  0  0
    6.4006  -14.4887   26.3482 C   0  0  0  0  0  0  0  0  0  0  0  0
    5.2693  -13.6891   26.3125 C   0  0  0  0  0  0  0  0  0  0  0  0
    5.3790  -12.3206   26.1843 C   0  0  0  0  0  0  0  0  0  0  0  0
    6.6175  -11.7265   26.0895 C   0  0  0  0  0  0  0  0  0  0  0  0
    7.7509  -12.4961   26.1224 C   0  0  0  0  0  0  0  0  0  0  0  0
    7.6365  -13.8703   26.2513 C   0  0  0  0  0  0  0  0  0  0  0  0
    7.2093  -16.5322   24.2489 C   0  0  0  0  0  0  0  0  0  0  0  0
    8.1019  -17.4112   24.3885 O   0  0  0  0  0  0  0  0  0  0  0  0
    8.1692  -12.5943   16.7003 N   0  0  0  0  0  0  0  0  0  0  0  0
    7.8276  -13.9120   17.1095 C   0  0  0  0  0  0  0  0  0  0  0  0
    7.1147  -14.6525   16.3186 N   0  0  0  0  0  0  0  0  0  0  0  0
    8.2193  -14.4753   18.3386 N   0  0  0  0  0  0  0  0  0  0  0  0
    9.3855  -14.0121   19.0230 C   0  0  0  0  0  0  0  0  0  0  0  0
    9.6860  -14.8092   20.2748 C   0  0  0  0  0  0  0  0  0  0  0  0
    8.4565  -14.7700   21.1380 C   0  0  0  0  0  0  0  0  0  0  0  0
    8.5538  -15.6746   22.3466 C   0  0  2  0  0  0  0  0  0  0  0  0
    7.4303  -15.5687   23.2274 N   0  0  0  0  0  0  0  0  0  0  0  0
    9.8494  -15.4193   23.0659 C   0  0  0  0  0  0  0  0  0  0  0  0
   10.0985  -14.2858   23.5180 O   0  0  0  0  0  0  0  0  0  0  0  0
    6.9161  -15.6497   16.4931 N   0  0  0  0  0  0  0  0  0  0  0  0
   10.7915  -16.4636   23.2333 C   0  0  1  0  0  0  0  0  0  0  0  0
   12.0825  -16.3097   23.8558 C   0  0  0  0  0  0  0  0  0  0  0  0
   12.2630  -17.2000   25.0479 S   0  0  0  0  0  0  0  0  0  0  0  0
   10.9026  -17.1326   26.2060 C   0  0  0  0  0  0  0  0  0  0  0  0
   13.2163  -16.4602   22.8837 O   0  0  0  0  0  0  0  0  0  0  0  0
   14.5431  -16.2915   23.1966 O   0  0  0  0  0  0  0  0  0  0  0  0
  2  3  1  0
  2  1  1  1
  3  4  1  0
  4  9  2  0
  5  4  1  0
  5  6  2  0
  6  7  1  0
  7  8  2  0
  9  8  1  0
 10 20  1  0
 10  2  1  0
 11 10  2  0
 13 12  1  0
 14 13  2  0
 15 13  1  0
 16 15  1  0
 17 18  1  0
 17 16  1  0
 19 18  1  6
 19 20  1  0
 21 19  1  0
 21 22  2  0
 23 24  1  0
 23 21  1  0
 24 25  1  1
 26 25  1  0
 27 24  1  0
 28 27  1  0
 29 27  2  0
M  END
$$$$
