FRC.pdb
     RDKit          3D

 29 29  0  0  1  0  0  0  0  0999 V2000
    5.6866  -17.6668   24.9714 N   0  0  0  0  0  0  0  0  0  0  0  0
    6.2480  -16.3337   24.9078 C   0  0  1  0  0  0  0  0  0  0  0  0
    6.7625  -15.9974   26.2875 C   0  0  0  0  0  0  0  0  0  0  0  0
    6.8355  -14.5159   26.4124 C   0  0  0  0  0  0  0  0  0  0  0  0
    5.6853  -13.7486   26.5071 C   0  0  0  0  0  0  0  0  0  0  0  0
    5.7625  -12.3768   26.6225 C   0  0  0  0  0  0  0  0  0  0  0  0
    6.9867  -11.7471   26.6454 C   0  0  0  0  0  0  0  0  0  0  0  0
    8.1383  -12.4843   26.5532 C   0  0  0  0  0  0  0  0  0  0  0  0
    8.0566  -13.8620   26.4375 C   0  0  0  0  0  0  0  0  0  0  0  0
    7.2832  -16.2942   23.8777 C   0  0  0  0  0  0  0  0  0  0  0  0
    7.9670  -17.3273   23.6460 O   0  0  0  0  0  0  0  0  0  0  0  0
    9.7219  -14.7327   17.8950 N   0  0  0  0  0  0  0  0  0  0  0  0
    8.5317  -14.0805   17.4725 C   0  0  0  0  0  0  0  0  0  0  0  0
    8.5676  -13.3235   16.4200 N   0  0  0  0  0  0  0  0  0  0  0  0
    7.2952  -14.2049   18.1335 N   0  0  0  0  0  0  0  0  0  0  0  0
    7.2103  -14.7947   19.4327 C   0  0  0  0  0  0  0  0  0  0  0  0
    7.3300  -13.7769   20.5474 C   0  0  0  0  0  0  0  0  0  0  0  0
    8.6634  -13.9887   21.2074 C   0  0  0  0  0  0  0  0  0  0  0  0
    8.6723  -15.1658   22.1575 C   0  0  2  0  0  0  0  0  0  0  0  0
    7.5890  -15.1489   23.0932 N   0  0  0  0  0  0  0  0  0  0  0  0
   10.0040  -15.2452   22.8513 C   0  0  0  0  0  0  0  0  0  0  0  0
   10.7568  -14.2531   22.8710 O   0  0  0  0  0  0  0  0  0  0  0  0
    7.7542  -12.7967   16.0663 N   0  0  0  0  0  0  0  0  0  0  0  0
   10.4092  -16.4455   23.4849 C   0  0  1  0  0  0  0  0  0  0  0  0
   11.6917  -16.6485   24.1106 C   0  0  0  0  0  0  0  0  0  0  0  0
   11.5786  -17.1321   25.5248 S   0  0  0  0  0  0  0  0  0  0  0  0
   10.3565  -16.2520   26.4883 C   0  0  0  0  0  0  0  0  0  0  0  0
   12.5983  -17.5298   23.3017 O   0  0  0  0  0  0  0  0  0  0  0  0
   12.2367  -18.1698   22.1414 O   0  0  0  0  0  0  0  0  0  0  0  0
  2  3  1  0
  2  1  1  1
  3  4  1  0
  4  9  2  0
  5  4  1  0
  5  6  2  0
  6  7  1  0
  7  8  2  0
  9  8  1  0
 10 20  1  0
 10  2  1  0
 11 10  2  0
 13 12  1  0
 14 13  2  0
 15 13  1  0
 16 15  1  0
 17 18  1  0
 17 16  1  0
 19 18  1  1
 19 20  1  0
 21 19  1  0
 21 22  2  0
 23 24  1  0
 23 21  1  0
 24 25  1  6
 26 25  1  0
 27 24  1  0
 28 27  1  0
 29 27  2  0
M  END
$$$$
