FRC.pdb
     RDKit          3D

 29 29  0  0  1  0  0  0  0  0999 V2000
    6.3388  -18.1330   26.0122 N   0  0  0  0  0  0  0  0  0  0  0  0
    6.4727  -16.7073   25.7983 C   0  0  1  0  0  0  0  0  0  0  0  0
    7.0333  -16.1138   27.0690 C   0  0  0  0  0  0  0  0  0  0  0  0
    6.9013  -14.6330   26.9928 C   0  0  0  0  0  0  0  0  0  0  0  0
    8.0163  -13.8119   27.0475 C   0  0  0  0  0  0  0  0  0  0  0  0
    7.8846  -12.4413   26.9761 C   0  0  0  0  0  0  0  0  0  0  0  0
    6.6400  -11.8663   26.8491 C   0  0  0  0  0  0  0  0  0  0  0  0
    5.5224  -12.6574   26.7928 C   0  0  0  0  0  0  0  0  0  0  0  0
    5.6589  -14.0338   26.8649 C   0  0  0  0  0  0  0  0  0  0  0  0
    7.3146  -16.4715   24.6279 C   0  0  0  0  0  0  0  0  0  0  0  0
    8.2798  -17.2472   24.3919 O   0  0  0  0  0  0  0  0  0  0  0  0
    9.0035  -15.3061   17.6519 N   0  0  0  0  0  0  0  0  0  0  0  0
    8.4421  -14.0577   17.2688 C   0  0  0  0  0  0  0  0  0  0  0  0
    8.0868  -13.8788   16.0344 N   0  0  0  0  0  0  0  0  0  0  0  0
    8.2432  -12.9842   18.1574 N   0  0  0  0  0  0  0  0  0  0  0  0
    7.5483  -13.1693   19.3926 C   0  0  0  0  0  0  0  0  0  0  0  0
    8.1653  -14.2493   20.2562 C   0  0  0  0  0  0  0  0  0  0  0  0
    7.4913  -14.1908   21.5981 C   0  0  0  0  0  0  0  0  0  0  0  0
    7.9333  -15.2973   22.5302 C   0  0  2  0  0  0  0  0  0  0  0  0
    7.1257  -15.4050   23.7073 N   0  0  0  0  0  0  0  0  0  0  0  0
    9.3878  -15.1219   22.8689 C   0  0  0  0  0  0  0  0  0  0  0  0
    9.7853  -14.0568   23.3779 O   0  0  0  0  0  0  0  0  0  0  0  0
    7.6328  -13.0195   15.6886 N   0  0  0  0  0  0  0  0  0  0  0  0
   10.3120  -16.1640   22.6119 C   0  0  1  0  0  0  0  0  0  0  0  0
   11.7299  -16.0803   22.8581 C   0  0  0  0  0  0  0  0  0  0  0  0
   12.2157  -17.1231   23.8187 S   0  0  0  0  0  0  0  0  0  0  0  0
   11.2516  -17.2194   25.3211 C   0  0  0  0  0  0  0  0  0  0  0  0
   12.5387  -16.0815   21.5937 O   0  0  0  0  0  0  0  0  0  0  0  0
   13.9028  -15.9305   21.5371 O   0  0  0  0  0  0  0  0  0  0  0  0
  2  3  1  0
  2  1  1  1
  3  4  1  0
  4  9  2  0
  5  4  1  0
  5  6  2  0
  6  7  1  0
  7  8  2  0
  9  8  1  0
 10 20  1  0
 10  2  1  0
 11 10  2  0
 13 12  1  0
 14 13  2  0
 15 13  1  0
 16 15  1  0
 17 18  1  0
 17 16  1  0
 19 18  1  1
 19 20  1  0
 21 19  1  0
 21 22  2  0
 23 24  1  0
 23 21  1  0
 24 25  1  6
 26 25  1  0
 27 24  1  0
 28 27  1  0
 29 27  2  0
M  END
$$$$
