FRC.pdb
     RDKit          3D

 29 29  0  0  1  0  0  0  0  0999 V2000
  -10.3064  -30.1091   29.1993 N   0  0  0  0  0  0  0  0  0  0  0  0
   -9.9611  -29.2677   28.0727 C   0  0  1  0  0  0  0  0  0  0  0  0
  -11.2486  -28.6939   27.5301 C   0  0  0  0  0  0  0  0  0  0  0  0
  -11.9062  -29.7310   26.6889 C   0  0  0  0  0  0  0  0  0  0  0  0
  -11.5178  -29.9379   25.3748 C   0  0  0  0  0  0  0  0  0  0  0  0
  -12.1326  -30.9008   24.6029 C   0  0  0  0  0  0  0  0  0  0  0  0
  -13.1444  -31.6734   25.1276 C   0  0  0  0  0  0  0  0  0  0  0  0
  -13.5462  -31.4875   26.4245 C   0  0  0  0  0  0  0  0  0  0  0  0
  -12.9261  -30.5192   27.1966 C   0  0  0  0  0  0  0  0  0  0  0  0
   -9.0090  -28.2477   28.5056 C   0  0  0  0  0  0  0  0  0  0  0  0
   -9.1091  -27.7571   29.6624 O   0  0  0  0  0  0  0  0  0  0  0  0
   -0.9262  -27.5242   25.6991 N   0  0  0  0  0  0  0  0  0  0  0  0
   -1.1855  -28.2893   26.8685 C   0  0  0  0  0  0  0  0  0  0  0  0
   -0.2686  -29.0921   27.3125 N   0  0  0  0  0  0  0  0  0  0  0  0
   -2.3935  -28.2316   27.5888 N   0  0  0  0  0  0  0  0  0  0  0  0
   -3.4573  -27.3711   27.1754 C   0  0  0  0  0  0  0  0  0  0  0  0
   -4.6845  -27.4924   28.0540 C   0  0  0  0  0  0  0  0  0  0  0  0
   -5.7634  -26.6473   27.4375 C   0  0  0  0  0  0  0  0  0  0  0  0
   -7.0752  -26.7243   28.1871 C   0  0  2  0  0  0  0  0  0  0  0  0
   -7.9476  -27.7501   27.7015 N   0  0  0  0  0  0  0  0  0  0  0  0
   -7.7427  -25.3769   28.1770 C   0  0  0  0  0  0  0  0  0  0  0  0
   -8.2693  -24.9499   27.1322 O   0  0  0  0  0  0  0  0  0  0  0  0
   -0.3989  -29.7169   28.1229 N   0  0  0  0  0  0  0  0  0  0  0  0
   -7.7767  -24.5875   29.3526 C   0  0  2  0  0  0  0  0  0  0  0  0
   -8.4043  -23.2937   29.4523 C   0  0  0  0  0  0  0  0  0  0  0  0
   -9.3072  -23.1757   30.6428 S   0  0  0  0  0  0  0  0  0  0  0  0
   -9.9842  -21.5368   30.8701 C   0  0  0  0  0  0  0  0  0  0  0  0
   -7.4166  -22.1648   29.4005 O   0  0  0  0  0  0  0  0  0  0  0  0
   -7.5236  -21.0681   28.5804 O   0  0  0  0  0  0  0  0  0  0  0  0
  2  3  1  0
  2  1  1  1
  3  4  1  0
  4  9  2  0
  5  4  1  0
  5  6  2  0
  6  7  1  0
  7  8  2  0
  9  8  1  0
 10 20  1  0
 10  2  1  0
 11 10  2  0
 13 12  1  0
 14 13  2  0
 15 13  1  0
 16 15  1  0
 17 18  1  0
 17 16  1  0
 19 18  1  6
 19 20  1  0
 21 19  1  0
 21 22  2  0
 23 24  1  0
 23 21  1  0
 24 25  1  1
 26 25  1  0
 27 24  1  0
 28 27  1  0
 29 27  2  0
M  END
$$$$
