FRC.pdb
     RDKit          3D

 29 29  0  0  1  0  0  0  0  0999 V2000
    6.4630  -18.1774   25.9992 N   0  0  0  0  0  0  0  0  0  0  0  0
    6.5437  -16.7455   25.8007 C   0  0  1  0  0  0  0  0  0  0  0  0
    7.2321  -16.1629   27.0124 C   0  0  0  0  0  0  0  0  0  0  0  0
    7.2575  -14.6814   26.8699 C   0  0  0  0  0  0  0  0  0  0  0  0
    6.0832  -13.9465   26.8296 C   0  0  0  0  0  0  0  0  0  0  0  0
    6.1163  -12.5745   26.6974 C   0  0  0  0  0  0  0  0  0  0  0  0
    7.3198  -11.9122   26.6033 C   0  0  0  0  0  0  0  0  0  0  0  0
    8.4945  -12.6170   26.6408 C   0  0  0  0  0  0  0  0  0  0  0  0
    8.4570  -13.9950   26.7736 C   0  0  0  0  0  0  0  0  0  0  0  0
    7.2437  -16.4702   24.5483 C   0  0  0  0  0  0  0  0  0  0  0  0
    8.2739  -17.1346   24.2547 O   0  0  0  0  0  0  0  0  0  0  0  0
    8.1457  -12.6095   17.1829 N   0  0  0  0  0  0  0  0  0  0  0  0
    8.5253  -13.9790   17.2058 C   0  0  0  0  0  0  0  0  0  0  0  0
    9.5145  -14.3712   16.4642 N   0  0  0  0  0  0  0  0  0  0  0  0
    7.8866  -14.9545   17.9945 N   0  0  0  0  0  0  0  0  0  0  0  0
    7.0252  -14.5818   19.0725 C   0  0  0  0  0  0  0  0  0  0  0  0
    7.7772  -13.9912   20.2465 C   0  0  0  0  0  0  0  0  0  0  0  0
    6.9592  -14.2507   21.4801 C   0  0  0  0  0  0  0  0  0  0  0  0
    7.5992  -15.2546   22.4134 C   0  0  2  0  0  0  0  0  0  0  0  0
    6.8429  -15.4832   23.6071 N   0  0  0  0  0  0  0  0  0  0  0  0
    9.0087  -14.8309   22.7217 C   0  0  0  0  0  0  0  0  0  0  0  0
    9.2189  -13.9019   23.5243 O   0  0  0  0  0  0  0  0  0  0  0  0
    9.9001  -15.3278   16.4840 N   0  0  0  0  0  0  0  0  0  0  0  0
   10.1027  -15.4840   22.1030 C   0  0  2  0  0  0  0  0  0  0  0  0
   11.4125  -15.6211   22.6891 C   0  0  0  0  0  0  0  0  0  0  0  0
   11.3778  -16.2490   24.0495 S   0  0  0  0  0  0  0  0  0  0  0  0
   12.9610  -16.2494   24.8801 C   0  0  0  0  0  0  0  0  0  0  0  0
   12.3809  -16.3267   21.7852 O   0  0  0  0  0  0  0  0  0  0  0  0
   12.0299  -17.0318   20.6598 O   0  0  0  0  0  0  0  0  0  0  0  0
  2  3  1  0
  2  1  1  1
  3  4  1  0
  4  9  2  0
  5  4  1  0
  5  6  2  0
  6  7  1  0
  7  8  2  0
  9  8  1  0
 10 20  1  0
 10  2  1  0
 11 10  2  0
 13 12  1  0
 14 13  2  0
 15 13  1  0
 16 15  1  0
 17 18  1  0
 17 16  1  0
 19 18  1  1
 19 20  1  0
 21 19  1  0
 21 22  2  0
 23 24  1  0
 23 21  1  0
 24 25  1  6
 26 25  1  0
 27 24  1  0
 28 27  1  0
 29 27  2  0
M  END
$$$$
