FRC.pdb
     RDKit          3D

 29 29  0  0  1  0  0  0  0  0999 V2000
    5.8040  -17.2101   25.6063 N   0  0  0  0  0  0  0  0  0  0  0  0
    6.5034  -16.0237   25.1597 C   0  0  1  0  0  0  0  0  0  0  0  0
    7.1071  -15.3722   26.3814 C   0  0  0  0  0  0  0  0  0  0  0  0
    6.7491  -13.9275   26.3674 C   0  0  0  0  0  0  0  0  0  0  0  0
    7.3885  -13.0404   25.5160 C   0  0  0  0  0  0  0  0  0  0  0  0
    7.0503  -11.7037   25.5099 C   0  0  0  0  0  0  0  0  0  0  0  0
    6.0697  -11.2290   26.3518 C   0  0  0  0  0  0  0  0  0  0  0  0
    5.4231  -12.0867   27.2028 C   0  0  0  0  0  0  0  0  0  0  0  0
    5.7656  -13.4286   27.2060 C   0  0  0  0  0  0  0  0  0  0  0  0
    7.4940  -16.3973   24.1529 C   0  0  0  0  0  0  0  0  0  0  0  0
    8.1636  -17.4544   24.3043 O   0  0  0  0  0  0  0  0  0  0  0  0
    7.8645  -13.9369   15.9317 N   0  0  0  0  0  0  0  0  0  0  0  0
    8.5250  -13.6966   17.1672 C   0  0  0  0  0  0  0  0  0  0  0  0
    8.8800  -12.4858   17.4670 N   0  0  0  0  0  0  0  0  0  0  0  0
    8.8243  -14.7049   18.1029 N   0  0  0  0  0  0  0  0  0  0  0  0
    7.8088  -15.5882   18.5841 C   0  0  0  0  0  0  0  0  0  0  0  0
    7.4931  -15.3754   20.0496 C   0  0  0  0  0  0  0  0  0  0  0  0
    8.8021  -15.2645   20.7794 C   0  0  0  0  0  0  0  0  0  0  0  0
    8.8172  -16.0278   22.0854 C   0  0  2  0  0  0  0  0  0  0  0  0
    7.7705  -15.6404   22.9819 N   0  0  0  0  0  0  0  0  0  0  0  0
   10.1716  -15.9049   22.7270 C   0  0  0  0  0  0  0  0  0  0  0  0
   10.6825  -14.7813   22.8941 O   0  0  0  0  0  0  0  0  0  0  0  0
    9.3892  -12.2356   18.3286 N   0  0  0  0  0  0  0  0  0  0  0  0
   10.8725  -17.0629   23.1440 C   0  0  1  0  0  0  0  0  0  0  0  0
   12.2003  -17.0588   23.7049 C   0  0  0  0  0  0  0  0  0  0  0  0
   12.1983  -17.0546   25.2037 S   0  0  0  0  0  0  0  0  0  0  0  0
   10.6921  -17.6977   25.9208 C   0  0  0  0  0  0  0  0  0  0  0  0
   13.0623  -18.1611   23.1618 O   0  0  0  0  0  0  0  0  0  0  0  0
   14.3997  -18.3153   23.4343 O   0  0  0  0  0  0  0  0  0  0  0  0
  2  3  1  0
  2  1  1  1
  3  4  1  0
  4  9  2  0
  5  4  1  0
  5  6  2  0
  6  7  1  0
  7  8  2  0
  9  8  1  0
 10 20  1  0
 10  2  1  0
 11 10  2  0
 13 12  1  0
 14 13  2  0
 15 13  1  0
 16 15  1  0
 17 18  1  0
 17 16  1  0
 19 18  1  6
 19 20  1  0
 21 19  1  0
 21 22  2  0
 23 24  1  0
 23 21  1  0
 24 25  1  1
 26 25  1  0
 27 24  1  0
 28 27  1  0
 29 27  2  0
M  END
$$$$
