FRC.pdb
     RDKit          3D

 29 29  0  0  1  0  0  0  0  0999 V2000
    6.1324  -17.8474   19.9699 N   0  0  0  0  0  0  0  0  0  0  0  0
    7.1545  -16.9121   20.3904 C   0  0  1  0  0  0  0  0  0  0  0  0
    6.4696  -15.8288   21.1897 C   0  0  0  0  0  0  0  0  0  0  0  0
    6.9039  -14.5081   20.6577 C   0  0  0  0  0  0  0  0  0  0  0  0
    6.5936  -14.1212   19.3637 C   0  0  0  0  0  0  0  0  0  0  0  0
    7.0000  -12.8959   18.8793 C   0  0  0  0  0  0  0  0  0  0  0  0
    7.7222  -12.0361   19.6762 C   0  0  0  0  0  0  0  0  0  0  0  0
    8.0413  -12.3962   20.9594 C   0  0  0  0  0  0  0  0  0  0  0  0
    7.6312  -13.6279   21.4422 C   0  0  0  0  0  0  0  0  0  0  0  0
    8.1823  -17.6263   21.1440 C   0  0  0  0  0  0  0  0  0  0  0  0
    7.8642  -18.6457   21.8137 O   0  0  0  0  0  0  0  0  0  0  0  0
   12.4458  -21.6099   19.7654 N   0  0  0  0  0  0  0  0  0  0  0  0
   13.6635  -21.8120   20.4702 C   0  0  0  0  0  0  0  0  0  0  0  0
   14.1531  -23.0102   20.5517 N   0  0  0  0  0  0  0  0  0  0  0  0
   14.3853  -20.7783   21.0963 N   0  0  0  0  0  0  0  0  0  0  0  0
   13.9320  -19.4239   21.0392 C   0  0  0  0  0  0  0  0  0  0  0  0
   12.7395  -19.1666   21.9360 C   0  0  0  0  0  0  0  0  0  0  0  0
   11.7712  -18.3167   21.1624 C   0  0  0  0  0  0  0  0  0  0  0  0
   10.5040  -18.0152   21.9317 C   0  0  2  0  0  0  0  0  0  0  0  0
    9.5528  -17.2511   21.1827 N   0  0  0  0  0  0  0  0  0  0  0  0
   10.8500  -17.3480   23.2341 C   0  0  0  0  0  0  0  0  0  0  0  0
   11.8299  -16.5820   23.3011 O   0  0  0  0  0  0  0  0  0  0  0  0
   15.0498  -23.2318   21.0112 N   0  0  0  0  0  0  0  0  0  0  0  0
   10.0659  -17.5861   24.3894 C   0  0  2  0  0  0  0  0  0  0  0  0
   10.3817  -17.0977   25.7083 C   0  0  0  0  0  0  0  0  0  0  0  0
    9.1841  -16.5595   26.4311 S   0  0  0  0  0  0  0  0  0  0  0  0
    7.9263  -15.9011   25.3444 C   0  0  0  0  0  0  0  0  0  0  0  0
   11.1145  -18.1091   26.5408 O   0  0  0  0  0  0  0  0  0  0  0  0
   11.6497  -17.8617   27.7814 O   0  0  0  0  0  0  0  0  0  0  0  0
  2  3  1  0
  2  1  1  1
  3  4  1  0
  4  9  2  0
  5  4  1  0
  5  6  2  0
  6  7  1  0
  7  8  2  0
  9  8  1  0
 10 20  1  0
 10  2  1  0
 11 10  2  0
 13 12  1  0
 14 13  2  0
 15 13  1  0
 16 15  1  0
 17 18  1  0
 17 16  1  0
 19 18  1  6
 19 20  1  0
 21 19  1  0
 21 22  2  0
 23 24  1  0
 23 21  1  0
 24 25  1  6
 26 25  1  0
 27 24  1  0
 28 27  1  0
 29 27  2  0
M  END
$$$$
