FRC.pdb
     RDKit          3D

 29 29  0  0  1  0  0  0  0  0999 V2000
    6.3552  -17.9985   26.2721 N   0  0  0  0  0  0  0  0  0  0  0  0
    6.4580  -16.6050   25.8929 C   0  0  1  0  0  0  0  0  0  0  0  0
    7.1142  -15.8749   27.0408 C   0  0  0  0  0  0  0  0  0  0  0  0
    6.8624  -14.4173   26.8745 C   0  0  0  0  0  0  0  0  0  0  0  0
    7.7258  -13.6218   26.1380 C   0  0  0  0  0  0  0  0  0  0  0  0
    7.4847  -12.2725   25.9892 C   0  0  0  0  0  0  0  0  0  0  0  0
    6.3795  -11.6935   26.5718 C   0  0  0  0  0  0  0  0  0  0  0  0
    5.5111  -12.4594   27.3049 C   0  0  0  0  0  0  0  0  0  0  0  0
    5.7568  -13.8144   27.4520 C   0  0  0  0  0  0  0  0  0  0  0  0
    7.2001  -16.4991   24.6389 C   0  0  0  0  0  0  0  0  0  0  0  0
    8.2373  -17.1956   24.4716 O   0  0  0  0  0  0  0  0  0  0  0  0
    9.8640  -12.5699   18.7711 N   0  0  0  0  0  0  0  0  0  0  0  0
    9.2253  -13.2863   17.7227 C   0  0  0  0  0  0  0  0  0  0  0  0
    9.8348  -13.4154   16.5852 N   0  0  0  0  0  0  0  0  0  0  0  0
    7.9521  -13.8751   17.8406 N   0  0  0  0  0  0  0  0  0  0  0  0
    7.2453  -13.8593   19.0829 C   0  0  0  0  0  0  0  0  0  0  0  0
    8.1036  -14.2961   20.2513 C   0  0  0  0  0  0  0  0  0  0  0  0
    7.1975  -14.4544   21.4396 C   0  0  0  0  0  0  0  0  0  0  0  0
    7.6835  -15.5006   22.4183 C   0  0  2  0  0  0  0  0  0  0  0  0
    6.8340  -15.6477   23.5611 N   0  0  0  0  0  0  0  0  0  0  0  0
    9.1022  -15.2002   22.8160 C   0  0  0  0  0  0  0  0  0  0  0  0
    9.3331  -14.4923   23.8145 O   0  0  0  0  0  0  0  0  0  0  0  0
    9.4356  -13.9151   15.7758 N   0  0  0  0  0  0  0  0  0  0  0  0
   10.1815  -15.7190   22.0596 C   0  0  1  0  0  0  0  0  0  0  0  0
   11.5395  -15.8191   22.5326 C   0  0  0  0  0  0  0  0  0  0  0  0
   11.6666  -16.6717   23.7587 S   0  0  0  0  0  0  0  0  0  0  0  0
   11.2513  -15.8169   25.2731 C   0  0  0  0  0  0  0  0  0  0  0  0
   12.4957  -16.2554   21.4611 O   0  0  0  0  0  0  0  0  0  0  0  0
   13.8278  -15.9230   21.4182 O   0  0  0  0  0  0  0  0  0  0  0  0
  2  3  1  0
  2  1  1  1
  3  4  1  0
  4  9  2  0
  5  4  1  0
  5  6  2  0
  6  7  1  0
  7  8  2  0
  9  8  1  0
 10 20  1  0
 10  2  1  0
 11 10  2  0
 13 12  1  0
 14 13  2  0
 15 13  1  0
 16 15  1  0
 17 18  1  0
 17 16  1  0
 19 18  1  6
 19 20  1  0
 21 19  1  0
 21 22  2  0
 23 24  1  0
 23 21  1  0
 24 25  1  6
 26 25  1  0
 27 24  1  0
 28 27  1  0
 29 27  2  0
M  END
$$$$
