FRC.pdb
     RDKit          3D

 29 29  0  0  1  0  0  0  0  0999 V2000
    6.2778  -18.1000   25.5874 N   0  0  0  0  0  0  0  0  0  0  0  0
    6.4560  -16.6819   25.3563 C   0  0  1  0  0  0  0  0  0  0  0  0
    7.0721  -16.0978   26.6055 C   0  0  0  0  0  0  0  0  0  0  0  0
    6.9696  -14.6147   26.5294 C   0  0  0  0  0  0  0  0  0  0  0  0
    7.9243  -13.8006   27.1179 C   0  0  0  0  0  0  0  0  0  0  0  0
    7.8213  -12.4278   27.0423 C   0  0  0  0  0  0  0  0  0  0  0  0
    6.7654  -11.8435   26.3792 C   0  0  0  0  0  0  0  0  0  0  0  0
    5.8087  -12.6275   25.7893 C   0  0  0  0  0  0  0  0  0  0  0  0
    5.9157  -14.0061   25.8674 C   0  0  0  0  0  0  0  0  0  0  0  0
    7.2732  -16.4863   24.1611 C   0  0  0  0  0  0  0  0  0  0  0  0
    8.2411  -17.2623   23.9380 O   0  0  0  0  0  0  0  0  0  0  0  0
    9.5323  -14.8360   17.3947 N   0  0  0  0  0  0  0  0  0  0  0  0
    8.4138  -14.0696   16.9682 C   0  0  0  0  0  0  0  0  0  0  0  0
    8.2245  -13.8836   15.6987 N   0  0  0  0  0  0  0  0  0  0  0  0
    7.4819  -13.4891   17.8492 N   0  0  0  0  0  0  0  0  0  0  0  0
    7.8969  -12.9329   19.0988 C   0  0  0  0  0  0  0  0  0  0  0  0
    8.4994  -13.9650   20.0286 C   0  0  0  0  0  0  0  0  0  0  0  0
    7.5028  -14.2182   21.1245 C   0  0  0  0  0  0  0  0  0  0  0  0
    7.9628  -15.2693   22.1105 C   0  0  2  0  0  0  0  0  0  0  0  0
    7.0564  -15.4598   23.2020 N   0  0  0  0  0  0  0  0  0  0  0  0
    9.3489  -14.9392   22.5910 C   0  0  0  0  0  0  0  0  0  0  0  0
    9.5505  -13.8992   23.2460 O   0  0  0  0  0  0  0  0  0  0  0  0
    7.4146  -13.3771   15.3092 N   0  0  0  0  0  0  0  0  0  0  0  0
   10.4308  -15.8067   22.3023 C   0  0  1  0  0  0  0  0  0  0  0  0
   11.5628  -16.0204   23.1687 C   0  0  0  0  0  0  0  0  0  0  0  0
   11.1692  -16.5104   24.5293 S   0  0  0  0  0  0  0  0  0  0  0  0
   12.5384  -16.6295   25.6728 C   0  0  0  0  0  0  0  0  0  0  0  0
   12.6076  -16.9028   22.5502 O   0  0  0  0  0  0  0  0  0  0  0  0
   12.4169  -17.6751   21.4304 O   0  0  0  0  0  0  0  0  0  0  0  0
  2  3  1  0
  2  1  1  1
  3  4  1  0
  4  9  2  0
  5  4  1  0
  5  6  2  0
  6  7  1  0
  7  8  2  0
  9  8  1  0
 10 20  1  0
 10  2  1  0
 11 10  2  0
 13 12  1  0
 14 13  2  0
 15 13  1  0
 16 15  1  0
 17 18  1  0
 17 16  1  0
 19 18  1  6
 19 20  1  0
 21 19  1  0
 21 22  2  0
 23 24  1  0
 23 21  1  0
 24 25  1  6
 26 25  1  0
 27 24  1  0
 28 27  1  0
 29 27  2  0
M  END
$$$$
