WSF.pdb
     RDKit          3D

 32 34  0  0  1  0  0  0  0  0999 V2000
    6.1403  -18.6486   22.6945 N   0  0  0  0  0  0  0  0  0  0  0  0
    7.0002  -17.4633   22.4637 C   0  0  1  0  0  0  0  0  0  0  0  0
    6.1871  -16.2569   22.6609 C   0  0  0  0  0  0  0  0  0  0  0  0
    6.9224  -15.0252   22.3178 C   0  0  0  0  0  0  0  0  0  0  0  0
    7.5232  -14.1467   23.1947 C   0  0  0  0  0  0  0  0  0  0  0  0
    8.0829  -13.1294   22.5227 N   0  0  0  0  0  0  0  0  0  0  0  0
    7.8647  -13.3159   21.2111 C   0  0  0  0  0  0  0  0  0  0  0  0
    8.2018  -12.6054   20.0728 C   0  0  0  0  0  0  0  0  0  0  0  0
    7.8390  -13.0388   18.8136 C   0  0  0  0  0  0  0  0  0  0  0  0
    7.1219  -14.2072   18.6641 C   0  0  0  0  0  0  0  0  0  0  0  0
    6.7899  -14.9090   19.8006 C   0  0  0  0  0  0  0  0  0  0  0  0
    7.1519  -14.4770   21.0607 C   0  0  0  0  0  0  0  0  0  0  0  0
    8.2171  -17.6465   23.2204 C   0  0  0  0  0  0  0  0  0  0  0  0
    8.1083  -17.9162   24.4708 O   0  0  0  0  0  0  0  0  0  0  0  0
   12.0356  -16.7635   21.9705 O   0  0  0  0  0  0  0  0  0  0  0  0
   11.9755  -17.8333   22.8464 C   0  0  0  0  0  0  0  0  0  0  0  0
   10.7020  -17.7344   23.6502 C   0  0  2  0  0  0  0  0  0  0  0  0
    9.5512  -17.5718   22.7685 N   0  0  0  0  0  0  0  0  0  0  0  0
   10.7547  -16.6664   24.6679 C   0  0  0  0  0  0  0  0  0  0  0  0
   11.2011  -15.5093   24.3389 O   0  0  0  0  0  0  0  0  0  0  0  0
   10.3453  -16.8072   26.0075 N   0  0  0  0  0  0  0  0  0  0  0  0
   11.0064  -16.0824   27.1047 C   0  0  1  0  0  0  0  0  0  0  0  0
   10.9488  -14.6089   26.8830 C   0  0  0  0  0  0  0  0  0  0  0  0
    9.5572  -14.1136   26.8062 C   0  0  0  0  0  0  0  0  0  0  0  0
    8.6563  -14.5910   25.8670 C   0  0  0  0  0  0  0  0  0  0  0  0
    7.3791  -14.1147   25.8550 C   0  0  0  0  0  0  0  0  0  0  0  0
    6.9006  -13.1655   26.7325 C   0  0  0  0  0  0  0  0  0  0  0  0
    7.7953  -12.6896   27.6676 C   0  0  0  0  0  0  0  0  0  0  0  0
    9.1010  -13.1646   27.6939 C   0  0  0  0  0  0  0  0  0  0  0  0
   10.2908  -16.4344   28.3442 C   0  0  0  0  0  0  0  0  0  0  0  0
   10.5331  -15.9409   29.4711 O   0  0  0  0  0  0  0  0  0  0  0  0
    9.2499  -17.3856   28.3333 O   0  0  0  0  0  0  0  0  0  0  0  0
  2  1  1  1
  2 13  1  0
  2  3  1  0
  3  4  1  0
  4  5  2  0
  5  6  1  0
  7  6  1  0
  8  7  2  0
  9  8  1  0
 10 11  1  0
 10  9  2  0
 11 12  2  0
 12  4  1  0
 12  7  1  0
 13 14  2  0
 16 15  1  0
 17 16  1  6
 18 13  1  0
 18 17  1  0
 19 20  2  0
 19 17  1  0
 21 19  1  0
 22 23  1  6
 22 21  1  0
 23 24  1  0
 24 29  1  0
 25 24  2  0
 26 25  1  0
 26 27  2  0
 27 28  1  0
 29 28  2  0
 30 22  1  0
 30 32  1  0
 31 30  2  0
M  END
$$$$
