WSF.pdb
     RDKit          3D

 32 34  0  0  1  0  0  0  0  0999 V2000
    9.1595  -17.1174   20.6906 N   0  0  0  0  0  0  0  0  0  0  0  0
    8.6000  -16.2785   21.7772 C   0  0  1  0  0  0  0  0  0  0  0  0
    7.2194  -15.9250   21.4239 C   0  0  0  0  0  0  0  0  0  0  0  0
    7.1367  -15.2186   20.1318 C   0  0  0  0  0  0  0  0  0  0  0  0
    6.5422  -15.6747   18.9741 C   0  0  0  0  0  0  0  0  0  0  0  0
    6.6774  -14.7684   17.9942 N   0  0  0  0  0  0  0  0  0  0  0  0
    7.3529  -13.7150   18.4806 C   0  0  0  0  0  0  0  0  0  0  0  0
    7.7737  -12.5132   17.9391 C   0  0  0  0  0  0  0  0  0  0  0  0
    8.4703  -11.5856   18.6869 C   0  0  0  0  0  0  0  0  0  0  0  0
    8.7647  -11.8432   20.0093 C   0  0  0  0  0  0  0  0  0  0  0  0
    8.3431  -13.0405   20.5414 C   0  0  0  0  0  0  0  0  0  0  0  0
    7.6463  -13.9695   19.7950 C   0  0  0  0  0  0  0  0  0  0  0  0
    8.8787  -16.9377   23.0320 C   0  0  0  0  0  0  0  0  0  0  0  0
    7.9241  -17.0258   23.8858 O   0  0  0  0  0  0  0  0  0  0  0  0
   12.3509  -18.9380   24.1706 O   0  0  0  0  0  0  0  0  0  0  0  0
   11.1711  -19.2260   24.8339 C   0  0  0  0  0  0  0  0  0  0  0  0
   10.2971  -17.9957   24.8310 C   0  0  2  0  0  0  0  0  0  0  0  0
   10.0874  -17.5197   23.4681 N   0  0  0  0  0  0  0  0  0  0  0  0
   10.8227  -16.9241   25.6998 C   0  0  0  0  0  0  0  0  0  0  0  0
   11.7623  -16.1677   25.2624 O   0  0  0  0  0  0  0  0  0  0  0  0
   10.3707  -16.6482   27.0042 N   0  0  0  0  0  0  0  0  0  0  0  0
   11.1163  -15.7667   27.9171 C   0  0  1  0  0  0  0  0  0  0  0  0
   10.7616  -14.3367   27.6877 C   0  0  0  0  0  0  0  0  0  0  0  0
    9.3111  -14.1543   27.4624 C   0  0  0  0  0  0  0  0  0  0  0  0
    8.5213  -15.1490   26.9070 C   0  0  0  0  0  0  0  0  0  0  0  0
    7.1852  -14.9353   26.7415 C   0  0  0  0  0  0  0  0  0  0  0  0
    6.5399  -13.7698   27.0954 C   0  0  0  0  0  0  0  0  0  0  0  0
    7.3240  -12.7793   27.6483 C   0  0  0  0  0  0  0  0  0  0  0  0
    8.6876  -12.9809   27.8242 C   0  0  0  0  0  0  0  0  0  0  0  0
   10.7521  -16.1631   29.2892 C   0  0  0  0  0  0  0  0  0  0  0  0
   11.1181  -15.5597   30.3256 O   0  0  0  0  0  0  0  0  0  0  0  0
    9.9379  -17.2900   29.5246 O   0  0  0  0  0  0  0  0  0  0  0  0
  2  1  1  6
  2 13  1  0
  2  3  1  0
  3  4  1  0
  4  5  2  0
  5  6  1  0
  7  6  1  0
  8  7  2  0
  9  8  1  0
 10 11  1  0
 10  9  2  0
 11 12  2  0
 12  4  1  0
 12  7  1  0
 13 14  2  0
 16 15  1  0
 17 16  1  6
 18 13  1  0
 18 17  1  0
 19 20  2  0
 19 17  1  0
 21 19  1  0
 22 23  1  6
 22 21  1  0
 23 24  1  0
 24 29  1  0
 25 24  2  0
 26 25  1  0
 26 27  2  0
 27 28  1  0
 29 28  2  0
 30 22  1  0
 30 32  1  0
 31 30  2  0
M  END
$$$$
