WSF.pdb
     RDKit          3D

 32 34  0  0  1  0  0  0  0  0999 V2000
    5.9033  -19.1828   21.5073 N   0  0  0  0  0  0  0  0  0  0  0  0
    6.8065  -18.0076   21.5354 C   0  0  1  0  0  0  0  0  0  0  0  0
    5.9995  -16.7993   21.3250 C   0  0  0  0  0  0  0  0  0  0  0  0
    6.7316  -15.7622   20.5740 C   0  0  0  0  0  0  0  0  0  0  0  0
    7.0643  -15.7868   19.2360 C   0  0  0  0  0  0  0  0  0  0  0  0
    7.7452  -14.6789   18.9061 N   0  0  0  0  0  0  0  0  0  0  0  0
    7.8717  -13.9158   20.0036 C   0  0  0  0  0  0  0  0  0  0  0  0
    8.4644  -12.6915   20.2566 C   0  0  0  0  0  0  0  0  0  0  0  0
    8.4450  -12.1227   21.5140 C   0  0  0  0  0  0  0  0  0  0  0  0
    7.8244  -12.7746   22.5588 C   0  0  0  0  0  0  0  0  0  0  0  0
    7.2368  -13.9921   22.3000 C   0  0  0  0  0  0  0  0  0  0  0  0
    7.2553  -14.5625   21.0431 C   0  0  0  0  0  0  0  0  0  0  0  0
    7.6442  -18.1225   22.7067 C   0  0  0  0  0  0  0  0  0  0  0  0
    7.0839  -18.4601   23.8113 O   0  0  0  0  0  0  0  0  0  0  0  0
   11.6572  -18.7074   22.7562 O   0  0  0  0  0  0  0  0  0  0  0  0
   10.8937  -19.1198   23.8342 C   0  0  0  0  0  0  0  0  0  0  0  0
    9.7794  -18.1254   24.0514 C   0  0  2  0  0  0  0  0  0  0  0  0
    9.0348  -17.9125   22.8151 N   0  0  0  0  0  0  0  0  0  0  0  0
   10.2599  -16.8490   24.6163 C   0  0  0  0  0  0  0  0  0  0  0  0
   10.9746  -16.0713   23.8876 O   0  0  0  0  0  0  0  0  0  0  0  0
    9.9951  -16.3937   25.9218 N   0  0  0  0  0  0  0  0  0  0  0  0
   10.9423  -15.5396   26.6564 C   0  0  1  0  0  0  0  0  0  0  0  0
   10.5349  -14.1069   26.5869 C   0  0  0  0  0  0  0  0  0  0  0  0
    9.0718  -13.9391   26.7246 C   0  0  0  0  0  0  0  0  0  0  0  0
    8.1709  -14.7700   26.0768 C   0  0  0  0  0  0  0  0  0  0  0  0
    6.8326  -14.5837   26.2563 C   0  0  0  0  0  0  0  0  0  0  0  0
    6.2901  -13.6020   27.0575 C   0  0  0  0  0  0  0  0  0  0  0  0
    7.1847  -12.7746   27.7029 C   0  0  0  0  0  0  0  0  0  0  0  0
    8.5524  -12.9509   27.5310 C   0  0  0  0  0  0  0  0  0  0  0  0
   10.9366  -15.9984   28.0571 C   0  0  0  0  0  0  0  0  0  0  0  0
   11.6146  -15.4838   28.9777 O   0  0  0  0  0  0  0  0  0  0  0  0
   10.1354  -17.0872   28.4584 O   0  0  0  0  0  0  0  0  0  0  0  0
  2  1  1  1
  2 13  1  0
  2  3  1  0
  3  4  1  0
  4  5  2  0
  5  6  1  0
  7  6  1  0
  8  7  2  0
  9  8  1  0
 10 11  1  0
 10  9  2  0
 11 12  2  0
 12  4  1  0
 12  7  1  0
 13 14  2  0
 16 15  1  0
 17 16  1  6
 18 13  1  0
 18 17  1  0
 19 20  2  0
 19 17  1  0
 21 19  1  0
 22 23  1  1
 22 21  1  0
 23 24  1  0
 24 29  1  0
 25 24  2  0
 26 25  1  0
 26 27  2  0
 27 28  1  0
 29 28  2  0
 30 22  1  0
 30 32  1  0
 31 30  2  0
M  END
$$$$
