WSF.pdb
     RDKit          3D

 32 34  0  0  1  0  0  0  0  0999 V2000
    6.2740  -17.4507   23.9761 N   0  0  0  0  0  0  0  0  0  0  0  0
    7.4778  -16.5855   23.9712 C   0  0  1  0  0  0  0  0  0  0  0  0
    7.6931  -16.0854   25.3348 C   0  0  0  0  0  0  0  0  0  0  0  0
    6.7446  -15.0142   25.6933 C   0  0  0  0  0  0  0  0  0  0  0  0
    5.4173  -15.1627   26.0365 C   0  0  0  0  0  0  0  0  0  0  0  0
    4.8642  -13.9654   26.2820 N   0  0  0  0  0  0  0  0  0  0  0  0
    5.8022  -13.0207   26.1077 C   0  0  0  0  0  0  0  0  0  0  0  0
    5.8058  -11.6416   26.2191 C   0  0  0  0  0  0  0  0  0  0  0  0
    6.9425  -10.8976   25.9754 C   0  0  0  0  0  0  0  0  0  0  0  0
    8.1151  -11.5252   25.6106 C   0  0  0  0  0  0  0  0  0  0  0  0
    8.1043  -12.8972   25.5018 C   0  0  0  0  0  0  0  0  0  0  0  0
    6.9684  -13.6428   25.7450 C   0  0  0  0  0  0  0  0  0  0  0  0
    8.5319  -17.2994   23.2884 C   0  0  0  0  0  0  0  0  0  0  0  0
    8.7752  -18.5040   23.6593 O   0  0  0  0  0  0  0  0  0  0  0  0
   11.0360  -15.6555   20.3965 O   0  0  0  0  0  0  0  0  0  0  0  0
   11.2109  -17.0032   20.6577 C   0  0  0  0  0  0  0  0  0  0  0  0
   10.7363  -17.2936   22.0606 C   0  0  2  0  0  0  0  0  0  0  0  0
    9.3579  -16.8500   22.2370 N   0  0  0  0  0  0  0  0  0  0  0  0
   11.6228  -16.7167   23.0905 C   0  0  0  0  0  0  0  0  0  0  0  0
   11.8209  -15.4491   23.1075 O   0  0  0  0  0  0  0  0  0  0  0  0
   12.2892  -17.4547   24.0870 N   0  0  0  0  0  0  0  0  0  0  0  0
   13.3072  -16.8455   24.9582 C   0  0  1  0  0  0  0  0  0  0  0  0
   12.8747  -16.8719   26.3850 C   0  0  0  0  0  0  0  0  0  0  0  0
   12.1995  -15.6175   26.7831 C   0  0  0  0  0  0  0  0  0  0  0  0
   11.3472  -15.5542   27.8746 C   0  0  0  0  0  0  0  0  0  0  0  0
   10.7682  -14.3666   28.2098 C   0  0  0  0  0  0  0  0  0  0  0  0
   10.9718  -13.1877   27.5253 C   0  0  0  0  0  0  0  0  0  0  0  0
   11.8194  -13.2487   26.4393 C   0  0  0  0  0  0  0  0  0  0  0  0
   12.4182  -14.4514   26.0841 C   0  0  0  0  0  0  0  0  0  0  0  0
   14.5421  -17.6324   24.7907 C   0  0  0  0  0  0  0  0  0  0  0  0
   15.6253  -17.3905   25.3739 O   0  0  0  0  0  0  0  0  0  0  0  0
   14.5775  -18.7484   23.9294 O   0  0  0  0  0  0  0  0  0  0  0  0
  2  1  1  1
  2 13  1  0
  2  3  1  0
  3  4  1  0
  4  5  2  0
  5  6  1  0
  7  6  1  0
  8  7  2  0
  9  8  1  0
 10 11  1  0
 10  9  2  0
 11 12  2  0
 12  4  1  0
 12  7  1  0
 13 14  2  0
 16 15  1  0
 17 16  1  6
 18 13  1  0
 18 17  1  0
 19 20  2  0
 19 17  1  0
 21 19  1  0
 22 23  1  1
 22 21  1  0
 23 24  1  0
 24 29  1  0
 25 24  2  0
 26 25  1  0
 26 27  2  0
 27 28  1  0
 29 28  2  0
 30 22  1  0
 30 32  1  0
 31 30  2  0
M  END
$$$$
