WSF.pdb
     RDKit          3D

 32 34  0  0  1  0  0  0  0  0999 V2000
    8.8454  -17.7898   20.9709 N   0  0  0  0  0  0  0  0  0  0  0  0
    8.7940  -16.7999   22.0732 C   0  0  1  0  0  0  0  0  0  0  0  0
    7.4503  -16.2089   22.1014 C   0  0  0  0  0  0  0  0  0  0  0  0
    7.1408  -15.4656   20.8655 C   0  0  0  0  0  0  0  0  0  0  0  0
    6.4269  -15.9247   19.7787 C   0  0  0  0  0  0  0  0  0  0  0  0
    6.3612  -14.9766   18.8319 N   0  0  0  0  0  0  0  0  0  0  0  0
    7.0204  -13.8923   19.2705 C   0  0  0  0  0  0  0  0  0  0  0  0
    7.2763  -12.6434   18.7327 C   0  0  0  0  0  0  0  0  0  0  0  0
    8.0011  -11.6921   19.4215 C   0  0  0  0  0  0  0  0  0  0  0  0
    8.4920  -11.9731   20.6792 C   0  0  0  0  0  0  0  0  0  0  0  0
    8.2338  -13.2173   21.2081 C   0  0  0  0  0  0  0  0  0  0  0  0
    7.5091  -14.1699   20.5206 C   0  0  0  0  0  0  0  0  0  0  0  0
    9.3319  -17.4292   23.2571 C   0  0  0  0  0  0  0  0  0  0  0  0
    8.8879  -18.5924   23.5696 O   0  0  0  0  0  0  0  0  0  0  0  0
   12.3076  -18.7564   23.6488 O   0  0  0  0  0  0  0  0  0  0  0  0
   11.4296  -19.0343   24.6816 C   0  0  0  0  0  0  0  0  0  0  0  0
   10.8853  -17.7346   25.2220 C   0  0  2  0  0  0  0  0  0  0  0  0
   10.3081  -16.9348   24.1472 N   0  0  0  0  0  0  0  0  0  0  0  0
   11.8939  -16.9684   25.9802 C   0  0  0  0  0  0  0  0  0  0  0  0
   13.0485  -17.4879   26.1885 O   0  0  0  0  0  0  0  0  0  0  0  0
   11.6974  -15.6791   26.5100 N   0  0  0  0  0  0  0  0  0  0  0  0
   10.5452  -15.3560   27.3671 C   0  0  1  0  0  0  0  0  0  0  0  0
    9.2674  -15.4568   26.6051 C   0  0  0  0  0  0  0  0  0  0  0  0
    8.4731  -14.2117   26.6870 C   0  0  0  0  0  0  0  0  0  0  0  0
    9.0616  -12.9578   26.6318 C   0  0  0  0  0  0  0  0  0  0  0  0
    8.2794  -11.8429   26.6902 C   0  0  0  0  0  0  0  0  0  0  0  0
    6.9059  -11.8681   26.8033 C   0  0  0  0  0  0  0  0  0  0  0  0
    6.3188  -13.1146   26.8581 C   0  0  0  0  0  0  0  0  0  0  0  0
    7.1015  -14.2614   26.7996 C   0  0  0  0  0  0  0  0  0  0  0  0
   10.5494  -16.3270   28.4759 C   0  0  0  0  0  0  0  0  0  0  0  0
   10.7027  -16.0279   29.6838 O   0  0  0  0  0  0  0  0  0  0  0  0
   10.3741  -17.7047   28.2316 O   0  0  0  0  0  0  0  0  0  0  0  0
  2  1  1  6
  2 13  1  0
  2  3  1  0
  3  4  1  0
  4  5  2  0
  5  6  1  0
  7  6  1  0
  8  7  2  0
  9  8  1  0
 10 11  1  0
 10  9  2  0
 11 12  2  0
 12  4  1  0
 12  7  1  0
 13 14  2  0
 16 15  1  0
 17 16  1  6
 18 13  1  0
 18 17  1  0
 19 20  2  0
 19 17  1  0
 21 19  1  0
 22 23  1  6
 22 21  1  0
 23 24  1  0
 24 29  1  0
 25 24  2  0
 26 25  1  0
 26 27  2  0
 27 28  1  0
 29 28  2  0
 30 22  1  0
 30 32  1  0
 31 30  2  0
M  END
$$$$
