WSF.pdb
     RDKit          3D

 32 34  0  0  1  0  0  0  0  0999 V2000
    8.0724  -18.3842   22.1117 N   0  0  0  0  0  0  0  0  0  0  0  0
    8.7382  -17.1928   22.6902 C   0  0  1  0  0  0  0  0  0  0  0  0
    7.7165  -16.3622   23.3398 C   0  0  0  0  0  0  0  0  0  0  0  0
    7.0283  -15.4739   22.3844 C   0  0  0  0  0  0  0  0  0  0  0  0
    5.7242  -15.5770   21.9480 C   0  0  0  0  0  0  0  0  0  0  0  0
    5.4508  -14.6029   21.0669 N   0  0  0  0  0  0  0  0  0  0  0  0
    6.5525  -13.8519   20.9090 C   0  0  0  0  0  0  0  0  0  0  0  0
    6.8518  -12.7380   20.1447 C   0  0  0  0  0  0  0  0  0  0  0  0
    8.1007  -12.1515   20.1760 C   0  0  0  0  0  0  0  0  0  0  0  0
    9.0900  -12.6732   20.9828 C   0  0  0  0  0  0  0  0  0  0  0  0
    8.7854  -13.7812   21.7405 C   0  0  0  0  0  0  0  0  0  0  0  0
    7.5368  -14.3691   21.7103 C   0  0  0  0  0  0  0  0  0  0  0  0
    9.8841  -17.6490   23.4423 C   0  0  0  0  0  0  0  0  0  0  0  0
    9.7241  -18.6549   24.2237 O   0  0  0  0  0  0  0  0  0  0  0  0
   13.6027  -15.9887   23.3041 O   0  0  0  0  0  0  0  0  0  0  0  0
   13.5985  -17.2598   23.8512 C   0  0  0  0  0  0  0  0  0  0  0  0
   12.2202  -17.5536   24.3914 C   0  0  2  0  0  0  0  0  0  0  0  0
   11.1971  -17.1335   23.4402 N   0  0  0  0  0  0  0  0  0  0  0  0
   11.9936  -16.9579   25.7229 C   0  0  0  0  0  0  0  0  0  0  0  0
   12.7551  -16.0046   26.1203 O   0  0  0  0  0  0  0  0  0  0  0  0
   10.9854  -17.3526   26.6227 N   0  0  0  0  0  0  0  0  0  0  0  0
   10.8712  -16.7700   27.9695 C   0  0  1  0  0  0  0  0  0  0  0  0
    9.4982  -16.2389   28.2073 C   0  0  0  0  0  0  0  0  0  0  0  0
    9.1509  -15.1561   27.2614 C   0  0  0  0  0  0  0  0  0  0  0  0
    8.2563  -15.3468   26.2198 C   0  0  0  0  0  0  0  0  0  0  0  0
    7.9558  -14.3076   25.3904 C   0  0  0  0  0  0  0  0  0  0  0  0
    8.4900  -13.0429   25.5122 C   0  0  0  0  0  0  0  0  0  0  0  0
    9.3800  -12.8512   26.5480 C   0  0  0  0  0  0  0  0  0  0  0  0
    9.6972  -13.8998   27.4029 C   0  0  0  0  0  0  0  0  0  0  0  0
   11.1687  -17.8476   28.9300 C   0  0  0  0  0  0  0  0  0  0  0  0
   11.2212  -17.6984   30.1738 O   0  0  0  0  0  0  0  0  0  0  0  0
   11.4218  -19.1621   28.4868 O   0  0  0  0  0  0  0  0  0  0  0  0
  2  1  1  1
  2 13  1  0
  2  3  1  0
  3  4  1  0
  4  5  2  0
  5  6  1  0
  7  6  1  0
  8  7  2  0
  9  8  1  0
 10 11  1  0
 10  9  2  0
 11 12  2  0
 12  4  1  0
 12  7  1  0
 13 14  2  0
 16 15  1  0
 17 16  1  6
 18 13  1  0
 18 17  1  0
 19 20  2  0
 19 17  1  0
 21 19  1  0
 22 23  1  1
 22 21  1  0
 23 24  1  0
 24 29  1  0
 25 24  2  0
 26 25  1  0
 26 27  2  0
 27 28  1  0
 29 28  2  0
 30 22  1  0
 30 32  1  0
 31 30  2  0
M  END
$$$$
