WSF.pdb
     RDKit          3D

 32 34  0  0  1  0  0  0  0  0999 V2000
    7.7855  -17.5864   21.6910 N   0  0  0  0  0  0  0  0  0  0  0  0
    8.7311  -16.6453   22.3374 C   0  0  1  0  0  0  0  0  0  0  0  0
    7.9722  -15.4827   22.8149 C   0  0  0  0  0  0  0  0  0  0  0  0
    7.3664  -14.7182   21.7085 C   0  0  0  0  0  0  0  0  0  0  0  0
    6.0388  -14.7102   21.3357 C   0  0  0  0  0  0  0  0  0  0  0  0
    5.8594  -13.9105   20.2737 N   0  0  0  0  0  0  0  0  0  0  0  0
    7.0468  -13.3850   19.9324 C   0  0  0  0  0  0  0  0  0  0  0  0
    7.4597  -12.5129   18.9408 C   0  0  0  0  0  0  0  0  0  0  0  0
    8.7797  -12.1295   18.8160 C   0  0  0  0  0  0  0  0  0  0  0  0
    9.7273  -12.6164   19.6918 C   0  0  0  0  0  0  0  0  0  0  0  0
    9.3096  -13.4834   20.6758 C   0  0  0  0  0  0  0  0  0  0  0  0
    7.9899  -13.8679   20.8020 C   0  0  0  0  0  0  0  0  0  0  0  0
    9.5481  -17.4026   23.2573 C   0  0  0  0  0  0  0  0  0  0  0  0
    8.9491  -18.1093   24.1459 O   0  0  0  0  0  0  0  0  0  0  0  0
   13.7011  -17.5429   23.3767 O   0  0  0  0  0  0  0  0  0  0  0  0
   13.0257  -18.5427   24.0544 C   0  0  0  0  0  0  0  0  0  0  0  0
   11.6723  -18.0209   24.4709 C   0  0  2  0  0  0  0  0  0  0  0  0
   10.9550  -17.4819   23.3207 N   0  0  0  0  0  0  0  0  0  0  0  0
   11.7569  -17.0318   25.5635 C   0  0  0  0  0  0  0  0  0  0  0  0
   12.5595  -16.0375   25.4473 O   0  0  0  0  0  0  0  0  0  0  0  0
   11.0123  -17.0822   26.7572 N   0  0  0  0  0  0  0  0  0  0  0  0
   11.3873  -16.2955   27.9433 C   0  0  1  0  0  0  0  0  0  0  0  0
   11.1957  -14.8369   27.6997 C   0  0  0  0  0  0  0  0  0  0  0  0
    9.8236  -14.5265   27.2428 C   0  0  0  0  0  0  0  0  0  0  0  0
    9.1830  -13.3456   27.5847 C   0  0  0  0  0  0  0  0  0  0  0  0
    7.9259  -13.1011   27.1179 C   0  0  0  0  0  0  0  0  0  0  0  0
    7.2215  -13.9649   26.3070 C   0  0  0  0  0  0  0  0  0  0  0  0
    7.8572  -15.1400   25.9657 C   0  0  0  0  0  0  0  0  0  0  0  0
    9.1390  -15.4049   26.4328 C   0  0  0  0  0  0  0  0  0  0  0  0
   10.5174  -16.7413   29.0465 C   0  0  0  0  0  0  0  0  0  0  0  0
    9.6282  -17.6190   28.9421 O   0  0  0  0  0  0  0  0  0  0  0  0
   10.6405  -16.1830   30.3355 O   0  0  0  0  0  0  0  0  0  0  0  0
  2  1  1  1
  2 13  1  0
  2  3  1  0
  3  4  1  0
  4  5  2  0
  5  6  1  0
  7  6  1  0
  8  7  2  0
  9  8  1  0
 10 11  1  0
 10  9  2  0
 11 12  2  0
 12  4  1  0
 12  7  1  0
 13 14  2  0
 16 15  1  0
 17 16  1  6
 18 13  1  0
 18 17  1  0
 19 20  2  0
 19 17  1  0
 21 19  1  0
 22 23  1  6
 22 21  1  0
 23 24  1  0
 24 29  1  0
 25 24  2  0
 26 25  1  0
 26 27  2  0
 27 28  1  0
 29 28  2  0
 30 22  1  0
 30 32  1  0
 31 30  2  0
M  END
$$$$
