WSF.pdb
     RDKit          3D

 32 34  0  0  1  0  0  0  0  0999 V2000
    8.2176  -18.0909   21.1789 N   0  0  0  0  0  0  0  0  0  0  0  0
    9.1567  -17.1143   21.7807 C   0  0  1  0  0  0  0  0  0  0  0  0
    8.3749  -16.1212   22.5277 C   0  0  0  0  0  0  0  0  0  0  0  0
    7.5469  -15.2810   21.6423 C   0  0  0  0  0  0  0  0  0  0  0  0
    6.1784  -15.3419   21.4831 C   0  0  0  0  0  0  0  0  0  0  0  0
    5.7750  -14.4354   20.5801 N   0  0  0  0  0  0  0  0  0  0  0  0
    6.8533  -13.7710   20.1346 C   0  0  0  0  0  0  0  0  0  0  0  0
    7.0398  -12.7505   19.2191 C   0  0  0  0  0  0  0  0  0  0  0  0
    8.2933  -12.2418   18.9457 C   0  0  0  0  0  0  0  0  0  0  0  0
    9.4016  -12.7495   19.5905 C   0  0  0  0  0  0  0  0  0  0  0  0
    9.2089  -13.7645   20.4999 C   0  0  0  0  0  0  0  0  0  0  0  0
    7.9559  -14.2744   20.7745 C   0  0  0  0  0  0  0  0  0  0  0  0
   10.2025  -17.8584   22.4437 C   0  0  0  0  0  0  0  0  0  0  0  0
    9.8918  -18.5082   23.5064 O   0  0  0  0  0  0  0  0  0  0  0  0
   14.1269  -17.2639   21.6492 O   0  0  0  0  0  0  0  0  0  0  0  0
   13.9393  -18.4629   22.3143 C   0  0  0  0  0  0  0  0  0  0  0  0
   12.5952  -18.4350   23.0001 C   0  0  2  0  0  0  0  0  0  0  0  0
   11.5597  -17.9798   22.0790 N   0  0  0  0  0  0  0  0  0  0  0  0
   12.6060  -17.6298   24.2374 C   0  0  0  0  0  0  0  0  0  0  0  0
   13.1056  -16.4483   24.2114 O   0  0  0  0  0  0  0  0  0  0  0  0
   12.1004  -18.0542   25.4808 N   0  0  0  0  0  0  0  0  0  0  0  0
   11.6580  -17.0988   26.5093 C   0  0  1  0  0  0  0  0  0  0  0  0
   10.6037  -16.1892   25.9757 C   0  0  0  0  0  0  0  0  0  0  0  0
   10.0128  -15.3433   27.0354 C   0  0  0  0  0  0  0  0  0  0  0  0
   10.7076  -15.0158   28.1895 C   0  0  0  0  0  0  0  0  0  0  0  0
   10.1224  -14.2145   29.1241 C   0  0  0  0  0  0  0  0  0  0  0  0
    8.8537  -13.6889   29.0056 C   0  0  0  0  0  0  0  0  0  0  0  0
    8.1612  -14.0134   27.8582 C   0  0  0  0  0  0  0  0  0  0  0  0
    8.7431  -14.8289   26.8951 C   0  0  0  0  0  0  0  0  0  0  0  0
   11.1204  -17.8920   27.6292 C   0  0  0  0  0  0  0  0  0  0  0  0
   11.3823  -17.6862   28.8379 O   0  0  0  0  0  0  0  0  0  0  0  0
   10.2447  -18.9723   27.3957 O   0  0  0  0  0  0  0  0  0  0  0  0
  2  1  1  1
  2 13  1  0
  2  3  1  0
  3  4  1  0
  4  5  2  0
  5  6  1  0
  7  6  1  0
  8  7  2  0
  9  8  1  0
 10 11  1  0
 10  9  2  0
 11 12  2  0
 12  4  1  0
 12  7  1  0
 13 14  2  0
 16 15  1  0
 17 16  1  6
 18 13  1  0
 18 17  1  0
 19 20  2  0
 19 17  1  0
 21 19  1  0
 22 23  1  6
 22 21  1  0
 23 24  1  0
 24 29  1  0
 25 24  2  0
 26 25  1  0
 26 27  2  0
 27 28  1  0
 29 28  2  0
 30 22  1  0
 30 32  1  0
 31 30  2  0
M  END
$$$$
