WSF.pdb
     RDKit          3D

 32 34  0  0  1  0  0  0  0  0999 V2000
    6.5040  -17.1556   23.7315 N   0  0  0  0  0  0  0  0  0  0  0  0
    7.8377  -16.5114   23.6692 C   0  0  1  0  0  0  0  0  0  0  0  0
    7.7508  -15.2039   24.3316 C   0  0  0  0  0  0  0  0  0  0  0  0
    7.1198  -14.1837   23.4735 C   0  0  0  0  0  0  0  0  0  0  0  0
    5.9840  -13.4530   23.7524 C   0  0  0  0  0  0  0  0  0  0  0  0
    5.6974  -12.6319   22.7309 N   0  0  0  0  0  0  0  0  0  0  0  0
    6.6245  -12.8038   21.7751 C   0  0  0  0  0  0  0  0  0  0  0  0
    6.8320  -12.2401   20.5286 C   0  0  0  0  0  0  0  0  0  0  0  0
    7.8962  -12.6127   19.7326 C   0  0  0  0  0  0  0  0  0  0  0  0
    8.7870  -13.5694   20.1717 C   0  0  0  0  0  0  0  0  0  0  0  0
    8.5746  -14.1259   21.4125 C   0  0  0  0  0  0  0  0  0  0  0  0
    7.5108  -13.7545   22.2100 C   0  0  0  0  0  0  0  0  0  0  0  0
    8.8166  -17.4796   24.1066 C   0  0  0  0  0  0  0  0  0  0  0  0
    8.5623  -18.1461   25.1738 O   0  0  0  0  0  0  0  0  0  0  0  0
   12.4978  -17.7343   22.4370 O   0  0  0  0  0  0  0  0  0  0  0  0
   12.2763  -18.7891   23.3050 C   0  0  0  0  0  0  0  0  0  0  0  0
   11.1540  -18.4204   24.2441 C   0  0  2  0  0  0  0  0  0  0  0  0
   10.0509  -17.8108   23.5095 N   0  0  0  0  0  0  0  0  0  0  0  0
   11.6031  -17.5567   25.3539 C   0  0  0  0  0  0  0  0  0  0  0  0
   12.3458  -16.5424   25.0970 O   0  0  0  0  0  0  0  0  0  0  0  0
   11.2786  -17.7510   26.7099 N   0  0  0  0  0  0  0  0  0  0  0  0
   12.1247  -17.2305   27.7960 C   0  0  1  0  0  0  0  0  0  0  0  0
   12.2173  -15.7435   27.7355 C   0  0  0  0  0  0  0  0  0  0  0  0
   10.8876  -15.1101   27.5994 C   0  0  0  0  0  0  0  0  0  0  0  0
   10.6324  -13.8273   28.0589 C   0  0  0  0  0  0  0  0  0  0  0  0
    9.3939  -13.2841   27.8880 C   0  0  0  0  0  0  0  0  0  0  0  0
    8.3439  -13.9328   27.2744 C   0  0  0  0  0  0  0  0  0  0  0  0
    8.5961  -15.2088   26.8165 C   0  0  0  0  0  0  0  0  0  0  0  0
    9.8531  -15.7776   26.9824 C   0  0  0  0  0  0  0  0  0  0  0  0
   11.4990  -17.6459   29.0642 C   0  0  0  0  0  0  0  0  0  0  0  0
   11.9599  -17.3921   30.2023 O   0  0  0  0  0  0  0  0  0  0  0  0
   10.2968  -18.3828   29.0704 O   0  0  0  0  0  0  0  0  0  0  0  0
  2  1  1  1
  2 13  1  0
  2  3  1  0
  3  4  1  0
  4  5  2  0
  5  6  1  0
  7  6  1  0
  8  7  2  0
  9  8  1  0
 10 11  1  0
 10  9  2  0
 11 12  2  0
 12  4  1  0
 12  7  1  0
 13 14  2  0
 16 15  1  0
 17 16  1  6
 18 13  1  0
 18 17  1  0
 19 20  2  0
 19 17  1  0
 21 19  1  0
 22 23  1  1
 22 21  1  0
 23 24  1  0
 24 29  1  0
 25 24  2  0
 26 25  1  0
 26 27  2  0
 27 28  1  0
 29 28  2  0
 30 22  1  0
 30 32  1  0
 31 30  2  0
M  END
$$$$
