WSF.pdb
     RDKit          3D

 32 34  0  0  1  0  0  0  0  0999 V2000
    6.4288  -17.9428   24.9380 N   0  0  0  0  0  0  0  0  0  0  0  0
    7.5489  -17.0291   24.6094 C   0  0  1  0  0  0  0  0  0  0  0  0
    7.6719  -16.0417   25.6891 C   0  0  0  0  0  0  0  0  0  0  0  0
    6.9640  -14.7851   25.3805 C   0  0  0  0  0  0  0  0  0  0  0  0
    5.8161  -14.3114   25.9801 C   0  0  0  0  0  0  0  0  0  0  0  0
    5.4518  -13.1440   25.4286 N   0  0  0  0  0  0  0  0  0  0  0  0
    6.3390  -12.8318   24.4705 C   0  0  0  0  0  0  0  0  0  0  0  0
    6.4671  -11.7710   23.5915 C   0  0  0  0  0  0  0  0  0  0  0  0
    7.5060  -11.7014   22.6856 C   0  0  0  0  0  0  0  0  0  0  0  0
    8.4514  -12.7044   22.6388 C   0  0  0  0  0  0  0  0  0  0  0  0
    8.3179  -13.7566   23.5160 C   0  0  0  0  0  0  0  0  0  0  0  0
    7.2794  -13.8278   24.4226 C   0  0  0  0  0  0  0  0  0  0  0  0
    8.6856  -17.8397   24.2381 C   0  0  0  0  0  0  0  0  0  0  0  0
    8.9004  -18.9115   24.9112 O   0  0  0  0  0  0  0  0  0  0  0  0
   11.2637  -16.7831   21.3452 O   0  0  0  0  0  0  0  0  0  0  0  0
   11.6286  -18.0083   21.8751 C   0  0  0  0  0  0  0  0  0  0  0  0
   10.9725  -18.1708   23.2245 C   0  0  2  0  0  0  0  0  0  0  0  0
    9.6229  -17.6175   23.2077 N   0  0  0  0  0  0  0  0  0  0  0  0
   11.7766  -17.5937   24.3197 C   0  0  0  0  0  0  0  0  0  0  0  0
   12.6534  -16.6972   24.0477 O   0  0  0  0  0  0  0  0  0  0  0  0
   11.6633  -17.9480   25.6774 N   0  0  0  0  0  0  0  0  0  0  0  0
   12.6438  -17.5066   26.6825 C   0  0  1  0  0  0  0  0  0  0  0  0
   12.8186  -16.0262   26.6444 C   0  0  0  0  0  0  0  0  0  0  0  0
   11.5537  -15.3111   26.9209 C   0  0  0  0  0  0  0  0  0  0  0  0
   10.7945  -14.7401   25.9113 C   0  0  0  0  0  0  0  0  0  0  0  0
    9.6253  -14.1112   26.2205 C   0  0  0  0  0  0  0  0  0  0  0  0
    9.1251  -13.9962   27.4997 C   0  0  0  0  0  0  0  0  0  0  0  0
    9.8788  -14.5638   28.5053 C   0  0  0  0  0  0  0  0  0  0  0  0
   11.0730  -15.2089   28.2074 C   0  0  0  0  0  0  0  0  0  0  0  0
   12.1248  -17.9196   27.9987 C   0  0  0  0  0  0  0  0  0  0  0  0
   11.0071  -18.4556   28.1873 O   0  0  0  0  0  0  0  0  0  0  0  0
   12.8870  -17.7278   29.1695 O   0  0  0  0  0  0  0  0  0  0  0  0
  2  1  1  1
  2 13  1  0
  2  3  1  0
  3  4  1  0
  4  5  2  0
  5  6  1  0
  7  6  1  0
  8  7  2  0
  9  8  1  0
 10 11  1  0
 10  9  2  0
 11 12  2  0
 12  4  1  0
 12  7  1  0
 13 14  2  0
 16 15  1  0
 17 16  1  6
 18 13  1  0
 18 17  1  0
 19 20  2  0
 19 17  1  0
 21 19  1  0
 22 23  1  1
 22 21  1  0
 23 24  1  0
 24 29  1  0
 25 24  2  0
 26 25  1  0
 26 27  2  0
 27 28  1  0
 29 28  2  0
 30 22  1  0
 30 32  1  0
 31 30  2  0
M  END
$$$$
