WSF.pdb
     RDKit          3D

 32 34  0  0  1  0  0  0  0  0999 V2000
    7.2250  -18.7739   20.6364 N   0  0  0  0  0  0  0  0  0  0  0  0
    8.4694  -17.9692   20.6748 C   0  0  1  0  0  0  0  0  0  0  0  0
    8.1900  -16.6572   20.0779 C   0  0  0  0  0  0  0  0  0  0  0  0
    7.7914  -15.6578   21.0867 C   0  0  0  0  0  0  0  0  0  0  0  0
    7.1246  -15.8949   22.2703 C   0  0  0  0  0  0  0  0  0  0  0  0
    6.9166  -14.7427   22.9251 N   0  0  0  0  0  0  0  0  0  0  0  0
    7.4343  -13.7408   22.1966 C   0  0  0  0  0  0  0  0  0  0  0  0
    7.5127  -12.3704   22.3703 C   0  0  0  0  0  0  0  0  0  0  0  0
    8.1180  -11.5545   21.4360 C   0  0  0  0  0  0  0  0  0  0  0  0
    8.6651  -12.0989   20.2931 C   0  0  0  0  0  0  0  0  0  0  0  0
    8.5836  -13.4628   20.1267 C   0  0  0  0  0  0  0  0  0  0  0  0
    7.9785  -14.2802   21.0601 C   0  0  0  0  0  0  0  0  0  0  0  0
    9.0094  -18.0547   22.0120 C   0  0  0  0  0  0  0  0  0  0  0  0
    8.2036  -17.8727   22.9946 O   0  0  0  0  0  0  0  0  0  0  0  0
   12.9689  -18.7923   23.1133 O   0  0  0  0  0  0  0  0  0  0  0  0
   11.9728  -19.3055   23.9253 C   0  0  0  0  0  0  0  0  0  0  0  0
   10.7464  -18.4345   23.8024 C   0  0  2  0  0  0  0  0  0  0  0  0
   10.3373  -18.3201   22.4069 N   0  0  0  0  0  0  0  0  0  0  0  0
   10.9296  -17.1060   24.4196 C   0  0  0  0  0  0  0  0  0  0  0  0
   11.4025  -16.1463   23.7114 O   0  0  0  0  0  0  0  0  0  0  0  0
   10.6211  -16.7875   25.7557 N   0  0  0  0  0  0  0  0  0  0  0  0
   11.2911  -15.6883   26.4694 C   0  0  1  0  0  0  0  0  0  0  0  0
   10.8263  -14.3634   25.9675 C   0  0  0  0  0  0  0  0  0  0  0  0
    9.3747  -14.1697   26.1754 C   0  0  0  0  0  0  0  0  0  0  0  0
    8.4266  -14.8171   25.3984 C   0  0  0  0  0  0  0  0  0  0  0  0
    7.1012  -14.6187   25.6476 C   0  0  0  0  0  0  0  0  0  0  0  0
    6.6171  -13.7983   26.6438 C   0  0  0  0  0  0  0  0  0  0  0  0
    7.5588  -13.1536   27.4179 C   0  0  0  0  0  0  0  0  0  0  0  0
    8.9140  -13.3450   27.1774 C   0  0  0  0  0  0  0  0  0  0  0  0
   10.9530  -15.8341   27.8966 C   0  0  0  0  0  0  0  0  0  0  0  0
   11.3335  -15.0545   28.8018 O   0  0  0  0  0  0  0  0  0  0  0  0
   10.1491  -16.9027   28.3440 O   0  0  0  0  0  0  0  0  0  0  0  0
  2  1  1  1
  2 13  1  0
  2  3  1  0
  3  4  1  0
  4  5  2  0
  5  6  1  0
  7  6  1  0
  8  7  2  0
  9  8  1  0
 10 11  1  0
 10  9  2  0
 11 12  2  0
 12  4  1  0
 12  7  1  0
 13 14  2  0
 16 15  1  0
 17 16  1  6
 18 13  1  0
 18 17  1  0
 19 20  2  0
 19 17  1  0
 21 19  1  0
 22 23  1  6
 22 21  1  0
 23 24  1  0
 24 29  1  0
 25 24  2  0
 26 25  1  0
 26 27  2  0
 27 28  1  0
 29 28  2  0
 30 22  1  0
 30 32  1  0
 31 30  2  0
M  END
$$$$
