GIE.pdb
     RDKit          3D

 22 21  0  0  1  0  0  0  0  0999 V2000
   17.5690   -9.2549  -11.0397 N   0  0  0  0  0  0  0  0  0  0  0  0
   17.8557   -9.3238  -12.4493 C   0  0  0  0  0  0  0  0  0  0  0  0
   19.1784   -8.6629  -12.6954 C   0  0  0  0  0  0  0  0  0  0  0  0
   19.4623   -7.6905  -11.9633 O   0  0  0  0  0  0  0  0  0  0  0  0
   22.3408  -12.0369  -14.0138 C   0  0  0  0  0  0  0  0  0  0  0  0
   22.4727  -10.6000  -13.5420 C   0  0  0  0  0  0  0  0  0  0  0  0
   22.1565   -9.6325  -14.6837 C   0  0  2  0  0  0  0  0  0  0  0  0
   23.4841   -9.1350  -15.2266 C   0  0  0  0  0  0  0  0  0  0  0  0
   21.2659   -8.5698  -14.1370 C   0  0  2  0  0  0  0  0  0  0  0  0
   20.0140   -9.1680  -13.7230 N   0  0  0  0  0  0  0  0  0  0  0  0
   21.0456   -7.3942  -14.9781 C   0  0  0  0  0  0  0  0  0  0  0  0
   20.3484   -7.5401  -16.0153 O   0  0  0  0  0  0  0  0  0  0  0  0
   21.5582   -6.1104  -14.7063 N   0  0  0  0  0  0  0  0  0  0  0  0
   21.3658   -4.9561  -15.5856 C   0  0  1  0  0  0  0  0  0  0  0  0
   20.2669   -4.1433  -14.9977 C   0  0  0  0  0  0  0  0  0  0  0  0
   19.9453   -2.8535  -15.6686 C   0  0  0  0  0  0  0  0  0  0  0  0
   18.8804   -2.1348  -14.9653 C   0  0  0  0  0  0  0  0  0  0  0  0
   18.8568   -2.0304  -13.7265 O   0  0  0  0  0  0  0  0  0  0  0  0
   22.6149   -4.1367  -15.6995 C   0  0  0  0  0  0  0  0  0  0  0  0
   23.4272   -4.0402  -14.7463 O   0  0  0  0  0  0  0  0  0  0  0  0
   17.8521   -1.5453  -15.7295 O   0  0  0  0  0  0  0  0  0  0  0  0
   22.9514   -3.4377  -16.8476 O   0  0  0  0  0  0  0  0  0  0  0  0
  2  3  1  0
  2  1  1  0
  3 10  1  0
  4  3  2  0
  6  5  1  0
  7  6  1  0
  7  8  1  1
  9  7  1  0
  9 11  1  0
  9 10  1  6
 11 13  1  0
 11 12  2  0
 13 14  1  0
 14 19  1  0
 14 15  1  1
 16 15  1  0
 17 21  1  0
 17 16  1  0
 18 17  2  0
 19 22  1  0
 20 19  2  0
M  END
$$$$
