GIE.pdb
     RDKit          3D

 22 21  0  0  1  0  0  0  0  0999 V2000
   28.1283  -21.4552  -15.6503 N   0  0  0  0  0  0  0  0  0  0  0  0
   27.5983  -20.5170  -14.6951 C   0  0  0  0  0  0  0  0  0  0  0  0
   26.4308  -21.1546  -14.0041 C   0  0  0  0  0  0  0  0  0  0  0  0
   25.8554  -22.0793  -14.6170 O   0  0  0  0  0  0  0  0  0  0  0  0
   26.5082  -20.7403   -8.7159 C   0  0  0  0  0  0  0  0  0  0  0  0
   26.1087  -21.3478  -10.0486 C   0  0  0  0  0  0  0  0  0  0  0  0
   24.8976  -20.6145  -10.6275 C   0  0  2  0  0  0  0  0  0  0  0  0
   23.6963  -21.0044   -9.7850 C   0  0  0  0  0  0  0  0  0  0  0  0
   24.7975  -20.9823  -12.0683 C   0  0  2  0  0  0  0  0  0  0  0  0
   26.0541  -20.6820  -12.7219 N   0  0  0  0  0  0  0  0  0  0  0  0
   23.6629  -20.4376  -12.8126 C   0  0  0  0  0  0  0  0  0  0  0  0
   23.6768  -19.2086  -13.0824 O   0  0  0  0  0  0  0  0  0  0  0  0
   22.5574  -21.1937  -13.2497 N   0  0  0  0  0  0  0  0  0  0  0  0
   21.4318  -20.6296  -13.9964 C   0  0  1  0  0  0  0  0  0  0  0  0
   21.3890  -21.3303  -15.3084 C   0  0  0  0  0  0  0  0  0  0  0  0
   20.2970  -20.9470  -16.2452 C   0  0  0  0  0  0  0  0  0  0  0  0
   20.3089  -21.7787  -17.4507 C   0  0  0  0  0  0  0  0  0  0  0  0
   19.4370  -22.6369  -17.6730 O   0  0  0  0  0  0  0  0  0  0  0  0
   20.1376  -20.8158  -13.2651 C   0  0  0  0  0  0  0  0  0  0  0  0
   19.9511  -21.7918  -12.4966 O   0  0  0  0  0  0  0  0  0  0  0  0
   21.3495  -21.5910  -18.3838 O   0  0  0  0  0  0  0  0  0  0  0  0
   19.0732  -19.9373  -13.3882 O   0  0  0  0  0  0  0  0  0  0  0  0
  2  3  1  0
  2  1  1  0
  3 10  1  0
  4  3  2  0
  6  5  1  0
  7  6  1  0
  7  8  1  1
  9  7  1  0
  9 11  1  0
  9 10  1  6
 11 13  1  0
 11 12  2  0
 13 14  1  0
 14 19  1  0
 14 15  1  6
 16 15  1  0
 17 21  1  0
 17 16  1  0
 18 17  2  0
 19 22  1  0
 20 19  2  0
M  END
$$$$
