GIE.pdb
     RDKit          3D

 22 21  0  0  1  0  0  0  0  0999 V2000
   15.0670  -26.8246    0.8726 N   0  0  0  0  0  0  0  0  0  0  0  0
   15.6261  -25.5572    1.2662 C   0  0  0  0  0  0  0  0  0  0  0  0
   16.4692  -25.7713    2.4869 C   0  0  0  0  0  0  0  0  0  0  0  0
   16.1413  -26.7181    3.2339 O   0  0  0  0  0  0  0  0  0  0  0  0
   21.5661  -24.8666    1.6504 C   0  0  0  0  0  0  0  0  0  0  0  0
   20.3143  -25.4394    2.2905 C   0  0  0  0  0  0  0  0  0  0  0  0
   19.8256  -24.5268    3.4165 C   0  0  2  0  0  0  0  0  0  0  0  0
   20.8837  -24.5562    4.5047 C   0  0  0  0  0  0  0  0  0  0  0  0
   18.4814  -25.0143    3.8371 C   0  0  2  0  0  0  0  0  0  0  0  0
   17.5674  -24.9056    2.7194 N   0  0  0  0  0  0  0  0  0  0  0  0
   17.9153  -24.4280    5.0511 C   0  0  0  0  0  0  0  0  0  0  0  0
   17.5431  -23.2270    5.0014 O   0  0  0  0  0  0  0  0  0  0  0  0
   17.7563  -25.1151    6.2707 N   0  0  0  0  0  0  0  0  0  0  0  0
   17.2232  -24.4987    7.4866 C   0  0  1  0  0  0  0  0  0  0  0  0
   16.4678  -25.5559    8.2117 C   0  0  0  0  0  0  0  0  0  0  0  0
   15.0922  -25.8573    7.7281 C   0  0  0  0  0  0  0  0  0  0  0  0
   15.1093  -26.8416    6.6435 C   0  0  0  0  0  0  0  0  0  0  0  0
   15.8500  -27.8400    6.6658 O   0  0  0  0  0  0  0  0  0  0  0  0
   18.3176  -23.9547    8.3532 C   0  0  0  0  0  0  0  0  0  0  0  0
   19.5287  -24.1498    8.0830 O   0  0  0  0  0  0  0  0  0  0  0  0
   14.2525  -26.6395    5.5418 O   0  0  0  0  0  0  0  0  0  0  0  0
   18.0701  -23.2125    9.4968 O   0  0  0  0  0  0  0  0  0  0  0  0
  2  3  1  0
  2  1  1  0
  3 10  1  0
  4  3  2  0
  6  5  1  0
  7  6  1  0
  7  8  1  1
  9  7  1  0
  9 11  1  0
  9 10  1  6
 11 13  1  0
 11 12  2  0
 13 14  1  0
 14 19  1  0
 14 15  1  1
 16 15  1  0
 17 21  1  0
 17 16  1  0
 18 17  2  0
 19 22  1  0
 20 19  2  0
M  END
$$$$
