GIE.pdb
     RDKit          3D

 22 21  0  0  1  0  0  0  0  0999 V2000
   28.9342  -24.3244  -15.6574 N   0  0  0  0  0  0  0  0  0  0  0  0
   28.7241  -22.9209  -15.4126 C   0  0  0  0  0  0  0  0  0  0  0  0
   27.5108  -22.7689  -14.5455 C   0  0  0  0  0  0  0  0  0  0  0  0
   26.7894  -23.7805  -14.4112 O   0  0  0  0  0  0  0  0  0  0  0  0
   25.5805  -21.0466   -9.8555 C   0  0  0  0  0  0  0  0  0  0  0  0
   25.4894  -20.0574  -11.0034 C   0  0  0  0  0  0  0  0  0  0  0  0
   26.6408  -20.2740  -11.9868 C   0  0  2  0  0  0  0  0  0  0  0  0
   27.0273  -18.9092  -12.5278 C   0  0  0  0  0  0  0  0  0  0  0  0
   26.1744  -21.2461  -13.0158 C   0  0  2  0  0  0  0  0  0  0  0  0
   27.2566  -21.5126  -13.9402 N   0  0  0  0  0  0  0  0  0  0  0  0
   24.9358  -20.9194  -13.7209 C   0  0  0  0  0  0  0  0  0  0  0  0
   25.0241  -20.2238  -14.7656 O   0  0  0  0  0  0  0  0  0  0  0  0
   23.6519  -21.3313  -13.3124 N   0  0  0  0  0  0  0  0  0  0  0  0
   22.4246  -21.0059  -14.0408 C   0  0  1  0  0  0  0  0  0  0  0  0
   21.5323  -22.1919  -13.9356 C   0  0  0  0  0  0  0  0  0  0  0  0
   20.1616  -22.0601  -14.5022 C   0  0  0  0  0  0  0  0  0  0  0  0
   19.2744  -23.1161  -14.0091 C   0  0  0  0  0  0  0  0  0  0  0  0
   18.0384  -23.0533  -14.1288 O   0  0  0  0  0  0  0  0  0  0  0  0
   21.7504  -19.7957  -13.4702 C   0  0  0  0  0  0  0  0  0  0  0  0
   21.8187  -19.5206  -12.2465 O   0  0  0  0  0  0  0  0  0  0  0  0
   19.8530  -24.2371  -13.3788 O   0  0  0  0  0  0  0  0  0  0  0  0
   21.0140  -18.9127  -14.2434 O   0  0  0  0  0  0  0  0  0  0  0  0
  2  3  1  0
  2  1  1  0
  3 10  1  0
  4  3  2  0
  6  5  1  0
  7  6  1  0
  7  8  1  6
  9  7  1  0
  9 11  1  0
  9 10  1  6
 11 13  1  0
 11 12  2  0
 13 14  1  0
 14 19  1  0
 14 15  1  1
 16 15  1  0
 17 21  1  0
 17 16  1  0
 18 17  2  0
 19 22  1  0
 20 19  2  0
M  END
$$$$
