GIE.pdb
     RDKit          3D

 22 21  0  0  1  0  0  0  0  0999 V2000
   16.7404  -14.0451  -15.1076 N   0  0  0  0  0  0  0  0  0  0  0  0
   15.9772  -13.0865  -14.3511 C   0  0  0  0  0  0  0  0  0  0  0  0
   16.2826  -11.7170  -14.8788 C   0  0  0  0  0  0  0  0  0  0  0  0
   17.2034  -11.6345  -15.7197 O   0  0  0  0  0  0  0  0  0  0  0  0
   12.1677   -9.6223  -14.7800 C   0  0  0  0  0  0  0  0  0  0  0  0
   13.3682   -9.1445  -15.5770 C   0  0  0  0  0  0  0  0  0  0  0  0
   14.4081   -8.5145  -14.6489 C   0  0  2  0  0  0  0  0  0  0  0  0
   14.4631   -7.0342  -14.9813 C   0  0  0  0  0  0  0  0  0  0  0  0
   15.6897   -9.2488  -14.8478 C   0  0  2  0  0  0  0  0  0  0  0  0
   15.5252  -10.6170  -14.4036 N   0  0  0  0  0  0  0  0  0  0  0  0
   16.8939   -8.6428  -14.2815 C   0  0  0  0  0  0  0  0  0  0  0  0
   17.0011   -8.6170  -13.0281 O   0  0  0  0  0  0  0  0  0  0  0  0
   17.9421   -8.0880  -15.0420 N   0  0  0  0  0  0  0  0  0  0  0  0
   19.1366   -7.4782  -14.4554 C   0  0  1  0  0  0  0  0  0  0  0  0
   20.3101   -8.0614  -15.1602 C   0  0  0  0  0  0  0  0  0  0  0  0
   21.6578   -7.5985  -14.7283 C   0  0  0  0  0  0  0  0  0  0  0  0
   22.7199   -8.2483  -15.4996 C   0  0  0  0  0  0  0  0  0  0  0  0
   23.3368   -7.6603  -16.4049 O   0  0  0  0  0  0  0  0  0  0  0  0
   19.1256   -5.9880  -14.6091 C   0  0  0  0  0  0  0  0  0  0  0  0
   18.4622   -5.4252  -15.5152 O   0  0  0  0  0  0  0  0  0  0  0  0
   23.0452   -9.5866  -15.1963 O   0  0  0  0  0  0  0  0  0  0  0  0
   19.8393   -5.1426  -13.7749 O   0  0  0  0  0  0  0  0  0  0  0  0
  2  3  1  0
  2  1  1  0
  3 10  1  0
  4  3  2  0
  6  5  1  0
  7  6  1  0
  7  8  1  6
  9  7  1  0
  9 11  1  0
  9 10  1  1
 11 13  1  0
 11 12  2  0
 13 14  1  0
 14 19  1  0
 14 15  1  6
 16 15  1  0
 17 21  1  0
 17 16  1  0
 18 17  2  0
 19 22  1  0
 20 19  2  0
M  END
$$$$
