GIE.pdb
     RDKit          3D

 22 21  0  0  1  0  0  0  0  0999 V2000
   20.8746  -22.7172   -6.6974 N   0  0  0  0  0  0  0  0  0  0  0  0
   22.2941  -22.8455   -6.9031 C   0  0  0  0  0  0  0  0  0  0  0  0
   22.7498  -21.7136   -7.7738 C   0  0  0  0  0  0  0  0  0  0  0  0
   21.8680  -21.1326   -8.4423 O   0  0  0  0  0  0  0  0  0  0  0  0
   27.3065  -19.2175   -6.2565 C   0  0  0  0  0  0  0  0  0  0  0  0
   25.9465  -19.5084   -6.8651 C   0  0  0  0  0  0  0  0  0  0  0  0
   26.1052  -20.1137   -8.2609 C   0  0  2  0  0  0  0  0  0  0  0  0
   26.8297  -19.0864   -9.1121 C   0  0  0  0  0  0  0  0  0  0  0  0
   24.7453  -20.4824   -8.7468 C   0  0  2  0  0  0  0  0  0  0  0  0
   24.1260  -21.3742   -7.7889 N   0  0  0  0  0  0  0  0  0  0  0  0
   24.6494  -21.0079  -10.1079 C   0  0  0  0  0  0  0  0  0  0  0  0
   24.7301  -22.2543  -10.2601 O   0  0  0  0  0  0  0  0  0  0  0  0
   24.4710  -20.2156  -11.2591 N   0  0  0  0  0  0  0  0  0  0  0  0
   23.9717  -20.7352  -12.5333 C   0  0  1  0  0  0  0  0  0  0  0  0
   22.5977  -21.2482  -12.2822 C   0  0  0  0  0  0  0  0  0  0  0  0
   21.8519  -21.7871  -13.4529 C   0  0  0  0  0  0  0  0  0  0  0  0
   20.4214  -21.4863  -13.3613 C   0  0  0  0  0  0  0  0  0  0  0  0
   19.8998  -20.5469  -13.9870 O   0  0  0  0  0  0  0  0  0  0  0  0
   23.9451  -19.6721  -13.5886 C   0  0  0  0  0  0  0  0  0  0  0  0
   23.5318  -18.5117  -13.3428 O   0  0  0  0  0  0  0  0  0  0  0  0
   19.6182  -22.2964  -12.5321 O   0  0  0  0  0  0  0  0  0  0  0  0
   24.3660  -19.8960  -14.8896 O   0  0  0  0  0  0  0  0  0  0  0  0
  2  3  1  0
  2  1  1  0
  3 10  1  0
  4  3  2  0
  6  5  1  0
  7  6  1  0
  7  8  1  6
  9  7  1  0
  9 11  1  0
  9 10  1  1
 11 13  1  0
 11 12  2  0
 13 14  1  0
 14 19  1  0
 14 15  1  1
 16 15  1  0
 17 21  1  0
 17 16  1  0
 18 17  2  0
 19 22  1  0
 20 19  2  0
M  END
$$$$
