GIE.pdb
     RDKit          3D

 22 21  0  0  1  0  0  0  0  0999 V2000
   28.4608  -20.9478  -15.2184 N   0  0  0  0  0  0  0  0  0  0  0  0
   28.0672  -20.0731  -14.1443 C   0  0  0  0  0  0  0  0  0  0  0  0
   27.0299  -20.7740  -13.3199 C   0  0  0  0  0  0  0  0  0  0  0  0
   26.4427  -21.7359  -13.8601 O   0  0  0  0  0  0  0  0  0  0  0  0
   27.7704  -20.3849   -8.1167 C   0  0  0  0  0  0  0  0  0  0  0  0
   27.2819  -20.9302   -9.4466 C   0  0  0  0  0  0  0  0  0  0  0  0
   25.8982  -20.3684   -9.7776 C   0  0  2  0  0  0  0  0  0  0  0  0
   24.9201  -20.9855   -8.7941 C   0  0  0  0  0  0  0  0  0  0  0  0
   25.6216  -20.6731  -11.2101 C   0  0  2  0  0  0  0  0  0  0  0  0
   26.7795  -20.3151  -12.0023 N   0  0  0  0  0  0  0  0  0  0  0  0
   24.3925  -20.1213  -11.7782 C   0  0  0  0  0  0  0  0  0  0  0  0
   24.2902  -18.8690  -11.8448 O   0  0  0  0  0  0  0  0  0  0  0  0
   23.3168  -20.8947  -12.2574 N   0  0  0  0  0  0  0  0  0  0  0  0
   22.1293  -20.3261  -12.8972 C   0  0  1  0  0  0  0  0  0  0  0  0
   22.3842  -20.3307  -14.3631 C   0  0  0  0  0  0  0  0  0  0  0  0
   21.3089  -19.7886  -15.2388 C   0  0  0  0  0  0  0  0  0  0  0  0
   21.6697  -19.8893  -16.6548 C   0  0  0  0  0  0  0  0  0  0  0  0
   20.8467  -20.2177  -17.5271 O   0  0  0  0  0  0  0  0  0  0  0  0
   20.8997  -21.1213  -12.5808 C   0  0  0  0  0  0  0  0  0  0  0  0
   20.9484  -22.3633  -12.3992 O   0  0  0  0  0  0  0  0  0  0  0  0
   22.9984  -19.6017  -17.0297 O   0  0  0  0  0  0  0  0  0  0  0  0
   19.6430  -20.5480  -12.4718 O   0  0  0  0  0  0  0  0  0  0  0  0
  2  3  1  0
  2  1  1  0
  3 10  1  0
  4  3  2  0
  6  5  1  0
  7  6  1  0
  7  8  1  1
  9  7  1  0
  9 11  1  0
  9 10  1  6
 11 13  1  0
 11 12  2  0
 13 14  1  0
 14 19  1  0
 14 15  1  6
 16 15  1  0
 17 21  1  0
 17 16  1  0
 18 17  2  0
 19 22  1  0
 20 19  2  0
M  END
$$$$
