GIE.pdb
     RDKit          3D

 22 21  0  0  1  0  0  0  0  0999 V2000
   20.2667  -13.4691  -16.4414 N   0  0  0  0  0  0  0  0  0  0  0  0
   21.1487  -12.6253  -17.2054 C   0  0  0  0  0  0  0  0  0  0  0  0
   21.8586  -11.7043  -16.2594 C   0  0  0  0  0  0  0  0  0  0  0  0
   21.2785  -11.4550  -15.1809 O   0  0  0  0  0  0  0  0  0  0  0  0
   26.8587  -12.5284  -15.7687 C   0  0  0  0  0  0  0  0  0  0  0  0
   25.5224  -11.9456  -15.3450 C   0  0  0  0  0  0  0  0  0  0  0  0
   25.3293  -10.5559  -15.9543 C   0  0  2  0  0  0  0  0  0  0  0  0
   26.2526   -9.6100  -15.2076 C   0  0  0  0  0  0  0  0  0  0  0  0
   23.8800  -10.2219  -15.8583 C   0  0  2  0  0  0  0  0  0  0  0  0
   23.1210  -11.1798  -16.6345 N   0  0  0  0  0  0  0  0  0  0  0  0
   23.4954   -8.8479  -16.1784 C   0  0  0  0  0  0  0  0  0  0  0  0
   23.4724   -8.5151  -17.3916 O   0  0  0  0  0  0  0  0  0  0  0  0
   23.1474   -7.8728  -15.2229 N   0  0  0  0  0  0  0  0  0  0  0  0
   22.7442   -6.5079  -15.5652 C   0  0  1  0  0  0  0  0  0  0  0  0
   21.4319   -6.6062  -16.2596 C   0  0  0  0  0  0  0  0  0  0  0  0
   20.2887   -7.1461  -15.4731 C   0  0  0  0  0  0  0  0  0  0  0  0
   19.0379   -7.0808  -16.2324 C   0  0  0  0  0  0  0  0  0  0  0  0
   18.8076   -7.8310  -17.1969 O   0  0  0  0  0  0  0  0  0  0  0  0
   22.6235   -5.6473  -14.3448 C   0  0  0  0  0  0  0  0  0  0  0  0
   22.6742   -6.1353  -13.1884 O   0  0  0  0  0  0  0  0  0  0  0  0
   18.0693   -6.1309  -15.8475 O   0  0  0  0  0  0  0  0  0  0  0  0
   22.4473   -4.2745  -14.4094 O   0  0  0  0  0  0  0  0  0  0  0  0
  2  3  1  0
  2  1  1  0
  3 10  1  0
  4  3  2  0
  6  5  1  0
  7  6  1  0
  7  8  1  1
  9  7  1  0
  9 11  1  0
  9 10  1  6
 11 13  1  0
 11 12  2  0
 13 14  1  0
 14 19  1  0
 14 15  1  1
 16 15  1  0
 17 21  1  0
 17 16  1  0
 18 17  2  0
 19 22  1  0
 20 19  2  0
M  END
$$$$
