GIE.pdb
     RDKit          3D

 22 21  0  0  1  0  0  0  0  0999 V2000
   15.9274  -11.7453  -11.8105 N   0  0  0  0  0  0  0  0  0  0  0  0
   16.4532  -10.9917  -10.7017 C   0  0  0  0  0  0  0  0  0  0  0  0
   15.8782   -9.6084  -10.7554 C   0  0  0  0  0  0  0  0  0  0  0  0
   15.4797   -9.2116  -11.8715 O   0  0  0  0  0  0  0  0  0  0  0  0
   13.5827   -9.2507   -7.6694 C   0  0  0  0  0  0  0  0  0  0  0  0
   13.5743   -7.7341   -7.7376 C   0  0  0  0  0  0  0  0  0  0  0  0
   14.9785   -7.2058   -8.0353 C   0  0  2  0  0  0  0  0  0  0  0  0
   14.9836   -5.7298   -7.6803 C   0  0  0  0  0  0  0  0  0  0  0  0
   15.2771   -7.5070   -9.4641 C   0  0  2  0  0  0  0  0  0  0  0  0
   15.8205   -8.8455   -9.5621 N   0  0  0  0  0  0  0  0  0  0  0  0
   16.1027   -6.5395  -10.1854 C   0  0  0  0  0  0  0  0  0  0  0  0
   17.3032   -6.4153   -9.8295 O   0  0  0  0  0  0  0  0  0  0  0  0
   15.6474   -5.7390  -11.2516 N   0  0  0  0  0  0  0  0  0  0  0  0
   16.4442   -4.6767  -11.8674 C   0  0  1  0  0  0  0  0  0  0  0  0
   16.7179   -5.0982  -13.2679 C   0  0  0  0  0  0  0  0  0  0  0  0
   17.5077   -4.1620  -14.1145 C   0  0  0  0  0  0  0  0  0  0  0  0
   17.7733   -4.7308  -15.4379 C   0  0  0  0  0  0  0  0  0  0  0  0
   17.9197   -4.0205  -16.4478 O   0  0  0  0  0  0  0  0  0  0  0  0
   15.7195   -3.3655  -11.8513 C   0  0  0  0  0  0  0  0  0  0  0  0
   14.4665   -3.3075  -11.7848 O   0  0  0  0  0  0  0  0  0  0  0  0
   17.8639   -6.1330  -15.5584 O   0  0  0  0  0  0  0  0  0  0  0  0
   16.3742   -2.1458  -11.9109 O   0  0  0  0  0  0  0  0  0  0  0  0
  2  3  1  0
  2  1  1  0
  3 10  1  0
  4  3  2  0
  6  5  1  0
  7  6  1  0
  7  8  1  6
  9  7  1  0
  9 11  1  0
  9 10  1  1
 11 13  1  0
 11 12  2  0
 13 14  1  0
 14 19  1  0
 14 15  1  6
 16 15  1  0
 17 21  1  0
 17 16  1  0
 18 17  2  0
 19 22  1  0
 20 19  2  0
M  END
$$$$
