GIE.pdb
     RDKit          3D

 22 21  0  0  1  0  0  0  0  0999 V2000
   19.4038  -12.7838  -17.7299 N   0  0  0  0  0  0  0  0  0  0  0  0
   20.2400  -11.7202  -18.2231 C   0  0  0  0  0  0  0  0  0  0  0  0
   20.8291  -10.9988  -17.0486 C   0  0  0  0  0  0  0  0  0  0  0  0
   20.0340  -10.6541  -16.1481 O   0  0  0  0  0  0  0  0  0  0  0  0
   24.4763  -12.7900  -16.5026 C   0  0  0  0  0  0  0  0  0  0  0  0
   24.3646  -11.7658  -15.3875 C   0  0  0  0  0  0  0  0  0  0  0  0
   24.3318  -10.3499  -15.9652 C   0  0  2  0  0  0  0  0  0  0  0  0
   25.1995   -9.4834  -15.0701 C   0  0  0  0  0  0  0  0  0  0  0  0
   22.9035   -9.9320  -16.0468 C   0  0  2  0  0  0  0  0  0  0  0  0
   22.2251  -10.7539  -17.0270 N   0  0  0  0  0  0  0  0  0  0  0  0
   22.6418   -8.5103  -16.2664 C   0  0  0  0  0  0  0  0  0  0  0  0
   22.8834   -8.0413  -17.4088 O   0  0  0  0  0  0  0  0  0  0  0  0
   22.1366   -7.6309  -15.2886 N   0  0  0  0  0  0  0  0  0  0  0  0
   21.9650   -6.1927  -15.5005 C   0  0  1  0  0  0  0  0  0  0  0  0
   20.5091   -5.9553  -15.6959 C   0  0  0  0  0  0  0  0  0  0  0  0
   19.9366   -6.3156  -17.0223 C   0  0  0  0  0  0  0  0  0  0  0  0
   18.4991   -6.0401  -17.0778 C   0  0  0  0  0  0  0  0  0  0  0  0
   18.0399   -5.0199  -17.6203 O   0  0  0  0  0  0  0  0  0  0  0  0
   22.4689   -5.4004  -14.3330 C   0  0  0  0  0  0  0  0  0  0  0  0
   22.6583   -5.9314  -13.2105 O   0  0  0  0  0  0  0  0  0  0  0  0
   17.6155   -6.9707  -16.4928 O   0  0  0  0  0  0  0  0  0  0  0  0
   22.7530   -4.0465  -14.4119 O   0  0  0  0  0  0  0  0  0  0  0  0
  2  3  1  0
  2  1  1  0
  3 10  1  0
  4  3  2  0
  6  5  1  0
  7  6  1  0
  7  8  1  1
  9  7  1  0
  9 11  1  0
  9 10  1  6
 11 13  1  0
 11 12  2  0
 13 14  1  0
 14 19  1  0
 14 15  1  1
 16 15  1  0
 17 21  1  0
 17 16  1  0
 18 17  2  0
 19 22  1  0
 20 19  2  0
M  END
$$$$
