GIE.pdb
     RDKit          3D

 22 21  0  0  1  0  0  0  0  0999 V2000
   22.4082  -13.4275  -18.7724 N   0  0  0  0  0  0  0  0  0  0  0  0
   21.9678  -12.0629  -18.9057 C   0  0  0  0  0  0  0  0  0  0  0  0
   22.3841  -11.3099  -17.6783 C   0  0  0  0  0  0  0  0  0  0  0  0
   21.5607  -11.2731  -16.7388 O   0  0  0  0  0  0  0  0  0  0  0  0
   27.2677  -12.0503  -16.0235 C   0  0  0  0  0  0  0  0  0  0  0  0
   25.7987  -11.6681  -16.0523 C   0  0  0  0  0  0  0  0  0  0  0  0
   25.6394  -10.1884  -16.4054 C   0  0  2  0  0  0  0  0  0  0  0  0
   26.3315   -9.3929  -15.3132 C   0  0  0  0  0  0  0  0  0  0  0  0
   24.1811   -9.9165  -16.5495 C   0  0  2  0  0  0  0  0  0  0  0  0
   23.6613  -10.6953  -17.6539 N   0  0  0  0  0  0  0  0  0  0  0  0
   23.7760   -8.5148  -16.6449 C   0  0  0  0  0  0  0  0  0  0  0  0
   23.8508   -7.9603  -17.7719 O   0  0  0  0  0  0  0  0  0  0  0  0
   23.3064   -7.7439  -15.5632 N   0  0  0  0  0  0  0  0  0  0  0  0
   22.8778   -6.3496  -15.6852 C   0  0  1  0  0  0  0  0  0  0  0  0
   21.6512   -6.3465  -16.5274 C   0  0  0  0  0  0  0  0  0  0  0  0
   20.4498   -7.0318  -15.9761 C   0  0  0  0  0  0  0  0  0  0  0  0
   19.3202   -6.9635  -16.9060 C   0  0  0  0  0  0  0  0  0  0  0  0
   18.8021   -7.9821  -17.3960 O   0  0  0  0  0  0  0  0  0  0  0  0
   22.5904   -5.7430  -14.3458 C   0  0  0  0  0  0  0  0  0  0  0  0
   22.5874   -6.4350  -13.2975 O   0  0  0  0  0  0  0  0  0  0  0  0
   18.8115   -5.6940  -17.2499 O   0  0  0  0  0  0  0  0  0  0  0  0
   22.3095   -4.3967  -14.1768 O   0  0  0  0  0  0  0  0  0  0  0  0
  2  3  1  0
  2  1  1  0
  3 10  1  0
  4  3  2  0
  6  5  1  0
  7  6  1  0
  7  8  1  1
  9  7  1  0
  9 11  1  0
  9 10  1  6
 11 13  1  0
 11 12  2  0
 13 14  1  0
 14 19  1  0
 14 15  1  6
 16 15  1  0
 17 21  1  0
 17 16  1  0
 18 17  2  0
 19 22  1  0
 20 19  2  0
M  END
$$$$
