GIE.pdb
     RDKit          3D

 22 21  0  0  1  0  0  0  0  0999 V2000
   22.0053  -13.7798  -18.5258 N   0  0  0  0  0  0  0  0  0  0  0  0
   21.9197  -12.3576  -18.7349 C   0  0  0  0  0  0  0  0  0  0  0  0
   22.0913  -11.6742  -17.4119 C   0  0  0  0  0  0  0  0  0  0  0  0
   21.2554  -11.9537  -16.5257 O   0  0  0  0  0  0  0  0  0  0  0  0
   27.2318   -9.9789  -16.2560 C   0  0  0  0  0  0  0  0  0  0  0  0
   25.7847   -9.7573  -16.6580 C   0  0  0  0  0  0  0  0  0  0  0  0
   24.8429  -10.3223  -15.5933 C   0  0  2  0  0  0  0  0  0  0  0  0
   25.1715  -11.7971  -15.4454 C   0  0  0  0  0  0  0  0  0  0  0  0
   23.4476  -10.0326  -16.0298 C   0  0  2  0  0  0  0  0  0  0  0  0
   23.1692  -10.7689  -17.2450 N   0  0  0  0  0  0  0  0  0  0  0  0
   23.0740   -8.6248  -16.1589 C   0  0  0  0  0  0  0  0  0  0  0  0
   23.2350   -8.0780  -17.2807 O   0  0  0  0  0  0  0  0  0  0  0  0
   22.5448   -7.8401  -15.1154 N   0  0  0  0  0  0  0  0  0  0  0  0
   22.1734   -6.4322  -15.2660 C   0  0  1  0  0  0  0  0  0  0  0  0
   20.7894   -6.4064  -15.8118 C   0  0  0  0  0  0  0  0  0  0  0  0
   20.1834   -5.0687  -16.0573 C   0  0  0  0  0  0  0  0  0  0  0  0
   18.8264   -5.1861  -16.5959 C   0  0  0  0  0  0  0  0  0  0  0  0
   18.3463   -6.2763  -16.9522 O   0  0  0  0  0  0  0  0  0  0  0  0
   22.2298   -5.7051  -13.9573 C   0  0  0  0  0  0  0  0  0  0  0  0
   22.1446   -6.3146  -12.8622 O   0  0  0  0  0  0  0  0  0  0  0  0
   18.0472   -4.0161  -16.7096 O   0  0  0  0  0  0  0  0  0  0  0  0
   22.3747   -4.3300  -13.8688 O   0  0  0  0  0  0  0  0  0  0  0  0
  2  3  1  0
  2  1  1  0
  3 10  1  0
  4  3  2  0
  6  5  1  0
  7  6  1  0
  7  8  1  6
  9  7  1  0
  9 11  1  0
  9 10  1  6
 11 13  1  0
 11 12  2  0
 13 14  1  0
 14 19  1  0
 14 15  1  1
 16 15  1  0
 17 21  1  0
 17 16  1  0
 18 17  2  0
 19 22  1  0
 20 19  2  0
M  END
$$$$
