GIE.pdb
     RDKit          3D

 22 21  0  0  1  0  0  0  0  0999 V2000
   16.1506  -10.1853  -16.4942 N   0  0  0  0  0  0  0  0  0  0  0  0
   17.4075   -9.8987  -17.1359 C   0  0  0  0  0  0  0  0  0  0  0  0
   18.3648   -9.3969  -16.0972 C   0  0  0  0  0  0  0  0  0  0  0  0
   17.8861   -9.1460  -14.9704 O   0  0  0  0  0  0  0  0  0  0  0  0
   22.6423   -9.8929  -13.3086 C   0  0  0  0  0  0  0  0  0  0  0  0
   22.9867   -9.2594  -14.6445 C   0  0  0  0  0  0  0  0  0  0  0  0
   21.9660   -9.6684  -15.7078 C   0  0  2  0  0  0  0  0  0  0  0  0
   22.6541   -9.5472  -17.0556 C   0  0  0  0  0  0  0  0  0  0  0  0
   20.7675   -8.7993  -15.5364 C   0  0  2  0  0  0  0  0  0  0  0  0
   19.7298   -9.2392  -16.4453 N   0  0  0  0  0  0  0  0  0  0  0  0
   20.9798   -7.3552  -15.6242 C   0  0  0  0  0  0  0  0  0  0  0  0
   21.4976   -6.9037  -16.6784 O   0  0  0  0  0  0  0  0  0  0  0  0
   20.6430   -6.4355  -14.6115 N   0  0  0  0  0  0  0  0  0  0  0  0
   20.9568   -5.0071  -14.6745 C   0  0  1  0  0  0  0  0  0  0  0  0
   19.7319   -4.2764  -14.2509 C   0  0  0  0  0  0  0  0  0  0  0  0
   18.5985   -4.2387  -15.2158 C   0  0  0  0  0  0  0  0  0  0  0  0
   18.9017   -3.3828  -16.3651 C   0  0  0  0  0  0  0  0  0  0  0  0
   18.8759   -3.8077  -17.5334 O   0  0  0  0  0  0  0  0  0  0  0  0
   22.1068   -4.6564  -13.7806 C   0  0  0  0  0  0  0  0  0  0  0  0
   22.4704   -5.4156  -12.8483 O   0  0  0  0  0  0  0  0  0  0  0  0
   19.2328   -2.0330  -16.1263 O   0  0  0  0  0  0  0  0  0  0  0  0
   22.8344   -3.4853  -13.9188 O   0  0  0  0  0  0  0  0  0  0  0  0
  2  3  1  0
  2  1  1  0
  3 10  1  0
  4  3  2  0
  6  5  1  0
  7  6  1  0
  7  8  1  6
  9  7  1  0
  9 11  1  0
  9 10  1  6
 11 13  1  0
 11 12  2  0
 13 14  1  0
 14 19  1  0
 14 15  1  1
 16 15  1  0
 17 21  1  0
 17 16  1  0
 18 17  2  0
 19 22  1  0
 20 19  2  0
M  END
$$$$
