GSM.pdb
     RDKit          3D

 19 18  0  0  1  0  0  0  0  0999 V2000
   17.4679  -14.7666  -15.3900 N   0  0  0  0  0  0  0  0  0  0  0  0
   16.7474  -13.5773  -15.7067 C   0  0  0  0  0  0  0  0  0  0  0  0
   17.5838  -12.4807  -16.2052 C   0  0  0  0  0  0  0  0  0  0  0  0
   18.6172  -12.8183  -16.8760 O   0  0  0  0  0  0  0  0  0  0  0  0
   18.3678   -7.9341  -17.4940 O   0  0  0  0  0  0  0  0  0  0  0  0
   17.5327   -8.8160  -16.8378 C   0  0  0  0  0  0  0  0  0  0  0  0
   18.2302  -10.1351  -16.5138 C   0  0  2  0  0  0  0  0  0  0  0  0
   17.3163  -11.1028  -15.9897 N   0  0  0  0  0  0  0  0  0  0  0  0
   19.3277   -9.8076  -15.5839 C   0  0  0  0  0  0  0  0  0  0  0  0
   19.1401   -9.6117  -14.3631 O   0  0  0  0  0  0  0  0  0  0  0  0
   27.0874  -10.9814  -14.9343 C   0  0  0  0  0  0  0  0  0  0  0  0
   25.5967  -10.9511  -15.9680 S   0  0  0  0  0  0  0  0  0  0  0  0
   24.2498  -10.0826  -15.1001 C   0  0  0  0  0  0  0  0  0  0  0  0
   22.9966  -10.1567  -15.9265 C   0  0  0  0  0  0  0  0  0  0  0  0
   21.8281   -9.4903  -15.2969 C   0  0  2  0  0  0  0  0  0  0  0  0
   20.6417   -9.7139  -16.1044 N   0  0  0  0  0  0  0  0  0  0  0  0
   21.9937   -8.0406  -15.0385 C   0  0  0  0  0  0  0  0  0  0  0  0
   22.2544   -7.6130  -13.7490 O   0  0  0  0  0  0  0  0  0  0  0  0
   21.9168   -7.1451  -15.9150 O   0  0  0  0  0  0  0  0  0  0  0  0
  1  2  1  0
  3  2  1  0
  3  4  2  0
  5  6  1  0
  7  6  1  1
  7  8  1  0
  8  3  1  0
  9  7  1  0
 10  9  2  0
 11 12  1  0
 13 14  1  0
 13 12  1  0
 15 14  1  6
 15 16  1  0
 15 17  1  0
 16  9  1  0
 17 19  2  0
 17 18  1  0
M  END
$$$$
