GSM.pdb
     RDKit          3D

 19 18  0  0  1  0  0  0  0  0999 V2000
   19.5703  -15.6561  -15.8559 N   0  0  0  0  0  0  0  0  0  0  0  0
   18.6354  -14.6456  -16.2286 C   0  0  0  0  0  0  0  0  0  0  0  0
   19.2468  -13.3616  -16.5867 C   0  0  0  0  0  0  0  0  0  0  0  0
   20.4639  -13.4034  -16.9723 O   0  0  0  0  0  0  0  0  0  0  0  0
   17.4901   -9.4880  -16.2390 O   0  0  0  0  0  0  0  0  0  0  0  0
   18.3184   -9.7991  -17.2986 C   0  0  0  0  0  0  0  0  0  0  0  0
   19.2780  -10.9383  -16.9629 C   0  0  2  0  0  0  0  0  0  0  0  0
   18.5796  -12.1093  -16.5303 N   0  0  0  0  0  0  0  0  0  0  0  0
   20.2119  -10.4104  -15.9501 C   0  0  0  0  0  0  0  0  0  0  0  0
   19.9778  -10.4680  -14.7231 O   0  0  0  0  0  0  0  0  0  0  0  0
   26.6064  -11.6127  -15.3503 C   0  0  0  0  0  0  0  0  0  0  0  0
   26.4864   -9.8458  -15.7447 S   0  0  0  0  0  0  0  0  0  0  0  0
   24.9068   -9.1730  -15.1332 C   0  0  0  0  0  0  0  0  0  0  0  0
   23.7827   -9.6883  -15.9876 C   0  0  0  0  0  0  0  0  0  0  0  0
   22.4373   -9.2731  -15.5149 C   0  0  2  0  0  0  0  0  0  0  0  0
   21.4184   -9.8169  -16.3957 N   0  0  0  0  0  0  0  0  0  0  0  0
   22.2452   -7.8113  -15.3672 C   0  0  0  0  0  0  0  0  0  0  0  0
   22.4065   -7.2345  -14.1201 O   0  0  0  0  0  0  0  0  0  0  0  0
   21.9420   -7.0320  -16.3036 O   0  0  0  0  0  0  0  0  0  0  0  0
  1  2  1  0
  3  2  1  0
  3  4  2  0
  5  6  1  0
  7  6  1  1
  7  8  1  0
  8  3  1  0
  9  7  1  0
 10  9  2  0
 11 12  1  0
 13 14  1  0
 13 12  1  0
 15 14  1  6
 15 16  1  0
 15 17  1  0
 16  9  1  0
 17 19  2  0
 17 18  1  0
M  END
$$$$
