GSM.pdb
     RDKit          3D

 19 18  0  0  1  0  0  0  0  0999 V2000
   25.7434  -16.6780  -19.4607 N   0  0  0  0  0  0  0  0  0  0  0  0
   26.0851  -15.7945  -20.5268 C   0  0  0  0  0  0  0  0  0  0  0  0
   26.8202  -14.5975  -20.1054 C   0  0  0  0  0  0  0  0  0  0  0  0
   26.8614  -14.3731  -18.8485 O   0  0  0  0  0  0  0  0  0  0  0  0
   28.3115  -11.4209  -22.5606 O   0  0  0  0  0  0  0  0  0  0  0  0
   29.0424  -11.8878  -21.4866 C   0  0  0  0  0  0  0  0  0  0  0  0
   28.1602  -12.5717  -20.4447 C   0  0  2  0  0  0  0  0  0  0  0  0
   27.4706  -13.6991  -20.9921 N   0  0  0  0  0  0  0  0  0  0  0  0
   27.2531  -11.5325  -19.9214 C   0  0  0  0  0  0  0  0  0  0  0  0
   26.1198  -11.3215  -20.4062 O   0  0  0  0  0  0  0  0  0  0  0  0
   23.9813   -9.6330  -13.7147 C   0  0  0  0  0  0  0  0  0  0  0  0
   25.7202   -9.7616  -14.2165 S   0  0  0  0  0  0  0  0  0  0  0  0
   25.9297   -9.1391  -15.9165 C   0  0  0  0  0  0  0  0  0  0  0  0
   26.6831  -10.1548  -16.7287 C   0  0  0  0  0  0  0  0  0  0  0  0
   26.8745   -9.7591  -18.1474 C   0  0  2  0  0  0  0  0  0  0  0  0
   27.6927  -10.7485  -18.8267 N   0  0  0  0  0  0  0  0  0  0  0  0
   27.4468   -8.4078  -18.3526 C   0  0  0  0  0  0  0  0  0  0  0  0
   26.6896   -7.2992  -18.0191 O   0  0  0  0  0  0  0  0  0  0  0  0
   28.5917   -8.1790  -18.8142 O   0  0  0  0  0  0  0  0  0  0  0  0
  1  2  1  0
  3  2  1  0
  3  4  2  0
  5  6  1  0
  7  6  1  6
  7  8  1  0
  8  3  1  0
  9  7  1  0
 10  9  2  0
 11 12  1  0
 13 14  1  0
 13 12  1  0
 15 14  1  1
 15 16  1  0
 15 17  1  0
 16  9  1  0
 17 19  2  0
 17 18  1  0
M  END
$$$$
