GSM.pdb
     RDKit          3D

 19 18  0  0  1  0  0  0  0  0999 V2000
   21.8720  -14.7946  -16.0304 N   0  0  0  0  0  0  0  0  0  0  0  0
   23.0336  -15.6138  -15.9140 C   0  0  0  0  0  0  0  0  0  0  0  0
   22.7728  -17.0511  -16.0439 C   0  0  0  0  0  0  0  0  0  0  0  0
   21.5450  -17.4006  -16.0905 O   0  0  0  0  0  0  0  0  0  0  0  0
   25.5170  -20.2157  -15.3265 O   0  0  0  0  0  0  0  0  0  0  0  0
   24.5848  -20.3509  -16.3356 C   0  0  0  0  0  0  0  0  0  0  0  0
   23.3878  -19.4233  -16.1404 C   0  0  2  0  0  0  0  0  0  0  0  0
   23.7811  -18.0482  -16.1186 N   0  0  0  0  0  0  0  0  0  0  0  0
   22.7231  -19.8583  -14.8972 C   0  0  0  0  0  0  0  0  0  0  0  0
   23.0086  -19.3794  -13.7778 O   0  0  0  0  0  0  0  0  0  0  0  0
   19.5435  -17.4526  -11.5737 C   0  0  0  0  0  0  0  0  0  0  0  0
   18.2923  -18.7376  -11.8482 S   0  0  0  0  0  0  0  0  0  0  0  0
   19.0935  -20.2950  -12.3522 C   0  0  0  0  0  0  0  0  0  0  0  0
   20.1062  -20.0087  -13.4253 C   0  0  0  0  0  0  0  0  0  0  0  0
   20.8264  -21.2172  -13.9017 C   0  0  2  0  0  0  0  0  0  0  0  0
   21.7236  -20.8580  -14.9860 N   0  0  0  0  0  0  0  0  0  0  0  0
   19.9589  -22.3433  -14.3199 C   0  0  0  0  0  0  0  0  0  0  0  0
   19.8000  -22.6045  -15.6690 O   0  0  0  0  0  0  0  0  0  0  0  0
   19.3413  -23.1007  -13.5318 O   0  0  0  0  0  0  0  0  0  0  0  0
  1  2  1  0
  3  2  1  0
  3  4  2  0
  5  6  1  0
  7  6  1  1
  7  8  1  0
  8  3  1  0
  9  7  1  0
 10  9  2  0
 11 12  1  0
 13 14  1  0
 13 12  1  0
 15 14  1  6
 15 16  1  0
 15 17  1  0
 16  9  1  0
 17 19  2  0
 17 18  1  0
M  END
$$$$
