GSM.pdb
     RDKit          3D

 19 18  0  0  1  0  0  0  0  0999 V2000
   14.3280  -10.3454  -10.0574 N   0  0  0  0  0  0  0  0  0  0  0  0
   14.9526   -9.3385   -9.2636 C   0  0  0  0  0  0  0  0  0  0  0  0
   15.5586   -8.2504  -10.0379 C   0  0  0  0  0  0  0  0  0  0  0  0
   15.6432   -8.4337  -11.2993 O   0  0  0  0  0  0  0  0  0  0  0  0
   17.0391   -4.5995   -8.4771 O   0  0  0  0  0  0  0  0  0  0  0  0
   16.5282   -4.6546   -9.7583 C   0  0  0  0  0  0  0  0  0  0  0  0
   16.6139   -6.0590  -10.3514 C   0  0  2  0  0  0  0  0  0  0  0  0
   16.0431   -7.0383   -9.4789 N   0  0  0  0  0  0  0  0  0  0  0  0
   18.0397   -6.3004  -10.6439 C   0  0  0  0  0  0  0  0  0  0  0  0
   18.7088   -7.1776  -10.0550 O   0  0  0  0  0  0  0  0  0  0  0  0
   22.4292  -10.0317  -12.2031 C   0  0  0  0  0  0  0  0  0  0  0  0
   21.4069   -9.3612  -13.5437 S   0  0  0  0  0  0  0  0  0  0  0  0
   21.2872   -7.5488  -13.3942 C   0  0  0  0  0  0  0  0  0  0  0  0
   20.0110   -7.1914  -12.6854 C   0  0  0  0  0  0  0  0  0  0  0  0
   19.9682   -5.7852  -12.2093 C   0  0  2  0  0  0  0  0  0  0  0  0
   18.6657   -5.5020  -11.6323 N   0  0  0  0  0  0  0  0  0  0  0  0
   20.2975   -4.7641  -13.2312 C   0  0  0  0  0  0  0  0  0  0  0  0
   19.2806   -4.2367  -14.0068 O   0  0  0  0  0  0  0  0  0  0  0  0
   21.4518   -4.3251  -13.4569 O   0  0  0  0  0  0  0  0  0  0  0  0
  1  2  1  0
  3  2  1  0
  3  4  2  0
  5  6  1  0
  7  6  1  1
  7  8  1  0
  8  3  1  0
  9  7  1  0
 10  9  2  0
 11 12  1  0
 13 14  1  0
 13 12  1  0
 15 14  1  6
 15 16  1  0
 15 17  1  0
 16  9  1  0
 17 19  2  0
 17 18  1  0
M  END
$$$$
