GSM.pdb
     RDKit          3D

 19 18  0  0  1  0  0  0  0  0999 V2000
   20.4147  -15.3216  -18.0429 N   0  0  0  0  0  0  0  0  0  0  0  0
   19.7424  -14.0985  -18.3365 C   0  0  0  0  0  0  0  0  0  0  0  0
   20.6142  -12.9193  -18.3478 C   0  0  0  0  0  0  0  0  0  0  0  0
   21.8016  -13.0904  -17.9089 O   0  0  0  0  0  0  0  0  0  0  0  0
   19.5261   -8.9245  -19.3610 O   0  0  0  0  0  0  0  0  0  0  0  0
   20.7630   -9.4249  -19.7147 C   0  0  0  0  0  0  0  0  0  0  0  0
   21.1929  -10.5827  -18.8168 C   0  0  2  0  0  0  0  0  0  0  0  0
   20.2227  -11.6338  -18.8067 N   0  0  0  0  0  0  0  0  0  0  0  0
   21.4384  -10.0045  -17.4819 C   0  0  0  0  0  0  0  0  0  0  0  0
   20.5549   -9.9505  -16.5985 O   0  0  0  0  0  0  0  0  0  0  0  0
   27.6951  -11.9115  -15.3860 C   0  0  0  0  0  0  0  0  0  0  0  0
   26.9907  -10.2534  -15.6019 S   0  0  0  0  0  0  0  0  0  0  0  0
   25.1707  -10.3445  -15.6306 C   0  0  0  0  0  0  0  0  0  0  0  0
   24.6061   -8.9617  -15.7974 C   0  0  0  0  0  0  0  0  0  0  0  0
   23.1261   -8.9338  -15.9198 C   0  0  2  0  0  0  0  0  0  0  0  0
   22.7290   -9.4934  -17.1999 N   0  0  0  0  0  0  0  0  0  0  0  0
   22.5045   -7.6008  -15.7399 C   0  0  0  0  0  0  0  0  0  0  0  0
   22.2682   -7.1365  -14.4584 O   0  0  0  0  0  0  0  0  0  0  0  0
   22.1669   -6.8372  -16.6775 O   0  0  0  0  0  0  0  0  0  0  0  0
  1  2  1  0
  3  2  1  0
  3  4  2  0
  5  6  1  0
  7  6  1  6
  7  8  1  0
  8  3  1  0
  9  7  1  0
 10  9  2  0
 11 12  1  0
 13 14  1  0
 13 12  1  0
 15 14  1  6
 15 16  1  0
 15 17  1  0
 16  9  1  0
 17 19  2  0
 17 18  1  0
M  END
$$$$
