GSM.pdb
     RDKit          3D

 19 18  0  0  1  0  0  0  0  0999 V2000
   25.4072  -12.4909  -16.5540 N   0  0  0  0  0  0  0  0  0  0  0  0
   24.3034  -12.2942  -15.6725 C   0  0  0  0  0  0  0  0  0  0  0  0
   23.5277  -11.0787  -15.9401 C   0  0  0  0  0  0  0  0  0  0  0  0
   23.9802  -10.3095  -16.8541 O   0  0  0  0  0  0  0  0  0  0  0  0
   19.5226   -8.3956  -15.5915 O   0  0  0  0  0  0  0  0  0  0  0  0
   20.2253   -9.4844  -15.1158 C   0  0  0  0  0  0  0  0  0  0  0  0
   21.6571   -9.5204  -15.6451 C   0  0  2  0  0  0  0  0  0  0  0  0
   22.3348  -10.7194  -15.2587 N   0  0  0  0  0  0  0  0  0  0  0  0
   22.3140   -8.2954  -15.1506 C   0  0  0  0  0  0  0  0  0  0  0  0
   22.7567   -8.1920  -13.9856 O   0  0  0  0  0  0  0  0  0  0  0  0
   26.1847   -1.9716  -17.8530 C   0  0  0  0  0  0  0  0  0  0  0  0
   25.2945   -3.5235  -18.1546 S   0  0  0  0  0  0  0  0  0  0  0  0
   24.5217   -4.1126  -16.6127 C   0  0  0  0  0  0  0  0  0  0  0  0
   23.8057   -5.4071  -16.8783 C   0  0  0  0  0  0  0  0  0  0  0  0
   23.0809   -5.9397  -15.6964 C   0  0  2  0  0  0  0  0  0  0  0  0
   22.4434   -7.1993  -16.0383 N   0  0  0  0  0  0  0  0  0  0  0  0
   22.0850   -5.0184  -15.1006 C   0  0  0  0  0  0  0  0  0  0  0  0
   22.5003   -4.1023  -14.1509 O   0  0  0  0  0  0  0  0  0  0  0  0
   20.8646   -4.9981  -15.3944 O   0  0  0  0  0  0  0  0  0  0  0  0
  1  2  1  0
  3  2  1  0
  3  4  2  0
  5  6  1  0
  7  6  1  1
  7  8  1  0
  8  3  1  0
  9  7  1  0
 10  9  2  0
 11 12  1  0
 13 14  1  0
 13 12  1  0
 15 14  1  6
 15 16  1  0
 15 17  1  0
 16  9  1  0
 17 19  2  0
 17 18  1  0
M  END
$$$$
