GSM.pdb
     RDKit          3D

 19 18  0  0  1  0  0  0  0  0999 V2000
   28.0942  -20.3314  -16.0623 N   0  0  0  0  0  0  0  0  0  0  0  0
   27.5145  -21.2430  -15.1312 C   0  0  0  0  0  0  0  0  0  0  0  0
   26.8815  -20.6016  -13.9742 C   0  0  0  0  0  0  0  0  0  0  0  0
   27.3619  -19.4715  -13.6218 O   0  0  0  0  0  0  0  0  0  0  0  0
   23.2272  -21.6607  -12.2498 O   0  0  0  0  0  0  0  0  0  0  0  0
   23.7792  -20.4085  -12.0690 C   0  0  0  0  0  0  0  0  0  0  0  0
   25.3054  -20.4430  -12.1020 C   0  0  2  0  0  0  0  0  0  0  0  0
   25.7948  -21.1516  -13.2441 N   0  0  0  0  0  0  0  0  0  0  0  0
   25.7356  -21.0355  -10.8212 C   0  0  0  0  0  0  0  0  0  0  0  0
   25.9916  -22.2530  -10.6946 O   0  0  0  0  0  0  0  0  0  0  0  0
   29.0879  -19.4438   -3.9175 C   0  0  0  0  0  0  0  0  0  0  0  0
   28.4604  -18.8361   -5.5077 S   0  0  0  0  0  0  0  0  0  0  0  0
   27.2772  -20.0300   -6.2122 C   0  0  0  0  0  0  0  0  0  0  0  0
   27.0025  -19.6712   -7.6456 C   0  0  0  0  0  0  0  0  0  0  0  0
   26.1253  -20.6444   -8.3452 C   0  0  2  0  0  0  0  0  0  0  0  0
   25.8607  -20.1830   -9.6969 N   0  0  0  0  0  0  0  0  0  0  0  0
   24.8474  -20.9469   -7.6588 C   0  0  0  0  0  0  0  0  0  0  0  0
   24.8531  -21.8085   -6.5764 O   0  0  0  0  0  0  0  0  0  0  0  0
   23.7314  -20.4733   -7.9848 O   0  0  0  0  0  0  0  0  0  0  0  0
  1  2  1  0
  3  2  1  0
  3  4  2  0
  5  6  1  0
  7  6  1  1
  7  8  1  0
  8  3  1  0
  9  7  1  0
 10  9  2  0
 11 12  1  0
 13 14  1  0
 13 12  1  0
 15 14  1  1
 15 16  1  0
 15 17  1  0
 16  9  1  0
 17 19  2  0
 17 18  1  0
M  END
$$$$
