GSM.pdb
     RDKit          3D

 19 18  0  0  1  0  0  0  0  0999 V2000
   19.3634  -19.2150  -14.2441 N   0  0  0  0  0  0  0  0  0  0  0  0
   20.7803  -19.2664  -14.3980 C   0  0  0  0  0  0  0  0  0  0  0  0
   21.4683  -20.0667  -13.3796 C   0  0  0  0  0  0  0  0  0  0  0  0
   20.8524  -21.1072  -12.9675 O   0  0  0  0  0  0  0  0  0  0  0  0
   24.6966  -22.8474  -13.1320 O   0  0  0  0  0  0  0  0  0  0  0  0
   23.9065  -21.7947  -13.5479 C   0  0  0  0  0  0  0  0  0  0  0  0
   23.5864  -20.8308  -12.4077 C   0  0  2  0  0  0  0  0  0  0  0  0
   22.7455  -19.7578  -12.8413 N   0  0  0  0  0  0  0  0  0  0  0  0
   24.8833  -20.3741  -11.8729 C   0  0  0  0  0  0  0  0  0  0  0  0
   25.5985  -19.5363  -12.4648 O   0  0  0  0  0  0  0  0  0  0  0  0
   28.0786  -18.6052   -5.3475 C   0  0  0  0  0  0  0  0  0  0  0  0
   27.3078  -20.1123   -6.0004 S   0  0  0  0  0  0  0  0  0  0  0  0
   27.6883  -20.2934   -7.7735 C   0  0  0  0  0  0  0  0  0  0  0  0
   26.4233  -20.6008   -8.5247 C   0  0  0  0  0  0  0  0  0  0  0  0
   26.5844  -20.5663  -10.0008 C   0  0  2  0  0  0  0  0  0  0  0  0
   25.3266  -20.9120  -10.6398 N   0  0  0  0  0  0  0  0  0  0  0  0
   27.6708  -21.4201  -10.5359 C   0  0  0  0  0  0  0  0  0  0  0  0
   28.8928  -20.8446  -10.8349 O   0  0  0  0  0  0  0  0  0  0  0  0
   27.5730  -22.6542  -10.7445 O   0  0  0  0  0  0  0  0  0  0  0  0
  1  2  1  0
  3  2  1  0
  3  4  2  0
  5  6  1  0
  7  6  1  6
  7  8  1  0
  8  3  1  0
  9  7  1  0
 10  9  2  0
 11 12  1  0
 13 14  1  0
 13 12  1  0
 15 14  1  1
 15 16  1  0
 15 17  1  0
 16  9  1  0
 17 19  2  0
 17 18  1  0
M  END
$$$$
