GSM.pdb
     RDKit          3D

 19 18  0  0  1  0  0  0  0  0999 V2000
   28.6723  -23.1081  -16.7554 N   0  0  0  0  0  0  0  0  0  0  0  0
   27.6170  -22.1595  -16.8987 C   0  0  0  0  0  0  0  0  0  0  0  0
   27.3816  -21.3356  -15.7085 C   0  0  0  0  0  0  0  0  0  0  0  0
   28.3858  -21.1525  -14.9405 O   0  0  0  0  0  0  0  0  0  0  0  0
   23.6773  -19.5688  -14.4318 O   0  0  0  0  0  0  0  0  0  0  0  0
   24.8984  -18.9479  -14.2614 C   0  0  0  0  0  0  0  0  0  0  0  0
   26.0476  -19.9504  -14.1866 C   0  0  2  0  0  0  0  0  0  0  0  0
   26.1341  -20.7466  -15.3718 N   0  0  0  0  0  0  0  0  0  0  0  0
   25.8252  -20.7474  -12.9651 C   0  0  0  0  0  0  0  0  0  0  0  0
   25.1747  -21.8154  -12.9669 O   0  0  0  0  0  0  0  0  0  0  0  0
   27.4894  -18.6197   -6.2257 C   0  0  0  0  0  0  0  0  0  0  0  0
   28.1982  -20.1109   -6.9779 S   0  0  0  0  0  0  0  0  0  0  0  0
   26.9808  -20.8933   -8.0857 C   0  0  0  0  0  0  0  0  0  0  0  0
   27.1621  -20.3606   -9.4793 C   0  0  0  0  0  0  0  0  0  0  0  0
   26.2144  -20.9393  -10.4657 C   0  0  2  0  0  0  0  0  0  0  0  0
   26.3744  -20.2755  -11.7477 N   0  0  0  0  0  0  0  0  0  0  0  0
   24.7893  -20.9121  -10.0606 C   0  0  0  0  0  0  0  0  0  0  0  0
   24.2851  -21.9553   -9.3047 O   0  0  0  0  0  0  0  0  0  0  0  0
   23.9807  -19.9971  -10.3522 O   0  0  0  0  0  0  0  0  0  0  0  0
  1  2  1  0
  3  2  1  0
  3  4  2  0
  5  6  1  0
  7  6  1  6
  7  8  1  0
  8  3  1  0
  9  7  1  0
 10  9  2  0
 11 12  1  0
 13 14  1  0
 13 12  1  0
 15 14  1  1
 15 16  1  0
 15 17  1  0
 16  9  1  0
 17 19  2  0
 17 18  1  0
M  END
$$$$
