GSM.pdb
     RDKit          3D

 19 18  0  0  1  0  0  0  0  0999 V2000
   13.6330  -10.1570   -9.7341 N   0  0  0  0  0  0  0  0  0  0  0  0
   14.6191   -9.4549   -8.9800 C   0  0  0  0  0  0  0  0  0  0  0  0
   15.2168   -8.3151   -9.6831 C   0  0  0  0  0  0  0  0  0  0  0  0
   15.0554   -8.2851  -10.9499 O   0  0  0  0  0  0  0  0  0  0  0  0
   16.3390   -3.7538   -9.9683 O   0  0  0  0  0  0  0  0  0  0  0  0
   16.1496   -4.8334   -9.1292 C   0  0  0  0  0  0  0  0  0  0  0  0
   16.3827   -6.1634   -9.8421 C   0  0  2  0  0  0  0  0  0  0  0  0
   15.9447   -7.2721   -9.0516 N   0  0  0  0  0  0  0  0  0  0  0  0
   17.8205   -6.2135  -10.1689 C   0  0  0  0  0  0  0  0  0  0  0  0
   18.7015   -6.4080   -9.3030 O   0  0  0  0  0  0  0  0  0  0  0  0
   22.0505  -10.1760  -12.3606 C   0  0  0  0  0  0  0  0  0  0  0  0
   21.6177   -9.1081  -13.7621 S   0  0  0  0  0  0  0  0  0  0  0  0
   21.2922   -7.4119  -13.1804 C   0  0  0  0  0  0  0  0  0  0  0  0
   19.9006   -7.3375  -12.6176 C   0  0  0  0  0  0  0  0  0  0  0  0
   19.5839   -6.0323  -11.9834 C   0  0  2  0  0  0  0  0  0  0  0  0
   18.2075   -6.0333  -11.5195 N   0  0  0  0  0  0  0  0  0  0  0  0
   19.8261   -4.8436  -12.8343 C   0  0  0  0  0  0  0  0  0  0  0  0
   21.1025   -4.3143  -12.9024 O   0  0  0  0  0  0  0  0  0  0  0  0
   18.9476   -4.2625  -13.5173 O   0  0  0  0  0  0  0  0  0  0  0  0
  1  2  1  0
  3  2  1  0
  3  4  2  0
  5  6  1  0
  7  6  1  1
  7  8  1  0
  8  3  1  0
  9  7  1  0
 10  9  2  0
 11 12  1  0
 13 14  1  0
 13 12  1  0
 15 14  1  6
 15 16  1  0
 15 17  1  0
 16  9  1  0
 17 19  2  0
 17 18  1  0
M  END
$$$$
