GSM.pdb
     RDKit          3D

 19 18  0  0  1  0  0  0  0  0999 V2000
   12.9320   -9.3202   -8.7144 N   0  0  0  0  0  0  0  0  0  0  0  0
   14.0516   -8.5923   -8.2138 C   0  0  0  0  0  0  0  0  0  0  0  0
   14.7284   -7.7631   -9.2164 C   0  0  0  0  0  0  0  0  0  0  0  0
   14.2182   -7.7636  -10.3876 O   0  0  0  0  0  0  0  0  0  0  0  0
   16.4169   -4.2435   -8.6141 O   0  0  0  0  0  0  0  0  0  0  0  0
   16.0971   -4.7165   -9.8709 C   0  0  0  0  0  0  0  0  0  0  0  0
   16.4320   -6.1977  -10.0300 C   0  0  2  0  0  0  0  0  0  0  0  0
   15.8869   -6.9815   -8.9647 N   0  0  0  0  0  0  0  0  0  0  0  0
   17.9019   -6.2840  -10.1228 C   0  0  0  0  0  0  0  0  0  0  0  0
   18.6327   -6.4292   -9.1185 O   0  0  0  0  0  0  0  0  0  0  0  0
   23.3454  -10.1412  -13.7468 C   0  0  0  0  0  0  0  0  0  0  0  0
   21.6168   -9.6186  -13.5715 S   0  0  0  0  0  0  0  0  0  0  0  0
   21.5295   -8.0289  -12.6844 C   0  0  0  0  0  0  0  0  0  0  0  0
   20.0926   -7.7031  -12.3878 C   0  0  0  0  0  0  0  0  0  0  0  0
   19.9103   -6.4176  -11.6666 C   0  0  2  0  0  0  0  0  0  0  0  0
   18.4987   -6.1978  -11.4045 N   0  0  0  0  0  0  0  0  0  0  0  0
   20.4867   -5.2304  -12.3404 C   0  0  0  0  0  0  0  0  0  0  0  0
   21.8185   -4.9196  -12.1322 O   0  0  0  0  0  0  0  0  0  0  0  0
   19.8514   -4.4640  -13.1053 O   0  0  0  0  0  0  0  0  0  0  0  0
  1  2  1  0
  3  2  1  0
  3  4  2  0
  5  6  1  0
  7  6  1  1
  7  8  1  0
  8  3  1  0
  9  7  1  0
 10  9  2  0
 11 12  1  0
 13 14  1  0
 13 12  1  0
 15 14  1  6
 15 16  1  0
 15 17  1  0
 16  9  1  0
 17 19  2  0
 17 18  1  0
M  END
$$$$
