GSM.pdb
     RDKit          3D

 19 18  0  0  1  0  0  0  0  0999 V2000
   18.4181  -21.7913  -11.2243 N   0  0  0  0  0  0  0  0  0  0  0  0
   19.3458  -20.7122  -11.3182 C   0  0  0  0  0  0  0  0  0  0  0  0
   20.6193  -21.0660  -11.9538 C   0  0  0  0  0  0  0  0  0  0  0  0
   21.3248  -21.9460  -11.3540 O   0  0  0  0  0  0  0  0  0  0  0  0
   22.6184  -18.9615  -15.0831 O   0  0  0  0  0  0  0  0  0  0  0  0
   22.6687  -20.3403  -15.0369 C   0  0  0  0  0  0  0  0  0  0  0  0
   22.3955  -20.8787  -13.6344 C   0  0  2  0  0  0  0  0  0  0  0  0
   21.0983  -20.5004  -13.1650 N   0  0  0  0  0  0  0  0  0  0  0  0
   23.4910  -20.3846  -12.7787 C   0  0  0  0  0  0  0  0  0  0  0  0
   23.3016  -19.5820  -11.8386 O   0  0  0  0  0  0  0  0  0  0  0  0
   27.4860  -19.8197   -7.1105 C   0  0  0  0  0  0  0  0  0  0  0  0
   26.1305  -20.2951   -8.2188 S   0  0  0  0  0  0  0  0  0  0  0  0
   26.7930  -20.7887   -9.8433 C   0  0  0  0  0  0  0  0  0  0  0  0
   25.6539  -21.0088  -10.7989 C   0  0  0  0  0  0  0  0  0  0  0  0
   25.9507  -20.5763  -12.1884 C   0  0  2  0  0  0  0  0  0  0  0  0
   24.8052  -20.8435  -13.0406 N   0  0  0  0  0  0  0  0  0  0  0  0
   27.1701  -21.1695  -12.7857 C   0  0  0  0  0  0  0  0  0  0  0  0
   27.0370  -22.1130  -13.7886 O   0  0  0  0  0  0  0  0  0  0  0  0
   28.3444  -20.8788  -12.4500 O   0  0  0  0  0  0  0  0  0  0  0  0
  1  2  1  0
  3  2  1  0
  3  4  2  0
  5  6  1  0
  7  6  1  6
  7  8  1  0
  8  3  1  0
  9  7  1  0
 10  9  2  0
 11 12  1  0
 13 14  1  0
 13 12  1  0
 15 14  1  1
 15 16  1  0
 15 17  1  0
 16  9  1  0
 17 19  2  0
 17 18  1  0
M  END
$$$$
