GSM.pdb
     RDKit          3D

 19 18  0  0  1  0  0  0  0  0999 V2000
   21.2598  -15.4300  -16.5133 N   0  0  0  0  0  0  0  0  0  0  0  0
   20.8375  -14.8097  -17.7261 C   0  0  0  0  0  0  0  0  0  0  0  0
   20.9870  -13.3509  -17.7407 C   0  0  0  0  0  0  0  0  0  0  0  0
   22.1265  -12.9034  -18.1059 O   0  0  0  0  0  0  0  0  0  0  0  0
   19.2194   -8.9146  -18.0599 O   0  0  0  0  0  0  0  0  0  0  0  0
   18.9536  -10.2368  -17.7659 C   0  0  0  0  0  0  0  0  0  0  0  0
   20.2279  -11.0322  -17.4920 C   0  0  2  0  0  0  0  0  0  0  0  0
   19.9642  -12.4338  -17.3814 N   0  0  0  0  0  0  0  0  0  0  0  0
   20.8247  -10.4543  -16.2728 C   0  0  0  0  0  0  0  0  0  0  0  0
   20.4317  -10.7532  -15.1238 O   0  0  0  0  0  0  0  0  0  0  0  0
   27.0750  -12.0698  -15.3936 C   0  0  0  0  0  0  0  0  0  0  0  0
   26.4054  -10.3974  -15.6097 S   0  0  0  0  0  0  0  0  0  0  0  0
   24.6189  -10.3861  -15.2492 C   0  0  0  0  0  0  0  0  0  0  0  0
   24.0616   -9.0208  -15.5395 C   0  0  0  0  0  0  0  0  0  0  0  0
   22.5976   -8.9149  -15.3125 C   0  0  2  0  0  0  0  0  0  0  0  0
   21.8840   -9.5256  -16.4205 N   0  0  0  0  0  0  0  0  0  0  0  0
   22.0932   -7.5400  -15.0871 C   0  0  0  0  0  0  0  0  0  0  0  0
   22.2301   -6.9706  -13.8338 O   0  0  0  0  0  0  0  0  0  0  0  0
   21.5389   -6.8297  -15.9615 O   0  0  0  0  0  0  0  0  0  0  0  0
  1  2  1  0
  3  2  1  0
  3  4  2  0
  5  6  1  0
  7  6  1  1
  7  8  1  0
  8  3  1  0
  9  7  1  0
 10  9  2  0
 11 12  1  0
 13 14  1  0
 13 12  1  0
 15 14  1  6
 15 16  1  0
 15 17  1  0
 16  9  1  0
 17 19  2  0
 17 18  1  0
M  END
$$$$
