RFM.pdb
     RDKit          3D

 31 31  0  0  1  0  0  0  0  0999 V2000
   24.8354  -16.6547  -15.7930 N   0  0  0  0  0  0  0  0  0  0  0  0
   26.0225  -15.9667  -16.2095 C   0  0  0  0  0  0  0  0  0  0  0  0
   25.9967  -15.2621  -17.2879 N   0  0  0  0  0  0  0  0  0  0  0  0
   27.2063  -16.0698  -15.4308 N   0  0  0  0  0  0  0  0  0  0  0  0
   27.6803  -17.3158  -14.8940 C   0  0  0  0  0  0  0  0  0  0  0  0
   27.6134  -18.3868  -15.9455 C   0  0  0  0  0  0  0  0  0  0  0  0
   26.9266  -19.6349  -15.4184 C   0  0  0  0  0  0  0  0  0  0  0  0
   27.5491  -20.1549  -14.1543 C   0  0  2  0  0  0  0  0  0  0  0  0
   28.5885  -21.1330  -14.4265 N   0  0  0  0  0  0  0  0  0  0  0  0
   26.4808  -20.7314  -13.2954 C   0  0  0  0  0  0  0  0  0  0  0  0
   26.0541  -21.8907  -13.5298 O   0  0  0  0  0  0  0  0  0  0  0  0
   26.8015  -14.6720  -17.5269 N   0  0  0  0  0  0  0  0  0  0  0  0
   25.9112  -20.0235  -12.2047 C   0  0  2  0  0  0  0  0  0  0  0  0
   24.9091  -20.6583  -11.3900 C   0  0  0  0  0  0  0  0  0  0  0  0
   24.9470  -20.1886   -9.9613 C   0  0  0  0  0  0  0  0  0  0  0  0
   26.2269  -20.3463   -9.2952 C   0  0  0  0  0  0  0  0  0  0  0  0
   26.6642  -19.4367   -8.3714 C   0  0  0  0  0  0  0  0  0  0  0  0
   27.9017  -19.5810   -7.7291 C   0  0  0  0  0  0  0  0  0  0  0  0
   28.6883  -20.6467   -8.0273 C   0  0  0  0  0  0  0  0  0  0  0  0
   28.2799  -21.5745   -8.9468 C   0  0  0  0  0  0  0  0  0  0  0  0
   27.0395  -21.4197   -9.5833 C   0  0  0  0  0  0  0  0  0  0  0  0
   23.5953  -20.5260  -12.0458 O   0  0  0  0  0  0  0  0  0  0  0  0
   23.2729  -19.4214  -12.6078 C   0  0  0  0  0  0  0  0  0  0  0  0
   20.0292  -24.9739  -15.3091 S   0  0  0  0  0  0  0  0  0  0  0  0
   18.7194  -24.0410  -14.4717 C   0  0  0  0  0  0  0  0  0  0  0  0
   19.3986  -22.4783  -13.8665 C   0  0  0  0  0  0  0  0  0  0  0  0
   20.7046  -22.6429  -13.1592 C   0  0  2  0  0  0  0  0  0  0  0  0
   21.3062  -21.3203  -12.7041 N   0  0  0  0  0  0  0  0  0  0  0  0
   22.6133  -21.5455  -12.1187 C   0  0  0  0  0  0  0  0  0  0  0  0
   20.4006  -20.5226  -11.8760 O   0  0  0  0  0  0  0  0  0  0  0  0
   19.7325  -19.6228  -12.4947 O   0  0  0  0  0  0  0  0  0  0  0  0
  1  2  1  0
  2  3  2  0
  4  2  1  0
  4  5  1  0
  6  5  1  0
  7  6  1  0
  8 10  1  0
  8  7  1  0
  8  9  1  6
 10 12  1  0
 11 10  2  0
 12 13  1  0
 14 15  1  0
 13 14  1  6
 15 20  2  0
 16 17  2  0
 16 15  1  0
 17 18  1  0
 18 19  2  0
 20 19  1  0
 21 22  2  0
 21 13  1  0
 24 25  1  0
 24 23  1  0
 25 26  1  0
 27 26  1  6
 27 28  1  0
 27 29  1  0
 28 21  1  0
 29 30  2  0
 29 31  1  0
M  END
$$$$
