RFM.pdb
     RDKit          3D

 31 31  0  0  1  0  0  0  0  0999 V2000
   27.7848  -16.0376  -16.9289 N   0  0  0  0  0  0  0  0  0  0  0  0
   29.0588  -16.5732  -17.3113 C   0  0  0  0  0  0  0  0  0  0  0  0
   29.9238  -15.8010  -17.8728 N   0  0  0  0  0  0  0  0  0  0  0  0
   29.3495  -17.9420  -17.0663 N   0  0  0  0  0  0  0  0  0  0  0  0
   28.4582  -18.8123  -16.3498 C   0  0  0  0  0  0  0  0  0  0  0  0
   27.0444  -18.5881  -16.8057 C   0  0  0  0  0  0  0  0  0  0  0  0
   26.1024  -19.6192  -16.2086 C   0  0  0  0  0  0  0  0  0  0  0  0
   26.7972  -20.5826  -15.2894 C   0  0  2  0  0  0  0  0  0  0  0  0
   27.5989  -21.5469  -16.0232 N   0  0  0  0  0  0  0  0  0  0  0  0
   25.7775  -21.2623  -14.4471 C   0  0  0  0  0  0  0  0  0  0  0  0
   25.0767  -22.1817  -14.9416 O   0  0  0  0  0  0  0  0  0  0  0  0
   30.8498  -16.1701  -18.1164 N   0  0  0  0  0  0  0  0  0  0  0  0
   25.5547  -20.9171  -13.0882 C   0  0  2  0  0  0  0  0  0  0  0  0
   24.5547  -21.6213  -12.3300 C   0  0  0  0  0  0  0  0  0  0  0  0
   24.9481  -21.8044  -10.8895 C   0  0  0  0  0  0  0  0  0  0  0  0
   26.0276  -20.9485  -10.4325 C   0  0  0  0  0  0  0  0  0  0  0  0
   25.7788  -19.8228   -9.6959 C   0  0  0  0  0  0  0  0  0  0  0  0
   26.8170  -18.9897   -9.2566 C   0  0  0  0  0  0  0  0  0  0  0  0
   28.1010  -19.3032   -9.5668 C   0  0  0  0  0  0  0  0  0  0  0  0
   28.3836  -20.4223  -10.3021 C   0  0  0  0  0  0  0  0  0  0  0  0
   27.3365  -21.2486  -10.7363 C   0  0  0  0  0  0  0  0  0  0  0  0
   23.2463  -20.9727  -12.5321 O   0  0  0  0  0  0  0  0  0  0  0  0
   23.1294  -19.7089  -12.3618 C   0  0  0  0  0  0  0  0  0  0  0  0
   19.0920  -21.7236  -17.1650 S   0  0  0  0  0  0  0  0  0  0  0  0
   17.8680  -21.1702  -15.9473 C   0  0  0  0  0  0  0  0  0  0  0  0
   18.7180  -20.7095  -14.4194 C   0  0  0  0  0  0  0  0  0  0  0  0
   20.0580  -21.3555  -14.2777 C   0  0  1  0  0  0  0  0  0  0  0  0
   20.7790  -20.9566  -12.9972 N   0  0  0  0  0  0  0  0  0  0  0  0
   22.0552  -21.6396  -12.9135 C   0  0  0  0  0  0  0  0  0  0  0  0
   19.9475  -21.0770  -11.7988 O   0  0  0  0  0  0  0  0  0  0  0  0
   19.3500  -20.0068  -11.4295 O   0  0  0  0  0  0  0  0  0  0  0  0
  1  2  1  0
  2  3  2  0
  4  2  1  0
  4  5  1  0
  6  5  1  0
  7  6  1  0
  8 10  1  0
  8  7  1  0
  8  9  1  6
 10 12  1  0
 11 10  2  0
 12 13  1  0
 14 15  1  0
 13 14  1  6
 15 20  2  0
 16 17  2  0
 16 15  1  0
 17 18  1  0
 18 19  2  0
 20 19  1  0
 21 22  2  0
 21 13  1  0
 24 25  1  0
 24 23  1  0
 25 26  1  0
 27 26  1  6
 27 28  1  0
 27 29  1  0
 28 21  1  0
 29 30  2  0
 29 31  1  0
M  END
$$$$
