RFM.pdb
     RDKit          3D

 31 31  0  0  1  0  0  0  0  0999 V2000
   18.5272  -12.6740  -23.8030 N   0  0  0  0  0  0  0  0  0  0  0  0
   18.7968  -13.6338  -22.7724 C   0  0  0  0  0  0  0  0  0  0  0  0
   17.8285  -14.3413  -22.3015 N   0  0  0  0  0  0  0  0  0  0  0  0
   20.1224  -13.7918  -22.2865 N   0  0  0  0  0  0  0  0  0  0  0  0
   21.2217  -12.9872  -22.7441 C   0  0  0  0  0  0  0  0  0  0  0  0
   22.4975  -13.4436  -22.0951 C   0  0  0  0  0  0  0  0  0  0  0  0
   22.4221  -13.3192  -20.5831 C   0  0  0  0  0  0  0  0  0  0  0  0
   23.7293  -13.6174  -19.9062 C   0  0  2  0  0  0  0  0  0  0  0  0
   24.0587  -15.0313  -19.9665 N   0  0  0  0  0  0  0  0  0  0  0  0
   23.6604  -13.1416  -18.4991 C   0  0  0  0  0  0  0  0  0  0  0  0
   22.9388  -13.7543  -17.6714 O   0  0  0  0  0  0  0  0  0  0  0  0
   18.0250  -15.0700  -21.6063 N   0  0  0  0  0  0  0  0  0  0  0  0
   24.3834  -12.0104  -18.0380 C   0  0  1  0  0  0  0  0  0  0  0  0
   24.2303  -11.5751  -16.6749 C   0  0  0  0  0  0  0  0  0  0  0  0
   25.4916  -11.7432  -15.8723 C   0  0  0  0  0  0  0  0  0  0  0  0
   25.9568  -13.1112  -15.7358 C   0  0  0  0  0  0  0  0  0  0  0  0
   26.8673  -13.6427  -16.6078 C   0  0  0  0  0  0  0  0  0  0  0  0
   27.3159  -14.9649  -16.4840 C   0  0  0  0  0  0  0  0  0  0  0  0
   26.8387  -15.7401  -15.4767 C   0  0  0  0  0  0  0  0  0  0  0  0
   25.9271  -15.2386  -14.5877 C   0  0  0  0  0  0  0  0  0  0  0  0
   25.4853  -13.9140  -14.7214 C   0  0  0  0  0  0  0  0  0  0  0  0
   23.6700  -10.2115  -16.6610 O   0  0  0  0  0  0  0  0  0  0  0  0
   23.8646   -9.4333  -17.6592 C   0  0  0  0  0  0  0  0  0  0  0  0
   19.0574   -5.2211  -18.8261 S   0  0  0  0  0  0  0  0  0  0  0  0
   19.9033   -6.8230  -18.7527 C   0  0  0  0  0  0  0  0  0  0  0  0
   20.8489   -6.9242  -17.2148 C   0  0  0  0  0  0  0  0  0  0  0  0
   21.5721   -8.2223  -17.0570 C   0  0  1  0  0  0  0  0  0  0  0  0
   22.2730   -8.3537  -15.7117 N   0  0  0  0  0  0  0  0  0  0  0  0
   22.9040   -9.6549  -15.6064 C   0  0  0  0  0  0  0  0  0  0  0  0
   21.4225   -7.9989  -14.5746 O   0  0  0  0  0  0  0  0  0  0  0  0
   21.0173   -8.9798  -13.8589 O   0  0  0  0  0  0  0  0  0  0  0  0
  1  2  1  0
  2  3  2  0
  4  2  1  0
  4  5  1  0
  6  5  1  0
  7  6  1  0
  8 10  1  0
  8  7  1  0
  8  9  1  1
 10 12  1  0
 11 10  2  0
 12 13  1  0
 14 15  1  0
 13 14  1  1
 15 20  2  0
 16 17  2  0
 16 15  1  0
 17 18  1  0
 18 19  2  0
 20 19  1  0
 21 22  2  0
 21 13  1  0
 24 25  1  0
 24 23  1  0
 25 26  1  0
 27 26  1  6
 27 28  1  0
 27 29  1  0
 28 21  1  0
 29 30  2  0
 29 31  1  0
M  END
$$$$
