RFM.pdb
     RDKit          3D

 31 31  0  0  1  0  0  0  0  0999 V2000
   24.5107  -20.0208  -17.5644 N   0  0  0  0  0  0  0  0  0  0  0  0
   25.5455  -21.0083  -17.6653 C   0  0  0  0  0  0  0  0  0  0  0  0
   26.3785  -20.9498  -18.6464 N   0  0  0  0  0  0  0  0  0  0  0  0
   25.6387  -22.0333  -16.6860 N   0  0  0  0  0  0  0  0  0  0  0  0
   25.2851  -21.8298  -15.3081 C   0  0  0  0  0  0  0  0  0  0  0  0
   25.7980  -20.4983  -14.8374 C   0  0  0  0  0  0  0  0  0  0  0  0
   25.4133  -20.2394  -13.3909 C   0  0  0  0  0  0  0  0  0  0  0  0
   26.4716  -20.6742  -12.4179 C   0  0  2  0  0  0  0  0  0  0  0  0
   27.2681  -21.7714  -12.9404 N   0  0  0  0  0  0  0  0  0  0  0  0
   25.8193  -21.0477  -11.1349 C   0  0  0  0  0  0  0  0  0  0  0  0
   25.8386  -22.2461  -10.7546 O   0  0  0  0  0  0  0  0  0  0  0  0
   27.0734  -21.6954  -18.7662 N   0  0  0  0  0  0  0  0  0  0  0  0
   25.1658  -20.0995  -10.3048 C   0  0  1  0  0  0  0  0  0  0  0  0
   24.6066  -20.5204   -9.0474 C   0  0  0  0  0  0  0  0  0  0  0  0
   24.8310  -19.5137   -7.9522 C   0  0  0  0  0  0  0  0  0  0  0  0
   26.0925  -19.6431   -7.2461 C   0  0  0  0  0  0  0  0  0  0  0  0
   27.0722  -18.6952   -7.3617 C   0  0  0  0  0  0  0  0  0  0  0  0
   28.2945  -18.8177   -6.6865 C   0  0  0  0  0  0  0  0  0  0  0  0
   28.5158  -19.9005   -5.8980 C   0  0  0  0  0  0  0  0  0  0  0  0
   27.5561  -20.8666   -5.7610 C   0  0  0  0  0  0  0  0  0  0  0  0
   26.3368  -20.7334   -6.4416 C   0  0  0  0  0  0  0  0  0  0  0  0
   23.1980  -20.9068   -9.2479 O   0  0  0  0  0  0  0  0  0  0  0  0
   22.5610  -20.4806  -10.2738 C   0  0  0  0  0  0  0  0  0  0  0  0
   19.3491  -24.5178   -5.0675 S   0  0  0  0  0  0  0  0  0  0  0  0
   18.5959  -24.7796   -6.6958 C   0  0  0  0  0  0  0  0  0  0  0  0
   19.1390  -23.4698   -7.8178 C   0  0  0  0  0  0  0  0  0  0  0  0
   20.5595  -23.0619   -7.5970 C   0  0  2  0  0  0  0  0  0  0  0  0
   21.0463  -22.0299   -8.6051 N   0  0  0  0  0  0  0  0  0  0  0  0
   22.4488  -21.7397   -8.3796 C   0  0  0  0  0  0  0  0  0  0  0  0
   20.1884  -20.8470   -8.6884 O   0  0  0  0  0  0  0  0  0  0  0  0
   20.6139  -19.8098   -8.0704 O   0  0  0  0  0  0  0  0  0  0  0  0
  1  2  1  0
  2  3  2  0
  4  2  1  0
  4  5  1  0
  6  5  1  0
  7  6  1  0
  8 10  1  0
  8  7  1  0
  8  9  1  6
 10 12  1  0
 11 10  2  0
 12 13  1  0
 14 15  1  0
 13 14  1  1
 15 20  2  0
 16 17  2  0
 16 15  1  0
 17 18  1  0
 18 19  2  0
 20 19  1  0
 21 22  2  0
 21 13  1  0
 24 25  1  0
 24 23  1  0
 25 26  1  0
 27 26  1  6
 27 28  1  0
 27 29  1  0
 28 21  1  0
 29 30  2  0
 29 31  1  0
M  END
$$$$
