RFM.pdb
     RDKit          3D

 31 31  0  0  1  0  0  0  0  0999 V2000
   28.8307  -26.8033  -17.5967 N   0  0  0  0  0  0  0  0  0  0  0  0
   27.9154  -26.3324  -16.5985 C   0  0  0  0  0  0  0  0  0  0  0  0
   27.2417  -27.1866  -15.9084 N   0  0  0  0  0  0  0  0  0  0  0  0
   27.7645  -24.9361  -16.3839 N   0  0  0  0  0  0  0  0  0  0  0  0
   28.5602  -23.9521  -17.0649 C   0  0  0  0  0  0  0  0  0  0  0  0
   27.7171  -23.2112  -18.0636 C   0  0  0  0  0  0  0  0  0  0  0  0
   26.6278  -22.4061  -17.3761 C   0  0  0  0  0  0  0  0  0  0  0  0
   27.0153  -20.9729  -17.1493 C   0  0  2  0  0  0  0  0  0  0  0  0
   28.3019  -20.8598  -16.4836 N   0  0  0  0  0  0  0  0  0  0  0  0
   25.9438  -20.3048  -16.3638 C   0  0  0  0  0  0  0  0  0  0  0  0
   25.9272  -20.4218  -15.1119 O   0  0  0  0  0  0  0  0  0  0  0  0
   26.5199  -26.8562  -15.2581 N   0  0  0  0  0  0  0  0  0  0  0  0
   24.9225  -19.5276  -16.9703 C   0  0  1  0  0  0  0  0  0  0  0  0
   23.9910  -18.8068  -16.1434 C   0  0  0  0  0  0  0  0  0  0  0  0
   23.9168  -17.3468  -16.4986 C   0  0  0  0  0  0  0  0  0  0  0  0
   25.1732  -16.6260  -16.4066 C   0  0  0  0  0  0  0  0  0  0  0  0
   25.5164  -15.9374  -15.2753 C   0  0  0  0  0  0  0  0  0  0  0  0
   26.7259  -15.2350  -15.1829 C   0  0  0  0  0  0  0  0  0  0  0  0
   27.5802  -15.2354  -16.2381 C   0  0  0  0  0  0  0  0  0  0  0  0
   27.2667  -15.9145  -17.3842 C   0  0  0  0  0  0  0  0  0  0  0  0
   26.0534  -16.6138  -17.4652 C   0  0  0  0  0  0  0  0  0  0  0  0
   22.6939  -19.5075  -16.1493 O   0  0  0  0  0  0  0  0  0  0  0  0
   22.4990  -20.4790  -16.9605 C   0  0  0  0  0  0  0  0  0  0  0  0
   22.4998  -24.6107  -14.4678 S   0  0  0  0  0  0  0  0  0  0  0  0
   21.4959  -23.9069  -13.1321 C   0  0  0  0  0  0  0  0  0  0  0  0
   20.5696  -22.4909  -13.7697 C   0  0  0  0  0  0  0  0  0  0  0  0
   21.4494  -21.3645  -14.2057 C   0  0  2  0  0  0  0  0  0  0  0  0
   20.6756  -20.2128  -14.8328 N   0  0  0  0  0  0  0  0  0  0  0  0
   21.5956  -19.1982  -15.3085 C   0  0  0  0  0  0  0  0  0  0  0  0
   19.5984  -19.7035  -13.9828 O   0  0  0  0  0  0  0  0  0  0  0  0
   18.4415  -20.2100  -14.1919 O   0  0  0  0  0  0  0  0  0  0  0  0
  1  2  1  0
  2  3  2  0
  4  2  1  0
  4  5  1  0
  6  5  1  0
  7  6  1  0
  8 10  1  0
  8  7  1  0
  8  9  1  1
 10 12  1  0
 11 10  2  0
 12 13  1  0
 14 15  1  0
 13 14  1  1
 15 20  2  0
 16 17  2  0
 16 15  1  0
 17 18  1  0
 18 19  2  0
 20 19  1  0
 21 22  2  0
 21 13  1  0
 24 25  1  0
 24 23  1  0
 25 26  1  0
 27 26  1  6
 27 28  1  0
 27 29  1  0
 28 21  1  0
 29 30  2  0
 29 31  1  0
M  END
$$$$
