RFM.pdb
     RDKit          3D

 31 31  0  0  1  0  0  0  0  0999 V2000
   19.3403  -23.9269   -7.1733 N   0  0  0  0  0  0  0  0  0  0  0  0
   18.3264  -24.8036   -7.6828 C   0  0  0  0  0  0  0  0  0  0  0  0
   18.1792  -25.9700   -7.1557 N   0  0  0  0  0  0  0  0  0  0  0  0
   17.5005  -24.3762   -8.7568 N   0  0  0  0  0  0  0  0  0  0  0  0
   17.8945  -23.3503   -9.6828 C   0  0  0  0  0  0  0  0  0  0  0  0
   19.3880  -23.1881   -9.6650 C   0  0  0  0  0  0  0  0  0  0  0  0
   19.8137  -21.9212  -10.3869 C   0  0  0  0  0  0  0  0  0  0  0  0
   20.2472  -22.1729  -11.8027 C   0  0  2  0  0  0  0  0  0  0  0  0
   20.5497  -23.5751  -12.0341 N   0  0  0  0  0  0  0  0  0  0  0  0
   21.4224  -21.3132  -12.1046 C   0  0  0  0  0  0  0  0  0  0  0  0
   21.2701  -20.0698  -12.2136 O   0  0  0  0  0  0  0  0  0  0  0  0
   17.4729  -26.6113   -7.5338 N   0  0  0  0  0  0  0  0  0  0  0  0
   22.7298  -21.8384  -12.2776 C   0  0  1  0  0  0  0  0  0  0  0  0
   23.7989  -20.9659  -12.6859 C   0  0  0  0  0  0  0  0  0  0  0  0
   25.1259  -21.3708  -12.1043 C   0  0  0  0  0  0  0  0  0  0  0  0
   26.2803  -20.7117  -12.6869 C   0  0  0  0  0  0  0  0  0  0  0  0
   26.4827  -19.3671  -12.5356 C   0  0  0  0  0  0  0  0  0  0  0  0
   27.5928  -18.7244  -13.1006 C   0  0  0  0  0  0  0  0  0  0  0  0
   28.4912  -19.4491  -13.8156 C   0  0  0  0  0  0  0  0  0  0  0  0
   28.3178  -20.7959  -13.9854 C   0  0  0  0  0  0  0  0  0  0  0  0
   27.2030  -21.4283  -13.4154 C   0  0  0  0  0  0  0  0  0  0  0  0
   23.7852  -20.8362  -14.1545 O   0  0  0  0  0  0  0  0  0  0  0  0
   23.6878  -21.8835  -14.8849 C   0  0  0  0  0  0  0  0  0  0  0  0
   20.1609  -17.5442  -17.9313 S   0  0  0  0  0  0  0  0  0  0  0  0
   21.6100  -17.4697  -19.0183 C   0  0  0  0  0  0  0  0  0  0  0  0
   22.9022  -18.5487  -18.3585 C   0  0  0  0  0  0  0  0  0  0  0  0
   22.8916  -18.6295  -16.8664 C   0  0  2  0  0  0  0  0  0  0  0  0
   23.9575  -19.5654  -16.3131 N   0  0  0  0  0  0  0  0  0  0  0  0
   23.8724  -19.6138  -14.8665 C   0  0  0  0  0  0  0  0  0  0  0  0
   25.2985  -19.2929  -16.8324 O   0  0  0  0  0  0  0  0  0  0  0  0
   25.9218  -18.3236  -16.2749 O   0  0  0  0  0  0  0  0  0  0  0  0
  1  2  1  0
  2  3  2  0
  4  2  1  0
  4  5  1  0
  6  5  1  0
  7  6  1  0
  8 10  1  0
  8  7  1  0
  8  9  1  1
 10 12  1  0
 11 10  2  0
 12 13  1  0
 14 15  1  0
 13 14  1  1
 15 20  2  0
 16 17  2  0
 16 15  1  0
 17 18  1  0
 18 19  2  0
 20 19  1  0
 21 22  2  0
 21 13  1  0
 24 25  1  0
 24 23  1  0
 25 26  1  0
 27 26  1  6
 27 28  1  0
 27 29  1  0
 28 21  1  0
 29 30  2  0
 29 31  1  0
M  END
$$$$
