RFM.pdb
     RDKit          3D

 31 31  0  0  1  0  0  0  0  0999 V2000
   22.0691  -18.3655  -15.4490 N   0  0  0  0  0  0  0  0  0  0  0  0
   22.5601  -17.4235  -16.4122 C   0  0  0  0  0  0  0  0  0  0  0  0
   21.7257  -16.6578  -17.0264 N   0  0  0  0  0  0  0  0  0  0  0  0
   23.9541  -17.3466  -16.6748 N   0  0  0  0  0  0  0  0  0  0  0  0
   24.9235  -18.1501  -15.9821 C   0  0  0  0  0  0  0  0  0  0  0  0
   24.7577  -19.5948  -16.3598 C   0  0  0  0  0  0  0  0  0  0  0  0
   25.2316  -20.5135  -15.2469 C   0  0  0  0  0  0  0  0  0  0  0  0
   26.7276  -20.6303  -15.1828 C   0  0  2  0  0  0  0  0  0  0  0  0
   27.2466  -21.5033  -16.2220 N   0  0  0  0  0  0  0  0  0  0  0  0
   27.1134  -21.1161  -13.8313 C   0  0  0  0  0  0  0  0  0  0  0  0
   26.9083  -22.3174  -13.5217 O   0  0  0  0  0  0  0  0  0  0  0  0
   22.0766  -15.9356  -17.6655 N   0  0  0  0  0  0  0  0  0  0  0  0
   27.7131  -20.2741  -12.8584 C   0  0  2  0  0  0  0  0  0  0  0  0
   28.0203  -20.7998  -11.5545 C   0  0  0  0  0  0  0  0  0  0  0  0
   29.3518  -20.3235  -11.0413 C   0  0  0  0  0  0  0  0  0  0  0  0
   30.4291  -21.2919  -11.1326 C   0  0  0  0  0  0  0  0  0  0  0  0
   31.1946  -21.6083  -10.0437 C   0  0  0  0  0  0  0  0  0  0  0  0
   32.2397  -22.5386  -10.1275 C   0  0  0  0  0  0  0  0  0  0  0  0
   32.5022  -23.1425  -11.3148 C   0  0  0  0  0  0  0  0  0  0  0  0
   31.7550  -22.8481  -12.4229 C   0  0  0  0  0  0  0  0  0  0  0  0
   30.7116  -21.9155  -12.3272 C   0  0  0  0  0  0  0  0  0  0  0  0
   26.8854  -20.5446  -10.6487 O   0  0  0  0  0  0  0  0  0  0  0  0
   26.2554  -19.4317  -10.7157 C   0  0  0  0  0  0  0  0  0  0  0  0
   29.3096  -20.2265   -5.1891 S   0  0  0  0  0  0  0  0  0  0  0  0
   27.8753  -19.1206   -5.2712 C   0  0  0  0  0  0  0  0  0  0  0  0
   26.5617  -19.9226   -6.2203 C   0  0  0  0  0  0  0  0  0  0  0  0
   26.9919  -20.3193   -7.5952 C   0  0  2  0  0  0  0  0  0  0  0  0
   25.8881  -21.0031   -8.3905 N   0  0  0  0  0  0  0  0  0  0  0  0
   26.4029  -21.4495   -9.6703 C   0  0  0  0  0  0  0  0  0  0  0  0
   24.6569  -20.2161   -8.4737 O   0  0  0  0  0  0  0  0  0  0  0  0
   24.5808  -19.4101   -9.4653 O   0  0  0  0  0  0  0  0  0  0  0  0
  1  2  1  0
  2  3  2  0
  4  2  1  0
  4  5  1  0
  6  5  1  0
  7  6  1  0
  8 10  1  0
  8  7  1  0
  8  9  1  6
 10 12  1  0
 11 10  2  0
 12 13  1  0
 14 15  1  0
 13 14  1  6
 15 20  2  0
 16 17  2  0
 16 15  1  0
 17 18  1  0
 18 19  2  0
 20 19  1  0
 21 22  2  0
 21 13  1  0
 24 25  1  0
 24 23  1  0
 25 26  1  0
 27 26  1  1
 27 28  1  0
 27 29  1  0
 28 21  1  0
 29 30  2  0
 29 31  1  0
M  END
$$$$
