RFM.pdb
     RDKit          3D

 31 31  0  0  1  0  0  0  0  0999 V2000
   19.2506  -19.9669  -14.5566 N   0  0  0  0  0  0  0  0  0  0  0  0
   19.3148  -19.7825  -15.9772 C   0  0  0  0  0  0  0  0  0  0  0  0
   18.2632  -19.3900  -16.6096 N   0  0  0  0  0  0  0  0  0  0  0  0
   20.5320  -20.0332  -16.6656 N   0  0  0  0  0  0  0  0  0  0  0  0
   21.7006  -20.5605  -16.0164 C   0  0  0  0  0  0  0  0  0  0  0  0
   21.3551  -21.8272  -15.2860 C   0  0  0  0  0  0  0  0  0  0  0  0
   22.5491  -22.3619  -14.5142 C   0  0  0  0  0  0  0  0  0  0  0  0
   23.8285  -22.2964  -15.2981 C   0  0  2  0  0  0  0  0  0  0  0  0
   24.1291  -23.5605  -15.9485 N   0  0  0  0  0  0  0  0  0  0  0  0
   24.9294  -21.8867  -14.3862 C   0  0  0  0  0  0  0  0  0  0  0  0
   25.5533  -22.7620  -13.7339 O   0  0  0  0  0  0  0  0  0  0  0  0
   18.3109  -19.2309  -17.6222 N   0  0  0  0  0  0  0  0  0  0  0  0
   25.3163  -20.5316  -14.2153 C   0  0  2  0  0  0  0  0  0  0  0  0
   26.4393  -20.2130  -13.3736 C   0  0  0  0  0  0  0  0  0  0  0  0
   27.3935  -19.2510  -14.0273 C   0  0  0  0  0  0  0  0  0  0  0  0
   27.8889  -19.6632  -15.3278 C   0  0  0  0  0  0  0  0  0  0  0  0
   27.2883  -19.2430  -16.4831 C   0  0  0  0  0  0  0  0  0  0  0  0
   27.7591  -19.6424  -17.7415 C   0  0  0  0  0  0  0  0  0  0  0  0
   28.8361  -20.4653  -17.8209 C   0  0  0  0  0  0  0  0  0  0  0  0
   29.4594  -20.9035  -16.6841 C   0  0  0  0  0  0  0  0  0  0  0  0
   28.9795  -20.4973  -15.4303 C   0  0  0  0  0  0  0  0  0  0  0  0
   25.9485  -19.7880  -12.0500 O   0  0  0  0  0  0  0  0  0  0  0  0
   24.8335  -19.1656  -11.9544 C   0  0  0  0  0  0  0  0  0  0  0  0
   21.4631  -21.2807   -9.7306 S   0  0  0  0  0  0  0  0  0  0  0  0
   22.4282  -21.6562   -8.2425 C   0  0  0  0  0  0  0  0  0  0  0  0
   23.9341  -20.6554   -8.2443 C   0  0  0  0  0  0  0  0  0  0  0  0
   24.7336  -20.8035   -9.4980 C   0  0  2  0  0  0  0  0  0  0  0  0
   25.9488  -19.8870   -9.5411 N   0  0  0  0  0  0  0  0  0  0  0  0
   26.6184  -20.0114  -10.8211 C   0  0  0  0  0  0  0  0  0  0  0  0
   26.8286  -20.0311   -8.3804 O   0  0  0  0  0  0  0  0  0  0  0  0
   27.8868  -20.7260   -8.5705 O   0  0  0  0  0  0  0  0  0  0  0  0
  1  2  1  0
  2  3  2  0
  4  2  1  0
  4  5  1  0
  6  5  1  0
  7  6  1  0
  8 10  1  0
  8  7  1  0
  8  9  1  1
 10 12  1  0
 11 10  2  0
 12 13  1  0
 14 15  1  0
 13 14  1  6
 15 20  2  0
 16 17  2  0
 16 15  1  0
 17 18  1  0
 18 19  2  0
 20 19  1  0
 21 22  2  0
 21 13  1  0
 24 25  1  0
 24 23  1  0
 25 26  1  0
 27 26  1  6
 27 28  1  0
 27 29  1  0
 28 21  1  0
 29 30  2  0
 29 31  1  0
M  END
$$$$
