RFM.pdb
     RDKit          3D

 31 31  0  0  1  0  0  0  0  0999 V2000
   23.8943  -19.0753  -17.2613 N   0  0  0  0  0  0  0  0  0  0  0  0
   24.8838  -18.2409  -17.8783 C   0  0  0  0  0  0  0  0  0  0  0  0
   24.7254  -17.8769  -19.1040 N   0  0  0  0  0  0  0  0  0  0  0  0
   26.0206  -17.8276  -17.1331 N   0  0  0  0  0  0  0  0  0  0  0  0
   26.2323  -18.2019  -15.7619 C   0  0  0  0  0  0  0  0  0  0  0  0
   26.4038  -19.6908  -15.6564 C   0  0  0  0  0  0  0  0  0  0  0  0
   25.7574  -20.2322  -14.3930 C   0  0  0  0  0  0  0  0  0  0  0  0
   26.7546  -20.5465  -13.3148 C   0  0  2  0  0  0  0  0  0  0  0  0
   27.6989  -21.5684  -13.7333 N   0  0  0  0  0  0  0  0  0  0  0  0
   26.0214  -20.9623  -12.0897 C   0  0  0  0  0  0  0  0  0  0  0  0
   25.5478  -22.1247  -12.0143 O   0  0  0  0  0  0  0  0  0  0  0  0
   25.4244  -17.2698  -19.5466 N   0  0  0  0  0  0  0  0  0  0  0  0
   25.8287  -20.0951  -10.9825 C   0  0  2  0  0  0  0  0  0  0  0  0
   25.0894  -20.5567   -9.8373 C   0  0  0  0  0  0  0  0  0  0  0  0
   25.3188  -19.7010   -8.6214 C   0  0  0  0  0  0  0  0  0  0  0  0
   26.6079  -19.8779   -7.9783 C   0  0  0  0  0  0  0  0  0  0  0  0
   27.3135  -21.0428   -8.1090 C   0  0  0  0  0  0  0  0  0  0  0  0
   28.5563  -21.2212   -7.4856 C   0  0  0  0  0  0  0  0  0  0  0  0
   29.0761  -20.2173   -6.7337 C   0  0  0  0  0  0  0  0  0  0  0  0
   28.3955  -19.0396   -6.5831 C   0  0  0  0  0  0  0  0  0  0  0  0
   27.1526  -18.8724   -7.2116 C   0  0  0  0  0  0  0  0  0  0  0  0
   23.6734  -20.7274  -10.2105 O   0  0  0  0  0  0  0  0  0  0  0  0
   23.1524  -19.9641  -11.0970 C   0  0  0  0  0  0  0  0  0  0  0  0
   17.6799  -23.3510  -13.6446 S   0  0  0  0  0  0  0  0  0  0  0  0
   19.4383  -23.4467  -13.2134 C   0  0  0  0  0  0  0  0  0  0  0  0
   19.7069  -22.6139  -11.6310 C   0  0  0  0  0  0  0  0  0  0  0  0
   21.1526  -22.4855  -11.2753 C   0  0  1  0  0  0  0  0  0  0  0  0
   21.3809  -21.7245   -9.9765 N   0  0  0  0  0  0  0  0  0  0  0  0
   22.7958  -21.6954   -9.6611 C   0  0  0  0  0  0  0  0  0  0  0  0
   20.5245  -22.1755   -8.8786 O   0  0  0  0  0  0  0  0  0  0  0  0
   19.2651  -22.1233   -9.1014 O   0  0  0  0  0  0  0  0  0  0  0  0
  1  2  1  0
  2  3  2  0
  4  2  1  0
  4  5  1  0
  6  5  1  0
  7  6  1  0
  8 10  1  0
  8  7  1  0
  8  9  1  6
 10 12  1  0
 11 10  2  0
 12 13  1  0
 14 15  1  0
 13 14  1  6
 15 20  2  0
 16 17  2  0
 16 15  1  0
 17 18  1  0
 18 19  2  0
 20 19  1  0
 21 22  2  0
 21 13  1  0
 24 25  1  0
 24 23  1  0
 25 26  1  0
 27 26  1  6
 27 28  1  0
 27 29  1  0
 28 21  1  0
 29 30  2  0
 29 31  1  0
M  END
$$$$
