RFM.pdb
     RDKit          3D

 31 31  0  0  1  0  0  0  0  0999 V2000
   23.9006  -19.5846  -19.2028 N   0  0  0  0  0  0  0  0  0  0  0  0
   23.4840  -20.7125  -19.9841 C   0  0  0  0  0  0  0  0  0  0  0  0
   23.0784  -20.5263  -21.1926 N   0  0  0  0  0  0  0  0  0  0  0  0
   23.5246  -22.0149  -19.4181 N   0  0  0  0  0  0  0  0  0  0  0  0
   24.0090  -22.2731  -18.0899 C   0  0  0  0  0  0  0  0  0  0  0  0
   25.5087  -22.1875  -18.0644 C   0  0  0  0  0  0  0  0  0  0  0  0
   26.0608  -22.5872  -16.7070 C   0  0  0  0  0  0  0  0  0  0  0  0
   25.5801  -21.6984  -15.5958 C   0  0  2  0  0  0  0  0  0  0  0  0
   25.5649  -20.3001  -15.9904 N   0  0  0  0  0  0  0  0  0  0  0  0
   26.4438  -21.9106  -14.4040 C   0  0  0  0  0  0  0  0  0  0  0  0
   26.6242  -23.0761  -13.9679 O   0  0  0  0  0  0  0  0  0  0  0  0
   22.7337  -21.3230  -21.7398 N   0  0  0  0  0  0  0  0  0  0  0  0
   27.0855  -20.8421  -13.7247 C   0  0  1  0  0  0  0  0  0  0  0  0
   27.8486  -21.1116  -12.5347 C   0  0  0  0  0  0  0  0  0  0  0  0
   29.1106  -20.2959  -12.4635 C   0  0  0  0  0  0  0  0  0  0  0  0
   29.9869  -20.6131  -11.3508 C   0  0  0  0  0  0  0  0  0  0  0  0
   29.9042  -19.9352  -10.1653 C   0  0  0  0  0  0  0  0  0  0  0  0
   30.7515  -20.2336   -9.0893 C   0  0  0  0  0  0  0  0  0  0  0  0
   31.6775  -21.2176   -9.2218 C   0  0  0  0  0  0  0  0  0  0  0  0
   31.7859  -21.9146  -10.3946 C   0  0  0  0  0  0  0  0  0  0  0  0
   30.9326  -21.6073  -11.4646 C   0  0  0  0  0  0  0  0  0  0  0  0
   26.9703  -20.9891  -11.3569 O   0  0  0  0  0  0  0  0  0  0  0  0
   25.9899  -20.1655  -11.3771 C   0  0  0  0  0  0  0  0  0  0  0  0
   29.0339  -19.4268   -5.9764 S   0  0  0  0  0  0  0  0  0  0  0  0
   27.4588  -19.9872   -5.2751 C   0  0  0  0  0  0  0  0  0  0  0  0
   26.4218  -20.6490   -6.6002 C   0  0  0  0  0  0  0  0  0  0  0  0
   27.1740  -20.8843   -7.8698 C   0  0  2  0  0  0  0  0  0  0  0  0
   26.3029  -21.4534   -8.9814 N   0  0  0  0  0  0  0  0  0  0  0  0
   27.1108  -21.7256  -10.1542 C   0  0  0  0  0  0  0  0  0  0  0  0
   25.1014  -20.6600   -9.2441 O   0  0  0  0  0  0  0  0  0  0  0  0
   24.0100  -21.1356   -8.7737 O   0  0  0  0  0  0  0  0  0  0  0  0
  1  2  1  0
  2  3  2  0
  4  2  1  0
  4  5  1  0
  6  5  1  0
  7  6  1  0
  8 10  1  0
  8  7  1  0
  8  9  1  6
 10 12  1  0
 11 10  2  0
 12 13  1  0
 14 15  1  0
 13 14  1  1
 15 20  2  0
 16 17  2  0
 16 15  1  0
 17 18  1  0
 18 19  2  0
 20 19  1  0
 21 22  2  0
 21 13  1  0
 24 25  1  0
 24 23  1  0
 25 26  1  0
 27 26  1  1
 27 28  1  0
 27 29  1  0
 28 21  1  0
 29 30  2  0
 29 31  1  0
M  END
$$$$
