RFM.pdb
     RDKit          3D

 31 31  0  0  1  0  0  0  0  0999 V2000
   26.3913  -26.4360  -16.4070 N   0  0  0  0  0  0  0  0  0  0  0  0
   25.3666  -26.6221  -17.3927 C   0  0  0  0  0  0  0  0  0  0  0  0
   25.3693  -27.6924  -18.1099 N   0  0  0  0  0  0  0  0  0  0  0  0
   24.3657  -25.6285  -17.5642 N   0  0  0  0  0  0  0  0  0  0  0  0
   24.2892  -24.4494  -16.7463 C   0  0  0  0  0  0  0  0  0  0  0  0
   25.6144  -23.7415  -16.7404 C   0  0  0  0  0  0  0  0  0  0  0  0
   26.1267  -23.5421  -15.3243 C   0  0  0  0  0  0  0  0  0  0  0  0
   25.2326  -22.6628  -14.4978 C   0  0  2  0  0  0  0  0  0  0  0  0
   25.0487  -21.3557  -15.1052 N   0  0  0  0  0  0  0  0  0  0  0  0
   25.8070  -22.5439  -13.1313 C   0  0  0  0  0  0  0  0  0  0  0  0
   26.1282  -23.5831  -12.5005 O   0  0  0  0  0  0  0  0  0  0  0  0
   24.6129  -27.8519  -18.7847 N   0  0  0  0  0  0  0  0  0  0  0  0
   26.0141  -21.2919  -12.4952 C   0  0  1  0  0  0  0  0  0  0  0  0
   26.5716  -21.2511  -11.1691 C   0  0  0  0  0  0  0  0  0  0  0  0
   27.4866  -20.0743  -10.9657 C   0  0  0  0  0  0  0  0  0  0  0  0
   28.0552  -19.9593   -9.6352 C   0  0  0  0  0  0  0  0  0  0  0  0
   29.1718  -20.6636   -9.2761 C   0  0  0  0  0  0  0  0  0  0  0  0
   29.7220  -20.5605   -7.9910 C   0  0  0  0  0  0  0  0  0  0  0  0
   29.1367  -19.7439   -7.0779 C   0  0  0  0  0  0  0  0  0  0  0  0
   28.0187  -19.0257   -7.4055 C   0  0  0  0  0  0  0  0  0  0  0  0
   27.4769  -19.1368   -8.6946 C   0  0  0  0  0  0  0  0  0  0  0  0
   25.4827  -21.3610  -10.1813 O   0  0  0  0  0  0  0  0  0  0  0  0
   24.3311  -20.8675  -10.4461 C   0  0  0  0  0  0  0  0  0  0  0  0
   26.7546  -21.3045   -3.9805 S   0  0  0  0  0  0  0  0  0  0  0  0
   24.9575  -21.4513   -3.7912 C   0  0  0  0  0  0  0  0  0  0  0  0
   24.1976  -21.5799   -5.4269 C   0  0  0  0  0  0  0  0  0  0  0  0
   25.1993  -21.6614   -6.5327 C   0  0  2  0  0  0  0  0  0  0  0  0
   24.5614  -21.8637   -7.9004 N   0  0  0  0  0  0  0  0  0  0  0  0
   25.5906  -21.9867   -8.9142 C   0  0  0  0  0  0  0  0  0  0  0  0
   23.5211  -20.8814   -8.2090 O   0  0  0  0  0  0  0  0  0  0  0  0
   22.3326  -21.3464   -8.3087 O   0  0  0  0  0  0  0  0  0  0  0  0
  1  2  1  0
  2  3  2  0
  4  2  1  0
  4  5  1  0
  6  5  1  0
  7  6  1  0
  8 10  1  0
  8  7  1  0
  8  9  1  6
 10 12  1  0
 11 10  2  0
 12 13  1  0
 14 15  1  0
 13 14  1  1
 15 20  2  0
 16 17  2  0
 16 15  1  0
 17 18  1  0
 18 19  2  0
 20 19  1  0
 21 22  2  0
 21 13  1  0
 24 25  1  0
 24 23  1  0
 25 26  1  0
 27 26  1  1
 27 28  1  0
 27 29  1  0
 28 21  1  0
 29 30  2  0
 29 31  1  0
M  END
$$$$
