FIQ.pdb
     RDKit          3D

 29 29  0  0  1  0  0  0  0  0999 V2000
   28.3791  -20.1933  -16.7654 N   0  0  0  0  0  0  0  0  0  0  0  0
   27.2304  -19.6633  -16.0755 C   0  0  1  0  0  0  0  0  0  0  0  0
   26.3483  -19.0022  -17.1246 C   0  0  0  0  0  0  0  0  0  0  0  0
   27.1069  -17.8563  -17.6772 C   0  0  0  0  0  0  0  0  0  0  0  0
   27.6871  -17.9440  -18.9174 C   0  0  0  0  0  0  0  0  0  0  0  0
   28.4034  -16.8675  -19.4440 C   0  0  0  0  0  0  0  0  0  0  0  0
   28.5241  -15.6981  -18.6952 C   0  0  0  0  0  0  0  0  0  0  0  0
   27.9450  -15.6024  -17.4506 C   0  0  0  0  0  0  0  0  0  0  0  0
   27.2448  -16.6839  -16.9605 C   0  0  0  0  0  0  0  0  0  0  0  0
   26.4933  -20.7147  -15.3371 C   0  0  0  0  0  0  0  0  0  0  0  0
   26.4996  -21.8864  -15.8147 O   0  0  0  0  0  0  0  0  0  0  0  0
   25.1804  -20.1140   -9.9444 C   0  0  0  0  0  0  0  0  0  0  0  0
   25.3429  -20.0380  -11.4366 C   0  0  0  0  0  0  0  0  0  0  0  0
   25.7587  -21.3938  -12.0180 C   0  0  2  0  0  0  0  0  0  0  0  0
   27.2414  -21.5232  -12.0491 C   0  0  0  0  0  0  0  0  0  0  0  0
   25.1307  -21.4248  -13.3999 C   0  0  2  0  0  0  0  0  0  0  0  0
   25.8282  -20.3637  -14.1518 N   0  0  0  0  0  0  0  0  0  0  0  0
   23.6867  -21.1800  -13.4238 C   0  0  0  0  0  0  0  0  0  0  0  0
   23.2229  -20.0009  -13.6461 O   0  0  0  0  0  0  0  0  0  0  0  0
   19.5530  -22.4288  -10.2368 N   0  0  0  0  0  0  0  0  0  0  0  0
   18.8476  -21.6592  -11.1929 C   0  0  0  0  0  0  0  0  0  0  0  0
   17.6183  -21.7760  -11.3848 O   0  0  0  0  0  0  0  0  0  0  0  0
   19.6096  -20.6662  -12.0047 C   0  0  0  0  0  0  0  0  0  0  0  0
   21.0540  -21.0109  -12.0910 C   0  0  0  0  0  0  0  0  0  0  0  0
   21.3021  -21.9569  -13.2357 C   0  0  2  0  0  0  0  0  0  0  0  0
   22.7539  -22.1964  -13.2143 N   0  0  0  0  0  0  0  0  0  0  0  0
   20.8636  -21.4365  -14.5211 C   0  0  0  0  0  0  0  0  0  0  0  0
   21.7154  -21.1739  -15.4391 O   0  0  0  0  0  0  0  0  0  0  0  0
   19.5510  -21.1865  -14.8692 O   0  0  0  0  0  0  0  0  0  0  0  0
  2  1  1  6
  2  3  1  0
  3  4  1  0
  4  9  2  0
  5  6  2  0
  5  4  1  0
  6  7  1  0
  7  8  2  0
  9  8  1  0
 10 11  2  0
 10  2  1  0
 12 13  1  0
 13 14  1  0
 14 15  1  6
 14 16  1  0
 16 17  1  6
 17 10  1  0
 18 26  1  0
 18 16  1  0
 19 18  2  0
 20 21  1  0
 21 23  1  0
 21 22  2  0
 23 24  1  0
 25 24  1  1
 25 26  1  0
 25 27  1  0
 27 29  1  0
 28 27  2  0
M  END
$$$$
