FIQ.pdb
     RDKit          3D

 29 29  0  0  1  0  0  0  0  0999 V2000
   24.9007  -24.5493  -15.4132 N   0  0  0  0  0  0  0  0  0  0  0  0
   23.4783  -24.7672  -15.3375 C   0  0  1  0  0  0  0  0  0  0  0  0
   23.2673  -26.2635  -15.1574 C   0  0  0  0  0  0  0  0  0  0  0  0
   23.5252  -26.9041  -16.4677 C   0  0  0  0  0  0  0  0  0  0  0  0
   24.6527  -27.6626  -16.6572 C   0  0  0  0  0  0  0  0  0  0  0  0
   24.9015  -28.2692  -17.8899 C   0  0  0  0  0  0  0  0  0  0  0  0
   23.9903  -28.0964  -18.9304 C   0  0  0  0  0  0  0  0  0  0  0  0
   22.8572  -27.3371  -18.7480 C   0  0  0  0  0  0  0  0  0  0  0  0
   22.6421  -26.7523  -17.5185 C   0  0  0  0  0  0  0  0  0  0  0  0
   22.8577  -23.9990  -14.2335 C   0  0  0  0  0  0  0  0  0  0  0  0
   23.4859  -23.9283  -13.1374 O   0  0  0  0  0  0  0  0  0  0  0  0
   21.8726  -19.3073  -14.9698 C   0  0  0  0  0  0  0  0  0  0  0  0
   22.0302  -20.6773  -14.3722 C   0  0  0  0  0  0  0  0  0  0  0  0
   20.6727  -21.2678  -13.9756 C   0  0  2  0  0  0  0  0  0  0  0  0
   19.9536  -20.3590  -13.0412 C   0  0  0  0  0  0  0  0  0  0  0  0
   21.0083  -22.6125  -13.3556 C   0  0  2  0  0  0  0  0  0  0  0  0
   21.6119  -23.3910  -14.4544 N   0  0  0  0  0  0  0  0  0  0  0  0
   19.8609  -23.3393  -12.8071 C   0  0  0  0  0  0  0  0  0  0  0  0
   18.8707  -23.6694  -13.5590 O   0  0  0  0  0  0  0  0  0  0  0  0
   18.3667  -24.8148   -6.4093 N   0  0  0  0  0  0  0  0  0  0  0  0
   18.2498  -25.8153   -7.4040 C   0  0  0  0  0  0  0  0  0  0  0  0
   18.4495  -27.0273   -7.1744 O   0  0  0  0  0  0  0  0  0  0  0  0
   17.8712  -25.3995   -8.7858 C   0  0  0  0  0  0  0  0  0  0  0  0
   19.0160  -24.7927   -9.5165 C   0  0  0  0  0  0  0  0  0  0  0  0
   18.5787  -24.3131  -10.8750 C   0  0  2  0  0  0  0  0  0  0  0  0
   19.7847  -23.7093  -11.4639 N   0  0  0  0  0  0  0  0  0  0  0  0
   17.4749  -23.3673  -10.8265 C   0  0  0  0  0  0  0  0  0  0  0  0
   17.6490  -22.1911  -10.3535 O   0  0  0  0  0  0  0  0  0  0  0  0
   16.1910  -23.6240  -11.2650 O   0  0  0  0  0  0  0  0  0  0  0  0
  2  1  1  1
  2  3  1  0
  3  4  1  0
  4  9  2  0
  5  6  2  0
  5  4  1  0
  6  7  1  0
  7  8  2  0
  9  8  1  0
 10 11  2  0
 10  2  1  0
 12 13  1  0
 13 14  1  0
 14 15  1  1
 14 16  1  0
 16 17  1  6
 17 10  1  0
 18 26  1  0
 18 16  1  0
 19 18  2  0
 20 21  1  0
 21 23  1  0
 21 22  2  0
 23 24  1  0
 25 24  1  1
 25 26  1  0
 25 27  1  0
 27 29  1  0
 28 27  2  0
M  END
$$$$
