FIQ.pdb
     RDKit          3D

 29 29  0  0  1  0  0  0  0  0999 V2000
   24.7039  -20.2356  -16.5176 N   0  0  0  0  0  0  0  0  0  0  0  0
   23.7017  -19.7241  -15.6174 C   0  0  1  0  0  0  0  0  0  0  0  0
   22.4388  -19.5042  -16.4375 C   0  0  0  0  0  0  0  0  0  0  0  0
   22.6922  -18.3526  -17.3338 C   0  0  0  0  0  0  0  0  0  0  0  0
   22.5732  -17.0696  -16.8625 C   0  0  0  0  0  0  0  0  0  0  0  0
   22.8107  -15.9797  -17.7022 C   0  0  0  0  0  0  0  0  0  0  0  0
   23.1713  -16.2080  -19.0291 C   0  0  0  0  0  0  0  0  0  0  0  0
   23.2927  -17.4919  -19.5091 C   0  0  0  0  0  0  0  0  0  0  0  0
   23.0511  -18.5451  -18.6534 C   0  0  0  0  0  0  0  0  0  0  0  0
   23.4539  -20.6438  -14.4830 C   0  0  0  0  0  0  0  0  0  0  0  0
   23.6011  -21.8841  -14.6856 O   0  0  0  0  0  0  0  0  0  0  0  0
   26.0267  -20.2762  -10.2978 C   0  0  0  0  0  0  0  0  0  0  0  0
   25.0791  -20.7377  -11.3692 C   0  0  0  0  0  0  0  0  0  0  0  0
   23.6228  -20.4722  -10.9722 C   0  0  2  0  0  0  0  0  0  0  0  0
   23.3031  -21.1210   -9.6710 C   0  0  0  0  0  0  0  0  0  0  0  0
   22.8062  -21.0235  -12.1272 C   0  0  2  0  0  0  0  0  0  0  0  0
   23.0707  -20.0996  -13.2471 N   0  0  0  0  0  0  0  0  0  0  0  0
   21.3645  -21.0993  -11.8790 C   0  0  0  0  0  0  0  0  0  0  0  0
   20.6612  -20.0294  -11.7550 O   0  0  0  0  0  0  0  0  0  0  0  0
   19.3006  -24.1081   -7.5610 N   0  0  0  0  0  0  0  0  0  0  0  0
   18.6104  -24.8198   -8.5715 C   0  0  0  0  0  0  0  0  0  0  0  0
   18.0212  -25.9010   -8.3585 O   0  0  0  0  0  0  0  0  0  0  0  0
   18.5883  -24.2499   -9.9501 C   0  0  0  0  0  0  0  0  0  0  0  0
   19.2403  -22.9142  -10.0093 C   0  0  0  0  0  0  0  0  0  0  0  0
   19.2610  -22.4009  -11.4246 C   0  0  2  0  0  0  0  0  0  0  0  0
   20.6890  -22.3154  -11.7699 N   0  0  0  0  0  0  0  0  0  0  0  0
   18.5933  -21.1187  -11.5843 C   0  0  0  0  0  0  0  0  0  0  0  0
   19.0128  -20.0863  -10.9554 O   0  0  0  0  0  0  0  0  0  0  0  0
   17.4960  -20.8913  -12.3910 O   0  0  0  0  0  0  0  0  0  0  0  0
  2  1  1  6
  2  3  1  0
  3  4  1  0
  4  9  2  0
  5  6  2  0
  5  4  1  0
  6  7  1  0
  7  8  2  0
  9  8  1  0
 10 11  2  0
 10  2  1  0
 12 13  1  0
 13 14  1  0
 14 15  1  1
 14 16  1  0
 16 17  1  6
 17 10  1  0
 18 26  1  0
 18 16  1  0
 19 18  2  0
 20 21  1  0
 21 23  1  0
 21 22  2  0
 23 24  1  0
 25 24  1  1
 25 26  1  0
 25 27  1  0
 27 29  1  0
 28 27  2  0
M  END
$$$$
