FIQ.pdb
     RDKit          3D

 29 29  0  0  1  0  0  0  0  0999 V2000
   28.2006  -20.8306  -15.4764 N   0  0  0  0  0  0  0  0  0  0  0  0
   27.2718  -20.0545  -14.6944 C   0  0  1  0  0  0  0  0  0  0  0  0
   26.4108  -19.2721  -15.6752 C   0  0  0  0  0  0  0  0  0  0  0  0
   27.2103  -18.1123  -16.1331 C   0  0  0  0  0  0  0  0  0  0  0  0
   27.8589  -18.1527  -17.3414 C   0  0  0  0  0  0  0  0  0  0  0  0
   28.6140  -17.0629  -17.7788 C   0  0  0  0  0  0  0  0  0  0  0  0
   28.7033  -15.9288  -16.9733 C   0  0  0  0  0  0  0  0  0  0  0  0
   28.0556  -15.8808  -15.7601 C   0  0  0  0  0  0  0  0  0  0  0  0
   27.3186  -16.9741  -15.3585 C   0  0  0  0  0  0  0  0  0  0  0  0
   26.4428  -20.9071  -13.8112 C   0  0  0  0  0  0  0  0  0  0  0  0
   26.1402  -22.0648  -14.2226 O   0  0  0  0  0  0  0  0  0  0  0  0
   26.7058  -20.6439   -8.5439 C   0  0  0  0  0  0  0  0  0  0  0  0
   26.3839  -21.1513   -9.9215 C   0  0  0  0  0  0  0  0  0  0  0  0
   25.0504  -20.5857  -10.4223 C   0  0  2  0  0  0  0  0  0  0  0  0
   23.9254  -21.0439   -9.5616 C   0  0  0  0  0  0  0  0  0  0  0  0
   24.9412  -21.0780  -11.8543 C   0  0  2  0  0  0  0  0  0  0  0  0
   26.0358  -20.3940  -12.5697 N   0  0  0  0  0  0  0  0  0  0  0  0
   23.6639  -20.7849  -12.5087 C   0  0  0  0  0  0  0  0  0  0  0  0
   23.2855  -19.5702  -12.6986 O   0  0  0  0  0  0  0  0  0  0  0  0
   23.3022  -24.5012  -14.8675 N   0  0  0  0  0  0  0  0  0  0  0  0
   23.3464  -23.4586  -15.8240 C   0  0  0  0  0  0  0  0  0  0  0  0
   24.2291  -23.3830  -16.7054 O   0  0  0  0  0  0  0  0  0  0  0  0
   22.2905  -22.4059  -15.7737 C   0  0  0  0  0  0  0  0  0  0  0  0
   21.3606  -22.6063  -14.6301 C   0  0  0  0  0  0  0  0  0  0  0  0
   21.5244  -21.5031  -13.6188 C   0  0  2  0  0  0  0  0  0  0  0  0
   22.8069  -21.7908  -12.9567 N   0  0  0  0  0  0  0  0  0  0  0  0
   20.4318  -21.4293  -12.6616 C   0  0  0  0  0  0  0  0  0  0  0  0
   20.5599  -21.9309  -11.4915 O   0  0  0  0  0  0  0  0  0  0  0  0
   19.2068  -20.8389  -12.9009 O   0  0  0  0  0  0  0  0  0  0  0  0
  2  1  1  6
  2  3  1  0
  3  4  1  0
  4  9  2  0
  5  6  2  0
  5  4  1  0
  6  7  1  0
  7  8  2  0
  9  8  1  0
 10 11  2  0
 10  2  1  0
 12 13  1  0
 13 14  1  0
 14 15  1  1
 14 16  1  0
 16 17  1  6
 17 10  1  0
 18 26  1  0
 18 16  1  0
 19 18  2  0
 20 21  1  0
 21 23  1  0
 21 22  2  0
 23 24  1  0
 25 24  1  6
 25 26  1  0
 25 27  1  0
 27 29  1  0
 28 27  2  0
M  END
$$$$
