FIQ.pdb
     RDKit          3D

 29 29  0  0  1  0  0  0  0  0999 V2000
   23.2156  -19.9572  -14.1759 N   0  0  0  0  0  0  0  0  0  0  0  0
   22.0521  -19.9850  -13.3262 C   0  0  1  0  0  0  0  0  0  0  0  0
   20.8393  -20.1038  -14.2376 C   0  0  0  0  0  0  0  0  0  0  0  0
   20.7600  -18.8538  -15.0282 C   0  0  0  0  0  0  0  0  0  0  0  0
   20.7492  -18.9017  -16.3994 C   0  0  0  0  0  0  0  0  0  0  0  0
   20.6746  -17.7272  -17.1504 C   0  0  0  0  0  0  0  0  0  0  0  0
   20.6109  -16.5004  -16.4917 C   0  0  0  0  0  0  0  0  0  0  0  0
   20.6212  -16.4442  -15.1168 C   0  0  0  0  0  0  0  0  0  0  0  0
   20.6957  -17.6227  -14.4059 C   0  0  0  0  0  0  0  0  0  0  0  0
   22.1042  -21.0987  -12.3510 C   0  0  0  0  0  0  0  0  0  0  0  0
   22.2489  -22.2721  -12.8021 O   0  0  0  0  0  0  0  0  0  0  0  0
   23.9054  -19.7062   -7.5225 C   0  0  0  0  0  0  0  0  0  0  0  0
   22.8670  -20.1932   -8.4938 C   0  0  0  0  0  0  0  0  0  0  0  0
   23.2868  -21.5211   -9.1335 C   0  0  2  0  0  0  0  0  0  0  0  0
   24.5575  -21.3636   -9.8928 C   0  0  0  0  0  0  0  0  0  0  0  0
   22.1125  -21.9079  -10.0146 C   0  0  2  0  0  0  0  0  0  0  0  0
   21.9915  -20.8016  -10.9838 N   0  0  0  0  0  0  0  0  0  0  0  0
   20.8435  -22.0837   -9.3044 C   0  0  0  0  0  0  0  0  0  0  0  0
   20.0046  -21.1135   -9.2061 O   0  0  0  0  0  0  0  0  0  0  0  0
   17.4984  -27.0848   -9.4094 N   0  0  0  0  0  0  0  0  0  0  0  0
   16.7413  -26.3333   -8.4789 C   0  0  0  0  0  0  0  0  0  0  0  0
   15.6068  -26.6820   -8.0878 O   0  0  0  0  0  0  0  0  0  0  0  0
   17.3279  -25.0700   -7.9444 C   0  0  0  0  0  0  0  0  0  0  0  0
   18.6337  -24.7509   -8.5813 C   0  0  0  0  0  0  0  0  0  0  0  0
   19.2030  -23.4808   -8.0073 C   0  0  2  0  0  0  0  0  0  0  0  0
   20.4821  -23.2937   -8.7106 N   0  0  0  0  0  0  0  0  0  0  0  0
   19.3864  -23.5295   -6.5653 C   0  0  0  0  0  0  0  0  0  0  0  0
   20.5576  -23.6507   -6.0643 O   0  0  0  0  0  0  0  0  0  0  0  0
   18.3702  -23.4513   -5.6338 O   0  0  0  0  0  0  0  0  0  0  0  0
  2  1  1  6
  2  3  1  0
  3  4  1  0
  4  9  2  0
  5  6  2  0
  5  4  1  0
  6  7  1  0
  7  8  2  0
  9  8  1  0
 10 11  2  0
 10  2  1  0
 12 13  1  0
 13 14  1  0
 14 15  1  6
 14 16  1  0
 16 17  1  6
 17 10  1  0
 18 26  1  0
 18 16  1  0
 19 18  2  0
 20 21  1  0
 21 23  1  0
 21 22  2  0
 23 24  1  0
 25 24  1  6
 25 26  1  0
 25 27  1  0
 27 29  1  0
 28 27  2  0
M  END
$$$$
