FIQ.pdb
     RDKit          3D

 29 29  0  0  1  0  0  0  0  0999 V2000
   12.0413  -21.8040   -5.6393 N   0  0  0  0  0  0  0  0  0  0  0  0
   12.9358  -21.1852   -4.6942 C   0  0  1  0  0  0  0  0  0  0  0  0
   12.6042  -19.7001   -4.6757 C   0  0  0  0  0  0  0  0  0  0  0  0
   13.0222  -19.1405   -5.9818 C   0  0  0  0  0  0  0  0  0  0  0  0
   12.0880  -18.8690   -6.9492 C   0  0  0  0  0  0  0  0  0  0  0  0
   12.4755  -18.3414   -8.1824 C   0  0  0  0  0  0  0  0  0  0  0  0
   13.8257  -18.0919   -8.4226 C   0  0  0  0  0  0  0  0  0  0  0  0
   14.7686  -18.3615   -7.4572 C   0  0  0  0  0  0  0  0  0  0  0  0
   14.3519  -18.8820   -6.2508 C   0  0  0  0  0  0  0  0  0  0  0  0
   12.8143  -21.7812   -3.3436 C   0  0  0  0  0  0  0  0  0  0  0  0
   11.6551  -22.0746   -2.9299 O   0  0  0  0  0  0  0  0  0  0  0  0
   16.2874  -25.3628   -2.2192 C   0  0  0  0  0  0  0  0  0  0  0  0
   15.7078  -23.9924   -2.0066 C   0  0  0  0  0  0  0  0  0  0  0  0
   14.2637  -24.0746   -1.4999 C   0  0  2  0  0  0  0  0  0  0  0  0
   13.3959  -24.7726   -2.4878 C   0  0  0  0  0  0  0  0  0  0  0  0
   13.8579  -22.6300   -1.2690 C   0  0  2  0  0  0  0  0  0  0  0  0
   13.9819  -21.9903   -2.5931 N   0  0  0  0  0  0  0  0  0  0  0  0
   14.6793  -21.9098   -0.2932 C   0  0  0  0  0  0  0  0  0  0  0  0
   15.7894  -21.3627   -0.6439 O   0  0  0  0  0  0  0  0  0  0  0  0
   13.9219  -17.0067    3.8209 N   0  0  0  0  0  0  0  0  0  0  0  0
   13.3783  -18.0050    2.9771 C   0  0  0  0  0  0  0  0  0  0  0  0
   12.1496  -18.1500    2.8015 O   0  0  0  0  0  0  0  0  0  0  0  0
   14.3178  -18.9220    2.2683 C   0  0  0  0  0  0  0  0  0  0  0  0
   14.3228  -20.2834    2.8676 C   0  0  0  0  0  0  0  0  0  0  0  0
   15.1991  -21.2084    2.0655 C   0  0  2  0  0  0  0  0  0  0  0  0
   14.3052  -21.7780    1.0446 N   0  0  0  0  0  0  0  0  0  0  0  0
   15.8290  -22.2466    2.8658 C   0  0  0  0  0  0  0  0  0  0  0  0
   15.3776  -23.4438    2.8464 O   0  0  0  0  0  0  0  0  0  0  0  0
   16.9244  -22.0608    3.6856 O   0  0  0  0  0  0  0  0  0  0  0  0
  2  1  1  6
  2  3  1  0
  3  4  1  0
  4  9  2  0
  5  6  2  0
  5  4  1  0
  6  7  1  0
  7  8  2  0
  9  8  1  0
 10 11  2  0
 10  2  1  0
 12 13  1  0
 13 14  1  0
 14 15  1  6
 14 16  1  0
 16 17  1  6
 17 10  1  0
 18 26  1  0
 18 16  1  0
 19 18  2  0
 20 21  1  0
 21 23  1  0
 21 22  2  0
 23 24  1  0
 25 24  1  1
 25 26  1  0
 25 27  1  0
 27 29  1  0
 28 27  2  0
M  END
$$$$
