FIQ.pdb
     RDKit          3D

 29 29  0  0  1  0  0  0  0  0999 V2000
   28.3311  -20.2989  -15.4636 N   0  0  0  0  0  0  0  0  0  0  0  0
   27.4124  -19.6174  -14.5872 C   0  0  1  0  0  0  0  0  0  0  0  0
   26.4940  -18.7834  -15.4685 C   0  0  0  0  0  0  0  0  0  0  0  0
   27.2328  -17.5520  -15.8315 C   0  0  0  0  0  0  0  0  0  0  0  0
   27.7448  -17.3994  -17.0953 C   0  0  0  0  0  0  0  0  0  0  0  0
   28.4421  -16.2412  -17.4438 C   0  0  0  0  0  0  0  0  0  0  0  0
   28.6142  -15.2373  -16.4922 C   0  0  0  0  0  0  0  0  0  0  0  0
   28.1037  -15.3831  -15.2227 C   0  0  0  0  0  0  0  0  0  0  0  0
   27.4204  -16.5391  -14.9118 C   0  0  0  0  0  0  0  0  0  0  0  0
   26.6409  -20.5635  -13.7485 C   0  0  0  0  0  0  0  0  0  0  0  0
   26.2963  -21.6656  -14.2660 O   0  0  0  0  0  0  0  0  0  0  0  0
   27.1483  -20.6988   -8.4780 C   0  0  0  0  0  0  0  0  0  0  0  0
   26.7770  -21.1089   -9.8755 C   0  0  0  0  0  0  0  0  0  0  0  0
   25.4096  -20.5428  -10.2737 C   0  0  2  0  0  0  0  0  0  0  0  0
   24.3345  -21.0997   -9.4076 C   0  0  0  0  0  0  0  0  0  0  0  0
   25.2510  -20.9221  -11.7352 C   0  0  2  0  0  0  0  0  0  0  0  0
   26.3312  -20.1952  -12.4298 N   0  0  0  0  0  0  0  0  0  0  0  0
   23.9579  -20.5672  -12.3249 C   0  0  0  0  0  0  0  0  0  0  0  0
   23.6500  -19.3376  -12.5440 O   0  0  0  0  0  0  0  0  0  0  0  0
   20.5152  -24.6261  -14.7132 N   0  0  0  0  0  0  0  0  0  0  0  0
   19.6123  -23.5591  -14.9372 C   0  0  0  0  0  0  0  0  0  0  0  0
   18.3984  -23.7359  -15.1758 O   0  0  0  0  0  0  0  0  0  0  0  0
   20.1376  -22.1637  -14.8851 C   0  0  0  0  0  0  0  0  0  0  0  0
   21.5549  -22.1204  -14.4356 C   0  0  0  0  0  0  0  0  0  0  0  0
   21.7093  -21.1785  -13.2712 C   0  0  2  0  0  0  0  0  0  0  0  0
   23.0098  -21.5282  -12.6778 N   0  0  0  0  0  0  0  0  0  0  0  0
   20.6321  -21.2794  -12.2992 C   0  0  0  0  0  0  0  0  0  0  0  0
   19.5806  -20.5602  -12.4195 O   0  0  0  0  0  0  0  0  0  0  0  0
   20.6292  -22.1195  -11.2034 O   0  0  0  0  0  0  0  0  0  0  0  0
  2  1  1  6
  2  3  1  0
  3  4  1  0
  4  9  2  0
  5  6  2  0
  5  4  1  0
  6  7  1  0
  7  8  2  0
  9  8  1  0
 10 11  2  0
 10  2  1  0
 12 13  1  0
 13 14  1  0
 14 15  1  1
 14 16  1  0
 16 17  1  6
 17 10  1  0
 18 26  1  0
 18 16  1  0
 19 18  2  0
 20 21  1  0
 21 23  1  0
 21 22  2  0
 23 24  1  0
 25 24  1  6
 25 26  1  0
 25 27  1  0
 27 29  1  0
 28 27  2  0
M  END
$$$$
