FIQ.pdb
     RDKit          3D

 29 29  0  0  1  0  0  0  0  0999 V2000
   27.9052   -9.7126  -19.0545 N   0  0  0  0  0  0  0  0  0  0  0  0
   26.7434   -9.7438  -18.2026 C   0  0  1  0  0  0  0  0  0  0  0  0
   27.2449   -9.7096  -16.7663 C   0  0  0  0  0  0  0  0  0  0  0  0
   27.7662  -11.0596  -16.4509 C   0  0  0  0  0  0  0  0  0  0  0  0
   26.9571  -11.9909  -15.8504 C   0  0  0  0  0  0  0  0  0  0  0  0
   27.4424  -13.2652  -15.5504 C   0  0  0  0  0  0  0  0  0  0  0  0
   28.7617  -13.5838  -15.8679 C   0  0  0  0  0  0  0  0  0  0  0  0
   29.5792  -12.6552  -16.4703 C   0  0  0  0  0  0  0  0  0  0  0  0
   29.0684  -11.4065  -16.7526 C   0  0  0  0  0  0  0  0  0  0  0  0
   25.8230   -8.6166  -18.4788 C   0  0  0  0  0  0  0  0  0  0  0  0
   26.3305   -7.5135  -18.8344 O   0  0  0  0  0  0  0  0  0  0  0  0
   22.0665   -6.9061  -22.1292 C   0  0  0  0  0  0  0  0  0  0  0  0
   22.3575   -6.8444  -20.6560 C   0  0  0  0  0  0  0  0  0  0  0  0
   23.3323   -7.9505  -20.2374 C   0  0  2  0  0  0  0  0  0  0  0  0
   22.7845   -9.2931  -20.5741 C   0  0  0  0  0  0  0  0  0  0  0  0
   23.5247   -7.7446  -18.7455 C   0  0  2  0  0  0  0  0  0  0  0  0
   24.4423   -8.8246  -18.3340 N   0  0  0  0  0  0  0  0  0  0  0  0
   22.2949   -7.8120  -17.9527 C   0  0  0  0  0  0  0  0  0  0  0  0
   21.8432   -8.9414  -17.5338 O   0  0  0  0  0  0  0  0  0  0  0  0
   21.5908   -7.7398  -12.7395 N   0  0  0  0  0  0  0  0  0  0  0  0
   20.9482   -8.7465  -13.4995 C   0  0  0  0  0  0  0  0  0  0  0  0
   20.6501   -9.8654  -13.0295 O   0  0  0  0  0  0  0  0  0  0  0  0
   20.6143   -8.4542  -14.9238 C   0  0  0  0  0  0  0  0  0  0  0  0
   21.0976   -7.1113  -15.3432 C   0  0  0  0  0  0  0  0  0  0  0  0
   20.4563   -6.7033  -16.6428 C   0  0  2  0  0  0  0  0  0  0  0  0
   21.5631   -6.6738  -17.6123 N   0  0  0  0  0  0  0  0  0  0  0  0
   19.7713   -5.4222  -16.5723 C   0  0  0  0  0  0  0  0  0  0  0  0
   20.2956   -4.3771  -17.0920 O   0  0  0  0  0  0  0  0  0  0  0  0
   18.5464   -5.2102  -15.9713 O   0  0  0  0  0  0  0  0  0  0  0  0
  2  1  1  6
  2  3  1  0
  3  4  1  0
  4  9  2  0
  5  6  2  0
  5  4  1  0
  6  7  1  0
  7  8  2  0
  9  8  1  0
 10 11  2  0
 10  2  1  0
 12 13  1  0
 13 14  1  0
 14 15  1  1
 14 16  1  0
 16 17  1  1
 17 10  1  0
 18 26  1  0
 18 16  1  0
 19 18  2  0
 20 21  1  0
 21 23  1  0
 21 22  2  0
 23 24  1  0
 25 24  1  1
 25 26  1  0
 25 27  1  0
 27 29  1  0
 28 27  2  0
M  END
$$$$
