FIQ.pdb
     RDKit          3D

 29 29  0  0  1  0  0  0  0  0999 V2000
   28.2532  -19.8437  -15.9090 N   0  0  0  0  0  0  0  0  0  0  0  0
   27.2335  -19.3625  -15.0118 C   0  0  1  0  0  0  0  0  0  0  0  0
   26.2442  -18.5661  -15.8500 C   0  0  0  0  0  0  0  0  0  0  0  0
   26.9041  -17.2911  -16.2146 C   0  0  0  0  0  0  0  0  0  0  0  0
   26.9871  -16.2694  -15.3027 C   0  0  0  0  0  0  0  0  0  0  0  0
   27.6078  -15.0652  -15.6401 C   0  0  0  0  0  0  0  0  0  0  0  0
   28.1446  -14.9099  -16.9170 C   0  0  0  0  0  0  0  0  0  0  0  0
   28.0653  -15.9300  -17.8371 C   0  0  0  0  0  0  0  0  0  0  0  0
   27.4457  -17.1057  -17.4713 C   0  0  0  0  0  0  0  0  0  0  0  0
   26.5613  -20.4689  -14.2919 C   0  0  0  0  0  0  0  0  0  0  0  0
   26.4255  -21.5713  -14.8981 O   0  0  0  0  0  0  0  0  0  0  0  0
   25.8681  -20.2850   -8.7973 C   0  0  0  0  0  0  0  0  0  0  0  0
   25.4185  -20.1741  -10.2272 C   0  0  0  0  0  0  0  0  0  0  0  0
   25.6954  -21.4704  -10.9966 C   0  0  2  0  0  0  0  0  0  0  0  0
   27.1483  -21.7941  -10.9813 C   0  0  0  0  0  0  0  0  0  0  0  0
   25.1604  -21.2066  -12.3928 C   0  0  2  0  0  0  0  0  0  0  0  0
   26.1106  -20.2434  -12.9818 N   0  0  0  0  0  0  0  0  0  0  0  0
   23.8048  -20.6534  -12.4366 C   0  0  0  0  0  0  0  0  0  0  0  0
   23.6144  -19.3824  -12.4933 O   0  0  0  0  0  0  0  0  0  0  0  0
   21.6271  -18.5890  -15.8197 N   0  0  0  0  0  0  0  0  0  0  0  0
   20.5355  -19.4828  -15.7028 C   0  0  0  0  0  0  0  0  0  0  0  0
   19.3452  -19.1025  -15.6907 O   0  0  0  0  0  0  0  0  0  0  0  0
   20.8239  -20.9421  -15.5892 C   0  0  0  0  0  0  0  0  0  0  0  0
   21.9489  -21.2148  -14.6550 C   0  0  0  0  0  0  0  0  0  0  0  0
   21.4723  -21.1626  -13.2277 C   0  0  2  0  0  0  0  0  0  0  0  0
   22.6679  -21.4623  -12.4236 N   0  0  0  0  0  0  0  0  0  0  0  0
   20.3897  -22.0919  -12.9454 C   0  0  0  0  0  0  0  0  0  0  0  0
   20.6211  -23.3466  -12.8475 O   0  0  0  0  0  0  0  0  0  0  0  0
   19.0683  -21.7370  -12.7601 O   0  0  0  0  0  0  0  0  0  0  0  0
  2  1  1  6
  2  3  1  0
  3  4  1  0
  4  9  2  0
  5  6  2  0
  5  4  1  0
  6  7  1  0
  7  8  2  0
  9  8  1  0
 10 11  2  0
 10  2  1  0
 12 13  1  0
 13 14  1  0
 14 15  1  6
 14 16  1  0
 16 17  1  1
 17 10  1  0
 18 26  1  0
 18 16  1  0
 19 18  2  0
 20 21  1  0
 21 23  1  0
 21 22  2  0
 23 24  1  0
 25 24  1  6
 25 26  1  0
 25 27  1  0
 27 29  1  0
 28 27  2  0
M  END
$$$$
