FIQ.pdb
     RDKit          3D

 29 29  0  0  1  0  0  0  0  0999 V2000
   26.3932  -20.0551  -17.6565 N   0  0  0  0  0  0  0  0  0  0  0  0
   26.0355  -19.3331  -16.4618 C   0  0  1  0  0  0  0  0  0  0  0  0
   25.1426  -18.1782  -16.8915 C   0  0  0  0  0  0  0  0  0  0  0  0
   25.9877  -17.2295  -17.6529 C   0  0  0  0  0  0  0  0  0  0  0  0
   25.7369  -16.9912  -18.9806 C   0  0  0  0  0  0  0  0  0  0  0  0
   26.5297  -16.0981  -19.7039 C   0  0  0  0  0  0  0  0  0  0  0  0
   27.5826  -15.4482  -19.0621 C   0  0  0  0  0  0  0  0  0  0  0  0
   27.8404  -15.6820  -17.7308 C   0  0  0  0  0  0  0  0  0  0  0  0
   27.0383  -16.5697  -17.0463 C   0  0  0  0  0  0  0  0  0  0  0  0
   25.3553  -20.2006  -15.4725 C   0  0  0  0  0  0  0  0  0  0  0  0
   24.5193  -21.0462  -15.9048 O   0  0  0  0  0  0  0  0  0  0  0  0
   25.3946  -21.3003   -9.4146 C   0  0  0  0  0  0  0  0  0  0  0  0
   24.7917  -21.3981  -10.7879 C   0  0  0  0  0  0  0  0  0  0  0  0
   25.6068  -20.5965  -11.8087 C   0  0  2  0  0  0  0  0  0  0  0  0
   25.7116  -19.1695  -11.3979 C   0  0  0  0  0  0  0  0  0  0  0  0
   24.8654  -20.7841  -13.1202 C   0  0  2  0  0  0  0  0  0  0  0  0
   25.6682  -20.0442  -14.1131 N   0  0  0  0  0  0  0  0  0  0  0  0
   23.4891  -20.2826  -13.1248 C   0  0  0  0  0  0  0  0  0  0  0  0
   23.2416  -19.0421  -13.3588 O   0  0  0  0  0  0  0  0  0  0  0  0
   20.4859  -18.8128  -16.5469 N   0  0  0  0  0  0  0  0  0  0  0  0
   19.2931  -19.3256  -15.9827 C   0  0  0  0  0  0  0  0  0  0  0  0
   18.1570  -18.9349  -16.3264 O   0  0  0  0  0  0  0  0  0  0  0  0
   19.4023  -20.3789  -14.9317 C   0  0  0  0  0  0  0  0  0  0  0  0
   20.8186  -20.6705  -14.5828 C   0  0  0  0  0  0  0  0  0  0  0  0
   21.0040  -20.6677  -13.0887 C   0  0  2  0  0  0  0  0  0  0  0  0
   22.3923  -21.1108  -12.8838 N   0  0  0  0  0  0  0  0  0  0  0  0
   20.0594  -21.5229  -12.3874 C   0  0  0  0  0  0  0  0  0  0  0  0
   20.3380  -22.7520  -12.1661 O   0  0  0  0  0  0  0  0  0  0  0  0
   18.8285  -21.1195  -11.9091 O   0  0  0  0  0  0  0  0  0  0  0  0
  2  1  1  6
  2  3  1  0
  3  4  1  0
  4  9  2  0
  5  6  2  0
  5  4  1  0
  6  7  1  0
  7  8  2  0
  9  8  1  0
 10 11  2  0
 10  2  1  0
 12 13  1  0
 13 14  1  0
 14 15  1  1
 14 16  1  0
 16 17  1  6
 17 10  1  0
 18 26  1  0
 18 16  1  0
 19 18  2  0
 20 21  1  0
 21 23  1  0
 21 22  2  0
 23 24  1  0
 25 24  1  6
 25 26  1  0
 25 27  1  0
 27 29  1  0
 28 27  2  0
M  END
$$$$
