FIQ.pdb
     RDKit          3D

 29 29  0  0  1  0  0  0  0  0999 V2000
   29.4834  -10.9516  -19.6340 N   0  0  0  0  0  0  0  0  0  0  0  0
   29.1601  -10.3555  -18.3626 C   0  0  1  0  0  0  0  0  0  0  0  0
   29.9918   -9.0868  -18.2426 C   0  0  0  0  0  0  0  0  0  0  0  0
   31.4155   -9.4950  -18.2251 C   0  0  0  0  0  0  0  0  0  0  0  0
   32.3673   -8.7121  -18.8280 C   0  0  0  0  0  0  0  0  0  0  0  0
   33.7110   -9.0912  -18.8149 C   0  0  0  0  0  0  0  0  0  0  0  0
   34.0780  -10.2772  -18.1812 C   0  0  0  0  0  0  0  0  0  0  0  0
   33.1291  -11.0678  -17.5744 C   0  0  0  0  0  0  0  0  0  0  0  0
   31.8115  -10.6641  -17.6057 C   0  0  0  0  0  0  0  0  0  0  0  0
   27.7130  -10.0647  -18.2386 C   0  0  0  0  0  0  0  0  0  0  0  0
   27.0343   -9.9807  -19.3032 O   0  0  0  0  0  0  0  0  0  0  0  0
   25.4848  -13.0683  -15.1249 C   0  0  0  0  0  0  0  0  0  0  0  0
   25.6380  -12.0435  -16.2136 C   0  0  0  0  0  0  0  0  0  0  0  0
   25.2968  -10.6390  -15.7037 C   0  0  2  0  0  0  0  0  0  0  0  0
   23.8508  -10.5366  -15.3648 C   0  0  0  0  0  0  0  0  0  0  0  0
   25.7090   -9.7127  -16.8338 C   0  0  2  0  0  0  0  0  0  0  0  0
   27.1679   -9.8974  -16.9559 N   0  0  0  0  0  0  0  0  0  0  0  0
   25.4071   -8.2971  -16.6085 C   0  0  0  0  0  0  0  0  0  0  0  0
   26.1215   -7.5920  -15.8040 O   0  0  0  0  0  0  0  0  0  0  0  0
   21.3638   -5.5252  -14.6862 N   0  0  0  0  0  0  0  0  0  0  0  0
   22.1513   -4.3660  -14.8864 C   0  0  0  0  0  0  0  0  0  0  0  0
   21.7420   -3.2142  -14.6264 O   0  0  0  0  0  0  0  0  0  0  0  0
   23.5299   -4.5316  -15.4319 C   0  0  0  0  0  0  0  0  0  0  0  0
   23.8629   -5.9608  -15.6751 C   0  0  0  0  0  0  0  0  0  0  0  0
   24.1266   -6.1983  -17.1383 C   0  0  2  0  0  0  0  0  0  0  0  0
   24.3492   -7.6489  -17.2470 N   0  0  0  0  0  0  0  0  0  0  0  0
   25.2582   -5.4425  -17.6518 C   0  0  0  0  0  0  0  0  0  0  0  0
   26.3198   -5.3073  -16.9503 O   0  0  0  0  0  0  0  0  0  0  0  0
   25.3052   -4.8260  -18.8864 O   0  0  0  0  0  0  0  0  0  0  0  0
  2  1  1  6
  2  3  1  0
  3  4  1  0
  4  9  2  0
  5  6  2  0
  5  4  1  0
  6  7  1  0
  7  8  2  0
  9  8  1  0
 10 11  2  0
 10  2  1  0
 12 13  1  0
 13 14  1  0
 14 15  1  6
 14 16  1  0
 16 17  1  1
 17 10  1  0
 18 26  1  0
 18 16  1  0
 19 18  2  0
 20 21  1  0
 21 23  1  0
 21 22  2  0
 23 24  1  0
 25 24  1  1
 25 26  1  0
 25 27  1  0
 27 29  1  0
 28 27  2  0
M  END
$$$$
