PEP.pdb
     RDKit          3D

 24 25  0  0  1  0  0  0  0  0999 V2000
    8.4908  -15.2555   19.1963 N   0  0  0  0  0  0  0  0  0  0  0  0
    7.6871  -14.5899   18.2453 C   0  0  0  0  0  0  0  0  0  0  0  0
    7.5640  -13.1536   18.6613 C   0  0  0  0  0  0  0  0  0  0  0  0
    8.4825  -12.9892   19.8330 C   0  0  0  0  0  0  0  0  0  0  0  0
    8.7337  -14.4033   20.2828 C   0  0  1  0  0  0  0  0  0  0  0  0
    7.8539  -14.6475   21.4822 C   0  0  0  0  0  0  0  0  0  0  0  0
    6.6442  -14.2886   21.4584 O   0  0  0  0  0  0  0  0  0  0  0  0
    8.3021  -15.2675   22.6678 N   0  0  0  0  0  0  0  0  0  0  0  0
    7.7022  -15.2938   23.9283 C   0  0  1  0  0  0  0  0  0  0  0  0
    7.4198  -16.7018   24.4697 C   0  0  0  0  0  0  0  0  0  0  0  0
    6.5792  -17.5233   23.5406 C   0  0  0  0  0  0  0  0  0  0  0  0
    6.4204  -18.9214   24.0517 C   0  0  0  0  0  0  0  0  0  0  0  0
    6.8315  -19.2953   25.1664 O   0  0  0  0  0  0  0  0  0  0  0  0
    8.1953  -14.5169   25.0331 C   0  0  0  0  0  0  0  0  0  0  0  0
    9.4293  -14.7549   25.3448 O   0  0  0  0  0  0  0  0  0  0  0  0
    5.7838  -19.8345   23.2361 O   0  0  0  0  0  0  0  0  0  0  0  0
    7.5487  -13.5376   25.8296 N   0  0  0  0  0  0  0  0  0  0  0  0
    6.2529  -13.0129   25.5586 C   0  0  0  0  0  0  0  0  0  0  0  0
    5.8290  -12.3394   26.8278 C   0  0  0  0  0  0  0  0  0  0  0  0
    7.0548  -12.1003   27.6274 C   0  0  0  0  0  0  0  0  0  0  0  0
    8.1232  -12.9208   26.9728 C   0  0  1  0  0  0  0  0  0  0  0  0
    8.6305  -13.9598   27.9508 C   0  0  0  0  0  0  0  0  0  0  0  0
    9.5499  -13.6627   28.9336 O   0  0  0  0  0  0  0  0  0  0  0  0
    8.1955  -15.1206   27.8542 O   0  0  0  0  0  0  0  0  0  0  0  0
  1  2  1  0
  2  3  1  0
  4  3  1  0
  5  4  1  0
  5  1  1  0
  5  6  1  1
  6  7  2  0
  8  6  1  0
  8  9  1  0
  9 14  1  0
  9 10  1  1
 11 10  1  0
 12 16  1  0
 12 11  1  0
 13 12  2  0
 14 17  1  0
 14 15  2  0
 17 21  1  0
 18 17  1  0
 18 19  1  0
 19 20  1  0
 20 21  1  0
 21 22  1  1
 22 24  2  0
 22 23  1  0
M  END
$$$$
