PEP.pdb
     RDKit          3D

 24 25  0  0  1  0  0  0  0  0999 V2000
    8.4223  -15.2743   19.2366 N   0  0  0  0  0  0  0  0  0  0  0  0
    7.5473  -14.7193   18.2776 C   0  0  0  0  0  0  0  0  0  0  0  0
    7.3566  -13.2673   18.6044 C   0  0  0  0  0  0  0  0  0  0  0  0
    8.3063  -12.9743   19.7250 C   0  0  0  0  0  0  0  0  0  0  0  0
    8.6551  -14.3391   20.2549 C   0  0  1  0  0  0  0  0  0  0  0  0
    7.8353  -14.5508   21.5020 C   0  0  0  0  0  0  0  0  0  0  0  0
    6.6672  -14.0784   21.5746 O   0  0  0  0  0  0  0  0  0  0  0  0
    8.2970  -15.2611   22.6305 N   0  0  0  0  0  0  0  0  0  0  0  0
    7.7512  -15.3252   23.9140 C   0  0  1  0  0  0  0  0  0  0  0  0
    7.5185  -16.7494   24.4364 C   0  0  0  0  0  0  0  0  0  0  0  0
    6.8192  -17.6254   23.4422 C   0  0  0  0  0  0  0  0  0  0  0  0
    7.1402  -19.0688   23.6764 C   0  0  0  0  0  0  0  0  0  0  0  0
    6.9954  -19.6341   24.7767 O   0  0  0  0  0  0  0  0  0  0  0  0
    8.2756  -14.5617   25.0137 C   0  0  0  0  0  0  0  0  0  0  0  0
    9.4888  -14.8684   25.3465 O   0  0  0  0  0  0  0  0  0  0  0  0
    7.6210  -19.8006   22.6099 O   0  0  0  0  0  0  0  0  0  0  0  0
    7.6789  -13.5325   25.7858 N   0  0  0  0  0  0  0  0  0  0  0  0
    6.4175  -12.9402   25.4926 C   0  0  0  0  0  0  0  0  0  0  0  0
    6.0215  -12.2201   26.7450 C   0  0  0  0  0  0  0  0  0  0  0  0
    7.2518  -12.0361   27.5523 C   0  0  0  0  0  0  0  0  0  0  0  0
    8.2775  -12.9281   26.9232 C   0  0  1  0  0  0  0  0  0  0  0  0
    8.7161  -13.9757   27.9249 C   0  0  0  0  0  0  0  0  0  0  0  0
    9.6233  -13.7060   28.9268 O   0  0  0  0  0  0  0  0  0  0  0  0
    8.2344  -15.1180   27.8305 O   0  0  0  0  0  0  0  0  0  0  0  0
  1  2  1  0
  2  3  1  0
  4  3  1  0
  5  4  1  0
  5  1  1  0
  5  6  1  1
  6  7  2  0
  8  6  1  0
  8  9  1  0
  9 14  1  0
  9 10  1  1
 11 10  1  0
 12 16  1  0
 12 11  1  0
 13 12  2  0
 14 17  1  0
 14 15  2  0
 17 21  1  0
 18 17  1  0
 18 19  1  0
 19 20  1  0
 20 21  1  0
 21 22  1  1
 22 24  2  0
 22 23  1  0
M  END
$$$$
