PEP.pdb
     RDKit          3D

 24 25  0  0  1  0  0  0  0  0999 V2000
    8.9595  -14.7595   19.5234 N   0  0  0  0  0  0  0  0  0  0  0  0
    7.9152  -14.8909   18.5823 C   0  0  0  0  0  0  0  0  0  0  0  0
    7.1200  -13.6186   18.5865 C   0  0  0  0  0  0  0  0  0  0  0  0
    7.8669  -12.6748   19.4781 C   0  0  0  0  0  0  0  0  0  0  0  0
    8.7806  -13.5799   20.2597 C   0  0  1  0  0  0  0  0  0  0  0  0
    8.1533  -13.7749   21.6164 C   0  0  0  0  0  0  0  0  0  0  0  0
    7.6960  -12.7816   22.2466 O   0  0  0  0  0  0  0  0  0  0  0  0
    8.0390  -15.0293   22.2524 N   0  0  0  0  0  0  0  0  0  0  0  0
    7.5729  -15.3269   23.5344 C   0  0  1  0  0  0  0  0  0  0  0  0
    7.4118  -16.8259   23.8212 C   0  0  0  0  0  0  0  0  0  0  0  0
    6.7213  -17.0970   25.1230 C   0  0  0  0  0  0  0  0  0  0  0  0
    6.5783  -18.5682   25.3607 C   0  0  0  0  0  0  0  0  0  0  0  0
    7.0532  -19.1522   26.3530 O   0  0  0  0  0  0  0  0  0  0  0  0
    8.1405  -14.7381   24.7170 C   0  0  0  0  0  0  0  0  0  0  0  0
    9.2872  -15.2310   25.0615 O   0  0  0  0  0  0  0  0  0  0  0  0
    5.8820  -19.3049   24.4245 O   0  0  0  0  0  0  0  0  0  0  0  0
    7.6470  -13.7096   25.5597 N   0  0  0  0  0  0  0  0  0  0  0  0
    6.5056  -12.9109   25.2644 C   0  0  0  0  0  0  0  0  0  0  0  0
    6.1342  -12.2621   26.5625 C   0  0  0  0  0  0  0  0  0  0  0  0
    7.3218  -12.3408   27.4472 C   0  0  0  0  0  0  0  0  0  0  0  0
    8.2489  -13.3118   26.7831 C   0  0  1  0  0  0  0  0  0  0  0  0
    8.4657  -14.5034   27.6922 C   0  0  0  0  0  0  0  0  0  0  0  0
    9.3016  -14.4550   28.7870 O   0  0  0  0  0  0  0  0  0  0  0  0
    7.8631  -15.5592   27.4319 O   0  0  0  0  0  0  0  0  0  0  0  0
  1  2  1  0
  2  3  1  0
  4  3  1  0
  5  4  1  0
  5  1  1  0
  5  6  1  1
  6  7  2  0
  8  6  1  0
  8  9  1  0
  9 14  1  0
  9 10  1  1
 11 10  1  0
 12 16  1  0
 12 11  1  0
 13 12  2  0
 14 17  1  0
 14 15  2  0
 17 21  1  0
 18 17  1  0
 18 19  1  0
 19 20  1  0
 20 21  1  0
 21 22  1  1
 22 24  2  0
 22 23  1  0
M  END
$$$$
