PEP.pdb
     RDKit          3D

 24 25  0  0  1  0  0  0  0  0999 V2000
    8.8482  -14.9806   19.4459 N   0  0  0  0  0  0  0  0  0  0  0  0
    7.9518  -14.7281   18.3847 C   0  0  0  0  0  0  0  0  0  0  0  0
    7.4373  -13.3263   18.5316 C   0  0  0  0  0  0  0  0  0  0  0  0
    8.2167  -12.7230   19.6594 C   0  0  0  0  0  0  0  0  0  0  0  0
    8.8020  -13.9191   20.3606 C   0  0  1  0  0  0  0  0  0  0  0  0
    7.9523  -14.1757   21.5789 C   0  0  0  0  0  0  0  0  0  0  0  0
    7.0421  -13.3602   21.8941 O   0  0  0  0  0  0  0  0  0  0  0  0
    8.1087  -15.2984   22.4193 N   0  0  0  0  0  0  0  0  0  0  0  0
    7.6383  -15.4974   23.7187 C   0  0  1  0  0  0  0  0  0  0  0  0
    7.4766  -16.9702   24.1187 C   0  0  0  0  0  0  0  0  0  0  0  0
    6.7937  -17.1410   25.4413 C   0  0  0  0  0  0  0  0  0  0  0  0
    6.7036  -18.5871   25.8182 C   0  0  0  0  0  0  0  0  0  0  0  0
    6.1688  -18.9905   26.8682 O   0  0  0  0  0  0  0  0  0  0  0  0
    8.2016  -14.8196   24.8548 C   0  0  0  0  0  0  0  0  0  0  0  0
    9.3877  -15.2221   25.1828 O   0  0  0  0  0  0  0  0  0  0  0  0
    7.2451  -19.5118   24.9488 O   0  0  0  0  0  0  0  0  0  0  0  0
    7.6677  -13.7867   25.6670 N   0  0  0  0  0  0  0  0  0  0  0  0
    6.3920  -13.1871   25.4644 C   0  0  0  0  0  0  0  0  0  0  0  0
    6.0910  -12.4643   26.7415 C   0  0  0  0  0  0  0  0  0  0  0  0
    7.3770  -12.2872   27.4584 C   0  0  0  0  0  0  0  0  0  0  0  0
    8.3498  -13.1854   26.7581 C   0  0  1  0  0  0  0  0  0  0  0  0
    8.8530  -14.2353   27.7265 C   0  0  0  0  0  0  0  0  0  0  0  0
    8.3580  -15.5214   27.7448 O   0  0  0  0  0  0  0  0  0  0  0  0
    9.7452  -13.9143   28.5308 O   0  0  0  0  0  0  0  0  0  0  0  0
  1  2  1  0
  2  3  1  0
  4  3  1  0
  5  4  1  0
  5  1  1  0
  5  6  1  1
  6  7  2  0
  8  6  1  0
  8  9  1  0
  9 14  1  0
  9 10  1  1
 11 10  1  0
 12 16  1  0
 12 11  1  0
 13 12  2  0
 14 17  1  0
 14 15  2  0
 17 21  1  0
 18 17  1  0
 18 19  1  0
 19 20  1  0
 20 21  1  0
 21 22  1  1
 22 24  2  0
 22 23  1  0
M  END
$$$$
