PEP.pdb
     RDKit          3D

 24 25  0  0  1  0  0  0  0  0999 V2000
    9.0170  -14.7713   19.5282 N   0  0  0  0  0  0  0  0  0  0  0  0
    8.0465  -14.8826   18.5089 C   0  0  0  0  0  0  0  0  0  0  0  0
    7.2456  -13.6140   18.4861 C   0  0  0  0  0  0  0  0  0  0  0  0
    7.9185  -12.6906   19.4546 C   0  0  0  0  0  0  0  0  0  0  0  0
    8.7769  -13.6118   20.2789 C   0  0  1  0  0  0  0  0  0  0  0  0
    8.0516  -13.8443   21.5797 C   0  0  0  0  0  0  0  0  0  0  0  0
    7.3229  -12.9351   22.0647 O   0  0  0  0  0  0  0  0  0  0  0  0
    8.1337  -15.0442   22.3176 N   0  0  0  0  0  0  0  0  0  0  0  0
    7.6291  -15.3332   23.5869 C   0  0  1  0  0  0  0  0  0  0  0  0
    7.4930  -16.8311   23.8921 C   0  0  0  0  0  0  0  0  0  0  0  0
    6.7083  -17.1005   25.1396 C   0  0  0  0  0  0  0  0  0  0  0  0
    6.5832  -18.5711   25.3903 C   0  0  0  0  0  0  0  0  0  0  0  0
    6.9821  -19.1261   26.4316 O   0  0  0  0  0  0  0  0  0  0  0  0
    8.1400  -14.7128   24.7792 C   0  0  0  0  0  0  0  0  0  0  0  0
    9.3279  -15.1020   25.1167 O   0  0  0  0  0  0  0  0  0  0  0  0
    5.9935  -19.3416   24.4090 O   0  0  0  0  0  0  0  0  0  0  0  0
    7.5532  -13.7484   25.6376 N   0  0  0  0  0  0  0  0  0  0  0  0
    6.2411  -13.2207   25.4709 C   0  0  0  0  0  0  0  0  0  0  0  0
    5.9108  -12.5699   26.7792 C   0  0  0  0  0  0  0  0  0  0  0  0
    7.1915  -12.3433   27.4915 C   0  0  0  0  0  0  0  0  0  0  0  0
    8.2094  -13.1509   26.7465 C   0  0  1  0  0  0  0  0  0  0  0  0
    8.7866  -14.2062   27.6667 C   0  0  0  0  0  0  0  0  0  0  0  0
    9.7348  -13.9138   28.6231 O   0  0  0  0  0  0  0  0  0  0  0  0
    8.3836  -15.3761   27.5459 O   0  0  0  0  0  0  0  0  0  0  0  0
  1  2  1  0
  2  3  1  0
  4  3  1  0
  5  4  1  0
  5  1  1  0
  5  6  1  1
  6  7  2  0
  8  6  1  0
  8  9  1  0
  9 14  1  0
  9 10  1  1
 11 10  1  0
 12 16  1  0
 12 11  1  0
 13 12  2  0
 14 17  1  0
 14 15  2  0
 17 21  1  0
 18 17  1  0
 18 19  1  0
 19 20  1  0
 20 21  1  0
 21 22  1  1
 22 24  2  0
 22 23  1  0
M  END
$$$$
