PEP.pdb
     RDKit          3D

 24 25  0  0  1  0  0  0  0  0999 V2000
    8.4762  -15.3621   19.2656 N   0  0  0  0  0  0  0  0  0  0  0  0
    7.6898  -14.7434   18.2695 C   0  0  0  0  0  0  0  0  0  0  0  0
    7.5407  -13.2936   18.6260 C   0  0  0  0  0  0  0  0  0  0  0  0
    8.4273  -13.0731   19.8130 C   0  0  0  0  0  0  0  0  0  0  0  0
    8.6822  -14.4656   20.3237 C   0  0  1  0  0  0  0  0  0  0  0  0
    7.7749  -14.6736   21.5093 C   0  0  0  0  0  0  0  0  0  0  0  0
    6.5872  -14.2481   21.4747 O   0  0  0  0  0  0  0  0  0  0  0  0
    8.1729  -15.3300   22.6933 N   0  0  0  0  0  0  0  0  0  0  0  0
    7.6080  -15.2646   23.9684 C   0  0  1  0  0  0  0  0  0  0  0  0
    7.2235  -16.6253   24.5650 C   0  0  0  0  0  0  0  0  0  0  0  0
    6.3829  -17.4491   23.6379 C   0  0  0  0  0  0  0  0  0  0  0  0
    6.2548  -18.8559   24.1337 C   0  0  0  0  0  0  0  0  0  0  0  0
    6.7261  -19.2469   25.2182 O   0  0  0  0  0  0  0  0  0  0  0  0
    8.1949  -14.4969   25.0331 C   0  0  0  0  0  0  0  0  0  0  0  0
    9.4191  -14.8154   25.3092 O   0  0  0  0  0  0  0  0  0  0  0  0
    5.5769  -19.7573   23.3385 O   0  0  0  0  0  0  0  0  0  0  0  0
    7.6491  -13.4529   25.8229 N   0  0  0  0  0  0  0  0  0  0  0  0
    6.4015  -12.8185   25.5604 C   0  0  0  0  0  0  0  0  0  0  0  0
    6.0570  -12.0923   26.8245 C   0  0  0  0  0  0  0  0  0  0  0  0
    7.3101  -11.9525   27.6049 C   0  0  0  0  0  0  0  0  0  0  0  0
    8.2921  -12.8740   26.9493 C   0  0  1  0  0  0  0  0  0  0  0  0
    8.7185  -13.9404   27.9364 C   0  0  0  0  0  0  0  0  0  0  0  0
    9.6638  -13.7085   28.9121 O   0  0  0  0  0  0  0  0  0  0  0  0
    8.1904  -15.0630   27.8541 O   0  0  0  0  0  0  0  0  0  0  0  0
  1  2  1  0
  2  3  1  0
  4  3  1  0
  5  4  1  0
  5  1  1  0
  5  6  1  1
  6  7  2  0
  8  6  1  0
  8  9  1  0
  9 14  1  0
  9 10  1  1
 11 10  1  0
 12 16  1  0
 12 11  1  0
 13 12  2  0
 14 17  1  0
 14 15  2  0
 17 21  1  0
 18 17  1  0
 18 19  1  0
 19 20  1  0
 20 21  1  0
 21 22  1  1
 22 24  2  0
 22 23  1  0
M  END
$$$$
