PEP.pdb
     RDKit          3D

 24 25  0  0  1  0  0  0  0  0999 V2000
    8.1674  -15.1962   19.2985 N   0  0  0  0  0  0  0  0  0  0  0  0
    7.4357  -14.3306   18.4567 C   0  0  0  0  0  0  0  0  0  0  0  0
    7.5700  -12.9352   18.9915 C   0  0  0  0  0  0  0  0  0  0  0  0
    8.5615  -13.0221   20.1108 C   0  0  0  0  0  0  0  0  0  0  0  0
    8.6012  -14.4921   20.4308 C   0  0  1  0  0  0  0  0  0  0  0  0
    7.7557  -14.6987   21.6615 C   0  0  0  0  0  0  0  0  0  0  0  0
    6.5886  -14.2206   21.7102 O   0  0  0  0  0  0  0  0  0  0  0  0
    8.1913  -15.4100   22.7995 N   0  0  0  0  0  0  0  0  0  0  0  0
    7.6622  -15.4128   24.0916 C   0  0  1  0  0  0  0  0  0  0  0  0
    7.4307  -16.8103   24.6818 C   0  0  0  0  0  0  0  0  0  0  0  0
    6.5400  -17.6608   23.8284 C   0  0  0  0  0  0  0  0  0  0  0  0
    6.4911  -19.0682   24.3364 C   0  0  0  0  0  0  0  0  0  0  0  0
    6.4796  -20.0665   23.5917 O   0  0  0  0  0  0  0  0  0  0  0  0
    8.2040  -14.6019   25.1482 C   0  0  0  0  0  0  0  0  0  0  0  0
    9.4416  -14.8537   25.4335 O   0  0  0  0  0  0  0  0  0  0  0  0
    6.4570  -19.2564   25.7030 O   0  0  0  0  0  0  0  0  0  0  0  0
    7.6019  -13.5768   25.9215 N   0  0  0  0  0  0  0  0  0  0  0  0
    6.3145  -13.0273   25.6595 C   0  0  0  0  0  0  0  0  0  0  0  0
    5.9377  -12.2963   26.9116 C   0  0  0  0  0  0  0  0  0  0  0  0
    7.1874  -12.0613   27.6746 C   0  0  0  0  0  0  0  0  0  0  0  0
    8.2186  -12.9341   27.0279 C   0  0  1  0  0  0  0  0  0  0  0  0
    8.7207  -13.9498   28.0327 C   0  0  0  0  0  0  0  0  0  0  0  0
    8.2806  -15.2558   28.0460 O   0  0  0  0  0  0  0  0  0  0  0  0
    9.5601  -13.5811   28.8724 O   0  0  0  0  0  0  0  0  0  0  0  0
  1  2  1  0
  2  3  1  0
  4  3  1  0
  5  4  1  0
  5  1  1  0
  5  6  1  1
  6  7  2  0
  8  6  1  0
  8  9  1  0
  9 14  1  0
  9 10  1  1
 11 10  1  0
 12 16  1  0
 12 11  1  0
 13 12  2  0
 14 17  1  0
 14 15  2  0
 17 21  1  0
 18 17  1  0
 18 19  1  0
 19 20  1  0
 20 21  1  0
 21 22  1  1
 22 24  2  0
 22 23  1  0
M  END
$$$$
