PEP.pdb
     RDKit          3D

 24 25  0  0  1  0  0  0  0  0999 V2000
    8.8557  -14.8972   19.3794 N   0  0  0  0  0  0  0  0  0  0  0  0
    7.9651  -14.5740   18.3326 C   0  0  0  0  0  0  0  0  0  0  0  0
    7.3863  -13.2185   18.6137 C   0  0  0  0  0  0  0  0  0  0  0  0
    8.1209  -12.7032   19.8130 C   0  0  0  0  0  0  0  0  0  0  0  0
    8.7484  -13.9397   20.3980 C   0  0  1  0  0  0  0  0  0  0  0  0
    7.8928  -14.3581   21.5663 C   0  0  0  0  0  0  0  0  0  0  0  0
    6.7387  -13.8672   21.7084 O   0  0  0  0  0  0  0  0  0  0  0  0
    8.3046  -15.2883   22.5441 N   0  0  0  0  0  0  0  0  0  0  0  0
    7.7939  -15.5022   23.8258 C   0  0  1  0  0  0  0  0  0  0  0  0
    7.7025  -16.9781   24.2365 C   0  0  0  0  0  0  0  0  0  0  0  0
    7.0633  -17.1688   25.5782 C   0  0  0  0  0  0  0  0  0  0  0  0
    6.9974  -18.6195   25.9421 C   0  0  0  0  0  0  0  0  0  0  0  0
    7.3291  -19.0629   27.0577 O   0  0  0  0  0  0  0  0  0  0  0  0
    8.2696  -14.7815   24.9754 C   0  0  0  0  0  0  0  0  0  0  0  0
    9.4486  -15.1352   25.3772 O   0  0  0  0  0  0  0  0  0  0  0  0
    6.5437  -19.5018   24.9829 O   0  0  0  0  0  0  0  0  0  0  0  0
    7.6565  -13.7513   25.7332 N   0  0  0  0  0  0  0  0  0  0  0  0
    6.4162  -13.1386   25.3956 C   0  0  0  0  0  0  0  0  0  0  0  0
    5.9801  -12.4247   26.6383 C   0  0  0  0  0  0  0  0  0  0  0  0
    7.1794  -12.2657   27.4960 C   0  0  0  0  0  0  0  0  0  0  0  0
    8.2172  -13.1661   26.8996 C   0  0  1  0  0  0  0  0  0  0  0  0
    8.6009  -14.2292   27.9076 C   0  0  0  0  0  0  0  0  0  0  0  0
    9.4369  -13.9705   28.9723 O   0  0  0  0  0  0  0  0  0  0  0  0
    8.1395  -15.3742   27.7594 O   0  0  0  0  0  0  0  0  0  0  0  0
  1  2  1  0
  2  3  1  0
  4  3  1  0
  5  4  1  0
  5  1  1  0
  5  6  1  1
  6  7  2  0
  8  6  1  0
  8  9  1  0
  9 14  1  0
  9 10  1  1
 11 10  1  0
 12 16  1  0
 12 11  1  0
 13 12  2  0
 14 17  1  0
 14 15  2  0
 17 21  1  0
 18 17  1  0
 18 19  1  0
 19 20  1  0
 20 21  1  0
 21 22  1  1
 22 24  2  0
 22 23  1  0
M  END
$$$$
