PEP.pdb
     RDKit          3D

 24 25  0  0  1  0  0  0  0  0999 V2000
    9.1640  -14.9032   19.6335 N   0  0  0  0  0  0  0  0  0  0  0  0
    8.3492  -14.9164   18.4805 C   0  0  0  0  0  0  0  0  0  0  0  0
    7.5682  -13.6358   18.4459 C   0  0  0  0  0  0  0  0  0  0  0  0
    8.1011  -12.8037   19.5717 C   0  0  0  0  0  0  0  0  0  0  0  0
    8.8261  -13.8023   20.4332 C   0  0  1  0  0  0  0  0  0  0  0  0
    7.9200  -14.1233   21.5942 C   0  0  0  0  0  0  0  0  0  0  0  0
    6.9749  -13.3407   21.8897 O   0  0  0  0  0  0  0  0  0  0  0  0
    8.0591  -15.2729   22.4006 N   0  0  0  0  0  0  0  0  0  0  0  0
    7.5801  -15.5059   23.6911 C   0  0  1  0  0  0  0  0  0  0  0  0
    7.4779  -16.9885   24.0742 C   0  0  0  0  0  0  0  0  0  0  0  0
    6.7317  -17.2070   25.3550 C   0  0  0  0  0  0  0  0  0  0  0  0
    6.6854  -18.6607   25.7101 C   0  0  0  0  0  0  0  0  0  0  0  0
    7.2105  -19.1335   26.7358 O   0  0  0  0  0  0  0  0  0  0  0  0
    8.0975  -14.8160   24.8417 C   0  0  0  0  0  0  0  0  0  0  0  0
    9.2679  -15.2173   25.2234 O   0  0  0  0  0  0  0  0  0  0  0  0
    6.0237  -19.5112   24.8482 O   0  0  0  0  0  0  0  0  0  0  0  0
    7.5331  -13.7725   25.6188 N   0  0  0  0  0  0  0  0  0  0  0  0
    6.2753  -13.1623   25.3476 C   0  0  0  0  0  0  0  0  0  0  0  0
    5.9167  -12.4278   26.6030 C   0  0  0  0  0  0  0  0  0  0  0  0
    7.1663  -12.2578   27.3833 C   0  0  0  0  0  0  0  0  0  0  0  0
    8.1646  -13.1700   26.7394 C   0  0  1  0  0  0  0  0  0  0  0  0
    8.6076  -14.2178   27.7390 C   0  0  0  0  0  0  0  0  0  0  0  0
    9.4929  -13.9393   28.7579 O   0  0  0  0  0  0  0  0  0  0  0  0
    8.1501  -15.3684   27.6269 O   0  0  0  0  0  0  0  0  0  0  0  0
  1  2  1  0
  2  3  1  0
  4  3  1  0
  5  4  1  0
  5  1  1  0
  5  6  1  1
  6  7  2  0
  8  6  1  0
  8  9  1  0
  9 14  1  0
  9 10  1  1
 11 10  1  0
 12 16  1  0
 12 11  1  0
 13 12  2  0
 14 17  1  0
 14 15  2  0
 17 21  1  0
 18 17  1  0
 18 19  1  0
 19 20  1  0
 20 21  1  0
 21 22  1  1
 22 24  2  0
 22 23  1  0
M  END
$$$$
