PEP.pdb
     RDKit          3D

 24 25  0  0  1  0  0  0  0  0999 V2000
    8.5035  -15.4890   19.5440 N   0  0  0  0  0  0  0  0  0  0  0  0
    7.5955  -15.1195   18.5279 C   0  0  0  0  0  0  0  0  0  0  0  0
    7.4325  -13.6285   18.5669 C   0  0  0  0  0  0  0  0  0  0  0  0
    8.4298  -13.1362   19.5701 C   0  0  0  0  0  0  0  0  0  0  0  0
    8.7867  -14.3749   20.3468 C   0  0  1  0  0  0  0  0  0  0  0  0
    8.0164  -14.3210   21.6414 C   0  0  0  0  0  0  0  0  0  0  0  0
    7.2330  -13.3576   21.8675 O   0  0  0  0  0  0  0  0  0  0  0  0
    8.1135  -15.3020   22.6509 N   0  0  0  0  0  0  0  0  0  0  0  0
    7.5880  -15.2889   23.9444 C   0  0  1  0  0  0  0  0  0  0  0  0
    7.2106  -16.6718   24.4923 C   0  0  0  0  0  0  0  0  0  0  0  0
    6.2655  -17.4130   23.5967 C   0  0  0  0  0  0  0  0  0  0  0  0
    6.3831  -18.8922   23.7955 C   0  0  0  0  0  0  0  0  0  0  0  0
    5.7461  -19.7273   23.1263 O   0  0  0  0  0  0  0  0  0  0  0  0
    8.2133  -14.5730   25.0233 C   0  0  0  0  0  0  0  0  0  0  0  0
    9.4098  -14.9766   25.3095 O   0  0  0  0  0  0  0  0  0  0  0  0
    7.2457  -19.3416   24.7745 O   0  0  0  0  0  0  0  0  0  0  0  0
    7.7306  -13.5017   25.8175 N   0  0  0  0  0  0  0  0  0  0  0  0
    6.5232  -12.7928   25.5577 C   0  0  0  0  0  0  0  0  0  0  0  0
    6.2221  -12.0529   26.8249 C   0  0  0  0  0  0  0  0  0  0  0  0
    7.4811  -11.9915   27.6061 C   0  0  0  0  0  0  0  0  0  0  0  0
    8.4065  -12.9672   26.9465 C   0  0  1  0  0  0  0  0  0  0  0  0
    8.7681  -14.0615   27.9290 C   0  0  0  0  0  0  0  0  0  0  0  0
    8.0835  -15.2561   27.9892 O   0  0  0  0  0  0  0  0  0  0  0  0
    9.7189  -13.8642   28.7055 O   0  0  0  0  0  0  0  0  0  0  0  0
  1  2  1  0
  2  3  1  0
  4  3  1  0
  5  4  1  0
  5  1  1  0
  5  6  1  1
  6  7  2  0
  8  6  1  0
  8  9  1  0
  9 14  1  0
  9 10  1  1
 11 10  1  0
 12 16  1  0
 12 11  1  0
 13 12  2  0
 14 17  1  0
 14 15  2  0
 17 21  1  0
 18 17  1  0
 18 19  1  0
 19 20  1  0
 20 21  1  0
 21 22  1  1
 22 24  2  0
 22 23  1  0
M  END
$$$$
