PEP.pdb
     RDKit          3D

 24 25  0  0  1  0  0  0  0  0999 V2000
    8.6900  -15.0179   19.3213 N   0  0  0  0  0  0  0  0  0  0  0  0
    7.8420  -14.5298   18.3035 C   0  0  0  0  0  0  0  0  0  0  0  0
    7.4219  -13.1377   18.6734 C   0  0  0  0  0  0  0  0  0  0  0  0
    8.2107  -12.7863   19.8973 C   0  0  0  0  0  0  0  0  0  0  0  0
    8.6930  -14.1208   20.3988 C   0  0  1  0  0  0  0  0  0  0  0  0
    7.7953  -14.5120   21.5448 C   0  0  0  0  0  0  0  0  0  0  0  0
    6.6661  -13.9633   21.6749 O   0  0  0  0  0  0  0  0  0  0  0  0
    8.1398  -15.4779   22.5139 N   0  0  0  0  0  0  0  0  0  0  0  0
    7.6805  -15.6114   23.8256 C   0  0  1  0  0  0  0  0  0  0  0  0
    7.5870  -17.0602   24.3231 C   0  0  0  0  0  0  0  0  0  0  0  0
    6.9247  -17.1726   25.6623 C   0  0  0  0  0  0  0  0  0  0  0  0
    6.8823  -18.5959   26.1245 C   0  0  0  0  0  0  0  0  0  0  0  0
    7.3020  -19.5511   25.4443 O   0  0  0  0  0  0  0  0  0  0  0  0
    8.2134  -14.8345   24.9119 C   0  0  0  0  0  0  0  0  0  0  0  0
    9.4205  -15.1535   25.2547 O   0  0  0  0  0  0  0  0  0  0  0  0
    6.3478  -18.8502   27.3711 O   0  0  0  0  0  0  0  0  0  0  0  0
    7.6305  -13.7811   25.6615 N   0  0  0  0  0  0  0  0  0  0  0  0
    6.3673  -13.1928   25.3678 C   0  0  0  0  0  0  0  0  0  0  0  0
    5.9905  -12.4351   26.6039 C   0  0  0  0  0  0  0  0  0  0  0  0
    7.2320  -12.2324   27.3892 C   0  0  0  0  0  0  0  0  0  0  0  0
    8.2462  -13.1462   26.7729 C   0  0  1  0  0  0  0  0  0  0  0  0
    8.6946  -14.1660   27.7987 C   0  0  0  0  0  0  0  0  0  0  0  0
    8.2256  -15.4619   27.8062 O   0  0  0  0  0  0  0  0  0  0  0  0
    9.5158  -13.8102   28.6618 O   0  0  0  0  0  0  0  0  0  0  0  0
  1  2  1  0
  2  3  1  0
  4  3  1  0
  5  4  1  0
  5  1  1  0
  5  6  1  1
  6  7  2  0
  8  6  1  0
  8  9  1  0
  9 14  1  0
  9 10  1  1
 11 10  1  0
 12 16  1  0
 12 11  1  0
 13 12  2  0
 14 17  1  0
 14 15  2  0
 17 21  1  0
 18 17  1  0
 18 19  1  0
 19 20  1  0
 20 21  1  0
 21 22  1  1
 22 24  2  0
 22 23  1  0
M  END
$$$$
