PEP.pdb
     RDKit          3D

 24 25  0  0  1  0  0  0  0  0999 V2000
    8.9211  -14.8285   19.2297 N   0  0  0  0  0  0  0  0  0  0  0  0
    8.0452  -14.4988   18.1726 C   0  0  0  0  0  0  0  0  0  0  0  0
    7.4457  -13.1548   18.4648 C   0  0  0  0  0  0  0  0  0  0  0  0
    8.1530  -12.6503   19.6849 C   0  0  0  0  0  0  0  0  0  0  0  0
    8.7848  -13.8887   20.2613 C   0  0  1  0  0  0  0  0  0  0  0  0
    7.9137  -14.3356   21.4075 C   0  0  0  0  0  0  0  0  0  0  0  0
    6.7550  -13.8538   21.5420 O   0  0  0  0  0  0  0  0  0  0  0  0
    8.3158  -15.2837   22.3722 N   0  0  0  0  0  0  0  0  0  0  0  0
    7.8292  -15.4841   23.6654 C   0  0  1  0  0  0  0  0  0  0  0  0
    7.7636  -16.9544   24.1002 C   0  0  0  0  0  0  0  0  0  0  0  0
    7.1189  -17.1353   25.4405 C   0  0  0  0  0  0  0  0  0  0  0  0
    7.0586  -18.5827   25.8183 C   0  0  0  0  0  0  0  0  0  0  0  0
    6.0286  -19.1383   26.2445 O   0  0  0  0  0  0  0  0  0  0  0  0
    8.3146  -14.7396   24.7957 C   0  0  0  0  0  0  0  0  0  0  0  0
    9.4995  -15.0807   25.1908 O   0  0  0  0  0  0  0  0  0  0  0  0
    8.2109  -19.3298   25.6830 O   0  0  0  0  0  0  0  0  0  0  0  0
    7.7055  -13.6978   25.5407 N   0  0  0  0  0  0  0  0  0  0  0  0
    6.4609  -13.0937   25.2030 C   0  0  0  0  0  0  0  0  0  0  0  0
    6.0337  -12.3593   26.4368 C   0  0  0  0  0  0  0  0  0  0  0  0
    7.2398  -12.1827   27.2813 C   0  0  0  0  0  0  0  0  0  0  0  0
    8.2747  -13.0911   26.6919 C   0  0  1  0  0  0  0  0  0  0  0  0
    8.6693  -14.1357   27.7149 C   0  0  0  0  0  0  0  0  0  0  0  0
    8.1748  -15.4218   27.6862 O   0  0  0  0  0  0  0  0  0  0  0  0
    9.4690  -13.8102   28.6096 O   0  0  0  0  0  0  0  0  0  0  0  0
  1  2  1  0
  2  3  1  0
  4  3  1  0
  5  4  1  0
  5  1  1  0
  5  6  1  1
  6  7  2  0
  8  6  1  0
  8  9  1  0
  9 14  1  0
  9 10  1  1
 11 10  1  0
 12 16  1  0
 12 11  1  0
 13 12  2  0
 14 17  1  0
 14 15  2  0
 17 21  1  0
 18 17  1  0
 18 19  1  0
 19 20  1  0
 20 21  1  0
 21 22  1  1
 22 24  2  0
 22 23  1  0
M  END
$$$$
