PEP.pdb
     RDKit          3D

 24 25  0  0  1  0  0  0  0  0999 V2000
    8.9946  -14.8511   19.5170 N   0  0  0  0  0  0  0  0  0  0  0  0
    7.9726  -15.0405   18.5615 C   0  0  0  0  0  0  0  0  0  0  0  0
    7.1338  -13.7971   18.5222 C   0  0  0  0  0  0  0  0  0  0  0  0
    7.8313  -12.8076   19.4041 C   0  0  0  0  0  0  0  0  0  0  0  0
    8.7617  -13.6619   20.2224 C   0  0  1  0  0  0  0  0  0  0  0  0
    8.1172  -13.8478   21.5723 C   0  0  0  0  0  0  0  0  0  0  0  0
    7.5596  -12.8700   22.1431 O   0  0  0  0  0  0  0  0  0  0  0  0
    8.0939  -15.0767   22.2655 N   0  0  0  0  0  0  0  0  0  0  0  0
    7.6226  -15.3537   23.5502 C   0  0  1  0  0  0  0  0  0  0  0  0
    7.4458  -16.8473   23.8552 C   0  0  0  0  0  0  0  0  0  0  0  0
    6.7802  -17.0957   25.1743 C   0  0  0  0  0  0  0  0  0  0  0  0
    6.6163  -18.5622   25.4273 C   0  0  0  0  0  0  0  0  0  0  0  0
    7.1457  -19.1566   26.3852 O   0  0  0  0  0  0  0  0  0  0  0  0
    8.1941  -14.7561   24.7265 C   0  0  0  0  0  0  0  0  0  0  0  0
    9.3387  -15.2510   25.0747 O   0  0  0  0  0  0  0  0  0  0  0  0
    5.8357  -19.2821   24.5461 O   0  0  0  0  0  0  0  0  0  0  0  0
    7.7062  -13.7171   25.5595 N   0  0  0  0  0  0  0  0  0  0  0  0
    6.5639  -12.9208   25.2610 C   0  0  0  0  0  0  0  0  0  0  0  0
    6.2003  -12.2562   26.5533 C   0  0  0  0  0  0  0  0  0  0  0  0
    7.3926  -12.3256   27.4323 C   0  0  0  0  0  0  0  0  0  0  0  0
    8.3152  -13.3053   26.7748 C   0  0  1  0  0  0  0  0  0  0  0  0
    8.5359  -14.4862   27.6968 C   0  0  0  0  0  0  0  0  0  0  0  0
    9.3778  -14.4257   28.7863 O   0  0  0  0  0  0  0  0  0  0  0  0
    7.9309  -15.5445   27.4524 O   0  0  0  0  0  0  0  0  0  0  0  0
  1  2  1  0
  2  3  1  0
  4  3  1  0
  5  4  1  0
  5  1  1  0
  5  6  1  1
  6  7  2  0
  8  6  1  0
  8  9  1  0
  9 14  1  0
  9 10  1  1
 11 10  1  0
 12 16  1  0
 12 11  1  0
 13 12  2  0
 14 17  1  0
 14 15  2  0
 17 21  1  0
 18 17  1  0
 18 19  1  0
 19 20  1  0
 20 21  1  0
 21 22  1  1
 22 24  2  0
 22 23  1  0
M  END
$$$$
