PEP.pdb
     RDKit          3D

 24 25  0  0  1  0  0  0  0  0999 V2000
    9.2720  -14.6863   19.6053 N   0  0  0  0  0  0  0  0  0  0  0  0
    8.3525  -14.9406   18.5646 C   0  0  0  0  0  0  0  0  0  0  0  0
    7.4228  -13.7671   18.4657 C   0  0  0  0  0  0  0  0  0  0  0  0
    7.9622  -12.7398   19.4129 C   0  0  0  0  0  0  0  0  0  0  0  0
    8.8861  -13.5308   20.2993 C   0  0  1  0  0  0  0  0  0  0  0  0
    8.1475  -13.7887   21.5878 C   0  0  0  0  0  0  0  0  0  0  0  0
    7.5254  -12.8485   22.1552 O   0  0  0  0  0  0  0  0  0  0  0  0
    8.1023  -15.0467   22.2252 N   0  0  0  0  0  0  0  0  0  0  0  0
    7.6245  -15.3729   23.4959 C   0  0  1  0  0  0  0  0  0  0  0  0
    7.4449  -16.8770   23.7418 C   0  0  0  0  0  0  0  0  0  0  0  0
    6.7023  -17.1736   25.0088 C   0  0  0  0  0  0  0  0  0  0  0  0
    6.5491  -18.6491   25.2107 C   0  0  0  0  0  0  0  0  0  0  0  0
    5.5573  -19.2953   24.8236 O   0  0  0  0  0  0  0  0  0  0  0  0
    8.1906  -14.8219   24.6973 C   0  0  0  0  0  0  0  0  0  0  0  0
    9.3388  -15.3226   25.0250 O   0  0  0  0  0  0  0  0  0  0  0  0
    7.5667  -19.3169   25.8610 O   0  0  0  0  0  0  0  0  0  0  0  0
    7.6943  -13.8234   25.5737 N   0  0  0  0  0  0  0  0  0  0  0  0
    6.4630  -13.1331   25.3859 C   0  0  0  0  0  0  0  0  0  0  0  0
    6.1665  -12.4929   26.7074 C   0  0  0  0  0  0  0  0  0  0  0  0
    7.4384  -12.4503   27.4687 C   0  0  0  0  0  0  0  0  0  0  0  0
    8.3772  -13.3502   26.7256 C   0  0  1  0  0  0  0  0  0  0  0  0
    8.7879  -14.4999   27.6217 C   0  0  0  0  0  0  0  0  0  0  0  0
    9.7169  -14.3558   28.6295 O   0  0  0  0  0  0  0  0  0  0  0  0
    8.2620  -15.6104   27.4321 O   0  0  0  0  0  0  0  0  0  0  0  0
  1  2  1  0
  2  3  1  0
  4  3  1  0
  5  4  1  0
  5  1  1  0
  5  6  1  1
  6  7  2  0
  8  6  1  0
  8  9  1  0
  9 14  1  0
  9 10  1  1
 11 10  1  0
 12 16  1  0
 12 11  1  0
 13 12  2  0
 14 17  1  0
 14 15  2  0
 17 21  1  0
 18 17  1  0
 18 19  1  0
 19 20  1  0
 20 21  1  0
 21 22  1  1
 22 24  2  0
 22 23  1  0
M  END
$$$$
