PLG.pdb
     RDKit          3D

 20 20  0  0  1  0  0  0  0  0999 V2000
   27.9894  -21.1910  -14.1561 N   0  0  0  0  0  0  0  0  0  0  0  0
   27.4434  -20.9101  -15.4485 C   0  0  0  0  0  0  0  0  0  0  0  0
   27.1410  -19.4118  -15.3777 C   0  0  0  0  0  0  0  0  0  0  0  0
   26.5521  -19.3083  -13.9834 C   0  0  0  0  0  0  0  0  0  0  0  0
   27.4514  -20.2642  -13.2141 C   0  0  1  0  0  0  0  0  0  0  0  0
   26.6202  -20.8987  -12.1625 C   0  0  0  0  0  0  0  0  0  0  0  0
   26.3306  -22.1240  -12.1780 O   0  0  0  0  0  0  0  0  0  0  0  0
   27.3447  -21.2893   -7.6652 C   0  0  0  0  0  0  0  0  0  0  0  0
   27.0976  -19.8721   -8.2189 C   0  0  2  0  0  0  0  0  0  0  0  0
   27.3365  -18.9083   -7.0762 C   0  0  0  0  0  0  0  0  0  0  0  0
   25.7136  -19.7649   -8.7653 C   0  0  0  0  0  0  0  0  0  0  0  0
   25.4215  -20.6351   -9.9579 C   0  0  2  0  0  0  0  0  0  0  0  0
   26.1477  -20.0656  -11.1108 N   0  0  0  0  0  0  0  0  0  0  0  0
   23.9794  -20.5731  -10.2816 C   0  0  0  0  0  0  0  0  0  0  0  0
   23.1490  -20.9830   -9.4215 O   0  0  0  0  0  0  0  0  0  0  0  0
   23.5547  -20.0610  -11.5376 N   0  0  0  0  0  0  0  0  0  0  0  0
   22.1515  -20.0323  -11.8497 C   0  0  0  0  0  0  0  0  0  0  0  0
   21.8452  -20.9007  -13.0410 C   0  0  0  0  0  0  0  0  0  0  0  0
   22.2677  -22.0788  -13.1409 O   0  0  0  0  0  0  0  0  0  0  0  0
   21.0704  -20.3962  -14.0732 O   0  0  0  0  0  0  0  0  0  0  0  0
  1  2  1  0
  3  2  1  0
  4  5  1  0
  4  3  1  0
  5  1  1  0
  5  6  1  1
  7  6  2  0
  9  8  1  1
  9 11  1  0
 10  9  1  0
 12 11  1  1
 12 13  1  0
 13  6  1  0
 14 15  2  0
 14 12  1  0
 16 14  1  0
 17 16  1  0
 17 18  1  0
 18 20  1  0
 19 18  2  0
M  END
$$$$
