PLG.pdb
     RDKit          3D

 20 20  0  0  1  0  0  0  0  0999 V2000
   23.3339  -21.9914   -7.6970 N   0  0  0  0  0  0  0  0  0  0  0  0
   22.2922  -21.7388   -6.7491 C   0  0  0  0  0  0  0  0  0  0  0  0
   21.3039  -20.8810   -7.5422 C   0  0  0  0  0  0  0  0  0  0  0  0
   22.2574  -19.9543   -8.2727 C   0  0  0  0  0  0  0  0  0  0  0  0
   23.3815  -20.9145   -8.6317 C   0  0  1  0  0  0  0  0  0  0  0  0
   24.6478  -20.1440   -8.5884 C   0  0  0  0  0  0  0  0  0  0  0  0
   24.7750  -19.0214   -9.1445 O   0  0  0  0  0  0  0  0  0  0  0  0
   27.8213  -18.2372   -5.5039 C   0  0  0  0  0  0  0  0  0  0  0  0
   27.3567  -19.7021   -5.3836 C   0  0  2  0  0  0  0  0  0  0  0  0
   27.9838  -20.2578   -4.1228 C   0  0  0  0  0  0  0  0  0  0  0  0
   27.7562  -20.4721   -6.5973 C   0  0  0  0  0  0  0  0  0  0  0  0
   27.0663  -20.0697   -7.8728 C   0  0  2  0  0  0  0  0  0  0  0  0
   25.7411  -20.7212   -7.8849 N   0  0  0  0  0  0  0  0  0  0  0  0
   27.8168  -20.5942   -9.0347 C   0  0  0  0  0  0  0  0  0  0  0  0
   29.0564  -20.8056   -8.9079 O   0  0  0  0  0  0  0  0  0  0  0  0
   27.1424  -20.8489  -10.2596 N   0  0  0  0  0  0  0  0  0  0  0  0
   27.8995  -21.2681  -11.4078 C   0  0  0  0  0  0  0  0  0  0  0  0
   27.0171  -21.3892  -12.6218 C   0  0  0  0  0  0  0  0  0  0  0  0
   25.7906  -21.1218  -12.5912 O   0  0  0  0  0  0  0  0  0  0  0  0
   27.5629  -21.8095  -13.8242 O   0  0  0  0  0  0  0  0  0  0  0  0
  1  2  1  0
  3  2  1  0
  4  5  1  0
  4  3  1  0
  5  1  1  0
  5  6  1  1
  7  6  2  0
  9  8  1  6
  9 11  1  0
 10  9  1  0
 12 11  1  1
 12 13  1  0
 13  6  1  0
 14 15  2  0
 14 12  1  0
 16 14  1  0
 17 16  1  0
 17 18  1  0
 18 20  1  0
 19 18  2  0
M  END
$$$$
