PLG.pdb
     RDKit          3D

 20 20  0  0  1  0  0  0  0  0999 V2000
   26.4777  -18.9964  -15.1029 N   0  0  0  0  0  0  0  0  0  0  0  0
   27.7448  -18.4823  -14.6811 C   0  0  0  0  0  0  0  0  0  0  0  0
   28.7383  -19.4860  -15.2701 C   0  0  0  0  0  0  0  0  0  0  0  0
   28.0258  -20.7931  -14.9780 C   0  0  0  0  0  0  0  0  0  0  0  0
   26.5818  -20.4100  -15.2655 C   0  0  1  0  0  0  0  0  0  0  0  0
   25.7282  -21.1815  -14.3299 C   0  0  0  0  0  0  0  0  0  0  0  0
   25.7304  -22.4402  -14.2949 O   0  0  0  0  0  0  0  0  0  0  0  0
   26.3583  -22.0375  -10.6166 C   0  0  0  0  0  0  0  0  0  0  0  0
   25.8614  -20.5862  -10.7685 C   0  0  2  0  0  0  0  0  0  0  0  0
   26.1571  -19.8835   -9.4607 C   0  0  0  0  0  0  0  0  0  0  0  0
   24.4069  -20.5701  -11.0996 C   0  0  0  0  0  0  0  0  0  0  0  0
   24.0463  -21.1287  -12.4498 C   0  0  2  0  0  0  0  0  0  0  0  0
   24.8867  -20.4434  -13.4521 N   0  0  0  0  0  0  0  0  0  0  0  0
   22.6393  -20.8005  -12.7677 C   0  0  0  0  0  0  0  0  0  0  0  0
   21.7560  -21.0124  -11.8889 O   0  0  0  0  0  0  0  0  0  0  0  0
   22.3061  -20.2594  -14.0391 N   0  0  0  0  0  0  0  0  0  0  0  0
   20.9232  -20.0740  -14.3863 C   0  0  0  0  0  0  0  0  0  0  0  0
   20.7873  -19.4667  -15.7573 C   0  0  0  0  0  0  0  0  0  0  0  0
   21.7822  -19.1840  -16.4693 O   0  0  0  0  0  0  0  0  0  0  0  0
   19.5255  -19.2041  -16.2664 O   0  0  0  0  0  0  0  0  0  0  0  0
  1  2  1  0
  3  2  1  0
  4  5  1  0
  4  3  1  0
  5  1  1  0
  5  6  1  1
  7  6  2  0
  9  8  1  1
  9 11  1  0
 10  9  1  0
 12 11  1  1
 12 13  1  0
 13  6  1  0
 14 15  2  0
 14 12  1  0
 16 14  1  0
 17 16  1  0
 17 18  1  0
 18 20  1  0
 19 18  2  0
M  END
$$$$
