PLG.pdb
     RDKit          3D

 20 20  0  0  1  0  0  0  0  0999 V2000
   21.4337  -11.6076  -18.5450 N   0  0  0  0  0  0  0  0  0  0  0  0
   22.0402  -12.7930  -19.0689 C   0  0  0  0  0  0  0  0  0  0  0  0
   21.3471  -13.9105  -18.2864 C   0  0  0  0  0  0  0  0  0  0  0  0
   21.3299  -13.3106  -16.8931 C   0  0  0  0  0  0  0  0  0  0  0  0
   21.0127  -11.8557  -17.2045 C   0  0  1  0  0  0  0  0  0  0  0  0
   21.7168  -11.0272  -16.1961 C   0  0  0  0  0  0  0  0  0  0  0  0
   21.5618  -11.1936  -14.9576 O   0  0  0  0  0  0  0  0  0  0  0  0
   25.6793  -10.9939  -14.9101 C   0  0  0  0  0  0  0  0  0  0  0  0
   25.5103  -10.4147  -16.3286 C   0  0  2  0  0  0  0  0  0  0  0  0
   26.9005  -10.2684  -16.9098 C   0  0  0  0  0  0  0  0  0  0  0  0
   24.7842   -9.1128  -16.2721 C   0  0  0  0  0  0  0  0  0  0  0  0
   23.3767   -9.1814  -15.7439 C   0  0  2  0  0  0  0  0  0  0  0  0
   22.5929  -10.0152  -16.6774 N   0  0  0  0  0  0  0  0  0  0  0  0
   22.7710   -7.8318  -15.7566 C   0  0  0  0  0  0  0  0  0  0  0  0
   23.2974   -6.9266  -15.0489 O   0  0  0  0  0  0  0  0  0  0  0  0
   21.6217   -7.5765  -16.5529 N   0  0  0  0  0  0  0  0  0  0  0  0
   21.0318   -6.2654  -16.5402 C   0  0  0  0  0  0  0  0  0  0  0  0
   19.8695   -6.2054  -15.5848 C   0  0  0  0  0  0  0  0  0  0  0  0
   19.5327   -7.1835  -14.8732 O   0  0  0  0  0  0  0  0  0  0  0  0
   19.1347   -5.0357  -15.4753 O   0  0  0  0  0  0  0  0  0  0  0  0
  1  2  1  0
  3  2  1  0
  4  5  1  0
  4  3  1  0
  5  1  1  0
  5  6  1  1
  7  6  2  0
  9  8  1  1
  9 11  1  0
 10  9  1  0
 12 11  1  6
 12 13  1  0
 13  6  1  0
 14 15  2  0
 14 12  1  0
 16 14  1  0
 17 16  1  0
 17 18  1  0
 18 20  1  0
 19 18  2  0
M  END
$$$$
