PLG.pdb
     RDKit          3D

 20 20  0  0  1  0  0  0  0  0999 V2000
   34.4570  -27.4773  -17.1585 N   0  0  0  0  0  0  0  0  0  0  0  0
   35.4893  -27.5008  -18.1491 C   0  0  0  0  0  0  0  0  0  0  0  0
   36.0719  -26.0878  -18.0746 C   0  0  0  0  0  0  0  0  0  0  0  0
   34.8031  -25.2655  -17.9511 C   0  0  0  0  0  0  0  0  0  0  0  0
   33.9760  -26.1410  -17.0217 C   0  0  1  0  0  0  0  0  0  0  0  0
   32.5550  -25.9767  -17.4127 C   0  0  0  0  0  0  0  0  0  0  0  0
   31.8821  -26.9110  -17.9224 O   0  0  0  0  0  0  0  0  0  0  0  0
   28.1420  -22.1013  -15.6086 C   0  0  0  0  0  0  0  0  0  0  0  0
   28.5303  -23.2336  -16.5798 C   0  0  2  0  0  0  0  0  0  0  0  0
   27.6690  -24.4274  -16.2266 C   0  0  0  0  0  0  0  0  0  0  0  0
   29.9865  -23.5366  -16.4645 C   0  0  0  0  0  0  0  0  0  0  0  0
   30.5374  -24.4648  -17.5132 C   0  0  2  0  0  0  0  0  0  0  0  0
   31.9585  -24.7045  -17.1909 N   0  0  0  0  0  0  0  0  0  0  0  0
   30.4994  -23.8041  -18.8362 C   0  0  0  0  0  0  0  0  0  0  0  0
   29.3741  -23.5398  -19.3475 O   0  0  0  0  0  0  0  0  0  0  0  0
   31.7118  -23.4810  -19.5039 N   0  0  0  0  0  0  0  0  0  0  0  0
   31.6597  -22.8460  -20.7928 C   0  0  0  0  0  0  0  0  0  0  0  0
   31.7951  -23.8580  -21.8994 C   0  0  0  0  0  0  0  0  0  0  0  0
   30.8176  -24.5177  -22.3307 O   0  0  0  0  0  0  0  0  0  0  0  0
   33.0365  -24.0813  -22.4731 O   0  0  0  0  0  0  0  0  0  0  0  0
  1  2  1  0
  3  2  1  0
  4  5  1  0
  4  3  1  0
  5  1  1  0
  5  6  1  6
  7  6  2  0
  9  8  1  1
  9 11  1  0
 10  9  1  0
 12 11  1  1
 12 13  1  0
 13  6  1  0
 14 15  2  0
 14 12  1  0
 16 14  1  0
 17 16  1  0
 17 18  1  0
 18 20  1  0
 19 18  2  0
M  END
$$$$
