PLG.pdb
     RDKit          3D

 20 20  0  0  1  0  0  0  0  0999 V2000
   26.7859  -19.3227  -14.4904 N   0  0  0  0  0  0  0  0  0  0  0  0
   28.0640  -18.7547  -14.1881 C   0  0  0  0  0  0  0  0  0  0  0  0
   29.0371  -19.8749  -14.5618 C   0  0  0  0  0  0  0  0  0  0  0  0
   28.3059  -21.0816  -14.0044 C   0  0  0  0  0  0  0  0  0  0  0  0
   26.8662  -20.7412  -14.3592 C   0  0  1  0  0  0  0  0  0  0  0  0
   26.0071  -21.2891  -13.2818 C   0  0  0  0  0  0  0  0  0  0  0  0
   25.9405  -22.5214  -13.0317 O   0  0  0  0  0  0  0  0  0  0  0  0
   26.2963  -21.6972   -9.1960 C   0  0  0  0  0  0  0  0  0  0  0  0
   26.1224  -20.2479   -9.6915 C   0  0  2  0  0  0  0  0  0  0  0  0
   26.4512  -19.3436   -8.5229 C   0  0  0  0  0  0  0  0  0  0  0  0
   24.7335  -20.0364  -10.1932 C   0  0  0  0  0  0  0  0  0  0  0  0
   24.3655  -20.8209  -11.4237 C   0  0  2  0  0  0  0  0  0  0  0  0
   25.2421  -20.3627  -12.5203 N   0  0  0  0  0  0  0  0  0  0  0  0
   22.9756  -20.5062  -11.8208 C   0  0  0  0  0  0  0  0  0  0  0  0
   22.0468  -20.7217  -10.9912 O   0  0  0  0  0  0  0  0  0  0  0  0
   22.7089  -19.9740  -13.1114 N   0  0  0  0  0  0  0  0  0  0  0  0
   21.3521  -19.6821  -13.4874 C   0  0  0  0  0  0  0  0  0  0  0  0
   20.7979  -20.7554  -14.3862 C   0  0  0  0  0  0  0  0  0  0  0  0
   21.4319  -21.8072  -14.6477 O   0  0  0  0  0  0  0  0  0  0  0  0
   19.5442  -20.5918  -14.9533 O   0  0  0  0  0  0  0  0  0  0  0  0
  1  2  1  0
  3  2  1  0
  4  5  1  0
  4  3  1  0
  5  1  1  0
  5  6  1  1
  7  6  2  0
  9  8  1  1
  9 11  1  0
 10  9  1  0
 12 11  1  1
 12 13  1  0
 13  6  1  0
 14 15  2  0
 14 12  1  0
 16 14  1  0
 17 16  1  0
 17 18  1  0
 18 20  1  0
 19 18  2  0
M  END
$$$$
