PLG.pdb
     RDKit          3D

 20 20  0  0  1  0  0  0  0  0999 V2000
   28.1933  -21.0080  -14.1847 N   0  0  0  0  0  0  0  0  0  0  0  0
   27.7177  -20.6715  -15.4917 C   0  0  0  0  0  0  0  0  0  0  0  0
   27.4158  -19.1760  -15.3752 C   0  0  0  0  0  0  0  0  0  0  0  0
   26.7538  -19.1270  -14.0112 C   0  0  0  0  0  0  0  0  0  0  0  0
   27.6082  -20.1181  -13.2352 C   0  0  1  0  0  0  0  0  0  0  0  0
   26.7205  -20.7913  -12.2565 C   0  0  0  0  0  0  0  0  0  0  0  0
   26.3948  -22.0030  -12.3616 O   0  0  0  0  0  0  0  0  0  0  0  0
   27.2795  -21.4666   -7.7767 C   0  0  0  0  0  0  0  0  0  0  0  0
   27.0737  -20.0165   -8.2573 C   0  0  2  0  0  0  0  0  0  0  0  0
   27.3027  -19.1215   -7.0581 C   0  0  0  0  0  0  0  0  0  0  0  0
   25.7061  -19.8511   -8.8299 C   0  0  0  0  0  0  0  0  0  0  0  0
   25.4363  -20.6273  -10.0907 C   0  0  2  0  0  0  0  0  0  0  0  0
   26.2353  -20.0122  -11.1697 N   0  0  0  0  0  0  0  0  0  0  0  0
   24.0138  -20.4852  -10.4711 C   0  0  0  0  0  0  0  0  0  0  0  0
   23.1284  -20.8481   -9.6454 O   0  0  0  0  0  0  0  0  0  0  0  0
   23.6684  -19.9506  -11.7419 N   0  0  0  0  0  0  0  0  0  0  0  0
   22.2817  -19.7933  -12.0878 C   0  0  0  0  0  0  0  0  0  0  0  0
   21.7833  -20.9772  -12.8734 C   0  0  0  0  0  0  0  0  0  0  0  0
   22.4765  -22.0097  -13.0462 O   0  0  0  0  0  0  0  0  0  0  0  0
   20.5158  -20.9418  -13.4323 O   0  0  0  0  0  0  0  0  0  0  0  0
  1  2  1  0
  3  2  1  0
  4  5  1  0
  4  3  1  0
  5  1  1  0
  5  6  1  1
  7  6  2  0
  9  8  1  1
  9 11  1  0
 10  9  1  0
 12 11  1  1
 12 13  1  0
 13  6  1  0
 14 15  2  0
 14 12  1  0
 16 14  1  0
 17 16  1  0
 17 18  1  0
 18 20  1  0
 19 18  2  0
M  END
$$$$
