PLG.pdb
     RDKit          3D

 20 20  0  0  1  0  0  0  0  0999 V2000
   15.6254  -19.6572    3.9439 N   0  0  0  0  0  0  0  0  0  0  0  0
   16.0416  -19.4521    2.5903 C   0  0  0  0  0  0  0  0  0  0  0  0
   15.9765  -20.8589    1.9919 C   0  0  0  0  0  0  0  0  0  0  0  0
   16.5720  -21.6750    3.1237 C   0  0  0  0  0  0  0  0  0  0  0  0
   15.9573  -20.9888    4.3344 C   0  0  1  0  0  0  0  0  0  0  0  0
   16.9535  -21.0571    5.4307 C   0  0  0  0  0  0  0  0  0  0  0  0
   17.3808  -22.1497    5.8882 O   0  0  0  0  0  0  0  0  0  0  0  0
   20.9428  -21.3508    6.4606 C   0  0  0  0  0  0  0  0  0  0  0  0
   20.4311  -20.1026    5.7147 C   0  0  2  0  0  0  0  0  0  0  0  0
   21.6483  -19.3985    5.1540 C   0  0  0  0  0  0  0  0  0  0  0  0
   19.6532  -19.2297    6.6412 C   0  0  0  0  0  0  0  0  0  0  0  0
   18.3449  -19.7999    7.1189 C   0  0  2  0  0  0  0  0  0  0  0  0
   17.4245  -19.8255    5.9643 N   0  0  0  0  0  0  0  0  0  0  0  0
   17.7462  -18.9006    8.1295 C   0  0  0  0  0  0  0  0  0  0  0  0
   18.3414  -18.7523    9.2345 O   0  0  0  0  0  0  0  0  0  0  0  0
   16.5273  -18.2264    7.8471 N   0  0  0  0  0  0  0  0  0  0  0  0
   15.9583  -17.3532    8.8376 C   0  0  0  0  0  0  0  0  0  0  0  0
   15.9022  -15.9339    8.3382 C   0  0  0  0  0  0  0  0  0  0  0  0
   15.3529  -15.0125    8.9909 O   0  0  0  0  0  0  0  0  0  0  0  0
   16.4727  -15.6164    7.1159 O   0  0  0  0  0  0  0  0  0  0  0  0
  1  2  1  0
  3  2  1  0
  4  5  1  0
  4  3  1  0
  5  1  1  0
  5  6  1  1
  7  6  2  0
  9  8  1  1
  9 11  1  0
 10  9  1  0
 12 11  1  6
 12 13  1  0
 13  6  1  0
 14 15  2  0
 14 12  1  0
 16 14  1  0
 17 16  1  0
 17 18  1  0
 18 20  1  0
 19 18  2  0
M  END
$$$$
