PLG.pdb
     RDKit          3D

 20 20  0  0  1  0  0  0  0  0999 V2000
   28.0276  -21.1577  -13.9841 N   0  0  0  0  0  0  0  0  0  0  0  0
   27.3863  -20.7973  -15.2114 C   0  0  0  0  0  0  0  0  0  0  0  0
   27.1718  -19.2899  -15.0596 C   0  0  0  0  0  0  0  0  0  0  0  0
   26.7139  -19.2139  -13.6153 C   0  0  0  0  0  0  0  0  0  0  0  0
   27.6247  -20.2443  -12.9648 C   0  0  1  0  0  0  0  0  0  0  0  0
   26.8561  -20.8787  -11.8666 C   0  0  0  0  0  0  0  0  0  0  0  0
   26.5462  -22.0991  -11.8762 O   0  0  0  0  0  0  0  0  0  0  0  0
   27.7585  -21.1581   -7.3194 C   0  0  0  0  0  0  0  0  0  0  0  0
   27.4606  -19.7585   -7.8927 C   0  0  2  0  0  0  0  0  0  0  0  0
   27.6753  -18.7698   -6.7667 C   0  0  0  0  0  0  0  0  0  0  0  0
   26.0701  -19.7056   -8.4305 C   0  0  0  0  0  0  0  0  0  0  0  0
   25.7927  -20.6201   -9.5931 C   0  0  2  0  0  0  0  0  0  0  0  0
   26.4693  -20.0513  -10.7761 N   0  0  0  0  0  0  0  0  0  0  0  0
   24.3430  -20.6302   -9.8871 C   0  0  0  0  0  0  0  0  0  0  0  0
   23.5473  -21.0303   -8.9903 O   0  0  0  0  0  0  0  0  0  0  0  0
   23.8726  -20.1963  -11.1562 N   0  0  0  0  0  0  0  0  0  0  0  0
   22.4573  -20.1467  -11.4046 C   0  0  0  0  0  0  0  0  0  0  0  0
   22.1191  -20.7768  -12.7297 C   0  0  0  0  0  0  0  0  0  0  0  0
   22.8923  -21.5778  -13.3104 O   0  0  0  0  0  0  0  0  0  0  0  0
   20.9149  -20.4721  -13.3438 O   0  0  0  0  0  0  0  0  0  0  0  0
  1  2  1  0
  3  2  1  0
  4  5  1  0
  4  3  1  0
  5  1  1  0
  5  6  1  1
  7  6  2  0
  9  8  1  1
  9 11  1  0
 10  9  1  0
 12 11  1  1
 12 13  1  0
 13  6  1  0
 14 15  2  0
 14 12  1  0
 16 14  1  0
 17 16  1  0
 17 18  1  0
 18 20  1  0
 19 18  2  0
M  END
$$$$
