PLG.pdb
     RDKit          3D

 20 20  0  0  1  0  0  0  0  0999 V2000
   21.3455  -16.6153  -17.4761 N   0  0  0  0  0  0  0  0  0  0  0  0
   21.7178  -17.9964  -17.4374 C   0  0  0  0  0  0  0  0  0  0  0  0
   20.7984  -18.5720  -16.3581 C   0  0  0  0  0  0  0  0  0  0  0  0
   20.8664  -17.4735  -15.3141 C   0  0  0  0  0  0  0  0  0  0  0  0
   20.8512  -16.2323  -16.1936 C   0  0  1  0  0  0  0  0  0  0  0  0
   21.6807  -15.2053  -15.5181 C   0  0  0  0  0  0  0  0  0  0  0  0
   21.5464  -14.9236  -14.2982 O   0  0  0  0  0  0  0  0  0  0  0  0
   25.7982  -15.1607  -14.2849 C   0  0  0  0  0  0  0  0  0  0  0  0
   25.5009  -15.1337  -15.7972 C   0  0  2  0  0  0  0  0  0  0  0  0
   26.8037  -15.4398  -16.5046 C   0  0  0  0  0  0  0  0  0  0  0  0
   24.9452  -13.8064  -16.1909 C   0  0  0  0  0  0  0  0  0  0  0  0
   23.5501  -13.5208  -15.7042 C   0  0  2  0  0  0  0  0  0  0  0  0
   22.6555  -14.5309  -16.3045 N   0  0  0  0  0  0  0  0  0  0  0  0
   23.1069  -12.2001  -16.2018 C   0  0  0  0  0  0  0  0  0  0  0  0
   23.0526  -12.0121  -17.4505 O   0  0  0  0  0  0  0  0  0  0  0  0
   22.7539  -11.1762  -15.2815 N   0  0  0  0  0  0  0  0  0  0  0  0
   22.3436   -9.8912  -15.7791 C   0  0  0  0  0  0  0  0  0  0  0  0
   22.1983   -8.8984  -14.6564 C   0  0  0  0  0  0  0  0  0  0  0  0
   22.2244   -9.2405  -13.4485 O   0  0  0  0  0  0  0  0  0  0  0  0
   22.0287   -7.5548  -14.9499 O   0  0  0  0  0  0  0  0  0  0  0  0
  1  2  1  0
  3  2  1  0
  4  5  1  0
  4  3  1  0
  5  1  1  0
  5  6  1  1
  7  6  2  0
  9  8  1  1
  9 11  1  0
 10  9  1  0
 12 11  1  6
 12 13  1  0
 13  6  1  0
 14 15  2  0
 14 12  1  0
 16 14  1  0
 17 16  1  0
 17 18  1  0
 18 20  1  0
 19 18  2  0
M  END
$$$$
