PLG.pdb
     RDKit          3D

 20 20  0  0  1  0  0  0  0  0999 V2000
   28.4174  -20.4931  -15.3100 N   0  0  0  0  0  0  0  0  0  0  0  0
   27.8288  -20.1165  -16.5587 C   0  0  0  0  0  0  0  0  0  0  0  0
   27.4648  -18.6464  -16.3398 C   0  0  0  0  0  0  0  0  0  0  0  0
   26.9060  -18.7009  -14.9304 C   0  0  0  0  0  0  0  0  0  0  0  0
   27.8635  -19.6839  -14.2736 C   0  0  1  0  0  0  0  0  0  0  0  0
   27.0858  -20.4509  -13.2706 C   0  0  0  0  0  0  0  0  0  0  0  0
   26.8016  -21.6681  -13.4229 O   0  0  0  0  0  0  0  0  0  0  0  0
   26.1084  -19.3476   -7.3002 C   0  0  0  0  0  0  0  0  0  0  0  0
   25.8253  -20.3180   -8.4639 C   0  0  2  0  0  0  0  0  0  0  0  0
   26.3184  -21.6809   -8.0268 C   0  0  0  0  0  0  0  0  0  0  0  0
   26.5029  -19.8465   -9.7065 C   0  0  0  0  0  0  0  0  0  0  0  0
   26.0183  -20.4764  -10.9845 C   0  0  2  0  0  0  0  0  0  0  0  0
   26.6593  -19.7577  -12.1040 N   0  0  0  0  0  0  0  0  0  0  0  0
   24.5591  -20.2747  -11.1199 C   0  0  0  0  0  0  0  0  0  0  0  0
   24.1258  -19.1019  -11.3046 O   0  0  0  0  0  0  0  0  0  0  0  0
   23.6780  -21.3872  -11.0412 N   0  0  0  0  0  0  0  0  0  0  0  0
   22.2576  -21.1643  -11.0538 C   0  0  0  0  0  0  0  0  0  0  0  0
   21.6944  -21.3476  -12.4382 C   0  0  0  0  0  0  0  0  0  0  0  0
   22.4035  -21.7053  -13.4108 O   0  0  0  0  0  0  0  0  0  0  0  0
   20.3468  -21.1173  -12.6637 O   0  0  0  0  0  0  0  0  0  0  0  0
  1  2  1  0
  3  2  1  0
  4  5  1  0
  4  3  1  0
  5  1  1  0
  5  6  1  1
  7  6  2  0
  9  8  1  1
  9 11  1  0
 10  9  1  0
 12 11  1  1
 12 13  1  0
 13  6  1  0
 14 15  2  0
 14 12  1  0
 16 14  1  0
 17 16  1  0
 17 18  1  0
 18 20  1  0
 19 18  2  0
M  END
$$$$
