PLG.pdb
     RDKit          3D

 20 20  0  0  1  0  0  0  0  0999 V2000
   26.6126  -18.8369  -15.0496 N   0  0  0  0  0  0  0  0  0  0  0  0
   27.8987  -18.3616  -14.6403 C   0  0  0  0  0  0  0  0  0  0  0  0
   28.8574  -19.3784  -15.2637 C   0  0  0  0  0  0  0  0  0  0  0  0
   28.1177  -20.6728  -14.9827 C   0  0  0  0  0  0  0  0  0  0  0  0
   26.6791  -20.2495  -15.2389 C   0  0  1  0  0  0  0  0  0  0  0  0
   25.8223  -21.0168  -14.3028 C   0  0  0  0  0  0  0  0  0  0  0  0
   25.7751  -22.2751  -14.3070 O   0  0  0  0  0  0  0  0  0  0  0  0
   26.5397  -21.9227  -10.5977 C   0  0  0  0  0  0  0  0  0  0  0  0
   26.0545  -20.4648  -10.7212 C   0  0  2  0  0  0  0  0  0  0  0  0
   26.3860  -19.7811   -9.4119 C   0  0  0  0  0  0  0  0  0  0  0  0
   24.5933  -20.4301  -11.0199 C   0  0  0  0  0  0  0  0  0  0  0  0
   24.1984  -20.9589  -12.3724 C   0  0  2  0  0  0  0  0  0  0  0  0
   25.0363  -20.2749  -13.3779 N   0  0  0  0  0  0  0  0  0  0  0  0
   22.7936  -20.5960  -12.6611 C   0  0  0  0  0  0  0  0  0  0  0  0
   22.2426  -19.7042  -11.9551 O   0  0  0  0  0  0  0  0  0  0  0  0
   22.0938  -21.2468  -13.7131 N   0  0  0  0  0  0  0  0  0  0  0  0
   20.7060  -20.9411  -13.9319 C   0  0  0  0  0  0  0  0  0  0  0  0
   20.1611  -21.7135  -15.1039 C   0  0  0  0  0  0  0  0  0  0  0  0
   18.9466  -21.6858  -15.4216 O   0  0  0  0  0  0  0  0  0  0  0  0
   21.0178  -22.4879  -15.8699 O   0  0  0  0  0  0  0  0  0  0  0  0
  1  2  1  0
  3  2  1  0
  4  5  1  0
  4  3  1  0
  5  1  1  0
  5  6  1  1
  7  6  2  0
  9  8  1  1
  9 11  1  0
 10  9  1  0
 12 11  1  1
 12 13  1  0
 13  6  1  0
 14 15  2  0
 14 12  1  0
 16 14  1  0
 17 16  1  0
 17 18  1  0
 18 20  1  0
 19 18  2  0
M  END
$$$$
