TFM.pdb
     RDKit          3D

 27 27  0  0  1  0  0  0  0  0999 V2000
   25.4910  -19.4016  -17.1067 C   0  0  0  0  0  0  0  0  0  0  0  0
   26.0704  -20.6509  -17.7198 C   0  0  1  0  0  0  0  0  0  0  0  0
   26.6514  -20.2219  -18.9395 O   0  0  0  0  0  0  0  0  0  0  0  0
   27.1402  -21.2719  -16.8429 C   0  0  2  0  0  0  0  0  0  0  0  0
   27.4304  -22.5694  -17.4727 N   0  0  0  0  0  0  0  0  0  0  0  0
   26.5786  -21.5876  -15.5044 C   0  0  0  0  0  0  0  0  0  0  0  0
   25.7552  -22.5599  -15.3575 O   0  0  0  0  0  0  0  0  0  0  0  0
   26.8821  -20.8828  -14.3172 N   0  0  0  0  0  0  0  0  0  0  0  0
   26.1626  -21.0811  -13.0587 C   0  0  1  0  0  0  0  0  0  0  0  0
   27.0075  -20.6039  -11.9182 C   0  0  0  0  0  0  0  0  0  0  0  0
   26.3719  -20.6064  -10.6131 C   0  0  0  0  0  0  0  0  0  0  0  0
   26.0034  -19.4375   -9.9992 C   0  0  0  0  0  0  0  0  0  0  0  0
   25.4019  -19.4302   -8.7591 C   0  0  0  0  0  0  0  0  0  0  0  0
   25.1450  -20.6031   -8.0824 C   0  0  0  0  0  0  0  0  0  0  0  0
   25.5102  -21.7861   -8.6876 C   0  0  0  0  0  0  0  0  0  0  0  0
   26.1207  -21.7782   -9.9480 C   0  0  0  0  0  0  0  0  0  0  0  0
   24.8013  -20.5578  -13.1062 C   0  0  0  0  0  0  0  0  0  0  0  0
   24.5175  -19.3665  -13.4602 O   0  0  0  0  0  0  0  0  0  0  0  0
   20.5736  -22.8108  -16.4640 C   0  0  0  0  0  0  0  0  0  0  0  0
   19.3214  -22.3054  -15.2549 S   0  0  0  0  0  0  0  0  0  0  0  0
   20.1093  -21.2445  -13.9797 C   0  0  0  0  0  0  0  0  0  0  0  0
   21.5314  -21.6760  -13.8313 C   0  0  0  0  0  0  0  0  0  0  0  0
   22.3188  -20.8625  -12.8106 C   0  0  2  0  0  0  0  0  0  0  0  0
   23.6817  -21.3670  -12.7542 N   0  0  0  0  0  0  0  0  0  0  0  0
   21.6817  -20.8000  -11.4929 C   0  0  0  0  0  0  0  0  0  0  0  0
   20.7464  -19.8614  -11.1165 O   0  0  0  0  0  0  0  0  0  0  0  0
   22.0377  -21.6935  -10.6473 O   0  0  0  0  0  0  0  0  0  0  0  0
  2  1  1  1
  2  3  1  0
  4  2  1  0
  4  6  1  0
  4  5  1  6
  6  7  2  0
  8  9  1  0
  8  6  1  0
  9 17  1  0
  9 10  1  1
 11 10  1  0
 11 16  2  0
 12 11  1  0
 13 12  2  0
 13 14  1  0
 14 15  2  0
 15 16  1  0
 17 18  2  0
 20 19  1  0
 20 21  1  0
 21 22  1  0
 23 22  1  6
 23 25  1  0
 24 17  1  0
 24 23  1  0
 25 27  2  0
 25 26  1  0
M  END
$$$$
