TFM.pdb
     RDKit          3D

 27 27  0  0  1  0  0  0  0  0999 V2000
   21.5914   -8.3288  -21.8207 C   0  0  0  0  0  0  0  0  0  0  0  0
   20.8172   -9.6163  -21.6979 C   0  0  1  0  0  0  0  0  0  0  0  0
   21.1269  -10.3410  -22.8760 O   0  0  0  0  0  0  0  0  0  0  0  0
   21.2405  -10.4216  -20.4848 C   0  0  2  0  0  0  0  0  0  0  0  0
   20.3668  -11.6051  -20.5006 N   0  0  0  0  0  0  0  0  0  0  0  0
   20.9002   -9.6830  -19.2418 C   0  0  0  0  0  0  0  0  0  0  0  0
   19.6924   -9.6564  -18.8112 O   0  0  0  0  0  0  0  0  0  0  0  0
   21.8288   -8.9718  -18.4479 N   0  0  0  0  0  0  0  0  0  0  0  0
   21.4432   -8.1597  -17.2936 C   0  0  1  0  0  0  0  0  0  0  0  0
   22.4307   -8.3623  -16.1863 C   0  0  0  0  0  0  0  0  0  0  0  0
   22.2306   -7.5488  -15.0008 C   0  0  0  0  0  0  0  0  0  0  0  0
   22.6310   -6.2384  -14.9614 C   0  0  0  0  0  0  0  0  0  0  0  0
   22.4475   -5.4594  -13.8393 C   0  0  0  0  0  0  0  0  0  0  0  0
   21.8511   -5.9682  -12.7057 C   0  0  0  0  0  0  0  0  0  0  0  0
   21.4435   -7.2844  -12.7309 C   0  0  0  0  0  0  0  0  0  0  0  0
   21.6365   -8.0640  -13.8782 C   0  0  0  0  0  0  0  0  0  0  0  0
   21.1660   -6.7733  -17.6548 C   0  0  0  0  0  0  0  0  0  0  0  0
   21.9574   -6.0557  -18.3503 O   0  0  0  0  0  0  0  0  0  0  0  0
   15.3500   -4.6020  -19.3023 C   0  0  0  0  0  0  0  0  0  0  0  0
   16.5632   -3.3808  -19.8699 S   0  0  0  0  0  0  0  0  0  0  0  0
   17.9238   -3.2681  -18.6418 C   0  0  0  0  0  0  0  0  0  0  0  0
   18.3316   -4.6566  -18.2725 C   0  0  0  0  0  0  0  0  0  0  0  0
   19.6862   -4.7368  -17.5779 C   0  0  2  0  0  0  0  0  0  0  0  0
   19.9647   -6.1247  -17.2443 N   0  0  0  0  0  0  0  0  0  0  0  0
   19.8084   -3.8404  -16.4257 C   0  0  0  0  0  0  0  0  0  0  0  0
   20.2005   -2.5217  -16.4946 O   0  0  0  0  0  0  0  0  0  0  0  0
   19.5254   -4.3435  -15.2825 O   0  0  0  0  0  0  0  0  0  0  0  0
  2  1  1  6
  2  3  1  0
  4  2  1  0
  4  6  1  0
  4  5  1  1
  6  7  2  0
  8  9  1  0
  8  6  1  0
  9 17  1  0
  9 10  1  1
 11 10  1  0
 11 16  2  0
 12 11  1  0
 13 12  2  0
 13 14  1  0
 14 15  2  0
 15 16  1  0
 17 18  2  0
 20 19  1  0
 20 21  1  0
 21 22  1  0
 23 22  1  1
 23 25  1  0
 24 17  1  0
 24 23  1  0
 25 27  2  0
 25 26  1  0
M  END
$$$$
