TFM.pdb
     RDKit          3D

 27 27  0  0  1  0  0  0  0  0999 V2000
   14.2582  -25.6510   -6.7166 C   0  0  0  0  0  0  0  0  0  0  0  0
   14.5562  -25.5286   -5.2440 C   0  0  1  0  0  0  0  0  0  0  0  0
   14.9009  -26.8403   -4.8321 O   0  0  0  0  0  0  0  0  0  0  0  0
   15.7191  -24.5936   -4.9744 C   0  0  2  0  0  0  0  0  0  0  0  0
   16.9122  -25.3633   -5.3596 N   0  0  0  0  0  0  0  0  0  0  0  0
   15.8470  -24.3510   -3.5145 C   0  0  0  0  0  0  0  0  0  0  0  0
   16.6970  -25.0118   -2.8176 O   0  0  0  0  0  0  0  0  0  0  0  0
   15.0826  -23.4125   -2.7842 N   0  0  0  0  0  0  0  0  0  0  0  0
   15.2274  -23.2059   -1.3430 C   0  0  1  0  0  0  0  0  0  0  0  0
   14.6972  -21.8546   -0.9751 C   0  0  0  0  0  0  0  0  0  0  0  0
   14.7263  -21.5248    0.4383 C   0  0  0  0  0  0  0  0  0  0  0  0
   13.5754  -21.4770    1.1814 C   0  0  0  0  0  0  0  0  0  0  0  0
   13.5932  -21.1622    2.5231 C   0  0  0  0  0  0  0  0  0  0  0  0
   14.7743  -20.8813    3.1757 C   0  0  0  0  0  0  0  0  0  0  0  0
   15.9395  -20.9255    2.4411 C   0  0  0  0  0  0  0  0  0  0  0  0
   15.9060  -21.2469    1.0784 C   0  0  0  0  0  0  0  0  0  0  0  0
   14.7111  -24.3269   -0.5644 C   0  0  0  0  0  0  0  0  0  0  0  0
   13.6554  -24.9711   -0.8732 O   0  0  0  0  0  0  0  0  0  0  0  0
   18.2462  -28.6755    1.6611 C   0  0  0  0  0  0  0  0  0  0  0  0
   16.7159  -29.4250    2.2789 S   0  0  0  0  0  0  0  0  0  0  0  0
   15.3970  -28.1481    2.3276 C   0  0  0  0  0  0  0  0  0  0  0  0
   15.8412  -26.9904    1.4951 C   0  0  0  0  0  0  0  0  0  0  0  0
   14.8322  -25.8492    1.4384 C   0  0  2  0  0  0  0  0  0  0  0  0
   15.3735  -24.7804    0.6137 N   0  0  0  0  0  0  0  0  0  0  0  0
   14.3983  -25.3838    2.7579 C   0  0  0  0  0  0  0  0  0  0  0  0
   14.9040  -24.2787    3.4065 O   0  0  0  0  0  0  0  0  0  0  0  0
   13.4816  -26.0718    3.3293 O   0  0  0  0  0  0  0  0  0  0  0  0
  2  1  1  6
  2  3  1  0
  4  2  1  0
  4  6  1  0
  4  5  1  1
  6  7  2  0
  8  9  1  0
  8  6  1  0
  9 17  1  0
  9 10  1  1
 11 10  1  0
 11 16  2  0
 12 11  1  0
 13 12  2  0
 13 14  1  0
 14 15  2  0
 15 16  1  0
 17 18  2  0
 20 19  1  0
 20 21  1  0
 21 22  1  0
 23 22  1  1
 23 25  1  0
 24 17  1  0
 24 23  1  0
 25 27  2  0
 25 26  1  0
M  END
$$$$
