TFM.pdb
     RDKit          3D

 27 27  0  0  1  0  0  0  0  0999 V2000
   26.3914  -24.4141  -16.0806 C   0  0  0  0  0  0  0  0  0  0  0  0
   27.1098  -23.5153  -17.0543 C   0  0  1  0  0  0  0  0  0  0  0  0
   27.4271  -24.3506  -18.1546 O   0  0  0  0  0  0  0  0  0  0  0  0
   26.2333  -22.3714  -17.5262 C   0  0  2  0  0  0  0  0  0  0  0  0
   27.1361  -21.5066  -18.3018 N   0  0  0  0  0  0  0  0  0  0  0  0
   25.7919  -21.5580  -16.3642 C   0  0  0  0  0  0  0  0  0  0  0  0
   26.5996  -20.7357  -15.8017 O   0  0  0  0  0  0  0  0  0  0  0  0
   24.5003  -21.6063  -15.7918 N   0  0  0  0  0  0  0  0  0  0  0  0
   24.0872  -20.7643  -14.6688 C   0  0  1  0  0  0  0  0  0  0  0  0
   22.6311  -20.4389  -14.7959 C   0  0  0  0  0  0  0  0  0  0  0  0
   22.0294  -19.7665  -13.6586 C   0  0  0  0  0  0  0  0  0  0  0  0
   21.5705  -20.4718  -12.5766 C   0  0  0  0  0  0  0  0  0  0  0  0
   20.9955  -19.8422  -11.4937 C   0  0  0  0  0  0  0  0  0  0  0  0
   20.8578  -18.4713  -11.4543 C   0  0  0  0  0  0  0  0  0  0  0  0
   21.3148  -17.7492  -12.5354 C   0  0  0  0  0  0  0  0  0  0  0  0
   21.8969  -18.4027  -13.6288 C   0  0  0  0  0  0  0  0  0  0  0  0
   24.5093  -21.3058  -13.3811 C   0  0  0  0  0  0  0  0  0  0  0  0
   24.1651  -22.4568  -12.9549 O   0  0  0  0  0  0  0  0  0  0  0  0
   30.2672  -21.6409  -10.6779 C   0  0  0  0  0  0  0  0  0  0  0  0
   29.3863  -20.7500   -9.3681 S   0  0  0  0  0  0  0  0  0  0  0  0
   27.5889  -21.1006   -9.5053 C   0  0  0  0  0  0  0  0  0  0  0  0
   27.1371  -20.6815  -10.8657 C   0  0  0  0  0  0  0  0  0  0  0  0
   25.6871  -21.0397  -11.1709 C   0  0  2  0  0  0  0  0  0  0  0  0
   25.3534  -20.5638  -12.5041 N   0  0  0  0  0  0  0  0  0  0  0  0
   24.7420  -20.5794  -10.1507 C   0  0  0  0  0  0  0  0  0  0  0  0
   24.3894  -21.2939   -9.0271 O   0  0  0  0  0  0  0  0  0  0  0  0
   24.2187  -19.4260  -10.3408 O   0  0  0  0  0  0  0  0  0  0  0  0
  2  1  1  1
  2  3  1  0
  4  2  1  0
  4  6  1  0
  4  5  1  6
  6  7  2  0
  8  9  1  0
  8  6  1  0
  9 17  1  0
  9 10  1  1
 11 10  1  0
 11 16  2  0
 12 11  1  0
 13 12  2  0
 13 14  1  0
 14 15  2  0
 15 16  1  0
 17 18  2  0
 20 19  1  0
 20 21  1  0
 21 22  1  0
 23 22  1  1
 23 25  1  0
 24 17  1  0
 24 23  1  0
 25 27  2  0
 25 26  1  0
M  END
$$$$
