TFM.pdb
     RDKit          3D

 27 27  0  0  1  0  0  0  0  0999 V2000
   11.6994  -16.8668    6.2853 C   0  0  0  0  0  0  0  0  0  0  0  0
   13.1033  -17.1669    5.8258 C   0  0  1  0  0  0  0  0  0  0  0  0
   13.4782  -18.3332    6.5387 O   0  0  0  0  0  0  0  0  0  0  0  0
   13.1676  -17.4441    4.3364 C   0  0  2  0  0  0  0  0  0  0  0  0
   12.3991  -18.6855    4.1555 N   0  0  0  0  0  0  0  0  0  0  0  0
   14.5620  -17.7692    3.9407 C   0  0  0  0  0  0  0  0  0  0  0  0
   14.9567  -18.9886    3.8926 O   0  0  0  0  0  0  0  0  0  0  0  0
   15.5441  -16.8136    3.5937 N   0  0  0  0  0  0  0  0  0  0  0  0
   16.9258  -17.1646    3.2644 C   0  0  1  0  0  0  0  0  0  0  0  0
   17.4047  -16.3071    2.1341 C   0  0  0  0  0  0  0  0  0  0  0  0
   18.8051  -16.4489    1.7790 C   0  0  0  0  0  0  0  0  0  0  0  0
   19.2661  -17.5686    1.1365 C   0  0  0  0  0  0  0  0  0  0  0  0
   20.5943  -17.7129    0.7979 C   0  0  0  0  0  0  0  0  0  0  0  0
   21.5176  -16.7329    1.0926 C   0  0  0  0  0  0  0  0  0  0  0  0
   21.0683  -15.6015    1.7385 C   0  0  0  0  0  0  0  0  0  0  0  0
   19.7157  -15.4687    2.0764 C   0  0  0  0  0  0  0  0  0  0  0  0
   17.7864  -17.2059    4.4422 C   0  0  0  0  0  0  0  0  0  0  0  0
   17.7570  -16.3282    5.3662 O   0  0  0  0  0  0  0  0  0  0  0  0
   19.2999  -18.8685   11.2491 C   0  0  0  0  0  0  0  0  0  0  0  0
   18.3621  -18.8807    9.6981 S   0  0  0  0  0  0  0  0  0  0  0  0
   19.5323  -18.7851    8.2861 C   0  0  0  0  0  0  0  0  0  0  0  0
   18.7404  -18.5455    7.0427 C   0  0  0  0  0  0  0  0  0  0  0  0
   19.5959  -18.3084    5.8035 C   0  0  2  0  0  0  0  0  0  0  0  0
   18.7311  -18.2559    4.6353 N   0  0  0  0  0  0  0  0  0  0  0  0
   20.6925  -19.2684    5.6553 C   0  0  0  0  0  0  0  0  0  0  0  0
   21.7706  -19.3670    6.5071 O   0  0  0  0  0  0  0  0  0  0  0  0
   20.6207  -20.0619    4.6526 O   0  0  0  0  0  0  0  0  0  0  0  0
  2  1  1  1
  2  3  1  0
  4  2  1  0
  4  6  1  0
  4  5  1  1
  6  7  2  0
  8  9  1  0
  8  6  1  0
  9 17  1  0
  9 10  1  6
 11 10  1  0
 11 16  2  0
 12 11  1  0
 13 12  2  0
 13 14  1  0
 14 15  2  0
 15 16  1  0
 17 18  2  0
 20 19  1  0
 20 21  1  0
 21 22  1  0
 23 22  1  1
 23 25  1  0
 24 17  1  0
 24 23  1  0
 25 27  2  0
 25 26  1  0
M  END
$$$$
