TFM.pdb
     RDKit          3D

 27 27  0  0  1  0  0  0  0  0999 V2000
   28.1597  -20.1148  -17.5439 C   0  0  0  0  0  0  0  0  0  0  0  0
   27.0675  -20.5110  -16.5836 C   0  0  1  0  0  0  0  0  0  0  0  0
   26.3898  -21.5788  -17.2236 O   0  0  0  0  0  0  0  0  0  0  0  0
   27.6227  -20.9897  -15.2562 C   0  0  2  0  0  0  0  0  0  0  0  0
   28.1749  -22.3228  -15.5432 N   0  0  0  0  0  0  0  0  0  0  0  0
   26.5140  -21.2091  -14.2922 C   0  0  0  0  0  0  0  0  0  0  0  0
   25.9802  -22.3687  -14.1680 O   0  0  0  0  0  0  0  0  0  0  0  0
   25.9649  -20.2105  -13.4558 N   0  0  0  0  0  0  0  0  0  0  0  0
   24.8223  -20.4420  -12.5717 C   0  0  1  0  0  0  0  0  0  0  0  0
   24.8693  -19.4752  -11.4291 C   0  0  0  0  0  0  0  0  0  0  0  0
   25.4677  -19.9706  -10.2028 C   0  0  0  0  0  0  0  0  0  0  0  0
   26.0759  -19.1218   -9.3147 C   0  0  0  0  0  0  0  0  0  0  0  0
   26.6489  -19.5836   -8.1494 C   0  0  0  0  0  0  0  0  0  0  0  0
   26.6337  -20.9237   -7.8276 C   0  0  0  0  0  0  0  0  0  0  0  0
   26.0256  -21.7888   -8.7113 C   0  0  0  0  0  0  0  0  0  0  0  0
   25.4475  -21.3052   -9.8916 C   0  0  0  0  0  0  0  0  0  0  0  0
   23.5589  -20.5085  -13.2989 C   0  0  0  0  0  0  0  0  0  0  0  0
   23.2167  -19.6669  -14.1931 O   0  0  0  0  0  0  0  0  0  0  0  0
   20.9835  -25.9206  -14.8625 C   0  0  0  0  0  0  0  0  0  0  0  0
   19.3947  -25.0496  -14.9099 S   0  0  0  0  0  0  0  0  0  0  0  0
   19.6912  -23.2461  -14.7321 C   0  0  0  0  0  0  0  0  0  0  0  0
   20.9255  -23.0575  -13.9127 C   0  0  0  0  0  0  0  0  0  0  0  0
   21.3311  -21.5986  -13.7363 C   0  0  2  0  0  0  0  0  0  0  0  0
   22.6116  -21.5440  -13.0489 N   0  0  0  0  0  0  0  0  0  0  0  0
   20.3041  -20.7784  -13.0895 C   0  0  0  0  0  0  0  0  0  0  0  0
   20.2298  -20.5363  -11.7355 O   0  0  0  0  0  0  0  0  0  0  0  0
   19.4222  -20.2607  -13.8606 O   0  0  0  0  0  0  0  0  0  0  0  0
  2  1  1  6
  2  3  1  0
  4  2  1  0
  4  6  1  0
  4  5  1  6
  6  7  2  0
  8  9  1  0
  8  6  1  0
  9 17  1  0
  9 10  1  1
 11 10  1  0
 11 16  2  0
 12 11  1  0
 13 12  2  0
 13 14  1  0
 14 15  2  0
 15 16  1  0
 17 18  2  0
 20 19  1  0
 20 21  1  0
 21 22  1  0
 23 22  1  1
 23 25  1  0
 24 17  1  0
 24 23  1  0
 25 27  2  0
 25 26  1  0
M  END
$$$$
