TFM.pdb
     RDKit          3D

 27 27  0  0  1  0  0  0  0  0999 V2000
   20.2005  -12.4825  -16.9642 C   0  0  0  0  0  0  0  0  0  0  0  0
   21.5679  -12.6665  -16.3571 C   0  0  1  0  0  0  0  0  0  0  0  0
   21.8809  -14.0321  -16.5721 O   0  0  0  0  0  0  0  0  0  0  0  0
   22.6117  -11.7978  -17.0317 C   0  0  2  0  0  0  0  0  0  0  0  0
   23.8598  -12.0863  -16.3082 N   0  0  0  0  0  0  0  0  0  0  0  0
   22.3186  -10.3637  -16.7787 C   0  0  0  0  0  0  0  0  0  0  0  0
   22.6944   -9.8062  -15.6864 O   0  0  0  0  0  0  0  0  0  0  0  0
   21.6312   -9.5123  -17.6735 N   0  0  0  0  0  0  0  0  0  0  0  0
   21.3750   -8.0979  -17.4002 C   0  0  1  0  0  0  0  0  0  0  0  0
   21.4369   -7.3215  -18.6792 C   0  0  0  0  0  0  0  0  0  0  0  0
   20.3371   -7.5318  -19.6031 C   0  0  0  0  0  0  0  0  0  0  0  0
   19.2314   -6.7218  -19.5888 C   0  0  0  0  0  0  0  0  0  0  0  0
   18.1814   -6.9156  -20.4604 C   0  0  0  0  0  0  0  0  0  0  0  0
   18.2004   -7.9363  -21.3864 C   0  0  0  0  0  0  0  0  0  0  0  0
   19.3058   -8.7588  -21.4122 C   0  0  0  0  0  0  0  0  0  0  0  0
   20.3652   -8.5498  -20.5204 C   0  0  0  0  0  0  0  0  0  0  0  0
   20.1798   -7.8944  -16.5881 C   0  0  0  0  0  0  0  0  0  0  0  0
   19.1295   -8.6095  -16.6905 O   0  0  0  0  0  0  0  0  0  0  0  0
   18.6559   -7.3221   -9.7483 C   0  0  0  0  0  0  0  0  0  0  0  0
   18.1366   -8.3635  -11.1379 S   0  0  0  0  0  0  0  0  0  0  0  0
   17.8551   -7.3046  -12.6116 C   0  0  0  0  0  0  0  0  0  0  0  0
   19.0271   -7.4589  -13.5244 C   0  0  0  0  0  0  0  0  0  0  0  0
   18.9241   -6.6366  -14.8038 C   0  0  2  0  0  0  0  0  0  0  0  0
   20.1152   -6.8618  -15.6074 N   0  0  0  0  0  0  0  0  0  0  0  0
   18.6589   -5.2153  -14.5678 C   0  0  0  0  0  0  0  0  0  0  0  0
   17.4058   -4.6663  -14.4070 O   0  0  0  0  0  0  0  0  0  0  0  0
   19.6830   -4.4484  -14.5119 O   0  0  0  0  0  0  0  0  0  0  0  0
  2  1  1  6
  2  3  1  0
  4  2  1  0
  4  6  1  0
  4  5  1  1
  6  7  2  0
  8  9  1  0
  8  6  1  0
  9 17  1  0
  9 10  1  6
 11 10  1  0
 11 16  2  0
 12 11  1  0
 13 12  2  0
 13 14  1  0
 14 15  2  0
 15 16  1  0
 17 18  2  0
 20 19  1  0
 20 21  1  0
 21 22  1  0
 23 22  1  1
 23 25  1  0
 24 17  1  0
 24 23  1  0
 25 27  2  0
 25 26  1  0
M  END
$$$$
