TFM.pdb
     RDKit          3D

 27 27  0  0  1  0  0  0  0  0999 V2000
   20.2599  -11.5793  -19.8786 C   0  0  0  0  0  0  0  0  0  0  0  0
   20.6864  -10.9333  -18.5851 C   0  0  1  0  0  0  0  0  0  0  0  0
   19.9802  -11.6363  -17.5771 O   0  0  0  0  0  0  0  0  0  0  0  0
   22.1773  -11.0702  -18.3450 C   0  0  2  0  0  0  0  0  0  0  0  0
   22.3707  -12.4888  -18.0062 N   0  0  0  0  0  0  0  0  0  0  0  0
   22.5678  -10.3069  -17.1320 C   0  0  0  0  0  0  0  0  0  0  0  0
   22.4714  -10.8397  -15.9693 O   0  0  0  0  0  0  0  0  0  0  0  0
   23.0618   -8.9824  -17.1385 N   0  0  0  0  0  0  0  0  0  0  0  0
   23.3953   -8.2433  -15.9206 C   0  0  1  0  0  0  0  0  0  0  0  0
   24.8279   -7.8105  -15.9740 C   0  0  0  0  0  0  0  0  0  0  0  0
   25.8089   -8.8750  -16.0825 C   0  0  0  0  0  0  0  0  0  0  0  0
   26.4578   -9.1266  -17.2634 C   0  0  0  0  0  0  0  0  0  0  0  0
   27.3886  -10.1368  -17.3763 C   0  0  0  0  0  0  0  0  0  0  0  0
   27.7066  -10.9390  -16.3016 C   0  0  0  0  0  0  0  0  0  0  0  0
   27.0619  -10.6976  -15.1078 C   0  0  0  0  0  0  0  0  0  0  0  0
   26.1183   -9.6676  -15.0079 C   0  0  0  0  0  0  0  0  0  0  0  0
   22.4240   -7.1966  -15.6199 C   0  0  0  0  0  0  0  0  0  0  0  0
   21.8412   -6.4997  -16.5140 O   0  0  0  0  0  0  0  0  0  0  0  0
   19.6040   -5.7162   -9.3748 C   0  0  0  0  0  0  0  0  0  0  0  0
   18.4749   -5.8262  -10.7884 S   0  0  0  0  0  0  0  0  0  0  0  0
   19.3257   -5.1964  -12.2890 C   0  0  0  0  0  0  0  0  0  0  0  0
   20.3036   -6.2325  -12.7370 C   0  0  0  0  0  0  0  0  0  0  0  0
   21.1145   -5.8256  -13.9620 C   0  0  2  0  0  0  0  0  0  0  0  0
   22.0585   -6.8861  -14.2774 N   0  0  0  0  0  0  0  0  0  0  0  0
   21.7557   -4.5149  -13.8321 C   0  0  0  0  0  0  0  0  0  0  0  0
   23.0147   -4.3042  -13.3146 O   0  0  0  0  0  0  0  0  0  0  0  0
   21.0752   -3.5076  -14.2353 O   0  0  0  0  0  0  0  0  0  0  0  0
  2  1  1  6
  2  3  1  0
  4  2  1  0
  4  6  1  0
  4  5  1  1
  6  7  2  0
  8  9  1  0
  8  6  1  0
  9 17  1  0
  9 10  1  6
 11 10  1  0
 11 16  2  0
 12 11  1  0
 13 12  2  0
 13 14  1  0
 14 15  2  0
 15 16  1  0
 17 18  2  0
 20 19  1  0
 20 21  1  0
 21 22  1  0
 23 22  1  1
 23 25  1  0
 24 17  1  0
 24 23  1  0
 25 27  2  0
 25 26  1  0
M  END
$$$$
