SAN.pdb
     RDKit          3D

 20 19  0  0  1  0  0  0  0  0999 V2000
   27.0389  -17.6819  -14.8440 O   0  0  0  0  0  0  0  0  0  0  0  0
   26.9681  -16.3049  -15.1563 C   0  0  0  0  0  0  0  0  0  0  0  0
   25.5359  -15.9378  -15.5575 C   0  0  2  0  0  0  0  0  0  0  0  0
   25.1557  -16.9194  -16.5642 N   0  0  0  0  0  0  0  0  0  0  0  0
   25.5926  -14.5743  -16.1159 C   0  0  0  0  0  0  0  0  0  0  0  0
   25.9199  -13.6151  -15.3408 O   0  0  0  0  0  0  0  0  0  0  0  0
   25.8668  -12.7341  -19.2198 C   0  0  0  0  0  0  0  0  0  0  0  0
   25.2015  -12.8456  -17.8665 C   0  0  2  0  0  0  0  0  0  0  0  0
   25.3118  -14.2245  -17.4575 N   0  0  0  0  0  0  0  0  0  0  0  0
   23.8073  -12.3682  -17.8976 C   0  0  0  0  0  0  0  0  0  0  0  0
   23.5001  -11.2015  -18.3154 O   0  0  0  0  0  0  0  0  0  0  0  0
   18.1068  -14.7259  -17.0103 N   0  0  0  0  0  0  0  0  0  0  0  0
   19.0313  -13.6601  -17.1550 C   0  0  0  0  0  0  0  0  0  0  0  0
   18.5860  -12.5019  -17.0796 O   0  0  0  0  0  0  0  0  0  0  0  0
   20.4443  -13.9396  -17.3828 C   0  0  0  0  0  0  0  0  0  0  0  0
   21.3459  -12.7452  -17.4125 C   0  0  2  0  0  0  0  0  0  0  0  0
   22.7589  -13.2034  -17.4588 N   0  0  0  0  0  0  0  0  0  0  0  0
   21.1824  -11.8320  -16.2595 C   0  0  0  0  0  0  0  0  0  0  0  0
   21.6731  -12.1925  -15.1503 O   0  0  0  0  0  0  0  0  0  0  0  0
   20.5476  -10.6437  -16.3126 O   0  0  0  0  0  0  0  0  0  0  0  0
  2  1  1  0
  3  5  1  0
  3  2  1  0
  3  4  1  6
  5  6  2  0
  8  7  1  6
  9  8  1  0
  9  5  1  0
 10 11  2  0
 10  8  1  0
 12 13  1  0
 13 15  1  0
 13 14  2  0
 16 15  1  1
 16 17  1  0
 16 18  1  0
 17 10  1  0
 18 20  1  0
 19 18  2  0
M  END
$$$$
