SAN.pdb
     RDKit          3D

 20 19  0  0  1  0  0  0  0  0999 V2000
   21.9243   -9.3577  -16.8258 O   0  0  0  0  0  0  0  0  0  0  0  0
   20.7515  -10.1454  -16.7718 C   0  0  0  0  0  0  0  0  0  0  0  0
   19.8195   -9.7665  -17.9270 C   0  0  2  0  0  0  0  0  0  0  0  0
   20.6346   -9.8753  -19.1293 N   0  0  0  0  0  0  0  0  0  0  0  0
   19.3889   -8.3779  -17.6810 C   0  0  0  0  0  0  0  0  0  0  0  0
   19.7302   -7.4798  -18.5205 O   0  0  0  0  0  0  0  0  0  0  0  0
   16.9578   -6.5621  -15.5893 C   0  0  0  0  0  0  0  0  0  0  0  0
   18.1989   -6.5663  -16.4529 C   0  0  2  0  0  0  0  0  0  0  0  0
   18.6177   -7.9410  -16.5785 N   0  0  0  0  0  0  0  0  0  0  0  0
   19.2539   -5.6950  -15.9047 C   0  0  0  0  0  0  0  0  0  0  0  0
   19.0432   -4.4655  -15.6324 O   0  0  0  0  0  0  0  0  0  0  0  0
   21.1179   -8.0534  -12.4836 N   0  0  0  0  0  0  0  0  0  0  0  0
   21.3955   -6.6911  -12.7642 C   0  0  0  0  0  0  0  0  0  0  0  0
   20.9079   -5.8388  -12.0017 O   0  0  0  0  0  0  0  0  0  0  0  0
   22.2234   -6.3312  -13.9094 C   0  0  0  0  0  0  0  0  0  0  0  0
   21.5782   -5.4369  -14.9215 C   0  0  2  0  0  0  0  0  0  0  0  0
   20.5456   -6.2069  -15.6629 N   0  0  0  0  0  0  0  0  0  0  0  0
   22.5200   -4.8464  -15.8984 C   0  0  0  0  0  0  0  0  0  0  0  0
   22.6174   -5.4027  -17.0307 O   0  0  0  0  0  0  0  0  0  0  0  0
   23.2787   -3.7570  -15.6630 O   0  0  0  0  0  0  0  0  0  0  0  0
  2  1  1  0
  3  5  1  0
  3  2  1  0
  3  4  1  6
  5  6  2  0
  8  7  1  1
  9  8  1  0
  9  5  1  0
 10 11  2  0
 10  8  1  0
 12 13  1  0
 13 15  1  0
 13 14  2  0
 16 15  1  1
 16 17  1  0
 16 18  1  0
 17 10  1  0
 18 20  1  0
 19 18  2  0
M  END
$$$$
