SAN.pdb
     RDKit          3D

 20 19  0  0  1  0  0  0  0  0999 V2000
   17.1830  -12.8841  -13.7940 O   0  0  0  0  0  0  0  0  0  0  0  0
   17.6728  -11.6469  -14.2718 C   0  0  0  0  0  0  0  0  0  0  0  0
   17.3094  -11.4824  -15.7509 C   0  0  2  0  0  0  0  0  0  0  0  0
   18.1013  -12.4824  -16.4542 N   0  0  0  0  0  0  0  0  0  0  0  0
   17.6981  -10.1111  -16.1287 C   0  0  0  0  0  0  0  0  0  0  0  0
   18.9267   -9.8772  -16.3811 O   0  0  0  0  0  0  0  0  0  0  0  0
   16.0642   -6.8600  -16.9078 C   0  0  0  0  0  0  0  0  0  0  0  0
   17.2882   -7.7107  -16.6542 C   0  0  2  0  0  0  0  0  0  0  0  0
   16.8175   -9.0095  -16.2390 N   0  0  0  0  0  0  0  0  0  0  0  0
   18.1957   -7.0906  -15.6721 C   0  0  0  0  0  0  0  0  0  0  0  0
   18.4502   -7.6363  -14.5462 O   0  0  0  0  0  0  0  0  0  0  0  0
   21.9386   -5.7068  -12.4818 N   0  0  0  0  0  0  0  0  0  0  0  0
   21.9477   -5.5082  -13.8861 C   0  0  0  0  0  0  0  0  0  0  0  0
   22.8785   -4.8363  -14.3631 O   0  0  0  0  0  0  0  0  0  0  0  0
   20.8938   -6.0808  -14.7155 C   0  0  0  0  0  0  0  0  0  0  0  0
   19.7267   -5.1854  -14.9923 C   0  0  2  0  0  0  0  0  0  0  0  0
   18.8167   -5.8566  -15.9567 N   0  0  0  0  0  0  0  0  0  0  0  0
   20.0945   -3.8583  -15.5342 C   0  0  0  0  0  0  0  0  0  0  0  0
   20.1868   -2.8956  -14.7184 O   0  0  0  0  0  0  0  0  0  0  0  0
   20.3382   -3.6078  -16.8364 O   0  0  0  0  0  0  0  0  0  0  0  0
  2  1  1  0
  3  5  1  0
  3  2  1  0
  3  4  1  6
  5  6  2  0
  8  7  1  1
  9  8  1  0
  9  5  1  0
 10 11  2  0
 10  8  1  0
 12 13  1  0
 13 15  1  0
 13 14  2  0
 16 15  1  6
 16 17  1  0
 16 18  1  0
 17 10  1  0
 18 20  1  0
 19 18  2  0
M  END
$$$$
