SAN.pdb
     RDKit          3D

 20 19  0  0  1  0  0  0  0  0999 V2000
   12.2685   -7.7290   -7.9332 O   0  0  0  0  0  0  0  0  0  0  0  0
   13.2877   -7.5215   -8.8908 C   0  0  0  0  0  0  0  0  0  0  0  0
   14.6496   -7.8685   -8.2812 C   0  0  2  0  0  0  0  0  0  0  0  0
   14.9910   -6.7343   -7.4336 N   0  0  0  0  0  0  0  0  0  0  0  0
   15.5896   -8.0127   -9.4081 C   0  0  0  0  0  0  0  0  0  0  0  0
   16.1729   -6.9668   -9.8483 O   0  0  0  0  0  0  0  0  0  0  0  0
   16.9716  -10.7132  -11.5757 C   0  0  0  0  0  0  0  0  0  0  0  0
   16.8371   -9.2645  -11.1639 C   0  0  2  0  0  0  0  0  0  0  0  0
   15.9102   -9.2269  -10.0592 N   0  0  0  0  0  0  0  0  0  0  0  0
   16.4201   -8.4089  -12.2894 C   0  0  0  0  0  0  0  0  0  0  0  0
   15.1909   -8.2275  -12.5831 O   0  0  0  0  0  0  0  0  0  0  0  0
   17.8193   -3.3396  -15.1184 N   0  0  0  0  0  0  0  0  0  0  0  0
   17.6741   -4.7355  -15.3230 C   0  0  0  0  0  0  0  0  0  0  0  0
   17.3716   -5.1180  -16.4666 O   0  0  0  0  0  0  0  0  0  0  0  0
   17.8772   -5.6647  -14.2176 C   0  0  0  0  0  0  0  0  0  0  0  0
   17.0145   -6.8878  -14.2308 C   0  0  2  0  0  0  0  0  0  0  0  0
   17.3860   -7.7574  -13.0843 N   0  0  0  0  0  0  0  0  0  0  0  0
   17.1060   -7.6823  -15.4760 C   0  0  0  0  0  0  0  0  0  0  0  0
   16.1866   -7.5388  -16.3334 O   0  0  0  0  0  0  0  0  0  0  0  0
   18.1024   -8.5460  -15.7574 O   0  0  0  0  0  0  0  0  0  0  0  0
  2  1  1  0
  3  5  1  0
  3  2  1  0
  3  4  1  1
  5  6  2  0
  8  7  1  6
  9  8  1  0
  9  5  1  0
 10 11  2  0
 10  8  1  0
 12 13  1  0
 13 15  1  0
 13 14  2  0
 16 15  1  6
 16 17  1  0
 16 18  1  0
 17 10  1  0
 18 20  1  0
 19 18  2  0
M  END
$$$$
