SAN.pdb
     RDKit          3D

 20 19  0  0  1  0  0  0  0  0999 V2000
   15.5276  -10.7992  -15.6039 O   0  0  0  0  0  0  0  0  0  0  0  0
   15.6220  -11.4658  -16.8471 C   0  0  0  0  0  0  0  0  0  0  0  0
   16.5749  -12.6590  -16.7239 C   0  0  2  0  0  0  0  0  0  0  0  0
   16.0703  -13.4390  -15.6020 N   0  0  0  0  0  0  0  0  0  0  0  0
   17.9116  -12.1019  -16.4465 C   0  0  0  0  0  0  0  0  0  0  0  0
   18.2424  -11.8965  -15.2314 O   0  0  0  0  0  0  0  0  0  0  0  0
   21.0795  -11.4277  -18.2473 C   0  0  0  0  0  0  0  0  0  0  0  0
   20.1745  -11.2518  -17.0489 C   0  0  2  0  0  0  0  0  0  0  0  0
   18.8798  -11.7671  -17.4220 N   0  0  0  0  0  0  0  0  0  0  0  0
   20.1235   -9.8491  -16.5989 C   0  0  0  0  0  0  0  0  0  0  0  0
   19.1474   -9.0794  -16.8904 O   0  0  0  0  0  0  0  0  0  0  0  0
   21.5926   -5.3167  -14.2966 N   0  0  0  0  0  0  0  0  0  0  0  0
   22.0981   -6.4289  -13.5760 C   0  0  0  0  0  0  0  0  0  0  0  0
   22.7141   -6.1957  -12.5217 O   0  0  0  0  0  0  0  0  0  0  0  0
   21.8897   -7.7832  -14.0749 C   0  0  0  0  0  0  0  0  0  0  0  0
   21.1937   -7.8887  -15.3958 C   0  0  2  0  0  0  0  0  0  0  0  0
   21.1705   -9.3126  -15.8209 N   0  0  0  0  0  0  0  0  0  0  0  0
   21.8104   -7.0834  -16.4733 C   0  0  0  0  0  0  0  0  0  0  0  0
   22.6169   -7.6667  -17.2545 O   0  0  0  0  0  0  0  0  0  0  0  0
   21.5697   -5.7727  -16.6781 O   0  0  0  0  0  0  0  0  0  0  0  0
  2  1  1  0
  3  5  1  0
  3  2  1  0
  3  4  1  1
  5  6  2  0
  8  7  1  6
  9  8  1  0
  9  5  1  0
 10 11  2  0
 10  8  1  0
 12 13  1  0
 13 15  1  0
 13 14  2  0
 16 15  1  1
 16 17  1  0
 16 18  1  0
 17 10  1  0
 18 20  1  0
 19 18  2  0
M  END
$$$$
