SAN.pdb
     RDKit          3D

 20 19  0  0  1  0  0  0  0  0999 V2000
   24.5148    0.5135  -10.2000 O   0  0  0  0  0  0  0  0  0  0  0  0
   25.1335    0.7220   -8.9460 C   0  0  0  0  0  0  0  0  0  0  0  0
   26.0961    1.9104   -9.0347 C   0  0  2  0  0  0  0  0  0  0  0  0
   27.1586    1.4777   -9.9322 N   0  0  0  0  0  0  0  0  0  0  0  0
   26.5965    2.1484   -7.6682 C   0  0  0  0  0  0  0  0  0  0  0  0
   27.5660    1.4350   -7.2450 O   0  0  0  0  0  0  0  0  0  0  0  0
   26.8828    4.8588   -5.3655 C   0  0  0  0  0  0  0  0  0  0  0  0
   26.7291    3.3602   -5.4956 C   0  0  2  0  0  0  0  0  0  0  0  0
   26.0908    3.1129   -6.7654 N   0  0  0  0  0  0  0  0  0  0  0  0
   25.9873    2.7824   -4.3605 C   0  0  0  0  0  0  0  0  0  0  0  0
   24.8326    2.2565   -4.5034 O   0  0  0  0  0  0  0  0  0  0  0  0
   24.4784    0.7121    0.0755 N   0  0  0  0  0  0  0  0  0  0  0  0
   24.8328    0.0492   -1.1272 C   0  0  0  0  0  0  0  0  0  0  0  0
   24.5214   -1.1497   -1.2332 O   0  0  0  0  0  0  0  0  0  0  0  0
   25.5352    0.7692   -2.1830 C   0  0  0  0  0  0  0  0  0  0  0  0
   25.8455    2.2048   -1.8943 C   0  0  2  0  0  0  0  0  0  0  0  0
   26.5445    2.7962   -3.0649 N   0  0  0  0  0  0  0  0  0  0  0  0
   26.6788    2.4157   -0.6897 C   0  0  0  0  0  0  0  0  0  0  0  0
   27.9340    2.3244   -0.8203 O   0  0  0  0  0  0  0  0  0  0  0  0
   26.1905    2.6993    0.5346 O   0  0  0  0  0  0  0  0  0  0  0  0
  2  1  1  0
  3  5  1  0
  3  2  1  0
  3  4  1  6
  5  6  2  0
  8  7  1  1
  9  8  1  0
  9  5  1  0
 10 11  2  0
 10  8  1  0
 12 13  1  0
 13 15  1  0
 13 14  2  0
 16 15  1  6
 16 17  1  0
 16 18  1  0
 17 10  1  0
 18 20  1  0
 19 18  2  0
M  END
$$$$
