SAN.pdb
     RDKit          3D

 20 19  0  0  1  0  0  0  0  0999 V2000
   14.4864  -10.4344  -16.1779 O   0  0  0  0  0  0  0  0  0  0  0  0
   15.7893  -10.1776  -15.6928 C   0  0  0  0  0  0  0  0  0  0  0  0
   16.6681  -11.4171  -15.8879 C   0  0  2  0  0  0  0  0  0  0  0  0
   16.2539  -12.3490  -14.8479 N   0  0  0  0  0  0  0  0  0  0  0  0
   18.0631  -10.9760  -15.7042 C   0  0  0  0  0  0  0  0  0  0  0  0
   18.4622  -10.7044  -14.5231 O   0  0  0  0  0  0  0  0  0  0  0  0
   21.2128  -10.7413  -17.6372 C   0  0  0  0  0  0  0  0  0  0  0  0
   20.3500  -10.3416  -16.4616 C   0  0  2  0  0  0  0  0  0  0  0  0
   19.0180  -10.8226  -16.7364 N   0  0  0  0  0  0  0  0  0  0  0  0
   20.3939   -8.8891  -16.2153 C   0  0  0  0  0  0  0  0  0  0  0  0
   19.5659   -8.0844  -16.7604 O   0  0  0  0  0  0  0  0  0  0  0  0
   21.8917   -4.2459  -14.1675 N   0  0  0  0  0  0  0  0  0  0  0  0
   22.1675   -5.3053  -13.2658 C   0  0  0  0  0  0  0  0  0  0  0  0
   22.5755   -5.0003  -12.1318 O   0  0  0  0  0  0  0  0  0  0  0  0
   21.9719   -6.6903  -13.6783 C   0  0  0  0  0  0  0  0  0  0  0  0
   21.4436   -6.8864  -15.0650 C   0  0  2  0  0  0  0  0  0  0  0  0
   21.3691   -8.3419  -15.3558 N   0  0  0  0  0  0  0  0  0  0  0  0
   22.2504   -6.2339  -16.1202 C   0  0  0  0  0  0  0  0  0  0  0  0
   22.1863   -4.9738  -16.2140 O   0  0  0  0  0  0  0  0  0  0  0  0
   23.0483   -6.8916  -16.9855 O   0  0  0  0  0  0  0  0  0  0  0  0
  2  1  1  0
  3  5  1  0
  3  2  1  0
  3  4  1  1
  5  6  2  0
  8  7  1  6
  9  8  1  0
  9  5  1  0
 10 11  2  0
 10  8  1  0
 12 13  1  0
 13 15  1  0
 13 14  2  0
 16 15  1  1
 16 17  1  0
 16 18  1  0
 17 10  1  0
 18 20  1  0
 19 18  2  0
M  END
$$$$
