SAN.pdb
     RDKit          3D

 20 19  0  0  1  0  0  0  0  0999 V2000
   11.6830  -13.5557  -10.7959 O   0  0  0  0  0  0  0  0  0  0  0  0
   12.6829  -12.5944  -11.0699 C   0  0  0  0  0  0  0  0  0  0  0  0
   13.5761  -13.0876  -12.2126 C   0  0  2  0  0  0  0  0  0  0  0  0
   14.2832  -14.2425  -11.6761 N   0  0  0  0  0  0  0  0  0  0  0  0
   14.4972  -11.9816  -12.5329 C   0  0  0  0  0  0  0  0  0  0  0  0
   15.6590  -11.9885  -12.0055 O   0  0  0  0  0  0  0  0  0  0  0  0
   14.8442   -9.3038  -15.0315 C   0  0  0  0  0  0  0  0  0  0  0  0
   15.1936   -9.8822  -13.6789 C   0  0  2  0  0  0  0  0  0  0  0  0
   14.2060  -10.8923  -13.3870 N   0  0  0  0  0  0  0  0  0  0  0  0
   15.2713   -8.8410  -12.6385 C   0  0  0  0  0  0  0  0  0  0  0  0
   14.5264   -8.8626  -11.6017 O   0  0  0  0  0  0  0  0  0  0  0  0
   16.3418   -4.9999   -9.4125 N   0  0  0  0  0  0  0  0  0  0  0  0
   16.8915   -6.3066   -9.3677 C   0  0  0  0  0  0  0  0  0  0  0  0
   17.6277   -6.5852   -8.4054 O   0  0  0  0  0  0  0  0  0  0  0  0
   16.5890   -7.2670  -10.4226 C   0  0  0  0  0  0  0  0  0  0  0  0
   16.2731   -6.6809  -11.7631 C   0  0  2  0  0  0  0  0  0  0  0  0
   16.1870   -7.7757  -12.7645 N   0  0  0  0  0  0  0  0  0  0  0  0
   17.2577   -5.6829  -12.2370 C   0  0  0  0  0  0  0  0  0  0  0  0
   18.3132   -6.1137  -12.7861 O   0  0  0  0  0  0  0  0  0  0  0  0
   17.1048   -4.3481  -12.1237 O   0  0  0  0  0  0  0  0  0  0  0  0
  2  1  1  0
  3  5  1  0
  3  2  1  0
  3  4  1  1
  5  6  2  0
  8  7  1  6
  9  8  1  0
  9  5  1  0
 10 11  2  0
 10  8  1  0
 12 13  1  0
 13 15  1  0
 13 14  2  0
 16 15  1  1
 16 17  1  0
 16 18  1  0
 17 10  1  0
 18 20  1  0
 19 18  2  0
M  END
$$$$
