SAN.pdb
     RDKit          3D

 20 19  0  0  1  0  0  0  0  0999 V2000
   22.7073   -8.7961  -18.6340 O   0  0  0  0  0  0  0  0  0  0  0  0
   22.9036   -9.9289  -17.8112 C   0  0  0  0  0  0  0  0  0  0  0  0
   21.5939  -10.2868  -17.1017 C   0  0  2  0  0  0  0  0  0  0  0  0
   20.6432  -10.5668  -18.1690 N   0  0  0  0  0  0  0  0  0  0  0  0
   21.2034   -9.1007  -16.3175 C   0  0  0  0  0  0  0  0  0  0  0  0
   20.3878   -8.2703  -16.8402 O   0  0  0  0  0  0  0  0  0  0  0  0
   21.5260   -7.8177  -12.8537 C   0  0  0  0  0  0  0  0  0  0  0  0
   21.1962   -7.6178  -14.3158 C   0  0  2  0  0  0  0  0  0  0  0  0
   21.6587   -8.7922  -15.0142 N   0  0  0  0  0  0  0  0  0  0  0  0
   21.7778   -6.3714  -14.8457 C   0  0  0  0  0  0  0  0  0  0  0  0
   22.6761   -6.3754  -15.7530 O   0  0  0  0  0  0  0  0  0  0  0  0
   22.4523   -1.5233  -16.4324 N   0  0  0  0  0  0  0  0  0  0  0  0
   21.8834   -2.6210  -17.1273 C   0  0  0  0  0  0  0  0  0  0  0  0
   21.6716   -2.4804  -18.3442 O   0  0  0  0  0  0  0  0  0  0  0  0
   21.5683   -3.8556  -16.4179 C   0  0  0  0  0  0  0  0  0  0  0  0
   21.8131   -3.8365  -14.9414 C   0  0  2  0  0  0  0  0  0  0  0  0
   21.3487   -5.1207  -14.3549 N   0  0  0  0  0  0  0  0  0  0  0  0
   21.1469   -2.7232  -14.2296 C   0  0  0  0  0  0  0  0  0  0  0  0
   19.9759   -2.9218  -13.7933 O   0  0  0  0  0  0  0  0  0  0  0  0
   21.7040   -1.5144  -14.0146 O   0  0  0  0  0  0  0  0  0  0  0  0
  2  1  1  0
  3  5  1  0
  3  2  1  0
  3  4  1  6
  5  6  2  0
  8  7  1  1
  9  8  1  0
  9  5  1  0
 10 11  2  0
 10  8  1  0
 12 13  1  0
 13 15  1  0
 13 14  2  0
 16 15  1  6
 16 17  1  0
 16 18  1  0
 17 10  1  0
 18 20  1  0
 19 18  2  0
M  END
$$$$
