SAN.pdb
     RDKit          3D

 20 19  0  0  1  0  0  0  0  0999 V2000
   22.2659  -12.2471  -20.6470 O   0  0  0  0  0  0  0  0  0  0  0  0
   22.4166  -11.3513  -19.5637 C   0  0  0  0  0  0  0  0  0  0  0  0
   22.4849  -12.1351  -18.2493 C   0  0  2  0  0  0  0  0  0  0  0  0
   21.1495  -12.6853  -18.0607 N   0  0  0  0  0  0  0  0  0  0  0  0
   22.8296  -11.1612  -17.1971 C   0  0  0  0  0  0  0  0  0  0  0  0
   21.8875  -10.4854  -16.6647 O   0  0  0  0  0  0  0  0  0  0  0  0
   25.8456   -9.9534  -15.3709 C   0  0  0  0  0  0  0  0  0  0  0  0
   24.3814   -9.8687  -15.7386 C   0  0  2  0  0  0  0  0  0  0  0  0
   24.1338  -10.9017  -16.7145 N   0  0  0  0  0  0  0  0  0  0  0  0
   24.0119   -8.5259  -16.2211 C   0  0  0  0  0  0  0  0  0  0  0  0
   24.1494   -8.1839  -17.4435 O   0  0  0  0  0  0  0  0  0  0  0  0
   21.4839   -4.5269  -18.3381 N   0  0  0  0  0  0  0  0  0  0  0  0
   21.2241   -5.1130  -17.0729 C   0  0  0  0  0  0  0  0  0  0  0  0
   20.4265   -4.5246  -16.3224 O   0  0  0  0  0  0  0  0  0  0  0  0
   21.8806   -6.3580  -16.6916 C   0  0  0  0  0  0  0  0  0  0  0  0
   23.0568   -6.2180  -15.7765 C   0  0  2  0  0  0  0  0  0  0  0  0
   23.4877   -7.5679  -15.3285 N   0  0  0  0  0  0  0  0  0  0  0  0
   22.8011   -5.3825  -14.5822 C   0  0  0  0  0  0  0  0  0  0  0  0
   22.4335   -5.9688  -13.5228 O   0  0  0  0  0  0  0  0  0  0  0  0
   22.9345   -4.0413  -14.5476 O   0  0  0  0  0  0  0  0  0  0  0  0
  2  1  1  0
  3  5  1  0
  3  2  1  0
  3  4  1  1
  5  6  2  0
  8  7  1  6
  9  8  1  0
  9  5  1  0
 10 11  2  0
 10  8  1  0
 12 13  1  0
 13 15  1  0
 13 14  2  0
 16 15  1  1
 16 17  1  0
 16 18  1  0
 17 10  1  0
 18 20  1  0
 19 18  2  0
M  END
$$$$
