SAN.pdb
     RDKit          3D

 20 19  0  0  1  0  0  0  0  0999 V2000
   26.1304  -22.0196  -14.6521 O   0  0  0  0  0  0  0  0  0  0  0  0
   25.7406  -21.9646  -13.2942 C   0  0  0  0  0  0  0  0  0  0  0  0
   26.4501  -20.7987  -12.5986 C   0  0  2  0  0  0  0  0  0  0  0  0
   26.0670  -20.8976  -11.1968 N   0  0  0  0  0  0  0  0  0  0  0  0
   25.9376  -19.5639  -13.2207 C   0  0  0  0  0  0  0  0  0  0  0  0
   24.7132  -19.2557  -13.0367 O   0  0  0  0  0  0  0  0  0  0  0  0
   27.1807  -16.7378  -15.3045 C   0  0  0  0  0  0  0  0  0  0  0  0
   26.0679  -17.5722  -14.7114 C   0  0  2  0  0  0  0  0  0  0  0  0
   26.6926  -18.6725  -14.0184 N   0  0  0  0  0  0  0  0  0  0  0  0
   25.1054  -18.0146  -15.7363 C   0  0  0  0  0  0  0  0  0  0  0  0
   25.0040  -19.2380  -16.0870 O   0  0  0  0  0  0  0  0  0  0  0  0
   20.4412  -19.5880  -14.8870 N   0  0  0  0  0  0  0  0  0  0  0  0
   21.6830  -19.2383  -15.4764 C   0  0  0  0  0  0  0  0  0  0  0  0
   22.3521  -20.1533  -15.9869 O   0  0  0  0  0  0  0  0  0  0  0  0
   22.1343  -17.8516  -15.4698 C   0  0  0  0  0  0  0  0  0  0  0  0
   22.8445  -17.3941  -16.7054 C   0  0  2  0  0  0  0  0  0  0  0  0
   24.2571  -17.0805  -16.3665 N   0  0  0  0  0  0  0  0  0  0  0  0
   22.2384  -16.2081  -17.3505 C   0  0  0  0  0  0  0  0  0  0  0  0
   22.4848  -15.0744  -16.8455 O   0  0  0  0  0  0  0  0  0  0  0  0
   21.4438  -16.2552  -18.4387 O   0  0  0  0  0  0  0  0  0  0  0  0
  2  1  1  0
  3  5  1  0
  3  2  1  0
  3  4  1  1
  5  6  2  0
  8  7  1  6
  9  8  1  0
  9  5  1  0
 10 11  2  0
 10  8  1  0
 12 13  1  0
 13 15  1  0
 13 14  2  0
 16 15  1  1
 16 17  1  0
 16 18  1  0
 17 10  1  0
 18 20  1  0
 19 18  2  0
M  END
$$$$
