SAN.pdb
     RDKit          3D

 20 19  0  0  1  0  0  0  0  0999 V2000
   28.1940  -17.7332  -15.4217 O   0  0  0  0  0  0  0  0  0  0  0  0
   27.1834  -18.6624  -15.0839 C   0  0  0  0  0  0  0  0  0  0  0  0
   27.8149  -20.0210  -14.7645 C   0  0  2  0  0  0  0  0  0  0  0  0
   28.1463  -20.6038  -16.0576 N   0  0  0  0  0  0  0  0  0  0  0  0
   26.7866  -20.8062  -14.0572 C   0  0  0  0  0  0  0  0  0  0  0  0
   26.0044  -21.5413  -14.7469 O   0  0  0  0  0  0  0  0  0  0  0  0
   25.5605  -21.3451  -10.5804 C   0  0  0  0  0  0  0  0  0  0  0  0
   25.3691  -21.3437  -12.0803 C   0  0  2  0  0  0  0  0  0  0  0  0
   26.5829  -20.8196  -12.6574 N   0  0  0  0  0  0  0  0  0  0  0  0
   24.1710  -20.5845  -12.4816 C   0  0  0  0  0  0  0  0  0  0  0  0
   24.2324  -19.3588  -12.8338 O   0  0  0  0  0  0  0  0  0  0  0  0
   20.5811  -19.8873  -16.5029 N   0  0  0  0  0  0  0  0  0  0  0  0
   20.9393  -19.4655  -15.1970 C   0  0  0  0  0  0  0  0  0  0  0  0
   20.3000  -18.5192  -14.7056 O   0  0  0  0  0  0  0  0  0  0  0  0
   22.0197  -20.1331  -14.4803 C   0  0  0  0  0  0  0  0  0  0  0  0
   21.7057  -20.5552  -13.0790 C   0  0  2  0  0  0  0  0  0  0  0  0
   22.9041  -21.2043  -12.4865 N   0  0  0  0  0  0  0  0  0  0  0  0
   20.5601  -21.4854  -12.9672 C   0  0  0  0  0  0  0  0  0  0  0  0
   20.7455  -22.6895  -13.3090 O   0  0  0  0  0  0  0  0  0  0  0  0
   19.3352  -21.1361  -12.5252 O   0  0  0  0  0  0  0  0  0  0  0  0
  2  1  1  0
  3  5  1  0
  3  2  1  0
  3  4  1  6
  5  6  2  0
  8  7  1  1
  9  8  1  0
  9  5  1  0
 10 11  2  0
 10  8  1  0
 12 13  1  0
 13 15  1  0
 13 14  2  0
 16 15  1  6
 16 17  1  0
 16 18  1  0
 17 10  1  0
 18 20  1  0
 19 18  2  0
M  END
$$$$
