SAN.pdb
     RDKit          3D

 20 19  0  0  1  0  0  0  0  0999 V2000
   12.2135  -11.2373  -12.8357 O   0  0  0  0  0  0  0  0  0  0  0  0
   12.7857  -10.3357  -11.9092 C   0  0  0  0  0  0  0  0  0  0  0  0
   13.6273  -11.1073  -10.8878 C   0  0  2  0  0  0  0  0  0  0  0  0
   12.6653  -11.8158  -10.0546 N   0  0  0  0  0  0  0  0  0  0  0  0
   14.3813  -10.1003  -10.1186 C   0  0  0  0  0  0  0  0  0  0  0  0
   13.8730   -9.6607   -9.0340 O   0  0  0  0  0  0  0  0  0  0  0  0
   17.6166   -8.2600  -10.3230 C   0  0  0  0  0  0  0  0  0  0  0  0
   16.2598   -8.5166   -9.7070 C   0  0  2  0  0  0  0  0  0  0  0  0
   15.6405   -9.5660  -10.4792 N   0  0  0  0  0  0  0  0  0  0  0  0
   15.4419   -7.2919   -9.6473 C   0  0  0  0  0  0  0  0  0  0  0  0
   14.6587   -6.9535  -10.5972 O   0  0  0  0  0  0  0  0  0  0  0  0
   14.1406   -2.7905   -5.6717 N   0  0  0  0  0  0  0  0  0  0  0  0
   13.7052   -3.6923   -6.6760 C   0  0  0  0  0  0  0  0  0  0  0  0
   12.6641   -3.4045   -7.2915 O   0  0  0  0  0  0  0  0  0  0  0  0
   14.4676   -4.9035   -6.9559 C   0  0  0  0  0  0  0  0  0  0  0  0
   14.6841   -5.2145   -8.4039 C   0  0  2  0  0  0  0  0  0  0  0  0
   15.5051   -6.4479   -8.5191 N   0  0  0  0  0  0  0  0  0  0  0  0
   15.3471   -4.1323   -9.1650 C   0  0  0  0  0  0  0  0  0  0  0  0
   16.6119   -4.1292   -9.2012 O   0  0  0  0  0  0  0  0  0  0  0  0
   14.6944   -3.1522   -9.8218 O   0  0  0  0  0  0  0  0  0  0  0  0
  2  1  1  0
  3  5  1  0
  3  2  1  0
  3  4  1  1
  5  6  2  0
  8  7  1  6
  9  8  1  0
  9  5  1  0
 10 11  2  0
 10  8  1  0
 12 13  1  0
 13 15  1  0
 13 14  2  0
 16 15  1  1
 16 17  1  0
 16 18  1  0
 17 10  1  0
 18 20  1  0
 19 18  2  0
M  END
$$$$
