NPQ.pdb
     RDKit          3D

 25 25  0  0  1  0  0  0  0  0999 V2000
    9.7669  -17.7850   17.0947 N   0  0  0  0  0  0  0  0  0  0  0  0
    8.3840  -17.5669   16.8731 C   0  0  0  0  0  0  0  0  0  0  0  0
    7.5994  -18.5305   16.9122 O   0  0  0  0  0  0  0  0  0  0  0  0
    7.8480  -16.2139   16.5949 C   0  0  0  0  0  0  0  0  0  0  0  0
    8.9522  -15.1771   16.6957 C   0  0  2  0  0  0  0  0  0  0  0  0
    9.9850  -15.5450   15.7929 N   0  0  0  0  0  0  0  0  0  0  0  0
    9.3993  -14.9616   18.0618 C   0  0  0  0  0  0  0  0  0  0  0  0
   10.6333  -15.2275   18.2984 O   0  0  0  0  0  0  0  0  0  0  0  0
    8.6224  -14.4980   19.1306 N   0  0  0  0  0  0  0  0  0  0  0  0
    7.2234  -14.1988   19.2805 C   0  0  0  0  0  0  0  0  0  0  0  0
    7.3024  -12.7953   19.9162 C   0  0  0  0  0  0  0  0  0  0  0  0
    8.3055  -13.0553   21.0103 C   0  0  0  0  0  0  0  0  0  0  0  0
    9.1494  -14.1940   20.4910 C   0  0  1  0  0  0  0  0  0  0  0  0
    8.9123  -15.3871   21.3430 C   0  0  0  0  0  0  0  0  0  0  0  0
    8.1188  -16.3073   21.0172 O   0  0  0  0  0  0  0  0  0  0  0  0
   11.1525  -19.0461   20.1612 N   0  0  0  0  0  0  0  0  0  0  0  0
   12.0488  -19.2464   21.2486 C   0  0  0  0  0  0  0  0  0  0  0  0
   12.7269  -20.2913   21.3124 O   0  0  0  0  0  0  0  0  0  0  0  0
   12.1634  -18.2100   22.2899 C   0  0  0  0  0  0  0  0  0  0  0  0
   11.3067  -17.0355   21.9186 C   0  0  0  0  0  0  0  0  0  0  0  0
   10.2365  -16.7441   22.9475 C   0  0  2  0  0  0  0  0  0  0  0  0
    9.6037  -15.4970   22.5693 N   0  0  0  0  0  0  0  0  0  0  0  0
   10.7848  -16.6089   24.3056 C   0  0  0  0  0  0  0  0  0  0  0  0
   11.2180  -17.6019   24.9131 O   0  0  0  0  0  0  0  0  0  0  0  0
   10.8173  -15.3724   24.9064 O   0  0  0  0  0  0  0  0  0  0  0  0
  1  2  1  0
  2  3  2  0
  4  2  1  0
  5  4  1  0
  5  6  1  6
  7  5  1  0
  7  8  2  0
  9  7  1  0
 10  9  1  0
 11 10  1  0
 11 12  1  0
 12 13  1  0
 13  9  1  0
 13 14  1  1
 15 14  2  0
 16 17  1  0
 17 19  1  0
 18 17  2  0
 19 20  1  0
 21 20  1  6
 21 22  1  0
 21 23  1  0
 22 14  1  0
 23 25  1  0
 24 23  2  0
M  END
$$$$
