NPQ.pdb
     RDKit          3D

 25 25  0  0  1  0  0  0  0  0999 V2000
    8.2740  -15.7589   20.8952 N   0  0  0  0  0  0  0  0  0  0  0  0
    6.8758  -15.6511   21.1013 C   0  0  0  0  0  0  0  0  0  0  0  0
    6.1681  -16.6714   21.0371 O   0  0  0  0  0  0  0  0  0  0  0  0
    6.2339  -14.3478   21.3925 C   0  0  0  0  0  0  0  0  0  0  0  0
    7.2874  -13.2764   21.6078 C   0  0  2  0  0  0  0  0  0  0  0  0
    8.0771  -13.1929   20.4303 N   0  0  0  0  0  0  0  0  0  0  0  0
    8.0510  -13.4746   22.8285 C   0  0  0  0  0  0  0  0  0  0  0  0
    9.3049  -13.7068   22.6763 O   0  0  0  0  0  0  0  0  0  0  0  0
    7.5557  -13.4374   24.1377 N   0  0  0  0  0  0  0  0  0  0  0  0
    6.2441  -13.2399   24.6945 C   0  0  0  0  0  0  0  0  0  0  0  0
    6.5458  -12.1527   25.7466 C   0  0  0  0  0  0  0  0  0  0  0  0
    7.7453  -12.7638   26.4237 C   0  0  0  0  0  0  0  0  0  0  0  0
    8.3842  -13.6259   25.3621 C   0  0  1  0  0  0  0  0  0  0  0  0
    8.2658  -15.0486   25.7715 C   0  0  0  0  0  0  0  0  0  0  0  0
    7.2761  -15.7628   25.4664 O   0  0  0  0  0  0  0  0  0  0  0  0
   12.1758  -19.0078   24.3525 N   0  0  0  0  0  0  0  0  0  0  0  0
   12.5633  -17.6554   24.5686 C   0  0  0  0  0  0  0  0  0  0  0  0
   13.7310  -17.2947   24.3189 O   0  0  0  0  0  0  0  0  0  0  0  0
   11.5735  -16.6949   25.0874 C   0  0  0  0  0  0  0  0  0  0  0  0
   10.2378  -17.3691   25.1988 C   0  0  0  0  0  0  0  0  0  0  0  0
    9.5323  -17.0570   26.5003 C   0  0  2  0  0  0  0  0  0  0  0  0
    9.3039  -15.6268   26.5342 N   0  0  0  0  0  0  0  0  0  0  0  0
   10.3272  -17.4418   27.6765 C   0  0  0  0  0  0  0  0  0  0  0  0
   10.8606  -16.5753   28.3888 O   0  0  0  0  0  0  0  0  0  0  0  0
   10.4802  -18.7723   27.9888 O   0  0  0  0  0  0  0  0  0  0  0  0
  1  2  1  0
  2  3  2  0
  4  2  1  0
  5  4  1  0
  5  6  1  6
  7  5  1  0
  7  8  2  0
  9  7  1  0
 10  9  1  0
 11 10  1  0
 11 12  1  0
 12 13  1  0
 13  9  1  0
 13 14  1  1
 15 14  2  0
 16 17  1  0
 17 19  1  0
 18 17  2  0
 19 20  1  0
 21 20  1  6
 21 22  1  0
 21 23  1  0
 22 14  1  0
 23 25  1  0
 24 23  2  0
M  END
$$$$
