NPQ.pdb
     RDKit          3D

 25 25  0  0  1  0  0  0  0  0999 V2000
    6.8779  -16.6920   13.3975 N   0  0  0  0  0  0  0  0  0  0  0  0
    7.0428  -17.3854   14.6227 C   0  0  0  0  0  0  0  0  0  0  0  0
    6.5898  -18.5375   14.7386 O   0  0  0  0  0  0  0  0  0  0  0  0
    7.7441  -16.7693   15.7733 C   0  0  0  0  0  0  0  0  0  0  0  0
    8.1052  -15.3282   15.4619 C   0  0  2  0  0  0  0  0  0  0  0  0
    8.6298  -15.2812   14.1429 N   0  0  0  0  0  0  0  0  0  0  0  0
    8.9660  -14.7328   16.4704 C   0  0  0  0  0  0  0  0  0  0  0  0
   10.1902  -14.5493   16.1281 O   0  0  0  0  0  0  0  0  0  0  0  0
    8.5922  -14.3455   17.7631 N   0  0  0  0  0  0  0  0  0  0  0  0
    7.3818  -14.4867   18.5275 C   0  0  0  0  0  0  0  0  0  0  0  0
    7.1885  -13.0370   19.0186 C   0  0  0  0  0  0  0  0  0  0  0  0
    8.5721  -12.7466   19.5402 C   0  0  0  0  0  0  0  0  0  0  0  0
    9.4811  -13.6328   18.7238 C   0  0  1  0  0  0  0  0  0  0  0  0
   10.0824  -14.6515   19.6218 C   0  0  0  0  0  0  0  0  0  0  0  0
    9.5988  -15.8044   19.7608 O   0  0  0  0  0  0  0  0  0  0  0  0
   15.6113  -13.3484   18.4962 N   0  0  0  0  0  0  0  0  0  0  0  0
   15.9147  -14.5344   19.2222 C   0  0  0  0  0  0  0  0  0  0  0  0
   17.0984  -14.9124   19.3310 O   0  0  0  0  0  0  0  0  0  0  0  0
   14.8193  -15.3036   19.8387 C   0  0  0  0  0  0  0  0  0  0  0  0
   13.5568  -14.4941   19.7934 C   0  0  0  0  0  0  0  0  0  0  0  0
   12.3736  -15.2225   20.3921 C   0  0  2  0  0  0  0  0  0  0  0  0
   11.2442  -14.3162   20.3510 N   0  0  0  0  0  0  0  0  0  0  0  0
   12.6103  -15.6281   21.7860 C   0  0  0  0  0  0  0  0  0  0  0  0
   13.4142  -16.5369   22.0511 O   0  0  0  0  0  0  0  0  0  0  0  0
   11.9352  -14.9948   22.8030 O   0  0  0  0  0  0  0  0  0  0  0  0
  1  2  1  0
  2  3  2  0
  4  2  1  0
  5  4  1  0
  5  6  1  6
  7  5  1  0
  7  8  2  0
  9  7  1  0
 10  9  1  0
 11 10  1  0
 11 12  1  0
 12 13  1  0
 13  9  1  0
 13 14  1  1
 15 14  2  0
 16 17  1  0
 17 19  1  0
 18 17  2  0
 19 20  1  0
 21 20  1  1
 21 22  1  0
 21 23  1  0
 22 14  1  0
 23 25  1  0
 24 23  2  0
M  END
$$$$
