NPQ.pdb
     RDKit          3D

 25 25  0  0  1  0  0  0  0  0999 V2000
    9.8959  -17.3597   15.8848 N   0  0  0  0  0  0  0  0  0  0  0  0
    8.4800  -17.3174   15.9357 C   0  0  0  0  0  0  0  0  0  0  0  0
    7.8399  -18.3790   16.0309 O   0  0  0  0  0  0  0  0  0  0  0  0
    7.7408  -16.0346   15.8779 C   0  0  0  0  0  0  0  0  0  0  0  0
    8.7101  -14.8666   15.8584 C   0  0  2  0  0  0  0  0  0  0  0  0
    9.6436  -15.0870   14.8109 N   0  0  0  0  0  0  0  0  0  0  0  0
    9.3143  -14.6145   17.1560 C   0  0  0  0  0  0  0  0  0  0  0  0
   10.5893  -14.7554   17.2199 O   0  0  0  0  0  0  0  0  0  0  0  0
    8.6470  -14.2377   18.3280 N   0  0  0  0  0  0  0  0  0  0  0  0
    7.2725  -13.9428   18.6331 C   0  0  0  0  0  0  0  0  0  0  0  0
    7.4308  -12.5987   19.3736 C   0  0  0  0  0  0  0  0  0  0  0  0
    8.5274  -12.9571   20.3431 C   0  0  0  0  0  0  0  0  0  0  0  0
    9.3025  -14.0534   19.6536 C   0  0  1  0  0  0  0  0  0  0  0  0
    9.1282  -15.3128   20.4213 C   0  0  0  0  0  0  0  0  0  0  0  0
    8.4172  -16.2657   20.0103 O   0  0  0  0  0  0  0  0  0  0  0  0
   12.4890  -18.9936   19.6650 N   0  0  0  0  0  0  0  0  0  0  0  0
   13.1134  -17.8868   20.3059 C   0  0  0  0  0  0  0  0  0  0  0  0
   14.3184  -17.6434   20.0945 O   0  0  0  0  0  0  0  0  0  0  0  0
   12.3227  -17.0392   21.2157 C   0  0  0  0  0  0  0  0  0  0  0  0
   10.8993  -17.5138   21.2258 C   0  0  0  0  0  0  0  0  0  0  0  0
   10.0400  -16.7635   22.2194 C   0  0  2  0  0  0  0  0  0  0  0  0
    9.7856  -15.4501   21.6634 N   0  0  0  0  0  0  0  0  0  0  0  0
   10.6966  -16.6098   23.5266 C   0  0  0  0  0  0  0  0  0  0  0  0
   10.8902  -17.5966   24.2556 O   0  0  0  0  0  0  0  0  0  0  0  0
   11.0989  -15.3627   23.9437 O   0  0  0  0  0  0  0  0  0  0  0  0
  1  2  1  0
  2  3  2  0
  4  2  1  0
  5  4  1  0
  5  6  1  6
  7  5  1  0
  7  8  2  0
  9  7  1  0
 10  9  1  0
 11 10  1  0
 11 12  1  0
 12 13  1  0
 13  9  1  0
 13 14  1  1
 15 14  2  0
 16 17  1  0
 17 19  1  0
 18 17  2  0
 19 20  1  0
 21 20  1  6
 21 22  1  0
 21 23  1  0
 22 14  1  0
 23 25  1  0
 24 23  2  0
M  END
$$$$
