NPQ.pdb
     RDKit          3D

 25 25  0  0  1  0  0  0  0  0999 V2000
    7.1945  -17.2513   14.7290 N   0  0  0  0  0  0  0  0  0  0  0  0
    7.1869  -17.8087   16.0323 C   0  0  0  0  0  0  0  0  0  0  0  0
    6.4940  -18.8150   16.2625 O   0  0  0  0  0  0  0  0  0  0  0  0
    7.9872  -17.2198   17.1313 C   0  0  0  0  0  0  0  0  0  0  0  0
    8.6457  -15.9309   16.6736 C   0  0  2  0  0  0  0  0  0  0  0  0
    9.4949  -16.2361   15.5769 N   0  0  0  0  0  0  0  0  0  0  0  0
    9.3000  -15.2171   17.7574 C   0  0  0  0  0  0  0  0  0  0  0  0
   10.5828  -15.1748   17.7096 O   0  0  0  0  0  0  0  0  0  0  0  0
    8.6729  -14.5796   18.8349 N   0  0  0  0  0  0  0  0  0  0  0  0
    7.2963  -14.3739   19.1982 C   0  0  0  0  0  0  0  0  0  0  0  0
    7.3040  -12.8576   19.4830 C   0  0  0  0  0  0  0  0  0  0  0  0
    8.5116  -12.7619   20.3794 C   0  0  0  0  0  0  0  0  0  0  0  0
    9.3902  -13.9153   19.9598 C   0  0  1  0  0  0  0  0  0  0  0  0
    9.4666  -14.8861   21.0812 C   0  0  0  0  0  0  0  0  0  0  0  0
    8.5824  -15.7570   21.2868 O   0  0  0  0  0  0  0  0  0  0  0  0
   14.8544  -15.6378   23.7662 N   0  0  0  0  0  0  0  0  0  0  0  0
   14.5040  -15.9929   22.4331 C   0  0  0  0  0  0  0  0  0  0  0  0
   15.3970  -16.1660   21.5796 O   0  0  0  0  0  0  0  0  0  0  0  0
   13.0826  -16.1518   22.0782 C   0  0  0  0  0  0  0  0  0  0  0  0
   12.2364  -15.9014   23.2916 C   0  0  0  0  0  0  0  0  0  0  0  0
   10.7585  -15.8467   22.9725 C   0  0  2  0  0  0  0  0  0  0  0  0
   10.5750  -14.8326   21.9543 N   0  0  0  0  0  0  0  0  0  0  0  0
    9.9429  -15.4986   24.1459 C   0  0  0  0  0  0  0  0  0  0  0  0
    9.7603  -16.3248   25.0552 O   0  0  0  0  0  0  0  0  0  0  0  0
    9.3786  -14.2477   24.2356 O   0  0  0  0  0  0  0  0  0  0  0  0
  1  2  1  0
  2  3  2  0
  4  2  1  0
  5  4  1  0
  5  6  1  6
  7  5  1  0
  7  8  2  0
  9  7  1  0
 10  9  1  0
 11 10  1  0
 11 12  1  0
 12 13  1  0
 13  9  1  0
 13 14  1  1
 15 14  2  0
 16 17  1  0
 17 19  1  0
 18 17  2  0
 19 20  1  0
 21 20  1  1
 21 22  1  0
 21 23  1  0
 22 14  1  0
 23 25  1  0
 24 23  2  0
M  END
$$$$
