NPQ.pdb
     RDKit          3D

 25 25  0  0  1  0  0  0  0  0999 V2000
    9.3101  -17.8830   16.9874 N   0  0  0  0  0  0  0  0  0  0  0  0
    7.9485  -17.5215   16.8312 C   0  0  0  0  0  0  0  0  0  0  0  0
    7.0651  -18.3801   16.9996 O   0  0  0  0  0  0  0  0  0  0  0  0
    7.5500  -16.1407   16.4709 C   0  0  0  0  0  0  0  0  0  0  0  0
    8.7641  -15.2299   16.4456 C   0  0  2  0  0  0  0  0  0  0  0  0
    9.6889  -15.7556   15.5046 N   0  0  0  0  0  0  0  0  0  0  0  0
    9.3213  -14.9976   17.7677 C   0  0  0  0  0  0  0  0  0  0  0  0
   10.5288  -15.3967   17.9474 O   0  0  0  0  0  0  0  0  0  0  0  0
    8.6751  -14.3881   18.8501 N   0  0  0  0  0  0  0  0  0  0  0  0
    7.3404  -13.8919   19.0542 C   0  0  0  0  0  0  0  0  0  0  0  0
    7.6452  -12.4885   19.6180 C   0  0  0  0  0  0  0  0  0  0  0  0
    8.6622  -12.8410   20.6726 C   0  0  0  0  0  0  0  0  0  0  0  0
    9.3129  -14.1056   20.1671 C   0  0  1  0  0  0  0  0  0  0  0  0
    8.9626  -15.2192   21.0853 C   0  0  0  0  0  0  0  0  0  0  0  0
    8.1104  -16.0973   20.7935 O   0  0  0  0  0  0  0  0  0  0  0  0
   12.9576  -19.4975   22.0563 N   0  0  0  0  0  0  0  0  0  0  0  0
   12.6754  -18.2177   21.5011 C   0  0  0  0  0  0  0  0  0  0  0  0
   13.0462  -17.9465   20.3414 O   0  0  0  0  0  0  0  0  0  0  0  0
   11.9448  -17.2254   22.3092 C   0  0  0  0  0  0  0  0  0  0  0  0
   10.4750  -17.5204   22.2489 C   0  0  0  0  0  0  0  0  0  0  0  0
    9.6501  -16.5505   23.0661 C   0  0  2  0  0  0  0  0  0  0  0  0
    9.6100  -15.2990   22.3376 N   0  0  0  0  0  0  0  0  0  0  0  0
   10.2238  -16.3093   24.3989 C   0  0  0  0  0  0  0  0  0  0  0  0
   10.2452  -17.2137   25.2499 O   0  0  0  0  0  0  0  0  0  0  0  0
   10.7403  -15.0718   24.7036 O   0  0  0  0  0  0  0  0  0  0  0  0
  1  2  1  0
  2  3  2  0
  4  2  1  0
  5  4  1  0
  5  6  1  6
  7  5  1  0
  7  8  2  0
  9  7  1  0
 10  9  1  0
 11 10  1  0
 11 12  1  0
 12 13  1  0
 13  9  1  0
 13 14  1  1
 15 14  2  0
 16 17  1  0
 17 19  1  0
 18 17  2  0
 19 20  1  0
 21 20  1  6
 21 22  1  0
 21 23  1  0
 22 14  1  0
 23 25  1  0
 24 23  2  0
M  END
$$$$
