NPQ.pdb
     RDKit          3D

 25 25  0  0  1  0  0  0  0  0999 V2000
    9.5114  -18.2899   16.4718 N   0  0  0  0  0  0  0  0  0  0  0  0
    9.1761  -17.3713   15.4457 C   0  0  0  0  0  0  0  0  0  0  0  0
    9.6010  -17.5610   14.2928 O   0  0  0  0  0  0  0  0  0  0  0  0
    8.3286  -16.1859   15.7138 C   0  0  0  0  0  0  0  0  0  0  0  0
    9.1637  -14.9190   15.6722 C   0  0  2  0  0  0  0  0  0  0  0  0
   10.1867  -15.0979   14.7034 N   0  0  0  0  0  0  0  0  0  0  0  0
    9.6444  -14.5181   16.9840 C   0  0  0  0  0  0  0  0  0  0  0  0
   10.9200  -14.4735   17.1263 O   0  0  0  0  0  0  0  0  0  0  0  0
    8.8590  -14.1805   18.0930 N   0  0  0  0  0  0  0  0  0  0  0  0
    7.4421  -14.0361   18.2953 C   0  0  0  0  0  0  0  0  0  0  0  0
    7.3956  -12.6578   18.9867 C   0  0  0  0  0  0  0  0  0  0  0  0
    8.4556  -12.8530   20.0399 C   0  0  0  0  0  0  0  0  0  0  0  0
    9.3958  -13.8756   19.4494 C   0  0  1  0  0  0  0  0  0  0  0  0
    9.3121  -15.1192   20.2571 C   0  0  0  0  0  0  0  0  0  0  0  0
    8.6861  -16.1394   19.8699 O   0  0  0  0  0  0  0  0  0  0  0  0
   13.8171  -14.1848   18.7480 N   0  0  0  0  0  0  0  0  0  0  0  0
   14.3581  -15.1339   19.6603 C   0  0  0  0  0  0  0  0  0  0  0  0
   15.4220  -15.7248   19.3864 O   0  0  0  0  0  0  0  0  0  0  0  0
   13.6494  -15.4065   20.9232 C   0  0  0  0  0  0  0  0  0  0  0  0
   12.2284  -14.9394   20.8065 C   0  0  0  0  0  0  0  0  0  0  0  0
   11.2719  -15.7633   21.6403 C   0  0  2  0  0  0  0  0  0  0  0  0
    9.9601  -15.1623   21.5109 N   0  0  0  0  0  0  0  0  0  0  0  0
   11.6466  -15.7907   23.0624 C   0  0  0  0  0  0  0  0  0  0  0  0
   11.4254  -14.8104   23.7923 O   0  0  0  0  0  0  0  0  0  0  0  0
   12.2467  -16.9115   23.5865 O   0  0  0  0  0  0  0  0  0  0  0  0
  1  2  1  0
  2  3  2  0
  4  2  1  0
  5  4  1  0
  5  6  1  6
  7  5  1  0
  7  8  2  0
  9  7  1  0
 10  9  1  0
 11 10  1  0
 11 12  1  0
 12 13  1  0
 13  9  1  0
 13 14  1  1
 15 14  2  0
 16 17  1  0
 17 19  1  0
 18 17  2  0
 19 20  1  0
 21 20  1  6
 21 22  1  0
 21 23  1  0
 22 14  1  0
 23 25  1  0
 24 23  2  0
M  END
$$$$
