NPQ.pdb
     RDKit          3D

 25 25  0  0  1  0  0  0  0  0999 V2000
    6.6733  -17.6814   20.6062 N   0  0  0  0  0  0  0  0  0  0  0  0
    6.2808  -16.5804   21.4081 C   0  0  0  0  0  0  0  0  0  0  0  0
    5.2327  -15.9694   21.1364 O   0  0  0  0  0  0  0  0  0  0  0  0
    7.0916  -16.1377   22.5665 C   0  0  0  0  0  0  0  0  0  0  0  0
    7.4582  -14.6714   22.4254 C   0  0  2  0  0  0  0  0  0  0  0  0
    8.0597  -14.4889   21.1519 N   0  0  0  0  0  0  0  0  0  0  0  0
    8.2524  -14.1799   23.5390 C   0  0  0  0  0  0  0  0  0  0  0  0
    9.5195  -14.1132   23.3403 O   0  0  0  0  0  0  0  0  0  0  0  0
    7.7736  -13.7776   24.7919 N   0  0  0  0  0  0  0  0  0  0  0  0
    6.4554  -13.6529   25.3542 C   0  0  0  0  0  0  0  0  0  0  0  0
    6.5325  -12.2271   25.9385 C   0  0  0  0  0  0  0  0  0  0  0  0
    7.8404  -12.3151   26.6818 C   0  0  0  0  0  0  0  0  0  0  0  0
    8.6354  -13.3567   25.9325 C   0  0  1  0  0  0  0  0  0  0  0  0
    8.8226  -14.5364   26.8151 C   0  0  0  0  0  0  0  0  0  0  0  0
    7.8970  -15.3508   27.0653 O   0  0  0  0  0  0  0  0  0  0  0  0
   13.9434  -17.5127   26.4811 N   0  0  0  0  0  0  0  0  0  0  0  0
   12.8602  -17.3859   25.5667 C   0  0  0  0  0  0  0  0  0  0  0  0
   13.0211  -17.6821   24.3657 O   0  0  0  0  0  0  0  0  0  0  0  0
   11.5560  -16.9037   26.0548 C   0  0  0  0  0  0  0  0  0  0  0  0
   11.6727  -16.5374   27.5051 C   0  0  0  0  0  0  0  0  0  0  0  0
   10.3791  -16.0024   28.0788 C   0  0  2  0  0  0  0  0  0  0  0  0
   10.0892  -14.7564   27.3990 N   0  0  0  0  0  0  0  0  0  0  0  0
   10.4685  -15.7482   29.5248 C   0  0  0  0  0  0  0  0  0  0  0  0
   10.4532  -14.5863   29.9634 O   0  0  0  0  0  0  0  0  0  0  0  0
   10.5698  -16.8066   30.3968 O   0  0  0  0  0  0  0  0  0  0  0  0
  1  2  1  0
  2  3  2  0
  4  2  1  0
  5  4  1  0
  5  6  1  6
  7  5  1  0
  7  8  2  0
  9  7  1  0
 10  9  1  0
 11 10  1  0
 11 12  1  0
 12 13  1  0
 13  9  1  0
 13 14  1  1
 15 14  2  0
 16 17  1  0
 17 19  1  0
 18 17  2  0
 19 20  1  0
 21 20  1  6
 21 22  1  0
 21 23  1  0
 22 14  1  0
 23 25  1  0
 24 23  2  0
M  END
$$$$
