NPQ.pdb
     RDKit          3D

 25 25  0  0  1  0  0  0  0  0999 V2000
    8.5550  -19.2519   15.5754 N   0  0  0  0  0  0  0  0  0  0  0  0
    8.1144  -17.9711   15.9935 C   0  0  0  0  0  0  0  0  0  0  0  0
    7.4052  -17.2904   15.2324 O   0  0  0  0  0  0  0  0  0  0  0  0
    8.4794  -17.4212   17.3200 C   0  0  0  0  0  0  0  0  0  0  0  0
    9.2599  -16.1292   17.1598 C   0  0  2  0  0  0  0  0  0  0  0  0
   10.3774  -16.3910   16.3233 N   0  0  0  0  0  0  0  0  0  0  0  0
    9.5956  -15.5127   18.4325 C   0  0  0  0  0  0  0  0  0  0  0  0
   10.8155  -15.6385   18.8142 O   0  0  0  0  0  0  0  0  0  0  0  0
    8.7267  -14.8040   19.2712 N   0  0  0  0  0  0  0  0  0  0  0  0
    7.3488  -14.4060   19.1597 C   0  0  0  0  0  0  0  0  0  0  0  0
    7.4579  -12.9102   19.5215 C   0  0  0  0  0  0  0  0  0  0  0  0
    8.2861  -13.0004   20.7772 C   0  0  0  0  0  0  0  0  0  0  0  0
    9.0954  -14.2635   20.6102 C   0  0  1  0  0  0  0  0  0  0  0  0
    8.6541  -15.2482   21.6306 C   0  0  0  0  0  0  0  0  0  0  0  0
    7.8157  -16.1529   21.3833 O   0  0  0  0  0  0  0  0  0  0  0  0
   12.4301  -17.9103   20.7247 N   0  0  0  0  0  0  0  0  0  0  0  0
   12.6355  -18.3817   22.0519 C   0  0  0  0  0  0  0  0  0  0  0  0
   13.4626  -19.2898   22.2692 O   0  0  0  0  0  0  0  0  0  0  0  0
   11.8635  -17.7866   23.1570 C   0  0  0  0  0  0  0  0  0  0  0  0
   11.0488  -16.6406   22.6334 C   0  0  0  0  0  0  0  0  0  0  0  0
    9.8680  -16.3099   23.5196 C   0  0  2  0  0  0  0  0  0  0  0  0
    9.1951  -15.1692   22.9325 N   0  0  0  0  0  0  0  0  0  0  0  0
   10.2733  -15.9710   24.8923 C   0  0  0  0  0  0  0  0  0  0  0  0
   10.6358  -16.8595   25.6809 O   0  0  0  0  0  0  0  0  0  0  0  0
   10.2503  -14.6593   25.3044 O   0  0  0  0  0  0  0  0  0  0  0  0
  1  2  1  0
  2  3  2  0
  4  2  1  0
  5  4  1  0
  5  6  1  1
  7  5  1  0
  7  8  2  0
  9  7  1  0
 10  9  1  0
 11 10  1  0
 11 12  1  0
 12 13  1  0
 13  9  1  0
 13 14  1  1
 15 14  2  0
 16 17  1  0
 17 19  1  0
 18 17  2  0
 19 20  1  0
 21 20  1  6
 21 22  1  0
 21 23  1  0
 22 14  1  0
 23 25  1  0
 24 23  2  0
M  END
$$$$
