NPQ.pdb
     RDKit          3D

 25 25  0  0  1  0  0  0  0  0999 V2000
    7.7925  -19.6515   16.2514 N   0  0  0  0  0  0  0  0  0  0  0  0
    7.2712  -18.4410   16.7731 C   0  0  0  0  0  0  0  0  0  0  0  0
    6.2538  -17.9428   16.2607 O   0  0  0  0  0  0  0  0  0  0  0  0
    7.9108  -17.7519   17.9182 C   0  0  0  0  0  0  0  0  0  0  0  0
    8.6790  -16.5334   17.4395 C   0  0  2  0  0  0  0  0  0  0  0  0
    9.6442  -16.9660   16.4917 N   0  0  0  0  0  0  0  0  0  0  0  0
    9.2241  -15.7460   18.5328 C   0  0  0  0  0  0  0  0  0  0  0  0
   10.4767  -15.9029   18.7693 O   0  0  0  0  0  0  0  0  0  0  0  0
    8.5223  -14.8445   19.3425 N   0  0  0  0  0  0  0  0  0  0  0  0
    7.1609  -14.3801   19.3572 C   0  0  0  0  0  0  0  0  0  0  0  0
    7.3845  -12.8549   19.4197 C   0  0  0  0  0  0  0  0  0  0  0  0
    8.3898  -12.7795   20.5398 C   0  0  0  0  0  0  0  0  0  0  0  0
    9.1121  -14.1040   20.4935 C   0  0  1  0  0  0  0  0  0  0  0  0
    8.7914  -14.8628   21.7293 C   0  0  0  0  0  0  0  0  0  0  0  0
    7.6208  -15.2162   22.0245 O   0  0  0  0  0  0  0  0  0  0  0  0
   11.1964  -19.5586   23.9375 N   0  0  0  0  0  0  0  0  0  0  0  0
   11.6287  -18.8935   22.7557 C   0  0  0  0  0  0  0  0  0  0  0  0
   12.6546  -19.2822   22.1621 O   0  0  0  0  0  0  0  0  0  0  0  0
   10.8532  -17.7482   22.2473 C   0  0  0  0  0  0  0  0  0  0  0  0
    9.6600  -17.5251   23.1291 C   0  0  0  0  0  0  0  0  0  0  0  0
    9.6114  -16.1265   23.7040 C   0  0  2  0  0  0  0  0  0  0  0  0
    9.8402  -15.2034   22.6112 N   0  0  0  0  0  0  0  0  0  0  0  0
   10.6358  -15.9077   24.7367 C   0  0  0  0  0  0  0  0  0  0  0  0
   10.5537  -16.4767   25.8377 O   0  0  0  0  0  0  0  0  0  0  0  0
   11.6924  -15.0661   24.4794 O   0  0  0  0  0  0  0  0  0  0  0  0
  1  2  1  0
  2  3  2  0
  4  2  1  0
  5  4  1  0
  5  6  1  6
  7  5  1  0
  7  8  2  0
  9  7  1  0
 10  9  1  0
 11 10  1  0
 11 12  1  0
 12 13  1  0
 13  9  1  0
 13 14  1  1
 15 14  2  0
 16 17  1  0
 17 19  1  0
 18 17  2  0
 19 20  1  0
 21 20  1  6
 21 22  1  0
 21 23  1  0
 22 14  1  0
 23 25  1  0
 24 23  2  0
M  END
$$$$
