NPQ.pdb
     RDKit          3D

 25 25  0  0  1  0  0  0  0  0999 V2000
    9.8164  -17.0346   15.3286 N   0  0  0  0  0  0  0  0  0  0  0  0
    8.4919  -17.3174   15.7471 C   0  0  0  0  0  0  0  0  0  0  0  0
    8.1600  -18.4945   15.9707 O   0  0  0  0  0  0  0  0  0  0  0  0
    7.4893  -16.2412   15.9254 C   0  0  0  0  0  0  0  0  0  0  0  0
    8.0988  -14.8911   15.5936 C   0  0  2  0  0  0  0  0  0  0  0  0
    8.6367  -14.9617   14.2811 N   0  0  0  0  0  0  0  0  0  0  0  0
    9.0397  -14.4347   16.6029 C   0  0  0  0  0  0  0  0  0  0  0  0
   10.2541  -14.2840   16.2129 O   0  0  0  0  0  0  0  0  0  0  0  0
    8.7519  -14.1478   17.9429 N   0  0  0  0  0  0  0  0  0  0  0  0
    7.5567  -14.2338   18.7388 C   0  0  0  0  0  0  0  0  0  0  0  0
    7.5462  -12.8320   19.3832 C   0  0  0  0  0  0  0  0  0  0  0  0
    8.9691  -12.7544   19.8734 C   0  0  0  0  0  0  0  0  0  0  0  0
    9.7452  -13.6446   18.9334 C   0  0  1  0  0  0  0  0  0  0  0  0
   10.2520  -14.8134   19.6967 C   0  0  0  0  0  0  0  0  0  0  0  0
    9.8362  -15.9844   19.5009 O   0  0  0  0  0  0  0  0  0  0  0  0
   14.7278  -16.8613   18.0099 N   0  0  0  0  0  0  0  0  0  0  0  0
   14.8138  -15.4909   18.3846 C   0  0  0  0  0  0  0  0  0  0  0  0
   15.6487  -14.7458   17.8334 O   0  0  0  0  0  0  0  0  0  0  0  0
   13.9100  -14.9687   19.4248 C   0  0  0  0  0  0  0  0  0  0  0  0
   12.9420  -16.0424   19.8267 C   0  0  0  0  0  0  0  0  0  0  0  0
   12.1418  -15.6770   21.0576 C   0  0  2  0  0  0  0  0  0  0  0  0
   11.2407  -14.6061   20.6833 N   0  0  0  0  0  0  0  0  0  0  0  0
   12.9936  -15.2191   22.1659 C   0  0  0  0  0  0  0  0  0  0  0  0
   13.1085  -14.0077   22.4147 O   0  0  0  0  0  0  0  0  0  0  0  0
   13.6676  -16.1411   22.9319 O   0  0  0  0  0  0  0  0  0  0  0  0
  1  2  1  0
  2  3  2  0
  4  2  1  0
  5  4  1  0
  5  6  1  6
  7  5  1  0
  7  8  2  0
  9  7  1  0
 10  9  1  0
 11 10  1  0
 11 12  1  0
 12 13  1  0
 13  9  1  0
 13 14  1  1
 15 14  2  0
 16 17  1  0
 17 19  1  0
 18 17  2  0
 19 20  1  0
 21 20  1  6
 21 22  1  0
 21 23  1  0
 22 14  1  0
 23 25  1  0
 24 23  2  0
M  END
$$$$
