NPQ.pdb
     RDKit          3D

 25 25  0  0  1  0  0  0  0  0999 V2000
    3.2490  -18.8011   20.3283 N   0  0  0  0  0  0  0  0  0  0  0  0
    3.6833  -18.3180   21.5882 C   0  0  0  0  0  0  0  0  0  0  0  0
    2.9324  -18.4205   22.5739 O   0  0  0  0  0  0  0  0  0  0  0  0
    5.0148  -17.6915   21.7606 C   0  0  0  0  0  0  0  0  0  0  0  0
    5.6959  -17.5193   20.4151 C   0  0  2  0  0  0  0  0  0  0  0  0
    5.7080  -18.7810   19.7632 N   0  0  0  0  0  0  0  0  0  0  0  0
    7.0005  -16.8872   20.5210 C   0  0  0  0  0  0  0  0  0  0  0  0
    8.0145  -17.6650   20.3931 O   0  0  0  0  0  0  0  0  0  0  0  0
    7.2535  -15.5286   20.7468 N   0  0  0  0  0  0  0  0  0  0  0  0
    6.4056  -14.3799   20.9225 C   0  0  0  0  0  0  0  0  0  0  0  0
    7.0491  -13.3994   19.9202 C   0  0  0  0  0  0  0  0  0  0  0  0
    8.4987  -13.5354   20.3088 C   0  0  0  0  0  0  0  0  0  0  0  0
    8.6123  -14.9302   20.8745 C   0  0  1  0  0  0  0  0  0  0  0  0
    8.9265  -14.8307   22.3227 C   0  0  0  0  0  0  0  0  0  0  0  0
    8.0734  -14.4854   23.1803 O   0  0  0  0  0  0  0  0  0  0  0  0
    6.6848  -18.2853   25.8777 N   0  0  0  0  0  0  0  0  0  0  0  0
    8.0757  -18.0264   25.7217 C   0  0  0  0  0  0  0  0  0  0  0  0
    8.9086  -18.9150   25.9909 O   0  0  0  0  0  0  0  0  0  0  0  0
    8.5144  -16.7041   25.2414 C   0  0  0  0  0  0  0  0  0  0  0  0
    9.6547  -16.8772   24.2817 C   0  0  0  0  0  0  0  0  0  0  0  0
   10.4678  -15.6135   24.1060 C   0  0  2  0  0  0  0  0  0  0  0  0
   10.2345  -15.1351   22.7586 N   0  0  0  0  0  0  0  0  0  0  0  0
   11.9092  -15.8431   24.2886 C   0  0  0  0  0  0  0  0  0  0  0  0
   12.6436  -16.0546   23.3095 O   0  0  0  0  0  0  0  0  0  0  0  0
   12.4465  -15.8230   25.5543 O   0  0  0  0  0  0  0  0  0  0  0  0
  1  2  1  0
  2  3  2  0
  4  2  1  0
  5  4  1  0
  5  6  1  1
  7  5  1  0
  7  8  2  0
  9  7  1  0
 10  9  1  0
 11 10  1  0
 11 12  1  0
 12 13  1  0
 13  9  1  0
 13 14  1  1
 15 14  2  0
 16 17  1  0
 17 19  1  0
 18 17  2  0
 19 20  1  0
 21 20  1  6
 21 22  1  0
 21 23  1  0
 22 14  1  0
 23 25  1  0
 24 23  2  0
M  END
$$$$
