NPQ.pdb
     RDKit          3D

 25 25  0  0  1  0  0  0  0  0999 V2000
   11.2558  -15.7027   14.0544 N   0  0  0  0  0  0  0  0  0  0  0  0
   10.7336  -16.6123   15.0078 C   0  0  0  0  0  0  0  0  0  0  0  0
   10.3844  -17.7480   14.6416 O   0  0  0  0  0  0  0  0  0  0  0  0
   10.5930  -16.2422   16.4356 C   0  0  0  0  0  0  0  0  0  0  0  0
   10.9521  -14.7816   16.6406 C   0  0  2  0  0  0  0  0  0  0  0  0
   12.2428  -14.5642   16.0892 N   0  0  0  0  0  0  0  0  0  0  0  0
   10.8119  -14.3560   18.0233 C   0  0  0  0  0  0  0  0  0  0  0  0
   11.9063  -14.1268   18.6551 O   0  0  0  0  0  0  0  0  0  0  0  0
    9.6125  -14.1748   18.7229 N   0  0  0  0  0  0  0  0  0  0  0  0
    8.2261  -14.2868   18.3560 C   0  0  0  0  0  0  0  0  0  0  0  0
    7.6838  -12.9458   18.8924 C   0  0  0  0  0  0  0  0  0  0  0  0
    8.2673  -12.9600   20.2817 C   0  0  0  0  0  0  0  0  0  0  0  0
    9.5202  -13.7930   20.1605 C   0  0  1  0  0  0  0  0  0  0  0  0
    9.3390  -15.0398   20.9469 C   0  0  0  0  0  0  0  0  0  0  0  0
    8.9596  -16.1210   20.4277 O   0  0  0  0  0  0  0  0  0  0  0  0
   14.7272  -15.0106   21.7663 N   0  0  0  0  0  0  0  0  0  0  0  0
   14.2343  -16.2706   22.2081 C   0  0  0  0  0  0  0  0  0  0  0  0
   14.8189  -17.3203   21.8730 O   0  0  0  0  0  0  0  0  0  0  0  0
   13.0331  -16.3173   23.0604 C   0  0  0  0  0  0  0  0  0  0  0  0
   11.9267  -15.5465   22.4026 C   0  0  0  0  0  0  0  0  0  0  0  0
   10.5579  -15.9337   22.9177 C   0  0  2  0  0  0  0  0  0  0  0  0
    9.6021  -15.0147   22.3340 N   0  0  0  0  0  0  0  0  0  0  0  0
   10.4655  -15.8518   24.3834 C   0  0  0  0  0  0  0  0  0  0  0  0
   11.0669  -16.6685   25.1004 O   0  0  0  0  0  0  0  0  0  0  0  0
    9.7066  -14.8624   24.9632 O   0  0  0  0  0  0  0  0  0  0  0  0
  1  2  1  0
  2  3  2  0
  4  2  1  0
  5  4  1  0
  5  6  1  1
  7  5  1  0
  7  8  2  0
  9  7  1  0
 10  9  1  0
 11 10  1  0
 11 12  1  0
 12 13  1  0
 13  9  1  0
 13 14  1  1
 15 14  2  0
 16 17  1  0
 17 19  1  0
 18 17  2  0
 19 20  1  0
 21 20  1  1
 21 22  1  0
 21 23  1  0
 22 14  1  0
 23 25  1  0
 24 23  2  0
M  END
$$$$
