CQT.pdb
     RDKit          3D

 23 22  0  0  1  0  0  0  0  0999 V2000
    7.2678  -15.1095   18.9697 N   0  0  0  0  0  0  0  0  0  0  0  0
    8.2736  -14.5274   19.8203 C   0  0  1  0  0  0  0  0  0  0  0  0
    7.9271  -13.0398   19.9387 C   0  0  0  0  0  0  0  0  0  0  0  0
    8.1634  -12.2056   18.3464 S   0  0  0  0  0  0  0  0  0  0  0  0
    8.2998  -15.1234   21.1665 C   0  0  0  0  0  0  0  0  0  0  0  0
    7.1909  -15.4051   21.7018 O   0  0  0  0  0  0  0  0  0  0  0  0
    9.1355  -19.3062   23.7633 N   0  0  0  0  0  0  0  0  0  0  0  0
    9.7964  -19.2070   22.4906 C   0  0  0  0  0  0  0  0  0  0  0  0
    9.5740  -20.1464   21.6962 O   0  0  0  0  0  0  0  0  0  0  0  0
   10.6698  -18.0582   22.1886 C   0  0  0  0  0  0  0  0  0  0  0  0
   10.6362  -17.0376   23.2801 C   0  0  0  0  0  0  0  0  0  0  0  0
    9.4810  -16.1227   23.1774 C   0  0  2  0  0  0  0  0  0  0  0  0
    9.4625  -15.4032   21.9020 N   0  0  0  0  0  0  0  0  0  0  0  0
    9.5061  -15.1359   24.3049 C   0  0  0  0  0  0  0  0  0  0  0  0
   10.3707  -14.2600   24.4290 O   0  0  0  0  0  0  0  0  0  0  0  0
    7.0341  -12.5258   25.5063 C   0  0  0  0  0  0  0  0  0  0  0  0
    7.2028  -13.5345   26.6363 C   0  0  1  0  0  0  0  0  0  0  0  0
    6.1235  -14.4512   26.5461 O   0  0  0  0  0  0  0  0  0  0  0  0
    8.5119  -14.2319   26.4074 C   0  0  2  0  0  0  0  0  0  0  0  0
    8.5043  -15.1586   25.3213 N   0  0  0  0  0  0  0  0  0  0  0  0
    8.9208  -14.8911   27.6876 C   0  0  0  0  0  0  0  0  0  0  0  0
    9.1041  -14.2356   28.8852 O   0  0  0  0  0  0  0  0  0  0  0  0
    9.1274  -16.1523   27.7224 O   0  0  0  0  0  0  0  0  0  0  0  0
  2  3  1  0
  2  1  1  6
  2  5  1  0
  3  4  1  0
  5  6  2  0
  7  8  1  0
  8  9  2  0
 10  8  1  0
 10 11  1  0
 12 11  1  6
 12 14  1  0
 13  5  1  0
 13 12  1  0
 14 20  1  0
 14 15  2  0
 17 16  1  6
 17 19  1  0
 18 17  1  0
 19 21  1  0
 19 20  1  6
 21 23  2  0
 21 22  1  0
M  END
$$$$
