CQT.pdb
     RDKit          3D

 23 22  0  0  1  0  0  0  0  0999 V2000
    8.2033  -14.3151   16.2144 N   0  0  0  0  0  0  0  0  0  0  0  0
    9.1895  -13.5945   16.9773 C   0  0  1  0  0  0  0  0  0  0  0  0
    8.4200  -12.5623   17.8075 C   0  0  0  0  0  0  0  0  0  0  0  0
    7.3114  -13.3907   18.9788 S   0  0  0  0  0  0  0  0  0  0  0  0
    9.9591  -14.4632   17.8837 C   0  0  0  0  0  0  0  0  0  0  0  0
    9.4863  -15.6067   18.1374 O   0  0  0  0  0  0  0  0  0  0  0  0
   15.9934  -13.8785   18.3831 N   0  0  0  0  0  0  0  0  0  0  0  0
   15.3538  -14.8361   17.5227 C   0  0  0  0  0  0  0  0  0  0  0  0
   16.0806  -15.3249   16.6305 O   0  0  0  0  0  0  0  0  0  0  0  0
   13.9343  -15.1847   17.7158 C   0  0  0  0  0  0  0  0  0  0  0  0
   13.4490  -14.7902   19.0733 C   0  0  0  0  0  0  0  0  0  0  0  0
   12.0065  -15.0438   19.2651 C   0  0  2  0  0  0  0  0  0  0  0  0
   11.1785  -14.1189   18.4882 N   0  0  0  0  0  0  0  0  0  0  0  0
   11.6536  -14.9279   20.7170 C   0  0  0  0  0  0  0  0  0  0  0  0
   12.2281  -14.1639   21.5022 O   0  0  0  0  0  0  0  0  0  0  0  0
    8.3357  -14.1107   22.2380 C   0  0  0  0  0  0  0  0  0  0  0  0
    8.7439  -15.4374   22.8674 C   0  0  1  0  0  0  0  0  0  0  0  0
    8.0313  -16.4608   22.1905 O   0  0  0  0  0  0  0  0  0  0  0  0
   10.2215  -15.5873   22.6509 C   0  0  2  0  0  0  0  0  0  0  0  0
   10.6067  -15.7163   21.2822 N   0  0  0  0  0  0  0  0  0  0  0  0
   10.6983  -16.7484   23.4664 C   0  0  0  0  0  0  0  0  0  0  0  0
   11.3447  -17.8532   22.9574 O   0  0  0  0  0  0  0  0  0  0  0  0
   10.5150  -16.7623   24.7316 O   0  0  0  0  0  0  0  0  0  0  0  0
  2  3  1  0
  2  1  1  1
  2  5  1  0
  3  4  1  0
  5  6  2  0
  7  8  1  0
  8  9  2  0
 10  8  1  0
 10 11  1  0
 12 11  1  1
 12 14  1  0
 13  5  1  0
 13 12  1  0
 14 20  1  0
 14 15  2  0
 17 16  1  6
 17 19  1  0
 18 17  1  0
 19 21  1  0
 19 20  1  6
 21 23  2  0
 21 22  1  0
M  END
$$$$
