CQT.pdb
     RDKit          3D

 23 22  0  0  1  0  0  0  0  0999 V2000
    7.5375  -15.3206   18.2026 N   0  0  0  0  0  0  0  0  0  0  0  0
    8.2304  -14.5225   19.1808 C   0  0  1  0  0  0  0  0  0  0  0  0
    7.6483  -13.1095   19.0723 C   0  0  0  0  0  0  0  0  0  0  0  0
    8.3906  -12.0212   20.3180 S   0  0  0  0  0  0  0  0  0  0  0  0
    8.0448  -15.0143   20.5563 C   0  0  0  0  0  0  0  0  0  0  0  0
    6.8932  -15.4189   20.8812 O   0  0  0  0  0  0  0  0  0  0  0  0
   11.7116  -18.8828   23.3640 N   0  0  0  0  0  0  0  0  0  0  0  0
   10.7420  -18.6577   24.4011 C   0  0  0  0  0  0  0  0  0  0  0  0
   10.8082  -19.4379   25.3757 O   0  0  0  0  0  0  0  0  0  0  0  0
    9.7544  -17.5698   24.2787 C   0  0  0  0  0  0  0  0  0  0  0  0
    9.9096  -16.8259   22.9916 C   0  0  0  0  0  0  0  0  0  0  0  0
    8.9116  -15.7497   22.8247 C   0  0  2  0  0  0  0  0  0  0  0  0
    9.0494  -15.0685   21.5356 N   0  0  0  0  0  0  0  0  0  0  0  0
    9.0452  -14.7496   23.9326 C   0  0  0  0  0  0  0  0  0  0  0  0
    9.9691  -13.9305   24.0077 O   0  0  0  0  0  0  0  0  0  0  0  0
    6.4144  -12.1941   25.2579 C   0  0  0  0  0  0  0  0  0  0  0  0
    6.8350  -13.1102   26.4011 C   0  0  1  0  0  0  0  0  0  0  0  0
    5.8445  -14.1195   26.5172 O   0  0  0  0  0  0  0  0  0  0  0  0
    8.1581  -13.7066   26.0187 C   0  0  2  0  0  0  0  0  0  0  0  0
    8.0850  -14.6909   24.9870 N   0  0  0  0  0  0  0  0  0  0  0  0
    8.7989  -14.2550   27.2552 C   0  0  0  0  0  0  0  0  0  0  0  0
    9.0698  -13.5233   28.3904 O   0  0  0  0  0  0  0  0  0  0  0  0
    9.1381  -15.4865   27.3100 O   0  0  0  0  0  0  0  0  0  0  0  0
  2  3  1  0
  2  1  1  6
  2  5  1  0
  3  4  1  0
  5  6  2  0
  7  8  1  0
  8  9  2  0
 10  8  1  0
 10 11  1  0
 12 11  1  1
 12 14  1  0
 13  5  1  0
 13 12  1  0
 14 20  1  0
 14 15  2  0
 17 16  1  6
 17 19  1  0
 18 17  1  0
 19 21  1  0
 19 20  1  6
 21 23  2  0
 21 22  1  0
M  END
$$$$
