CQT.pdb
     RDKit          3D

 23 22  0  0  1  0  0  0  0  0999 V2000
    7.0678  -17.1841   19.1488 N   0  0  0  0  0  0  0  0  0  0  0  0
    7.7413  -16.2654   20.0299 C   0  0  1  0  0  0  0  0  0  0  0  0
    7.7688  -14.9165   19.3041 C   0  0  0  0  0  0  0  0  0  0  0  0
    8.4915  -13.6391   20.3685 S   0  0  0  0  0  0  0  0  0  0  0  0
    7.0530  -16.1023   21.3214 C   0  0  0  0  0  0  0  0  0  0  0  0
    5.8058  -15.9039   21.2972 O   0  0  0  0  0  0  0  0  0  0  0  0
    6.7623  -19.8340   25.6855 N   0  0  0  0  0  0  0  0  0  0  0  0
    8.0302  -19.1567   25.6818 C   0  0  0  0  0  0  0  0  0  0  0  0
    8.9702  -19.7752   26.2268 O   0  0  0  0  0  0  0  0  0  0  0  0
    8.1644  -17.8232   25.0673 C   0  0  0  0  0  0  0  0  0  0  0  0
    6.8542  -17.3167   24.5565 C   0  0  0  0  0  0  0  0  0  0  0  0
    6.9713  -16.0215   23.8560 C   0  0  2  0  0  0  0  0  0  0  0  0
    7.6760  -16.1501   22.5787 N   0  0  0  0  0  0  0  0  0  0  0  0
    7.6894  -15.0322   24.7229 C   0  0  0  0  0  0  0  0  0  0  0  0
    8.9053  -14.8159   24.6523 O   0  0  0  0  0  0  0  0  0  0  0  0
    6.4684  -11.1805   26.1249 C   0  0  0  0  0  0  0  0  0  0  0  0
    6.7098  -12.2903   27.1412 C   0  0  1  0  0  0  0  0  0  0  0  0
    5.4530  -12.8886   27.4169 O   0  0  0  0  0  0  0  0  0  0  0  0
    7.6379  -13.2783   26.4970 C   0  0  2  0  0  0  0  0  0  0  0  0
    6.9853  -14.2684   25.7017 N   0  0  0  0  0  0  0  0  0  0  0  0
    8.4755  -13.9015   27.5696 C   0  0  0  0  0  0  0  0  0  0  0  0
    9.2117  -13.1998   28.4987 O   0  0  0  0  0  0  0  0  0  0  0  0
    8.5454  -15.1740   27.6712 O   0  0  0  0  0  0  0  0  0  0  0  0
  2  3  1  0
  2  1  1  6
  2  5  1  0
  3  4  1  0
  5  6  2  0
  7  8  1  0
  8  9  2  0
 10  8  1  0
 10 11  1  0
 12 11  1  1
 12 14  1  0
 13  5  1  0
 13 12  1  0
 14 20  1  0
 14 15  2  0
 17 16  1  6
 17 19  1  0
 18 17  1  0
 19 21  1  0
 19 20  1  1
 21 23  2  0
 21 22  1  0
M  END
$$$$
