CQT.pdb
     RDKit          3D

 23 22  0  0  1  0  0  0  0  0999 V2000
    6.9102  -17.3295   19.2218 N   0  0  0  0  0  0  0  0  0  0  0  0
    7.5379  -16.3416   20.0609 C   0  0  1  0  0  0  0  0  0  0  0  0
    7.4542  -15.0153   19.2988 C   0  0  0  0  0  0  0  0  0  0  0  0
    8.1299  -13.6646   20.3019 S   0  0  0  0  0  0  0  0  0  0  0  0
    6.8701  -16.1900   21.3644 C   0  0  0  0  0  0  0  0  0  0  0  0
    5.6092  -16.2621   21.3862 O   0  0  0  0  0  0  0  0  0  0  0  0
    8.8507  -19.7907   26.3510 N   0  0  0  0  0  0  0  0  0  0  0  0
    7.7813  -19.1476   25.6375 C   0  0  0  0  0  0  0  0  0  0  0  0
    6.7200  -19.8036   25.5564 O   0  0  0  0  0  0  0  0  0  0  0  0
    7.9703  -17.8061   25.0557 C   0  0  0  0  0  0  0  0  0  0  0  0
    6.7003  -17.2719   24.4764 C   0  0  0  0  0  0  0  0  0  0  0  0
    6.8573  -15.9262   23.8879 C   0  0  2  0  0  0  0  0  0  0  0  0
    7.5265  -15.9712   22.5861 N   0  0  0  0  0  0  0  0  0  0  0  0
    7.6369  -15.0470   24.8179 C   0  0  0  0  0  0  0  0  0  0  0  0
    8.8717  -14.9732   24.8161 O   0  0  0  0  0  0  0  0  0  0  0  0
    6.7459  -11.2195   25.9178 C   0  0  0  0  0  0  0  0  0  0  0  0
    6.8989  -12.1569   27.1099 C   0  0  1  0  0  0  0  0  0  0  0  0
    5.5945  -12.5532   27.5032 O   0  0  0  0  0  0  0  0  0  0  0  0
    7.6927  -13.3394   26.6365 C   0  0  2  0  0  0  0  0  0  0  0  0
    6.9739  -14.2274   25.7802 N   0  0  0  0  0  0  0  0  0  0  0  0
    8.2313  -14.0523   27.8374 C   0  0  0  0  0  0  0  0  0  0  0  0
    8.9968  -13.4662   28.8213 O   0  0  0  0  0  0  0  0  0  0  0  0
    7.9909  -15.2965   28.0065 O   0  0  0  0  0  0  0  0  0  0  0  0
  2  3  1  0
  2  1  1  6
  2  5  1  0
  3  4  1  0
  5  6  2  0
  7  8  1  0
  8  9  2  0
 10  8  1  0
 10 11  1  0
 12 11  1  1
 12 14  1  0
 13  5  1  0
 13 12  1  0
 14 20  1  0
 14 15  2  0
 17 16  1  6
 17 19  1  0
 18 17  1  0
 19 21  1  0
 19 20  1  1
 21 23  2  0
 21 22  1  0
M  END
$$$$
