CQT.pdb
     RDKit          3D

 23 22  0  0  1  0  0  0  0  0999 V2000
    7.5456  -14.3904   18.8290 N   0  0  0  0  0  0  0  0  0  0  0  0
    8.0214  -14.0687   20.1497 C   0  0  1  0  0  0  0  0  0  0  0  0
    6.8275  -13.4734   20.9029 C   0  0  0  0  0  0  0  0  0  0  0  0
    7.2292  -13.2578   22.6577 S   0  0  0  0  0  0  0  0  0  0  0  0
    8.5138  -15.2466   20.8835 C   0  0  0  0  0  0  0  0  0  0  0  0
    7.9898  -16.3637   20.6132 O   0  0  0  0  0  0  0  0  0  0  0  0
   12.7194  -18.1097   20.4128 N   0  0  0  0  0  0  0  0  0  0  0  0
   12.8362  -18.4820   21.7963 C   0  0  0  0  0  0  0  0  0  0  0  0
   13.4392  -19.5554   22.0139 O   0  0  0  0  0  0  0  0  0  0  0  0
   12.2655  -17.6257   22.8523 C   0  0  0  0  0  0  0  0  0  0  0  0
   11.6112  -16.4088   22.2823 C   0  0  0  0  0  0  0  0  0  0  0  0
   10.1421  -16.4198   22.4358 C   0  0  2  0  0  0  0  0  0  0  0  0
    9.5213  -15.2244   21.8610 N   0  0  0  0  0  0  0  0  0  0  0  0
    9.7783  -16.5207   23.8861 C   0  0  0  0  0  0  0  0  0  0  0  0
   10.0711  -15.6617   24.7267 O   0  0  0  0  0  0  0  0  0  0  0  0
    7.3402  -18.7096   27.5364 C   0  0  0  0  0  0  0  0  0  0  0  0
    7.6803  -18.8202   26.0548 C   0  0  1  0  0  0  0  0  0  0  0  0
    6.4882  -18.5636   25.3295 O   0  0  0  0  0  0  0  0  0  0  0  0
    8.7143  -17.7717   25.7646 C   0  0  2  0  0  0  0  0  0  0  0  0
    9.0550  -17.6460   24.3838 N   0  0  0  0  0  0  0  0  0  0  0  0
    9.9205  -18.0596   26.6028 C   0  0  0  0  0  0  0  0  0  0  0  0
   10.0476  -17.7331   27.9350 O   0  0  0  0  0  0  0  0  0  0  0  0
   10.9324  -18.6492   26.0900 O   0  0  0  0  0  0  0  0  0  0  0  0
  2  3  1  0
  2  1  1  6
  2  5  1  0
  3  4  1  0
  5  6  2  0
  7  8  1  0
  8  9  2  0
 10  8  1  0
 10 11  1  0
 12 11  1  1
 12 14  1  0
 13  5  1  0
 13 12  1  0
 14 20  1  0
 14 15  2  0
 17 16  1  1
 17 19  1  0
 18 17  1  0
 19 21  1  0
 19 20  1  6
 21 23  2  0
 21 22  1  0
M  END
$$$$
