CQT.pdb
     RDKit          3D

 23 22  0  0  1  0  0  0  0  0999 V2000
    8.0732  -14.1135   17.3671 N   0  0  0  0  0  0  0  0  0  0  0  0
    9.1821  -13.4636   18.0166 C   0  0  1  0  0  0  0  0  0  0  0  0
    8.5935  -12.6937   19.2031 C   0  0  0  0  0  0  0  0  0  0  0  0
    7.7733  -13.8312   20.3523 S   0  0  0  0  0  0  0  0  0  0  0  0
   10.1914  -14.4138   18.5134 C   0  0  0  0  0  0  0  0  0  0  0  0
    9.8681  -15.6337   18.5672 O   0  0  0  0  0  0  0  0  0  0  0  0
   15.3374  -16.5235   17.6865 N   0  0  0  0  0  0  0  0  0  0  0  0
   14.5103  -15.5238   17.0677 C   0  0  0  0  0  0  0  0  0  0  0  0
   14.1342  -15.7840   15.9042 O   0  0  0  0  0  0  0  0  0  0  0  0
   14.1576  -14.2901   17.7941 C   0  0  0  0  0  0  0  0  0  0  0  0
   13.8555  -14.5637   19.2321 C   0  0  0  0  0  0  0  0  0  0  0  0
   12.4687  -15.0226   19.4518 C   0  0  2  0  0  0  0  0  0  0  0  0
   11.4863  -14.0689   18.9322 N   0  0  0  0  0  0  0  0  0  0  0  0
   12.2257  -15.2399   20.9145 C   0  0  0  0  0  0  0  0  0  0  0  0
   12.8906  -14.6994   21.8066 O   0  0  0  0  0  0  0  0  0  0  0  0
    8.7616  -15.0298   22.5980 C   0  0  0  0  0  0  0  0  0  0  0  0
    9.3929  -16.3465   23.0350 C   0  0  1  0  0  0  0  0  0  0  0  0
    8.8012  -17.3751   22.2571 O   0  0  0  0  0  0  0  0  0  0  0  0
   10.8624  -16.2428   22.7480 C   0  0  2  0  0  0  0  0  0  0  0  0
   11.1846  -16.1068   21.3638 N   0  0  0  0  0  0  0  0  0  0  0  0
   11.5425  -17.4299   23.3551 C   0  0  0  0  0  0  0  0  0  0  0  0
   12.3089  -18.3379   22.6581 O   0  0  0  0  0  0  0  0  0  0  0  0
   11.4334  -17.6609   24.6078 O   0  0  0  0  0  0  0  0  0  0  0  0
  2  3  1  0
  2  1  1  1
  2  5  1  0
  3  4  1  0
  5  6  2  0
  7  8  1  0
  8  9  2  0
 10  8  1  0
 10 11  1  0
 12 11  1  1
 12 14  1  0
 13  5  1  0
 13 12  1  0
 14 20  1  0
 14 15  2  0
 17 16  1  6
 17 19  1  0
 18 17  1  0
 19 21  1  0
 19 20  1  6
 21 23  2  0
 21 22  1  0
M  END
$$$$
