CQT.pdb
     RDKit          3D

 23 22  0  0  1  0  0  0  0  0999 V2000
    8.0815  -14.9848   17.8775 N   0  0  0  0  0  0  0  0  0  0  0  0
    9.1020  -14.5273   18.7848 C   0  0  1  0  0  0  0  0  0  0  0  0
    8.5456  -13.2683   19.4573 C   0  0  0  0  0  0  0  0  0  0  0  0
    8.4419  -11.9064   18.2650 S   0  0  0  0  0  0  0  0  0  0  0  0
    9.4330  -15.5195   19.8213 C   0  0  0  0  0  0  0  0  0  0  0  0
    8.5220  -16.3195   20.1756 O   0  0  0  0  0  0  0  0  0  0  0  0
   15.0154  -19.0240   23.0492 N   0  0  0  0  0  0  0  0  0  0  0  0
   14.1585  -18.7540   21.9270 C   0  0  0  0  0  0  0  0  0  0  0  0
   14.6761  -18.9296   20.8026 O   0  0  0  0  0  0  0  0  0  0  0  0
   12.7714  -18.3005   22.1369 C   0  0  0  0  0  0  0  0  0  0  0  0
   12.4320  -17.1388   21.2598 C   0  0  0  0  0  0  0  0  0  0  0  0
   11.0281  -16.7015   21.4011 C   0  0  2  0  0  0  0  0  0  0  0  0
   10.6836  -15.6455   20.4469 N   0  0  0  0  0  0  0  0  0  0  0  0
   10.7810  -16.2119   22.7957 C   0  0  0  0  0  0  0  0  0  0  0  0
   11.4840  -15.3635   23.3580 O   0  0  0  0  0  0  0  0  0  0  0  0
    7.5524  -14.7874   24.2731 C   0  0  0  0  0  0  0  0  0  0  0  0
    7.9572  -15.9682   25.1477 C   0  0  1  0  0  0  0  0  0  0  0  0
    7.1653  -17.0765   24.7507 O   0  0  0  0  0  0  0  0  0  0  0  0
    9.4105  -16.2315   24.8808 C   0  0  2  0  0  0  0  0  0  0  0  0
    9.6903  -16.7150   23.5668 N   0  0  0  0  0  0  0  0  0  0  0  0
    9.9159  -17.1717   25.9300 C   0  0  0  0  0  0  0  0  0  0  0  0
    9.8665  -16.9356   27.2862 O   0  0  0  0  0  0  0  0  0  0  0  0
   10.4409  -18.2876   25.5926 O   0  0  0  0  0  0  0  0  0  0  0  0
  2  3  1  0
  2  1  1  6
  2  5  1  0
  3  4  1  0
  5  6  2  0
  7  8  1  0
  8  9  2  0
 10  8  1  0
 10 11  1  0
 12 11  1  1
 12 14  1  0
 13  5  1  0
 13 12  1  0
 14 20  1  0
 14 15  2  0
 17 16  1  6
 17 19  1  0
 18 17  1  0
 19 21  1  0
 19 20  1  6
 21 23  2  0
 21 22  1  0
M  END
$$$$
