CQT.pdb
     RDKit          3D

 23 22  0  0  1  0  0  0  0  0999 V2000
    7.6887  -14.7934   18.3783 N   0  0  0  0  0  0  0  0  0  0  0  0
    8.7519  -14.5676   19.3231 C   0  0  1  0  0  0  0  0  0  0  0  0
    8.9782  -13.0529   19.3609 C   0  0  0  0  0  0  0  0  0  0  0  0
    7.4740  -12.2013   19.9081 S   0  0  0  0  0  0  0  0  0  0  0  0
    8.4225  -15.0384   20.6789 C   0  0  0  0  0  0  0  0  0  0  0  0
    7.2107  -15.2903   20.9309 O   0  0  0  0  0  0  0  0  0  0  0  0
   11.5153  -19.2425   23.7598 N   0  0  0  0  0  0  0  0  0  0  0  0
   10.4862  -18.9273   24.7127 C   0  0  0  0  0  0  0  0  0  0  0  0
   10.4069  -19.7007   25.6918 O   0  0  0  0  0  0  0  0  0  0  0  0
    9.6065  -17.7623   24.5060 C   0  0  0  0  0  0  0  0  0  0  0  0
    9.9377  -17.0383   23.2410 C   0  0  0  0  0  0  0  0  0  0  0  0
    9.0479  -15.8869   22.9868 C   0  0  2  0  0  0  0  0  0  0  0  0
    9.3516  -15.2292   21.7141 N   0  0  0  0  0  0  0  0  0  0  0  0
    9.1650  -14.8920   24.1013 C   0  0  0  0  0  0  0  0  0  0  0  0
   10.1773  -14.2117   24.3082 O   0  0  0  0  0  0  0  0  0  0  0  0
    6.4679  -12.1303   25.1733 C   0  0  0  0  0  0  0  0  0  0  0  0
    6.8202  -13.0388   26.3453 C   0  0  1  0  0  0  0  0  0  0  0  0
    5.8003  -14.0210   26.4372 O   0  0  0  0  0  0  0  0  0  0  0  0
    8.1414  -13.6741   26.0236 C   0  0  2  0  0  0  0  0  0  0  0  0
    8.0827  -14.6737   25.0058 N   0  0  0  0  0  0  0  0  0  0  0  0
    8.7206  -14.2172   27.2925 C   0  0  0  0  0  0  0  0  0  0  0  0
    8.9844  -13.4694   28.4189 O   0  0  0  0  0  0  0  0  0  0  0  0
    9.0087  -15.4592   27.3863 O   0  0  0  0  0  0  0  0  0  0  0  0
  2  3  1  0
  2  1  1  6
  2  5  1  0
  3  4  1  0
  5  6  2  0
  7  8  1  0
  8  9  2  0
 10  8  1  0
 10 11  1  0
 12 11  1  1
 12 14  1  0
 13  5  1  0
 13 12  1  0
 14 20  1  0
 14 15  2  0
 17 16  1  6
 17 19  1  0
 18 17  1  0
 19 21  1  0
 19 20  1  6
 21 23  2  0
 21 22  1  0
M  END
$$$$
