CQT.pdb
     RDKit          3D

 23 22  0  0  1  0  0  0  0  0999 V2000
   -3.1864  -27.9156   28.3112 N   0  0  0  0  0  0  0  0  0  0  0  0
   -2.9679  -27.6594   29.7114 C   0  0  1  0  0  0  0  0  0  0  0  0
   -1.4676  -27.3930   29.8701 C   0  0  0  0  0  0  0  0  0  0  0  0
   -0.5392  -28.1777   28.5249 S   0  0  0  0  0  0  0  0  0  0  0  0
   -3.7181  -26.4918   30.2036 C   0  0  0  0  0  0  0  0  0  0  0  0
   -3.5630  -26.1663   31.4142 O   0  0  0  0  0  0  0  0  0  0  0  0
   -3.7452  -20.8394   28.6788 N   0  0  0  0  0  0  0  0  0  0  0  0
   -4.8849  -20.8272   29.5547 C   0  0  0  0  0  0  0  0  0  0  0  0
   -5.2626  -19.6952   29.9275 O   0  0  0  0  0  0  0  0  0  0  0  0
   -5.5302  -22.0892   29.9608 C   0  0  0  0  0  0  0  0  0  0  0  0
   -4.7745  -23.2797   29.4650 C   0  0  0  0  0  0  0  0  0  0  0  0
   -5.3405  -24.5591   29.9390 C   0  0  2  0  0  0  0  0  0  0  0  0
   -4.5931  -25.7115   29.4311 N   0  0  0  0  0  0  0  0  0  0  0  0
   -6.7748  -24.6724   29.5199 C   0  0  0  0  0  0  0  0  0  0  0  0
   -7.1464  -24.6579   28.3401 O   0  0  0  0  0  0  0  0  0  0  0  0
   -9.4788  -27.1392   31.1133 C   0  0  0  0  0  0  0  0  0  0  0  0
  -10.0214  -25.7151   31.0899 C   0  0  1  0  0  0  0  0  0  0  0  0
   -9.8763  -25.1883   32.3993 O   0  0  0  0  0  0  0  0  0  0  0  0
   -9.1835  -24.9444   30.1119 C   0  0  2  0  0  0  0  0  0  0  0  0
   -7.8135  -24.8065   30.4896 N   0  0  0  0  0  0  0  0  0  0  0  0
   -9.8283  -23.6116   29.8918 C   0  0  0  0  0  0  0  0  0  0  0  0
  -11.1222  -23.4271   29.4569 O   0  0  0  0  0  0  0  0  0  0  0  0
   -9.1706  -22.5370   30.1090 O   0  0  0  0  0  0  0  0  0  0  0  0
  2  3  1  0
  2  1  1  6
  2  5  1  0
  3  4  1  0
  5  6  2  0
  7  8  1  0
  8  9  2  0
 10  8  1  0
 10 11  1  0
 12 11  1  6
 12 14  1  0
 13  5  1  0
 13 12  1  0
 14 20  1  0
 14 15  2  0
 17 16  1  1
 17 19  1  0
 18 17  1  0
 19 21  1  0
 19 20  1  1
 21 23  2  0
 21 22  1  0
M  END
$$$$
