CQT.pdb
     RDKit          3D

 23 22  0  0  1  0  0  0  0  0999 V2000
    7.2159  -15.2682   19.0485 N   0  0  0  0  0  0  0  0  0  0  0  0
    8.1086  -14.6150   19.9706 C   0  0  1  0  0  0  0  0  0  0  0  0
    7.6769  -13.1459   20.0184 C   0  0  0  0  0  0  0  0  0  0  0  0
    8.3833  -12.2322   18.6209 S   0  0  0  0  0  0  0  0  0  0  0  0
    8.0423  -15.1799   21.3289 C   0  0  0  0  0  0  0  0  0  0  0  0
    6.9065  -15.5191   21.7652 O   0  0  0  0  0  0  0  0  0  0  0  0
   11.9740  -19.0347   24.0626 N   0  0  0  0  0  0  0  0  0  0  0  0
   11.0957  -18.7277   25.1584 C   0  0  0  0  0  0  0  0  0  0  0  0
   11.2878  -19.3897   26.2014 O   0  0  0  0  0  0  0  0  0  0  0  0
   10.0525  -17.6957   25.0146 C   0  0  0  0  0  0  0  0  0  0  0  0
   10.0895  -17.0583   23.6632 C   0  0  0  0  0  0  0  0  0  0  0  0
    9.0722  -16.0001   23.4978 C   0  0  2  0  0  0  0  0  0  0  0  0
    9.1445  -15.3708   22.1774 N   0  0  0  0  0  0  0  0  0  0  0  0
    9.2428  -14.9541   24.5573 C   0  0  0  0  0  0  0  0  0  0  0  0
   10.3043  -14.3521   24.7604 O   0  0  0  0  0  0  0  0  0  0  0  0
    6.8218  -11.9013   25.5814 C   0  0  0  0  0  0  0  0  0  0  0  0
    7.0585  -12.8451   26.7545 C   0  0  1  0  0  0  0  0  0  0  0  0
    5.9365  -13.7104   26.8309 O   0  0  0  0  0  0  0  0  0  0  0  0
    8.3063  -13.6201   26.4467 C   0  0  2  0  0  0  0  0  0  0  0  0
    8.1573  -14.5900   25.4095 N   0  0  0  0  0  0  0  0  0  0  0  0
    8.7936  -14.2457   27.7162 C   0  0  0  0  0  0  0  0  0  0  0  0
    9.1141  -13.5512   28.8618 O   0  0  0  0  0  0  0  0  0  0  0  0
    8.9397  -15.5136   27.7919 O   0  0  0  0  0  0  0  0  0  0  0  0
  2  3  1  0
  2  1  1  6
  2  5  1  0
  3  4  1  0
  5  6  2  0
  7  8  1  0
  8  9  2  0
 10  8  1  0
 10 11  1  0
 12 11  1  6
 12 14  1  0
 13  5  1  0
 13 12  1  0
 14 20  1  0
 14 15  2  0
 17 16  1  6
 17 19  1  0
 18 17  1  0
 19 21  1  0
 19 20  1  6
 21 23  2  0
 21 22  1  0
M  END
$$$$
