CQT.pdb
     RDKit          3D

 23 22  0  0  1  0  0  0  0  0999 V2000
    7.0364  -17.0763   18.9749 N   0  0  0  0  0  0  0  0  0  0  0  0
    7.7293  -16.1935   19.8774 C   0  0  1  0  0  0  0  0  0  0  0  0
    7.5788  -14.7831   19.2984 C   0  0  0  0  0  0  0  0  0  0  0  0
    8.7408  -14.5330   17.9293 S   0  0  0  0  0  0  0  0  0  0  0  0
    7.1721  -16.2156   21.2402 C   0  0  0  0  0  0  0  0  0  0  0  0
    5.9216  -16.3496   21.3575 O   0  0  0  0  0  0  0  0  0  0  0  0
    8.2587  -19.9443   25.5907 N   0  0  0  0  0  0  0  0  0  0  0  0
    7.5887  -18.9485   26.3817 C   0  0  0  0  0  0  0  0  0  0  0  0
    7.3509  -19.2742   27.5651 O   0  0  0  0  0  0  0  0  0  0  0  0
    7.2240  -17.6466   25.7934 C   0  0  0  0  0  0  0  0  0  0  0  0
    7.6589  -17.5443   24.3671 C   0  0  0  0  0  0  0  0  0  0  0  0
    7.3685  -16.2249   23.7698 C   0  0  2  0  0  0  0  0  0  0  0  0
    7.9236  -16.0991   22.4205 N   0  0  0  0  0  0  0  0  0  0  0  0
    7.9206  -15.1357   24.6384 C   0  0  0  0  0  0  0  0  0  0  0  0
    9.1267  -14.9924   24.8733 O   0  0  0  0  0  0  0  0  0  0  0  0
    5.4233  -12.6438   27.1002 C   0  0  0  0  0  0  0  0  0  0  0  0
    6.5721  -12.0154   26.3203 C   0  0  1  0  0  0  0  0  0  0  0  0
    7.1430  -11.0134   27.1470 O   0  0  0  0  0  0  0  0  0  0  0  0
    7.5646  -13.1079   26.0483 C   0  0  2  0  0  0  0  0  0  0  0  0
    7.0570  -14.1816   25.2558 N   0  0  0  0  0  0  0  0  0  0  0  0
    8.0929  -13.5973   27.3605 C   0  0  0  0  0  0  0  0  0  0  0  0
    8.0719  -14.9107   27.7754 O   0  0  0  0  0  0  0  0  0  0  0  0
    8.6103  -12.7745   28.1910 O   0  0  0  0  0  0  0  0  0  0  0  0
  2  3  1  0
  2  1  1  6
  2  5  1  0
  3  4  1  0
  5  6  2  0
  7  8  1  0
  8  9  2  0
 10  8  1  0
 10 11  1  0
 12 11  1  1
 12 14  1  0
 13  5  1  0
 13 12  1  0
 14 20  1  0
 14 15  2  0
 17 16  1  1
 17 19  1  0
 18 17  1  0
 19 21  1  0
 19 20  1  1
 21 23  2  0
 21 22  1  0
M  END
$$$$
