CQT.pdb
     RDKit          3D

 23 22  0  0  1  0  0  0  0  0999 V2000
    7.3332  -14.8979   18.3931 N   0  0  0  0  0  0  0  0  0  0  0  0
    8.2543  -14.3947   19.3791 C   0  0  1  0  0  0  0  0  0  0  0  0
    7.8710  -12.9306   19.6170 C   0  0  0  0  0  0  0  0  0  0  0  0
    8.3633  -11.9090   18.2023 S   0  0  0  0  0  0  0  0  0  0  0  0
    8.1809  -15.1243   20.6561 C   0  0  0  0  0  0  0  0  0  0  0  0
    7.0488  -15.5492   21.0213 O   0  0  0  0  0  0  0  0  0  0  0  0
   12.1689  -19.2381   22.8199 N   0  0  0  0  0  0  0  0  0  0  0  0
   11.2804  -19.1203   23.9437 C   0  0  0  0  0  0  0  0  0  0  0  0
   11.4622  -19.9508   24.8604 O   0  0  0  0  0  0  0  0  0  0  0  0
   10.2390  -18.0769   23.9681 C   0  0  0  0  0  0  0  0  0  0  0  0
   10.2434  -17.2636   22.7141 C   0  0  0  0  0  0  0  0  0  0  0  0
    9.2059  -16.2121   22.7063 C   0  0  2  0  0  0  0  0  0  0  0  0
    9.2724  -15.3845   21.5000 N   0  0  0  0  0  0  0  0  0  0  0  0
    9.3501  -15.3400   23.9165 C   0  0  0  0  0  0  0  0  0  0  0  0
   10.3308  -14.6157   24.1254 O   0  0  0  0  0  0  0  0  0  0  0  0
    7.0517  -12.6379   25.4641 C   0  0  0  0  0  0  0  0  0  0  0  0
    7.2279  -13.7567   26.4840 C   0  0  1  0  0  0  0  0  0  0  0  0
    6.0850  -14.5926   26.3927 O   0  0  0  0  0  0  0  0  0  0  0  0
    8.4678  -14.5089   26.0975 C   0  0  2  0  0  0  0  0  0  0  0  0
    8.3331  -15.3008   24.9172 N   0  0  0  0  0  0  0  0  0  0  0  0
    8.8958  -15.3380   27.2679 C   0  0  0  0  0  0  0  0  0  0  0  0
    9.1702  -14.8423   28.5235 O   0  0  0  0  0  0  0  0  0  0  0  0
    9.0315  -16.6031   27.1428 O   0  0  0  0  0  0  0  0  0  0  0  0
  2  3  1  0
  2  1  1  6
  2  5  1  0
  3  4  1  0
  5  6  2  0
  7  8  1  0
  8  9  2  0
 10  8  1  0
 10 11  1  0
 12 11  1  6
 12 14  1  0
 13  5  1  0
 13 12  1  0
 14 20  1  0
 14 15  2  0
 17 16  1  6
 17 19  1  0
 18 17  1  0
 19 21  1  0
 19 20  1  6
 21 23  2  0
 21 22  1  0
M  END
$$$$
