CQT.pdb
     RDKit          3D

 23 22  0  0  1  0  0  0  0  0999 V2000
    7.2210  -15.0478   18.3307 N   0  0  0  0  0  0  0  0  0  0  0  0
    8.0490  -14.3601   19.2875 C   0  0  1  0  0  0  0  0  0  0  0  0
    7.5903  -12.8984   19.2801 C   0  0  0  0  0  0  0  0  0  0  0  0
    8.4752  -11.9504   20.5471 S   0  0  0  0  0  0  0  0  0  0  0  0
    7.9156  -14.8987   20.6515 C   0  0  0  0  0  0  0  0  0  0  0  0
    6.7535  -15.1862   21.0546 O   0  0  0  0  0  0  0  0  0  0  0  0
   11.7163  -18.8796   23.3700 N   0  0  0  0  0  0  0  0  0  0  0  0
   10.7248  -18.6921   24.3938 C   0  0  0  0  0  0  0  0  0  0  0  0
   10.8076  -19.4696   25.3693 O   0  0  0  0  0  0  0  0  0  0  0  0
    9.6982  -17.6425   24.2579 C   0  0  0  0  0  0  0  0  0  0  0  0
    9.8316  -16.9042   22.9652 C   0  0  0  0  0  0  0  0  0  0  0  0
    8.8558  -15.8039   22.8273 C   0  0  2  0  0  0  0  0  0  0  0  0
    8.9808  -15.1177   21.5396 N   0  0  0  0  0  0  0  0  0  0  0  0
    9.0379  -14.8144   23.9380 C   0  0  0  0  0  0  0  0  0  0  0  0
   10.0097  -14.0539   24.0249 O   0  0  0  0  0  0  0  0  0  0  0  0
    6.5104  -12.1471   25.3256 C   0  0  0  0  0  0  0  0  0  0  0  0
    6.9193  -13.0915   26.4498 C   0  0  1  0  0  0  0  0  0  0  0  0
    5.8905  -14.0599   26.5804 O   0  0  0  0  0  0  0  0  0  0  0  0
    8.2069  -13.7384   26.0303 C   0  0  2  0  0  0  0  0  0  0  0  0
    8.0707  -14.6970   24.9810 N   0  0  0  0  0  0  0  0  0  0  0  0
    8.8449  -14.3403   27.2432 C   0  0  0  0  0  0  0  0  0  0  0  0
    9.1520  -13.6489   28.3944 O   0  0  0  0  0  0  0  0  0  0  0  0
    9.1462  -15.5827   27.2601 O   0  0  0  0  0  0  0  0  0  0  0  0
  2  3  1  0
  2  1  1  6
  2  5  1  0
  3  4  1  0
  5  6  2  0
  7  8  1  0
  8  9  2  0
 10  8  1  0
 10 11  1  0
 12 11  1  6
 12 14  1  0
 13  5  1  0
 13 12  1  0
 14 20  1  0
 14 15  2  0
 17 16  1  6
 17 19  1  0
 18 17  1  0
 19 21  1  0
 19 20  1  6
 21 23  2  0
 21 22  1  0
M  END
$$$$
