CQT.pdb
     RDKit          3D

 23 22  0  0  1  0  0  0  0  0999 V2000
    8.8322  -14.6312   15.9914 N   0  0  0  0  0  0  0  0  0  0  0  0
    9.1629  -13.9321   17.2062 C   0  0  1  0  0  0  0  0  0  0  0  0
    7.8353  -13.6627   17.9216 C   0  0  0  0  0  0  0  0  0  0  0  0
    8.1275  -12.8401   19.5107 S   0  0  0  0  0  0  0  0  0  0  0  0
   10.0385  -14.7132   18.0960 C   0  0  0  0  0  0  0  0  0  0  0  0
    9.7575  -15.9326   18.2680 O   0  0  0  0  0  0  0  0  0  0  0  0
   15.0143  -16.9290   19.2099 N   0  0  0  0  0  0  0  0  0  0  0  0
   14.3705  -16.1497   18.1879 C   0  0  0  0  0  0  0  0  0  0  0  0
   14.1513  -16.7505   17.1136 O   0  0  0  0  0  0  0  0  0  0  0  0
   14.0138  -14.7405   18.4346 C   0  0  0  0  0  0  0  0  0  0  0  0
   13.3592  -14.5621   19.7664 C   0  0  0  0  0  0  0  0  0  0  0  0
   11.9347  -14.9529   19.7646 C   0  0  2  0  0  0  0  0  0  0  0  0
   11.1623  -14.2073   18.7685 N   0  0  0  0  0  0  0  0  0  0  0  0
   11.3402  -14.7319   21.1224 C   0  0  0  0  0  0  0  0  0  0  0  0
   11.8490  -14.0022   21.9820 O   0  0  0  0  0  0  0  0  0  0  0  0
    7.6945  -13.8556   22.0458 C   0  0  0  0  0  0  0  0  0  0  0  0
    8.0652  -15.1092   22.8295 C   0  0  1  0  0  0  0  0  0  0  0  0
    7.4757  -16.2130   22.1605 O   0  0  0  0  0  0  0  0  0  0  0  0
    9.5623  -15.2122   22.8060 C   0  0  2  0  0  0  0  0  0  0  0  0
   10.1219  -15.3713   21.5021 N   0  0  0  0  0  0  0  0  0  0  0  0
    9.9688  -16.3284   23.7168 C   0  0  0  0  0  0  0  0  0  0  0  0
   10.7337  -17.4104   23.3406 O   0  0  0  0  0  0  0  0  0  0  0  0
    9.6033  -16.3222   24.9419 O   0  0  0  0  0  0  0  0  0  0  0  0
  2  3  1  0
  2  1  1  6
  2  5  1  0
  3  4  1  0
  5  6  2  0
  7  8  1  0
  8  9  2  0
 10  8  1  0
 10 11  1  0
 12 11  1  1
 12 14  1  0
 13  5  1  0
 13 12  1  0
 14 20  1  0
 14 15  2  0
 17 16  1  6
 17 19  1  0
 18 17  1  0
 19 21  1  0
 19 20  1  6
 21 23  2  0
 21 22  1  0
M  END
$$$$
