CQT.pdb
     RDKit          3D

 23 22  0  0  1  0  0  0  0  0999 V2000
    4.6360  -19.6588   20.8975 N   0  0  0  0  0  0  0  0  0  0  0  0
    4.5962  -18.3209   21.4290 C   0  0  1  0  0  0  0  0  0  0  0  0
    4.4242  -18.4660   22.9444 C   0  0  0  0  0  0  0  0  0  0  0  0
    4.9929  -20.0978   23.4932 S   0  0  0  0  0  0  0  0  0  0  0  0
    5.8266  -17.5595   21.1557 C   0  0  0  0  0  0  0  0  0  0  0  0
    6.8373  -18.2059   20.7602 O   0  0  0  0  0  0  0  0  0  0  0  0
    7.6061  -14.0027   17.8471 N   0  0  0  0  0  0  0  0  0  0  0  0
    8.4932  -13.3398   18.7636 C   0  0  0  0  0  0  0  0  0  0  0  0
    9.4921  -12.7959   18.2445 O   0  0  0  0  0  0  0  0  0  0  0  0
    8.2048  -13.3303   20.2095 C   0  0  0  0  0  0  0  0  0  0  0  0
    6.9499  -14.0778   20.5267 C   0  0  0  0  0  0  0  0  0  0  0  0
    7.2055  -15.4319   21.0590 C   0  0  2  0  0  0  0  0  0  0  0  0
    5.9638  -16.1698   21.3007 N   0  0  0  0  0  0  0  0  0  0  0  0
    7.9876  -15.3429   22.3341 C   0  0  0  0  0  0  0  0  0  0  0  0
    7.7042  -14.5714   23.2587 O   0  0  0  0  0  0  0  0  0  0  0  0
    8.4347  -17.0653   25.3192 C   0  0  0  0  0  0  0  0  0  0  0  0
    9.8198  -17.1705   24.6919 C   0  0  1  0  0  0  0  0  0  0  0  0
    9.8834  -18.4186   24.0200 O   0  0  0  0  0  0  0  0  0  0  0  0
    9.9453  -16.0361   23.7173 C   0  0  2  0  0  0  0  0  0  0  0  0
    9.1319  -16.1679   22.5513 N   0  0  0  0  0  0  0  0  0  0  0  0
   11.3912  -15.8820   23.3624 C   0  0  0  0  0  0  0  0  0  0  0  0
   11.9074  -16.0180   22.0926 O   0  0  0  0  0  0  0  0  0  0  0  0
   12.2485  -15.6047   24.2694 O   0  0  0  0  0  0  0  0  0  0  0  0
  2  3  1  0
  2  1  1  6
  2  5  1  0
  3  4  1  0
  5  6  2  0
  7  8  1  0
  8  9  2  0
 10  8  1  0
 10 11  1  0
 12 11  1  1
 12 14  1  0
 13  5  1  0
 13 12  1  0
 14 20  1  0
 14 15  2  0
 17 16  1  6
 17 19  1  0
 18 17  1  0
 19 21  1  0
 19 20  1  6
 21 23  2  0
 21 22  1  0
M  END
$$$$
