FNQ.pdb
     RDKit          3D

 29 29  0  0  1  0  0  0  0  0999 V2000
   23.2734  -20.5140  -17.8234 N   0  0  0  0  0  0  0  0  0  0  0  0
   22.1212  -19.9209  -17.1593 C   0  0  1  0  0  0  0  0  0  0  0  0
   20.8994  -20.1190  -18.0191 C   0  0  0  0  0  0  0  0  0  0  0  0
   20.9329  -19.4159  -19.3004 C   0  0  0  0  0  0  0  0  0  0  0  0
   20.9416  -18.0468  -19.3536 C   0  0  0  0  0  0  0  0  0  0  0  0
   20.9756  -17.4162  -20.5795 C   0  0  0  0  0  0  0  0  0  0  0  0
   21.0013  -18.1564  -21.7634 C   0  0  0  0  0  0  0  0  0  0  0  0
   20.9923  -19.5371  -21.6998 C   0  0  0  0  0  0  0  0  0  0  0  0
   20.9584  -20.1668  -20.4778 C   0  0  0  0  0  0  0  0  0  0  0  0
   21.9767  -20.4906  -15.7984 C   0  0  0  0  0  0  0  0  0  0  0  0
   22.4837  -21.5933  -15.5428 O   0  0  0  0  0  0  0  0  0  0  0  0
   21.5389  -21.2232  -10.6527 N   0  0  0  0  0  0  0  0  0  0  0  0
   21.2720  -19.9004  -10.9885 C   0  0  0  0  0  0  0  0  0  0  0  0
   21.1283  -19.0672  -10.0330 O   0  0  0  0  0  0  0  0  0  0  0  0
   21.1345  -19.3447  -12.3445 C   0  0  0  0  0  0  0  0  0  0  0  0
   21.2150  -20.3683  -13.4355 C   0  0  2  0  0  0  0  0  0  0  0  0
   21.2798  -19.8361  -14.7537 N   0  0  0  0  0  0  0  0  0  0  0  0
   20.1327  -21.3959  -13.3182 C   0  0  0  0  0  0  0  0  0  0  0  0
   19.0363  -21.1998  -13.8879 O   0  0  0  0  0  0  0  0  0  0  0  0
   20.3661  -26.9390  -10.1269 N   0  0  0  0  0  0  0  0  0  0  0  0
   19.2125  -27.0648  -10.9423 C   0  0  0  0  0  0  0  0  0  0  0  0
   18.5509  -28.1430  -10.9187 O   0  0  0  0  0  0  0  0  0  0  0  0
   18.8021  -25.9356  -11.7958 C   0  0  0  0  0  0  0  0  0  0  0  0
   19.6866  -24.7591  -11.8304 C   0  0  0  0  0  0  0  0  0  0  0  0
   19.2147  -23.5809  -12.6132 C   0  0  2  0  0  0  0  0  0  0  0  0
   20.3001  -22.5878  -12.5844 N   0  0  0  0  0  0  0  0  0  0  0  0
   17.9625  -23.0178  -12.1795 C   0  0  0  0  0  0  0  0  0  0  0  0
   16.7847  -23.4116  -12.8234 O   0  0  0  0  0  0  0  0  0  0  0  0
   17.8273  -22.1826  -11.2507 O   0  0  0  0  0  0  0  0  0  0  0  0
  2  1  1  6
  2  3  1  0
  3  4  1  0
  4  5  2  0
  4  9  1  0
  5  6  1  0
  6  7  2  0
  8  7  1  0
  9  8  2  0
 10  2  1  0
 11 10  2  0
 13 12  1  0
 14 13  2  0
 15 13  1  0
 16 15  1  1
 16 17  1  0
 17 10  1  0
 18 16  1  0
 18 26  1  0
 19 18  2  0
 21 22  2  0
 21 20  1  0
 23 21  1  0
 24 23  1  0
 25 24  1  1
 25 26  1  0
 27 28  1  0
 27 25  1  0
 29 27  2  0
M  END
$$$$
