FNQ.pdb
     RDKit          3D

 29 29  0  0  1  0  0  0  0  0999 V2000
   22.3874   -9.9949  -14.7055 N   0  0  0  0  0  0  0  0  0  0  0  0
   22.0067   -9.3868  -15.9727 C   0  0  1  0  0  0  0  0  0  0  0  0
   20.6458   -9.8941  -16.3750 C   0  0  0  0  0  0  0  0  0  0  0  0
   20.6372  -11.2458  -16.9317 C   0  0  0  0  0  0  0  0  0  0  0  0
   21.0826  -11.4872  -18.2048 C   0  0  0  0  0  0  0  0  0  0  0  0
   21.0623  -12.7751  -18.6974 C   0  0  0  0  0  0  0  0  0  0  0  0
   20.5941  -13.8324  -17.9144 C   0  0  0  0  0  0  0  0  0  0  0  0
   20.1468  -13.5792  -16.6314 C   0  0  0  0  0  0  0  0  0  0  0  0
   20.1665  -12.2954  -16.1393 C   0  0  0  0  0  0  0  0  0  0  0  0
   22.0704   -7.9101  -15.8612 C   0  0  0  0  0  0  0  0  0  0  0  0
   21.7595   -7.3662  -14.7907 O   0  0  0  0  0  0  0  0  0  0  0  0
   22.4920   -2.7228  -16.7624 N   0  0  0  0  0  0  0  0  0  0  0  0
   23.2996   -3.4564  -17.6246 C   0  0  0  0  0  0  0  0  0  0  0  0
   24.1068   -2.8084  -18.3706 O   0  0  0  0  0  0  0  0  0  0  0  0
   23.3282   -4.9203  -17.7755 C   0  0  0  0  0  0  0  0  0  0  0  0
   22.4189   -5.6495  -16.8343 C   0  0  2  0  0  0  0  0  0  0  0  0
   22.4732   -7.0685  -16.9265 N   0  0  0  0  0  0  0  0  0  0  0  0
   21.0091   -5.1538  -16.9232 C   0  0  0  0  0  0  0  0  0  0  0  0
   20.2574   -5.5999  -17.8183 O   0  0  0  0  0  0  0  0  0  0  0  0
   16.8331   -7.3546  -16.9357 N   0  0  0  0  0  0  0  0  0  0  0  0
   16.1543   -6.3564  -16.1909 C   0  0  0  0  0  0  0  0  0  0  0  0
   14.8961   -6.4186  -16.0731 O   0  0  0  0  0  0  0  0  0  0  0  0
   16.9274   -5.2704  -15.5626 C   0  0  0  0  0  0  0  0  0  0  0  0
   18.3857   -5.2752  -15.7647 C   0  0  0  0  0  0  0  0  0  0  0  0
   19.0360   -3.9601  -16.0313 C   0  0  2  0  0  0  0  0  0  0  0  0
   20.4886   -4.1951  -16.0305 N   0  0  0  0  0  0  0  0  0  0  0  0
   18.6650   -2.8986  -15.1319 C   0  0  0  0  0  0  0  0  0  0  0  0
   17.4694   -2.2082  -15.3571 O   0  0  0  0  0  0  0  0  0  0  0  0
   19.3351   -2.5258  -14.1366 O   0  0  0  0  0  0  0  0  0  0  0  0
  2  1  1  1
  2  3  1  0
  3  4  1  0
  4  5  2  0
  4  9  1  0
  5  6  1  0
  6  7  2  0
  8  7  1  0
  9  8  2  0
 10  2  1  0
 11 10  2  0
 13 12  1  0
 14 13  2  0
 15 13  1  0
 16 15  1  6
 16 17  1  0
 17 10  1  0
 18 16  1  0
 18 26  1  0
 19 18  2  0
 21 22  2  0
 21 20  1  0
 23 21  1  0
 24 23  1  0
 25 24  1  1
 25 26  1  0
 27 28  1  0
 27 25  1  0
 29 27  2  0
M  END
$$$$
