FNQ.pdb
     RDKit          3D

 29 29  0  0  1  0  0  0  0  0999 V2000
   15.9983   -9.0670  -15.7080 N   0  0  0  0  0  0  0  0  0  0  0  0
   16.7512   -9.2468  -14.4746 C   0  0  1  0  0  0  0  0  0  0  0  0
   18.0598   -9.9250  -14.7891 C   0  0  0  0  0  0  0  0  0  0  0  0
   17.9339  -11.2873  -15.3044 C   0  0  0  0  0  0  0  0  0  0  0  0
   18.2277  -11.5772  -16.6110 C   0  0  0  0  0  0  0  0  0  0  0  0
   18.0999  -12.8737  -17.0630 C   0  0  0  0  0  0  0  0  0  0  0  0
   17.6756  -13.8910  -16.2055 C   0  0  0  0  0  0  0  0  0  0  0  0
   17.3816  -13.5890  -14.8891 C   0  0  0  0  0  0  0  0  0  0  0  0
   17.5087  -12.2965  -14.4374 C   0  0  0  0  0  0  0  0  0  0  0  0
   16.9187   -7.9413  -13.7927 C   0  0  0  0  0  0  0  0  0  0  0  0
   17.0185   -6.9080  -14.4715 O   0  0  0  0  0  0  0  0  0  0  0  0
   16.6211   -4.8234   -8.4059 N   0  0  0  0  0  0  0  0  0  0  0  0
   16.6772   -5.1050   -9.7665 C   0  0  0  0  0  0  0  0  0  0  0  0
   16.9106   -4.1338  -10.5603 O   0  0  0  0  0  0  0  0  0  0  0  0
   16.4944   -6.4191  -10.4039 C   0  0  0  0  0  0  0  0  0  0  0  0
   17.1368   -6.5391  -11.7520 C   0  0  2  0  0  0  0  0  0  0  0  0
   16.9725   -7.8032  -12.3844 N   0  0  0  0  0  0  0  0  0  0  0  0
   18.5767   -6.1303  -11.7228 C   0  0  0  0  0  0  0  0  0  0  0  0
   19.3540   -6.6799  -10.9110 O   0  0  0  0  0  0  0  0  0  0  0  0
   22.7977   -8.4674  -13.5173 N   0  0  0  0  0  0  0  0  0  0  0  0
   22.4473   -7.5864  -14.5721 C   0  0  0  0  0  0  0  0  0  0  0  0
   22.8250   -7.8489  -15.7507 O   0  0  0  0  0  0  0  0  0  0  0  0
   21.6445   -6.3863  -14.2769 C   0  0  0  0  0  0  0  0  0  0  0  0
   21.2125   -6.1888  -12.8833 C   0  0  0  0  0  0  0  0  0  0  0  0
   20.5483   -4.8939  -12.5581 C   0  0  2  0  0  0  0  0  0  0  0  0
   19.0980   -5.1414  -12.5814 N   0  0  0  0  0  0  0  0  0  0  0  0
   20.9161   -3.7868  -13.4020 C   0  0  0  0  0  0  0  0  0  0  0  0
   19.9430   -3.2127  -14.2268 O   0  0  0  0  0  0  0  0  0  0  0  0
   22.0618   -3.2755  -13.4670 O   0  0  0  0  0  0  0  0  0  0  0  0
  2  1  1  6
  2  3  1  0
  3  4  1  0
  4  5  2  0
  4  9  1  0
  5  6  1  0
  6  7  2  0
  8  7  1  0
  9  8  2  0
 10  2  1  0
 11 10  2  0
 13 12  1  0
 14 13  2  0
 15 13  1  0
 16 15  1  1
 16 17  1  0
 17 10  1  0
 18 16  1  0
 18 26  1  0
 19 18  2  0
 21 22  2  0
 21 20  1  0
 23 21  1  0
 24 23  1  0
 25 24  1  6
 25 26  1  0
 27 28  1  0
 27 25  1  0
 29 27  2  0
M  END
$$$$
