FNQ.pdb
     RDKit          3D

 29 29  0  0  1  0  0  0  0  0999 V2000
   27.4853  -21.6850  -15.7218 N   0  0  0  0  0  0  0  0  0  0  0  0
   26.7127  -20.5685  -15.1955 C   0  0  1  0  0  0  0  0  0  0  0  0
   26.1848  -19.7481  -16.3443 C   0  0  0  0  0  0  0  0  0  0  0  0
   27.2091  -19.0453  -17.1151 C   0  0  0  0  0  0  0  0  0  0  0  0
   27.6632  -19.5467  -18.3066 C   0  0  0  0  0  0  0  0  0  0  0  0
   28.6287  -18.8564  -19.0087 C   0  0  0  0  0  0  0  0  0  0  0  0
   29.1467  -17.6555  -18.5193 C   0  0  0  0  0  0  0  0  0  0  0  0
   28.6825  -17.1575  -17.3164 C   0  0  0  0  0  0  0  0  0  0  0  0
   27.7197  -17.8450  -16.6156 C   0  0  0  0  0  0  0  0  0  0  0  0
   25.6456  -21.0734  -14.2991 C   0  0  0  0  0  0  0  0  0  0  0  0
   24.9916  -22.0729  -14.6334 O   0  0  0  0  0  0  0  0  0  0  0  0
   26.3120  -22.1994  -10.6998 N   0  0  0  0  0  0  0  0  0  0  0  0
   25.3466  -21.3867  -10.1156 C   0  0  0  0  0  0  0  0  0  0  0  0
   25.3333  -21.3094   -8.8421 O   0  0  0  0  0  0  0  0  0  0  0  0
   24.3218  -20.5929  -10.8129 C   0  0  0  0  0  0  0  0  0  0  0  0
   24.2114  -20.8886  -12.2774 C   0  0  2  0  0  0  0  0  0  0  0  0
   25.3235  -20.4689  -13.0596 N   0  0  0  0  0  0  0  0  0  0  0  0
   22.9235  -20.3872  -12.8528 C   0  0  0  0  0  0  0  0  0  0  0  0
   22.9447  -19.4435  -13.6739 O   0  0  0  0  0  0  0  0  0  0  0  0
   21.8210  -21.8282  -17.4716 N   0  0  0  0  0  0  0  0  0  0  0  0
   20.4388  -21.8122  -17.1538 C   0  0  0  0  0  0  0  0  0  0  0  0
   19.6030  -22.2450  -17.9993 O   0  0  0  0  0  0  0  0  0  0  0  0
   20.0029  -21.2989  -15.8429 C   0  0  0  0  0  0  0  0  0  0  0  0
   20.9984  -21.2846  -14.7583 C   0  0  0  0  0  0  0  0  0  0  0  0
   20.5500  -20.7625  -13.4354 C   0  0  2  0  0  0  0  0  0  0  0  0
   21.6749  -20.9406  -12.5037 N   0  0  0  0  0  0  0  0  0  0  0  0
   19.3356  -21.3445  -12.9258 C   0  0  0  0  0  0  0  0  0  0  0  0
   18.1099  -20.7723  -13.2822 O   0  0  0  0  0  0  0  0  0  0  0  0
   19.2746  -22.3462  -12.1699 O   0  0  0  0  0  0  0  0  0  0  0  0
  2  1  1  6
  2  3  1  0
  3  4  1  0
  4  5  2  0
  4  9  1  0
  5  6  1  0
  6  7  2  0
  8  7  1  0
  9  8  2  0
 10  2  1  0
 11 10  2  0
 13 12  1  0
 14 13  2  0
 15 13  1  0
 16 15  1  1
 16 17  1  0
 17 10  1  0
 18 16  1  0
 18 26  1  0
 19 18  2  0
 21 22  2  0
 21 20  1  0
 23 21  1  0
 24 23  1  0
 25 24  1  6
 25 26  1  0
 27 28  1  0
 27 25  1  0
 29 27  2  0
M  END
$$$$
