FNQ.pdb
     RDKit          3D

 29 29  0  0  1  0  0  0  0  0999 V2000
   28.4198  -20.7423   -8.6250 N   0  0  0  0  0  0  0  0  0  0  0  0
   26.9833  -20.5233   -8.5318 C   0  0  1  0  0  0  0  0  0  0  0  0
   26.7173  -19.3919   -7.5722 C   0  0  0  0  0  0  0  0  0  0  0  0
   27.3588  -19.5343   -6.2663 C   0  0  0  0  0  0  0  0  0  0  0  0
   28.4200  -18.7435   -5.9117 C   0  0  0  0  0  0  0  0  0  0  0  0
   28.9998  -18.9034   -4.6708 C   0  0  0  0  0  0  0  0  0  0  0  0
   28.5180  -19.8600   -3.7747 C   0  0  0  0  0  0  0  0  0  0  0  0
   27.4471  -20.6532   -4.1413 C   0  0  0  0  0  0  0  0  0  0  0  0
   26.8682  -20.4945   -5.3784 C   0  0  0  0  0  0  0  0  0  0  0  0
   26.4217  -20.2874   -9.8832 C   0  0  0  0  0  0  0  0  0  0  0  0
   26.6481  -19.2117  -10.4576 O   0  0  0  0  0  0  0  0  0  0  0  0
   28.3775  -21.6111  -12.8608 N   0  0  0  0  0  0  0  0  0  0  0  0
   27.1765  -20.9781  -13.1616 C   0  0  0  0  0  0  0  0  0  0  0  0
   27.2357  -19.7894  -13.6215 O   0  0  0  0  0  0  0  0  0  0  0  0
   25.8226  -21.5344  -13.0064 C   0  0  0  0  0  0  0  0  0  0  0  0
   25.0595  -20.9709  -11.8468 C   0  0  2  0  0  0  0  0  0  0  0  0
   25.6265  -21.2375  -10.5692 N   0  0  0  0  0  0  0  0  0  0  0  0
   23.6136  -21.3562  -11.8896 C   0  0  0  0  0  0  0  0  0  0  0  0
   23.0377  -21.6960  -10.8322 O   0  0  0  0  0  0  0  0  0  0  0  0
   19.8311  -17.7275  -13.1839 N   0  0  0  0  0  0  0  0  0  0  0  0
   19.0690  -18.5812  -12.3459 C   0  0  0  0  0  0  0  0  0  0  0  0
   17.8811  -18.2611  -12.0504 O   0  0  0  0  0  0  0  0  0  0  0  0
   19.6720  -19.8277  -11.8415 C   0  0  0  0  0  0  0  0  0  0  0  0
   21.0889  -20.0696  -12.1602 C   0  0  0  0  0  0  0  0  0  0  0  0
   21.4005  -21.2695  -12.9889 C   0  0  2  0  0  0  0  0  0  0  0  0
   22.8665  -21.3518  -13.0850 N   0  0  0  0  0  0  0  0  0  0  0  0
   20.7766  -21.2979  -14.2863 C   0  0  0  0  0  0  0  0  0  0  0  0
   19.6180  -22.0616  -14.4630 O   0  0  0  0  0  0  0  0  0  0  0  0
   21.1888  -20.6830  -15.3014 O   0  0  0  0  0  0  0  0  0  0  0  0
  2  1  1  6
  2  3  1  0
  3  4  1  0
  4  5  2  0
  4  9  1  0
  5  6  1  0
  6  7  2  0
  8  7  1  0
  9  8  2  0
 10  2  1  0
 11 10  2  0
 13 12  1  0
 14 13  2  0
 15 13  1  0
 16 15  1  6
 16 17  1  0
 17 10  1  0
 18 16  1  0
 18 26  1  0
 19 18  2  0
 21 22  2  0
 21 20  1  0
 23 21  1  0
 24 23  1  0
 25 24  1  6
 25 26  1  0
 27 28  1  0
 27 25  1  0
 29 27  2  0
M  END
$$$$
