FNQ.pdb
     RDKit          3D

 29 29  0  0  1  0  0  0  0  0999 V2000
   28.2680  -21.6176  -15.7589 N   0  0  0  0  0  0  0  0  0  0  0  0
   27.4296  -20.6115  -16.3956 C   0  0  1  0  0  0  0  0  0  0  0  0
   27.1245  -21.0438  -17.8068 C   0  0  0  0  0  0  0  0  0  0  0  0
   27.6009  -20.1291  -18.8429 C   0  0  0  0  0  0  0  0  0  0  0  0
   26.8039  -19.1180  -19.3119 C   0  0  0  0  0  0  0  0  0  0  0  0
   27.2863  -18.2721  -20.2884 C   0  0  0  0  0  0  0  0  0  0  0  0
   28.5745  -18.4348  -20.8024 C   0  0  0  0  0  0  0  0  0  0  0  0
   29.3711  -19.4576  -20.3231 C   0  0  0  0  0  0  0  0  0  0  0  0
   28.8911  -20.3017  -19.3494 C   0  0  0  0  0  0  0  0  0  0  0  0
   26.2139  -20.3802  -15.5796 C   0  0  0  0  0  0  0  0  0  0  0  0
   26.3211  -19.8481  -14.4644 O   0  0  0  0  0  0  0  0  0  0  0  0
   22.0816  -17.9884  -13.8655 N   0  0  0  0  0  0  0  0  0  0  0  0
   22.5993  -17.8864  -15.1521 C   0  0  0  0  0  0  0  0  0  0  0  0
   21.9900  -17.1240  -15.9740 O   0  0  0  0  0  0  0  0  0  0  0  0
   23.7906  -18.5704  -15.6808 C   0  0  0  0  0  0  0  0  0  0  0  0
   23.7489  -20.0620  -15.5463 C   0  0  2  0  0  0  0  0  0  0  0  0
   24.9126  -20.7386  -16.0081 N   0  0  0  0  0  0  0  0  0  0  0  0
   22.5084  -20.6427  -16.1504 C   0  0  0  0  0  0  0  0  0  0  0  0
   22.1987  -20.3412  -17.3245 O   0  0  0  0  0  0  0  0  0  0  0  0
   17.9871  -22.7999  -12.0593 N   0  0  0  0  0  0  0  0  0  0  0  0
   19.2005  -23.2216  -12.6607 C   0  0  0  0  0  0  0  0  0  0  0  0
   19.7147  -24.3241  -12.3130 O   0  0  0  0  0  0  0  0  0  0  0  0
   19.8353  -22.3718  -13.6838 C   0  0  0  0  0  0  0  0  0  0  0  0
   19.6718  -22.7726  -15.0910 C   0  0  0  0  0  0  0  0  0  0  0  0
   20.4431  -22.0016  -16.1080 C   0  0  2  0  0  0  0  0  0  0  0  0
   21.6661  -21.5244  -15.4432 N   0  0  0  0  0  0  0  0  0  0  0  0
   19.7226  -20.9265  -16.7390 C   0  0  0  0  0  0  0  0  0  0  0  0
   18.9001  -21.2142  -17.8333 O   0  0  0  0  0  0  0  0  0  0  0  0
   19.7664  -19.7212  -16.3872 O   0  0  0  0  0  0  0  0  0  0  0  0
  2  1  1  1
  2  3  1  0
  3  4  1  0
  4  5  2  0
  4  9  1  0
  5  6  1  0
  6  7  2  0
  8  7  1  0
  9  8  2  0
 10  2  1  0
 11 10  2  0
 13 12  1  0
 14 13  2  0
 15 13  1  0
 16 15  1  6
 16 17  1  0
 17 10  1  0
 18 16  1  0
 18 26  1  0
 19 18  2  0
 21 22  2  0
 21 20  1  0
 23 21  1  0
 24 23  1  0
 25 24  1  1
 25 26  1  0
 27 28  1  0
 27 25  1  0
 29 27  2  0
M  END
$$$$
