FNQ.pdb
     RDKit          3D

 29 29  0  0  1  0  0  0  0  0999 V2000
   29.1298  -21.6939   -9.1031 N   0  0  0  0  0  0  0  0  0  0  0  0
   27.7721  -21.1782   -9.2070 C   0  0  1  0  0  0  0  0  0  0  0  0
   27.7076  -19.8215   -8.5537 C   0  0  0  0  0  0  0  0  0  0  0  0
   27.9326  -19.8273   -7.1092 C   0  0  0  0  0  0  0  0  0  0  0  0
   26.9058  -20.0753   -6.2364 C   0  0  0  0  0  0  0  0  0  0  0  0
   27.1542  -20.0752   -4.8799 C   0  0  0  0  0  0  0  0  0  0  0  0
   28.4372  -19.8257   -4.3883 C   0  0  0  0  0  0  0  0  0  0  0  0
   29.4666  -19.5764   -5.2764 C   0  0  0  0  0  0  0  0  0  0  0  0
   29.2200  -19.5764   -6.6292 C   0  0  0  0  0  0  0  0  0  0  0  0
   27.3467  -21.1637  -10.6269 C   0  0  0  0  0  0  0  0  0  0  0  0
   28.1895  -21.3523  -11.5171 O   0  0  0  0  0  0  0  0  0  0  0  0
   26.1048  -23.5863  -15.0459 N   0  0  0  0  0  0  0  0  0  0  0  0
   25.3339  -23.2503  -13.9384 C   0  0  0  0  0  0  0  0  0  0  0  0
   24.0657  -23.3187  -14.0603 O   0  0  0  0  0  0  0  0  0  0  0  0
   25.8248  -22.8176  -12.6199 C   0  0  0  0  0  0  0  0  0  0  0  0
   25.5138  -21.3896  -12.2905 C   0  0  2  0  0  0  0  0  0  0  0  0
   26.0082  -20.9427  -11.0332 N   0  0  0  0  0  0  0  0  0  0  0  0
   24.0550  -21.0874  -12.4380 C   0  0  0  0  0  0  0  0  0  0  0  0
   23.2486  -21.5261  -11.5880 O   0  0  0  0  0  0  0  0  0  0  0  0
   21.6242  -16.9159  -16.6126 N   0  0  0  0  0  0  0  0  0  0  0  0
   20.6152  -17.0279  -15.6221 C   0  0  0  0  0  0  0  0  0  0  0  0
   19.5828  -16.3011  -15.7035 O   0  0  0  0  0  0  0  0  0  0  0  0
   20.7848  -17.9931  -14.5214 C   0  0  0  0  0  0  0  0  0  0  0  0
   22.0415  -18.7592  -14.4827 C   0  0  0  0  0  0  0  0  0  0  0  0
   22.2058  -19.7332  -13.3655 C   0  0  2  0  0  0  0  0  0  0  0  0
   23.5474  -20.3209  -13.5066 N   0  0  0  0  0  0  0  0  0  0  0  0
   21.1848  -20.7447  -13.2783 C   0  0  0  0  0  0  0  0  0  0  0  0
   21.3009  -21.8928  -14.0690 O   0  0  0  0  0  0  0  0  0  0  0  0
   20.1720  -20.6889  -12.5370 O   0  0  0  0  0  0  0  0  0  0  0  0
  2  1  1  6
  2  3  1  0
  3  4  1  0
  4  5  2  0
  4  9  1  0
  5  6  1  0
  6  7  2  0
  8  7  1  0
  9  8  2  0
 10  2  1  0
 11 10  2  0
 13 12  1  0
 14 13  2  0
 15 13  1  0
 16 15  1  1
 16 17  1  0
 17 10  1  0
 18 16  1  0
 18 26  1  0
 19 18  2  0
 21 22  2  0
 21 20  1  0
 23 21  1  0
 24 23  1  0
 25 24  1  6
 25 26  1  0
 27 28  1  0
 27 25  1  0
 29 27  2  0
M  END
$$$$
