FNQ.pdb
     RDKit          3D

 29 29  0  0  1  0  0  0  0  0999 V2000
   27.5847  -21.5684   -8.6093 N   0  0  0  0  0  0  0  0  0  0  0  0
   26.5192  -20.5774   -8.5544 C   0  0  1  0  0  0  0  0  0  0  0  0
   27.0424  -19.3254   -7.8984 C   0  0  0  0  0  0  0  0  0  0  0  0
   27.6583  -19.5330   -6.5889 C   0  0  0  0  0  0  0  0  0  0  0  0
   28.9981  -19.3190   -6.3977 C   0  0  0  0  0  0  0  0  0  0  0  0
   29.5456  -19.5226   -5.1486 C   0  0  0  0  0  0  0  0  0  0  0  0
   28.7512  -19.9433   -4.0799 C   0  0  0  0  0  0  0  0  0  0  0  0
   27.4007  -20.1567   -4.2824 C   0  0  0  0  0  0  0  0  0  0  0  0
   26.8537  -19.9540   -5.5276 C   0  0  0  0  0  0  0  0  0  0  0  0
   25.9802  -20.3425   -9.9151 C   0  0  0  0  0  0  0  0  0  0  0  0
   25.2975  -19.3303  -10.1334 O   0  0  0  0  0  0  0  0  0  0  0  0
   27.5540  -19.0798  -13.8687 N   0  0  0  0  0  0  0  0  0  0  0  0
   27.6075  -20.4602  -14.0279 C   0  0  0  0  0  0  0  0  0  0  0  0
   28.5089  -20.9302  -14.7989 O   0  0  0  0  0  0  0  0  0  0  0  0
   26.7264  -21.4561  -13.3966 C   0  0  0  0  0  0  0  0  0  0  0  0
   25.8318  -20.8945  -12.3342 C   0  0  2  0  0  0  0  0  0  0  0  0
   26.2040  -21.2238  -11.0008 N   0  0  0  0  0  0  0  0  0  0  0  0
   24.3919  -21.2144  -12.5900 C   0  0  0  0  0  0  0  0  0  0  0  0
   23.9400  -22.3283  -12.2430 O   0  0  0  0  0  0  0  0  0  0  0  0
   20.0570  -16.7252  -12.7906 N   0  0  0  0  0  0  0  0  0  0  0  0
   19.2814  -17.9091  -12.6975 C   0  0  0  0  0  0  0  0  0  0  0  0
   18.0304  -17.8194  -12.5309 O   0  0  0  0  0  0  0  0  0  0  0  0
   19.9457  -19.2203  -12.8036 C   0  0  0  0  0  0  0  0  0  0  0  0
   21.4085  -19.2247  -12.9707 C   0  0  0  0  0  0  0  0  0  0  0  0
   22.0685  -20.5537  -13.1181 C   0  0  2  0  0  0  0  0  0  0  0  0
   23.5153  -20.3027  -13.2125 N   0  0  0  0  0  0  0  0  0  0  0  0
   21.5921  -21.3572  -14.2139 C   0  0  0  0  0  0  0  0  0  0  0  0
   20.4652  -22.1633  -14.0216 O   0  0  0  0  0  0  0  0  0  0  0  0
   22.1100  -21.4015  -15.3577 O   0  0  0  0  0  0  0  0  0  0  0  0
  2  1  1  6
  2  3  1  0
  3  4  1  0
  4  5  2  0
  4  9  1  0
  5  6  1  0
  6  7  2  0
  8  7  1  0
  9  8  2  0
 10  2  1  0
 11 10  2  0
 13 12  1  0
 14 13  2  0
 15 13  1  0
 16 15  1  6
 16 17  1  0
 17 10  1  0
 18 16  1  0
 18 26  1  0
 19 18  2  0
 21 22  2  0
 21 20  1  0
 23 21  1  0
 24 23  1  0
 25 24  1  6
 25 26  1  0
 27 28  1  0
 27 25  1  0
 29 27  2  0
M  END
$$$$
