FNQ.pdb
     RDKit          3D

 29 29  0  0  1  0  0  0  0  0999 V2000
   25.7736  -21.3516  -10.5086 N   0  0  0  0  0  0  0  0  0  0  0  0
   24.6007  -21.2207  -11.3616 C   0  0  1  0  0  0  0  0  0  0  0  0
   23.5843  -20.3465  -10.6731 C   0  0  0  0  0  0  0  0  0  0  0  0
   22.9839  -20.9333   -9.4762 C   0  0  0  0  0  0  0  0  0  0  0  0
   23.5256  -20.7162   -8.2365 C   0  0  0  0  0  0  0  0  0  0  0  0
   22.9320  -21.2835   -7.1286 C   0  0  0  0  0  0  0  0  0  0  0  0
   21.7882  -22.0743   -7.2567 C   0  0  0  0  0  0  0  0  0  0  0  0
   21.2490  -22.2877   -8.5114 C   0  0  0  0  0  0  0  0  0  0  0  0
   21.8401  -21.7225   -9.6168 C   0  0  0  0  0  0  0  0  0  0  0  0
   25.0023  -20.7114  -12.6944 C   0  0  0  0  0  0  0  0  0  0  0  0
   25.7013  -19.6896  -12.7707 O   0  0  0  0  0  0  0  0  0  0  0  0
   26.7380  -22.4687  -14.1743 N   0  0  0  0  0  0  0  0  0  0  0  0
   26.6932  -22.0476  -15.4989 C   0  0  0  0  0  0  0  0  0  0  0  0
   27.5545  -22.5376  -16.3026 O   0  0  0  0  0  0  0  0  0  0  0  0
   25.7484  -21.0843  -16.0872 C   0  0  0  0  0  0  0  0  0  0  0  0
   24.6584  -20.6505  -15.1554 C   0  0  2  0  0  0  0  0  0  0  0  0
   24.6269  -21.3359  -13.9087 N   0  0  0  0  0  0  0  0  0  0  0  0
   23.3164  -20.6694  -15.8187 C   0  0  0  0  0  0  0  0  0  0  0  0
   22.3161  -21.0465  -15.1687 O   0  0  0  0  0  0  0  0  0  0  0  0
   21.6071  -15.4654  -16.0824 N   0  0  0  0  0  0  0  0  0  0  0  0
   20.6308  -16.3904  -15.6319 C   0  0  0  0  0  0  0  0  0  0  0  0
   19.6091  -15.9644  -15.0190 O   0  0  0  0  0  0  0  0  0  0  0  0
   20.8208  -17.8284  -15.8922 C   0  0  0  0  0  0  0  0  0  0  0  0
   22.0625  -18.2333  -16.5719 C   0  0  0  0  0  0  0  0  0  0  0  0
   21.9828  -19.4137  -17.4796 C   0  0  2  0  0  0  0  0  0  0  0  0
   23.1317  -20.2755  -17.1595 N   0  0  0  0  0  0  0  0  0  0  0  0
   21.9207  -19.1044  -18.8844 C   0  0  0  0  0  0  0  0  0  0  0  0
   23.0922  -18.7191  -19.5446 O   0  0  0  0  0  0  0  0  0  0  0  0
   20.8825  -19.1501  -19.5905 O   0  0  0  0  0  0  0  0  0  0  0  0
  2  1  1  1
  2  3  1  0
  3  4  1  0
  4  5  2  0
  4  9  1  0
  5  6  1  0
  6  7  2  0
  8  7  1  0
  9  8  2  0
 10  2  1  0
 11 10  2  0
 13 12  1  0
 14 13  2  0
 15 13  1  0
 16 15  1  6
 16 17  1  0
 17 10  1  0
 18 16  1  0
 18 26  1  0
 19 18  2  0
 21 22  2  0
 21 20  1  0
 23 21  1  0
 24 23  1  0
 25 24  1  1
 25 26  1  0
 27 28  1  0
 27 25  1  0
 29 27  2  0
M  END
$$$$
