FNQ.pdb
     RDKit          3D

 29 29  0  0  1  0  0  0  0  0999 V2000
   18.0276  -12.0667  -16.5225 N   0  0  0  0  0  0  0  0  0  0  0  0
   19.2288  -11.4121  -17.0212 C   0  0  1  0  0  0  0  0  0  0  0  0
   19.2024  -11.4128  -18.5281 C   0  0  0  0  0  0  0  0  0  0  0  0
   19.2469  -12.7399  -19.1397 C   0  0  0  0  0  0  0  0  0  0  0  0
   18.1140  -13.3225  -19.6441 C   0  0  0  0  0  0  0  0  0  0  0  0
   18.1928  -14.5748  -20.2162 C   0  0  0  0  0  0  0  0  0  0  0  0
   19.4115  -15.2530  -20.2864 C   0  0  0  0  0  0  0  0  0  0  0  0
   20.5490  -14.6573  -19.7749 C   0  0  0  0  0  0  0  0  0  0  0  0
   20.4715  -13.4086  -19.2043 C   0  0  0  0  0  0  0  0  0  0  0  0
   19.3396  -10.0532  -16.4394 C   0  0  0  0  0  0  0  0  0  0  0  0
   18.3142   -9.4676  -16.0602 O   0  0  0  0  0  0  0  0  0  0  0  0
   21.1594   -5.5052  -14.3966 N   0  0  0  0  0  0  0  0  0  0  0  0
   21.5796   -6.7020  -13.8266 C   0  0  0  0  0  0  0  0  0  0  0  0
   22.1887   -6.6399  -12.7071 O   0  0  0  0  0  0  0  0  0  0  0  0
   21.3978   -8.0542  -14.3788 C   0  0  0  0  0  0  0  0  0  0  0  0
   20.6598   -8.0880  -15.6822 C   0  0  2  0  0  0  0  0  0  0  0  0
   20.5721   -9.3722  -16.2888 N   0  0  0  0  0  0  0  0  0  0  0  0
   21.1810   -7.0676  -16.6456 C   0  0  0  0  0  0  0  0  0  0  0  0
   22.3482   -7.1766  -17.0828 O   0  0  0  0  0  0  0  0  0  0  0  0
   18.0871   -4.1164  -21.1518 N   0  0  0  0  0  0  0  0  0  0  0  0
   19.0301   -5.1472  -21.3967 C   0  0  0  0  0  0  0  0  0  0  0  0
   18.9840   -5.7830  -22.4896 O   0  0  0  0  0  0  0  0  0  0  0  0
   20.0496   -5.4533  -20.3775 C   0  0  0  0  0  0  0  0  0  0  0  0
   19.9336   -4.7686  -19.0793 C   0  0  0  0  0  0  0  0  0  0  0  0
   20.9911   -5.0535  -18.0674 C   0  0  2  0  0  0  0  0  0  0  0  0
   20.4026   -5.9776  -17.0850 N   0  0  0  0  0  0  0  0  0  0  0  0
   21.5637   -3.8936  -17.4350 C   0  0  0  0  0  0  0  0  0  0  0  0
   22.8274   -3.4549  -17.8441 O   0  0  0  0  0  0  0  0  0  0  0  0
   21.0174   -3.2214  -16.5250 O   0  0  0  0  0  0  0  0  0  0  0  0
  2  1  1  1
  2  3  1  0
  3  4  1  0
  4  5  2  0
  4  9  1  0
  5  6  1  0
  6  7  2  0
  8  7  1  0
  9  8  2  0
 10  2  1  0
 11 10  2  0
 13 12  1  0
 14 13  2  0
 15 13  1  0
 16 15  1  1
 16 17  1  0
 17 10  1  0
 18 16  1  0
 18 26  1  0
 19 18  2  0
 21 22  2  0
 21 20  1  0
 23 21  1  0
 24 23  1  0
 25 24  1  6
 25 26  1  0
 27 28  1  0
 27 25  1  0
 29 27  2  0
M  END
$$$$
