FNQ.pdb
     RDKit          3D

 29 29  0  0  1  0  0  0  0  0999 V2000
   33.8683  -24.9854  -14.8770 N   0  0  0  0  0  0  0  0  0  0  0  0
   32.4122  -24.9880  -14.8652 C   0  0  1  0  0  0  0  0  0  0  0  0
   31.9205  -23.6843  -14.2907 C   0  0  0  0  0  0  0  0  0  0  0  0
   32.4557  -23.3578  -12.9700 C   0  0  0  0  0  0  0  0  0  0  0  0
   33.4117  -24.1439  -12.3822 C   0  0  0  0  0  0  0  0  0  0  0  0
   33.8959  -23.8050  -11.1362 C   0  0  0  0  0  0  0  0  0  0  0  0
   33.4233  -22.6726  -10.4696 C   0  0  0  0  0  0  0  0  0  0  0  0
   32.4588  -21.8858  -11.0704 C   0  0  0  0  0  0  0  0  0  0  0  0
   31.9754  -22.2227  -12.3128 C   0  0  0  0  0  0  0  0  0  0  0  0
   31.8985  -25.2559  -16.2296 C   0  0  0  0  0  0  0  0  0  0  0  0
   32.5846  -25.9231  -17.0186 O   0  0  0  0  0  0  0  0  0  0  0  0
   30.4408  -27.0849  -20.8883 N   0  0  0  0  0  0  0  0  0  0  0  0
   29.7109  -26.8016  -19.7391 C   0  0  0  0  0  0  0  0  0  0  0  0
   28.4390  -26.7826  -19.8383 O   0  0  0  0  0  0  0  0  0  0  0  0
   30.2497  -26.5165  -18.3994 C   0  0  0  0  0  0  0  0  0  0  0  0
   30.1629  -25.0752  -17.9997 C   0  0  2  0  0  0  0  0  0  0  0  0
   30.6459  -24.7850  -16.6931 N   0  0  0  0  0  0  0  0  0  0  0  0
   28.7876  -24.5207  -18.2051 C   0  0  0  0  0  0  0  0  0  0  0  0
   27.8568  -24.8964  -17.4582 O   0  0  0  0  0  0  0  0  0  0  0  0
   29.2504  -18.6741  -18.7163 N   0  0  0  0  0  0  0  0  0  0  0  0
   27.8392  -18.7749  -18.6153 C   0  0  0  0  0  0  0  0  0  0  0  0
   27.1503  -17.7222  -18.4812 O   0  0  0  0  0  0  0  0  0  0  0  0
   27.2018  -20.1022  -18.6756 C   0  0  0  0  0  0  0  0  0  0  0  0
   28.0833  -21.2670  -18.8597 C   0  0  0  0  0  0  0  0  0  0  0  0
   27.4271  -22.6017  -18.9670 C   0  0  2  0  0  0  0  0  0  0  0  0
   28.4952  -23.5827  -19.2160 N   0  0  0  0  0  0  0  0  0  0  0  0
   26.3777  -22.6923  -19.9488 C   0  0  0  0  0  0  0  0  0  0  0  0
   26.6419  -23.3329  -21.1640 O   0  0  0  0  0  0  0  0  0  0  0  0
   25.2153  -22.2364  -19.8100 O   0  0  0  0  0  0  0  0  0  0  0  0
  2  1  1  6
  2  3  1  0
  3  4  1  0
  4  5  2  0
  4  9  1  0
  5  6  1  0
  6  7  2  0
  8  7  1  0
  9  8  2  0
 10  2  1  0
 11 10  2  0
 13 12  1  0
 14 13  2  0
 15 13  1  0
 16 15  1  1
 16 17  1  0
 17 10  1  0
 18 16  1  0
 18 26  1  0
 19 18  2  0
 21 22  2  0
 21 20  1  0
 23 21  1  0
 24 23  1  0
 25 24  1  6
 25 26  1  0
 27 28  1  0
 27 25  1  0
 29 27  2  0
M  END
$$$$
