FNQ.pdb
     RDKit          3D

 29 29  0  0  1  0  0  0  0  0999 V2000
   24.7255  -18.8289  -17.4676 N   0  0  0  0  0  0  0  0  0  0  0  0
   23.5354  -18.0047  -17.3100 C   0  0  1  0  0  0  0  0  0  0  0  0
   22.8417  -17.8790  -18.6420 C   0  0  0  0  0  0  0  0  0  0  0  0
   23.6190  -17.1947  -19.6739 C   0  0  0  0  0  0  0  0  0  0  0  0
   23.8293  -15.8419  -19.6178 C   0  0  0  0  0  0  0  0  0  0  0  0
   24.5693  -15.2293  -20.6071 C   0  0  0  0  0  0  0  0  0  0  0  0
   25.1046  -15.9710  -21.6622 C   0  0  0  0  0  0  0  0  0  0  0  0
   24.8871  -17.3351  -21.7104 C   0  0  0  0  0  0  0  0  0  0  0  0
   24.1494  -17.9470  -20.7244 C   0  0  0  0  0  0  0  0  0  0  0  0
   22.6676  -18.5717  -16.2504 C   0  0  0  0  0  0  0  0  0  0  0  0
   22.7333  -19.7832  -15.9928 O   0  0  0  0  0  0  0  0  0  0  0  0
   19.7184  -19.5211  -12.0944 N   0  0  0  0  0  0  0  0  0  0  0  0
   20.0218  -18.1673  -12.1892 C   0  0  0  0  0  0  0  0  0  0  0  0
   19.7938  -17.4391  -11.1666 O   0  0  0  0  0  0  0  0  0  0  0  0
   20.5855  -17.4688  -13.3557 C   0  0  0  0  0  0  0  0  0  0  0  0
   20.9033  -18.3676  -14.5114 C   0  0  2  0  0  0  0  0  0  0  0  0
   21.7504  -17.7952  -15.5013 N   0  0  0  0  0  0  0  0  0  0  0  0
   19.6667  -18.9468  -15.1250 C   0  0  0  0  0  0  0  0  0  0  0  0
   19.3984  -18.6932  -16.3204 O   0  0  0  0  0  0  0  0  0  0  0  0
   19.6850  -24.5007  -15.7077 N   0  0  0  0  0  0  0  0  0  0  0  0
   18.2718  -24.4691  -15.5907 C   0  0  0  0  0  0  0  0  0  0  0  0
   17.5982  -25.4834  -15.9345 O   0  0  0  0  0  0  0  0  0  0  0  0
   17.6156  -23.2591  -15.0644 C   0  0  0  0  0  0  0  0  0  0  0  0
   18.4771  -22.1095  -14.7421 C   0  0  0  0  0  0  0  0  0  0  0  0
   17.9876  -20.7616  -15.1510 C   0  0  2  0  0  0  0  0  0  0  0  0
   18.7829  -19.7747  -14.4035 N   0  0  0  0  0  0  0  0  0  0  0  0
   16.5737  -20.5460  -14.9849 C   0  0  0  0  0  0  0  0  0  0  0  0
   16.1185  -19.9064  -13.8271 O   0  0  0  0  0  0  0  0  0  0  0  0
   15.6876  -20.8891  -15.8068 O   0  0  0  0  0  0  0  0  0  0  0  0
  2  1  1  6
  2  3  1  0
  3  4  1  0
  4  5  2  0
  4  9  1  0
  5  6  1  0
  6  7  2  0
  8  7  1  0
  9  8  2  0
 10  2  1  0
 11 10  2  0
 13 12  1  0
 14 13  2  0
 15 13  1  0
 16 15  1  1
 16 17  1  0
 17 10  1  0
 18 16  1  0
 18 26  1  0
 19 18  2  0
 21 22  2  0
 21 20  1  0
 23 21  1  0
 24 23  1  0
 25 24  1  1
 25 26  1  0
 27 28  1  0
 27 25  1  0
 29 27  2  0
M  END
$$$$
