FNQ.pdb
     RDKit          3D

 29 29  0  0  1  0  0  0  0  0999 V2000
   25.8412  -11.2018  -18.5658 N   0  0  0  0  0  0  0  0  0  0  0  0
   24.9210  -11.3439  -17.4463 C   0  0  1  0  0  0  0  0  0  0  0  0
   25.6693  -11.1106  -16.1591 C   0  0  0  0  0  0  0  0  0  0  0  0
   26.6308  -12.1561  -15.8128 C   0  0  0  0  0  0  0  0  0  0  0  0
   26.2245  -13.3147  -15.2046 C   0  0  0  0  0  0  0  0  0  0  0  0
   27.1582  -14.2807  -14.8939 C   0  0  0  0  0  0  0  0  0  0  0  0
   28.5092  -14.0909  -15.1919 C   0  0  0  0  0  0  0  0  0  0  0  0
   28.9097  -12.9189  -15.8054 C   0  0  0  0  0  0  0  0  0  0  0  0
   27.9794  -11.9549  -16.1156 C   0  0  0  0  0  0  0  0  0  0  0  0
   23.7668  -10.4311  -17.6248 C   0  0  0  0  0  0  0  0  0  0  0  0
   23.9133   -9.3835  -18.2725 O   0  0  0  0  0  0  0  0  0  0  0  0
   18.4798   -9.1998  -19.0988 N   0  0  0  0  0  0  0  0  0  0  0  0
   18.9404   -9.6588  -17.8696 C   0  0  0  0  0  0  0  0  0  0  0  0
   18.3176   -9.2725  -16.8251 O   0  0  0  0  0  0  0  0  0  0  0  0
   20.0843  -10.5547  -17.6345 C   0  0  0  0  0  0  0  0  0  0  0  0
   21.3688   -9.8416  -17.3409 C   0  0  2  0  0  0  0  0  0  0  0  0
   22.4822  -10.6911  -17.0883 N   0  0  0  0  0  0  0  0  0  0  0  0
   21.2067   -8.8230  -16.2559 C   0  0  0  0  0  0  0  0  0  0  0  0
   21.3606   -9.1676  -15.0630 O   0  0  0  0  0  0  0  0  0  0  0  0
   23.1074   -3.0271  -16.0952 N   0  0  0  0  0  0  0  0  0  0  0  0
   22.3363   -3.0968  -14.9069 C   0  0  0  0  0  0  0  0  0  0  0  0
   22.3837   -2.1406  -14.0798 O   0  0  0  0  0  0  0  0  0  0  0  0
   21.4893   -4.2775  -14.6614 C   0  0  0  0  0  0  0  0  0  0  0  0
   21.5365   -5.3613  -15.6569 C   0  0  0  0  0  0  0  0  0  0  0  0
   20.6981   -6.5646  -15.3870 C   0  0  2  0  0  0  0  0  0  0  0  0
   20.8843   -7.4776  -16.5260 N   0  0  0  0  0  0  0  0  0  0  0  0
   19.3054   -6.2985  -15.1365 C   0  0  0  0  0  0  0  0  0  0  0  0
   18.9050   -5.9547  -13.8410 O   0  0  0  0  0  0  0  0  0  0  0  0
   18.3925   -6.3482  -15.9982 O   0  0  0  0  0  0  0  0  0  0  0  0
  2  1  1  6
  2  3  1  0
  3  4  1  0
  4  5  2  0
  4  9  1  0
  5  6  1  0
  6  7  2  0
  8  7  1  0
  9  8  2  0
 10  2  1  0
 11 10  2  0
 13 12  1  0
 14 13  2  0
 15 13  1  0
 16 15  1  1
 16 17  1  0
 17 10  1  0
 18 16  1  0
 18 26  1  0
 19 18  2  0
 21 22  2  0
 21 20  1  0
 23 21  1  0
 24 23  1  0
 25 24  1  6
 25 26  1  0
 27 28  1  0
 27 25  1  0
 29 27  2  0
M  END
$$$$
