FNQ.pdb
     RDKit          3D

 29 29  0  0  1  0  0  0  0  0999 V2000
   18.4209   -9.2209  -13.8368 N   0  0  0  0  0  0  0  0  0  0  0  0
   18.6959   -8.8581  -12.4537 C   0  0  1  0  0  0  0  0  0  0  0  0
   19.9496   -8.0233  -12.4019 C   0  0  0  0  0  0  0  0  0  0  0  0
   21.1505   -8.6922  -12.8994 C   0  0  0  0  0  0  0  0  0  0  0  0
   21.7449   -8.2967  -14.0689 C   0  0  0  0  0  0  0  0  0  0  0  0
   22.8781   -8.9487  -14.5077 C   0  0  0  0  0  0  0  0  0  0  0  0
   23.4242  -10.0044  -13.7746 C   0  0  0  0  0  0  0  0  0  0  0  0
   22.8177  -10.3963  -12.5961 C   0  0  0  0  0  0  0  0  0  0  0  0
   21.6877   -9.7468  -12.1577 C   0  0  0  0  0  0  0  0  0  0  0  0
   17.5163   -8.1779  -11.8680 C   0  0  0  0  0  0  0  0  0  0  0  0
   16.8306   -7.4277  -12.5790 O   0  0  0  0  0  0  0  0  0  0  0  0
   14.4022  -10.0760  -10.9493 N   0  0  0  0  0  0  0  0  0  0  0  0
   14.5108   -9.7686   -9.5975 C   0  0  0  0  0  0  0  0  0  0  0  0
   13.9698  -10.5703   -8.7653 O   0  0  0  0  0  0  0  0  0  0  0  0
   15.1908   -8.6031   -9.0094 C   0  0  0  0  0  0  0  0  0  0  0  0
   15.9260   -7.7581  -10.0044 C   0  0  2  0  0  0  0  0  0  0  0  0
   17.1196   -8.3381  -10.5180 N   0  0  0  0  0  0  0  0  0  0  0  0
   16.1737   -6.3751   -9.4877 C   0  0  0  0  0  0  0  0  0  0  0  0
   17.0267   -6.1995   -8.5895 O   0  0  0  0  0  0  0  0  0  0  0  0
   16.3441   -1.2574  -12.8379 N   0  0  0  0  0  0  0  0  0  0  0  0
   16.4699   -0.7243  -11.5295 C   0  0  0  0  0  0  0  0  0  0  0  0
   16.7121    0.5088  -11.3829 O   0  0  0  0  0  0  0  0  0  0  0  0
   16.3090   -1.6145  -10.3662 C   0  0  0  0  0  0  0  0  0  0  0  0
   16.0571   -3.0398  -10.6362 C   0  0  0  0  0  0  0  0  0  0  0  0
   15.8445   -3.9248   -9.4550 C   0  0  2  0  0  0  0  0  0  0  0  0
   15.4780   -5.2509   -9.9768 N   0  0  0  0  0  0  0  0  0  0  0  0
   14.8866   -3.4446   -8.4931 C   0  0  0  0  0  0  0  0  0  0  0  0
   15.2920   -2.4920   -7.5525 O   0  0  0  0  0  0  0  0  0  0  0  0
   13.6877   -3.8130   -8.4196 O   0  0  0  0  0  0  0  0  0  0  0  0
  2  1  1  6
  2  3  1  0
  3  4  1  0
  4  5  2  0
  4  9  1  0
  5  6  1  0
  6  7  2  0
  8  7  1  0
  9  8  2  0
 10  2  1  0
 11 10  2  0
 13 12  1  0
 14 13  2  0
 15 13  1  0
 16 15  1  1
 16 17  1  0
 17 10  1  0
 18 16  1  0
 18 26  1  0
 19 18  2  0
 21 22  2  0
 21 20  1  0
 23 21  1  0
 24 23  1  0
 25 24  1  6
 25 26  1  0
 27 28  1  0
 27 25  1  0
 29 27  2  0
M  END
$$$$
