GLC.pdb
     RDKit          3D

 19 18  0  0  1  0  0  0  0  0999 V2000
   34.7604  -13.7316  -19.6701 N   0  0  0  0  0  0  0  0  0  0  0  0
   34.7280  -12.3342  -20.0655 C   0  0  0  0  0  0  0  0  0  0  0  0
   33.7596  -11.6142  -19.1724 C   0  0  0  0  0  0  0  0  0  0  0  0
   32.7614  -12.2127  -18.6969 O   0  0  0  0  0  0  0  0  0  0  0  0
   34.0076  -10.1681  -15.1393 C   0  0  0  0  0  0  0  0  0  0  0  0
   34.6185   -9.1780  -16.0467 C   0  0  2  0  0  0  0  0  0  0  0  0
   35.3484   -8.0682  -15.2778 C   0  0  0  0  0  0  0  0  0  0  0  0
   33.7304   -8.6200  -17.0828 C   0  0  0  0  0  0  0  0  0  0  0  0
   32.9546   -9.5260  -17.9587 C   0  0  2  0  0  0  0  0  0  0  0  0
   33.9385  -10.2501  -18.8402 N   0  0  0  0  0  0  0  0  0  0  0  0
   31.9074   -8.9619  -18.7883 C   0  0  0  0  0  0  0  0  0  0  0  0
   32.0147   -8.4150  -19.9130 O   0  0  0  0  0  0  0  0  0  0  0  0
   30.5209   -8.9874  -18.3402 N   0  0  0  0  0  0  0  0  0  0  0  0
   29.4338   -8.4746  -19.1250 C   0  0  1  0  0  0  0  0  0  0  0  0
   28.1046   -9.0872  -18.7522 C   0  0  0  0  0  0  0  0  0  0  0  0
   26.7409   -8.4523  -19.7245 S   0  0  0  0  0  0  0  0  0  0  0  0
   29.3863   -7.0018  -19.1469 C   0  0  0  0  0  0  0  0  0  0  0  0
   29.2134   -6.3276  -20.3378 O   0  0  0  0  0  0  0  0  0  0  0  0
   29.5007   -6.3378  -18.0964 O   0  0  0  0  0  0  0  0  0  0  0  0
  1  2  1  0
  2  3  1  0
  3  4  2  0
  6  7  1  1
  6  5  1  0
  9  8  1  6
  8  6  1  0
  9 11  1  0
 10  3  1  0
 10  9  1  0
 11 12  2  0
 13 14  1  0
 13 11  1  0
 14 17  1  0
 14 15  1  1
 16 15  1  0
 17 19  2  0
 17 18  1  0
M  END
$$$$
