GLC.pdb
     RDKit          3D

 19 18  0  0  1  0  0  0  0  0999 V2000
   21.5293  -11.3643  -18.7912 N   0  0  0  0  0  0  0  0  0  0  0  0
   20.9507  -11.6312  -17.4858 C   0  0  0  0  0  0  0  0  0  0  0  0
   21.5679  -10.6872  -16.4950 C   0  0  0  0  0  0  0  0  0  0  0  0
   21.1939  -10.6852  -15.2946 O   0  0  0  0  0  0  0  0  0  0  0  0
   25.3764  -10.7632  -14.5476 C   0  0  0  0  0  0  0  0  0  0  0  0
   25.4578  -10.1999  -15.9088 C   0  0  2  0  0  0  0  0  0  0  0  0
   26.9083  -10.0845  -16.3966 C   0  0  0  0  0  0  0  0  0  0  0  0
   24.7137   -8.9469  -16.1326 C   0  0  0  0  0  0  0  0  0  0  0  0
   23.2594   -8.8919  -15.8646 C   0  0  2  0  0  0  0  0  0  0  0  0
   22.5820   -9.7772  -16.8779 N   0  0  0  0  0  0  0  0  0  0  0  0
   22.6028   -7.5989  -15.8571 C   0  0  0  0  0  0  0  0  0  0  0  0
   22.9152   -6.5707  -15.2084 O   0  0  0  0  0  0  0  0  0  0  0  0
   21.4197   -7.3706  -16.6769 N   0  0  0  0  0  0  0  0  0  0  0  0
   20.7156   -6.1200  -16.7062 C   0  0  1  0  0  0  0  0  0  0  0  0
   20.0052   -5.8804  -18.0173 C   0  0  0  0  0  0  0  0  0  0  0  0
   21.0904   -6.0025  -19.4370 S   0  0  0  0  0  0  0  0  0  0  0  0
   19.8278   -5.9337  -15.5447 C   0  0  0  0  0  0  0  0  0  0  0  0
   19.3854   -4.6734  -15.2005 O   0  0  0  0  0  0  0  0  0  0  0  0
   19.4598   -6.9050  -14.8528 O   0  0  0  0  0  0  0  0  0  0  0  0
  1  2  1  0
  2  3  1  0
  3  4  2  0
  6  7  1  1
  6  5  1  0
  9  8  1  6
  8  6  1  0
  9 11  1  0
 10  3  1  0
 10  9  1  0
 11 12  2  0
 13 14  1  0
 13 11  1  0
 14 17  1  0
 14 15  1  6
 16 15  1  0
 17 19  2  0
 17 18  1  0
M  END
$$$$
