GLC.pdb
     RDKit          3D

 19 18  0  0  1  0  0  0  0  0999 V2000
   27.3751  -21.9545  -16.3568 N   0  0  0  0  0  0  0  0  0  0  0  0
   27.1026  -20.7883  -15.5347 C   0  0  0  0  0  0  0  0  0  0  0  0
   26.2084  -21.2074  -14.4040 C   0  0  0  0  0  0  0  0  0  0  0  0
   25.7471  -22.3759  -14.3525 O   0  0  0  0  0  0  0  0  0  0  0  0
   25.1298  -21.9512   -9.4462 C   0  0  0  0  0  0  0  0  0  0  0  0
   25.9629  -20.7915   -9.8171 C   0  0  2  0  0  0  0  0  0  0  0  0
   26.2185  -19.8627   -8.6222 C   0  0  0  0  0  0  0  0  0  0  0  0
   25.5213  -20.0340  -11.0023 C   0  0  0  0  0  0  0  0  0  0  0  0
   25.0240  -20.7525  -12.1967 C   0  0  2  0  0  0  0  0  0  0  0  0
   25.8592  -20.3076  -13.3688 N   0  0  0  0  0  0  0  0  0  0  0  0
   23.6218  -20.6317  -12.5463 C   0  0  0  0  0  0  0  0  0  0  0  0
   22.6276  -20.6079  -11.7804 O   0  0  0  0  0  0  0  0  0  0  0  0
   23.2196  -20.5185  -13.9424 N   0  0  0  0  0  0  0  0  0  0  0  0
   21.8580  -20.3220  -14.3525 C   0  0  1  0  0  0  0  0  0  0  0  0
   21.7452  -19.6370  -15.6938 C   0  0  0  0  0  0  0  0  0  0  0  0
   20.0516  -19.4448  -16.2444 S   0  0  0  0  0  0  0  0  0  0  0  0
   21.0538  -21.5551  -14.2828 C   0  0  0  0  0  0  0  0  0  0  0  0
   19.7736  -21.5244  -13.7703 O   0  0  0  0  0  0  0  0  0  0  0  0
   21.5104  -22.6455  -14.6830 O   0  0  0  0  0  0  0  0  0  0  0  0
  1  2  1  0
  2  3  1  0
  3  4  2  0
  6  7  1  1
  6  5  1  0
  9  8  1  1
  8  6  1  0
  9 11  1  0
 10  3  1  0
 10  9  1  0
 11 12  2  0
 13 14  1  0
 13 11  1  0
 14 17  1  0
 14 15  1  6
 16 15  1  0
 17 19  2  0
 17 18  1  0
M  END
$$$$
