GLC.pdb
     RDKit          3D

 19 18  0  0  1  0  0  0  0  0999 V2000
   21.2789  -13.0214  -17.4954 N   0  0  0  0  0  0  0  0  0  0  0  0
   20.5273  -12.5878  -16.3303 C   0  0  0  0  0  0  0  0  0  0  0  0
   19.9730  -11.2208  -16.6093 C   0  0  0  0  0  0  0  0  0  0  0  0
   20.2891  -10.6041  -17.6584 O   0  0  0  0  0  0  0  0  0  0  0  0
   14.8835   -8.1245  -16.1635 C   0  0  0  0  0  0  0  0  0  0  0  0
   16.3490   -8.0080  -16.2878 C   0  0  2  0  0  0  0  0  0  0  0  0
   16.7634   -7.3747  -17.6230 C   0  0  0  0  0  0  0  0  0  0  0  0
   17.1182   -9.2354  -16.0129 C   0  0  0  0  0  0  0  0  0  0  0  0
   18.5958   -9.1839  -15.9488 C   0  0  2  0  0  0  0  0  0  0  0  0
   19.0843  -10.5883  -15.7074 N   0  0  0  0  0  0  0  0  0  0  0  0
   19.2189   -8.2977  -14.9848 C   0  0  0  0  0  0  0  0  0  0  0  0
   19.3092   -8.4402  -13.7409 O   0  0  0  0  0  0  0  0  0  0  0  0
   19.8463   -7.0580  -15.4244 N   0  0  0  0  0  0  0  0  0  0  0  0
   20.4048   -6.0970  -14.5159 C   0  0  1  0  0  0  0  0  0  0  0  0
   21.8373   -6.4041  -14.1490 C   0  0  0  0  0  0  0  0  0  0  0  0
   22.6003   -5.1199  -13.1607 S   0  0  0  0  0  0  0  0  0  0  0  0
   20.2280   -4.7064  -14.9711 C   0  0  0  0  0  0  0  0  0  0  0  0
   19.7859   -3.7371  -14.0950 O   0  0  0  0  0  0  0  0  0  0  0  0
   20.4726   -4.3784  -16.1501 O   0  0  0  0  0  0  0  0  0  0  0  0
  1  2  1  0
  2  3  1  0
  3  4  2  0
  6  7  1  6
  6  5  1  0
  9  8  1  1
  8  6  1  0
  9 11  1  0
 10  3  1  0
 10  9  1  0
 11 12  2  0
 13 14  1  0
 13 11  1  0
 14 17  1  0
 14 15  1  6
 16 15  1  0
 17 19  2  0
 17 18  1  0
M  END
$$$$
