GLC.pdb
     RDKit          3D

 19 18  0  0  1  0  0  0  0  0999 V2000
   17.3646   -8.8067  -17.6416 N   0  0  0  0  0  0  0  0  0  0  0  0
   17.8218   -7.6461  -16.8971 C   0  0  0  0  0  0  0  0  0  0  0  0
   17.9579   -8.0359  -15.4537 C   0  0  0  0  0  0  0  0  0  0  0  0
   17.0944   -8.7661  -14.9041 O   0  0  0  0  0  0  0  0  0  0  0  0
   20.8212  -10.5542  -13.2383 C   0  0  0  0  0  0  0  0  0  0  0  0
   21.3596   -9.2010  -13.4738 C   0  0  2  0  0  0  0  0  0  0  0  0
   22.8475   -9.1038  -13.1102 C   0  0  0  0  0  0  0  0  0  0  0  0
   20.5887   -8.0899  -12.8865 C   0  0  0  0  0  0  0  0  0  0  0  0
   19.1525   -7.9347  -13.2077 C   0  0  2  0  0  0  0  0  0  0  0  0
   19.0536   -7.5973  -14.6726 N   0  0  0  0  0  0  0  0  0  0  0  0
   18.3711   -6.9755  -12.4511 C   0  0  0  0  0  0  0  0  0  0  0  0
   18.3344   -5.7274  -12.5789 O   0  0  0  0  0  0  0  0  0  0  0  0
   17.4862   -7.4265  -11.3846 N   0  0  0  0  0  0  0  0  0  0  0  0
   16.6485   -6.5363  -10.6320 C   0  0  1  0  0  0  0  0  0  0  0  0
   15.4052   -7.2115  -10.1036 C   0  0  0  0  0  0  0  0  0  0  0  0
   14.4769   -6.1843   -8.9672 S   0  0  0  0  0  0  0  0  0  0  0  0
   17.3820   -5.8091   -9.5808 C   0  0  0  0  0  0  0  0  0  0  0  0
   17.1572   -4.4634   -9.3776 O   0  0  0  0  0  0  0  0  0  0  0  0
   18.2161   -6.3907   -8.8572 O   0  0  0  0  0  0  0  0  0  0  0  0
  1  2  1  0
  2  3  1  0
  3  4  2  0
  6  7  1  1
  6  5  1  0
  9  8  1  1
  8  6  1  0
  9 11  1  0
 10  3  1  0
 10  9  1  0
 11 12  2  0
 13 14  1  0
 13 11  1  0
 14 17  1  0
 14 15  1  1
 16 15  1  0
 17 19  2  0
 17 18  1  0
M  END
$$$$
