GLC.pdb
     RDKit          3D

 19 18  0  0  1  0  0  0  0  0999 V2000
   28.2761  -21.0059  -15.7566 N   0  0  0  0  0  0  0  0  0  0  0  0
   27.4108  -19.9673  -15.2248 C   0  0  0  0  0  0  0  0  0  0  0  0
   26.2852  -20.6265  -14.4818 C   0  0  0  0  0  0  0  0  0  0  0  0
   25.8557  -21.7529  -14.8391 O   0  0  0  0  0  0  0  0  0  0  0  0
   26.4232  -22.0618  -10.5634 C   0  0  0  0  0  0  0  0  0  0  0  0
   25.9818  -20.6580  -10.4576 C   0  0  2  0  0  0  0  0  0  0  0  0
   25.9401  -20.1777   -9.0005 C   0  0  0  0  0  0  0  0  0  0  0  0
   24.7375  -20.3185  -11.1717 C   0  0  0  0  0  0  0  0  0  0  0  0
   24.5766  -20.6892  -12.5953 C   0  0  2  0  0  0  0  0  0  0  0  0
   25.6769  -20.0059  -13.3646 N   0  0  0  0  0  0  0  0  0  0  0  0
   23.3094  -20.4160  -13.2454 C   0  0  0  0  0  0  0  0  0  0  0  0
   22.8640  -19.3150  -13.6516 O   0  0  0  0  0  0  0  0  0  0  0  0
   22.3665  -21.4974  -13.5012 N   0  0  0  0  0  0  0  0  0  0  0  0
   21.1223  -21.3058  -14.1911 C   0  0  1  0  0  0  0  0  0  0  0  0
   20.7489  -22.4834  -15.0599 C   0  0  0  0  0  0  0  0  0  0  0  0
   20.6588  -24.0252  -14.1528 S   0  0  0  0  0  0  0  0  0  0  0  0
   20.0253  -20.8999  -13.2944 C   0  0  0  0  0  0  0  0  0  0  0  0
   18.8443  -20.4126  -13.8142 O   0  0  0  0  0  0  0  0  0  0  0  0
   20.1405  -20.9877  -12.0548 O   0  0  0  0  0  0  0  0  0  0  0  0
  1  2  1  0
  2  3  1  0
  3  4  2  0
  6  7  1  1
  6  5  1  0
  9  8  1  1
  8  6  1  0
  9 11  1  0
 10  3  1  0
 10  9  1  0
 11 12  2  0
 13 14  1  0
 13 11  1  0
 14 17  1  0
 14 15  1  1
 16 15  1  0
 17 19  2  0
 17 18  1  0
M  END
$$$$
