GLC.pdb
     RDKit          3D

 19 18  0  0  1  0  0  0  0  0999 V2000
   28.4587  -21.7443  -16.0209 N   0  0  0  0  0  0  0  0  0  0  0  0
   27.7754  -20.6353  -15.3779 C   0  0  0  0  0  0  0  0  0  0  0  0
   26.5863  -21.1787  -14.6399 C   0  0  0  0  0  0  0  0  0  0  0  0
   26.0846  -22.2857  -14.9619 O   0  0  0  0  0  0  0  0  0  0  0  0
   26.3732  -22.2276  -10.3853 C   0  0  0  0  0  0  0  0  0  0  0  0
   26.0630  -20.7961  -10.5615 C   0  0  2  0  0  0  0  0  0  0  0  0
   25.9725  -20.0588   -9.2184 C   0  0  0  0  0  0  0  0  0  0  0  0
   24.9064  -20.4890  -11.4227 C   0  0  0  0  0  0  0  0  0  0  0  0
   24.8381  -21.0404  -12.7943 C   0  0  2  0  0  0  0  0  0  0  0  0
   25.9975  -20.4678  -13.5670 N   0  0  0  0  0  0  0  0  0  0  0  0
   23.6220  -20.8478  -13.5606 C   0  0  0  0  0  0  0  0  0  0  0  0
   23.2121  -19.8020  -14.1208 O   0  0  0  0  0  0  0  0  0  0  0  0
   22.6949  -21.9547  -13.7583 N   0  0  0  0  0  0  0  0  0  0  0  0
   21.4780  -21.8333  -14.5101 C   0  0  1  0  0  0  0  0  0  0  0  0
   20.9895  -23.1573  -15.0482 C   0  0  0  0  0  0  0  0  0  0  0  0
   19.3721  -23.0522  -15.8104 S   0  0  0  0  0  0  0  0  0  0  0  0
   20.4257  -21.0999  -13.7844 C   0  0  0  0  0  0  0  0  0  0  0  0
   19.6229  -20.1951  -14.4473 O   0  0  0  0  0  0  0  0  0  0  0  0
   20.2395  -21.2804  -12.5636 O   0  0  0  0  0  0  0  0  0  0  0  0
  1  2  1  0
  2  3  1  0
  3  4  2  0
  6  7  1  1
  6  5  1  0
  9  8  1  1
  8  6  1  0
  9 11  1  0
 10  3  1  0
 10  9  1  0
 11 12  2  0
 13 14  1  0
 13 11  1  0
 14 17  1  0
 14 15  1  1
 16 15  1  0
 17 19  2  0
 17 18  1  0
M  END
$$$$
