GLC.pdb
     RDKit          3D

 19 18  0  0  1  0  0  0  0  0999 V2000
   25.4575  -24.0131  -14.5691 N   0  0  0  0  0  0  0  0  0  0  0  0
   25.7012  -23.1187  -15.6875 C   0  0  0  0  0  0  0  0  0  0  0  0
   25.3032  -21.7308  -15.2762 C   0  0  0  0  0  0  0  0  0  0  0  0
   24.5034  -21.5506  -14.3230 O   0  0  0  0  0  0  0  0  0  0  0  0
   27.0960  -15.9568  -16.5682 C   0  0  0  0  0  0  0  0  0  0  0  0
   26.2467  -16.8182  -15.7236 C   0  0  2  0  0  0  0  0  0  0  0  0
   26.2952  -16.4016  -14.2472 C   0  0  0  0  0  0  0  0  0  0  0  0
   26.4462  -18.2706  -15.8795 C   0  0  0  0  0  0  0  0  0  0  0  0
   25.3346  -19.2050  -15.5945 C   0  0  2  0  0  0  0  0  0  0  0  0
   25.8118  -20.5907  -15.9430 N   0  0  0  0  0  0  0  0  0  0  0  0
   24.0530  -18.9752  -16.2331 C   0  0  0  0  0  0  0  0  0  0  0  0
   23.7417  -19.1439  -17.4373 O   0  0  0  0  0  0  0  0  0  0  0  0
   22.9220  -18.4850  -15.4557 N   0  0  0  0  0  0  0  0  0  0  0  0
   21.6111  -18.2992  -16.0105 C   0  0  1  0  0  0  0  0  0  0  0  0
   20.5105  -18.5838  -15.0161 C   0  0  0  0  0  0  0  0  0  0  0  0
   20.4961  -20.2836  -14.4514 S   0  0  0  0  0  0  0  0  0  0  0  0
   21.4469  -16.9916  -16.6702 C   0  0  0  0  0  0  0  0  0  0  0  0
   20.3300  -16.7333  -17.4372 O   0  0  0  0  0  0  0  0  0  0  0  0
   22.3084  -16.0967  -16.5500 O   0  0  0  0  0  0  0  0  0  0  0  0
  1  2  1  0
  2  3  1  0
  3  4  2  0
  6  7  1  1
  6  5  1  0
  9  8  1  6
  8  6  1  0
  9 11  1  0
 10  3  1  0
 10  9  1  0
 11 12  2  0
 13 14  1  0
 13 11  1  0
 14 17  1  0
 14 15  1  1
 16 15  1  0
 17 19  2  0
 17 18  1  0
M  END
$$$$
