GLC.pdb
     RDKit          3D

 19 18  0  0  1  0  0  0  0  0999 V2000
   25.1980  -21.3935   -9.0750 N   0  0  0  0  0  0  0  0  0  0  0  0
   24.1540  -20.5794   -9.6729 C   0  0  0  0  0  0  0  0  0  0  0  0
   24.2910  -20.6596  -11.1657 C   0  0  0  0  0  0  0  0  0  0  0  0
   25.1557  -21.4070  -11.6896 O   0  0  0  0  0  0  0  0  0  0  0  0
   20.5914  -19.6295  -15.9741 C   0  0  0  0  0  0  0  0  0  0  0  0
   21.9304  -20.0350  -15.5059 C   0  0  2  0  0  0  0  0  0  0  0  0
   22.3203  -21.4280  -16.0186 C   0  0  0  0  0  0  0  0  0  0  0  0
   22.1717  -19.9081  -14.0570 C   0  0  0  0  0  0  0  0  0  0  0  0
   23.5443  -20.0443  -13.5207 C   0  0  2  0  0  0  0  0  0  0  0  0
   23.4578  -19.9024  -12.0234 N   0  0  0  0  0  0  0  0  0  0  0  0
   24.5759  -19.1547  -14.0180 C   0  0  0  0  0  0  0  0  0  0  0  0
   24.6338  -17.9038  -13.9306 O   0  0  0  0  0  0  0  0  0  0  0  0
   25.7323  -19.6920  -14.7234 N   0  0  0  0  0  0  0  0  0  0  0  0
   26.8429  -18.8828  -15.1387 C   0  0  1  0  0  0  0  0  0  0  0  0
   28.0850  -19.1293  -14.3157 C   0  0  0  0  0  0  0  0  0  0  0  0
   28.2535  -20.8336  -13.7911 S   0  0  0  0  0  0  0  0  0  0  0  0
   27.1037  -18.9654  -16.5868 C   0  0  0  0  0  0  0  0  0  0  0  0
   28.0594  -18.1598  -17.1701 O   0  0  0  0  0  0  0  0  0  0  0  0
   26.4703  -19.7602  -17.3112 O   0  0  0  0  0  0  0  0  0  0  0  0
  1  2  1  0
  2  3  1  0
  3  4  2  0
  6  7  1  1
  6  5  1  0
  9  8  1  6
  8  6  1  0
  9 11  1  0
 10  3  1  0
 10  9  1  0
 11 12  2  0
 13 14  1  0
 13 11  1  0
 14 17  1  0
 14 15  1  1
 16 15  1  0
 17 19  2  0
 17 18  1  0
M  END
$$$$
