GLC.pdb
     RDKit          3D

 19 18  0  0  1  0  0  0  0  0999 V2000
   19.6475  -13.5756  -16.5601 N   0  0  0  0  0  0  0  0  0  0  0  0
   20.9463  -13.2106  -17.0988 C   0  0  0  0  0  0  0  0  0  0  0  0
   21.4457  -12.0087  -16.3507 C   0  0  0  0  0  0  0  0  0  0  0  0
   21.0906  -11.8015  -15.1625 O   0  0  0  0  0  0  0  0  0  0  0  0
   24.9739  -10.3291  -14.0942 C   0  0  0  0  0  0  0  0  0  0  0  0
   25.1737  -10.4989  -15.5461 C   0  0  2  0  0  0  0  0  0  0  0  0
   26.6367  -10.2780  -15.9539 C   0  0  0  0  0  0  0  0  0  0  0  0
   24.2531   -9.7438  -16.4154 C   0  0  0  0  0  0  0  0  0  0  0  0
   22.7908   -9.8513  -16.2152 C   0  0  2  0  0  0  0  0  0  0  0  0
   22.3250  -11.0784  -16.9546 N   0  0  0  0  0  0  0  0  0  0  0  0
   21.9535   -8.7292  -16.5932 C   0  0  0  0  0  0  0  0  0  0  0  0
   21.8353   -8.1909  -17.7210 O   0  0  0  0  0  0  0  0  0  0  0  0
   21.1060   -8.0780  -15.6024 N   0  0  0  0  0  0  0  0  0  0  0  0
   20.2360   -6.9799  -15.9153 C   0  0  1  0  0  0  0  0  0  0  0  0
   18.8294   -7.1856  -15.4050 C   0  0  0  0  0  0  0  0  0  0  0  0
   18.0857   -8.7069  -15.9888 S   0  0  0  0  0  0  0  0  0  0  0  0
   20.7924   -5.6749  -15.5161 C   0  0  0  0  0  0  0  0  0  0  0  0
   20.1123   -4.5098  -15.8037 O   0  0  0  0  0  0  0  0  0  0  0  0
   21.8826   -5.5964  -14.9139 O   0  0  0  0  0  0  0  0  0  0  0  0
  1  2  1  0
  2  3  1  0
  3  4  2  0
  6  7  1  6
  6  5  1  0
  9  8  1  6
  8  6  1  0
  9 11  1  0
 10  3  1  0
 10  9  1  0
 11 12  2  0
 13 14  1  0
 13 11  1  0
 14 17  1  0
 14 15  1  1
 16 15  1  0
 17 19  2  0
 17 18  1  0
M  END
$$$$
