GLC.pdb
     RDKit          3D

 19 18  0  0  1  0  0  0  0  0999 V2000
   14.2594  -18.0170    5.7350 N   0  0  0  0  0  0  0  0  0  0  0  0
   14.4209  -16.5915    5.9629 C   0  0  0  0  0  0  0  0  0  0  0  0
   15.8877  -16.2728    5.9326 C   0  0  0  0  0  0  0  0  0  0  0  0
   16.7302  -17.1630    5.6527 O   0  0  0  0  0  0  0  0  0  0  0  0
   19.4476  -11.2056    5.9808 C   0  0  0  0  0  0  0  0  0  0  0  0
   19.3950  -12.6792    6.0305 C   0  0  2  0  0  0  0  0  0  0  0  0
   20.3703  -13.3223    5.0352 C   0  0  0  0  0  0  0  0  0  0  0  0
   18.0519  -13.2793    5.9316 C   0  0  0  0  0  0  0  0  0  0  0  0
   17.8393  -14.6877    6.3331 C   0  0  2  0  0  0  0  0  0  0  0  0
   16.3643  -14.9706    6.2159 N   0  0  0  0  0  0  0  0  0  0  0  0
   18.2968  -15.1136    7.6417 C   0  0  0  0  0  0  0  0  0  0  0  0
   17.6907  -15.0450    8.7388 O   0  0  0  0  0  0  0  0  0  0  0  0
   19.6174  -15.7089    7.8007 N   0  0  0  0  0  0  0  0  0  0  0  0
   20.1090  -16.2019    9.0561 C   0  0  1  0  0  0  0  0  0  0  0  0
   20.6260  -17.6181    8.9651 C   0  0  0  0  0  0  0  0  0  0  0  0
   19.4238  -18.7632    8.2933 S   0  0  0  0  0  0  0  0  0  0  0  0
   21.0777  -15.2907    9.6912 C   0  0  0  0  0  0  0  0  0  0  0  0
   21.5395  -15.5429   10.9661 O   0  0  0  0  0  0  0  0  0  0  0  0
   21.4977  -14.2788    9.0935 O   0  0  0  0  0  0  0  0  0  0  0  0
  1  2  1  0
  2  3  1  0
  3  4  2  0
  6  7  1  6
  6  5  1  0
  9  8  1  1
  8  6  1  0
  9 11  1  0
 10  3  1  0
 10  9  1  0
 11 12  2  0
 13 14  1  0
 13 11  1  0
 14 17  1  0
 14 15  1  6
 16 15  1  0
 17 19  2  0
 17 18  1  0
M  END
$$$$
