GLC.pdb
     RDKit          3D

 19 18  0  0  1  0  0  0  0  0999 V2000
   23.1617  -11.4804  -19.8560 N   0  0  0  0  0  0  0  0  0  0  0  0
   22.9004  -10.0545  -19.9491 C   0  0  0  0  0  0  0  0  0  0  0  0
   22.0896   -9.6451  -18.7538 C   0  0  0  0  0  0  0  0  0  0  0  0
   20.8741   -9.9551  -18.6686 O   0  0  0  0  0  0  0  0  0  0  0  0
   21.1550  -10.6109  -14.3337 C   0  0  0  0  0  0  0  0  0  0  0  0
   22.5243  -10.1816  -14.6762 C   0  0  2  0  0  0  0  0  0  0  0  0
   23.4899  -10.3462  -13.4947 C   0  0  0  0  0  0  0  0  0  0  0  0
   22.6463   -8.8459  -15.2885 C   0  0  0  0  0  0  0  0  0  0  0  0
   21.8504   -8.5068  -16.4891 C   0  0  2  0  0  0  0  0  0  0  0  0
   22.6633   -8.9032  -17.6938 N   0  0  0  0  0  0  0  0  0  0  0  0
   21.3961   -7.1400  -16.6581 C   0  0  0  0  0  0  0  0  0  0  0  0
   22.0868   -6.1029  -16.8091 O   0  0  0  0  0  0  0  0  0  0  0  0
   19.9710   -6.8349  -16.6662 N   0  0  0  0  0  0  0  0  0  0  0  0
   19.4543   -5.5091  -16.8555 C   0  0  1  0  0  0  0  0  0  0  0  0
   18.5661   -5.3967  -18.0719 C   0  0  0  0  0  0  0  0  0  0  0  0
   19.4637   -5.5523  -19.6141 S   0  0  0  0  0  0  0  0  0  0  0  0
   18.8180   -4.9625  -15.6438 C   0  0  0  0  0  0  0  0  0  0  0  0
   18.8690   -3.6097  -15.3795 O   0  0  0  0  0  0  0  0  0  0  0  0
   18.2239   -5.7062  -14.8367 O   0  0  0  0  0  0  0  0  0  0  0  0
  1  2  1  0
  2  3  1  0
  3  4  2  0
  6  7  1  1
  6  5  1  0
  9  8  1  1
  8  6  1  0
  9 11  1  0
 10  3  1  0
 10  9  1  0
 11 12  2  0
 13 14  1  0
 13 11  1  0
 14 17  1  0
 14 15  1  6
 16 15  1  0
 17 19  2  0
 17 18  1  0
M  END
$$$$
