GLC.pdb
     RDKit          3D

 19 18  0  0  1  0  0  0  0  0999 V2000
   16.7516  -11.1778  -12.7120 N   0  0  0  0  0  0  0  0  0  0  0  0
   17.1960  -10.5551  -11.4771 C   0  0  0  0  0  0  0  0  0  0  0  0
   16.3066   -9.3789  -11.1959 C   0  0  0  0  0  0  0  0  0  0  0  0
   15.8214   -8.7037  -12.1391 O   0  0  0  0  0  0  0  0  0  0  0  0
   12.0702   -8.2176   -9.3806 C   0  0  0  0  0  0  0  0  0  0  0  0
   13.0466   -8.7905   -8.4346 C   0  0  2  0  0  0  0  0  0  0  0  0
   12.4396   -9.0020   -7.0409 C   0  0  0  0  0  0  0  0  0  0  0  0
   14.3476   -8.1014   -8.3558 C   0  0  0  0  0  0  0  0  0  0  0  0
   15.1056   -7.8078   -9.5924 C   0  0  2  0  0  0  0  0  0  0  0  0
   15.9888   -8.9960   -9.8710 N   0  0  0  0  0  0  0  0  0  0  0  0
   15.9099   -6.6022   -9.6445 C   0  0  0  0  0  0  0  0  0  0  0  0
   16.9579   -6.3373   -9.0065 O   0  0  0  0  0  0  0  0  0  0  0  0
   15.5296   -5.5024  -10.5217 N   0  0  0  0  0  0  0  0  0  0  0  0
   16.2336   -4.2520  -10.5615 C   0  0  1  0  0  0  0  0  0  0  0  0
   17.1857   -4.1548  -11.7299 C   0  0  0  0  0  0  0  0  0  0  0  0
   17.9570   -2.5449  -11.8758 S   0  0  0  0  0  0  0  0  0  0  0  0
   15.3377   -3.0855  -10.4692 C   0  0  0  0  0  0  0  0  0  0  0  0
   15.7890   -1.9012   -9.9249 O   0  0  0  0  0  0  0  0  0  0  0  0
   14.1601   -3.1436  -10.8786 O   0  0  0  0  0  0  0  0  0  0  0  0
  1  2  1  0
  2  3  1  0
  3  4  2  0
  6  7  1  1
  6  5  1  0
  9  8  1  1
  8  6  1  0
  9 11  1  0
 10  3  1  0
 10  9  1  0
 11 12  2  0
 13 14  1  0
 13 11  1  0
 14 17  1  0
 14 15  1  6
 16 15  1  0
 17 19  2  0
 17 18  1  0
M  END
$$$$
