GLC.pdb
     RDKit          3D

 19 18  0  0  1  0  0  0  0  0999 V2000
   27.9996  -22.0245  -16.8225 N   0  0  0  0  0  0  0  0  0  0  0  0
   27.7004  -20.8575  -16.0110 C   0  0  0  0  0  0  0  0  0  0  0  0
   26.7425  -21.2682  -14.9304 C   0  0  0  0  0  0  0  0  0  0  0  0
   26.1255  -22.3612  -15.0039 O   0  0  0  0  0  0  0  0  0  0  0  0
   25.0910  -22.1978  -10.0887 C   0  0  0  0  0  0  0  0  0  0  0  0
   25.4673  -20.7734  -10.1669 C   0  0  2  0  0  0  0  0  0  0  0  0
   24.3169  -19.8515   -9.7401 C   0  0  0  0  0  0  0  0  0  0  0  0
   26.0642  -20.3340  -11.4414 C   0  0  0  0  0  0  0  0  0  0  0  0
   25.5422  -20.8588  -12.7228 C   0  0  2  0  0  0  0  0  0  0  0  0
   26.5059  -20.4445  -13.8040 N   0  0  0  0  0  0  0  0  0  0  0  0
   24.1980  -20.4941  -13.1268 C   0  0  0  0  0  0  0  0  0  0  0  0
   23.7560  -19.3579  -13.4255 O   0  0  0  0  0  0  0  0  0  0  0  0
   23.1591  -21.5113  -13.2264 N   0  0  0  0  0  0  0  0  0  0  0  0
   21.8127  -21.2198  -13.6301 C   0  0  1  0  0  0  0  0  0  0  0  0
   21.3661  -22.0455  -14.8132 C   0  0  0  0  0  0  0  0  0  0  0  0
   22.2636  -21.6637  -16.3155 S   0  0  0  0  0  0  0  0  0  0  0  0
   20.8534  -21.2757  -12.5127 C   0  0  0  0  0  0  0  0  0  0  0  0
   19.5510  -20.8579  -12.6905 O   0  0  0  0  0  0  0  0  0  0  0  0
   21.1963  -21.6991  -11.3899 O   0  0  0  0  0  0  0  0  0  0  0  0
  1  2  1  0
  2  3  1  0
  3  4  2  0
  6  7  1  6
  6  5  1  0
  9  8  1  1
  8  6  1  0
  9 11  1  0
 10  3  1  0
 10  9  1  0
 11 12  2  0
 13 14  1  0
 13 11  1  0
 14 17  1  0
 14 15  1  6
 16 15  1  0
 17 19  2  0
 17 18  1  0
M  END
$$$$
