GLC.pdb
     RDKit          3D

 19 18  0  0  1  0  0  0  0  0999 V2000
   21.4363  -14.0642  -17.9773 N   0  0  0  0  0  0  0  0  0  0  0  0
   21.4511  -12.7507  -18.5974 C   0  0  0  0  0  0  0  0  0  0  0  0
   21.6642  -11.7246  -17.5225 C   0  0  0  0  0  0  0  0  0  0  0  0
   20.8029  -11.5519  -16.6231 O   0  0  0  0  0  0  0  0  0  0  0  0
   24.5869  -10.6572  -13.9498 C   0  0  0  0  0  0  0  0  0  0  0  0
   25.1029  -10.5818  -15.3299 C   0  0  2  0  0  0  0  0  0  0  0  0
   26.6244  -10.3839  -15.3638 C   0  0  0  0  0  0  0  0  0  0  0  0
   24.4166   -9.6304  -16.2229 C   0  0  0  0  0  0  0  0  0  0  0  0
   22.9732   -9.7915  -16.5069 C   0  0  2  0  0  0  0  0  0  0  0  0
   22.8321  -10.9258  -17.4881 N   0  0  0  0  0  0  0  0  0  0  0  0
   22.2307   -8.6480  -17.0010 C   0  0  0  0  0  0  0  0  0  0  0  0
   22.1231   -8.2414  -18.1837 O   0  0  0  0  0  0  0  0  0  0  0  0
   21.4826   -7.8032  -16.0787 N   0  0  0  0  0  0  0  0  0  0  0  0
   20.6784   -6.6943  -16.5081 C   0  0  1  0  0  0  0  0  0  0  0  0
   19.3623   -7.1260  -17.1102 C   0  0  0  0  0  0  0  0  0  0  0  0
   18.1835   -5.7855  -17.2571 S   0  0  0  0  0  0  0  0  0  0  0  0
   20.5078   -5.6700  -15.4623 C   0  0  0  0  0  0  0  0  0  0  0  0
   20.7602   -5.9742  -14.1409 O   0  0  0  0  0  0  0  0  0  0  0  0
   20.1341   -4.5139  -15.7478 O   0  0  0  0  0  0  0  0  0  0  0  0
  1  2  1  0
  2  3  1  0
  3  4  2  0
  6  7  1  1
  6  5  1  0
  9  8  1  6
  8  6  1  0
  9 11  1  0
 10  3  1  0
 10  9  1  0
 11 12  2  0
 13 14  1  0
 13 11  1  0
 14 17  1  0
 14 15  1  1
 16 15  1  0
 17 19  2  0
 17 18  1  0
M  END
$$$$
