PVN.pdb
     RDKit          3D

 23 23  0  0  1  0  0  0  0  0999 V2000
   27.5713  -18.4899  -15.6901 N   0  0  0  0  0  0  0  0  0  0  0  0
   28.6501  -18.0863  -16.6098 C   0  0  0  0  0  0  0  0  0  0  0  0
   29.8546  -18.7348  -15.9854 C   0  0  0  0  0  0  0  0  0  0  0  0
   29.3270  -20.0244  -15.4117 C   0  0  0  0  0  0  0  0  0  0  0  0
   27.8436  -19.9169  -15.6399 C   0  0  1  0  0  0  0  0  0  0  0  0
   27.0125  -20.6685  -14.7068 C   0  0  0  0  0  0  0  0  0  0  0  0
   26.9952  -21.9190  -14.8243 O   0  0  0  0  0  0  0  0  0  0  0  0
   25.5294  -19.3600  -10.8931 C   0  0  0  0  0  0  0  0  0  0  0  0
   25.8704  -20.7888  -11.3343 C   0  0  1  0  0  0  0  0  0  0  0  0
   25.0003  -21.6812  -10.4540 C   0  0  0  0  0  0  0  0  0  0  0  0
   25.5112  -20.9812  -12.7926 C   0  0  2  0  0  0  0  0  0  0  0  0
   26.2178  -20.1084  -13.6755 N   0  0  0  0  0  0  0  0  0  0  0  0
   24.0628  -20.8569  -13.0337 C   0  0  0  0  0  0  0  0  0  0  0  0
   23.5205  -19.7416  -13.2395 O   0  0  0  0  0  0  0  0  0  0  0  0
   19.3114  -23.6412  -14.9900 N   0  0  0  0  0  0  0  0  0  0  0  0
   19.8093  -23.3702  -13.6606 C   0  0  0  0  0  0  0  0  0  0  0  0
   18.9194  -23.1439  -12.8114 O   0  0  0  0  0  0  0  0  0  0  0  0
   21.2668  -23.3795  -13.4101 C   0  0  0  0  0  0  0  0  0  0  0  0
   21.8056  -21.9890  -13.2600 C   0  0  2  0  0  0  0  0  0  0  0  0
   23.2458  -22.0017  -13.0398 N   0  0  0  0  0  0  0  0  0  0  0  0
   21.0951  -21.1533  -12.3070 C   0  0  0  0  0  0  0  0  0  0  0  0
   21.3140  -21.1590  -11.0942 O   0  0  0  0  0  0  0  0  0  0  0  0
   20.0775  -20.2526  -12.7157 O   0  0  0  0  0  0  0  0  0  0  0  0
  1  5  1  0
  1  2  1  0
  2  3  1  0
  4  3  1  0
  5  4  1  0
  6 12  1  0
  5  6  1  1
  7  6  2  0
  9  8  1  1
  9 11  1  0
 10  9  1  0
 11 12  1  6
 11 13  1  0
 13 14  2  0
 13 20  1  0
 16 15  1  0
 17 16  2  0
 18 16  1  0
 19 18  1  1
 19 21  1  0
 20 19  1  0
 21 23  1  0
 22 21  2  0
M  END
$$$$
