PVN.pdb
     RDKit          3D

 23 23  0  0  1  0  0  0  0  0999 V2000
   17.9112  -14.9016  -17.2649 N   0  0  0  0  0  0  0  0  0  0  0  0
   16.7054  -15.3617  -17.9771 C   0  0  0  0  0  0  0  0  0  0  0  0
   15.6211  -14.5635  -17.3075 C   0  0  0  0  0  0  0  0  0  0  0  0
   16.2726  -13.2416  -16.9934 C   0  0  0  0  0  0  0  0  0  0  0  0
   17.7076  -13.4674  -17.3855 C   0  0  1  0  0  0  0  0  0  0  0  0
   18.6842  -12.6467  -16.6792 C   0  0  0  0  0  0  0  0  0  0  0  0
   19.0865  -13.0573  -15.5624 O   0  0  0  0  0  0  0  0  0  0  0  0
   21.8600  -11.8313  -17.9499 C   0  0  0  0  0  0  0  0  0  0  0  0
   21.5336  -10.5756  -17.1320 C   0  0  1  0  0  0  0  0  0  0  0  0
   21.3786   -9.4692  -18.1713 C   0  0  0  0  0  0  0  0  0  0  0  0
   20.2355  -10.7710  -16.3772 C   0  0  2  0  0  0  0  0  0  0  0  0
   19.2200  -11.4197  -17.1444 N   0  0  0  0  0  0  0  0  0  0  0  0
   19.7084   -9.5071  -15.8330 C   0  0  0  0  0  0  0  0  0  0  0  0
   18.8405   -8.8350  -16.4455 O   0  0  0  0  0  0  0  0  0  0  0  0
   17.2812   -8.5723  -13.1599 N   0  0  0  0  0  0  0  0  0  0  0  0
   18.2507   -8.2721  -12.1311 C   0  0  0  0  0  0  0  0  0  0  0  0
   17.8157   -8.3802  -10.9634 O   0  0  0  0  0  0  0  0  0  0  0  0
   19.6237   -7.8773  -12.5134 C   0  0  0  0  0  0  0  0  0  0  0  0
   19.7644   -7.7558  -14.0007 C   0  0  2  0  0  0  0  0  0  0  0  0
   20.1724   -9.0208  -14.5975 N   0  0  0  0  0  0  0  0  0  0  0  0
   20.5670   -6.6320  -14.4530 C   0  0  0  0  0  0  0  0  0  0  0  0
   21.7080   -6.7431  -14.9053 O   0  0  0  0  0  0  0  0  0  0  0  0
   20.0818   -5.2994  -14.4045 O   0  0  0  0  0  0  0  0  0  0  0  0
  1  5  1  0
  1  2  1  0
  2  3  1  0
  4  3  1  0
  5  4  1  0
  6 12  1  0
  5  6  1  1
  7  6  2  0
  9  8  1  6
  9 11  1  0
 10  9  1  0
 11 12  1  6
 11 13  1  0
 13 14  2  0
 13 20  1  0
 16 15  1  0
 17 16  2  0
 18 16  1  0
 19 18  1  1
 19 21  1  0
 20 19  1  0
 21 23  1  0
 22 21  2  0
M  END
$$$$
