PVN.pdb
     RDKit          3D

 23 23  0  0  1  0  0  0  0  0999 V2000
   15.8771  -13.1501    6.1238 N   0  0  0  0  0  0  0  0  0  0  0  0
   14.7067  -13.0287    5.2359 C   0  0  0  0  0  0  0  0  0  0  0  0
   15.3387  -12.6042    3.9391 C   0  0  0  0  0  0  0  0  0  0  0  0
   16.6624  -13.3238    3.9176 C   0  0  0  0  0  0  0  0  0  0  0  0
   16.7178  -13.9756    5.2726 C   0  0  1  0  0  0  0  0  0  0  0  0
   18.0578  -14.2263    5.7902 C   0  0  0  0  0  0  0  0  0  0  0  0
   18.7476  -15.1023    5.2118 O   0  0  0  0  0  0  0  0  0  0  0  0
   20.0868  -11.9537    8.8163 C   0  0  0  0  0  0  0  0  0  0  0  0
   20.8196  -12.7449    7.7258 C   0  0  1  0  0  0  0  0  0  0  0  0
   22.1000  -13.2314    8.3982 C   0  0  0  0  0  0  0  0  0  0  0  0
   19.9778  -13.9243    7.2862 C   0  0  2  0  0  0  0  0  0  0  0  0
   18.6515  -13.5661    6.8950 N   0  0  0  0  0  0  0  0  0  0  0  0
   19.9193  -14.9830    8.3097 C   0  0  0  0  0  0  0  0  0  0  0  0
   19.2323  -14.8546    9.3546 O   0  0  0  0  0  0  0  0  0  0  0  0
   20.2389  -19.3699   10.8206 N   0  0  0  0  0  0  0  0  0  0  0  0
   19.9037  -19.6122    9.4359 C   0  0  0  0  0  0  0  0  0  0  0  0
   19.4824  -20.7660    9.2002 O   0  0  0  0  0  0  0  0  0  0  0  0
   20.0740  -18.5299    8.4426 C   0  0  0  0  0  0  0  0  0  0  0  0
   20.6367  -17.2918    9.0726 C   0  0  2  0  0  0  0  0  0  0  0  0
   20.6412  -16.1772    8.1342 N   0  0  0  0  0  0  0  0  0  0  0  0
   21.9120  -17.4693    9.7461 C   0  0  0  0  0  0  0  0  0  0  0  0
   22.0364  -18.0115   10.8458 O   0  0  0  0  0  0  0  0  0  0  0  0
   23.1296  -17.0209    9.1715 O   0  0  0  0  0  0  0  0  0  0  0  0
  1  5  1  0
  1  2  1  0
  2  3  1  0
  4  3  1  0
  5  4  1  0
  6 12  1  0
  5  6  1  1
  7  6  2  0
  9  8  1  1
  9 11  1  0
 10  9  1  0
 11 12  1  1
 11 13  1  0
 13 14  2  0
 13 20  1  0
 16 15  1  0
 17 16  2  0
 18 16  1  0
 19 18  1  6
 19 21  1  0
 20 19  1  0
 21 23  1  0
 22 21  2  0
M  END
$$$$
