PVN.pdb
     RDKit          3D

 23 23  0  0  1  0  0  0  0  0999 V2000
   21.8098  -16.6053  -17.4759 N   0  0  0  0  0  0  0  0  0  0  0  0
   21.1542  -17.8846  -17.8020 C   0  0  0  0  0  0  0  0  0  0  0  0
   21.1904  -18.6021  -16.4809 C   0  0  0  0  0  0  0  0  0  0  0  0
   21.0153  -17.5086  -15.4591 C   0  0  0  0  0  0  0  0  0  0  0  0
   21.0409  -16.2562  -16.2928 C   0  0  1  0  0  0  0  0  0  0  0  0
   21.4908  -15.0545  -15.6002 C   0  0  0  0  0  0  0  0  0  0  0  0
   20.8307  -14.6816  -14.5987 O   0  0  0  0  0  0  0  0  0  0  0  0
   25.1224  -12.7228  -16.3063 C   0  0  0  0  0  0  0  0  0  0  0  0
   24.4079  -12.9090  -14.9620 C   0  0  1  0  0  0  0  0  0  0  0  0
   24.6587  -11.6057  -14.2092 C   0  0  0  0  0  0  0  0  0  0  0  0
   22.9235  -13.1071  -15.1864 C   0  0  2  0  0  0  0  0  0  0  0  0
   22.6120  -14.2661  -15.9613 N   0  0  0  0  0  0  0  0  0  0  0  0
   22.2861  -11.9248  -15.7925 C   0  0  0  0  0  0  0  0  0  0  0  0
   22.2476  -11.7607  -17.0383 O   0  0  0  0  0  0  0  0  0  0  0  0
   19.5210   -7.6618  -16.4425 N   0  0  0  0  0  0  0  0  0  0  0  0
   18.7777   -8.8049  -15.9637 C   0  0  0  0  0  0  0  0  0  0  0  0
   17.5351   -8.6724  -16.0161 O   0  0  0  0  0  0  0  0  0  0  0  0
   19.5043   -9.9942  -15.4691 C   0  0  0  0  0  0  0  0  0  0  0  0
   20.9865   -9.7715  -15.4735 C   0  0  2  0  0  0  0  0  0  0  0  0
   21.6978  -10.9420  -14.9765 N   0  0  0  0  0  0  0  0  0  0  0  0
   21.4249   -8.5354  -14.8479 C   0  0  0  0  0  0  0  0  0  0  0  0
   21.9672   -8.4817  -13.7426 O   0  0  0  0  0  0  0  0  0  0  0  0
   21.2554   -7.2764  -15.4805 O   0  0  0  0  0  0  0  0  0  0  0  0
  1  5  1  0
  1  2  1  0
  2  3  1  0
  4  3  1  0
  5  4  1  0
  6 12  1  0
  5  6  1  1
  7  6  2  0
  9  8  1  6
  9 11  1  0
 10  9  1  0
 11 12  1  6
 11 13  1  0
 13 14  2  0
 13 20  1  0
 16 15  1  0
 17 16  2  0
 18 16  1  0
 19 18  1  1
 19 21  1  0
 20 19  1  0
 21 23  1  0
 22 21  2  0
M  END
$$$$
