PVN.pdb
     RDKit          3D

 23 23  0  0  1  0  0  0  0  0999 V2000
   18.4759  -12.0267  -15.5414 N   0  0  0  0  0  0  0  0  0  0  0  0
   18.3305  -13.1339  -16.5035 C   0  0  0  0  0  0  0  0  0  0  0  0
   16.9218  -13.5921  -16.2449 C   0  0  0  0  0  0  0  0  0  0  0  0
   16.1757  -12.3274  -15.9064 C   0  0  0  0  0  0  0  0  0  0  0  0
   17.2651  -11.2903  -15.8645 C   0  0  1  0  0  0  0  0  0  0  0  0
   16.9989  -10.1398  -15.0090 C   0  0  0  0  0  0  0  0  0  0  0  0
   16.1635   -9.2953  -15.4172 O   0  0  0  0  0  0  0  0  0  0  0  0
   15.3805   -9.9976  -11.9147 C   0  0  0  0  0  0  0  0  0  0  0  0
   16.5532   -9.0335  -11.6964 C   0  0  1  0  0  0  0  0  0  0  0  0
   17.5108   -9.7932  -10.7831 C   0  0  0  0  0  0  0  0  0  0  0  0
   17.2240   -8.7247  -13.0183 C   0  0  2  0  0  0  0  0  0  0  0  0
   17.6047   -9.8897  -13.7523 N   0  0  0  0  0  0  0  0  0  0  0  0
   18.3917   -7.8398  -12.8606 C   0  0  0  0  0  0  0  0  0  0  0  0
   19.4896   -8.2666  -12.4217 O   0  0  0  0  0  0  0  0  0  0  0  0
   21.6694   -4.0365  -13.7702 N   0  0  0  0  0  0  0  0  0  0  0  0
   21.6735   -5.3436  -14.3866 C   0  0  0  0  0  0  0  0  0  0  0  0
   22.7038   -5.6002  -15.0476 O   0  0  0  0  0  0  0  0  0  0  0  0
   20.5142   -6.2428  -14.2009 C   0  0  0  0  0  0  0  0  0  0  0  0
   19.4418   -5.5917  -13.3808 C   0  0  2  0  0  0  0  0  0  0  0  0
   18.2998   -6.4792  -13.2045 N   0  0  0  0  0  0  0  0  0  0  0  0
   19.0602   -4.2581  -13.8140 C   0  0  0  0  0  0  0  0  0  0  0  0
   18.0944   -4.0247  -14.5429 O   0  0  0  0  0  0  0  0  0  0  0  0
   19.7893   -3.1066  -13.4186 O   0  0  0  0  0  0  0  0  0  0  0  0
  1  5  1  0
  1  2  1  0
  2  3  1  0
  4  3  1  0
  5  4  1  0
  6 12  1  0
  5  6  1  1
  7  6  2  0
  9  8  1  6
  9 11  1  0
 10  9  1  0
 11 12  1  1
 11 13  1  0
 13 14  2  0
 13 20  1  0
 16 15  1  0
 17 16  2  0
 18 16  1  0
 19 18  1  6
 19 21  1  0
 20 19  1  0
 21 23  1  0
 22 21  2  0
M  END
$$$$
