PVN.pdb
     RDKit          3D

 23 23  0  0  1  0  0  0  0  0999 V2000
   19.3944  -12.9832  -19.0642 N   0  0  0  0  0  0  0  0  0  0  0  0
   18.9613  -13.0627  -20.4709 C   0  0  0  0  0  0  0  0  0  0  0  0
   18.0745  -11.8546  -20.5954 C   0  0  0  0  0  0  0  0  0  0  0  0
   18.7193  -10.8265  -19.7023 C   0  0  0  0  0  0  0  0  0  0  0  0
   19.8312  -11.5970  -19.0436 C   0  0  1  0  0  0  0  0  0  0  0  0
   20.2436  -11.1022  -17.7353 C   0  0  0  0  0  0  0  0  0  0  0  0
   19.4444  -11.2575  -16.7790 O   0  0  0  0  0  0  0  0  0  0  0  0
   24.1758  -10.4633  -16.2517 C   0  0  0  0  0  0  0  0  0  0  0  0
   22.8907  -10.7050  -15.4502 C   0  0  1  0  0  0  0  0  0  0  0  0
   23.1674  -10.0850  -14.0837 C   0  0  0  0  0  0  0  0  0  0  0  0
   21.7245  -10.0058  -16.1164 C   0  0  2  0  0  0  0  0  0  0  0  0
   21.4724  -10.4568  -17.4482 N   0  0  0  0  0  0  0  0  0  0  0  0
   21.8749   -8.5399  -16.1141 C   0  0  0  0  0  0  0  0  0  0  0  0
   22.5714   -7.9458  -16.9756 O   0  0  0  0  0  0  0  0  0  0  0  0
   21.4674   -3.5754  -14.9546 N   0  0  0  0  0  0  0  0  0  0  0  0
   20.2704   -4.1593  -15.5158 C   0  0  0  0  0  0  0  0  0  0  0  0
   19.4283   -3.3264  -15.9175 O   0  0  0  0  0  0  0  0  0  0  0  0
   20.1326   -5.6307  -15.5730 C   0  0  0  0  0  0  0  0  0  0  0  0
   21.3444   -6.3162  -15.0180 C   0  0  2  0  0  0  0  0  0  0  0  0
   21.2310   -7.7642  -15.1334 N   0  0  0  0  0  0  0  0  0  0  0  0
   21.7412   -5.8840  -13.6886 C   0  0  0  0  0  0  0  0  0  0  0  0
   21.5306   -6.5367  -12.6647 O   0  0  0  0  0  0  0  0  0  0  0  0
   22.4138   -4.6533  -13.4724 O   0  0  0  0  0  0  0  0  0  0  0  0
  1  5  1  0
  1  2  1  0
  2  3  1  0
  4  3  1  0
  5  4  1  0
  6 12  1  0
  5  6  1  1
  7  6  2  0
  9  8  1  6
  9 11  1  0
 10  9  1  0
 11 12  1  6
 11 13  1  0
 13 14  2  0
 13 20  1  0
 16 15  1  0
 17 16  2  0
 18 16  1  0
 19 18  1  1
 19 21  1  0
 20 19  1  0
 21 23  1  0
 22 21  2  0
M  END
$$$$
