PVN.pdb
     RDKit          3D

 23 23  0  0  1  0  0  0  0  0999 V2000
   26.1752  -18.9005  -17.9089 N   0  0  0  0  0  0  0  0  0  0  0  0
   26.0839  -18.8211  -19.3780 C   0  0  0  0  0  0  0  0  0  0  0  0
   27.2475  -19.6692  -19.8115 C   0  0  0  0  0  0  0  0  0  0  0  0
   27.3198  -20.7595  -18.7739 C   0  0  0  0  0  0  0  0  0  0  0  0
   26.2792  -20.3437  -17.7698 C   0  0  1  0  0  0  0  0  0  0  0  0
   26.5022  -20.8151  -16.4081 C   0  0  0  0  0  0  0  0  0  0  0  0
   26.3773  -22.0464  -16.1937 O   0  0  0  0  0  0  0  0  0  0  0  0
   28.7903  -18.8946  -13.3870 C   0  0  0  0  0  0  0  0  0  0  0  0
   28.5158  -20.3965  -13.5324 C   0  0  1  0  0  0  0  0  0  0  0  0
   28.6634  -20.9531  -12.1194 C   0  0  0  0  0  0  0  0  0  0  0  0
   27.1065  -20.6198  -14.0390 C   0  0  2  0  0  0  0  0  0  0  0  0
   26.8474  -20.0012  -15.3003 N   0  0  0  0  0  0  0  0  0  0  0  0
   26.0869  -20.1937  -13.0640 C   0  0  0  0  0  0  0  0  0  0  0  0
   25.8152  -18.9803  -12.8797 O   0  0  0  0  0  0  0  0  0  0  0  0
   22.2822  -19.5193  -12.3530 N   0  0  0  0  0  0  0  0  0  0  0  0
   22.0851  -20.9087  -12.0080 C   0  0  0  0  0  0  0  0  0  0  0  0
   20.9488  -21.3534  -12.2825 O   0  0  0  0  0  0  0  0  0  0  0  0
   23.1887  -21.6707  -11.3847 C   0  0  0  0  0  0  0  0  0  0  0  0
   24.4273  -20.8363  -11.2583 C   0  0  2  0  0  0  0  0  0  0  0  0
   25.3857  -21.1514  -12.3096 N   0  0  0  0  0  0  0  0  0  0  0  0
   25.0255  -20.8193   -9.9342 C   0  0  0  0  0  0  0  0  0  0  0  0
   25.7996  -21.6846   -9.5209 O   0  0  0  0  0  0  0  0  0  0  0  0
   24.7539  -19.7820   -9.0045 O   0  0  0  0  0  0  0  0  0  0  0  0
  1  5  1  0
  1  2  1  0
  2  3  1  0
  4  3  1  0
  5  4  1  0
  6 12  1  0
  5  6  1  1
  7  6  2  0
  9  8  1  1
  9 11  1  0
 10  9  1  0
 11 12  1  6
 11 13  1  0
 13 14  2  0
 13 20  1  0
 16 15  1  0
 17 16  2  0
 18 16  1  0
 19 18  1  1
 19 21  1  0
 20 19  1  0
 21 23  1  0
 22 21  2  0
M  END
$$$$
