PVN.pdb
     RDKit          3D

 23 23  0  0  1  0  0  0  0  0999 V2000
   23.4684  -14.3460  -19.5610 N   0  0  0  0  0  0  0  0  0  0  0  0
   22.9969  -15.4549  -20.4101 C   0  0  0  0  0  0  0  0  0  0  0  0
   22.5766  -16.4758  -19.3892 C   0  0  0  0  0  0  0  0  0  0  0  0
   22.0286  -15.6574  -18.2489 C   0  0  0  0  0  0  0  0  0  0  0  0
   22.3230  -14.2438  -18.6719 C   0  0  1  0  0  0  0  0  0  0  0  0
   22.4738  -13.2852  -17.5834 C   0  0  0  0  0  0  0  0  0  0  0  0
   21.4799  -13.0916  -16.8402 O   0  0  0  0  0  0  0  0  0  0  0  0
   25.9926  -10.8869  -16.5582 C   0  0  0  0  0  0  0  0  0  0  0  0
   25.0262  -11.5017  -15.5383 C   0  0  1  0  0  0  0  0  0  0  0  0
   24.9654  -10.4832  -14.4036 C   0  0  0  0  0  0  0  0  0  0  0  0
   23.6567  -11.6753  -16.1604 C   0  0  2  0  0  0  0  0  0  0  0  0
   23.6488  -12.5484  -17.2911 N   0  0  0  0  0  0  0  0  0  0  0  0
   23.0418  -10.3879  -16.5293 C   0  0  0  0  0  0  0  0  0  0  0  0
   23.3049   -9.8181  -17.6185 O   0  0  0  0  0  0  0  0  0  0  0  0
   18.7261   -7.1859  -17.5531 N   0  0  0  0  0  0  0  0  0  0  0  0
   19.2008   -7.4941  -16.2234 C   0  0  0  0  0  0  0  0  0  0  0  0
   18.9324   -6.6255  -15.3644 O   0  0  0  0  0  0  0  0  0  0  0  0
   19.9353   -8.7551  -15.9835 C   0  0  0  0  0  0  0  0  0  0  0  0
   21.4167   -8.5289  -15.9544 C   0  0  2  0  0  0  0  0  0  0  0  0
   22.1333   -9.7622  -15.6569 N   0  0  0  0  0  0  0  0  0  0  0  0
   21.8524   -7.4101  -15.1359 C   0  0  0  0  0  0  0  0  0  0  0  0
   22.3232   -7.5320  -14.0036 O   0  0  0  0  0  0  0  0  0  0  0  0
   21.7643   -6.0698  -15.5940 O   0  0  0  0  0  0  0  0  0  0  0  0
  1  5  1  0
  1  2  1  0
  2  3  1  0
  4  3  1  0
  5  4  1  0
  6 12  1  0
  5  6  1  1
  7  6  2  0
  9  8  1  6
  9 11  1  0
 10  9  1  0
 11 12  1  6
 11 13  1  0
 13 14  2  0
 13 20  1  0
 16 15  1  0
 17 16  2  0
 18 16  1  0
 19 18  1  1
 19 21  1  0
 20 19  1  0
 21 23  1  0
 22 21  2  0
M  END
$$$$
