WHY.pdb
     RDKit          3D

 37 40  0  0  1  0  0  0  0  0999 V2000
    7.5608  -17.8013   21.7264 N   0  0  0  0  0  0  0  0  0  0  0  0
    8.5181  -16.8758   22.2958 C   0  0  1  0  0  0  0  0  0  0  0  0
    7.7369  -15.6846   22.8084 C   0  0  0  0  0  0  0  0  0  0  0  0
    7.2219  -14.8770   21.6940 C   0  0  0  0  0  0  0  0  0  0  0  0
    5.9095  -14.7895   21.2850 C   0  0  0  0  0  0  0  0  0  0  0  0
    5.9187  -13.9438   20.2402 N   0  0  0  0  0  0  0  0  0  0  0  0
    7.1424  -13.5033   19.9754 C   0  0  0  0  0  0  0  0  0  0  0  0
    7.6643  -12.6430   19.0304 C   0  0  0  0  0  0  0  0  0  0  0  0
    9.0122  -12.3782   19.0115 C   0  0  0  0  0  0  0  0  0  0  0  0
    9.8608  -12.9552   19.9201 C   0  0  0  0  0  0  0  0  0  0  0  0
    9.3593  -13.8182   20.8731 C   0  0  0  0  0  0  0  0  0  0  0  0
    8.0019  -14.0775   20.8830 C   0  0  0  0  0  0  0  0  0  0  0  0
    9.2683  -17.4568   23.4190 C   0  0  0  0  0  0  0  0  0  0  0  0
    8.6401  -18.0948   24.2970 O   0  0  0  0  0  0  0  0  0  0  0  0
   10.6905  -17.3487   23.5928 N   0  0  0  0  0  0  0  0  0  0  0  0
   11.3503  -17.9273   24.7442 C   0  0  1  0  0  0  0  0  0  0  0  0
   12.7518  -18.3480   24.5322 C   0  0  0  0  0  0  0  0  0  0  0  0
   13.4312  -19.0326   25.6184 C   0  0  0  0  0  0  0  0  0  0  0  0
   14.4194  -18.6212   26.4549 C   0  0  0  0  0  0  0  0  0  0  0  0
   14.6950  -19.6333   27.3292 N   0  0  0  0  0  0  0  0  0  0  0  0
   13.8786  -20.6483   27.0233 C   0  0  0  0  0  0  0  0  0  0  0  0
   13.1007  -20.3115   25.9893 N   0  0  0  0  0  0  0  0  0  0  0  0
   11.1994  -17.0152   25.9336 C   0  0  0  0  0  0  0  0  0  0  0  0
   11.7018  -15.8698   25.9023 O   0  0  0  0  0  0  0  0  0  0  0  0
    7.0549  -12.7477   24.4769 O   0  0  0  0  0  0  0  0  0  0  0  0
    7.5454  -13.6074   25.4725 C   0  0  0  0  0  0  0  0  0  0  0  0
    7.0909  -14.9043   25.5825 C   0  0  0  0  0  0  0  0  0  0  0  0
    7.5756  -15.7551   26.5669 C   0  0  0  0  0  0  0  0  0  0  0  0
    8.5303  -15.3363   27.4730 C   0  0  0  0  0  0  0  0  0  0  0  0
    9.0550  -16.2233   28.5247 C   0  0  0  0  0  0  0  0  0  0  0  0
   10.4784  -16.6487   28.3254 C   0  0  2  0  0  0  0  0  0  0  0  0
   10.5004  -17.4305   27.0818 N   0  0  0  0  0  0  0  0  0  0  0  0
   11.0577  -17.3969   29.4442 C   0  0  0  0  0  0  0  0  0  0  0  0
   11.1938  -16.8745   30.5663 O   0  0  0  0  0  0  0  0  0  0  0  0
    8.9810  -14.0367   27.3572 C   0  0  0  0  0  0  0  0  0  0  0  0
    8.4985  -13.1820   26.3735 C   0  0  0  0  0  0  0  0  0  0  0  0
   11.4704  -18.7113   29.2807 O   0  0  0  0  0  0  0  0  0  0  0  0
  2  1  1  1
  2 13  1  0
  2  3  1  0
  3  4  1  0
  4  5  2  0
  6  5  1  0
  7  6  1  0
  8  7  2  0
  9  8  1  0
 10 11  1  0
 10  9  2  0
 11 12  2  0
 12  7  1  0
 12  4  1  0
 13 14  2  0
 15 16  1  0
 15 13  1  0
 16 17  1  6
 18 17  1  0
 19 18  2  0
 20 21  1  0
 20 19  1  0
 21 22  2  0
 22 18  1  0
 23 32  1  0
 23 16  1  0
 24 23  2  0
 25 26  1  0
 26 36  2  0
 26 27  1  0
 27 28  2  0
 28 29  1  0
 29 30  1  0
 31 30  1  1
 31 32  1  0
 33 31  1  0
 33 37  1  0
 34 33  2  0
 35 29  2  0
 36 35  1  0
M  END
$$$$
