WHY.pdb
     RDKit          3D

 37 40  0  0  1  0  0  0  0  0999 V2000
    6.8482  -17.5512   23.9328 N   0  0  0  0  0  0  0  0  0  0  0  0
    7.7210  -16.5564   23.3448 C   0  0  1  0  0  0  0  0  0  0  0  0
    8.2606  -15.7100   24.4782 C   0  0  0  0  0  0  0  0  0  0  0  0
    7.1775  -14.9716   25.1421 C   0  0  0  0  0  0  0  0  0  0  0  0
    6.2855  -15.4782   26.0614 C   0  0  0  0  0  0  0  0  0  0  0  0
    5.4862  -14.4474   26.3862 N   0  0  0  0  0  0  0  0  0  0  0  0
    5.8210  -13.3414   25.7333 C   0  0  0  0  0  0  0  0  0  0  0  0
    5.3241  -12.0537   25.7180 C   0  0  0  0  0  0  0  0  0  0  0  0
    5.9026  -11.1028   24.9128 C   0  0  0  0  0  0  0  0  0  0  0  0
    6.9747  -11.4068   24.1147 C   0  0  0  0  0  0  0  0  0  0  0  0
    7.4868  -12.6883   24.1152 C   0  0  0  0  0  0  0  0  0  0  0  0
    6.8971  -13.6369   24.9290 C   0  0  0  0  0  0  0  0  0  0  0  0
    8.8584  -17.1529   22.6291 C   0  0  0  0  0  0  0  0  0  0  0  0
    9.2660  -18.2848   22.9830 O   0  0  0  0  0  0  0  0  0  0  0  0
    9.5521  -16.5294   21.5361 N   0  0  0  0  0  0  0  0  0  0  0  0
   10.9122  -16.8983   21.2045 C   0  0  1  0  0  0  0  0  0  0  0  0
   11.3820  -16.4707   19.8694 C   0  0  0  0  0  0  0  0  0  0  0  0
   10.6690  -16.9644   18.7040 C   0  0  0  0  0  0  0  0  0  0  0  0
    9.8339  -18.0247   18.5499 C   0  0  0  0  0  0  0  0  0  0  0  0
    9.3967  -18.0463   17.2565 N   0  0  0  0  0  0  0  0  0  0  0  0
    9.9631  -17.0061   16.6341 C   0  0  0  0  0  0  0  0  0  0  0  0
   10.7400  -16.3321   17.4884 N   0  0  0  0  0  0  0  0  0  0  0  0
   11.8440  -16.4649   22.3060 C   0  0  0  0  0  0  0  0  0  0  0  0
   12.1025  -15.2499   22.4551 O   0  0  0  0  0  0  0  0  0  0  0  0
   11.1747  -15.5892   30.7123 O   0  0  0  0  0  0  0  0  0  0  0  0
   11.2070  -15.8441   29.3322 C   0  0  0  0  0  0  0  0  0  0  0  0
   11.4408  -14.8326   28.4252 C   0  0  0  0  0  0  0  0  0  0  0  0
   11.4729  -15.0840   27.0600 C   0  0  0  0  0  0  0  0  0  0  0  0
   11.2720  -16.3550   26.5581 C   0  0  0  0  0  0  0  0  0  0  0  0
   11.3006  -16.6408   25.1139 C   0  0  0  0  0  0  0  0  0  0  0  0
   12.6139  -17.1574   24.6088 C   0  0  2  0  0  0  0  0  0  0  0  0
   12.4296  -17.4059   23.1727 N   0  0  0  0  0  0  0  0  0  0  0  0
   13.1135  -18.3471   25.3032 C   0  0  0  0  0  0  0  0  0  0  0  0
   14.0227  -18.2640   26.1499 O   0  0  0  0  0  0  0  0  0  0  0  0
   11.0384  -17.3632   27.4717 C   0  0  0  0  0  0  0  0  0  0  0  0
   11.0056  -17.1158   28.8386 C   0  0  0  0  0  0  0  0  0  0  0  0
   12.5838  -19.6006   25.0337 O   0  0  0  0  0  0  0  0  0  0  0  0
  2  1  1  1
  2 13  1  0
  2  3  1  0
  3  4  1  0
  4  5  2  0
  6  5  1  0
  7  6  1  0
  8  7  2  0
  9  8  1  0
 10 11  1  0
 10  9  2  0
 11 12  2  0
 12  7  1  0
 12  4  1  0
 13 14  2  0
 15 16  1  0
 15 13  1  0
 16 17  1  6
 18 17  1  0
 19 18  2  0
 20 21  1  0
 20 19  1  0
 21 22  2  0
 22 18  1  0
 23 32  1  0
 23 16  1  0
 24 23  2  0
 25 26  1  0
 26 36  2  0
 26 27  1  0
 27 28  2  0
 28 29  1  0
 29 30  1  0
 31 30  1  1
 31 32  1  0
 33 31  1  0
 33 37  1  0
 34 33  2  0
 35 29  2  0
 36 35  1  0
M  END
$$$$
