WHY.pdb
     RDKit          3D

 37 40  0  0  1  0  0  0  0  0999 V2000
    7.5421  -18.4495   20.8577 N   0  0  0  0  0  0  0  0  0  0  0  0
    8.7806  -17.7374   21.0951 C   0  0  1  0  0  0  0  0  0  0  0  0
    8.4360  -16.4941   21.8874 C   0  0  0  0  0  0  0  0  0  0  0  0
    7.6207  -15.5714   21.0856 C   0  0  0  0  0  0  0  0  0  0  0  0
    6.2786  -15.6998   20.8030 C   0  0  0  0  0  0  0  0  0  0  0  0
    5.9715  -14.6327   20.0454 N   0  0  0  0  0  0  0  0  0  0  0  0
    7.0275  -13.8553   19.8404 C   0  0  0  0  0  0  0  0  0  0  0  0
    7.2265  -12.6769   19.1498 C   0  0  0  0  0  0  0  0  0  0  0  0
    8.4721  -12.0981   19.1217 C   0  0  0  0  0  0  0  0  0  0  0  0
    9.5346  -12.6707   19.7714 C   0  0  0  0  0  0  0  0  0  0  0  0
    9.3569  -13.8489   20.4677 C   0  0  0  0  0  0  0  0  0  0  0  0
    8.0998  -14.4223   20.4893 C   0  0  0  0  0  0  0  0  0  0  0  0
    9.7487  -18.5277   21.8698 C   0  0  0  0  0  0  0  0  0  0  0  0
    9.3833  -19.0261   22.9610 O   0  0  0  0  0  0  0  0  0  0  0  0
   11.1051  -18.7782   21.4675 N   0  0  0  0  0  0  0  0  0  0  0  0
   12.0400  -19.4370   22.3551 C   0  0  1  0  0  0  0  0  0  0  0  0
   13.3463  -19.7890   21.7589 C   0  0  0  0  0  0  0  0  0  0  0  0
   14.2641  -20.5908   22.5495 C   0  0  0  0  0  0  0  0  0  0  0  0
   14.1685  -21.0697   23.8171 C   0  0  0  0  0  0  0  0  0  0  0  0
   15.2916  -21.7969   24.0904 N   0  0  0  0  0  0  0  0  0  0  0  0
   16.0596  -21.7579   22.9954 C   0  0  0  0  0  0  0  0  0  0  0  0
   15.4608  -21.0331   22.0447 N   0  0  0  0  0  0  0  0  0  0  0  0
   12.1856  -18.6431   23.6270 C   0  0  0  0  0  0  0  0  0  0  0  0
   12.7059  -17.5058   23.5901 O   0  0  0  0  0  0  0  0  0  0  0  0
    5.7353  -17.1343   24.7153 O   0  0  0  0  0  0  0  0  0  0  0  0
    7.1063  -17.1273   25.0172 C   0  0  0  0  0  0  0  0  0  0  0  0
    7.6527  -18.0580   25.8749 C   0  0  0  0  0  0  0  0  0  0  0  0
    9.0086  -18.0516   26.1739 C   0  0  0  0  0  0  0  0  0  0  0  0
    9.8616  -17.1143   25.6247 C   0  0  0  0  0  0  0  0  0  0  0  0
   11.3016  -17.0905   25.9310 C   0  0  0  0  0  0  0  0  0  0  0  0
   11.9169  -18.4428   26.1296 C   0  0  2  0  0  0  0  0  0  0  0  0
   11.7447  -19.1600   24.8591 N   0  0  0  0  0  0  0  0  0  0  0  0
   11.3740  -19.2044   27.2577 C   0  0  0  0  0  0  0  0  0  0  0  0
   10.7720  -20.2795   27.0784 O   0  0  0  0  0  0  0  0  0  0  0  0
    9.3080  -16.1853   24.7667 C   0  0  0  0  0  0  0  0  0  0  0  0
    7.9516  -16.1883   24.4649 C   0  0  0  0  0  0  0  0  0  0  0  0
   11.5180  -18.7449   28.5587 O   0  0  0  0  0  0  0  0  0  0  0  0
  2  1  1  1
  2 13  1  0
  2  3  1  0
  3  4  1  0
  4  5  2  0
  6  5  1  0
  7  6  1  0
  8  7  2  0
  9  8  1  0
 10 11  1  0
 10  9  2  0
 11 12  2  0
 12  7  1  0
 12  4  1  0
 13 14  2  0
 15 16  1  0
 15 13  1  0
 16 17  1  6
 18 17  1  0
 19 18  2  0
 20 21  1  0
 20 19  1  0
 21 22  2  0
 22 18  1  0
 23 32  1  0
 23 16  1  0
 24 23  2  0
 25 26  1  0
 26 36  2  0
 26 27  1  0
 27 28  2  0
 28 29  1  0
 29 30  1  0
 31 30  1  6
 31 32  1  0
 33 31  1  0
 33 37  1  0
 34 33  2  0
 35 29  2  0
 36 35  1  0
M  END
$$$$
