WHY.pdb
     RDKit          3D

 37 40  0  0  1  0  0  0  0  0999 V2000
    6.8806  -17.1820   23.6859 N   0  0  0  0  0  0  0  0  0  0  0  0
    7.9328  -16.2312   23.3924 C   0  0  1  0  0  0  0  0  0  0  0  0
    8.2942  -15.5493   24.6949 C   0  0  0  0  0  0  0  0  0  0  0  0
    7.1625  -14.7642   25.2067 C   0  0  0  0  0  0  0  0  0  0  0  0
    6.2223  -15.1844   26.1216 C   0  0  0  0  0  0  0  0  0  0  0  0
    5.3907  -14.1405   26.2815 N   0  0  0  0  0  0  0  0  0  0  0  0
    5.7504  -13.1065   25.5310 C   0  0  0  0  0  0  0  0  0  0  0  0
    5.2382  -11.8385   25.3432 C   0  0  0  0  0  0  0  0  0  0  0  0
    5.8525  -10.9706   24.4734 C   0  0  0  0  0  0  0  0  0  0  0  0
    6.9757  -11.3389   23.7795 C   0  0  0  0  0  0  0  0  0  0  0  0
    7.5039  -12.6020   23.9530 C   0  0  0  0  0  0  0  0  0  0  0  0
    6.8779  -13.4670   24.8303 C   0  0  0  0  0  0  0  0  0  0  0  0
    9.1412  -16.8724   22.8535 C   0  0  0  0  0  0  0  0  0  0  0  0
    9.4704  -18.0007   23.2907 O   0  0  0  0  0  0  0  0  0  0  0  0
    9.9901  -16.2970   21.8471 N   0  0  0  0  0  0  0  0  0  0  0  0
   11.3236  -16.8086   21.6103 C   0  0  1  0  0  0  0  0  0  0  0  0
   11.8923  -16.5154   20.2774 C   0  0  0  0  0  0  0  0  0  0  0  0
   11.2091  -17.0478   19.1112 C   0  0  0  0  0  0  0  0  0  0  0  0
   10.4705  -18.1758   18.9456 C   0  0  0  0  0  0  0  0  0  0  0  0
   10.0176  -18.2108   17.6578 N   0  0  0  0  0  0  0  0  0  0  0  0
   10.4790  -17.1115   17.0503 C   0  0  0  0  0  0  0  0  0  0  0  0
   11.2049  -16.3874   17.9086 N   0  0  0  0  0  0  0  0  0  0  0  0
   12.2401  -16.3883   22.7296 C   0  0  0  0  0  0  0  0  0  0  0  0
   12.4885  -15.1743   22.9028 O   0  0  0  0  0  0  0  0  0  0  0  0
   10.9360  -16.1569   31.1228 O   0  0  0  0  0  0  0  0  0  0  0  0
   11.0727  -16.3496   29.7390 C   0  0  0  0  0  0  0  0  0  0  0  0
   11.3115  -17.6014   29.2131 C   0  0  0  0  0  0  0  0  0  0  0  0
   11.4468  -17.7926   27.8445 C   0  0  0  0  0  0  0  0  0  0  0  0
   11.3476  -16.7381   26.9579 C   0  0  0  0  0  0  0  0  0  0  0  0
   11.4899  -16.9209   25.5038 C   0  0  0  0  0  0  0  0  0  0  0  0
   12.8958  -17.1602   25.0425 C   0  0  2  0  0  0  0  0  0  0  0  0
   12.8224  -17.3404   23.5863 N   0  0  0  0  0  0  0  0  0  0  0  0
   13.5719  -18.2861   25.6927 C   0  0  0  0  0  0  0  0  0  0  0  0
   13.3228  -19.4617   25.3667 O   0  0  0  0  0  0  0  0  0  0  0  0
   11.1084  -15.4875   27.4911 C   0  0  0  0  0  0  0  0  0  0  0  0
   10.9724  -15.2919   28.8601 C   0  0  0  0  0  0  0  0  0  0  0  0
   14.5100  -18.0693   26.6914 O   0  0  0  0  0  0  0  0  0  0  0  0
  2  1  1  1
  2 13  1  0
  2  3  1  0
  3  4  1  0
  4  5  2  0
  6  5  1  0
  7  6  1  0
  8  7  2  0
  9  8  1  0
 10 11  1  0
 10  9  2  0
 11 12  2  0
 12  7  1  0
 12  4  1  0
 13 14  2  0
 15 16  1  0
 15 13  1  0
 16 17  1  6
 18 17  1  0
 19 18  2  0
 20 21  1  0
 20 19  1  0
 21 22  2  0
 22 18  1  0
 23 32  1  0
 23 16  1  0
 24 23  2  0
 25 26  1  0
 26 36  2  0
 26 27  1  0
 27 28  2  0
 28 29  1  0
 29 30  1  0
 31 30  1  1
 31 32  1  0
 33 31  1  0
 33 37  1  0
 34 33  2  0
 35 29  2  0
 36 35  1  0
M  END
$$$$
