WHY.pdb
     RDKit          3D

 37 40  0  0  1  0  0  0  0  0999 V2000
    6.5108  -18.7205   24.7310 N   0  0  0  0  0  0  0  0  0  0  0  0
    6.4895  -17.2932   24.4866 C   0  0  1  0  0  0  0  0  0  0  0  0
    7.0775  -16.6220   25.7097 C   0  0  0  0  0  0  0  0  0  0  0  0
    6.3014  -15.4295   26.0767 C   0  0  0  0  0  0  0  0  0  0  0  0
    5.0840  -15.4118   26.7211 C   0  0  0  0  0  0  0  0  0  0  0  0
    4.7639  -14.1118   26.8401 N   0  0  0  0  0  0  0  0  0  0  0  0
    5.6963  -13.3262   26.3155 C   0  0  0  0  0  0  0  0  0  0  0  0
    5.8330  -11.9583   26.1900 C   0  0  0  0  0  0  0  0  0  0  0  0
    6.9455  -11.4315   25.5800 C   0  0  0  0  0  0  0  0  0  0  0  0
    7.9347  -12.2424   25.0874 C   0  0  0  0  0  0  0  0  0  0  0  0
    7.8174  -13.6126   25.2027 C   0  0  0  0  0  0  0  0  0  0  0  0
    6.6942  -14.1317   25.8180 C   0  0  0  0  0  0  0  0  0  0  0  0
    7.2905  -16.9073   23.3155 C   0  0  0  0  0  0  0  0  0  0  0  0
    8.2907  -17.6013   23.0146 O   0  0  0  0  0  0  0  0  0  0  0  0
    7.0121  -15.7767   22.4736 N   0  0  0  0  0  0  0  0  0  0  0  0
    7.8422  -15.4747   21.3266 C   0  0  1  0  0  0  0  0  0  0  0  0
    7.2049  -14.6521   20.2763 C   0  0  0  0  0  0  0  0  0  0  0  0
    8.0055  -14.2750   19.1243 C   0  0  0  0  0  0  0  0  0  0  0  0
    8.6581  -13.1208   18.8286 C   0  0  0  0  0  0  0  0  0  0  0  0
    9.2941  -13.2785   17.6306 N   0  0  0  0  0  0  0  0  0  0  0  0
    9.0279  -14.5193   17.2062 C   0  0  0  0  0  0  0  0  0  0  0  0
    8.2483  -15.1466   18.0929 N   0  0  0  0  0  0  0  0  0  0  0  0
    9.1586  -14.9021   21.7831 C   0  0  0  0  0  0  0  0  0  0  0  0
    9.3121  -13.6610   21.8249 O   0  0  0  0  0  0  0  0  0  0  0  0
   11.7669  -15.6861   29.8680 O   0  0  0  0  0  0  0  0  0  0  0  0
   11.2926  -15.6900   28.5467 C   0  0  0  0  0  0  0  0  0  0  0  0
   11.1259  -14.5151   27.8450 C   0  0  0  0  0  0  0  0  0  0  0  0
   10.6569  -14.5184   26.5381 C   0  0  0  0  0  0  0  0  0  0  0  0
   10.3395  -15.6966   25.8910 C   0  0  0  0  0  0  0  0  0  0  0  0
    9.8393  -15.7200   24.5063 C   0  0  0  0  0  0  0  0  0  0  0  0
   10.9064  -15.6184   23.4586 C   0  0  2  0  0  0  0  0  0  0  0  0
   10.2212  -15.7415   22.1650 N   0  0  0  0  0  0  0  0  0  0  0  0
   11.9910  -16.5949   23.5906 C   0  0  0  0  0  0  0  0  0  0  0  0
   13.0570  -16.2996   24.1623 O   0  0  0  0  0  0  0  0  0  0  0  0
   10.5087  -16.8693   26.5993 C   0  0  0  0  0  0  0  0  0  0  0  0
   10.9778  -16.8705   27.9073 C   0  0  0  0  0  0  0  0  0  0  0  0
   11.8566  -17.8777   23.0799 O   0  0  0  0  0  0  0  0  0  0  0  0
  2  1  1  1
  2 13  1  0
  2  3  1  0
  3  4  1  0
  4  5  2  0
  6  5  1  0
  7  6  1  0
  8  7  2  0
  9  8  1  0
 10 11  1  0
 10  9  2  0
 11 12  2  0
 12  7  1  0
 12  4  1  0
 13 14  2  0
 15 16  1  0
 15 13  1  0
 16 17  1  6
 18 17  1  0
 19 18  2  0
 20 21  1  0
 20 19  1  0
 21 22  2  0
 22 18  1  0
 23 32  1  0
 23 16  1  0
 24 23  2  0
 25 26  1  0
 26 36  2  0
 26 27  1  0
 27 28  2  0
 28 29  1  0
 29 30  1  0
 31 30  1  1
 31 32  1  0
 33 31  1  0
 33 37  1  0
 34 33  2  0
 35 29  2  0
 36 35  1  0
M  END
$$$$
