WHY.pdb
     RDKit          3D

 37 40  0  0  1  0  0  0  0  0999 V2000
    6.4405  -17.2461   23.8318 N   0  0  0  0  0  0  0  0  0  0  0  0
    7.3196  -16.1320   23.5430 C   0  0  1  0  0  0  0  0  0  0  0  0
    7.8937  -15.6626   24.8629 C   0  0  0  0  0  0  0  0  0  0  0  0
    6.9075  -14.8711   25.6112 C   0  0  0  0  0  0  0  0  0  0  0  0
    5.9635  -15.3576   26.4885 C   0  0  0  0  0  0  0  0  0  0  0  0
    5.2931  -14.2770   26.9241 N   0  0  0  0  0  0  0  0  0  0  0  0
    5.7556  -13.1589   26.3786 C   0  0  0  0  0  0  0  0  0  0  0  0
    5.4153  -11.8264   26.4970 C   0  0  0  0  0  0  0  0  0  0  0  0
    6.1010  -10.8753   25.7812 C   0  0  0  0  0  0  0  0  0  0  0  0
    7.1277  -11.2230   24.9423 C   0  0  0  0  0  0  0  0  0  0  0  0
    7.4838  -12.5497   24.8096 C   0  0  0  0  0  0  0  0  0  0  0  0
    6.7873  -13.4981   25.5343 C   0  0  0  0  0  0  0  0  0  0  0  0
    8.4337  -16.5043   22.6587 C   0  0  0  0  0  0  0  0  0  0  0  0
    8.6727  -17.7208   22.4704 O   0  0  0  0  0  0  0  0  0  0  0  0
    9.2857  -15.5665   21.9811 N   0  0  0  0  0  0  0  0  0  0  0  0
   10.4185  -16.0138   21.1984 C   0  0  1  0  0  0  0  0  0  0  0  0
   10.4088  -15.6135   19.7751 C   0  0  0  0  0  0  0  0  0  0  0  0
    9.1806  -15.0627   19.2289 C   0  0  0  0  0  0  0  0  0  0  0  0
    8.0718  -15.6704   18.7324 C   0  0  0  0  0  0  0  0  0  0  0  0
    7.1765  -14.7057   18.3681 N   0  0  0  0  0  0  0  0  0  0  0  0
    7.7405  -13.5240   18.6433 C   0  0  0  0  0  0  0  0  0  0  0  0
    8.9567  -13.7105   19.1667 N   0  0  0  0  0  0  0  0  0  0  0  0
   11.7016  -15.6359   21.8914 C   0  0  0  0  0  0  0  0  0  0  0  0
   12.1364  -14.4668   21.7934 O   0  0  0  0  0  0  0  0  0  0  0  0
   10.6490  -15.8820   30.2646 O   0  0  0  0  0  0  0  0  0  0  0  0
   10.7555  -16.0228   28.8719 C   0  0  0  0  0  0  0  0  0  0  0  0
   10.0235  -16.9734   28.1928 C   0  0  0  0  0  0  0  0  0  0  0  0
   10.1285  -17.1131   26.8154 C   0  0  0  0  0  0  0  0  0  0  0  0
   10.9689  -16.3069   26.0728 C   0  0  0  0  0  0  0  0  0  0  0  0
   11.0949  -16.4413   24.6119 C   0  0  0  0  0  0  0  0  0  0  0  0
   12.5068  -16.5205   24.1150 C   0  0  2  0  0  0  0  0  0  0  0  0
   12.4210  -16.5778   22.6495 N   0  0  0  0  0  0  0  0  0  0  0  0
   13.2857  -17.6382   24.6546 C   0  0  0  0  0  0  0  0  0  0  0  0
   14.2905  -17.4401   25.3628 O   0  0  0  0  0  0  0  0  0  0  0  0
   11.6990  -15.3573   26.7590 C   0  0  0  0  0  0  0  0  0  0  0  0
   11.5968  -15.2141   28.1373 C   0  0  0  0  0  0  0  0  0  0  0  0
   12.9214  -18.9502   24.3892 O   0  0  0  0  0  0  0  0  0  0  0  0
  2  1  1  1
  2 13  1  0
  2  3  1  0
  3  4  1  0
  4  5  2  0
  6  5  1  0
  7  6  1  0
  8  7  2  0
  9  8  1  0
 10 11  1  0
 10  9  2  0
 11 12  2  0
 12  7  1  0
 12  4  1  0
 13 14  2  0
 15 16  1  0
 15 13  1  0
 16 17  1  6
 18 17  1  0
 19 18  2  0
 20 21  1  0
 20 19  1  0
 21 22  2  0
 22 18  1  0
 23 32  1  0
 23 16  1  0
 24 23  2  0
 25 26  1  0
 26 36  2  0
 26 27  1  0
 27 28  2  0
 28 29  1  0
 29 30  1  0
 31 30  1  1
 31 32  1  0
 33 31  1  0
 33 37  1  0
 34 33  2  0
 35 29  2  0
 36 35  1  0
M  END
$$$$
