WHY.pdb
     RDKit          3D

 37 40  0  0  1  0  0  0  0  0999 V2000
    7.0465  -17.3971   23.2690 N   0  0  0  0  0  0  0  0  0  0  0  0
    7.9149  -16.2403   23.1989 C   0  0  1  0  0  0  0  0  0  0  0  0
    8.2744  -15.8651   24.6209 C   0  0  0  0  0  0  0  0  0  0  0  0
    7.1474  -15.1983   25.2876 C   0  0  0  0  0  0  0  0  0  0  0  0
    6.1183  -15.8130   25.9663 C   0  0  0  0  0  0  0  0  0  0  0  0
    5.3310  -14.8132   26.3989 N   0  0  0  0  0  0  0  0  0  0  0  0
    5.8003  -13.6259   26.0359 C   0  0  0  0  0  0  0  0  0  0  0  0
    5.3695  -12.3288   26.2286 C   0  0  0  0  0  0  0  0  0  0  0  0
    6.0933  -11.2802   25.7149 C   0  0  0  0  0  0  0  0  0  0  0  0
    7.2472  -11.4949   25.0070 C   0  0  0  0  0  0  0  0  0  0  0  0
    7.6954  -12.7841   24.8031 C   0  0  0  0  0  0  0  0  0  0  0  0
    6.9595  -13.8313   25.3243 C   0  0  0  0  0  0  0  0  0  0  0  0
    9.1583  -16.5094   22.4617 C   0  0  0  0  0  0  0  0  0  0  0  0
    9.4622  -17.6992   22.2073 O   0  0  0  0  0  0  0  0  0  0  0  0
   10.0690  -15.4978   22.0015 N   0  0  0  0  0  0  0  0  0  0  0  0
   11.3175  -15.8505   21.3590 C   0  0  1  0  0  0  0  0  0  0  0  0
   11.9678  -14.7677   20.5903 C   0  0  0  0  0  0  0  0  0  0  0  0
   13.1502  -15.0969   19.8132 C   0  0  0  0  0  0  0  0  0  0  0  0
   13.2850  -15.5530   18.5408 C   0  0  0  0  0  0  0  0  0  0  0  0
   14.6165  -15.6803   18.2659 N   0  0  0  0  0  0  0  0  0  0  0  0
   15.2810  -15.3030   19.3643 C   0  0  0  0  0  0  0  0  0  0  0  0
   14.4164  -14.9438   20.3189 N   0  0  0  0  0  0  0  0  0  0  0  0
   12.2491  -16.4816   22.3607 C   0  0  0  0  0  0  0  0  0  0  0  0
   13.4120  -16.7886   22.0159 O   0  0  0  0  0  0  0  0  0  0  0  0
    9.6895  -13.0577   28.3700 O   0  0  0  0  0  0  0  0  0  0  0  0
   10.2044  -14.2043   27.7448 C   0  0  0  0  0  0  0  0  0  0  0  0
    9.4285  -14.9623   26.8940 C   0  0  0  0  0  0  0  0  0  0  0  0
    9.9373  -16.0966   26.2754 C   0  0  0  0  0  0  0  0  0  0  0  0
   11.2382  -16.5091   26.4877 C   0  0  0  0  0  0  0  0  0  0  0  0
   11.7948  -17.7097   25.8422 C   0  0  0  0  0  0  0  0  0  0  0  0
   12.6752  -17.4288   24.6620 C   0  0  2  0  0  0  0  0  0  0  0  0
   11.8326  -16.7317   23.6811 N   0  0  0  0  0  0  0  0  0  0  0  0
   13.3170  -18.6106   24.0799 C   0  0  0  0  0  0  0  0  0  0  0  0
   13.0990  -18.9465   22.9009 O   0  0  0  0  0  0  0  0  0  0  0  0
   12.0096  -15.7456   27.3408 C   0  0  0  0  0  0  0  0  0  0  0  0
   11.5044  -14.6099   27.9618 C   0  0  0  0  0  0  0  0  0  0  0  0
   14.1869  -19.3876   24.8308 O   0  0  0  0  0  0  0  0  0  0  0  0
  2  1  1  1
  2 13  1  0
  2  3  1  0
  3  4  1  0
  4  5  2  0
  6  5  1  0
  7  6  1  0
  8  7  2  0
  9  8  1  0
 10 11  1  0
 10  9  2  0
 11 12  2  0
 12  7  1  0
 12  4  1  0
 13 14  2  0
 15 16  1  0
 15 13  1  0
 16 17  1  1
 18 17  1  0
 19 18  2  0
 20 21  1  0
 20 19  1  0
 21 22  2  0
 22 18  1  0
 23 32  1  0
 23 16  1  0
 24 23  2  0
 25 26  1  0
 26 36  2  0
 26 27  1  0
 27 28  2  0
 28 29  1  0
 29 30  1  0
 31 30  1  1
 31 32  1  0
 33 31  1  0
 33 37  1  0
 34 33  2  0
 35 29  2  0
 36 35  1  0
M  END
$$$$
