WHY.pdb
     RDKit          3D

 37 40  0  0  1  0  0  0  0  0999 V2000
    6.3664  -18.5854   23.6403 N   0  0  0  0  0  0  0  0  0  0  0  0
    6.7416  -17.7612   22.5101 C   0  0  1  0  0  0  0  0  0  0  0  0
    5.9935  -16.4519   22.6446 C   0  0  0  0  0  0  0  0  0  0  0  0
    6.1877  -15.8725   23.9809 C   0  0  0  0  0  0  0  0  0  0  0  0
    6.1318  -16.5464   25.1810 C   0  0  0  0  0  0  0  0  0  0  0  0
    6.3672  -15.6161   26.1222 N   0  0  0  0  0  0  0  0  0  0  0  0
    6.5643  -14.4167   25.5890 C   0  0  0  0  0  0  0  0  0  0  0  0
    6.8351  -13.1699   26.1159 C   0  0  0  0  0  0  0  0  0  0  0  0
    6.9911  -12.0898   25.2814 C   0  0  0  0  0  0  0  0  0  0  0  0
    6.8827  -12.2232   23.9216 C   0  0  0  0  0  0  0  0  0  0  0  0
    6.6123  -13.4610   23.3746 C   0  0  0  0  0  0  0  0  0  0  0  0
    6.4573  -14.5406   24.2232 C   0  0  0  0  0  0  0  0  0  0  0  0
    8.1825  -17.4707   22.4747 C   0  0  0  0  0  0  0  0  0  0  0  0
    8.9212  -17.9793   23.3512 O   0  0  0  0  0  0  0  0  0  0  0  0
    8.8222  -16.6345   21.4969 N   0  0  0  0  0  0  0  0  0  0  0  0
   10.2592  -16.4591   21.4866 C   0  0  1  0  0  0  0  0  0  0  0  0
   10.8071  -15.7487   20.3114 C   0  0  0  0  0  0  0  0  0  0  0  0
   12.2501  -15.7087   20.1490 C   0  0  0  0  0  0  0  0  0  0  0  0
   13.1755  -14.8204   20.5960 C   0  0  0  0  0  0  0  0  0  0  0  0
   14.4107  -15.2460   20.1983 N   0  0  0  0  0  0  0  0  0  0  0  0
   14.2323  -16.3834   19.5166 C   0  0  0  0  0  0  0  0  0  0  0  0
   12.9312  -16.6880   19.4711 N   0  0  0  0  0  0  0  0  0  0  0  0
   10.7104  -15.8480   22.7875 C   0  0  0  0  0  0  0  0  0  0  0  0
   10.0968  -14.8621   23.2533 O   0  0  0  0  0  0  0  0  0  0  0  0
   11.2536  -15.2007   31.2418 O   0  0  0  0  0  0  0  0  0  0  0  0
   11.1526  -15.4414   29.8624 C   0  0  0  0  0  0  0  0  0  0  0  0
   11.2126  -14.4083   28.9516 C   0  0  0  0  0  0  0  0  0  0  0  0
   11.1128  -14.6457   27.5872 C   0  0  0  0  0  0  0  0  0  0  0  0
   10.9498  -15.9239   27.0899 C   0  0  0  0  0  0  0  0  0  0  0  0
   10.8403  -16.1952   25.6468 C   0  0  0  0  0  0  0  0  0  0  0  0
   12.1142  -16.0037   24.8804 C   0  0  2  0  0  0  0  0  0  0  0  0
   11.8126  -16.3689   23.4897 N   0  0  0  0  0  0  0  0  0  0  0  0
   13.2612  -16.7536   25.3992 C   0  0  0  0  0  0  0  0  0  0  0  0
   13.9843  -16.2839   26.2976 O   0  0  0  0  0  0  0  0  0  0  0  0
   10.8905  -16.9537   28.0072 C   0  0  0  0  0  0  0  0  0  0  0  0
   10.9900  -16.7204   29.3734 C   0  0  0  0  0  0  0  0  0  0  0  0
   13.5714  -18.0104   24.9007 O   0  0  0  0  0  0  0  0  0  0  0  0
  2  1  1  1
  2 13  1  0
  2  3  1  0
  3  4  1  0
  4  5  2  0
  6  5  1  0
  7  6  1  0
  8  7  2  0
  9  8  1  0
 10 11  1  0
 10  9  2  0
 11 12  2  0
 12  7  1  0
 12  4  1  0
 13 14  2  0
 15 16  1  0
 15 13  1  0
 16 17  1  6
 18 17  1  0
 19 18  2  0
 20 21  1  0
 20 19  1  0
 21 22  2  0
 22 18  1  0
 23 32  1  0
 23 16  1  0
 24 23  2  0
 25 26  1  0
 26 36  2  0
 26 27  1  0
 27 28  2  0
 28 29  1  0
 29 30  1  0
 31 30  1  1
 31 32  1  0
 33 31  1  0
 33 37  1  0
 34 33  2  0
 35 29  2  0
 36 35  1  0
M  END
$$$$
