WHY.pdb
     RDKit          3D

 37 40  0  0  1  0  0  0  0  0999 V2000
    6.2565  -17.6531   20.7172 N   0  0  0  0  0  0  0  0  0  0  0  0
    7.1469  -16.6227   21.2097 C   0  0  1  0  0  0  0  0  0  0  0  0
    6.5094  -16.0384   22.4524 C   0  0  0  0  0  0  0  0  0  0  0  0
    6.7670  -14.5946   22.5438 C   0  0  0  0  0  0  0  0  0  0  0  0
    7.0163  -13.7397   21.4929 C   0  0  0  0  0  0  0  0  0  0  0  0
    7.1919  -12.5304   22.0527 N   0  0  0  0  0  0  0  0  0  0  0  0
    7.0689  -12.5777   23.3734 C   0  0  0  0  0  0  0  0  0  0  0  0
    7.1571  -11.6325   24.3755 C   0  0  0  0  0  0  0  0  0  0  0  0
    6.9754  -12.0011   25.6864 C   0  0  0  0  0  0  0  0  0  0  0  0
    6.7052  -13.3011   26.0263 C   0  0  0  0  0  0  0  0  0  0  0  0
    6.6128  -14.2616   25.0396 C   0  0  0  0  0  0  0  0  0  0  0  0
    6.7973  -13.8798   23.7243 C   0  0  0  0  0  0  0  0  0  0  0  0
    8.4730  -17.1452   21.5706 C   0  0  0  0  0  0  0  0  0  0  0  0
    8.5471  -18.2639   22.1324 O   0  0  0  0  0  0  0  0  0  0  0  0
    9.7132  -16.4623   21.3257 N   0  0  0  0  0  0  0  0  0  0  0  0
   10.9783  -17.0397   21.7282 C   0  0  1  0  0  0  0  0  0  0  0  0
   12.0706  -16.9375   20.7370 C   0  0  0  0  0  0  0  0  0  0  0  0
   13.3207  -17.6190   21.0256 C   0  0  0  0  0  0  0  0  0  0  0  0
   14.3198  -17.3225   21.8969 C   0  0  0  0  0  0  0  0  0  0  0  0
   15.2720  -18.2976   21.8109 N   0  0  0  0  0  0  0  0  0  0  0  0
   14.8505  -19.1769   20.8946 C   0  0  0  0  0  0  0  0  0  0  0  0
   13.6692  -18.7903   20.4018 N   0  0  0  0  0  0  0  0  0  0  0  0
   11.3784  -16.5067   23.0792 C   0  0  0  0  0  0  0  0  0  0  0  0
   11.2137  -15.2939   23.3391 O   0  0  0  0  0  0  0  0  0  0  0  0
   10.4144  -15.2188   31.4623 O   0  0  0  0  0  0  0  0  0  0  0  0
   10.4862  -15.5623   30.1030 C   0  0  0  0  0  0  0  0  0  0  0  0
   10.4456  -16.8790   29.6968 C   0  0  0  0  0  0  0  0  0  0  0  0
   10.5167  -17.2193   28.3525 C   0  0  0  0  0  0  0  0  0  0  0  0
   10.6306  -16.2538   27.3714 C   0  0  0  0  0  0  0  0  0  0  0  0
   10.7090  -16.5953   25.9412 C   0  0  0  0  0  0  0  0  0  0  0  0
   12.0837  -16.9522   25.4623 C   0  0  2  0  0  0  0  0  0  0  0  0
   11.9351  -17.3520   24.0565 N   0  0  0  0  0  0  0  0  0  0  0  0
   12.7586  -17.9874   26.2498 C   0  0  0  0  0  0  0  0  0  0  0  0
   12.6655  -19.1911   25.9451 O   0  0  0  0  0  0  0  0  0  0  0  0
   10.6708  -14.9375   27.7851 C   0  0  0  0  0  0  0  0  0  0  0  0
   10.6000  -14.5927   29.1293 C   0  0  0  0  0  0  0  0  0  0  0  0
   13.5210  -17.6509   27.3588 O   0  0  0  0  0  0  0  0  0  0  0  0
  2  1  1  1
  2 13  1  0
  2  3  1  0
  3  4  1  0
  4  5  2  0
  6  5  1  0
  7  6  1  0
  8  7  2  0
  9  8  1  0
 10 11  1  0
 10  9  2  0
 11 12  2  0
 12  7  1  0
 12  4  1  0
 13 14  2  0
 15 16  1  0
 15 13  1  0
 16 17  1  6
 18 17  1  0
 19 18  2  0
 20 21  1  0
 20 19  1  0
 21 22  2  0
 22 18  1  0
 23 32  1  0
 23 16  1  0
 24 23  2  0
 25 26  1  0
 26 36  2  0
 26 27  1  0
 27 28  2  0
 28 29  1  0
 29 30  1  0
 31 30  1  1
 31 32  1  0
 33 31  1  0
 33 37  1  0
 34 33  2  0
 35 29  2  0
 36 35  1  0
M  END
$$$$
