WHY.pdb
     RDKit          3D

 37 40  0  0  1  0  0  0  0  0999 V2000
    9.6903  -16.6729   21.1112 N   0  0  0  0  0  0  0  0  0  0  0  0
    9.0826  -16.1110   22.2995 C   0  0  1  0  0  0  0  0  0  0  0  0
    7.5985  -15.9879   22.0263 C   0  0  0  0  0  0  0  0  0  0  0  0
    7.3518  -15.1626   20.8359 C   0  0  0  0  0  0  0  0  0  0  0  0
    6.8272  -15.5921   19.6368 C   0  0  0  0  0  0  0  0  0  0  0  0
    6.7880  -14.4996   18.8546 N   0  0  0  0  0  0  0  0  0  0  0  0
    7.2505  -13.4271   19.4850 C   0  0  0  0  0  0  0  0  0  0  0  0
    7.4135  -12.1042   19.1259 C   0  0  0  0  0  0  0  0  0  0  0  0
    7.9342  -11.2065   20.0261 C   0  0  0  0  0  0  0  0  0  0  0  0
    8.2999  -11.5986   21.2875 C   0  0  0  0  0  0  0  0  0  0  0  0
    8.1451  -12.9166   21.6664 C   0  0  0  0  0  0  0  0  0  0  0  0
    7.6204  -13.8111   20.7530 C   0  0  0  0  0  0  0  0  0  0  0  0
    9.2670  -16.9603   23.4855 C   0  0  0  0  0  0  0  0  0  0  0  0
    8.3772  -16.9623   24.3692 O   0  0  0  0  0  0  0  0  0  0  0  0
   10.4075  -17.8033   23.7157 N   0  0  0  0  0  0  0  0  0  0  0  0
   10.5683  -18.5218   24.9623 C   0  0  1  0  0  0  0  0  0  0  0  0
   11.5886  -19.5918   24.9552 C   0  0  0  0  0  0  0  0  0  0  0  0
   11.7297  -20.4089   26.1479 C   0  0  0  0  0  0  0  0  0  0  0  0
   11.7601  -20.0721   27.4636 C   0  0  0  0  0  0  0  0  0  0  0  0
   11.8823  -21.2156   28.1999 N   0  0  0  0  0  0  0  0  0  0  0  0
   11.9247  -22.2357   27.3350 C   0  0  0  0  0  0  0  0  0  0  0  0
   11.8340  -21.7755   26.0830 N   0  0  0  0  0  0  0  0  0  0  0  0
   10.7676  -17.5472   26.0935 C   0  0  0  0  0  0  0  0  0  0  0  0
   11.6832  -16.6973   26.0236 O   0  0  0  0  0  0  0  0  0  0  0  0
    7.7679  -11.9980   24.5086 O   0  0  0  0  0  0  0  0  0  0  0  0
    8.0128  -12.9720   25.4895 C   0  0  0  0  0  0  0  0  0  0  0  0
    7.1768  -14.0576   25.6414 C   0  0  0  0  0  0  0  0  0  0  0  0
    7.4185  -15.0213   26.6113 C   0  0  0  0  0  0  0  0  0  0  0  0
    8.5041  -14.9303   27.4605 C   0  0  0  0  0  0  0  0  0  0  0  0
    8.7758  -15.9412   28.4960 C   0  0  0  0  0  0  0  0  0  0  0  0
   10.0941  -16.6396   28.3514 C   0  0  2  0  0  0  0  0  0  0  0  0
    9.9390  -17.5762   27.2302 N   0  0  0  0  0  0  0  0  0  0  0  0
   10.5648  -17.3189   29.5614 C   0  0  0  0  0  0  0  0  0  0  0  0
   10.6442  -18.5605   29.6131 O   0  0  0  0  0  0  0  0  0  0  0  0
    9.3371  -13.8408   27.3030 C   0  0  0  0  0  0  0  0  0  0  0  0
    9.0987  -12.8743   26.3336 C   0  0  0  0  0  0  0  0  0  0  0  0
   10.9352  -16.5929   30.6840 O   0  0  0  0  0  0  0  0  0  0  0  0
  2  1  1  6
  2 13  1  0
  2  3  1  0
  3  4  1  0
  4  5  2  0
  6  5  1  0
  7  6  1  0
  8  7  2  0
  9  8  1  0
 10 11  1  0
 10  9  2  0
 11 12  2  0
 12  7  1  0
 12  4  1  0
 13 14  2  0
 15 16  1  0
 15 13  1  0
 16 17  1  6
 18 17  1  0
 19 18  2  0
 20 21  1  0
 20 19  1  0
 21 22  2  0
 22 18  1  0
 23 32  1  0
 23 16  1  0
 24 23  2  0
 25 26  1  0
 26 36  2  0
 26 27  1  0
 27 28  2  0
 28 29  1  0
 29 30  1  0
 31 30  1  1
 31 32  1  0
 33 31  1  0
 33 37  1  0
 34 33  2  0
 35 29  2  0
 36 35  1  0
M  END
$$$$
