WHY.pdb
     RDKit          3D

 37 40  0  0  1  0  0  0  0  0999 V2000
    5.8550  -18.2056   25.0635 N   0  0  0  0  0  0  0  0  0  0  0  0
    6.4827  -17.0798   24.4034 C   0  0  1  0  0  0  0  0  0  0  0  0
    7.7049  -16.7100   25.2169 C   0  0  0  0  0  0  0  0  0  0  0  0
    7.4124  -15.5901   26.1221 C   0  0  0  0  0  0  0  0  0  0  0  0
    6.8979  -15.6811   27.3967 C   0  0  0  0  0  0  0  0  0  0  0  0
    6.7999  -14.4130   27.8315 N   0  0  0  0  0  0  0  0  0  0  0  0
    7.2169  -13.5463   26.9169 C   0  0  0  0  0  0  0  0  0  0  0  0
    7.3143  -12.1698   26.8794 C   0  0  0  0  0  0  0  0  0  0  0  0
    7.8001  -11.5452   25.7564 C   0  0  0  0  0  0  0  0  0  0  0  0
    8.1952  -12.2656   24.6594 C   0  0  0  0  0  0  0  0  0  0  0  0
    8.1060  -13.6427   24.6764 C   0  0  0  0  0  0  0  0  0  0  0  0
    7.6159  -14.2607   25.8111 C   0  0  0  0  0  0  0  0  0  0  0  0
    6.9150  -17.3954   23.0340 C   0  0  0  0  0  0  0  0  0  0  0  0
    7.2621  -18.5707   22.7677 O   0  0  0  0  0  0  0  0  0  0  0  0
    6.9722  -16.4456   21.9573 N   0  0  0  0  0  0  0  0  0  0  0  0
    7.5678  -16.7919   20.6840 C   0  0  1  0  0  0  0  0  0  0  0  0
    7.1544  -15.9551   19.5374 C   0  0  0  0  0  0  0  0  0  0  0  0
    7.8260  -16.1593   18.2655 C   0  0  0  0  0  0  0  0  0  0  0  0
    8.8576  -15.4950   17.6827 C   0  0  0  0  0  0  0  0  0  0  0  0
    9.1407  -16.0968   16.4900 N   0  0  0  0  0  0  0  0  0  0  0  0
    8.2864  -17.1177   16.3540 C   0  0  0  0  0  0  0  0  0  0  0  0
    7.4773  -17.1793   17.4167 N   0  0  0  0  0  0  0  0  0  0  0  0
    9.0656  -16.8732   20.8239 C   0  0  0  0  0  0  0  0  0  0  0  0
    9.7397  -17.4418   19.9364 O   0  0  0  0  0  0  0  0  0  0  0  0
   10.1025  -12.1588   17.2127 O   0  0  0  0  0  0  0  0  0  0  0  0
   10.4618  -12.8187   18.3985 C   0  0  0  0  0  0  0  0  0  0  0  0
    9.6827  -12.7240   19.5319 C   0  0  0  0  0  0  0  0  0  0  0  0
   10.0376  -13.3764   20.7051 C   0  0  0  0  0  0  0  0  0  0  0  0
   11.1830  -14.1445   20.7825 C   0  0  0  0  0  0  0  0  0  0  0  0
   11.5765  -14.8422   22.0179 C   0  0  0  0  0  0  0  0  0  0  0  0
   11.1841  -16.2880   22.0667 C   0  0  2  0  0  0  0  0  0  0  0  0
    9.7210  -16.3183   21.9384 N   0  0  0  0  0  0  0  0  0  0  0  0
   11.6367  -17.0069   23.2606 C   0  0  0  0  0  0  0  0  0  0  0  0
   11.7658  -16.4235   24.3531 O   0  0  0  0  0  0  0  0  0  0  0  0
   11.9585  -14.2350   19.6441 C   0  0  0  0  0  0  0  0  0  0  0  0
   11.6069  -13.5837   18.4681 C   0  0  0  0  0  0  0  0  0  0  0  0
   11.9338  -18.3608   23.2035 O   0  0  0  0  0  0  0  0  0  0  0  0
  2  1  1  1
  2 13  1  0
  2  3  1  0
  3  4  1  0
  4  5  2  0
  6  5  1  0
  7  6  1  0
  8  7  2  0
  9  8  1  0
 10 11  1  0
 10  9  2  0
 11 12  2  0
 12  7  1  0
 12  4  1  0
 13 14  2  0
 15 16  1  0
 15 13  1  0
 16 17  1  6
 18 17  1  0
 19 18  2  0
 20 21  1  0
 20 19  1  0
 21 22  2  0
 22 18  1  0
 23 32  1  0
 23 16  1  0
 24 23  2  0
 25 26  1  0
 26 36  2  0
 26 27  1  0
 27 28  2  0
 28 29  1  0
 29 30  1  0
 31 30  1  1
 31 32  1  0
 33 31  1  0
 33 37  1  0
 34 33  2  0
 35 29  2  0
 36 35  1  0
M  END
$$$$
