WHY.pdb
     RDKit          3D

 37 40  0  0  1  0  0  0  0  0999 V2000
    7.9170  -18.0791   20.9619 N   0  0  0  0  0  0  0  0  0  0  0  0
    8.5516  -17.0928   21.8115 C   0  0  1  0  0  0  0  0  0  0  0  0
    7.4787  -16.1123   22.2355 C   0  0  0  0  0  0  0  0  0  0  0  0
    7.0445  -15.2875   21.0996 C   0  0  0  0  0  0  0  0  0  0  0  0
    6.1432  -15.6494   20.1228 C   0  0  0  0  0  0  0  0  0  0  0  0
    6.0626  -14.5874   19.3028 N   0  0  0  0  0  0  0  0  0  0  0  0
    6.8493  -13.5964   19.7035 C   0  0  0  0  0  0  0  0  0  0  0  0
    7.1157  -12.3321   19.2176 C   0  0  0  0  0  0  0  0  0  0  0  0
    8.0049  -11.5163   19.8743 C   0  0  0  0  0  0  0  0  0  0  0  0
    8.6413  -11.9338   21.0142 C   0  0  0  0  0  0  0  0  0  0  0  0
    8.3890  -13.1941   21.5165 C   0  0  0  0  0  0  0  0  0  0  0  0
    7.4927  -14.0064   20.8481 C   0  0  0  0  0  0  0  0  0  0  0  0
    9.1438  -17.6839   23.0205 C   0  0  0  0  0  0  0  0  0  0  0  0
    8.5073  -18.5777   23.6279 O   0  0  0  0  0  0  0  0  0  0  0  0
   10.4176  -17.3111   23.5709 N   0  0  0  0  0  0  0  0  0  0  0  0
   10.9482  -17.9711   24.7451 C   0  0  1  0  0  0  0  0  0  0  0  0
   12.2265  -18.6883   24.5512 C   0  0  0  0  0  0  0  0  0  0  0  0
   12.7283  -19.4983   25.6477 C   0  0  0  0  0  0  0  0  0  0  0  0
   12.0864  -20.3192   26.5192 C   0  0  0  0  0  0  0  0  0  0  0  0
   13.0146  -20.8782   27.3503 N   0  0  0  0  0  0  0  0  0  0  0  0
   14.2085  -20.3987   26.9829 C   0  0  0  0  0  0  0  0  0  0  0  0
   14.0647  -19.5593   25.9521 N   0  0  0  0  0  0  0  0  0  0  0  0
   11.0038  -17.0017   25.8968 C   0  0  0  0  0  0  0  0  0  0  0  0
   11.5732  -15.8974   25.7488 O   0  0  0  0  0  0  0  0  0  0  0  0
    6.6081  -12.8363   24.7987 O   0  0  0  0  0  0  0  0  0  0  0  0
    7.2528  -13.6242   25.7653 C   0  0  0  0  0  0  0  0  0  0  0  0
    6.9483  -14.9603   25.9155 C   0  0  0  0  0  0  0  0  0  0  0  0
    7.5857  -15.7400   26.8714 C   0  0  0  0  0  0  0  0  0  0  0  0
    8.5480  -15.2087   27.7076 C   0  0  0  0  0  0  0  0  0  0  0  0
    9.2334  -16.0192   28.7281 C   0  0  0  0  0  0  0  0  0  0  0  0
   10.6033  -16.4837   28.3354 C   0  0  2  0  0  0  0  0  0  0  0  0
   10.4242  -17.3176   27.1393 N   0  0  0  0  0  0  0  0  0  0  0  0
   11.3345  -17.1965   29.3863 C   0  0  0  0  0  0  0  0  0  0  0  0
   11.6350  -16.6345   30.4560 O   0  0  0  0  0  0  0  0  0  0  0  0
    8.8481  -13.8703   27.5519 C   0  0  0  0  0  0  0  0  0  0  0  0
    8.2126  -13.0865   26.5966 C   0  0  0  0  0  0  0  0  0  0  0  0
   11.7115  -18.5205   29.2151 O   0  0  0  0  0  0  0  0  0  0  0  0
  2  1  1  6
  2 13  1  0
  2  3  1  0
  3  4  1  0
  4  5  2  0
  6  5  1  0
  7  6  1  0
  8  7  2  0
  9  8  1  0
 10 11  1  0
 10  9  2  0
 11 12  2  0
 12  7  1  0
 12  4  1  0
 13 14  2  0
 15 16  1  0
 15 13  1  0
 16 17  1  6
 18 17  1  0
 19 18  2  0
 20 21  1  0
 20 19  1  0
 21 22  2  0
 22 18  1  0
 23 32  1  0
 23 16  1  0
 24 23  2  0
 25 26  1  0
 26 36  2  0
 26 27  1  0
 27 28  2  0
 28 29  1  0
 29 30  1  0
 31 30  1  1
 31 32  1  0
 33 31  1  0
 33 37  1  0
 34 33  2  0
 35 29  2  0
 36 35  1  0
M  END
$$$$
