WHY.pdb
     RDKit          3D

 37 40  0  0  1  0  0  0  0  0999 V2000
    6.9381  -17.6822   25.5873 N   0  0  0  0  0  0  0  0  0  0  0  0
    7.0698  -17.4983   24.1568 C   0  0  1  0  0  0  0  0  0  0  0  0
    6.4150  -16.1769   23.8144 C   0  0  0  0  0  0  0  0  0  0  0  0
    6.3917  -15.2857   24.9824 C   0  0  0  0  0  0  0  0  0  0  0  0
    6.0740  -15.6393   26.2753 C   0  0  0  0  0  0  0  0  0  0  0  0
    6.1853  -14.5068   26.9909 N   0  0  0  0  0  0  0  0  0  0  0  0
    6.5487  -13.4801   26.2323 C   0  0  0  0  0  0  0  0  0  0  0  0
    6.7905  -12.1446   26.4844 C   0  0  0  0  0  0  0  0  0  0  0  0
    7.1625  -11.3079   25.4603 C   0  0  0  0  0  0  0  0  0  0  0  0
    7.3008  -11.7740   24.1788 C   0  0  0  0  0  0  0  0  0  0  0  0
    7.0638  -13.1058   23.9055 C   0  0  0  0  0  0  0  0  0  0  0  0
    6.6901  -13.9385   24.9431 C   0  0  0  0  0  0  0  0  0  0  0  0
    8.4726  -17.4481   23.7191 C   0  0  0  0  0  0  0  0  0  0  0  0
    9.3728  -17.7159   24.5500 O   0  0  0  0  0  0  0  0  0  0  0  0
    8.9006  -17.1100   22.3898 N   0  0  0  0  0  0  0  0  0  0  0  0
   10.2882  -17.2339   21.9957 C   0  0  1  0  0  0  0  0  0  0  0  0
   10.5684  -16.9964   20.5635 C   0  0  0  0  0  0  0  0  0  0  0  0
   11.9303  -17.1835   20.0939 C   0  0  0  0  0  0  0  0  0  0  0  0
   12.9470  -16.2985   19.9250 C   0  0  0  0  0  0  0  0  0  0  0  0
   14.0448  -16.9803   19.4836 N   0  0  0  0  0  0  0  0  0  0  0  0
   13.6937  -18.2679   19.3873 C   0  0  0  0  0  0  0  0  0  0  0  0
   12.4162  -18.4201   19.7516 N   0  0  0  0  0  0  0  0  0  0  0  0
   11.1540  -16.3923   22.8964 C   0  0  0  0  0  0  0  0  0  0  0  0
   11.0816  -15.1447   22.8348 O   0  0  0  0  0  0  0  0  0  0  0  0
   10.0312  -16.9968   30.3241 O   0  0  0  0  0  0  0  0  0  0  0  0
   10.5492  -16.5465   29.0995 C   0  0  0  0  0  0  0  0  0  0  0  0
   10.3198  -15.2611   28.6572 C   0  0  0  0  0  0  0  0  0  0  0  0
   10.8318  -14.8152   27.4460 C   0  0  0  0  0  0  0  0  0  0  0  0
   11.5897  -15.6404   26.6383 C   0  0  0  0  0  0  0  0  0  0  0  0
   12.1397  -15.1861   25.3502 C   0  0  0  0  0  0  0  0  0  0  0  0
   12.9741  -16.2065   24.6365 C   0  0  2  0  0  0  0  0  0  0  0  0
   12.0447  -16.9871   23.8088 N   0  0  0  0  0  0  0  0  0  0  0  0
   13.7717  -17.0686   25.5127 C   0  0  0  0  0  0  0  0  0  0  0  0
   14.6643  -16.5965   26.2413 O   0  0  0  0  0  0  0  0  0  0  0  0
   11.8156  -16.9262   27.0871 C   0  0  0  0  0  0  0  0  0  0  0  0
   11.3050  -17.3763   28.2985 C   0  0  0  0  0  0  0  0  0  0  0  0
   13.5513  -18.4377   25.5527 O   0  0  0  0  0  0  0  0  0  0  0  0
  2  1  1  1
  2 13  1  0
  2  3  1  0
  3  4  1  0
  4  5  2  0
  6  5  1  0
  7  6  1  0
  8  7  2  0
  9  8  1  0
 10 11  1  0
 10  9  2  0
 11 12  2  0
 12  7  1  0
 12  4  1  0
 13 14  2  0
 15 16  1  0
 15 13  1  0
 16 17  1  6
 18 17  1  0
 19 18  2  0
 20 21  1  0
 20 19  1  0
 21 22  2  0
 22 18  1  0
 23 32  1  0
 23 16  1  0
 24 23  2  0
 25 26  1  0
 26 36  2  0
 26 27  1  0
 27 28  2  0
 28 29  1  0
 29 30  1  0
 31 30  1  1
 31 32  1  0
 33 31  1  0
 33 37  1  0
 34 33  2  0
 35 29  2  0
 36 35  1  0
M  END
$$$$
