TLV.pdb
     RDKit          3D

 23 22  0  0  1  0  0  0  0  0999 V2000
    6.7161  -16.8452   19.1570 C   0  0  0  0  0  0  0  0  0  0  0  0
    7.2807  -16.6685   20.5298 C   0  0  1  0  0  0  0  0  0  0  0  0
    8.0358  -17.7596   20.9370 O   0  0  0  0  0  0  0  0  0  0  0  0
    8.0755  -15.3803   20.5639 C   0  0  2  0  0  0  0  0  0  0  0  0
    9.2237  -15.4194   19.7083 N   0  0  0  0  0  0  0  0  0  0  0  0
    8.4889  -15.0329   21.9407 C   0  0  0  0  0  0  0  0  0  0  0  0
    9.6818  -15.1849   22.2928 O   0  0  0  0  0  0  0  0  0  0  0  0
    8.3766  -12.1297   26.3578 C   0  0  0  0  0  0  0  0  0  0  0  0
    7.1673  -13.0572   26.2918 C   0  0  1  0  0  0  0  0  0  0  0  0
    6.0479  -12.3720   27.0306 C   0  0  0  0  0  0  0  0  0  0  0  0
    6.8626  -13.2894   24.8451 C   0  0  0  0  0  0  0  0  0  0  0  0
    7.9088  -14.1496   24.1859 C   0  0  2  0  0  0  0  0  0  0  0  0
    7.5383  -14.5331   22.8479 N   0  0  0  0  0  0  0  0  0  0  0  0
    8.2453  -15.3495   24.9540 C   0  0  0  0  0  0  0  0  0  0  0  0
    7.3527  -16.2165   25.1284 O   0  0  0  0  0  0  0  0  0  0  0  0
   11.5378  -18.7352   26.0480 C   0  0  0  0  0  0  0  0  0  0  0  0
   11.1341  -17.4466   25.4047 C   0  0  1  0  0  0  0  0  0  0  0  0
   11.0991  -17.6064   23.9185 C   0  0  0  0  0  0  0  0  0  0  0  0
    9.8641  -16.8758   25.9801 C   0  0  2  0  0  0  0  0  0  0  0  0
    9.5586  -15.5669   25.5127 N   0  0  0  0  0  0  0  0  0  0  0  0
    9.9435  -16.8638   27.4651 C   0  0  0  0  0  0  0  0  0  0  0  0
    9.7963  -18.0402   28.1744 O   0  0  0  0  0  0  0  0  0  0  0  0
   10.1444  -15.7706   28.0322 O   0  0  0  0  0  0  0  0  0  0  0  0
  2  1  1  6
  2  3  1  0
  4  6  1  0
  4  2  1  0
  4  5  1  6
  6  7  2  0
  9  8  1  6
  9 10  1  0
 11  9  1  0
 12 11  1  1
 13 12  1  0
 13  6  1  0
 14 20  1  0
 14 12  1  0
 15 14  2  0
 17 16  1  1
 18 17  1  0
 19 17  1  0
 19 20  1  6
 21 19  1  0
 21 22  1  0
 23 21  2  0
M  END
$$$$
