TLV.pdb
     RDKit          3D

 23 22  0  0  1  0  0  0  0  0999 V2000
    6.8290  -17.3363   21.7302 C   0  0  0  0  0  0  0  0  0  0  0  0
    7.8070  -16.6055   20.8676 C   0  0  1  0  0  0  0  0  0  0  0  0
    7.5111  -16.7202   19.5163 O   0  0  0  0  0  0  0  0  0  0  0  0
    7.8647  -15.1612   21.3182 C   0  0  2  0  0  0  0  0  0  0  0  0
    8.5763  -14.3256   20.3976 N   0  0  0  0  0  0  0  0  0  0  0  0
    8.4563  -15.0362   22.6679 C   0  0  0  0  0  0  0  0  0  0  0  0
    9.6998  -15.0871   22.8130 O   0  0  0  0  0  0  0  0  0  0  0  0
    6.0255  -12.1049   26.7448 C   0  0  0  0  0  0  0  0  0  0  0  0
    7.0957  -12.6591   25.8097 C   0  0  1  0  0  0  0  0  0  0  0  0
    8.3660  -11.9039   26.0999 C   0  0  0  0  0  0  0  0  0  0  0  0
    7.2079  -14.1265   26.0812 C   0  0  0  0  0  0  0  0  0  0  0  0
    8.1500  -14.8014   25.1191 C   0  0  2  0  0  0  0  0  0  0  0  0
    7.6174  -14.8605   23.7822 N   0  0  0  0  0  0  0  0  0  0  0  0
    8.5463  -16.1468   25.5385 C   0  0  0  0  0  0  0  0  0  0  0  0
    7.6839  -17.0601   25.5073 O   0  0  0  0  0  0  0  0  0  0  0  0
   11.0220  -18.5110   24.1089 C   0  0  0  0  0  0  0  0  0  0  0  0
   11.2949  -18.4236   25.5769 C   0  0  1  0  0  0  0  0  0  0  0  0
   12.6134  -17.7592   25.8129 C   0  0  0  0  0  0  0  0  0  0  0  0
   10.1600  -17.8027   26.3491 C   0  0  2  0  0  0  0  0  0  0  0  0
    9.8848  -16.4554   25.9829 N   0  0  0  0  0  0  0  0  0  0  0  0
   10.4454  -17.8696   27.8071 C   0  0  0  0  0  0  0  0  0  0  0  0
   10.5724  -16.7058   28.5405 O   0  0  0  0  0  0  0  0  0  0  0  0
   10.5629  -18.9966   28.3299 O   0  0  0  0  0  0  0  0  0  0  0  0
  2  1  1  1
  2  3  1  0
  4  6  1  0
  4  2  1  0
  4  5  1  6
  6  7  2  0
  9  8  1  1
  9 10  1  0
 11  9  1  0
 12 11  1  1
 13 12  1  0
 13  6  1  0
 14 20  1  0
 14 12  1  0
 15 14  2  0
 17 16  1  6
 18 17  1  0
 19 17  1  0
 19 20  1  6
 21 19  1  0
 21 22  1  0
 23 21  2  0
M  END
$$$$
