TLV.pdb
     RDKit          3D

 23 22  0  0  1  0  0  0  0  0999 V2000
    6.7452  -17.4960   21.5284 C   0  0  0  0  0  0  0  0  0  0  0  0
    7.8563  -17.1948   20.5747 C   0  0  1  0  0  0  0  0  0  0  0  0
    7.5991  -17.6669   19.2950 O   0  0  0  0  0  0  0  0  0  0  0  0
    8.1165  -15.7033   20.5907 C   0  0  2  0  0  0  0  0  0  0  0  0
    9.0751  -15.3014   19.6051 N   0  0  0  0  0  0  0  0  0  0  0  0
    8.5493  -15.2414   21.9274 C   0  0  0  0  0  0  0  0  0  0  0  0
    9.7619  -15.2806   22.2404 O   0  0  0  0  0  0  0  0  0  0  0  0
    6.3526  -11.7645   26.4891 C   0  0  0  0  0  0  0  0  0  0  0  0
    7.4567  -12.6885   25.9849 C   0  0  1  0  0  0  0  0  0  0  0  0
    7.6905  -13.7192   27.0579 C   0  0  0  0  0  0  0  0  0  0  0  0
    6.9872  -13.2797   24.6928 C   0  0  0  0  0  0  0  0  0  0  0  0
    7.9808  -14.2660   24.1371 C   0  0  2  0  0  0  0  0  0  0  0  0
    7.5948  -14.7601   22.8405 N   0  0  0  0  0  0  0  0  0  0  0  0
    8.2361  -15.4001   25.0270 C   0  0  0  0  0  0  0  0  0  0  0  0
    7.2674  -16.1278   25.3598 O   0  0  0  0  0  0  0  0  0  0  0  0
   10.5242  -18.1672   24.0773 C   0  0  0  0  0  0  0  0  0  0  0  0
   10.8301  -17.8038   25.4956 C   0  0  1  0  0  0  0  0  0  0  0  0
   12.1861  -17.1798   25.5822 C   0  0  0  0  0  0  0  0  0  0  0  0
    9.7447  -16.9793   26.1375 C   0  0  2  0  0  0  0  0  0  0  0  0
    9.5542  -15.7066   25.5301 N   0  0  0  0  0  0  0  0  0  0  0  0
   10.0381  -16.7971   27.5840 C   0  0  0  0  0  0  0  0  0  0  0  0
    9.9989  -17.8816   28.4390 O   0  0  0  0  0  0  0  0  0  0  0  0
   10.3152  -15.6485   27.9855 O   0  0  0  0  0  0  0  0  0  0  0  0
  2  1  1  1
  2  3  1  0
  4  6  1  0
  4  2  1  0
  4  5  1  6
  6  7  2  0
  9  8  1  1
  9 10  1  0
 11  9  1  0
 12 11  1  1
 13 12  1  0
 13  6  1  0
 14 20  1  0
 14 12  1  0
 15 14  2  0
 17 16  1  6
 18 17  1  0
 19 17  1  0
 19 20  1  6
 21 19  1  0
 21 22  1  0
 23 21  2  0
M  END
$$$$
