TLV.pdb
     RDKit          3D

 23 22  0  0  1  0  0  0  0  0999 V2000
    6.6774  -17.3654   21.5188 C   0  0  0  0  0  0  0  0  0  0  0  0
    7.7953  -16.8336   20.6808 C   0  0  1  0  0  0  0  0  0  0  0  0
    7.5710  -17.0120   19.3227 O   0  0  0  0  0  0  0  0  0  0  0  0
    8.0163  -15.3785   21.0360 C   0  0  2  0  0  0  0  0  0  0  0  0
    8.8682  -14.7069   20.1004 N   0  0  0  0  0  0  0  0  0  0  0  0
    8.5591  -15.2292   22.4036 C   0  0  0  0  0  0  0  0  0  0  0  0
    9.7956  -15.2920   22.5962 O   0  0  0  0  0  0  0  0  0  0  0  0
    5.8567  -12.2430   26.2784 C   0  0  0  0  0  0  0  0  0  0  0  0
    7.0154  -12.7652   25.4348 C   0  0  1  0  0  0  0  0  0  0  0  0
    8.2289  -11.9540   25.8058 C   0  0  0  0  0  0  0  0  0  0  0  0
    7.1660  -14.2228   25.7387 C   0  0  0  0  0  0  0  0  0  0  0  0
    8.1704  -14.8812   24.8296 C   0  0  2  0  0  0  0  0  0  0  0  0
    7.6819  -15.0173   23.4816 N   0  0  0  0  0  0  0  0  0  0  0  0
    8.6236  -16.1875   25.3107 C   0  0  0  0  0  0  0  0  0  0  0  0
    7.8393  -17.1644   25.2136 O   0  0  0  0  0  0  0  0  0  0  0  0
   12.1642  -19.4331   25.9841 C   0  0  0  0  0  0  0  0  0  0  0  0
   11.7199  -18.0495   25.6297 C   0  0  1  0  0  0  0  0  0  0  0  0
   11.8840  -17.8205   24.1613 C   0  0  0  0  0  0  0  0  0  0  0  0
   10.3393  -17.7275   26.1397 C   0  0  2  0  0  0  0  0  0  0  0  0
    9.9316  -16.3876   25.8882 N   0  0  0  0  0  0  0  0  0  0  0  0
   10.2643  -18.0007   27.5996 C   0  0  0  0  0  0  0  0  0  0  0  0
   10.2481  -16.9520   28.4989 O   0  0  0  0  0  0  0  0  0  0  0  0
   10.2177  -19.1910   27.9713 O   0  0  0  0  0  0  0  0  0  0  0  0
  2  1  1  1
  2  3  1  0
  4  6  1  0
  4  2  1  0
  4  5  1  6
  6  7  2  0
  9  8  1  1
  9 10  1  0
 11  9  1  0
 12 11  1  1
 13 12  1  0
 13  6  1  0
 14 20  1  0
 14 12  1  0
 15 14  2  0
 17 16  1  6
 18 17  1  0
 19 17  1  0
 19 20  1  1
 21 19  1  0
 21 22  1  0
 23 21  2  0
M  END
$$$$
