TLV.pdb
     RDKit          3D

 23 22  0  0  1  0  0  0  0  0999 V2000
    5.9740  -15.7729   19.5063 C   0  0  0  0  0  0  0  0  0  0  0  0
    6.7615  -15.8359   20.7754 C   0  0  1  0  0  0  0  0  0  0  0  0
    7.7217  -16.8380   20.7543 O   0  0  0  0  0  0  0  0  0  0  0  0
    7.3657  -14.4726   21.0380 C   0  0  2  0  0  0  0  0  0  0  0  0
    8.2755  -14.0665   20.0089 N   0  0  0  0  0  0  0  0  0  0  0  0
    8.0418  -14.4218   22.3524 C   0  0  0  0  0  0  0  0  0  0  0  0
    9.2927  -14.3816   22.4113 O   0  0  0  0  0  0  0  0  0  0  0  0
    5.7365  -12.0830   26.8745 C   0  0  0  0  0  0  0  0  0  0  0  0
    6.8233  -12.4566   25.8714 C   0  0  1  0  0  0  0  0  0  0  0  0
    8.0718  -11.7214   26.2828 C   0  0  0  0  0  0  0  0  0  0  0  0
    6.9755  -13.9447   25.9132 C   0  0  0  0  0  0  0  0  0  0  0  0
    7.8959  -14.4419   24.8295 C   0  0  2  0  0  0  0  0  0  0  0  0
    7.2744  -14.4189   23.5304 N   0  0  0  0  0  0  0  0  0  0  0  0
    8.4262  -15.7824   25.0848 C   0  0  0  0  0  0  0  0  0  0  0  0
    7.6463  -16.7623   24.9831 O   0  0  0  0  0  0  0  0  0  0  0  0
   11.9890  -19.0911   25.3357 C   0  0  0  0  0  0  0  0  0  0  0  0
   11.5161  -17.7138   24.9944 C   0  0  1  0  0  0  0  0  0  0  0  0
   11.5012  -17.5317   23.5104 C   0  0  0  0  0  0  0  0  0  0  0  0
   10.2109  -17.3598   25.6586 C   0  0  2  0  0  0  0  0  0  0  0  0
    9.8047  -16.0126   25.4466 N   0  0  0  0  0  0  0  0  0  0  0  0
   10.2999  -17.6246   27.1193 C   0  0  0  0  0  0  0  0  0  0  0  0
   10.2370  -16.5762   28.0167 O   0  0  0  0  0  0  0  0  0  0  0  0
   10.4310  -18.8079   27.4933 O   0  0  0  0  0  0  0  0  0  0  0  0
  2  1  1  6
  2  3  1  0
  4  6  1  0
  4  2  1  0
  4  5  1  6
  6  7  2  0
  9  8  1  1
  9 10  1  0
 11  9  1  0
 12 11  1  1
 13 12  1  0
 13  6  1  0
 14 20  1  0
 14 12  1  0
 15 14  2  0
 17 16  1  6
 18 17  1  0
 19 17  1  0
 19 20  1  1
 21 19  1  0
 21 22  1  0
 23 21  2  0
M  END
$$$$
