TLV.pdb
     RDKit          3D

 23 22  0  0  1  0  0  0  0  0999 V2000
    6.4010  -17.0980   19.1480 C   0  0  0  0  0  0  0  0  0  0  0  0
    7.0545  -16.8285   20.4653 C   0  0  1  0  0  0  0  0  0  0  0  0
    7.9091  -17.8514   20.8521 O   0  0  0  0  0  0  0  0  0  0  0  0
    7.7620  -15.4920   20.3899 C   0  0  2  0  0  0  0  0  0  0  0  0
    8.8147  -15.4808   19.4184 N   0  0  0  0  0  0  0  0  0  0  0  0
    8.2932  -15.0831   21.7082 C   0  0  0  0  0  0  0  0  0  0  0  0
    9.5277  -15.1101   21.9209 O   0  0  0  0  0  0  0  0  0  0  0  0
    6.3953  -11.6156   26.3894 C   0  0  0  0  0  0  0  0  0  0  0  0
    7.3779  -12.6854   25.9237 C   0  0  1  0  0  0  0  0  0  0  0  0
    7.4061  -13.7493   26.9895 C   0  0  0  0  0  0  0  0  0  0  0  0
    6.8930  -13.1899   24.6008 C   0  0  0  0  0  0  0  0  0  0  0  0
    7.8898  -14.1189   23.9587 C   0  0  2  0  0  0  0  0  0  0  0  0
    7.4072  -14.6657   22.7168 N   0  0  0  0  0  0  0  0  0  0  0  0
    8.3135  -15.2137   24.8334 C   0  0  0  0  0  0  0  0  0  0  0  0
    7.4452  -16.0300   25.2315 O   0  0  0  0  0  0  0  0  0  0  0  0
   11.9421  -18.3916   25.5933 C   0  0  0  0  0  0  0  0  0  0  0  0
   11.4602  -17.0718   25.0803 C   0  0  1  0  0  0  0  0  0  0  0  0
   11.5471  -17.0410   23.5880 C   0  0  0  0  0  0  0  0  0  0  0  0
   10.1023  -16.6952   25.6133 C   0  0  2  0  0  0  0  0  0  0  0  0
    9.6854  -15.3841   25.2497 N   0  0  0  0  0  0  0  0  0  0  0  0
   10.0879  -16.8249   27.0947 C   0  0  0  0  0  0  0  0  0  0  0  0
   10.5310  -15.7812   27.8840 O   0  0  0  0  0  0  0  0  0  0  0  0
    9.6680  -17.8927   27.5853 O   0  0  0  0  0  0  0  0  0  0  0  0
  2  1  1  6
  2  3  1  0
  4  6  1  0
  4  2  1  0
  4  5  1  6
  6  7  2  0
  9  8  1  1
  9 10  1  0
 11  9  1  0
 12 11  1  1
 13 12  1  0
 13  6  1  0
 14 20  1  0
 14 12  1  0
 15 14  2  0
 17 16  1  6
 18 17  1  0
 19 17  1  0
 19 20  1  1
 21 19  1  0
 21 22  1  0
 23 21  2  0
M  END
$$$$
