TLV.pdb
     RDKit          3D

 23 22  0  0  1  0  0  0  0  0999 V2000
    6.7071  -17.5482   19.7477 C   0  0  0  0  0  0  0  0  0  0  0  0
    7.3062  -17.0847   21.0365 C   0  0  1  0  0  0  0  0  0  0  0  0
    8.2957  -17.9410   21.4994 O   0  0  0  0  0  0  0  0  0  0  0  0
    7.8158  -15.6709   20.8523 C   0  0  2  0  0  0  0  0  0  0  0  0
    8.8316  -15.5789   19.8465 N   0  0  0  0  0  0  0  0  0  0  0  0
    8.3168  -15.1039   22.1230 C   0  0  0  0  0  0  0  0  0  0  0  0
    9.5492  -14.9690   22.3049 O   0  0  0  0  0  0  0  0  0  0  0  0
    8.2837  -11.9307   26.3766 C   0  0  0  0  0  0  0  0  0  0  0  0
    7.2132  -13.0132   26.4721 C   0  0  1  0  0  0  0  0  0  0  0  0
    6.0822  -12.4415   27.2860 C   0  0  0  0  0  0  0  0  0  0  0  0
    6.8124  -13.3677   25.0745 C   0  0  0  0  0  0  0  0  0  0  0  0
    7.8547  -14.2153   24.3933 C   0  0  2  0  0  0  0  0  0  0  0  0
    7.4048  -14.7188   23.1211 N   0  0  0  0  0  0  0  0  0  0  0  0
    8.3240  -15.3332   25.2138 C   0  0  0  0  0  0  0  0  0  0  0  0
    7.5274  -16.2757   25.4505 O   0  0  0  0  0  0  0  0  0  0  0  0
   12.0170  -18.3101   26.1548 C   0  0  0  0  0  0  0  0  0  0  0  0
   11.4529  -17.0551   25.5683 C   0  0  1  0  0  0  0  0  0  0  0  0
   11.3978  -17.1672   24.0783 C   0  0  0  0  0  0  0  0  0  0  0  0
   10.1415  -16.6535   26.1917 C   0  0  2  0  0  0  0  0  0  0  0  0
    9.6613  -15.3871   25.7551 N   0  0  0  0  0  0  0  0  0  0  0  0
   10.2674  -16.6497   27.6736 C   0  0  0  0  0  0  0  0  0  0  0  0
   10.3615  -17.8437   28.3621 O   0  0  0  0  0  0  0  0  0  0  0  0
   10.2842  -15.5469   28.2573 O   0  0  0  0  0  0  0  0  0  0  0  0
  2  1  1  6
  2  3  1  0
  4  6  1  0
  4  2  1  0
  4  5  1  6
  6  7  2  0
  9  8  1  6
  9 10  1  0
 11  9  1  0
 12 11  1  1
 13 12  1  0
 13  6  1  0
 14 20  1  0
 14 12  1  0
 15 14  2  0
 17 16  1  1
 18 17  1  0
 19 17  1  0
 19 20  1  6
 21 19  1  0
 21 22  1  0
 23 21  2  0
M  END
$$$$
