TLV.pdb
     RDKit          3D

 23 22  0  0  1  0  0  0  0  0999 V2000
    6.0939  -16.7791   21.6158 C   0  0  0  0  0  0  0  0  0  0  0  0
    7.1146  -16.1555   20.7192 C   0  0  1  0  0  0  0  0  0  0  0  0
    6.7651  -16.2402   19.3786 O   0  0  0  0  0  0  0  0  0  0  0  0
    7.3372  -14.7246   21.1612 C   0  0  2  0  0  0  0  0  0  0  0  0
    8.0473  -13.9517   20.1863 N   0  0  0  0  0  0  0  0  0  0  0  0
    8.0411  -14.6603   22.4603 C   0  0  0  0  0  0  0  0  0  0  0  0
    9.2901  -14.7520   22.5003 O   0  0  0  0  0  0  0  0  0  0  0  0
    5.7916  -11.9068   26.7701 C   0  0  0  0  0  0  0  0  0  0  0  0
    6.8808  -12.3581   25.8022 C   0  0  1  0  0  0  0  0  0  0  0  0
    8.1177  -11.5647   26.1326 C   0  0  0  0  0  0  0  0  0  0  0  0
    7.0595  -13.8321   25.9886 C   0  0  0  0  0  0  0  0  0  0  0  0
    7.9512  -14.4243   24.9289 C   0  0  2  0  0  0  0  0  0  0  0  0
    7.3023  -14.4962   23.6451 N   0  0  0  0  0  0  0  0  0  0  0  0
    8.4727  -15.7468   25.2784 C   0  0  0  0  0  0  0  0  0  0  0  0
    7.6931  -16.7305   25.2204 O   0  0  0  0  0  0  0  0  0  0  0  0
   12.0526  -19.0112   25.4688 C   0  0  0  0  0  0  0  0  0  0  0  0
   11.5723  -17.6238   25.1829 C   0  0  1  0  0  0  0  0  0  0  0  0
   11.5412  -17.3878   23.7068 C   0  0  0  0  0  0  0  0  0  0  0  0
   10.2733  -17.2984   25.8732 C   0  0  2  0  0  0  0  0  0  0  0  0
    9.8425  -15.9553   25.6842 N   0  0  0  0  0  0  0  0  0  0  0  0
   10.3913  -17.5788   27.3289 C   0  0  0  0  0  0  0  0  0  0  0  0
   10.1484  -18.8511   27.8094 O   0  0  0  0  0  0  0  0  0  0  0  0
   10.7120  -16.6375   28.0827 O   0  0  0  0  0  0  0  0  0  0  0  0
  2  1  1  1
  2  3  1  0
  4  6  1  0
  4  2  1  0
  4  5  1  6
  6  7  2  0
  9  8  1  1
  9 10  1  0
 11  9  1  0
 12 11  1  1
 13 12  1  0
 13  6  1  0
 14 20  1  0
 14 12  1  0
 15 14  2  0
 17 16  1  6
 18 17  1  0
 19 17  1  0
 19 20  1  1
 21 19  1  0
 21 22  1  0
 23 21  2  0
M  END
$$$$
