TLV.pdb
     RDKit          3D

 23 22  0  0  1  0  0  0  0  0999 V2000
    6.6556  -17.0406   21.5759 C   0  0  0  0  0  0  0  0  0  0  0  0
    7.5350  -16.2052   20.7021 C   0  0  1  0  0  0  0  0  0  0  0  0
    7.2000  -16.3087   19.3591 O   0  0  0  0  0  0  0  0  0  0  0  0
    7.4859  -14.7739   21.1934 C   0  0  2  0  0  0  0  0  0  0  0  0
    8.0811  -13.8544   20.2702 N   0  0  0  0  0  0  0  0  0  0  0  0
    8.1225  -14.6327   22.5209 C   0  0  0  0  0  0  0  0  0  0  0  0
    9.3712  -14.5900   22.6144 O   0  0  0  0  0  0  0  0  0  0  0  0
    5.6278  -12.0513   26.7303 C   0  0  0  0  0  0  0  0  0  0  0  0
    6.7043  -12.5030   25.7485 C   0  0  1  0  0  0  0  0  0  0  0  0
    7.9036  -11.6206   25.9756 C   0  0  0  0  0  0  0  0  0  0  0  0
    6.9772  -13.9490   26.0209 C   0  0  0  0  0  0  0  0  0  0  0  0
    7.8997  -14.5462   24.9908 C   0  0  2  0  0  0  0  0  0  0  0  0
    7.3202  -14.5472   23.6722 N   0  0  0  0  0  0  0  0  0  0  0  0
    8.3433  -15.9015   25.3217 C   0  0  0  0  0  0  0  0  0  0  0  0
    7.5209  -16.8442   25.2046 O   0  0  0  0  0  0  0  0  0  0  0  0
   11.0064  -17.8606   23.6244 C   0  0  0  0  0  0  0  0  0  0  0  0
   11.2506  -17.9521   25.0972 C   0  0  1  0  0  0  0  0  0  0  0  0
   12.4948  -17.2047   25.4563 C   0  0  0  0  0  0  0  0  0  0  0  0
   10.0506  -17.5549   25.9170 C   0  0  2  0  0  0  0  0  0  0  0  0
    9.6841  -16.1873   25.7744 N   0  0  0  0  0  0  0  0  0  0  0  0
   10.2995  -17.8522   27.3528 C   0  0  0  0  0  0  0  0  0  0  0  0
   10.3528  -16.8227   28.2725 O   0  0  0  0  0  0  0  0  0  0  0  0
   10.4549  -19.0448   27.6856 O   0  0  0  0  0  0  0  0  0  0  0  0
  2  1  1  1
  2  3  1  0
  4  6  1  0
  4  2  1  0
  4  5  1  6
  6  7  2  0
  9  8  1  1
  9 10  1  0
 11  9  1  0
 12 11  1  1
 13 12  1  0
 13  6  1  0
 14 20  1  0
 14 12  1  0
 15 14  2  0
 17 16  1  6
 18 17  1  0
 19 17  1  0
 19 20  1  1
 21 19  1  0
 21 22  1  0
 23 21  2  0
M  END
$$$$
