TLV.pdb
     RDKit          3D

 23 22  0  0  1  0  0  0  0  0999 V2000
    5.9196  -16.7146   21.1889 C   0  0  0  0  0  0  0  0  0  0  0  0
    7.0447  -16.4497   20.2408 C   0  0  1  0  0  0  0  0  0  0  0  0
    6.7270  -16.7895   18.9330 O   0  0  0  0  0  0  0  0  0  0  0  0
    7.4540  -14.9977   20.3694 C   0  0  2  0  0  0  0  0  0  0  0  0
    8.3792  -14.5947   19.3527 N   0  0  0  0  0  0  0  0  0  0  0  0
    8.0206  -14.7090   21.7046 C   0  0  0  0  0  0  0  0  0  0  0  0
    9.2573  -14.7877   21.8897 O   0  0  0  0  0  0  0  0  0  0  0  0
    8.2740  -11.8470   26.2153 C   0  0  0  0  0  0  0  0  0  0  0  0
    7.1902  -12.9200   26.2444 C   0  0  1  0  0  0  0  0  0  0  0  0
    6.1022  -12.4202   27.1580 C   0  0  0  0  0  0  0  0  0  0  0  0
    6.7284  -13.1248   24.8357 C   0  0  0  0  0  0  0  0  0  0  0  0
    7.6844  -13.9884   24.0552 C   0  0  2  0  0  0  0  0  0  0  0  0
    7.1657  -14.3470   22.7604 N   0  0  0  0  0  0  0  0  0  0  0  0
    8.0848  -15.2040   24.7660 C   0  0  0  0  0  0  0  0  0  0  0  0
    7.2353  -16.1186   24.9099 O   0  0  0  0  0  0  0  0  0  0  0  0
   11.5767  -18.4769   25.2438 C   0  0  0  0  0  0  0  0  0  0  0  0
   11.0548  -17.1428   24.8136 C   0  0  1  0  0  0  0  0  0  0  0  0
   10.8667  -17.1217   23.3304 C   0  0  0  0  0  0  0  0  0  0  0  0
    9.8321  -16.7148   25.5828 C   0  0  2  0  0  0  0  0  0  0  0  0
    9.4130  -15.3842   25.3023 N   0  0  0  0  0  0  0  0  0  0  0  0
   10.0786  -16.8576   27.0424 C   0  0  0  0  0  0  0  0  0  0  0  0
    9.7901  -18.0495   27.6786 O   0  0  0  0  0  0  0  0  0  0  0  0
   10.5469  -15.8771   27.6561 O   0  0  0  0  0  0  0  0  0  0  0  0
  2  1  1  1
  2  3  1  0
  4  6  1  0
  4  2  1  0
  4  5  1  6
  6  7  2  0
  9  8  1  6
  9 10  1  0
 11  9  1  0
 12 11  1  1
 13 12  1  0
 13  6  1  0
 14 20  1  0
 14 12  1  0
 15 14  2  0
 17 16  1  1
 18 17  1  0
 19 17  1  0
 19 20  1  1
 21 19  1  0
 21 22  1  0
 23 21  2  0
M  END
$$$$
