TLV.pdb
     RDKit          3D

 23 22  0  0  1  0  0  0  0  0999 V2000
    7.2761  -17.3991   19.3264 C   0  0  0  0  0  0  0  0  0  0  0  0
    7.7712  -17.1381   20.7126 C   0  0  1  0  0  0  0  0  0  0  0  0
    8.6021  -18.1481   21.1775 O   0  0  0  0  0  0  0  0  0  0  0  0
    8.4496  -15.7848   20.7372 C   0  0  2  0  0  0  0  0  0  0  0  0
    9.6095  -15.7354   19.8979 N   0  0  0  0  0  0  0  0  0  0  0  0
    8.8105  -15.3826   22.1139 C   0  0  0  0  0  0  0  0  0  0  0  0
    9.9992  -15.4711   22.5001 O   0  0  0  0  0  0  0  0  0  0  0  0
    8.3637  -12.1172   26.3208 C   0  0  0  0  0  0  0  0  0  0  0  0
    7.3110  -13.2212   26.3142 C   0  0  1  0  0  0  0  0  0  0  0  0
    6.1023  -12.6793   27.0310 C   0  0  0  0  0  0  0  0  0  0  0  0
    7.0403  -13.5700   24.8843 C   0  0  0  0  0  0  0  0  0  0  0  0
    8.1396  -14.4175   24.2992 C   0  0  2  0  0  0  0  0  0  0  0  0
    7.8149  -14.9024   22.9825 N   0  0  0  0  0  0  0  0  0  0  0  0
    8.5180  -15.5486   25.1481 C   0  0  0  0  0  0  0  0  0  0  0  0
    7.6989  -16.4913   25.2867 O   0  0  0  0  0  0  0  0  0  0  0  0
   12.0219  -18.5924   26.4690 C   0  0  0  0  0  0  0  0  0  0  0  0
   11.5419  -17.3361   25.8144 C   0  0  1  0  0  0  0  0  0  0  0  0
   11.5942  -17.4826   24.3273 C   0  0  0  0  0  0  0  0  0  0  0  0
   10.2008  -16.8815   26.3289 C   0  0  2  0  0  0  0  0  0  0  0  0
    9.7912  -15.6151   25.8255 N   0  0  0  0  0  0  0  0  0  0  0  0
   10.2183  -16.8398   27.8154 C   0  0  0  0  0  0  0  0  0  0  0  0
   10.1293  -18.0123   28.5406 O   0  0  0  0  0  0  0  0  0  0  0  0
   10.3147  -15.7257   28.3691 O   0  0  0  0  0  0  0  0  0  0  0  0
  2  1  1  6
  2  3  1  0
  4  6  1  0
  4  2  1  0
  4  5  1  6
  6  7  2  0
  9  8  1  6
  9 10  1  0
 11  9  1  0
 12 11  1  1
 13 12  1  0
 13  6  1  0
 14 20  1  0
 14 12  1  0
 15 14  2  0
 17 16  1  1
 18 17  1  0
 19 17  1  0
 19 20  1  6
 21 19  1  0
 21 22  1  0
 23 21  2  0
M  END
$$$$
