IGG.pdb
     RDKit          3D

 17 16  0  0  1  0  0  0  0  0999 V2000
   22.1403  -14.4571  -20.8589 C   0  0  0  0  0  0  0  0  0  0  0  0
   23.2192  -13.6780  -20.1531 C   0  0  0  0  0  0  0  0  0  0  0  0
   22.8782  -13.2076  -18.7924 C   0  0  2  0  0  0  0  0  0  0  0  0
   21.6524  -12.2762  -18.8246 C   0  0  0  0  0  0  0  0  0  0  0  0
   23.9282  -12.4743  -18.0383 C   0  0  2  0  0  0  0  0  0  0  0  0
   25.2254  -13.1600  -18.1115 N   0  0  0  0  0  0  0  0  0  0  0  0
   23.6051  -12.1240  -16.6446 C   0  0  0  0  0  0  0  0  0  0  0  0
   23.7134  -13.0014  -15.7564 O   0  0  0  0  0  0  0  0  0  0  0  0
   23.1752  -10.8347  -16.2515 N   0  0  0  0  0  0  0  0  0  0  0  0
   22.7360  -10.5364  -14.9030 C   0  0  0  0  0  0  0  0  0  0  0  0
   22.3631   -9.1196  -14.7720 C   0  0  0  0  0  0  0  0  0  0  0  0
   21.9233   -8.7103  -13.6717 O   0  0  0  0  0  0  0  0  0  0  0  0
   22.4838   -8.2034  -15.8448 N   0  0  0  0  0  0  0  0  0  0  0  0
   22.1992   -6.7878  -15.6706 C   0  0  0  0  0  0  0  0  0  0  0  0
   20.7834   -6.5773  -15.3736 C   0  0  0  0  0  0  0  0  0  0  0  0
   19.8381   -7.3307  -16.0536 O   0  0  0  0  0  0  0  0  0  0  0  0
   20.3617   -5.7469  -14.5308 O   0  0  0  0  0  0  0  0  0  0  0  0
  2  1  1  0
  3  4  1  6
  3  2  1  0
  5  3  1  0
  5  6  1  1
  7  8  2  0
  7  5  1  0
  9  7  1  0
 10  9  1  0
 10 11  1  0
 11 12  2  0
 13 11  1  0
 13 14  1  0
 14 15  1  0
 15 17  2  0
 15 16  1  0
M  END
$$$$
