IGG.pdb
     RDKit          3D

 17 16  0  0  1  0  0  0  0  0999 V2000
   19.7676  -15.2693  -18.5016 C   0  0  0  0  0  0  0  0  0  0  0  0
   20.1448  -13.8246  -18.7008 C   0  0  0  0  0  0  0  0  0  0  0  0
   19.4956  -12.8644  -17.7811 C   0  0  2  0  0  0  0  0  0  0  0  0
   17.9657  -12.8866  -17.9547 C   0  0  0  0  0  0  0  0  0  0  0  0
   19.8975  -11.4374  -17.8855 C   0  0  2  0  0  0  0  0  0  0  0  0
   21.3338  -11.2601  -17.6330 N   0  0  0  0  0  0  0  0  0  0  0  0
   19.1096  -10.4786  -17.0922 C   0  0  0  0  0  0  0  0  0  0  0  0
   17.8877  -10.3463  -17.3368 O   0  0  0  0  0  0  0  0  0  0  0  0
   19.6657   -9.6912  -16.0566 N   0  0  0  0  0  0  0  0  0  0  0  0
   18.8697   -8.7861  -15.2519 C   0  0  0  0  0  0  0  0  0  0  0  0
   19.7194   -8.0120  -14.3340 C   0  0  0  0  0  0  0  0  0  0  0  0
   19.1717   -7.2581  -13.4954 O   0  0  0  0  0  0  0  0  0  0  0  0
   21.1329   -8.0893  -14.3652 N   0  0  0  0  0  0  0  0  0  0  0  0
   21.9564   -7.3170  -13.4483 C   0  0  0  0  0  0  0  0  0  0  0  0
   21.9988   -5.9118  -13.8492 C   0  0  0  0  0  0  0  0  0  0  0  0
   22.7392   -5.0208  -13.0867 O   0  0  0  0  0  0  0  0  0  0  0  0
   21.3999   -5.4528  -14.8533 O   0  0  0  0  0  0  0  0  0  0  0  0
  2  1  1  0
  3  4  1  6
  3  2  1  0
  5  3  1  0
  5  6  1  1
  7  8  2  0
  7  5  1  0
  9  7  1  0
 10  9  1  0
 10 11  1  0
 11 12  2  0
 13 11  1  0
 13 14  1  0
 14 15  1  0
 15 17  2  0
 15 16  1  0
M  END
$$$$
