IGG.pdb
     RDKit          3D

 17 16  0  0  1  0  0  0  0  0999 V2000
   28.4663  -19.1246  -17.6069 C   0  0  0  0  0  0  0  0  0  0  0  0
   28.6396  -19.0934  -16.1109 C   0  0  0  0  0  0  0  0  0  0  0  0
   27.5457  -19.7121  -15.3302 C   0  0  2  0  0  0  0  0  0  0  0  0
   26.1981  -19.0352  -15.6417 C   0  0  0  0  0  0  0  0  0  0  0  0
   27.6727  -19.7059  -13.8494 C   0  0  2  0  0  0  0  0  0  0  0  0
   28.9462  -20.2942  -13.4133 N   0  0  0  0  0  0  0  0  0  0  0  0
   26.5484  -20.2874  -13.0963 C   0  0  0  0  0  0  0  0  0  0  0  0
   25.3829  -19.9040  -13.3512 O   0  0  0  0  0  0  0  0  0  0  0  0
   26.7169  -21.2672  -12.0898 N   0  0  0  0  0  0  0  0  0  0  0  0
   25.6038  -21.8155  -11.3409 C   0  0  0  0  0  0  0  0  0  0  0  0
   24.4251  -20.9404  -11.4333 C   0  0  0  0  0  0  0  0  0  0  0  0
   24.2173  -20.1090  -10.5184 O   0  0  0  0  0  0  0  0  0  0  0  0
   23.5184  -21.0050  -12.5190 N   0  0  0  0  0  0  0  0  0  0  0  0
   22.3633  -20.1246  -12.5975 C   0  0  0  0  0  0  0  0  0  0  0  0
   21.1221  -20.8968  -12.5817 C   0  0  0  0  0  0  0  0  0  0  0  0
   21.1960  -22.2817  -12.5743 O   0  0  0  0  0  0  0  0  0  0  0  0
   19.9773  -20.3800  -12.5742 O   0  0  0  0  0  0  0  0  0  0  0  0
  2  1  1  0
  3  4  1  1
  3  2  1  0
  5  3  1  0
  5  6  1  6
  7  8  2  0
  7  5  1  0
  9  7  1  0
 10  9  1  0
 10 11  1  0
 11 12  2  0
 13 11  1  0
 13 14  1  0
 14 15  1  0
 15 17  2  0
 15 16  1  0
M  END
$$$$
