IGG.pdb
     RDKit          3D

 17 16  0  0  1  0  0  0  0  0999 V2000
   19.7298  -14.4792  -19.7855 C   0  0  0  0  0  0  0  0  0  0  0  0
   20.3008  -13.9747  -18.4861 C   0  0  0  0  0  0  0  0  0  0  0  0
   19.6946  -12.7295  -17.9652 C   0  0  2  0  0  0  0  0  0  0  0  0
   19.9311  -11.5566  -18.9345 C   0  0  0  0  0  0  0  0  0  0  0  0
   20.1462  -12.2540  -16.6314 C   0  0  2  0  0  0  0  0  0  0  0  0
   20.1673  -13.3443  -15.6471 N   0  0  0  0  0  0  0  0  0  0  0  0
   19.4458  -11.0781  -16.0873 C   0  0  0  0  0  0  0  0  0  0  0  0
   18.2660  -11.2056  -15.6846 O   0  0  0  0  0  0  0  0  0  0  0  0
   20.0419   -9.7985  -15.9934 N   0  0  0  0  0  0  0  0  0  0  0  0
   19.3168   -8.6324  -15.5297 C   0  0  0  0  0  0  0  0  0  0  0  0
   20.2374   -7.5255  -15.2282 C   0  0  0  0  0  0  0  0  0  0  0  0
   19.7741   -6.3647  -15.1301 O   0  0  0  0  0  0  0  0  0  0  0  0
   21.6271   -7.7260  -15.0451 N   0  0  0  0  0  0  0  0  0  0  0  0
   22.5159   -6.6247  -14.7102 C   0  0  0  0  0  0  0  0  0  0  0  0
   22.1407   -6.0280  -13.4294 C   0  0  0  0  0  0  0  0  0  0  0  0
   21.1787   -6.6581  -12.6543 O   0  0  0  0  0  0  0  0  0  0  0  0
   22.6401   -4.9669  -12.9794 O   0  0  0  0  0  0  0  0  0  0  0  0
  2  1  1  0
  3  4  1  6
  3  2  1  0
  5  3  1  0
  5  6  1  1
  7  8  2  0
  7  5  1  0
  9  7  1  0
 10  9  1  0
 10 11  1  0
 11 12  2  0
 13 11  1  0
 13 14  1  0
 14 15  1  0
 15 17  2  0
 15 16  1  0
M  END
$$$$
