IGG.pdb
     RDKit          3D

 17 16  0  0  1  0  0  0  0  0999 V2000
   18.5315  -14.2494  -17.9061 C   0  0  0  0  0  0  0  0  0  0  0  0
   18.1903  -12.8013  -17.6700 C   0  0  0  0  0  0  0  0  0  0  0  0
   18.9380  -12.1409  -16.5773 C   0  0  2  0  0  0  0  0  0  0  0  0
   18.5860  -12.7666  -15.2150 C   0  0  0  0  0  0  0  0  0  0  0  0
   18.7570  -10.6751  -16.4121 C   0  0  2  0  0  0  0  0  0  0  0  0
   19.1056   -9.9453  -17.6385 N   0  0  0  0  0  0  0  0  0  0  0  0
   19.4120  -10.0652  -15.2423 C   0  0  0  0  0  0  0  0  0  0  0  0
   19.0621  -10.4241  -14.0937 O   0  0  0  0  0  0  0  0  0  0  0  0
   20.4271   -9.0855  -15.3484 N   0  0  0  0  0  0  0  0  0  0  0  0
   21.1314   -8.5639  -14.1941 C   0  0  0  0  0  0  0  0  0  0  0  0
   21.5170   -7.1598  -14.4027 C   0  0  0  0  0  0  0  0  0  0  0  0
   21.2781   -6.6266  -15.5119 O   0  0  0  0  0  0  0  0  0  0  0  0
   22.1480   -6.3910  -13.3949 N   0  0  0  0  0  0  0  0  0  0  0  0
   22.6248   -5.0419  -13.6553 C   0  0  0  0  0  0  0  0  0  0  0  0
   21.5446   -4.0706  -13.4914 C   0  0  0  0  0  0  0  0  0  0  0  0
   21.8120   -2.7285  -13.7166 O   0  0  0  0  0  0  0  0  0  0  0  0
   20.3738   -4.3771  -13.1550 O   0  0  0  0  0  0  0  0  0  0  0  0
  2  1  1  0
  3  4  1  1
  3  2  1  0
  5  3  1  0
  5  6  1  6
  7  8  2  0
  7  5  1  0
  9  7  1  0
 10  9  1  0
 10 11  1  0
 11 12  2  0
 13 11  1  0
 13 14  1  0
 14 15  1  0
 15 17  2  0
 15 16  1  0
M  END
$$$$
