IGG.pdb
     RDKit          3D

 17 16  0  0  1  0  0  0  0  0999 V2000
   28.4849  -19.8493   -4.2521 C   0  0  0  0  0  0  0  0  0  0  0  0
   27.2388  -19.7407   -5.0915 C   0  0  0  0  0  0  0  0  0  0  0  0
   27.3688  -20.2116   -6.4881 C   0  0  2  0  0  0  0  0  0  0  0  0
   28.4307  -19.3939   -7.2465 C   0  0  0  0  0  0  0  0  0  0  0  0
   26.1491  -20.1830   -7.3368 C   0  0  2  0  0  0  0  0  0  0  0  0
   25.0054  -20.8108   -6.6614 N   0  0  0  0  0  0  0  0  0  0  0  0
   26.2947  -20.7078   -8.7053 C   0  0  0  0  0  0  0  0  0  0  0  0
   26.3769  -21.9466   -8.8758 O   0  0  0  0  0  0  0  0  0  0  0  0
   26.3464  -19.8780   -9.8499 N   0  0  0  0  0  0  0  0  0  0  0  0
   26.5678  -20.4011  -11.1832 C   0  0  0  0  0  0  0  0  0  0  0  0
   25.3350  -20.9892  -11.7294 C   0  0  0  0  0  0  0  0  0  0  0  0
   25.4279  -21.8691  -12.6175 O   0  0  0  0  0  0  0  0  0  0  0  0
   24.0488  -20.5958  -11.2869 N   0  0  0  0  0  0  0  0  0  0  0  0
   22.8403  -21.1596  -11.8674 C   0  0  0  0  0  0  0  0  0  0  0  0
   22.4255  -20.3956  -13.0427 C   0  0  0  0  0  0  0  0  0  0  0  0
   22.2327  -19.0279  -12.9174 O   0  0  0  0  0  0  0  0  0  0  0  0
   22.2298  -20.9046  -14.1742 O   0  0  0  0  0  0  0  0  0  0  0  0
  2  1  1  0
  3  4  1  6
  3  2  1  0
  5  3  1  0
  5  6  1  1
  7  8  2  0
  7  5  1  0
  9  7  1  0
 10  9  1  0
 10 11  1  0
 11 12  2  0
 13 11  1  0
 13 14  1  0
 14 15  1  0
 15 17  2  0
 15 16  1  0
M  END
$$$$
