IGG.pdb
     RDKit          3D

 17 16  0  0  1  0  0  0  0  0999 V2000
   20.2741  -29.2584    5.7635 C   0  0  0  0  0  0  0  0  0  0  0  0
   21.3571  -29.5103    4.7472 C   0  0  0  0  0  0  0  0  0  0  0  0
   22.5569  -30.2110    5.2557 C   0  0  2  0  0  0  0  0  0  0  0  0
   23.2317  -29.4004    6.3777 C   0  0  0  0  0  0  0  0  0  0  0  0
   23.6310  -30.5272    4.2783 C   0  0  2  0  0  0  0  0  0  0  0  0
   23.1565  -31.4406    3.2301 N   0  0  0  0  0  0  0  0  0  0  0  0
   24.9059  -31.0029    4.8421 C   0  0  0  0  0  0  0  0  0  0  0  0
   25.5973  -30.2166    5.5305 O   0  0  0  0  0  0  0  0  0  0  0  0
   25.3958  -32.3155    4.6457 N   0  0  0  0  0  0  0  0  0  0  0  0
   26.6456  -32.7753    5.2177 C   0  0  0  0  0  0  0  0  0  0  0  0
   27.6298  -33.0696    4.1648 C   0  0  0  0  0  0  0  0  0  0  0  0
   28.6300  -33.7687    4.4518 O   0  0  0  0  0  0  0  0  0  0  0  0
   27.4861  -32.5908    2.8400 N   0  0  0  0  0  0  0  0  0  0  0  0
   28.5007  -32.8396    1.8281 C   0  0  0  0  0  0  0  0  0  0  0  0
   28.1533  -34.0098    1.0237 C   0  0  0  0  0  0  0  0  0  0  0  0
   28.8705  -34.2607   -0.1365 O   0  0  0  0  0  0  0  0  0  0  0  0
   27.2347  -34.8138    1.3194 O   0  0  0  0  0  0  0  0  0  0  0  0
  2  1  1  0
  3  4  1  1
  3  2  1  0
  5  3  1  0
  5  6  1  6
  7  8  2  0
  7  5  1  0
  9  7  1  0
 10  9  1  0
 10 11  1  0
 11 12  2  0
 13 11  1  0
 13 14  1  0
 14 15  1  0
 15 17  2  0
 15 16  1  0
M  END
$$$$
