IGG.pdb
     RDKit          3D

 17 16  0  0  1  0  0  0  0  0999 V2000
   24.7976  -14.4154  -18.6731 C   0  0  0  0  0  0  0  0  0  0  0  0
   25.0080  -13.3749  -17.6044 C   0  0  0  0  0  0  0  0  0  0  0  0
   24.0520  -12.2457  -17.6182 C   0  0  2  0  0  0  0  0  0  0  0  0
   24.0560  -11.5397  -18.9868 C   0  0  0  0  0  0  0  0  0  0  0  0
   24.2430  -11.1744  -16.6060 C   0  0  2  0  0  0  0  0  0  0  0  0
   24.2215  -11.7119  -15.2389 N   0  0  0  0  0  0  0  0  0  0  0  0
   23.3529  -10.0061  -16.7175 C   0  0  0  0  0  0  0  0  0  0  0  0
   23.6597   -9.0810  -17.5052 O   0  0  0  0  0  0  0  0  0  0  0  0
   22.1564   -9.8724  -15.9746 N   0  0  0  0  0  0  0  0  0  0  0  0
   21.2589   -8.7462  -16.1376 C   0  0  0  0  0  0  0  0  0  0  0  0
   21.4013   -7.7942  -15.0253 C   0  0  0  0  0  0  0  0  0  0  0  0
   20.4622   -7.6824  -14.2024 O   0  0  0  0  0  0  0  0  0  0  0  0
   22.5614   -7.0009  -14.8525 N   0  0  0  0  0  0  0  0  0  0  0  0
   22.7693   -6.2109  -13.6492 C   0  0  0  0  0  0  0  0  0  0  0  0
   22.1090   -4.9116  -13.7626 C   0  0  0  0  0  0  0  0  0  0  0  0
   22.2986   -3.9750  -12.7576 O   0  0  0  0  0  0  0  0  0  0  0  0
   21.3709   -4.5841  -14.7248 O   0  0  0  0  0  0  0  0  0  0  0  0
  2  1  1  0
  3  4  1  6
  3  2  1  0
  5  3  1  0
  5  6  1  1
  7  8  2  0
  7  5  1  0
  9  7  1  0
 10  9  1  0
 10 11  1  0
 11 12  2  0
 13 11  1  0
 13 14  1  0
 14 15  1  0
 15 17  2  0
 15 16  1  0
M  END
$$$$
