IGG.pdb
     RDKit          3D

 17 16  0  0  1  0  0  0  0  0999 V2000
   29.0215  -13.0957  -15.7083 C   0  0  0  0  0  0  0  0  0  0  0  0
   27.5681  -13.0943  -16.1040 C   0  0  0  0  0  0  0  0  0  0  0  0
   27.0133  -11.7767  -16.4852 C   0  0  2  0  0  0  0  0  0  0  0  0
   26.8088  -10.8875  -15.2448 C   0  0  0  0  0  0  0  0  0  0  0  0
   25.7182  -11.7640  -17.2143 C   0  0  2  0  0  0  0  0  0  0  0  0
   25.7346  -12.6809  -18.3620 N   0  0  0  0  0  0  0  0  0  0  0  0
   25.2087  -10.4414  -17.6149 C   0  0  0  0  0  0  0  0  0  0  0  0
   25.7161   -9.8697  -18.6079 O   0  0  0  0  0  0  0  0  0  0  0  0
   24.1647   -9.7756  -16.9306 N   0  0  0  0  0  0  0  0  0  0  0  0
   23.7384   -8.4337  -17.2741 C   0  0  0  0  0  0  0  0  0  0  0  0
   22.5804   -8.0256  -16.4640 C   0  0  0  0  0  0  0  0  0  0  0  0
   22.0275   -8.8775  -15.7290 O   0  0  0  0  0  0  0  0  0  0  0  0
   22.0696   -6.7052  -16.4860 N   0  0  0  0  0  0  0  0  0  0  0  0
   20.8469   -6.3518  -15.7821 C   0  0  0  0  0  0  0  0  0  0  0  0
   21.1023   -6.1865  -14.3522 C   0  0  0  0  0  0  0  0  0  0  0  0
   20.0234   -6.0491  -13.4916 O   0  0  0  0  0  0  0  0  0  0  0  0
   22.2514   -6.1604  -13.8456 O   0  0  0  0  0  0  0  0  0  0  0  0
  2  1  1  0
  3  4  1  1
  3  2  1  0
  5  3  1  0
  5  6  1  6
  7  8  2  0
  7  5  1  0
  9  7  1  0
 10  9  1  0
 10 11  1  0
 11 12  2  0
 13 11  1  0
 13 14  1  0
 14 15  1  0
 15 17  2  0
 15 16  1  0
M  END
$$$$
