IGG.pdb
     RDKit          3D

 17 16  0  0  1  0  0  0  0  0999 V2000
   30.3990  -11.5824  -17.3794 C   0  0  0  0  0  0  0  0  0  0  0  0
   29.1307  -11.9907  -16.6768 C   0  0  0  0  0  0  0  0  0  0  0  0
   27.9174  -11.2377  -17.0644 C   0  0  2  0  0  0  0  0  0  0  0  0
   28.0434   -9.7540  -16.6719 C   0  0  0  0  0  0  0  0  0  0  0  0
   26.6187  -11.6981  -16.5076 C   0  0  2  0  0  0  0  0  0  0  0  0
   26.4737  -13.1566  -16.6081 N   0  0  0  0  0  0  0  0  0  0  0  0
   25.4141  -11.0213  -17.0178 C   0  0  0  0  0  0  0  0  0  0  0  0
   24.9945  -11.3084  -18.1632 O   0  0  0  0  0  0  0  0  0  0  0  0
   24.6976  -10.0542  -16.2744 N   0  0  0  0  0  0  0  0  0  0  0  0
   23.6187   -9.2732  -16.8459 C   0  0  0  0  0  0  0  0  0  0  0  0
   22.9906   -8.4183  -15.8269 C   0  0  0  0  0  0  0  0  0  0  0  0
   23.3055   -8.5813  -14.6245 O   0  0  0  0  0  0  0  0  0  0  0  0
   22.0436   -7.4188  -16.1574 N   0  0  0  0  0  0  0  0  0  0  0  0
   21.3828   -6.6290  -15.1304 C   0  0  0  0  0  0  0  0  0  0  0  0
   20.3348   -5.7936  -15.7142 C   0  0  0  0  0  0  0  0  0  0  0  0
   19.6163   -4.9451  -14.8852 O   0  0  0  0  0  0  0  0  0  0  0  0
   20.0389   -5.7945  -16.9350 O   0  0  0  0  0  0  0  0  0  0  0  0
  2  1  1  0
  3  4  1  1
  3  2  1  0
  5  3  1  0
  5  6  1  6
  7  8  2  0
  7  5  1  0
  9  7  1  0
 10  9  1  0
 10 11  1  0
 11 12  2  0
 13 11  1  0
 13 14  1  0
 14 15  1  0
 15 17  2  0
 15 16  1  0
M  END
$$$$
