IGG.pdb
     RDKit          3D

 17 16  0  0  1  0  0  0  0  0999 V2000
   23.7399  -15.0028  -18.7170 C   0  0  0  0  0  0  0  0  0  0  0  0
   22.8420  -13.8077  -18.5313 C   0  0  0  0  0  0  0  0  0  0  0  0
   23.3297  -12.7868  -17.5778 C   0  0  2  0  0  0  0  0  0  0  0  0
   23.2562  -13.3078  -16.1306 C   0  0  0  0  0  0  0  0  0  0  0  0
   22.6410  -11.4699  -17.5728 C   0  0  2  0  0  0  0  0  0  0  0  0
   22.5654  -10.8939  -18.9221 N   0  0  0  0  0  0  0  0  0  0  0  0
   23.1454  -10.4741  -16.6118 C   0  0  0  0  0  0  0  0  0  0  0  0
   24.2674   -9.9523  -16.8096 O   0  0  0  0  0  0  0  0  0  0  0  0
   22.4215  -10.0708  -15.4652 N   0  0  0  0  0  0  0  0  0  0  0  0
   22.9341   -9.0974  -14.5217 C   0  0  0  0  0  0  0  0  0  0  0  0
   22.6061   -7.7281  -14.9474 C   0  0  0  0  0  0  0  0  0  0  0  0
   21.8790   -7.5673  -15.9559 O   0  0  0  0  0  0  0  0  0  0  0  0
   23.0829   -6.5870  -14.2579 N   0  0  0  0  0  0  0  0  0  0  0  0
   22.6397   -5.2470  -14.6089 C   0  0  0  0  0  0  0  0  0  0  0  0
   21.3288   -4.9662  -14.0260 C   0  0  0  0  0  0  0  0  0  0  0  0
   21.2436   -4.0676  -12.9731 O   0  0  0  0  0  0  0  0  0  0  0  0
   20.2598   -5.4934  -14.4226 O   0  0  0  0  0  0  0  0  0  0  0  0
  2  1  1  0
  3  4  1  1
  3  2  1  0
  5  3  1  0
  5  6  1  6
  7  8  2  0
  7  5  1  0
  9  7  1  0
 10  9  1  0
 10 11  1  0
 11 12  2  0
 13 11  1  0
 13 14  1  0
 14 15  1  0
 15 17  2  0
 15 16  1  0
M  END
$$$$
