IGG.pdb
     RDKit          3D

 17 16  0  0  1  0  0  0  0  0999 V2000
   26.7080  -17.4153  -16.4768 C   0  0  0  0  0  0  0  0  0  0  0  0
   25.6113  -16.3850  -16.5461 C   0  0  0  0  0  0  0  0  0  0  0  0
   25.9702  -15.0387  -16.0482 C   0  0  2  0  0  0  0  0  0  0  0  0
   26.2720  -15.0742  -14.5386 C   0  0  0  0  0  0  0  0  0  0  0  0
   24.9765  -13.9503  -16.2401 C   0  0  2  0  0  0  0  0  0  0  0  0
   24.4931  -13.8974  -17.6264 N   0  0  0  0  0  0  0  0  0  0  0  0
   25.3805  -12.6104  -15.7808 C   0  0  0  0  0  0  0  0  0  0  0  0
   25.7024  -12.4507  -14.5803 O   0  0  0  0  0  0  0  0  0  0  0  0
   25.4257  -11.4822  -16.6332 N   0  0  0  0  0  0  0  0  0  0  0  0
   25.7271  -10.1500  -16.1485 C   0  0  0  0  0  0  0  0  0  0  0  0
   24.5299   -9.2959  -16.1773 C   0  0  0  0  0  0  0  0  0  0  0  0
   23.9283   -9.1361  -17.2655 O   0  0  0  0  0  0  0  0  0  0  0  0
   24.0344   -8.6488  -15.0194 N   0  0  0  0  0  0  0  0  0  0  0  0
   22.8111   -7.8630  -15.0530 C   0  0  0  0  0  0  0  0  0  0  0  0
   21.7034   -8.6039  -14.4520 C   0  0  0  0  0  0  0  0  0  0  0  0
   20.9636   -8.0012  -13.4455 O   0  0  0  0  0  0  0  0  0  0  0  0
   21.3738   -9.7671  -14.7927 O   0  0  0  0  0  0  0  0  0  0  0  0
  2  1  1  0
  3  4  1  1
  3  2  1  0
  5  3  1  0
  5  6  1  6
  7  8  2  0
  7  5  1  0
  9  7  1  0
 10  9  1  0
 10 11  1  0
 11 12  2  0
 13 11  1  0
 13 14  1  0
 14 15  1  0
 15 17  2  0
 15 16  1  0
M  END
$$$$
