IGG.pdb
     RDKit          3D

 17 16  0  0  1  0  0  0  0  0999 V2000
   36.5910  -11.6337  -10.1253 C   0  0  0  0  0  0  0  0  0  0  0  0
   37.3020  -10.5177   -9.4055 C   0  0  0  0  0  0  0  0  0  0  0  0
   38.5077  -10.9163   -8.6462 C   0  0  2  0  0  0  0  0  0  0  0  0
   38.1493  -11.9184   -7.5333 C   0  0  0  0  0  0  0  0  0  0  0  0
   39.2899   -9.8377   -7.9876 C   0  0  2  0  0  0  0  0  0  0  0  0
   39.3660   -8.6348   -8.8275 N   0  0  0  0  0  0  0  0  0  0  0  0
   40.6266  -10.2104   -7.4938 C   0  0  0  0  0  0  0  0  0  0  0  0
   41.5648  -10.3361   -8.3149 O   0  0  0  0  0  0  0  0  0  0  0  0
   40.9102  -10.4356   -6.1262 N   0  0  0  0  0  0  0  0  0  0  0  0
   42.1985  -10.9132   -5.6652 C   0  0  0  0  0  0  0  0  0  0  0  0
   43.1328   -9.7953   -5.4626 C   0  0  0  0  0  0  0  0  0  0  0  0
   42.7270   -8.6259   -5.6613 O   0  0  0  0  0  0  0  0  0  0  0  0
   44.4729   -9.9946   -5.0513 N   0  0  0  0  0  0  0  0  0  0  0  0
   45.3489   -8.8741   -4.7472 C   0  0  0  0  0  0  0  0  0  0  0  0
   46.6634   -9.3470   -4.3163 C   0  0  0  0  0  0  0  0  0  0  0  0
   47.6282   -8.4142   -3.9666 O   0  0  0  0  0  0  0  0  0  0  0  0
   46.9799  -10.5603   -4.2412 O   0  0  0  0  0  0  0  0  0  0  0  0
  2  1  1  0
  3  4  1  1
  3  2  1  0
  5  3  1  0
  5  6  1  6
  7  8  2  0
  7  5  1  0
  9  7  1  0
 10  9  1  0
 10 11  1  0
 11 12  2  0
 13 11  1  0
 13 14  1  0
 14 15  1  0
 15 17  2  0
 15 16  1  0
M  END
$$$$
