IGG.pdb
     RDKit          3D

 17 16  0  0  1  0  0  0  0  0999 V2000
   25.1317  -12.7387  -15.4962 C   0  0  0  0  0  0  0  0  0  0  0  0
   23.6293  -12.8473  -15.5030 C   0  0  0  0  0  0  0  0  0  0  0  0
   22.9040  -11.6198  -15.8983 C   0  0  2  0  0  0  0  0  0  0  0  0
   23.0569  -10.5232  -14.8280 C   0  0  0  0  0  0  0  0  0  0  0  0
   21.4450  -11.7390  -16.1547 C   0  0  2  0  0  0  0  0  0  0  0  0
   21.1392  -12.8899  -17.0150 N   0  0  0  0  0  0  0  0  0  0  0  0
   20.7691  -10.5277  -16.6501 C   0  0  0  0  0  0  0  0  0  0  0  0
   20.9016  -10.2070  -17.8542 O   0  0  0  0  0  0  0  0  0  0  0  0
   19.9688   -9.6988  -15.8292 N   0  0  0  0  0  0  0  0  0  0  0  0
   19.3599   -8.4760  -16.3134 C   0  0  0  0  0  0  0  0  0  0  0  0
   19.7026   -7.3380  -15.4466 C   0  0  0  0  0  0  0  0  0  0  0  0
   19.0601   -7.1747  -14.3826 O   0  0  0  0  0  0  0  0  0  0  0  0
   20.7320   -6.4221  -15.7725 N   0  0  0  0  0  0  0  0  0  0  0  0
   20.9849   -5.2428  -14.9598 C   0  0  0  0  0  0  0  0  0  0  0  0
   21.8721   -5.5643  -13.8432 C   0  0  0  0  0  0  0  0  0  0  0  0
   22.2207   -6.8889  -13.6260 O   0  0  0  0  0  0  0  0  0  0  0  0
   22.3455   -4.7067  -13.0570 O   0  0  0  0  0  0  0  0  0  0  0  0
  2  1  1  0
  3  4  1  1
  3  2  1  0
  5  3  1  0
  5  6  1  6
  7  8  2  0
  7  5  1  0
  9  7  1  0
 10  9  1  0
 10 11  1  0
 11 12  2  0
 13 11  1  0
 13 14  1  0
 14 15  1  0
 15 17  2  0
 15 16  1  0
M  END
$$$$
