IGG.pdb
     RDKit          3D

 17 16  0  0  1  0  0  0  0  0999 V2000
   18.6657  -15.9070  -16.9864 C   0  0  0  0  0  0  0  0  0  0  0  0
   19.2115  -14.8447  -17.9044 C   0  0  0  0  0  0  0  0  0  0  0  0
   20.3165  -14.0312  -17.3507 C   0  0  2  0  0  0  0  0  0  0  0  0
   19.8332  -13.1903  -16.1547 C   0  0  0  0  0  0  0  0  0  0  0  0
   20.9945  -13.0808  -18.2704 C   0  0  2  0  0  0  0  0  0  0  0  0
   21.3961  -13.7339  -19.5235 N   0  0  0  0  0  0  0  0  0  0  0  0
   22.1165  -12.3133  -17.7033 C   0  0  0  0  0  0  0  0  0  0  0  0
   23.2636  -12.8178  -17.7109 O   0  0  0  0  0  0  0  0  0  0  0  0
   21.9657  -11.0220  -17.1452 N   0  0  0  0  0  0  0  0  0  0  0  0
   23.0803  -10.2730  -16.6001 C   0  0  0  0  0  0  0  0  0  0  0  0
   22.6450   -8.9489  -16.1298 C   0  0  0  0  0  0  0  0  0  0  0  0
   23.4867   -8.1937  -15.5886 O   0  0  0  0  0  0  0  0  0  0  0  0
   21.3095   -8.4989  -16.2672 N   0  0  0  0  0  0  0  0  0  0  0  0
   20.9200   -7.1493  -15.8901 C   0  0  0  0  0  0  0  0  0  0  0  0
   20.5235   -7.0990  -14.4839 C   0  0  0  0  0  0  0  0  0  0  0  0
   19.9164   -5.9495  -14.0008 O   0  0  0  0  0  0  0  0  0  0  0  0
   20.6995   -8.0426  -13.6737 O   0  0  0  0  0  0  0  0  0  0  0  0
  2  1  1  0
  3  4  1  1
  3  2  1  0
  5  3  1  0
  5  6  1  6
  7  8  2  0
  7  5  1  0
  9  7  1  0
 10  9  1  0
 10 11  1  0
 11 12  2  0
 13 11  1  0
 13 14  1  0
 14 15  1  0
 15 17  2  0
 15 16  1  0
M  END
$$$$
