IGG.pdb
     RDKit          3D

 17 16  0  0  1  0  0  0  0  0999 V2000
   29.4859  -20.7990  -13.1877 C   0  0  0  0  0  0  0  0  0  0  0  0
   28.5753  -19.6480  -12.8483 C   0  0  0  0  0  0  0  0  0  0  0  0
   27.4148  -19.9846  -11.9945 C   0  0  2  0  0  0  0  0  0  0  0  0
   27.8434  -20.8698  -10.8097 C   0  0  0  0  0  0  0  0  0  0  0  0
   26.2731  -20.6869  -12.6365 C   0  0  2  0  0  0  0  0  0  0  0  0
   25.9233  -20.0818  -13.9287 N   0  0  0  0  0  0  0  0  0  0  0  0
   25.0698  -20.8687  -11.8068 C   0  0  0  0  0  0  0  0  0  0  0  0
   25.0489  -21.7925  -10.9603 O   0  0  0  0  0  0  0  0  0  0  0  0
   23.9242  -20.0458  -11.9159 N   0  0  0  0  0  0  0  0  0  0  0  0
   22.7402  -20.2455  -11.1043 C   0  0  0  0  0  0  0  0  0  0  0  0
   21.8206  -21.2009  -11.7409 C   0  0  0  0  0  0  0  0  0  0  0  0
   22.0714  -22.4264  -11.6589 O   0  0  0  0  0  0  0  0  0  0  0  0
   20.6633  -20.7840  -12.4423 N   0  0  0  0  0  0  0  0  0  0  0  0
   19.8627  -21.7225  -13.2128 C   0  0  0  0  0  0  0  0  0  0  0  0
   18.7316  -21.0430  -13.8420 C   0  0  0  0  0  0  0  0  0  0  0  0
   17.8935  -21.7698  -14.6743 O   0  0  0  0  0  0  0  0  0  0  0  0
   18.4660  -19.8266  -13.6753 O   0  0  0  0  0  0  0  0  0  0  0  0
  2  1  1  0
  3  4  1  1
  3  2  1  0
  5  3  1  0
  5  6  1  6
  7  8  2  0
  7  5  1  0
  9  7  1  0
 10  9  1  0
 10 11  1  0
 11 12  2  0
 13 11  1  0
 13 14  1  0
 14 15  1  0
 15 17  2  0
 15 16  1  0
M  END
$$$$
