HVW.pdb
     RDKit          3D

 32 34  0  0  1  0  0  0  0  0999 V2000
    9.2206  -18.7883   19.1562 N   0  0  0  0  0  0  0  0  0  0  0  0
   10.1120  -18.7026   20.2789 C   0  0  1  0  0  0  0  0  0  0  0  0
   11.4622  -19.2932   19.9231 C   0  0  0  0  0  0  0  0  0  0  0  0
   11.3589  -20.1107   18.6678 C   0  0  0  0  0  0  0  0  0  0  0  0
   10.2412  -20.7778   18.2196 C   0  0  0  0  0  0  0  0  0  0  0  0
   10.5541  -21.3925   17.0669 N   0  0  0  0  0  0  0  0  0  0  0  0
   11.8309  -21.1165   16.8033 C   0  0  0  0  0  0  0  0  0  0  0  0
   12.3285  -20.3370   17.7723 N   0  0  0  0  0  0  0  0  0  0  0  0
   10.3040  -17.2515   20.6892 C   0  0  0  0  0  0  0  0  0  0  0  0
   11.4534  -16.7908   20.8052 O   0  0  0  0  0  0  0  0  0  0  0  0
    7.7217  -13.1120   21.7951 C   0  0  0  0  0  0  0  0  0  0  0  0
    7.6801  -14.4745   21.1491 C   0  0  2  0  0  0  0  0  0  0  0  0
    6.5790  -15.2731   21.8146 C   0  0  0  0  0  0  0  0  0  0  0  0
    8.9923  -15.1725   21.4298 C   0  0  2  0  0  0  0  0  0  0  0  0
    9.1580  -16.4825   20.9228 N   0  0  0  0  0  0  0  0  0  0  0  0
    9.3650  -15.0238   22.8485 C   0  0  0  0  0  0  0  0  0  0  0  0
    9.6609  -13.9392   23.4116 O   0  0  0  0  0  0  0  0  0  0  0  0
    9.4159  -16.1681   23.7324 N   0  0  0  0  0  0  0  0  0  0  0  0
    9.8326  -16.0350   25.1291 C   0  0  1  0  0  0  0  0  0  0  0  0
    8.7222  -16.3804   26.0460 C   0  0  0  0  0  0  0  0  0  0  0  0
    7.5921  -15.4595   25.9935 C   0  0  0  0  0  0  0  0  0  0  0  0
    6.2744  -15.7778   25.6428 C   0  0  0  0  0  0  0  0  0  0  0  0
    5.5291  -14.6689   25.6732 N   0  0  0  0  0  0  0  0  0  0  0  0
    6.2737  -13.6089   26.0282 C   0  0  0  0  0  0  0  0  0  0  0  0
    5.9811  -12.2728   26.2197 C   0  0  0  0  0  0  0  0  0  0  0  0
    6.9528  -11.3872   26.6161 C   0  0  0  0  0  0  0  0  0  0  0  0
    8.2543  -11.8342   26.8300 C   0  0  0  0  0  0  0  0  0  0  0  0
    8.5096  -13.1676   26.6293 C   0  0  0  0  0  0  0  0  0  0  0  0
    7.5733  -14.1029   26.2308 C   0  0  0  0  0  0  0  0  0  0  0  0
   11.0375  -16.8197   25.3412 C   0  0  0  0  0  0  0  0  0  0  0  0
   11.6845  -17.6191   24.4095 O   0  0  0  0  0  0  0  0  0  0  0  0
   11.5794  -16.7962   26.5039 O   0  0  0  0  0  0  0  0  0  0  0  0
  2  1  1  6
  2  3  1  0
  3  4  1  0
  4  5  2  0
  6  5  1  0
  7  6  1  0
  8  7  2  0
  8  4  1  0
  9  2  1  0
 10  9  2  0
 12 14  1  0
 12 11  1  1
 13 12  1  0
 14 15  1  1
 15  9  1  0
 16 18  1  0
 16 14  1  0
 17 16  2  0
 19 30  1  0
 19 18  1  0
 19 20  1  1
 21 22  2  0
 21 20  1  0
 23 22  1  0
 24 29  2  0
 24 23  1  0
 25 24  1  0
 26 27  1  0
 26 25  2  0
 27 28  2  0
 28 29  1  0
 29 21  1  0
 30 31  1  0
 32 30  2  0
M  END
$$$$
