HVW.pdb
     RDKit          3D

 32 34  0  0  1  0  0  0  0  0999 V2000
   10.4304  -16.7369   16.6502 N   0  0  0  0  0  0  0  0  0  0  0  0
   10.8032  -17.2512   17.9382 C   0  0  1  0  0  0  0  0  0  0  0  0
   12.3129  -17.3116   18.0620 C   0  0  0  0  0  0  0  0  0  0  0  0
   12.8725  -18.3382   17.1199 C   0  0  0  0  0  0  0  0  0  0  0  0
   13.3912  -18.0978   15.8676 C   0  0  0  0  0  0  0  0  0  0  0  0
   13.7819  -19.2713   15.3434 N   0  0  0  0  0  0  0  0  0  0  0  0
   13.5146  -20.2171   16.2435 C   0  0  0  0  0  0  0  0  0  0  0  0
   12.9611  -19.6581   17.3275 N   0  0  0  0  0  0  0  0  0  0  0  0
   10.2558  -16.3585   19.0402 C   0  0  0  0  0  0  0  0  0  0  0  0
   10.5064  -15.1404   19.0281 O   0  0  0  0  0  0  0  0  0  0  0  0
    7.0165  -18.0964   21.2009 C   0  0  0  0  0  0  0  0  0  0  0  0
    7.2944  -16.6138   21.2126 C   0  0  2  0  0  0  0  0  0  0  0  0
    6.6924  -16.0162   19.9582 C   0  0  0  0  0  0  0  0  0  0  0  0
    8.7920  -16.4117   21.1487 C   0  0  2  0  0  0  0  0  0  0  0  0
    9.4790  -16.9570   20.0390 N   0  0  0  0  0  0  0  0  0  0  0  0
    9.4120  -16.7179   22.4509 C   0  0  0  0  0  0  0  0  0  0  0  0
   10.0990  -17.7397   22.7055 O   0  0  0  0  0  0  0  0  0  0  0  0
    9.2683  -15.8211   23.5771 N   0  0  0  0  0  0  0  0  0  0  0  0
    9.8882  -16.1151   24.8700 C   0  0  1  0  0  0  0  0  0  0  0  0
    9.7129  -14.9831   25.8085 C   0  0  0  0  0  0  0  0  0  0  0  0
    8.3224  -14.6184   26.0558 C   0  0  0  0  0  0  0  0  0  0  0  0
    7.2192  -15.4806   26.0355 C   0  0  0  0  0  0  0  0  0  0  0  0
    6.1063  -14.7796   26.2717 N   0  0  0  0  0  0  0  0  0  0  0  0
    6.3958  -13.4806   26.4531 C   0  0  0  0  0  0  0  0  0  0  0  0
    5.6217  -12.3729   26.7381 C   0  0  0  0  0  0  0  0  0  0  0  0
    6.1933  -11.1349   26.8999 C   0  0  0  0  0  0  0  0  0  0  0  0
    7.5724  -10.9853   26.7762 C   0  0  0  0  0  0  0  0  0  0  0  0
    8.3106  -12.1067   26.4915 C   0  0  0  0  0  0  0  0  0  0  0  0
    7.7903  -13.3753   26.3180 C   0  0  0  0  0  0  0  0  0  0  0  0
    9.3702  -17.3786   25.3677 C   0  0  0  0  0  0  0  0  0  0  0  0
    9.9687  -18.2134   26.3008 O   0  0  0  0  0  0  0  0  0  0  0  0
    8.2464  -17.7956   24.9101 O   0  0  0  0  0  0  0  0  0  0  0  0
  2  1  1  6
  2  3  1  0
  3  4  1  0
  4  5  2  0
  6  5  1  0
  7  6  1  0
  8  7  2  0
  8  4  1  0
  9  2  1  0
 10  9  2  0
 12 14  1  0
 12 11  1  6
 13 12  1  0
 14 15  1  6
 15  9  1  0
 16 18  1  0
 16 14  1  0
 17 16  2  0
 19 30  1  0
 19 18  1  0
 19 20  1  1
 21 22  2  0
 21 20  1  0
 23 22  1  0
 24 29  2  0
 24 23  1  0
 25 24  1  0
 26 27  1  0
 26 25  2  0
 27 28  2  0
 28 29  1  0
 29 21  1  0
 30 31  1  0
 32 30  2  0
M  END
$$$$
