HVW.pdb
     RDKit          3D

 32 34  0  0  1  0  0  0  0  0999 V2000
    9.8014  -15.3396   19.6133 N   0  0  0  0  0  0  0  0  0  0  0  0
    8.6961  -14.9025   20.4193 C   0  0  1  0  0  0  0  0  0  0  0  0
    7.3971  -15.0472   19.6511 C   0  0  0  0  0  0  0  0  0  0  0  0
    7.5255  -14.4287   18.2889 C   0  0  0  0  0  0  0  0  0  0  0  0
    7.7933  -13.1061   18.0166 C   0  0  0  0  0  0  0  0  0  0  0  0
    7.8235  -12.9505   16.6827 N   0  0  0  0  0  0  0  0  0  0  0  0
    7.5816  -14.1426   16.1381 C   0  0  0  0  0  0  0  0  0  0  0  0
    7.3991  -15.0479   17.1083 N   0  0  0  0  0  0  0  0  0  0  0  0
    8.6099  -15.7330   21.6897 C   0  0  0  0  0  0  0  0  0  0  0  0
    7.5913  -15.6684   22.4003 O   0  0  0  0  0  0  0  0  0  0  0  0
   10.9950  -19.3671   24.1479 C   0  0  0  0  0  0  0  0  0  0  0  0
   10.8675  -18.5962   22.8575 C   0  0  2  0  0  0  0  0  0  0  0  0
   12.2291  -18.0280   22.5167 C   0  0  0  0  0  0  0  0  0  0  0  0
    9.9265  -17.4350   23.0901 C   0  0  2  0  0  0  0  0  0  0  0  0
    9.7005  -16.5497   22.0103 N   0  0  0  0  0  0  0  0  0  0  0  0
   10.2380  -16.7631   24.3650 C   0  0  0  0  0  0  0  0  0  0  0  0
   11.0823  -15.8432   24.5135 O   0  0  0  0  0  0  0  0  0  0  0  0
    9.5608  -17.1311   25.5894 N   0  0  0  0  0  0  0  0  0  0  0  0
    9.9159  -16.5192   26.8707 C   0  0  1  0  0  0  0  0  0  0  0  0
    8.7015  -16.1395   27.6284 C   0  0  0  0  0  0  0  0  0  0  0  0
    7.7336  -15.3635   26.8611 C   0  0  0  0  0  0  0  0  0  0  0  0
    6.6494  -15.8697   26.1340 C   0  0  0  0  0  0  0  0  0  0  0  0
    6.0107  -14.8611   25.5335 N   0  0  0  0  0  0  0  0  0  0  0  0
    6.6058  -13.6904   25.8157 C   0  0  0  0  0  0  0  0  0  0  0  0
    6.3294  -12.3835   25.4648 C   0  0  0  0  0  0  0  0  0  0  0  0
    7.1073  -11.3496   25.9247 C   0  0  0  0  0  0  0  0  0  0  0  0
    8.1922  -11.6138   26.7570 C   0  0  0  0  0  0  0  0  0  0  0  0
    8.4381  -12.9237   27.0845 C   0  0  0  0  0  0  0  0  0  0  0  0
    7.6910  -14.0028   26.6515 C   0  0  0  0  0  0  0  0  0  0  0  0
   10.8051  -17.4138   27.5929 C   0  0  0  0  0  0  0  0  0  0  0  0
   11.1868  -18.6928   27.2131 O   0  0  0  0  0  0  0  0  0  0  0  0
   11.3000  -17.0090   28.7053 O   0  0  0  0  0  0  0  0  0  0  0  0
  2  1  1  6
  2  3  1  0
  3  4  1  0
  4  5  2  0
  6  5  1  0
  7  6  1  0
  8  7  2  0
  8  4  1  0
  9  2  1  0
 10  9  2  0
 12 14  1  0
 12 11  1  1
 13 12  1  0
 14 15  1  6
 15  9  1  0
 16 18  1  0
 16 14  1  0
 17 16  2  0
 19 30  1  0
 19 18  1  0
 19 20  1  1
 21 22  2  0
 21 20  1  0
 23 22  1  0
 24 29  2  0
 24 23  1  0
 25 24  1  0
 26 27  1  0
 26 25  2  0
 27 28  2  0
 28 29  1  0
 29 21  1  0
 30 31  1  0
 32 30  2  0
M  END
$$$$
