HVW.pdb
     RDKit          3D

 32 34  0  0  1  0  0  0  0  0999 V2000
    8.4205  -18.2234   19.8241 N   0  0  0  0  0  0  0  0  0  0  0  0
    9.8296  -18.0082   19.6502 C   0  0  1  0  0  0  0  0  0  0  0  0
   10.1834  -18.0145   18.1760 C   0  0  0  0  0  0  0  0  0  0  0  0
    9.8437  -19.3430   17.5643 C   0  0  0  0  0  0  0  0  0  0  0  0
   10.3046  -20.5723   17.9784 C   0  0  0  0  0  0  0  0  0  0  0  0
    9.7766  -21.5104   17.1747 N   0  0  0  0  0  0  0  0  0  0  0  0
    9.0079  -20.8839   16.2845 C   0  0  0  0  0  0  0  0  0  0  0  0
    9.0429  -19.5648   16.5142 N   0  0  0  0  0  0  0  0  0  0  0  0
   10.2354  -16.6699   20.2464 C   0  0  0  0  0  0  0  0  0  0  0  0
   11.4032  -16.2639   20.1116 O   0  0  0  0  0  0  0  0  0  0  0  0
    6.8787  -14.3992   21.7863 C   0  0  0  0  0  0  0  0  0  0  0  0
    8.1438  -13.7297   21.3099 C   0  0  2  0  0  0  0  0  0  0  0  0
    8.0280  -13.5236   19.8142 C   0  0  0  0  0  0  0  0  0  0  0  0
    9.3011  -14.6711   21.5591 C   0  0  2  0  0  0  0  0  0  0  0  0
    9.2593  -15.9391   20.9337 N   0  0  0  0  0  0  0  0  0  0  0  0
    9.6303  -14.7184   22.9955 C   0  0  0  0  0  0  0  0  0  0  0  0
    9.8504  -13.7168   23.7232 O   0  0  0  0  0  0  0  0  0  0  0  0
    9.7247  -15.9784   23.7002 N   0  0  0  0  0  0  0  0  0  0  0  0
   10.0326  -16.0312   25.1301 C   0  0  1  0  0  0  0  0  0  0  0  0
    8.8509  -16.4684   25.9083 C   0  0  0  0  0  0  0  0  0  0  0  0
    7.7242  -15.5431   25.8592 C   0  0  0  0  0  0  0  0  0  0  0  0
    6.4291  -15.8313   25.4119 C   0  0  0  0  0  0  0  0  0  0  0  0
    5.6817  -14.7257   25.4809 N   0  0  0  0  0  0  0  0  0  0  0  0
    6.4033  -13.6965   25.9542 C   0  0  0  0  0  0  0  0  0  0  0  0
    6.0983  -12.3771   26.2260 C   0  0  0  0  0  0  0  0  0  0  0  0
    7.0446  -11.5255   26.7406 C   0  0  0  0  0  0  0  0  0  0  0  0
    8.3326  -11.9905   26.9949 C   0  0  0  0  0  0  0  0  0  0  0  0
    8.6008  -13.3063   26.7120 C   0  0  0  0  0  0  0  0  0  0  0  0
    7.6900  -14.2074   26.1936 C   0  0  0  0  0  0  0  0  0  0  0  0
   11.2097  -16.8597   25.3313 C   0  0  0  0  0  0  0  0  0  0  0  0
   11.9307  -17.5320   24.3546 O   0  0  0  0  0  0  0  0  0  0  0  0
   11.6485  -17.0095   26.5277 O   0  0  0  0  0  0  0  0  0  0  0  0
  2  1  1  6
  2  3  1  0
  3  4  1  0
  4  5  2  0
  6  5  1  0
  7  6  1  0
  8  7  2  0
  8  4  1  0
  9  2  1  0
 10  9  2  0
 12 14  1  0
 12 11  1  6
 13 12  1  0
 14 15  1  1
 15  9  1  0
 16 18  1  0
 16 14  1  0
 17 16  2  0
 19 30  1  0
 19 18  1  0
 19 20  1  1
 21 22  2  0
 21 20  1  0
 23 22  1  0
 24 29  2  0
 24 23  1  0
 25 24  1  0
 26 27  1  0
 26 25  2  0
 27 28  2  0
 28 29  1  0
 29 21  1  0
 30 31  1  0
 32 30  2  0
M  END
$$$$
