HVW.pdb
     RDKit          3D

 32 34  0  0  1  0  0  0  0  0999 V2000
    9.8812  -16.8522   16.8222 N   0  0  0  0  0  0  0  0  0  0  0  0
   10.3719  -17.3067   18.0930 C   0  0  1  0  0  0  0  0  0  0  0  0
   11.8611  -17.5796   18.0132 C   0  0  0  0  0  0  0  0  0  0  0  0
   12.1316  -18.7258   17.0816 C   0  0  0  0  0  0  0  0  0  0  0  0
   12.5655  -18.6316   15.7786 C   0  0  0  0  0  0  0  0  0  0  0  0
   12.6832  -19.8754   15.2850 N   0  0  0  0  0  0  0  0  0  0  0  0
   12.3329  -20.7217   16.2530 C   0  0  0  0  0  0  0  0  0  0  0  0
   11.9957  -20.0306   17.3498 N   0  0  0  0  0  0  0  0  0  0  0  0
   10.1226  -16.2539   19.1609 C   0  0  0  0  0  0  0  0  0  0  0  0
   10.6037  -15.1148   19.0275 O   0  0  0  0  0  0  0  0  0  0  0  0
    6.6624  -16.8488   21.4470 C   0  0  0  0  0  0  0  0  0  0  0  0
    7.4367  -15.5548   21.4858 C   0  0  2  0  0  0  0  0  0  0  0  0
    7.0626  -14.7500   20.2589 C   0  0  0  0  0  0  0  0  0  0  0  0
    8.9107  -15.8813   21.3933 C   0  0  2  0  0  0  0  0  0  0  0  0
    9.3480  -16.6186   20.2683 N   0  0  0  0  0  0  0  0  0  0  0  0
    9.4090  -16.3962   22.6820 C   0  0  0  0  0  0  0  0  0  0  0  0
    9.9621  -17.5124   22.8527 O   0  0  0  0  0  0  0  0  0  0  0  0
    9.2930  -15.6156   23.8945 N   0  0  0  0  0  0  0  0  0  0  0  0
    9.7179  -16.1501   25.1891 C   0  0  1  0  0  0  0  0  0  0  0  0
    9.5523  -15.1382   26.2576 C   0  0  0  0  0  0  0  0  0  0  0  0
    8.2306  -14.5228   26.3016 C   0  0  0  0  0  0  0  0  0  0  0  0
    7.0014  -15.1793   26.1644 C   0  0  0  0  0  0  0  0  0  0  0  0
    6.0126  -14.2823   26.2225 N   0  0  0  0  0  0  0  0  0  0  0  0
    6.5066  -13.0451   26.3934 C   0  0  0  0  0  0  0  0  0  0  0  0
    5.9155  -11.8044   26.5305 C   0  0  0  0  0  0  0  0  0  0  0  0
    6.6762  -10.6773   26.7222 C   0  0  0  0  0  0  0  0  0  0  0  0
    8.0641  -10.7779   26.7802 C   0  0  0  0  0  0  0  0  0  0  0  0
    8.6175  -12.0257   26.6391 C   0  0  0  0  0  0  0  0  0  0  0  0
    7.9029  -13.1925   26.4437 C   0  0  0  0  0  0  0  0  0  0  0  0
    9.0123  -17.3953   25.4425 C   0  0  0  0  0  0  0  0  0  0  0  0
    9.3971  -18.4079   26.3098 O   0  0  0  0  0  0  0  0  0  0  0  0
    7.9188  -17.6126   24.8075 O   0  0  0  0  0  0  0  0  0  0  0  0
  2  1  1  6
  2  3  1  0
  3  4  1  0
  4  5  2  0
  6  5  1  0
  7  6  1  0
  8  7  2  0
  8  4  1  0
  9  2  1  0
 10  9  2  0
 12 14  1  0
 12 11  1  6
 13 12  1  0
 14 15  1  6
 15  9  1  0
 16 18  1  0
 16 14  1  0
 17 16  2  0
 19 30  1  0
 19 18  1  0
 19 20  1  1
 21 22  2  0
 21 20  1  0
 23 22  1  0
 24 29  2  0
 24 23  1  0
 25 24  1  0
 26 27  1  0
 26 25  2  0
 27 28  2  0
 28 29  1  0
 29 21  1  0
 30 31  1  0
 32 30  2  0
M  END
$$$$
