HVW.pdb
     RDKit          3D

 32 34  0  0  1  0  0  0  0  0999 V2000
    9.2031  -16.8751   19.2130 N   0  0  0  0  0  0  0  0  0  0  0  0
    8.9811  -16.1782   20.4488 C   0  0  1  0  0  0  0  0  0  0  0  0
    7.6843  -15.3956   20.3842 C   0  0  0  0  0  0  0  0  0  0  0  0
    7.8680  -14.1491   19.5673 C   0  0  0  0  0  0  0  0  0  0  0  0
    9.0179  -13.7643   18.9157 C   0  0  0  0  0  0  0  0  0  0  0  0
    8.7805  -12.5925   18.3033 N   0  0  0  0  0  0  0  0  0  0  0  0
    7.5179  -12.2559   18.5653 C   0  0  0  0  0  0  0  0  0  0  0  0
    6.9552  -13.1976   19.3339 N   0  0  0  0  0  0  0  0  0  0  0  0
    8.9017  -17.1648   21.6027 C   0  0  0  0  0  0  0  0  0  0  0  0
    8.0821  -18.0991   21.5595 O   0  0  0  0  0  0  0  0  0  0  0  0
   12.1946  -18.5257   23.3351 C   0  0  0  0  0  0  0  0  0  0  0  0
   10.8280  -18.9380   23.8231 C   0  0  2  0  0  0  0  0  0  0  0  0
   10.2317  -19.8809   22.7992 C   0  0  0  0  0  0  0  0  0  0  0  0
    9.9536  -17.7052   23.8815 C   0  0  2  0  0  0  0  0  0  0  0  0
    9.7707  -16.9756   22.6837 N   0  0  0  0  0  0  0  0  0  0  0  0
   10.3087  -16.8730   25.0457 C   0  0  0  0  0  0  0  0  0  0  0  0
   11.1562  -15.9440   25.0425 O   0  0  0  0  0  0  0  0  0  0  0  0
    9.6757  -17.0752   26.3307 N   0  0  0  0  0  0  0  0  0  0  0  0
   10.0228  -16.2519   27.4899 C   0  0  1  0  0  0  0  0  0  0  0  0
    8.8146  -15.6235   28.0715 C   0  0  0  0  0  0  0  0  0  0  0  0
    7.8418  -15.1668   27.0850 C   0  0  0  0  0  0  0  0  0  0  0  0
    6.8494  -15.9424   26.4733 C   0  0  0  0  0  0  0  0  0  0  0  0
    6.1755  -15.1885   25.5997 N   0  0  0  0  0  0  0  0  0  0  0  0
    6.6590  -13.9354   25.5855 C   0  0  0  0  0  0  0  0  0  0  0  0
    6.3063  -12.7966   24.8883 C   0  0  0  0  0  0  0  0  0  0  0  0
    6.9706  -11.6117   25.0893 C   0  0  0  0  0  0  0  0  0  0  0  0
    8.0162  -11.5489   26.0072 C   0  0  0  0  0  0  0  0  0  0  0  0
    8.3403  -12.6995   26.6813 C   0  0  0  0  0  0  0  0  0  0  0  0
    7.7083  -13.9180   26.5196 C   0  0  0  0  0  0  0  0  0  0  0  0
   10.7802  -17.0571   28.4336 C   0  0  0  0  0  0  0  0  0  0  0  0
   11.5075  -16.5984   29.5228 O   0  0  0  0  0  0  0  0  0  0  0  0
   10.8030  -18.3288   28.2640 O   0  0  0  0  0  0  0  0  0  0  0  0
  2  1  1  6
  2  3  1  0
  3  4  1  0
  4  5  2  0
  6  5  1  0
  7  6  1  0
  8  7  2  0
  8  4  1  0
  9  2  1  0
 10  9  2  0
 12 14  1  0
 12 11  1  6
 13 12  1  0
 14 15  1  6
 15  9  1  0
 16 18  1  0
 16 14  1  0
 17 16  2  0
 19 30  1  0
 19 18  1  0
 19 20  1  1
 21 22  2  0
 21 20  1  0
 23 22  1  0
 24 29  2  0
 24 23  1  0
 25 24  1  0
 26 27  1  0
 26 25  2  0
 27 28  2  0
 28 29  1  0
 29 21  1  0
 30 31  1  0
 32 30  2  0
M  END
$$$$
