HVW.pdb
     RDKit          3D

 32 34  0  0  1  0  0  0  0  0999 V2000
    9.0423  -18.5834   17.4283 N   0  0  0  0  0  0  0  0  0  0  0  0
    8.1656  -18.3158   18.5337 C   0  0  1  0  0  0  0  0  0  0  0  0
    7.8538  -19.5989   19.2786 C   0  0  0  0  0  0  0  0  0  0  0  0
    7.0739  -20.5348   18.4008 C   0  0  0  0  0  0  0  0  0  0  0  0
    6.1919  -20.1748   17.4071 C   0  0  0  0  0  0  0  0  0  0  0  0
    5.6979  -21.2970   16.8584 N   0  0  0  0  0  0  0  0  0  0  0  0
    6.2561  -22.3281   17.4919 C   0  0  0  0  0  0  0  0  0  0  0  0
    7.0948  -21.8733   18.4321 N   0  0  0  0  0  0  0  0  0  0  0  0
    8.8159  -17.3352   19.4962 C   0  0  0  0  0  0  0  0  0  0  0  0
    9.9249  -17.6019   19.9919 O   0  0  0  0  0  0  0  0  0  0  0  0
    8.1488  -12.7933   21.4857 C   0  0  0  0  0  0  0  0  0  0  0  0
    7.5737  -13.8362   20.5598 C   0  0  2  0  0  0  0  0  0  0  0  0
    6.1827  -14.1793   21.0499 C   0  0  0  0  0  0  0  0  0  0  0  0
    8.4224  -15.0837   20.6655 C   0  0  2  0  0  0  0  0  0  0  0  0
    8.1259  -16.1528   19.7882 N   0  0  0  0  0  0  0  0  0  0  0  0
    8.5779  -15.4866   22.0753 C   0  0  0  0  0  0  0  0  0  0  0  0
    7.9102  -16.3823   22.6522 O   0  0  0  0  0  0  0  0  0  0  0  0
    9.5564  -14.8516   22.9311 N   0  0  0  0  0  0  0  0  0  0  0  0
    9.7196  -15.2507   24.3298 C   0  0  1  0  0  0  0  0  0  0  0  0
    8.5081  -15.9431   24.8255 C   0  0  0  0  0  0  0  0  0  0  0  0
    7.4786  -15.0514   25.3478 C   0  0  0  0  0  0  0  0  0  0  0  0
    6.1101  -15.3294   25.4504 C   0  0  0  0  0  0  0  0  0  0  0  0
    5.4776  -14.2594   25.9414 N   0  0  0  0  0  0  0  0  0  0  0  0
    6.3478  -13.2644   26.1797 C   0  0  0  0  0  0  0  0  0  0  0  0
    6.2055  -11.9901   26.6931 C   0  0  0  0  0  0  0  0  0  0  0  0
    7.2941  -11.1693   26.8565 C   0  0  0  0  0  0  0  0  0  0  0  0
    8.5632  -11.6202   26.5018 C   0  0  0  0  0  0  0  0  0  0  0  0
    8.6676  -12.8909   25.9941 C   0  0  0  0  0  0  0  0  0  0  0  0
    7.6088  -13.7594   25.8072 C   0  0  0  0  0  0  0  0  0  0  0  0
   10.9391  -16.0305   24.4610 C   0  0  0  0  0  0  0  0  0  0  0  0
   11.4813  -16.5359   25.6341 O   0  0  0  0  0  0  0  0  0  0  0  0
   11.6103  -16.2897   23.3986 O   0  0  0  0  0  0  0  0  0  0  0  0
  2  1  1  6
  2  3  1  0
  3  4  1  0
  4  5  2  0
  6  5  1  0
  7  6  1  0
  8  7  2  0
  8  4  1  0
  9  2  1  0
 10  9  2  0
 12 14  1  0
 12 11  1  1
 13 12  1  0
 14 15  1  6
 15  9  1  0
 16 18  1  0
 16 14  1  0
 17 16  2  0
 19 30  1  0
 19 18  1  0
 19 20  1  6
 21 22  2  0
 21 20  1  0
 23 22  1  0
 24 29  2  0
 24 23  1  0
 25 24  1  0
 26 27  1  0
 26 25  2  0
 27 28  2  0
 28 29  1  0
 29 21  1  0
 30 31  1  0
 32 30  2  0
M  END
$$$$
