HVW.pdb
     RDKit          3D

 32 34  0  0  1  0  0  0  0  0999 V2000
   10.1058  -18.4593   18.2994 N   0  0  0  0  0  0  0  0  0  0  0  0
   10.9173  -17.2746   18.2989 C   0  0  1  0  0  0  0  0  0  0  0  0
   10.8574  -16.5981   16.9435 C   0  0  0  0  0  0  0  0  0  0  0  0
   11.7445  -17.3123   15.9649 C   0  0  0  0  0  0  0  0  0  0  0  0
   13.1206  -17.2824   15.9405 C   0  0  0  0  0  0  0  0  0  0  0  0
   13.5382  -18.0430   14.9151 N   0  0  0  0  0  0  0  0  0  0  0  0
   12.4533  -18.5337   14.3166 C   0  0  0  0  0  0  0  0  0  0  0  0
   11.3573  -18.0940   14.9490 N   0  0  0  0  0  0  0  0  0  0  0  0
   10.4258  -16.2992   19.3562 C   0  0  0  0  0  0  0  0  0  0  0  0
   10.9801  -15.1927   19.4792 O   0  0  0  0  0  0  0  0  0  0  0  0
    6.6794  -17.3984   21.2775 C   0  0  0  0  0  0  0  0  0  0  0  0
    7.2426  -15.9995   21.3172 C   0  0  2  0  0  0  0  0  0  0  0  0
    6.8029  -15.2834   20.0576 C   0  0  0  0  0  0  0  0  0  0  0  0
    8.7520  -16.0953   21.2922 C   0  0  2  0  0  0  0  0  0  0  0  0
    9.3507  -16.6957   20.1601 N   0  0  0  0  0  0  0  0  0  0  0  0
    9.2604  -16.5993   22.5812 C   0  0  0  0  0  0  0  0  0  0  0  0
    9.9024  -17.6687   22.7402 O   0  0  0  0  0  0  0  0  0  0  0  0
    9.0483  -15.8630   23.8084 N   0  0  0  0  0  0  0  0  0  0  0  0
    9.5748  -16.3435   25.0867 C   0  0  1  0  0  0  0  0  0  0  0  0
    9.5303  -15.2747   26.1107 C   0  0  0  0  0  0  0  0  0  0  0  0
    8.2141  -14.6731   26.2934 C   0  0  0  0  0  0  0  0  0  0  0  0
    6.9841  -15.3422   26.2832 C   0  0  0  0  0  0  0  0  0  0  0  0
    5.9976  -14.4556   26.4460 N   0  0  0  0  0  0  0  0  0  0  0  0
    6.4940  -13.2135   26.5677 C   0  0  0  0  0  0  0  0  0  0  0  0
    5.9078  -11.9792   26.7687 C   0  0  0  0  0  0  0  0  0  0  0  0
    6.6727  -10.8446   26.8830 C   0  0  0  0  0  0  0  0  0  0  0  0
    8.0601  -10.9308   26.7961 C   0  0  0  0  0  0  0  0  0  0  0  0
    8.6086  -12.1726   26.5951 C   0  0  0  0  0  0  0  0  0  0  0  0
    7.8895  -13.3465   26.4722 C   0  0  0  0  0  0  0  0  0  0  0  0
    8.8649  -17.5535   25.4670 C   0  0  0  0  0  0  0  0  0  0  0  0
    9.2781  -18.5059   26.3878 O   0  0  0  0  0  0  0  0  0  0  0  0
    7.7379  -17.7974   24.9044 O   0  0  0  0  0  0  0  0  0  0  0  0
  2  1  1  6
  2  3  1  0
  3  4  1  0
  4  5  2  0
  6  5  1  0
  7  6  1  0
  8  7  2  0
  8  4  1  0
  9  2  1  0
 10  9  2  0
 12 14  1  0
 12 11  1  6
 13 12  1  0
 14 15  1  6
 15  9  1  0
 16 18  1  0
 16 14  1  0
 17 16  2  0
 19 30  1  0
 19 18  1  0
 19 20  1  1
 21 22  2  0
 21 20  1  0
 23 22  1  0
 24 29  2  0
 24 23  1  0
 25 24  1  0
 26 27  1  0
 26 25  2  0
 27 28  2  0
 28 29  1  0
 29 21  1  0
 30 31  1  0
 32 30  2  0
M  END
$$$$
