HVW.pdb
     RDKit          3D

 32 34  0  0  1  0  0  0  0  0999 V2000
   10.2403  -18.3436   18.8740 N   0  0  0  0  0  0  0  0  0  0  0  0
   11.3424  -17.5154   19.2761 C   0  0  1  0  0  0  0  0  0  0  0  0
   11.9308  -16.8047   18.0732 C   0  0  0  0  0  0  0  0  0  0  0  0
   12.4829  -17.8029   17.0966 C   0  0  0  0  0  0  0  0  0  0  0  0
   13.7373  -18.3688   17.1316 C   0  0  0  0  0  0  0  0  0  0  0  0
   13.8492  -19.2050   16.0862 N   0  0  0  0  0  0  0  0  0  0  0  0
   12.6969  -19.1620   15.4180 C   0  0  0  0  0  0  0  0  0  0  0  0
   11.8598  -18.3113   16.0260 N   0  0  0  0  0  0  0  0  0  0  0  0
   10.8792  -16.4747   20.2827 C   0  0  0  0  0  0  0  0  0  0  0  0
   11.6624  -15.5812   20.6501 O   0  0  0  0  0  0  0  0  0  0  0  0
    6.6315  -16.6524   21.3223 C   0  0  0  0  0  0  0  0  0  0  0  0
    7.4966  -15.4526   21.6185 C   0  0  2  0  0  0  0  0  0  0  0  0
    7.4974  -14.5638   20.3925 C   0  0  0  0  0  0  0  0  0  0  0  0
    8.9131  -15.9333   21.8425 C   0  0  2  0  0  0  0  0  0  0  0  0
    9.5670  -16.5686   20.7612 N   0  0  0  0  0  0  0  0  0  0  0  0
    9.0173  -16.6605   23.1209 C   0  0  0  0  0  0  0  0  0  0  0  0
    9.2517  -17.8901   23.2396 O   0  0  0  0  0  0  0  0  0  0  0  0
    8.8519  -15.9776   24.3855 N   0  0  0  0  0  0  0  0  0  0  0  0
    9.0900  -16.6606   25.6579 C   0  0  1  0  0  0  0  0  0  0  0  0
    9.0789  -15.6982   26.7834 C   0  0  0  0  0  0  0  0  0  0  0  0
    7.9097  -14.8266   26.8161 C   0  0  0  0  0  0  0  0  0  0  0  0
    6.5692  -15.2302   26.7879 C   0  0  0  0  0  0  0  0  0  0  0  0
    5.7824  -14.1500   26.7953 N   0  0  0  0  0  0  0  0  0  0  0  0
    6.5205  -13.0283   26.8279 C   0  0  0  0  0  0  0  0  0  0  0  0
    6.1953  -11.6865   26.8662 C   0  0  0  0  0  0  0  0  0  0  0  0
    7.1736  -10.7244   26.9204 C   0  0  0  0  0  0  0  0  0  0  0  0
    8.5151  -11.0983   26.9370 C   0  0  0  0  0  0  0  0  0  0  0  0
    8.8018  -12.4398   26.8968 C   0  0  0  0  0  0  0  0  0  0  0  0
    7.8605  -13.4503   26.8411 C   0  0  0  0  0  0  0  0  0  0  0  0
    8.1324  -17.7447   25.8004 C   0  0  0  0  0  0  0  0  0  0  0  0
    8.2253  -18.8291   26.6614 O   0  0  0  0  0  0  0  0  0  0  0  0
    7.0838  -17.7286   25.0611 O   0  0  0  0  0  0  0  0  0  0  0  0
  2  1  1  6
  2  3  1  0
  3  4  1  0
  4  5  2  0
  6  5  1  0
  7  6  1  0
  8  7  2  0
  8  4  1  0
  9  2  1  0
 10  9  2  0
 12 14  1  0
 12 11  1  6
 13 12  1  0
 14 15  1  6
 15  9  1  0
 16 18  1  0
 16 14  1  0
 17 16  2  0
 19 30  1  0
 19 18  1  0
 19 20  1  1
 21 22  2  0
 21 20  1  0
 23 22  1  0
 24 29  2  0
 24 23  1  0
 25 24  1  0
 26 27  1  0
 26 25  2  0
 27 28  2  0
 28 29  1  0
 29 21  1  0
 30 31  1  0
 32 30  2  0
M  END
$$$$
