HVW.pdb
     RDKit          3D

 32 34  0  0  1  0  0  0  0  0999 V2000
    9.1638  -19.3713   18.6983 N   0  0  0  0  0  0  0  0  0  0  0  0
    8.5584  -18.8301   19.8827 C   0  0  1  0  0  0  0  0  0  0  0  0
    8.7514  -19.7776   21.0504 C   0  0  0  0  0  0  0  0  0  0  0  0
    8.0111  -21.0614   20.8076 C   0  0  0  0  0  0  0  0  0  0  0  0
    7.2927  -21.3867   19.6793 C   0  0  0  0  0  0  0  0  0  0  0  0
    6.7786  -22.6159   19.8497 N   0  0  0  0  0  0  0  0  0  0  0  0
    7.1655  -23.0455   21.0504 C   0  0  0  0  0  0  0  0  0  0  0  0
    7.9159  -22.1057   21.6403 N   0  0  0  0  0  0  0  0  0  0  0  0
    9.1862  -17.4898   20.2296 C   0  0  0  0  0  0  0  0  0  0  0  0
   10.4192  -17.3476   20.1496 O   0  0  0  0  0  0  0  0  0  0  0  0
    7.9601  -12.7828   21.3762 C   0  0  0  0  0  0  0  0  0  0  0  0
    7.4992  -14.1008   20.8053 C   0  0  2  0  0  0  0  0  0  0  0  0
    6.2850  -14.5505   21.5905 C   0  0  0  0  0  0  0  0  0  0  0  0
    8.5948  -15.1207   21.0228 C   0  0  2  0  0  0  0  0  0  0  0  0
    8.3339  -16.4546   20.6312 N   0  0  0  0  0  0  0  0  0  0  0  0
    9.1623  -14.9904   22.3774 C   0  0  0  0  0  0  0  0  0  0  0  0
    9.5736  -13.9196   22.8922 O   0  0  0  0  0  0  0  0  0  0  0  0
    9.2886  -16.1382   23.2490 N   0  0  0  0  0  0  0  0  0  0  0  0
    9.7506  -15.9992   24.6308 C   0  0  1  0  0  0  0  0  0  0  0  0
    8.6587  -16.2998   25.5849 C   0  0  0  0  0  0  0  0  0  0  0  0
    7.5965  -15.3006   25.6155 C   0  0  0  0  0  0  0  0  0  0  0  0
    6.2572  -15.4979   25.2578 C   0  0  0  0  0  0  0  0  0  0  0  0
    5.5927  -14.3450   25.3806 N   0  0  0  0  0  0  0  0  0  0  0  0
    6.4130  -13.3700   25.8054 C   0  0  0  0  0  0  0  0  0  0  0  0
    6.2172  -12.0350   26.1005 C   0  0  0  0  0  0  0  0  0  0  0  0
    7.2519  -11.2525   26.5507 C   0  0  0  0  0  0  0  0  0  0  0  0
    8.5199  -11.8048   26.7147 C   0  0  0  0  0  0  0  0  0  0  0  0
    8.6785  -13.1337   26.4111 C   0  0  0  0  0  0  0  0  0  0  0  0
    7.6756  -13.9679   25.9546 C   0  0  0  0  0  0  0  0  0  0  0  0
   10.9381  -16.8162   24.8180 C   0  0  0  0  0  0  0  0  0  0  0  0
   11.7455  -16.8645   25.9456 O   0  0  0  0  0  0  0  0  0  0  0  0
   11.3075  -17.5786   23.8544 O   0  0  0  0  0  0  0  0  0  0  0  0
  2  1  1  6
  2  3  1  0
  3  4  1  0
  4  5  2  0
  6  5  1  0
  7  6  1  0
  8  7  2  0
  8  4  1  0
  9  2  1  0
 10  9  2  0
 12 14  1  0
 12 11  1  1
 13 12  1  0
 14 15  1  1
 15  9  1  0
 16 18  1  0
 16 14  1  0
 17 16  2  0
 19 30  1  0
 19 18  1  0
 19 20  1  1
 21 22  2  0
 21 20  1  0
 23 22  1  0
 24 29  2  0
 24 23  1  0
 25 24  1  0
 26 27  1  0
 26 25  2  0
 27 28  2  0
 28 29  1  0
 29 21  1  0
 30 31  1  0
 32 30  2  0
M  END
$$$$
