HVW.pdb
     RDKit          3D

 32 34  0  0  1  0  0  0  0  0999 V2000
    9.6104  -17.0669   17.2598 N   0  0  0  0  0  0  0  0  0  0  0  0
   10.6065  -17.3836   18.2446 C   0  0  1  0  0  0  0  0  0  0  0  0
   11.9864  -17.3745   17.6169 C   0  0  0  0  0  0  0  0  0  0  0  0
   11.9896  -18.1858   16.3533 C   0  0  0  0  0  0  0  0  0  0  0  0
   11.4080  -19.4210   16.1768 C   0  0  0  0  0  0  0  0  0  0  0  0
   11.6339  -19.8138   14.9123 N   0  0  0  0  0  0  0  0  0  0  0  0
   12.3365  -18.8507   14.3166 C   0  0  0  0  0  0  0  0  0  0  0  0
   12.5573  -17.8562   15.1863 N   0  0  0  0  0  0  0  0  0  0  0  0
   10.5740  -16.3652   19.3728 C   0  0  0  0  0  0  0  0  0  0  0  0
   11.6394  -15.8954   19.8098 O   0  0  0  0  0  0  0  0  0  0  0  0
    8.0242  -13.4114   19.6253 C   0  0  0  0  0  0  0  0  0  0  0  0
    7.7837  -14.2698   20.8422 C   0  0  2  0  0  0  0  0  0  0  0  0
    7.7506  -13.3625   22.0541 C   0  0  0  0  0  0  0  0  0  0  0  0
    8.9586  -15.2093   20.9994 C   0  0  2  0  0  0  0  0  0  0  0  0
    9.3235  -15.9934   19.8802 N   0  0  0  0  0  0  0  0  0  0  0  0
    8.8490  -15.9697   22.2578 C   0  0  0  0  0  0  0  0  0  0  0  0
    7.8107  -16.5477   22.6687 O   0  0  0  0  0  0  0  0  0  0  0  0
    9.9816  -16.1122   23.1467 N   0  0  0  0  0  0  0  0  0  0  0  0
    9.8073  -16.1875   24.5979 C   0  0  1  0  0  0  0  0  0  0  0  0
    9.6255  -14.8372   25.1782 C   0  0  0  0  0  0  0  0  0  0  0  0
    8.2544  -14.5333   25.5728 C   0  0  0  0  0  0  0  0  0  0  0  0
    7.1687  -15.4174   25.5594 C   0  0  0  0  0  0  0  0  0  0  0  0
    6.0675  -14.7707   25.9530 N   0  0  0  0  0  0  0  0  0  0  0  0
    6.3485  -13.4880   26.2353 C   0  0  0  0  0  0  0  0  0  0  0  0
    5.5818  -12.4326   26.6891 C   0  0  0  0  0  0  0  0  0  0  0  0
    6.1434  -11.2015   26.9228 C   0  0  0  0  0  0  0  0  0  0  0  0
    7.5044  -11.0057   26.7016 C   0  0  0  0  0  0  0  0  0  0  0  0
    8.2354  -12.0756   26.2499 C   0  0  0  0  0  0  0  0  0  0  0  0
    7.7247  -13.3348   25.9972 C   0  0  0  0  0  0  0  0  0  0  0  0
    8.7235  -17.1084   24.8980 C   0  0  0  0  0  0  0  0  0  0  0  0
    8.5864  -17.8889   26.0372 O   0  0  0  0  0  0  0  0  0  0  0  0
    7.7832  -17.2400   24.0351 O   0  0  0  0  0  0  0  0  0  0  0  0
  2  1  1  6
  2  3  1  0
  3  4  1  0
  4  5  2  0
  6  5  1  0
  7  6  1  0
  8  7  2  0
  8  4  1  0
  9  2  1  0
 10  9  2  0
 12 14  1  0
 12 11  1  6
 13 12  1  0
 14 15  1  6
 15  9  1  0
 16 18  1  0
 16 14  1  0
 17 16  2  0
 19 30  1  0
 19 18  1  0
 19 20  1  6
 21 22  2  0
 21 20  1  0
 23 22  1  0
 24 29  2  0
 24 23  1  0
 25 24  1  0
 26 27  1  0
 26 25  2  0
 27 28  2  0
 28 29  1  0
 29 21  1  0
 30 31  1  0
 32 30  2  0
M  END
$$$$
