HVW.pdb
     RDKit          3D

 32 34  0  0  1  0  0  0  0  0999 V2000
    9.7308  -15.7430   19.5785 N   0  0  0  0  0  0  0  0  0  0  0  0
    8.5227  -15.3268   20.2339 C   0  0  1  0  0  0  0  0  0  0  0  0
    7.3702  -15.3111   19.2491 C   0  0  0  0  0  0  0  0  0  0  0  0
    7.7653  -14.5843   17.9960 C   0  0  0  0  0  0  0  0  0  0  0  0
    8.0750  -13.2469   17.8931 C   0  0  0  0  0  0  0  0  0  0  0  0
    8.3707  -12.9826   16.6097 N   0  0  0  0  0  0  0  0  0  0  0  0
    8.2491  -14.1231   15.9310 C   0  0  0  0  0  0  0  0  0  0  0  0
    7.8810  -15.1029   16.7669 N   0  0  0  0  0  0  0  0  0  0  0  0
    8.1847  -16.2793   21.3695 C   0  0  0  0  0  0  0  0  0  0  0  0
    7.3159  -17.1534   21.2028 O   0  0  0  0  0  0  0  0  0  0  0  0
   10.4445  -19.1871   24.1098 C   0  0  0  0  0  0  0  0  0  0  0  0
   10.1922  -18.2216   22.9785 C   0  0  2  0  0  0  0  0  0  0  0  0
   11.5271  -17.6572   22.5401 C   0  0  0  0  0  0  0  0  0  0  0  0
    9.3578  -17.0771   23.5093 C   0  0  2  0  0  0  0  0  0  0  0  0
    8.8789  -16.1286   22.5757 N   0  0  0  0  0  0  0  0  0  0  0  0
    9.9916  -16.4829   24.7006 C   0  0  0  0  0  0  0  0  0  0  0  0
   10.9981  -15.7294   24.6877 O   0  0  0  0  0  0  0  0  0  0  0  0
    9.4740  -16.7354   26.0278 N   0  0  0  0  0  0  0  0  0  0  0  0
   10.0491  -16.0866   27.2069 C   0  0  1  0  0  0  0  0  0  0  0  0
    8.9879  -15.4968   28.0548 C   0  0  0  0  0  0  0  0  0  0  0  0
    7.8765  -14.9172   27.3086 C   0  0  0  0  0  0  0  0  0  0  0  0
    6.7665  -15.6035   26.8011 C   0  0  0  0  0  0  0  0  0  0  0  0
    5.9793  -14.7461   26.1447 N   0  0  0  0  0  0  0  0  0  0  0  0
    6.4973  -13.5074   26.1798 C   0  0  0  0  0  0  0  0  0  0  0  0
    6.0704  -12.2923   25.6808 C   0  0  0  0  0  0  0  0  0  0  0  0
    6.8011  -11.1483   25.8876 C   0  0  0  0  0  0  0  0  0  0  0  0
    7.9909  -11.2052   26.6094 C   0  0  0  0  0  0  0  0  0  0  0  0
    8.3853  -12.4289   27.0895 C   0  0  0  0  0  0  0  0  0  0  0  0
    7.6920  -13.6112   26.9119 C   0  0  0  0  0  0  0  0  0  0  0  0
   10.8995  -17.0374   27.9037 C   0  0  0  0  0  0  0  0  0  0  0  0
   11.0674  -18.3811   27.6007 O   0  0  0  0  0  0  0  0  0  0  0  0
   11.5732  -16.6216   28.9134 O   0  0  0  0  0  0  0  0  0  0  0  0
  2  1  1  6
  2  3  1  0
  3  4  1  0
  4  5  2  0
  6  5  1  0
  7  6  1  0
  8  7  2  0
  8  4  1  0
  9  2  1  0
 10  9  2  0
 12 14  1  0
 12 11  1  1
 13 12  1  0
 14 15  1  6
 15  9  1  0
 16 18  1  0
 16 14  1  0
 17 16  2  0
 19 30  1  0
 19 18  1  0
 19 20  1  1
 21 22  2  0
 21 20  1  0
 23 22  1  0
 24 29  2  0
 24 23  1  0
 25 24  1  0
 26 27  1  0
 26 25  2  0
 27 28  2  0
 28 29  1  0
 29 21  1  0
 30 31  1  0
 32 30  2  0
M  END
$$$$
