HVW.pdb
     RDKit          3D

 32 34  0  0  1  0  0  0  0  0999 V2000
    9.3704  -19.2097   20.9037 N   0  0  0  0  0  0  0  0  0  0  0  0
   10.3794  -18.5398   20.1321 C   0  0  1  0  0  0  0  0  0  0  0  0
   10.1532  -18.7793   18.6522 C   0  0  0  0  0  0  0  0  0  0  0  0
   10.2688  -20.2430   18.3375 C   0  0  0  0  0  0  0  0  0  0  0  0
   11.4325  -20.9768   18.2906 C   0  0  0  0  0  0  0  0  0  0  0  0
   11.1171  -22.2430   17.9719 N   0  0  0  0  0  0  0  0  0  0  0  0
    9.7937  -22.2977   17.8243 C   0  0  0  0  0  0  0  0  0  0  0  0
    9.2695  -21.0849   18.0449 N   0  0  0  0  0  0  0  0  0  0  0  0
   10.3394  -17.0438   20.3987 C   0  0  0  0  0  0  0  0  0  0  0  0
   11.0156  -16.2739   19.6939 O   0  0  0  0  0  0  0  0  0  0  0  0
    7.7141  -13.3144   21.8575 C   0  0  0  0  0  0  0  0  0  0  0  0
    7.8978  -14.6964   21.2813 C   0  0  2  0  0  0  0  0  0  0  0  0
    6.7389  -15.5534   21.7453 C   0  0  0  0  0  0  0  0  0  0  0  0
    9.1675  -15.2846   21.8558 C   0  0  2  0  0  0  0  0  0  0  0  0
    9.5283  -16.5890   21.4450 N   0  0  0  0  0  0  0  0  0  0  0  0
    9.2214  -15.0756   23.3143 C   0  0  0  0  0  0  0  0  0  0  0  0
    9.1667  -13.9592   23.8902 O   0  0  0  0  0  0  0  0  0  0  0  0
    9.3441  -16.1923   24.2259 N   0  0  0  0  0  0  0  0  0  0  0  0
   10.2283  -16.1324   25.3907 C   0  0  1  0  0  0  0  0  0  0  0  0
    9.4655  -15.7989   26.6154 C   0  0  0  0  0  0  0  0  0  0  0  0
    8.1428  -15.2376   26.3643 C   0  0  0  0  0  0  0  0  0  0  0  0
    7.0045  -15.9409   25.9514 C   0  0  0  0  0  0  0  0  0  0  0  0
    5.9909  -15.0852   25.7902 N   0  0  0  0  0  0  0  0  0  0  0  0
    6.3813  -13.8316   26.0736 C   0  0  0  0  0  0  0  0  0  0  0  0
    5.7226  -12.6177   26.0803 C   0  0  0  0  0  0  0  0  0  0  0  0
    6.3726  -11.4639   26.4433 C   0  0  0  0  0  0  0  0  0  0  0  0
    7.7152  -11.5095   26.8111 C   0  0  0  0  0  0  0  0  0  0  0  0
    8.3384  -12.7321   26.7919 C   0  0  0  0  0  0  0  0  0  0  0  0
    7.7357  -13.9237   26.4355 C   0  0  0  0  0  0  0  0  0  0  0  0
   10.9761  -17.3754   25.4826 C   0  0  0  0  0  0  0  0  0  0  0  0
   10.9070  -18.4542   24.6125 O   0  0  0  0  0  0  0  0  0  0  0  0
   11.7889  -17.5228   26.4644 O   0  0  0  0  0  0  0  0  0  0  0  0
  2  1  1  1
  2  3  1  0
  3  4  1  0
  4  5  2  0
  6  5  1  0
  7  6  1  0
  8  7  2  0
  8  4  1  0
  9  2  1  0
 10  9  2  0
 12 14  1  0
 12 11  1  1
 13 12  1  0
 14 15  1  1
 15  9  1  0
 16 18  1  0
 16 14  1  0
 17 16  2  0
 19 30  1  0
 19 18  1  0
 19 20  1  1
 21 22  2  0
 21 20  1  0
 23 22  1  0
 24 29  2  0
 24 23  1  0
 25 24  1  0
 26 27  1  0
 26 25  2  0
 27 28  2  0
 28 29  1  0
 29 21  1  0
 30 31  1  0
 32 30  2  0
M  END
$$$$
