IDC.pdb
     RDKit          3D

 23 22  0  0  1  0  0  0  0  0999 V2000
    6.4115  -12.1086   27.3837 C   0  0  0  0  0  0  0  0  0  0  0  0
    6.0433  -13.3118   26.5695 C   0  0  0  0  0  0  0  0  0  0  0  0
    7.1436  -13.7652   25.6603 C   0  0  2  0  0  0  0  0  0  0  0  0
    7.5838  -12.6307   24.7606 C   0  0  0  0  0  0  0  0  0  0  0  0
    6.8779  -15.0296   24.9206 C   0  0  2  0  0  0  0  0  0  0  0  0
    6.0873  -15.9493   25.7840 N   0  0  0  0  0  0  0  0  0  0  0  0
    8.0618  -15.7887   24.4904 C   0  0  0  0  0  0  0  0  0  0  0  0
    7.8960  -16.9808   24.0419 O   0  0  0  0  0  0  0  0  0  0  0  0
    9.4022  -15.3572   24.5062 N   0  0  0  0  0  0  0  0  0  0  0  0
   10.5264  -16.2186   24.2031 C   0  0  1  0  0  0  0  0  0  0  0  0
   11.4594  -15.5210   23.2406 C   0  0  0  0  0  0  0  0  0  0  0  0
   12.3710  -16.4666   22.5679 C   0  0  0  0  0  0  0  0  0  0  0  0
   12.8026  -17.4602   23.2146 O   0  0  0  0  0  0  0  0  0  0  0  0
   11.3247  -16.5568   25.4051 C   0  0  0  0  0  0  0  0  0  0  0  0
   12.3973  -17.2053   25.3901 O   0  0  0  0  0  0  0  0  0  0  0  0
   12.7429  -16.2633   21.2498 O   0  0  0  0  0  0  0  0  0  0  0  0
   10.8157  -16.1012   26.6542 N   0  0  0  0  0  0  0  0  0  0  0  0
   11.4342  -16.3502   27.9242 C   0  0  1  0  0  0  0  0  0  0  0  0
   10.8895  -15.3189   28.9235 C   0  0  0  0  0  0  0  0  0  0  0  0
   10.8172  -13.6747   28.1237 S   0  0  0  0  0  0  0  0  0  0  0  0
   11.0946  -17.7178   28.3782 C   0  0  0  0  0  0  0  0  0  0  0  0
   11.6238  -18.1742   29.5739 O   0  0  0  0  0  0  0  0  0  0  0  0
   10.3515  -18.5107   27.7529 O   0  0  0  0  0  0  0  0  0  0  0  0
  1  2  1  0
  2  3  1  0
  3  5  1  0
  3  4  1  6
  5  7  1  0
  5  6  1  1
  7  9  1  0
  7  8  2  0
  9 10  1  0
 10 14  1  0
 10 11  1  6
 12 11  1  0
 12 16  1  0
 13 12  2  0
 14 17  1  0
 15 14  2  0
 17 18  1  0
 18 21  1  0
 18 19  1  1
 19 20  1  0
 21 23  2  0
 21 22  1  0
M  END
$$$$
