IDC.pdb
     RDKit          3D

 23 22  0  0  1  0  0  0  0  0999 V2000
    9.0252  -12.3315   19.9540 C   0  0  0  0  0  0  0  0  0  0  0  0
    8.7857  -13.2710   21.0967 C   0  0  0  0  0  0  0  0  0  0  0  0
    7.8367  -14.3788   20.7577 C   0  0  2  0  0  0  0  0  0  0  0  0
    6.5393  -13.8144   20.2206 C   0  0  0  0  0  0  0  0  0  0  0  0
    7.6348  -15.3941   21.8278 C   0  0  2  0  0  0  0  0  0  0  0  0
    7.0593  -14.7340   23.0316 N   0  0  0  0  0  0  0  0  0  0  0  0
    8.8408  -16.1006   22.2855 C   0  0  0  0  0  0  0  0  0  0  0  0
    9.3168  -17.0401   21.5505 O   0  0  0  0  0  0  0  0  0  0  0  0
    9.5672  -15.8668   23.4691 N   0  0  0  0  0  0  0  0  0  0  0  0
   10.7779  -16.5791   23.8218 C   0  0  1  0  0  0  0  0  0  0  0  0
   11.7813  -16.4687   22.6974 C   0  0  0  0  0  0  0  0  0  0  0  0
   13.0201  -17.2180   22.9838 C   0  0  0  0  0  0  0  0  0  0  0  0
   14.0589  -16.5769   23.3025 O   0  0  0  0  0  0  0  0  0  0  0  0
   11.4296  -16.0286   25.0338 C   0  0  0  0  0  0  0  0  0  0  0  0
   12.4316  -16.5303   25.5954 O   0  0  0  0  0  0  0  0  0  0  0  0
   13.0371  -18.6000   22.9033 O   0  0  0  0  0  0  0  0  0  0  0  0
   10.8577  -14.8449   25.5800 N   0  0  0  0  0  0  0  0  0  0  0  0
   10.5555  -14.6535   26.9690 C   0  0  1  0  0  0  0  0  0  0  0  0
    9.1929  -13.9508   27.0621 C   0  0  0  0  0  0  0  0  0  0  0  0
    8.6997  -13.8078   28.8183 S   0  0  0  0  0  0  0  0  0  0  0  0
   10.4895  -15.9691   27.6450 C   0  0  0  0  0  0  0  0  0  0  0  0
   11.1860  -16.1461   28.8290 O   0  0  0  0  0  0  0  0  0  0  0  0
    9.8407  -16.9545   27.2213 O   0  0  0  0  0  0  0  0  0  0  0  0
  1  2  1  0
  2  3  1  0
  3  5  1  0
  3  4  1  1
  5  7  1  0
  5  6  1  1
  7  9  1  0
  7  8  2  0
  9 10  1  0
 10 14  1  0
 10 11  1  6
 12 11  1  0
 12 16  1  0
 13 12  2  0
 14 17  1  0
 15 14  2  0
 17 18  1  0
 18 21  1  0
 18 19  1  6
 19 20  1  0
 21 23  2  0
 21 22  1  0
M  END
$$$$
