IDC.pdb
     RDKit          3D

 23 22  0  0  1  0  0  0  0  0999 V2000
    7.2024  -11.9051   19.3044 C   0  0  0  0  0  0  0  0  0  0  0  0
    7.6332  -13.1853   18.6553 C   0  0  0  0  0  0  0  0  0  0  0  0
    8.5641  -13.9919   19.5071 C   0  0  2  0  0  0  0  0  0  0  0  0
    9.7402  -13.1471   19.9469 C   0  0  0  0  0  0  0  0  0  0  0  0
    8.9683  -15.3074   18.9391 C   0  0  2  0  0  0  0  0  0  0  0  0
    7.7515  -16.0705   18.5476 N   0  0  0  0  0  0  0  0  0  0  0  0
    9.7351  -16.1897   19.8318 C   0  0  0  0  0  0  0  0  0  0  0  0
    9.1113  -16.8004   20.7738 O   0  0  0  0  0  0  0  0  0  0  0  0
   11.1159  -16.4612   19.7805 N   0  0  0  0  0  0  0  0  0  0  0  0
   11.8108  -17.2746   20.7567 C   0  0  1  0  0  0  0  0  0  0  0  0
   13.2335  -17.5104   20.3053 C   0  0  0  0  0  0  0  0  0  0  0  0
   13.9610  -18.4172   21.2144 C   0  0  0  0  0  0  0  0  0  0  0  0
   15.0415  -18.0217   21.7318 O   0  0  0  0  0  0  0  0  0  0  0  0
   11.8851  -16.6272   22.0879 C   0  0  0  0  0  0  0  0  0  0  0  0
   12.4370  -15.5251   22.3156 O   0  0  0  0  0  0  0  0  0  0  0  0
   13.4623  -19.6785   21.4922 O   0  0  0  0  0  0  0  0  0  0  0  0
   11.2787  -17.3273   23.1690 N   0  0  0  0  0  0  0  0  0  0  0  0
   11.2589  -16.8668   24.5273 C   0  0  1  0  0  0  0  0  0  0  0  0
    9.7992  -16.5715   24.9032 C   0  0  0  0  0  0  0  0  0  0  0  0
    9.7286  -15.9318   26.6160 S   0  0  0  0  0  0  0  0  0  0  0  0
   11.8025  -17.9209   25.4134 C   0  0  0  0  0  0  0  0  0  0  0  0
   12.0572  -19.1738   24.8809 O   0  0  0  0  0  0  0  0  0  0  0  0
   12.0548  -17.7656   26.6315 O   0  0  0  0  0  0  0  0  0  0  0  0
  1  2  1  0
  2  3  1  0
  3  5  1  0
  3  4  1  6
  5  7  1  0
  5  6  1  1
  7  9  1  0
  7  8  2  0
  9 10  1  0
 10 14  1  0
 10 11  1  6
 12 11  1  0
 12 16  1  0
 13 12  2  0
 14 17  1  0
 15 14  2  0
 17 18  1  0
 18 21  1  0
 18 19  1  1
 19 20  1  0
 21 23  2  0
 21 22  1  0
M  END
$$$$
