IDC.pdb
     RDKit          3D

 23 22  0  0  1  0  0  0  0  0999 V2000
    7.4842  -11.8147   18.7868 C   0  0  0  0  0  0  0  0  0  0  0  0
    8.0818  -13.0428   18.1698 C   0  0  0  0  0  0  0  0  0  0  0  0
    8.8121  -13.9003   19.1568 C   0  0  2  0  0  0  0  0  0  0  0  0
    9.8205  -13.0747   19.9262 C   0  0  0  0  0  0  0  0  0  0  0  0
    9.3849  -15.1590   18.6054 C   0  0  2  0  0  0  0  0  0  0  0  0
    8.3179  -15.9173   17.8964 N   0  0  0  0  0  0  0  0  0  0  0  0
    9.9660  -16.0893   19.5852 C   0  0  0  0  0  0  0  0  0  0  0  0
    9.1714  -16.7930   20.3084 O   0  0  0  0  0  0  0  0  0  0  0  0
   11.3327  -16.3158   19.8379 N   0  0  0  0  0  0  0  0  0  0  0  0
   11.8213  -17.2180   20.8601 C   0  0  1  0  0  0  0  0  0  0  0  0
   13.2198  -17.6734   20.5135 C   0  0  0  0  0  0  0  0  0  0  0  0
   13.2596  -18.4263   19.2448 C   0  0  0  0  0  0  0  0  0  0  0  0
   13.7125  -17.8575   18.2138 O   0  0  0  0  0  0  0  0  0  0  0  0
   11.8971  -16.5783   22.1949 C   0  0  0  0  0  0  0  0  0  0  0  0
   12.7725  -15.7505   22.5408 O   0  0  0  0  0  0  0  0  0  0  0  0
   12.8072  -19.7337   19.1919 O   0  0  0  0  0  0  0  0  0  0  0  0
   10.8923  -16.9471   23.1337 N   0  0  0  0  0  0  0  0  0  0  0  0
   10.8392  -16.4871   24.4912 C   0  0  1  0  0  0  0  0  0  0  0  0
    9.3610  -16.3716   24.8919 C   0  0  0  0  0  0  0  0  0  0  0  0
    8.5206  -15.1823   23.7840 S   0  0  0  0  0  0  0  0  0  0  0  0
   11.5232  -17.4631   25.3696 C   0  0  0  0  0  0  0  0  0  0  0  0
   11.7508  -17.1241   26.6930 O   0  0  0  0  0  0  0  0  0  0  0  0
   11.9206  -18.5939   25.0022 O   0  0  0  0  0  0  0  0  0  0  0  0
  1  2  1  0
  2  3  1  0
  3  5  1  0
  3  4  1  6
  5  7  1  0
  5  6  1  1
  7  9  1  0
  7  8  2  0
  9 10  1  0
 10 14  1  0
 10 11  1  6
 12 11  1  0
 12 16  1  0
 13 12  2  0
 14 17  1  0
 15 14  2  0
 17 18  1  0
 18 21  1  0
 18 19  1  1
 19 20  1  0
 21 23  2  0
 21 22  1  0
M  END
$$$$
