IDC.pdb
     RDKit          3D

 23 22  0  0  1  0  0  0  0  0999 V2000
    5.7037  -11.9943   26.6544 C   0  0  0  0  0  0  0  0  0  0  0  0
    5.6303  -13.2399   25.8245 C   0  0  0  0  0  0  0  0  0  0  0  0
    6.9747  -13.8314   25.5321 C   0  0  2  0  0  0  0  0  0  0  0  0
    7.8817  -12.7933   24.9075 C   0  0  0  0  0  0  0  0  0  0  0  0
    6.9551  -15.1181   24.7835 C   0  0  2  0  0  0  0  0  0  0  0  0
    5.8968  -16.0005   25.3469 N   0  0  0  0  0  0  0  0  0  0  0  0
    8.1992  -15.9020   24.8111 C   0  0  0  0  0  0  0  0  0  0  0  0
    8.3591  -16.7651   25.7487 O   0  0  0  0  0  0  0  0  0  0  0  0
    9.2748  -15.8248   23.9055 N   0  0  0  0  0  0  0  0  0  0  0  0
   10.5085  -16.5677   24.0592 C   0  0  1  0  0  0  0  0  0  0  0  0
   11.3468  -16.4298   22.8096 C   0  0  0  0  0  0  0  0  0  0  0  0
   10.6715  -16.9913   21.6236 C   0  0  0  0  0  0  0  0  0  0  0  0
   10.0512  -18.0840   21.7372 O   0  0  0  0  0  0  0  0  0  0  0  0
   11.3341  -16.0731   25.1863 C   0  0  0  0  0  0  0  0  0  0  0  0
   12.2648  -15.2405   25.0775 O   0  0  0  0  0  0  0  0  0  0  0  0
   10.7200  -16.3269   20.4100 O   0  0  0  0  0  0  0  0  0  0  0  0
   11.0287  -16.5964   26.4745 N   0  0  0  0  0  0  0  0  0  0  0  0
   11.7592  -16.2913   27.6706 C   0  0  1  0  0  0  0  0  0  0  0  0
   11.5061  -14.8156   28.0135 C   0  0  0  0  0  0  0  0  0  0  0  0
    9.7276  -14.5683   28.3656 S   0  0  0  0  0  0  0  0  0  0  0  0
   11.2794  -17.1530   28.7747 C   0  0  0  0  0  0  0  0  0  0  0  0
   11.9240  -17.0892   29.9989 O   0  0  0  0  0  0  0  0  0  0  0  0
   10.3172  -17.9519   28.6866 O   0  0  0  0  0  0  0  0  0  0  0  0
  1  2  1  0
  2  3  1  0
  3  5  1  0
  3  4  1  6
  5  7  1  0
  5  6  1  1
  7  9  1  0
  7  8  2  0
  9 10  1  0
 10 14  1  0
 10 11  1  6
 12 11  1  0
 12 16  1  0
 13 12  2  0
 14 17  1  0
 15 14  2  0
 17 18  1  0
 18 21  1  0
 18 19  1  1
 19 20  1  0
 21 23  2  0
 21 22  1  0
M  END
$$$$
