IDC.pdb
     RDKit          3D

 23 22  0  0  1  0  0  0  0  0999 V2000
    5.8672  -11.8382   26.8010 C   0  0  0  0  0  0  0  0  0  0  0  0
    5.7194  -13.0981   26.0029 C   0  0  0  0  0  0  0  0  0  0  0  0
    7.0199  -13.8043   25.7733 C   0  0  2  0  0  0  0  0  0  0  0  0
    8.0741  -12.8255   25.3031 C   0  0  0  0  0  0  0  0  0  0  0  0
    6.9395  -15.0282   24.9295 C   0  0  2  0  0  0  0  0  0  0  0  0
    5.9217  -15.9536   25.4986 N   0  0  0  0  0  0  0  0  0  0  0  0
    8.1788  -15.8101   24.8036 C   0  0  0  0  0  0  0  0  0  0  0  0
    8.3153  -16.8629   25.5265 O   0  0  0  0  0  0  0  0  0  0  0  0
    9.2728  -15.5420   23.9585 N   0  0  0  0  0  0  0  0  0  0  0  0
   10.3987  -16.4381   23.7942 C   0  0  1  0  0  0  0  0  0  0  0  0
   11.2048  -16.0288   22.5834 C   0  0  0  0  0  0  0  0  0  0  0  0
   12.3900  -16.8866   22.3900 C   0  0  0  0  0  0  0  0  0  0  0  0
   12.3119  -18.1092   22.6914 O   0  0  0  0  0  0  0  0  0  0  0  0
   11.3220  -16.4105   24.9533 C   0  0  0  0  0  0  0  0  0  0  0  0
   12.3940  -17.0560   25.0272 O   0  0  0  0  0  0  0  0  0  0  0  0
   13.5647  -16.3548   21.8859 O   0  0  0  0  0  0  0  0  0  0  0  0
   10.9416  -15.5843   26.0485 N   0  0  0  0  0  0  0  0  0  0  0  0
   11.6477  -15.5097   27.2948 C   0  0  1  0  0  0  0  0  0  0  0  0
   11.2809  -14.1771   27.9647 C   0  0  0  0  0  0  0  0  0  0  0  0
    9.5531  -14.2509   28.5625 S   0  0  0  0  0  0  0  0  0  0  0  0
   11.2379  -16.6375   28.1619 C   0  0  0  0  0  0  0  0  0  0  0  0
   11.9366  -16.8642   29.3360 O   0  0  0  0  0  0  0  0  0  0  0  0
   10.2900  -17.4190   27.9117 O   0  0  0  0  0  0  0  0  0  0  0  0
  1  2  1  0
  2  3  1  0
  3  5  1  0
  3  4  1  6
  5  7  1  0
  5  6  1  1
  7  9  1  0
  7  8  2  0
  9 10  1  0
 10 14  1  0
 10 11  1  6
 12 11  1  0
 12 16  1  0
 13 12  2  0
 14 17  1  0
 15 14  2  0
 17 18  1  0
 18 21  1  0
 18 19  1  1
 19 20  1  0
 21 23  2  0
 21 22  1  0
M  END
$$$$
