IDC.pdb
     RDKit          3D

 23 22  0  0  1  0  0  0  0  0999 V2000
    8.1217  -12.0866   20.7385 C   0  0  0  0  0  0  0  0  0  0  0  0
    8.7234  -13.4536   20.6143 C   0  0  0  0  0  0  0  0  0  0  0  0
    7.7026  -14.5492   20.6373 C   0  0  2  0  0  0  0  0  0  0  0  0
    6.7295  -14.3378   21.7769 C   0  0  0  0  0  0  0  0  0  0  0  0
    8.2516  -15.9321   20.5853 C   0  0  2  0  0  0  0  0  0  0  0  0
    7.1501  -16.8893   20.2911 N   0  0  0  0  0  0  0  0  0  0  0  0
    8.8992  -16.4180   21.8132 C   0  0  0  0  0  0  0  0  0  0  0  0
    8.1585  -16.8826   22.7540 O   0  0  0  0  0  0  0  0  0  0  0  0
   10.2783  -16.4414   22.0967 N   0  0  0  0  0  0  0  0  0  0  0  0
   10.8306  -16.8837   23.3604 C   0  0  1  0  0  0  0  0  0  0  0  0
   12.2316  -17.4093   23.1495 C   0  0  0  0  0  0  0  0  0  0  0  0
   12.7963  -17.9933   24.3815 C   0  0  0  0  0  0  0  0  0  0  0  0
   12.0439  -18.6715   25.1337 O   0  0  0  0  0  0  0  0  0  0  0  0
   10.9287  -15.7878   24.3535 C   0  0  0  0  0  0  0  0  0  0  0  0
   11.3066  -14.6212   24.0938 O   0  0  0  0  0  0  0  0  0  0  0  0
   14.1290  -17.7983   24.7020 O   0  0  0  0  0  0  0  0  0  0  0  0
   10.5619  -16.1085   25.6911 N   0  0  0  0  0  0  0  0  0  0  0  0
   10.3640  -15.1437   26.7339 C   0  0  1  0  0  0  0  0  0  0  0  0
    9.0176  -14.4487   26.4831 C   0  0  0  0  0  0  0  0  0  0  0  0
    8.7181  -13.2090   27.7952 S   0  0  0  0  0  0  0  0  0  0  0  0
   10.3377  -15.8324   28.0442 C   0  0  0  0  0  0  0  0  0  0  0  0
   10.7110  -15.1269   29.1760 O   0  0  0  0  0  0  0  0  0  0  0  0
    9.9979  -17.0273   28.2128 O   0  0  0  0  0  0  0  0  0  0  0  0
  1  2  1  0
  2  3  1  0
  3  5  1  0
  3  4  1  1
  5  7  1  0
  5  6  1  1
  7  9  1  0
  7  8  2  0
  9 10  1  0
 10 14  1  0
 10 11  1  6
 12 11  1  0
 12 16  1  0
 13 12  2  0
 14 17  1  0
 15 14  2  0
 17 18  1  0
 18 21  1  0
 18 19  1  6
 19 20  1  0
 21 23  2  0
 21 22  1  0
M  END
$$$$
