IDC.pdb
     RDKit          3D

 23 22  0  0  1  0  0  0  0  0999 V2000
    5.6329  -11.6489   26.6514 C   0  0  0  0  0  0  0  0  0  0  0  0
    5.4758  -13.0088   26.0414 C   0  0  0  0  0  0  0  0  0  0  0  0
    6.7813  -13.6373   25.6627 C   0  0  2  0  0  0  0  0  0  0  0  0
    7.6286  -12.6586   24.8786 C   0  0  0  0  0  0  0  0  0  0  0  0
    6.6802  -14.9740   25.0150 C   0  0  2  0  0  0  0  0  0  0  0  0
    5.7863  -15.8476   25.8236 N   0  0  0  0  0  0  0  0  0  0  0  0
    7.9416  -15.7136   24.8568 C   0  0  0  0  0  0  0  0  0  0  0  0
    8.1776  -16.6988   25.6463 O   0  0  0  0  0  0  0  0  0  0  0  0
    8.9587  -15.4708   23.9136 N   0  0  0  0  0  0  0  0  0  0  0  0
   10.0688  -16.3713   23.6805 C   0  0  1  0  0  0  0  0  0  0  0  0
   10.5898  -16.1864   22.2742 C   0  0  0  0  0  0  0  0  0  0  0  0
   11.7636  -17.0381   22.0009 C   0  0  0  0  0  0  0  0  0  0  0  0
   11.6604  -18.2854   22.1596 O   0  0  0  0  0  0  0  0  0  0  0  0
   11.2071  -16.1207   24.5960 C   0  0  0  0  0  0  0  0  0  0  0  0
   12.2902  -16.7514   24.5772 O   0  0  0  0  0  0  0  0  0  0  0  0
   12.9549  -16.4739   21.5774 O   0  0  0  0  0  0  0  0  0  0  0  0
   11.0332  -15.0843   25.5563 N   0  0  0  0  0  0  0  0  0  0  0  0
   11.2998  -15.2219   26.9590 C   0  0  1  0  0  0  0  0  0  0  0  0
   10.1237  -14.5985   27.7253 C   0  0  0  0  0  0  0  0  0  0  0  0
   10.3500  -14.8761   29.5197 S   0  0  0  0  0  0  0  0  0  0  0  0
   11.4170  -16.6578   27.3000 C   0  0  0  0  0  0  0  0  0  0  0  0
   12.5984  -17.1163   27.8588 O   0  0  0  0  0  0  0  0  0  0  0  0
   10.5135  -17.5078   27.1187 O   0  0  0  0  0  0  0  0  0  0  0  0
  1  2  1  0
  2  3  1  0
  3  5  1  0
  3  4  1  6
  5  7  1  0
  5  6  1  1
  7  9  1  0
  7  8  2  0
  9 10  1  0
 10 14  1  0
 10 11  1  6
 12 11  1  0
 12 16  1  0
 13 12  2  0
 14 17  1  0
 15 14  2  0
 17 18  1  0
 18 21  1  0
 18 19  1  1
 19 20  1  0
 21 23  2  0
 21 22  1  0
M  END
$$$$
