IDC.pdb
     RDKit          3D

 23 22  0  0  1  0  0  0  0  0999 V2000
    5.9097  -12.1610   26.7661 C   0  0  0  0  0  0  0  0  0  0  0  0
    5.8172  -13.4072   25.9388 C   0  0  0  0  0  0  0  0  0  0  0  0
    7.1549  -13.9944   25.6091 C   0  0  2  0  0  0  0  0  0  0  0  0
    8.0789  -12.9261   25.0658 C   0  0  0  0  0  0  0  0  0  0  0  0
    7.1214  -15.2224   24.7680 C   0  0  2  0  0  0  0  0  0  0  0  0
    6.0954  -16.1590   25.3032 N   0  0  0  0  0  0  0  0  0  0  0  0
    8.3745  -15.9884   24.6910 C   0  0  0  0  0  0  0  0  0  0  0  0
    8.5269  -16.9946   25.4746 O   0  0  0  0  0  0  0  0  0  0  0  0
    9.4665  -15.7511   23.8340 N   0  0  0  0  0  0  0  0  0  0  0  0
   10.6515  -16.5828   23.7946 C   0  0  1  0  0  0  0  0  0  0  0  0
   11.5263  -16.1707   22.6336 C   0  0  0  0  0  0  0  0  0  0  0  0
   10.9752  -16.6147   21.3386 C   0  0  0  0  0  0  0  0  0  0  0  0
   11.4605  -16.1391   20.2756 O   0  0  0  0  0  0  0  0  0  0  0  0
   11.4766  -16.4565   25.0193 C   0  0  0  0  0  0  0  0  0  0  0  0
   12.6128  -16.9640   25.1697 O   0  0  0  0  0  0  0  0  0  0  0  0
    9.9439  -17.5375   21.2959 O   0  0  0  0  0  0  0  0  0  0  0  0
   10.9163  -15.6998   26.0871 N   0  0  0  0  0  0  0  0  0  0  0  0
   11.5657  -15.4617   27.3437 C   0  0  1  0  0  0  0  0  0  0  0  0
   11.2799  -14.0094   27.7538 C   0  0  0  0  0  0  0  0  0  0  0  0
   11.0244  -13.9264   29.5638 S   0  0  0  0  0  0  0  0  0  0  0  0
   11.0221  -16.3879   28.3628 C   0  0  0  0  0  0  0  0  0  0  0  0
    9.9623  -17.2104   28.0189 O   0  0  0  0  0  0  0  0  0  0  0  0
   11.4539  -16.4875   29.5356 O   0  0  0  0  0  0  0  0  0  0  0  0
  1  2  1  0
  2  3  1  0
  3  5  1  0
  3  4  1  6
  5  7  1  0
  5  6  1  1
  7  9  1  0
  7  8  2  0
  9 10  1  0
 10 14  1  0
 10 11  1  6
 12 11  1  0
 12 16  1  0
 13 12  2  0
 14 17  1  0
 15 14  2  0
 17 18  1  0
 18 21  1  0
 18 19  1  1
 19 20  1  0
 21 23  2  0
 21 22  1  0
M  END
$$$$
