IDC.pdb
     RDKit          3D

 23 22  0  0  1  0  0  0  0  0999 V2000
    8.1751  -12.6897   19.9658 C   0  0  0  0  0  0  0  0  0  0  0  0
    7.9197  -13.2203   21.3439 C   0  0  0  0  0  0  0  0  0  0  0  0
    7.7392  -14.7066   21.3772 C   0  0  2  0  0  0  0  0  0  0  0  0
    6.6006  -15.1189   20.4694 C   0  0  0  0  0  0  0  0  0  0  0  0
    7.6507  -15.3070   22.7367 C   0  0  2  0  0  0  0  0  0  0  0  0
    7.4331  -14.2281   23.7391 N   0  0  0  0  0  0  0  0  0  0  0  0
    8.8318  -16.0561   23.1916 C   0  0  0  0  0  0  0  0  0  0  0  0
    8.7830  -17.3395   23.1864 O   0  0  0  0  0  0  0  0  0  0  0  0
   10.0543  -15.5249   23.6459 N   0  0  0  0  0  0  0  0  0  0  0  0
   11.1630  -16.3379   24.1014 C   0  0  1  0  0  0  0  0  0  0  0  0
   12.4319  -15.9095   23.4015 C   0  0  0  0  0  0  0  0  0  0  0  0
   12.5419  -16.4885   22.0486 C   0  0  0  0  0  0  0  0  0  0  0  0
   12.0281  -17.6193   21.8271 O   0  0  0  0  0  0  0  0  0  0  0  0
   11.4088  -16.2015   25.5566 C   0  0  0  0  0  0  0  0  0  0  0  0
   12.3954  -16.6828   26.1617 O   0  0  0  0  0  0  0  0  0  0  0  0
   13.1978  -15.7990   21.0429 O   0  0  0  0  0  0  0  0  0  0  0  0
   10.4406  -15.4670   26.2979 N   0  0  0  0  0  0  0  0  0  0  0  0
   10.5091  -15.2254   27.7101 C   0  0  1  0  0  0  0  0  0  0  0  0
    9.4107  -14.2134   28.0686 C   0  0  0  0  0  0  0  0  0  0  0  0
    9.5497  -12.7512   26.9775 S   0  0  0  0  0  0  0  0  0  0  0  0
   10.2812  -16.4937   28.4390 C   0  0  0  0  0  0  0  0  0  0  0  0
   10.5016  -16.5263   29.8059 O   0  0  0  0  0  0  0  0  0  0  0  0
    9.8974  -17.5613   27.9055 O   0  0  0  0  0  0  0  0  0  0  0  0
  1  2  1  0
  2  3  1  0
  3  5  1  0
  3  4  1  6
  5  7  1  0
  5  6  1  1
  7  9  1  0
  7  8  2  0
  9 10  1  0
 10 14  1  0
 10 11  1  6
 12 11  1  0
 12 16  1  0
 13 12  2  0
 14 17  1  0
 15 14  2  0
 17 18  1  0
 18 21  1  0
 18 19  1  1
 19 20  1  0
 21 23  2  0
 21 22  1  0
M  END
$$$$
