VQP.pdb
     RDKit          3D

 24 24  0  0  1  0  0  0  0  0999 V2000
    9.2973  -13.5793   18.5849 C   0  0  0  0  0  0  0  0  0  0  0  0
    8.6751  -13.6814   19.9637 C   0  0  1  0  0  0  0  0  0  0  0  0
    7.4741  -12.7665   20.0573 C   0  0  0  0  0  0  0  0  0  0  0  0
    8.2083  -15.0761   20.2664 C   0  0  2  0  0  0  0  0  0  0  0  0
    7.3263  -15.5165   19.2228 N   0  0  0  0  0  0  0  0  0  0  0  0
    7.4646  -15.1364   21.5673 C   0  0  0  0  0  0  0  0  0  0  0  0
    6.2180  -14.9967   21.5997 O   0  0  0  0  0  0  0  0  0  0  0  0
    7.5902  -19.6676   24.7307 N   0  0  0  0  0  0  0  0  0  0  0  0
    7.0653  -18.9118   25.7947 C   0  0  0  0  0  0  0  0  0  0  0  0
    6.6649  -19.4320   26.8447 O   0  0  0  0  0  0  0  0  0  0  0  0
    6.9908  -17.4103   25.6428 C   0  0  0  0  0  0  0  0  0  0  0  0
    7.4850  -17.0532   24.2880 C   0  0  0  0  0  0  0  0  0  0  0  0
    7.5500  -15.5589   24.0498 C   0  0  2  0  0  0  0  0  0  0  0  0
    8.1957  -15.3519   22.7409 N   0  0  0  0  0  0  0  0  0  0  0  0
    8.1982  -14.7669   25.0839 C   0  0  0  0  0  0  0  0  0  0  0  0
    9.4713  -14.9185   25.1882 O   0  0  0  0  0  0  0  0  0  0  0  0
    7.6365  -13.8426   25.9928 N   0  0  0  0  0  0  0  0  0  0  0  0
    6.2499  -13.4045   25.9574 C   0  0  0  0  0  0  0  0  0  0  0  0
    6.3543  -11.9649   26.5361 C   0  0  0  0  0  0  0  0  0  0  0  0
    7.2635  -12.2874   27.7062 C   0  0  0  0  0  0  0  0  0  0  0  0
    8.3066  -13.1606   27.0875 C   0  0  1  0  0  0  0  0  0  0  0  0
    8.9270  -14.0939   28.0324 C   0  0  0  0  0  0  0  0  0  0  0  0
    8.6310  -15.3019   27.9949 O   0  0  0  0  0  0  0  0  0  0  0  0
    9.8396  -13.6501   28.9679 O   0  0  0  0  0  0  0  0  0  0  0  0
  2  3  1  6
  2  1  1  0
  4  6  1  0
  4  2  1  0
  4  5  1  6
  6  7  2  0
  8  9  1  0
  9 11  1  0
  9 10  2  0
 11 12  1  0
 13 12  1  1
 14  6  1  0
 14 13  1  0
 15 17  1  0
 15 13  1  0
 16 15  2  0
 17 18  1  0
 19 18  1  0
 20 19  1  0
 21 20  1  0
 21 17  1  0
 22 24  1  0
 21 22  1  1
 23 22  2  0
M  END
$$$$
