VQP.pdb
     RDKit          3D

 24 24  0  0  1  0  0  0  0  0999 V2000
    8.0002  -12.4584   20.5829 C   0  0  0  0  0  0  0  0  0  0  0  0
    7.7416  -13.5690   19.5838 C   0  0  1  0  0  0  0  0  0  0  0  0
    8.5741  -13.3489   18.3401 C   0  0  0  0  0  0  0  0  0  0  0  0
    8.1015  -14.9172   20.1385 C   0  0  2  0  0  0  0  0  0  0  0  0
    7.7219  -15.9326   19.1973 N   0  0  0  0  0  0  0  0  0  0  0  0
    7.3921  -15.1862   21.4322 C   0  0  0  0  0  0  0  0  0  0  0  0
    6.1812  -15.5151   21.4424 O   0  0  0  0  0  0  0  0  0  0  0  0
    6.8949  -19.4861   23.9980 N   0  0  0  0  0  0  0  0  0  0  0  0
    6.7350  -18.8659   25.2504 C   0  0  0  0  0  0  0  0  0  0  0  0
    6.3214  -19.4758   26.2455 O   0  0  0  0  0  0  0  0  0  0  0  0
    7.0829  -17.4011   25.3776 C   0  0  0  0  0  0  0  0  0  0  0  0
    7.5364  -16.9120   24.0500 C   0  0  0  0  0  0  0  0  0  0  0  0
    7.5396  -15.4017   23.9382 C   0  0  2  0  0  0  0  0  0  0  0  0
    8.1144  -15.0611   22.6242 N   0  0  0  0  0  0  0  0  0  0  0  0
    8.2098  -14.6757   25.0062 C   0  0  0  0  0  0  0  0  0  0  0  0
    9.4785  -14.8660   25.1007 O   0  0  0  0  0  0  0  0  0  0  0  0
    7.6740  -13.7793   25.9577 N   0  0  0  0  0  0  0  0  0  0  0  0
    6.2964  -13.3124   25.9524 C   0  0  0  0  0  0  0  0  0  0  0  0
    6.4346  -11.9008   26.5901 C   0  0  0  0  0  0  0  0  0  0  0  0
    7.3459  -12.2904   27.7380 C   0  0  0  0  0  0  0  0  0  0  0  0
    8.3662  -13.1576   27.0744 C   0  0  1  0  0  0  0  0  0  0  0  0
    8.9746  -14.1421   27.9741 C   0  0  0  0  0  0  0  0  0  0  0  0
    8.6498  -15.3405   27.8921 O   0  0  0  0  0  0  0  0  0  0  0  0
    9.9074  -13.7574   28.9158 O   0  0  0  0  0  0  0  0  0  0  0  0
  2  3  1  6
  2  1  1  0
  4  6  1  0
  4  2  1  0
  4  5  1  6
  6  7  2  0
  8  9  1  0
  9 11  1  0
  9 10  2  0
 11 12  1  0
 13 12  1  1
 14  6  1  0
 14 13  1  0
 15 17  1  0
 15 13  1  0
 16 15  2  0
 17 18  1  0
 19 18  1  0
 20 19  1  0
 21 20  1  0
 21 17  1  0
 22 24  1  0
 21 22  1  1
 23 22  2  0
M  END
$$$$
