VQP.pdb
     RDKit          3D

 24 24  0  0  1  0  0  0  0  0999 V2000
    9.1762  -13.3527   18.6222 C   0  0  0  0  0  0  0  0  0  0  0  0
    8.5412  -13.5423   19.9858 C   0  0  1  0  0  0  0  0  0  0  0  0
    7.2802  -12.7130   20.0879 C   0  0  0  0  0  0  0  0  0  0  0  0
    8.1643  -14.9744   20.2345 C   0  0  2  0  0  0  0  0  0  0  0  0
    7.3056  -15.4280   19.1772 N   0  0  0  0  0  0  0  0  0  0  0  0
    7.4332  -15.1323   21.5344 C   0  0  0  0  0  0  0  0  0  0  0  0
    6.1826  -15.0411   21.5812 O   0  0  0  0  0  0  0  0  0  0  0  0
    7.6241  -19.6485   24.8206 N   0  0  0  0  0  0  0  0  0  0  0  0
    7.0172  -18.8715   25.8239 C   0  0  0  0  0  0  0  0  0  0  0  0
    6.5342  -19.3702   26.8491 O   0  0  0  0  0  0  0  0  0  0  0  0
    6.9564  -17.3735   25.6358 C   0  0  0  0  0  0  0  0  0  0  0  0
    7.5559  -17.0439   24.3169 C   0  0  0  0  0  0  0  0  0  0  0  0
    7.5568  -15.5600   24.0144 C   0  0  2  0  0  0  0  0  0  0  0  0
    8.1806  -15.3834   22.6905 N   0  0  0  0  0  0  0  0  0  0  0  0
    8.1818  -14.6982   25.0062 C   0  0  0  0  0  0  0  0  0  0  0  0
    9.4605  -14.7965   25.1055 O   0  0  0  0  0  0  0  0  0  0  0  0
    7.5918  -13.7560   25.8780 N   0  0  0  0  0  0  0  0  0  0  0  0
    6.1978  -13.3459   25.8123 C   0  0  0  0  0  0  0  0  0  0  0  0
    6.2681  -11.8867   26.3452 C   0  0  0  0  0  0  0  0  0  0  0  0
    7.1689  -12.1539   27.5357 C   0  0  0  0  0  0  0  0  0  0  0  0
    8.2355  -13.0265   26.9577 C   0  0  1  0  0  0  0  0  0  0  0  0
    8.8618  -13.9169   27.9396 C   0  0  0  0  0  0  0  0  0  0  0  0
    8.5806  -15.1290   27.9449 O   0  0  0  0  0  0  0  0  0  0  0  0
    9.7635  -13.4279   28.8631 O   0  0  0  0  0  0  0  0  0  0  0  0
  2  3  1  6
  2  1  1  0
  4  6  1  0
  4  2  1  0
  4  5  1  6
  6  7  2  0
  8  9  1  0
  9 11  1  0
  9 10  2  0
 11 12  1  0
 13 12  1  1
 14  6  1  0
 14 13  1  0
 15 17  1  0
 15 13  1  0
 16 15  2  0
 17 18  1  0
 19 18  1  0
 20 19  1  0
 21 20  1  0
 21 17  1  0
 22 24  1  0
 21 22  1  1
 23 22  2  0
M  END
$$$$
