VQP.pdb
     RDKit          3D

 24 24  0  0  1  0  0  0  0  0999 V2000
    9.0418  -13.5861   18.6188 C   0  0  0  0  0  0  0  0  0  0  0  0
    8.5172  -13.7097   20.0359 C   0  0  1  0  0  0  0  0  0  0  0  0
    7.3566  -12.7615   20.2413 C   0  0  0  0  0  0  0  0  0  0  0  0
    8.0277  -15.0978   20.3334 C   0  0  2  0  0  0  0  0  0  0  0  0
    7.0784  -15.4897   19.3303 N   0  0  0  0  0  0  0  0  0  0  0  0
    7.3539  -15.1677   21.6714 C   0  0  0  0  0  0  0  0  0  0  0  0
    6.1329  -14.9033   21.7884 O   0  0  0  0  0  0  0  0  0  0  0  0
    7.6729  -19.7483   25.0126 N   0  0  0  0  0  0  0  0  0  0  0  0
    7.2034  -18.9448   26.0673 C   0  0  0  0  0  0  0  0  0  0  0  0
    6.8760  -19.4145   27.1652 O   0  0  0  0  0  0  0  0  0  0  0  0
    7.0976  -17.4541   25.8442 C   0  0  0  0  0  0  0  0  0  0  0  0
    7.5012  -17.1618   24.4445 C   0  0  0  0  0  0  0  0  0  0  0  0
    7.5428  -15.6807   24.1310 C   0  0  2  0  0  0  0  0  0  0  0  0
    8.1209  -15.5346   22.7829 N   0  0  0  0  0  0  0  0  0  0  0  0
    8.2355  -14.8356   25.0916 C   0  0  0  0  0  0  0  0  0  0  0  0
    9.5069  -15.0122   25.1764 O   0  0  0  0  0  0  0  0  0  0  0  0
    7.7192  -13.8362   25.9462 N   0  0  0  0  0  0  0  0  0  0  0  0
    6.3806  -13.2785   25.8328 C   0  0  0  0  0  0  0  0  0  0  0  0
    6.5881  -11.8357   26.3747 C   0  0  0  0  0  0  0  0  0  0  0  0
    7.4115  -12.1992   27.5953 C   0  0  0  0  0  0  0  0  0  0  0  0
    8.3983  -13.1810   27.0516 C   0  0  1  0  0  0  0  0  0  0  0  0
    8.8896  -14.1344   28.0510 C   0  0  0  0  0  0  0  0  0  0  0  0
    8.4951  -15.3143   28.0282 O   0  0  0  0  0  0  0  0  0  0  0  0
    9.7880  -13.7405   29.0219 O   0  0  0  0  0  0  0  0  0  0  0  0
  2  3  1  6
  2  1  1  0
  4  6  1  0
  4  2  1  0
  4  5  1  6
  6  7  2  0
  8  9  1  0
  9 11  1  0
  9 10  2  0
 11 12  1  0
 13 12  1  1
 14  6  1  0
 14 13  1  0
 15 17  1  0
 15 13  1  0
 16 15  2  0
 17 18  1  0
 19 18  1  0
 20 19  1  0
 21 20  1  0
 21 17  1  0
 22 24  1  0
 21 22  1  1
 23 22  2  0
M  END
$$$$
