VQP.pdb
     RDKit          3D

 24 24  0  0  1  0  0  0  0  0999 V2000
    7.8897  -12.5871   20.7098 C   0  0  0  0  0  0  0  0  0  0  0  0
    7.6474  -13.7235   19.7360 C   0  0  1  0  0  0  0  0  0  0  0  0
    8.4713  -13.5155   18.4845 C   0  0  0  0  0  0  0  0  0  0  0  0
    8.0336  -15.0527   20.3182 C   0  0  2  0  0  0  0  0  0  0  0  0
    7.6661  -16.0951   19.4020 N   0  0  0  0  0  0  0  0  0  0  0  0
    7.3362  -15.3050   21.6217 C   0  0  0  0  0  0  0  0  0  0  0  0
    6.1241  -15.6282   21.6477 O   0  0  0  0  0  0  0  0  0  0  0  0
    6.3506  -19.9755   23.1121 N   0  0  0  0  0  0  0  0  0  0  0  0
    6.3966  -19.0180   24.1416 C   0  0  0  0  0  0  0  0  0  0  0  0
    6.4970  -19.3308   25.3354 O   0  0  0  0  0  0  0  0  0  0  0  0
    6.3200  -17.5558   23.7683 C   0  0  0  0  0  0  0  0  0  0  0  0
    7.4545  -16.8486   24.4165 C   0  0  0  0  0  0  0  0  0  0  0  0
    7.4693  -15.3602   24.1372 C   0  0  2  0  0  0  0  0  0  0  0  0
    8.0712  -15.1707   22.8050 N   0  0  0  0  0  0  0  0  0  0  0  0
    8.1236  -14.5223   25.1306 C   0  0  0  0  0  0  0  0  0  0  0  0
    9.4048  -14.6211   25.1885 O   0  0  0  0  0  0  0  0  0  0  0  0
    7.5597  -13.6030   26.0432 N   0  0  0  0  0  0  0  0  0  0  0  0
    6.1891  -13.1209   25.9726 C   0  0  0  0  0  0  0  0  0  0  0  0
    6.3177  -11.6996   26.5903 C   0  0  0  0  0  0  0  0  0  0  0  0
    7.1763  -12.0784   27.7817 C   0  0  0  0  0  0  0  0  0  0  0  0
    8.2126  -12.9688   27.1763 C   0  0  1  0  0  0  0  0  0  0  0  0
    8.7718  -13.9435   28.1177 C   0  0  0  0  0  0  0  0  0  0  0  0
    8.4290  -15.1377   28.0497 O   0  0  0  0  0  0  0  0  0  0  0  0
    9.6777  -13.5540   29.0834 O   0  0  0  0  0  0  0  0  0  0  0  0
  2  3  1  6
  2  1  1  0
  4  6  1  0
  4  2  1  0
  4  5  1  6
  6  7  2  0
  8  9  1  0
  9 11  1  0
  9 10  2  0
 11 12  1  0
 13 12  1  1
 14  6  1  0
 14 13  1  0
 15 17  1  0
 15 13  1  0
 16 15  2  0
 17 18  1  0
 19 18  1  0
 20 19  1  0
 21 20  1  0
 21 17  1  0
 22 24  1  0
 21 22  1  1
 23 22  2  0
M  END
$$$$
