VQP.pdb
     RDKit          3D

 24 24  0  0  1  0  0  0  0  0999 V2000
    9.1773  -13.4650   18.6138 C   0  0  0  0  0  0  0  0  0  0  0  0
    8.5282  -13.6475   19.9718 C   0  0  1  0  0  0  0  0  0  0  0  0
    7.2940  -12.7789   20.0750 C   0  0  0  0  0  0  0  0  0  0  0  0
    8.1039  -15.0690   20.2040 C   0  0  2  0  0  0  0  0  0  0  0  0
    7.2286  -15.4807   19.1431 N   0  0  0  0  0  0  0  0  0  0  0  0
    7.3702  -15.2181   21.5035 C   0  0  0  0  0  0  0  0  0  0  0  0
    6.1189  -15.1349   21.5458 O   0  0  0  0  0  0  0  0  0  0  0  0
    7.5608  -19.6924   24.8399 N   0  0  0  0  0  0  0  0  0  0  0  0
    7.0472  -18.8944   25.8783 C   0  0  0  0  0  0  0  0  0  0  0  0
    6.6568  -19.3720   26.9519 O   0  0  0  0  0  0  0  0  0  0  0  0
    6.9726  -17.4000   25.6678 C   0  0  0  0  0  0  0  0  0  0  0  0
    7.4902  -17.0936   24.3092 C   0  0  0  0  0  0  0  0  0  0  0  0
    7.4900  -15.6133   23.9890 C   0  0  2  0  0  0  0  0  0  0  0  0
    8.1160  -15.4519   22.6642 N   0  0  0  0  0  0  0  0  0  0  0  0
    8.1123  -14.7391   24.9715 C   0  0  0  0  0  0  0  0  0  0  0  0
    9.3936  -14.8162   25.0560 O   0  0  0  0  0  0  0  0  0  0  0  0
    7.5172  -13.8047   25.8482 N   0  0  0  0  0  0  0  0  0  0  0  0
    6.1084  -13.4434   25.8203 C   0  0  0  0  0  0  0  0  0  0  0  0
    6.1447  -11.9748   26.3305 C   0  0  0  0  0  0  0  0  0  0  0  0
    7.0902  -12.1933   27.4959 C   0  0  0  0  0  0  0  0  0  0  0  0
    8.1682  -13.0375   26.8971 C   0  0  1  0  0  0  0  0  0  0  0  0
    8.8546  -13.8914   27.8712 C   0  0  0  0  0  0  0  0  0  0  0  0
    9.6316  -13.3845   28.7004 O   0  0  0  0  0  0  0  0  0  0  0  0
    8.6506  -15.2564   27.8821 O   0  0  0  0  0  0  0  0  0  0  0  0
  2  3  1  6
  2  1  1  0
  4  6  1  0
  4  2  1  0
  4  5  1  6
  6  7  2  0
  8  9  1  0
  9 11  1  0
  9 10  2  0
 11 12  1  0
 13 12  1  1
 14  6  1  0
 14 13  1  0
 15 17  1  0
 15 13  1  0
 16 15  2  0
 17 18  1  0
 19 18  1  0
 20 19  1  0
 21 20  1  0
 21 17  1  0
 22 24  1  0
 21 22  1  1
 23 22  2  0
M  END
$$$$
