VQP.pdb
     RDKit          3D

 24 24  0  0  1  0  0  0  0  0999 V2000
    7.6527  -21.5432   17.9981 C   0  0  0  0  0  0  0  0  0  0  0  0
    7.6971  -20.1274   18.5384 C   0  0  1  0  0  0  0  0  0  0  0  0
    7.9197  -19.1493   17.4061 C   0  0  0  0  0  0  0  0  0  0  0  0
    6.4148  -19.7474   19.2212 C   0  0  2  0  0  0  0  0  0  0  0  0
    5.3268  -19.8853   18.2948 N   0  0  0  0  0  0  0  0  0  0  0  0
    6.4475  -18.3266   19.7002 C   0  0  0  0  0  0  0  0  0  0  0  0
    5.8940  -17.4149   19.0392 O   0  0  0  0  0  0  0  0  0  0  0  0
    7.7853  -16.9970   25.5277 N   0  0  0  0  0  0  0  0  0  0  0  0
    7.8340  -15.6772   25.0435 C   0  0  0  0  0  0  0  0  0  0  0  0
    8.0379  -14.7054   25.7834 O   0  0  0  0  0  0  0  0  0  0  0  0
    7.6290  -15.4453   23.5646 C   0  0  0  0  0  0  0  0  0  0  0  0
    7.3782  -16.7585   22.9165 C   0  0  0  0  0  0  0  0  0  0  0  0
    7.2813  -16.6720   21.4076 C   0  0  2  0  0  0  0  0  0  0  0  0
    7.1096  -18.0454   20.9004 N   0  0  0  0  0  0  0  0  0  0  0  0
    8.3752  -15.9960   20.7271 C   0  0  0  0  0  0  0  0  0  0  0  0
    9.3965  -16.7268   20.4483 O   0  0  0  0  0  0  0  0  0  0  0  0
    8.4823  -14.6488   20.3156 N   0  0  0  0  0  0  0  0  0  0  0  0
    7.4608  -13.6406   20.5519 C   0  0  0  0  0  0  0  0  0  0  0  0
    7.6580  -12.6937   19.3342 C   0  0  0  0  0  0  0  0  0  0  0  0
    9.1709  -12.6066   19.3942 C   0  0  0  0  0  0  0  0  0  0  0  0
    9.5795  -14.0306   19.5900 C   0  0  1  0  0  0  0  0  0  0  0  0
   10.8637  -14.1834   20.2804 C   0  0  0  0  0  0  0  0  0  0  0  0
   10.8864  -14.4902   21.4860 O   0  0  0  0  0  0  0  0  0  0  0  0
   12.0542  -13.9908   19.6091 O   0  0  0  0  0  0  0  0  0  0  0  0
  2  3  1  6
  2  1  1  0
  4  6  1  0
  4  2  1  0
  4  5  1  6
  6  7  2  0
  8  9  1  0
  9 11  1  0
  9 10  2  0
 11 12  1  0
 13 12  1  1
 14  6  1  0
 14 13  1  0
 15 17  1  0
 15 13  1  0
 16 15  2  0
 17 18  1  0
 19 18  1  0
 20 19  1  0
 21 20  1  0
 21 17  1  0
 22 24  1  0
 21 22  1  1
 23 22  2  0
M  END
$$$$
