VQP.pdb
     RDKit          3D

 24 24  0  0  1  0  0  0  0  0999 V2000
    9.1841  -13.3854   18.5863 C   0  0  0  0  0  0  0  0  0  0  0  0
    8.5954  -13.5819   19.9696 C   0  0  1  0  0  0  0  0  0  0  0  0
    7.3171  -12.7844   20.1048 C   0  0  0  0  0  0  0  0  0  0  0  0
    8.2632  -15.0215   20.2381 C   0  0  2  0  0  0  0  0  0  0  0  0
    7.4523  -15.5275   19.1670 N   0  0  0  0  0  0  0  0  0  0  0  0
    7.5011  -15.1795   21.5201 C   0  0  0  0  0  0  0  0  0  0  0  0
    6.2682  -14.9500   21.5649 O   0  0  0  0  0  0  0  0  0  0  0  0
    7.4007  -19.7554   24.9012 N   0  0  0  0  0  0  0  0  0  0  0  0
    6.9884  -18.9108   25.9478 C   0  0  0  0  0  0  0  0  0  0  0  0
    6.6077  -19.3468   27.0423 O   0  0  0  0  0  0  0  0  0  0  0  0
    7.0141  -17.4173   25.7197 C   0  0  0  0  0  0  0  0  0  0  0  0
    7.4764  -17.1651   24.3305 C   0  0  0  0  0  0  0  0  0  0  0  0
    7.5604  -15.6927   23.9861 C   0  0  2  0  0  0  0  0  0  0  0  0
    8.1993  -15.5885   22.6617 N   0  0  0  0  0  0  0  0  0  0  0  0
    8.2273  -14.8386   24.9571 C   0  0  0  0  0  0  0  0  0  0  0  0
    9.4891  -15.0401   25.1050 O   0  0  0  0  0  0  0  0  0  0  0  0
    7.6949  -13.8072   25.7625 N   0  0  0  0  0  0  0  0  0  0  0  0
    6.3887  -13.2020   25.5539 C   0  0  0  0  0  0  0  0  0  0  0  0
    6.6153  -11.7596   26.0889 C   0  0  0  0  0  0  0  0  0  0  0  0
    7.3431  -12.1339   27.3656 C   0  0  0  0  0  0  0  0  0  0  0  0
    8.3251  -13.1602   26.9012 C   0  0  1  0  0  0  0  0  0  0  0  0
    8.7136  -14.1152   27.9434 C   0  0  0  0  0  0  0  0  0  0  0  0
    8.1935  -15.2451   27.9734 O   0  0  0  0  0  0  0  0  0  0  0  0
    9.6527  -13.7775   28.8968 O   0  0  0  0  0  0  0  0  0  0  0  0
  2  3  1  6
  2  1  1  0
  4  6  1  0
  4  2  1  0
  4  5  1  6
  6  7  2  0
  8  9  1  0
  9 11  1  0
  9 10  2  0
 11 12  1  0
 13 12  1  1
 14  6  1  0
 14 13  1  0
 15 17  1  0
 15 13  1  0
 16 15  2  0
 17 18  1  0
 19 18  1  0
 20 19  1  0
 21 20  1  0
 21 17  1  0
 22 24  1  0
 21 22  1  1
 23 22  2  0
M  END
$$$$
