VQP.pdb
     RDKit          3D

 24 24  0  0  1  0  0  0  0  0999 V2000
    8.1067  -12.4005   20.7030 C   0  0  0  0  0  0  0  0  0  0  0  0
    7.8095  -13.4785   19.6791 C   0  0  1  0  0  0  0  0  0  0  0  0
    8.6263  -13.2416   18.4281 C   0  0  0  0  0  0  0  0  0  0  0  0
    8.1508  -14.8480   20.1917 C   0  0  2  0  0  0  0  0  0  0  0  0
    7.7373  -15.8298   19.2294 N   0  0  0  0  0  0  0  0  0  0  0  0
    7.4552  -15.1384   21.4883 C   0  0  0  0  0  0  0  0  0  0  0  0
    6.2314  -15.4144   21.5109 O   0  0  0  0  0  0  0  0  0  0  0  0
    7.9280  -19.2997   25.4101 N   0  0  0  0  0  0  0  0  0  0  0  0
    6.6827  -19.0287   24.8146 C   0  0  0  0  0  0  0  0  0  0  0  0
    5.7193  -19.8007   24.9092 O   0  0  0  0  0  0  0  0  0  0  0  0
    6.5232  -17.7459   24.0323 C   0  0  0  0  0  0  0  0  0  0  0  0
    7.8168  -17.0158   24.0640 C   0  0  0  0  0  0  0  0  0  0  0  0
    7.6575  -15.5126   23.9717 C   0  0  2  0  0  0  0  0  0  0  0  0
    8.2052  -15.0934   22.6689 N   0  0  0  0  0  0  0  0  0  0  0  0
    8.2344  -14.7334   25.0566 C   0  0  0  0  0  0  0  0  0  0  0  0
    9.5133  -14.8028   25.1758 O   0  0  0  0  0  0  0  0  0  0  0  0
    7.5970  -13.8986   26.0015 N   0  0  0  0  0  0  0  0  0  0  0  0
    6.1730  -13.6018   25.9975 C   0  0  0  0  0  0  0  0  0  0  0  0
    6.1414  -12.1773   26.6204 C   0  0  0  0  0  0  0  0  0  0  0  0
    7.0967  -12.4419   27.7682 C   0  0  0  0  0  0  0  0  0  0  0  0
    8.2123  -13.1861   27.1088 C   0  0  1  0  0  0  0  0  0  0  0  0
    8.9382  -14.0804   28.0157 C   0  0  0  0  0  0  0  0  0  0  0  0
    8.7231  -15.3055   27.9814 O   0  0  0  0  0  0  0  0  0  0  0  0
    9.8615  -13.5809   28.9117 O   0  0  0  0  0  0  0  0  0  0  0  0
  2  3  1  6
  2  1  1  0
  4  6  1  0
  4  2  1  0
  4  5  1  6
  6  7  2  0
  8  9  1  0
  9 11  1  0
  9 10  2  0
 11 12  1  0
 13 12  1  1
 14  6  1  0
 14 13  1  0
 15 17  1  0
 15 13  1  0
 16 15  2  0
 17 18  1  0
 19 18  1  0
 20 19  1  0
 21 20  1  0
 21 17  1  0
 22 24  1  0
 21 22  1  1
 23 22  2  0
M  END
$$$$
