VQP.pdb
     RDKit          3D

 24 24  0  0  1  0  0  0  0  0999 V2000
    7.9193  -12.4972   20.5562 C   0  0  0  0  0  0  0  0  0  0  0  0
    7.6105  -13.6207   19.5862 C   0  0  1  0  0  0  0  0  0  0  0  0
    8.4000  -13.4322   18.3097 C   0  0  0  0  0  0  0  0  0  0  0  0
    7.9734  -14.9641   20.1504 C   0  0  2  0  0  0  0  0  0  0  0  0
    7.5798  -15.9881   19.2243 N   0  0  0  0  0  0  0  0  0  0  0  0
    7.2787  -15.2179   21.4552 C   0  0  0  0  0  0  0  0  0  0  0  0
    6.0346  -15.3754   21.4985 O   0  0  0  0  0  0  0  0  0  0  0  0
    7.6441  -19.5855   24.6910 N   0  0  0  0  0  0  0  0  0  0  0  0
    6.9777  -18.8479   25.6863 C   0  0  0  0  0  0  0  0  0  0  0  0
    6.4727  -19.3821   26.6827 O   0  0  0  0  0  0  0  0  0  0  0  0
    6.8789  -17.3486   25.5261 C   0  0  0  0  0  0  0  0  0  0  0  0
    7.5115  -16.9745   24.2348 C   0  0  0  0  0  0  0  0  0  0  0  0
    7.4624  -15.4872   23.9536 C   0  0  2  0  0  0  0  0  0  0  0  0
    8.0526  -15.2741   22.6197 N   0  0  0  0  0  0  0  0  0  0  0  0
    8.0827  -14.6210   24.9444 C   0  0  0  0  0  0  0  0  0  0  0  0
    9.3672  -14.6643   24.9987 O   0  0  0  0  0  0  0  0  0  0  0  0
    7.4823  -13.7259   25.8577 N   0  0  0  0  0  0  0  0  0  0  0  0
    6.0650  -13.3983   25.8660 C   0  0  0  0  0  0  0  0  0  0  0  0
    6.0760  -11.9440   26.4163 C   0  0  0  0  0  0  0  0  0  0  0  0
    7.0485  -12.1714   27.5575 C   0  0  0  0  0  0  0  0  0  0  0  0
    8.1346  -12.9723   26.9155 C   0  0  1  0  0  0  0  0  0  0  0  0
    8.8598  -13.8356   27.8525 C   0  0  0  0  0  0  0  0  0  0  0  0
    8.6710  -15.0654   27.8350 O   0  0  0  0  0  0  0  0  0  0  0  0
    9.7535  -13.3016   28.7586 O   0  0  0  0  0  0  0  0  0  0  0  0
  2  3  1  6
  2  1  1  0
  4  6  1  0
  4  2  1  0
  4  5  1  6
  6  7  2  0
  8  9  1  0
  9 11  1  0
  9 10  2  0
 11 12  1  0
 13 12  1  1
 14  6  1  0
 14 13  1  0
 15 17  1  0
 15 13  1  0
 16 15  2  0
 17 18  1  0
 19 18  1  0
 20 19  1  0
 21 20  1  0
 21 17  1  0
 22 24  1  0
 21 22  1  1
 23 22  2  0
M  END
$$$$
