VQP.pdb
     RDKit          3D

 24 24  0  0  1  0  0  0  0  0999 V2000
    8.1399  -12.4979   20.7221 C   0  0  0  0  0  0  0  0  0  0  0  0
    7.8845  -13.5349   19.6460 C   0  0  1  0  0  0  0  0  0  0  0  0
    8.7862  -13.2795   18.4585 C   0  0  0  0  0  0  0  0  0  0  0  0
    8.1594  -14.9283   20.1337 C   0  0  2  0  0  0  0  0  0  0  0  0
    7.7718  -15.8689   19.1208 N   0  0  0  0  0  0  0  0  0  0  0  0
    7.3868  -15.2360   21.3817 C   0  0  0  0  0  0  0  0  0  0  0  0
    6.1471  -15.4255   21.3373 O   0  0  0  0  0  0  0  0  0  0  0  0
    7.6303  -18.5821   27.2627 N   0  0  0  0  0  0  0  0  0  0  0  0
    7.1794  -18.5862   25.9303 C   0  0  0  0  0  0  0  0  0  0  0  0
    7.2719  -19.5826   25.2010 O   0  0  0  0  0  0  0  0  0  0  0  0
    6.5605  -17.3241   25.3761 C   0  0  0  0  0  0  0  0  0  0  0  0
    7.2520  -16.9839   24.1059 C   0  0  0  0  0  0  0  0  0  0  0  0
    7.4031  -15.4928   23.8881 C   0  0  2  0  0  0  0  0  0  0  0  0
    8.0830  -15.3061   22.5935 N   0  0  0  0  0  0  0  0  0  0  0  0
    8.0747  -14.7499   24.9435 C   0  0  0  0  0  0  0  0  0  0  0  0
    9.3327  -14.9830   25.0774 O   0  0  0  0  0  0  0  0  0  0  0  0
    7.5508  -13.7970   25.8454 N   0  0  0  0  0  0  0  0  0  0  0  0
    6.1837  -13.3019   25.8050 C   0  0  0  0  0  0  0  0  0  0  0  0
    6.3472  -11.8641   26.3744 C   0  0  0  0  0  0  0  0  0  0  0  0
    7.2407  -12.2163   27.5481 C   0  0  0  0  0  0  0  0  0  0  0  0
    8.2473  -13.1362   26.9366 C   0  0  1  0  0  0  0  0  0  0  0  0
    8.8272  -14.0883   27.8886 C   0  0  0  0  0  0  0  0  0  0  0  0
    8.3947  -15.2538   27.9407 O   0  0  0  0  0  0  0  0  0  0  0  0
    9.8514  -13.7088   28.7325 O   0  0  0  0  0  0  0  0  0  0  0  0
  2  3  1  6
  2  1  1  0
  4  6  1  0
  4  2  1  0
  4  5  1  6
  6  7  2  0
  8  9  1  0
  9 11  1  0
  9 10  2  0
 11 12  1  0
 13 12  1  1
 14  6  1  0
 14 13  1  0
 15 17  1  0
 15 13  1  0
 16 15  2  0
 17 18  1  0
 19 18  1  0
 20 19  1  0
 21 20  1  0
 21 17  1  0
 22 24  1  0
 21 22  1  1
 23 22  2  0
M  END
$$$$
