FPS.pdb
     RDKit          3D

 25 26  0  0  1  0  0  0  0  0999 V2000
   21.7608  -21.0710  -14.2781 N   0  0  0  0  0  0  0  0  0  0  0  0
   22.1362  -20.4973  -13.0202 C   0  0  1  0  0  0  0  0  0  0  0  0
   21.7080  -19.0282  -12.9757 C   0  0  0  0  0  0  0  0  0  0  0  0
   21.3531  -18.6408  -14.3616 C   0  0  0  0  0  0  0  0  0  0  0  0
   22.2479  -18.1693  -15.2894 C   0  0  0  0  0  0  0  0  0  0  0  0
   21.8833  -17.8160  -16.5703 C   0  0  0  0  0  0  0  0  0  0  0  0
   20.5602  -17.9421  -16.9354 C   0  0  0  0  0  0  0  0  0  0  0  0
   19.6185  -18.4123  -16.0380 C   0  0  0  0  0  0  0  0  0  0  0  0
   20.0377  -18.7570  -14.7522 C   0  0  0  0  0  0  0  0  0  0  0  0
   21.6990  -21.2149  -11.8169 C   0  0  0  0  0  0  0  0  0  0  0  0
   20.4831  -21.6341  -11.8925 O   0  0  0  0  0  0  0  0  0  0  0  0
   22.4668  -21.4598  -10.6661 N   0  0  0  0  0  0  0  0  0  0  0  0
   23.9376  -21.6678  -10.6163 C   0  0  0  0  0  0  0  0  0  0  0  0
   24.3016  -20.7133   -9.4614 C   0  0  0  0  0  0  0  0  0  0  0  0
   23.0088  -20.4922   -8.6865 C   0  0  0  0  0  0  0  0  0  0  0  0
   22.1389  -21.6072   -9.2813 C   0  0  1  0  0  0  0  0  0  0  0  0
   20.7955  -21.6005   -8.8126 C   0  0  0  0  0  0  0  0  0  0  0  0
   19.9850  -20.6624   -8.7231 O   0  0  0  0  0  0  0  0  0  0  0  0
   18.6588  -24.7906   -9.2931 O   0  0  0  0  0  0  0  0  0  0  0  0
   18.0524  -23.6543   -8.7987 C   0  0  0  0  0  0  0  0  0  0  0  0
   18.9613  -22.9811   -7.7616 C   0  0  2  0  0  0  0  0  0  0  0  0
   20.2699  -22.8823   -8.3635 N   0  0  0  0  0  0  0  0  0  0  0  0
   18.9888  -23.9258   -6.5879 C   0  0  0  0  0  0  0  0  0  0  0  0
   20.0229  -24.5891   -6.3246 O   0  0  0  0  0  0  0  0  0  0  0  0
   17.8895  -24.1014   -5.7594 O   0  0  0  0  0  0  0  0  0  0  0  0
  2  1  1  6
  2 10  1  0
  3  2  1  0
  4  3  1  0
  4  9  1  0
  5  4  2  0
  6  5  1  0
  6  7  2  0
  7  8  1  0
  8  9  2  0
 10 11  2  0
 10 12  1  0
 12 13  1  0
 13 14  1  0
 15 14  1  0
 16 12  1  0
 16 15  1  0
 16 17  1  6
 18 17  2  0
 19 20  1  0
 21 20  1  6
 21 22  1  0
 21 23  1  0
 22 17  1  0
 23 25  1  0
 24 23  2  0
M  END
$$$$
