FPS.pdb
     RDKit          3D

 25 26  0  0  1  0  0  0  0  0999 V2000
   13.0834  -20.7865   -0.8591 N   0  0  0  0  0  0  0  0  0  0  0  0
   13.4265  -20.1394    0.3722 C   0  0  1  0  0  0  0  0  0  0  0  0
   12.1599  -19.8969    1.1972 C   0  0  0  0  0  0  0  0  0  0  0  0
   11.4329  -18.7784    0.5514 C   0  0  0  0  0  0  0  0  0  0  0  0
   10.7288  -18.8845   -0.6220 C   0  0  0  0  0  0  0  0  0  0  0  0
   10.0652  -17.8224   -1.1966 C   0  0  0  0  0  0  0  0  0  0  0  0
   10.1111  -16.5988   -0.5637 C   0  0  0  0  0  0  0  0  0  0  0  0
   10.8068  -16.4387    0.6210 C   0  0  0  0  0  0  0  0  0  0  0  0
   11.4626  -17.5449    1.1630 C   0  0  0  0  0  0  0  0  0  0  0  0
   14.4718  -20.7799    1.1792 C   0  0  0  0  0  0  0  0  0  0  0  0
   14.2281  -22.0201    1.4294 O   0  0  0  0  0  0  0  0  0  0  0  0
   15.6421  -20.1721    1.6634 N   0  0  0  0  0  0  0  0  0  0  0  0
   16.4015  -19.0756    1.0075 C   0  0  0  0  0  0  0  0  0  0  0  0
   16.5861  -18.1257    2.2079 C   0  0  0  0  0  0  0  0  0  0  0  0
   16.3873  -18.9865    3.4490 C   0  0  0  0  0  0  0  0  0  0  0  0
   16.4506  -20.3864    2.8243 C   0  0  1  0  0  0  0  0  0  0  0  0
   16.1944  -21.4396    3.7460 C   0  0  0  0  0  0  0  0  0  0  0  0
   15.1638  -21.7072    4.3874 O   0  0  0  0  0  0  0  0  0  0  0  0
   19.2676  -24.1082    4.0242 O   0  0  0  0  0  0  0  0  0  0  0  0
   18.0489  -24.5719    4.4750 C   0  0  0  0  0  0  0  0  0  0  0  0
   17.1945  -23.4019    4.9806 C   0  0  2  0  0  0  0  0  0  0  0  0
   17.2986  -22.3574    3.9892 N   0  0  0  0  0  0  0  0  0  0  0  0
   17.8394  -22.9711    6.2726 C   0  0  0  0  0  0  0  0  0  0  0  0
   18.4888  -21.8973    6.3366 O   0  0  0  0  0  0  0  0  0  0  0  0
   17.7453  -23.7302    7.4304 O   0  0  0  0  0  0  0  0  0  0  0  0
  2  1  1  6
  2 10  1  0
  3  2  1  0
  4  3  1  0
  4  9  1  0
  5  4  2  0
  6  5  1  0
  6  7  2  0
  7  8  1  0
  8  9  2  0
 10 11  2  0
 10 12  1  0
 12 13  1  0
 13 14  1  0
 15 14  1  0
 16 12  1  0
 16 15  1  0
 16 17  1  1
 18 17  2  0
 19 20  1  0
 21 20  1  6
 21 22  1  0
 21 23  1  0
 22 17  1  0
 23 25  1  0
 24 23  2  0
M  END
$$$$
