FPS.pdb
     RDKit          3D

 25 26  0  0  1  0  0  0  0  0999 V2000
   25.3697  -19.0810   -7.3988 N   0  0  0  0  0  0  0  0  0  0  0  0
   26.4016  -18.9208   -8.3796 C   0  0  1  0  0  0  0  0  0  0  0  0
   27.6718  -18.3910   -7.7092 C   0  0  0  0  0  0  0  0  0  0  0  0
   28.0038  -19.3307   -6.6122 C   0  0  0  0  0  0  0  0  0  0  0  0
   29.2200  -19.9486   -6.4603 C   0  0  0  0  0  0  0  0  0  0  0  0
   29.4946  -20.8195   -5.4285 C   0  0  0  0  0  0  0  0  0  0  0  0
   28.5026  -21.0814   -4.5079 C   0  0  0  0  0  0  0  0  0  0  0  0
   27.2595  -20.4847   -4.6158 C   0  0  0  0  0  0  0  0  0  0  0  0
   27.0305  -19.6099   -5.6788 C   0  0  0  0  0  0  0  0  0  0  0  0
   26.6920  -20.0878   -9.2210 C   0  0  0  0  0  0  0  0  0  0  0  0
   25.8606  -21.0564   -9.0457 O   0  0  0  0  0  0  0  0  0  0  0  0
   27.7444  -20.2103  -10.1435 N   0  0  0  0  0  0  0  0  0  0  0  0
   28.8131  -19.2094  -10.3988 C   0  0  0  0  0  0  0  0  0  0  0  0
   30.0518  -20.1266  -10.3540 C   0  0  0  0  0  0  0  0  0  0  0  0
   29.5290  -21.5371  -10.5950 C   0  0  0  0  0  0  0  0  0  0  0  0
   28.1098  -21.2230  -11.0858 C   0  0  1  0  0  0  0  0  0  0  0  0
   27.3098  -22.3782  -11.3097 C   0  0  0  0  0  0  0  0  0  0  0  0
   27.4050  -23.5212  -10.8307 O   0  0  0  0  0  0  0  0  0  0  0  0
   23.5308  -21.8686  -13.1290 O   0  0  0  0  0  0  0  0  0  0  0  0
   23.9074  -22.8761  -12.2651 C   0  0  0  0  0  0  0  0  0  0  0  0
   25.3413  -23.3267  -12.5747 C   0  0  2  0  0  0  0  0  0  0  0  0
   26.2026  -22.2168  -12.2418 N   0  0  0  0  0  0  0  0  0  0  0  0
   25.3622  -23.5859  -14.0589 C   0  0  0  0  0  0  0  0  0  0  0  0
   25.9365  -22.7866  -14.8400 O   0  0  0  0  0  0  0  0  0  0  0  0
   24.7570  -24.7020  -14.6191 O   0  0  0  0  0  0  0  0  0  0  0  0
  2  1  1  1
  2 10  1  0
  3  2  1  0
  4  3  1  0
  4  9  1  0
  5  4  2  0
  6  5  1  0
  6  7  2  0
  7  8  1  0
  8  9  2  0
 10 11  2  0
 10 12  1  0
 12 13  1  0
 13 14  1  0
 15 14  1  0
 16 12  1  0
 16 15  1  0
 16 17  1  1
 18 17  2  0
 19 20  1  0
 21 20  1  6
 21 22  1  0
 21 23  1  0
 22 17  1  0
 23 25  1  0
 24 23  2  0
M  END
$$$$
