FPS.pdb
     RDKit          3D

 25 26  0  0  1  0  0  0  0  0999 V2000
   22.4666  -19.4234  -12.9738 N   0  0  0  0  0  0  0  0  0  0  0  0
   23.7831  -19.9055  -12.6788 C   0  0  1  0  0  0  0  0  0  0  0  0
   23.7168  -21.3883  -12.3040 C   0  0  0  0  0  0  0  0  0  0  0  0
   23.1856  -21.4600  -10.9222 C   0  0  0  0  0  0  0  0  0  0  0  0
   23.9187  -21.1911   -9.7935 C   0  0  0  0  0  0  0  0  0  0  0  0
   23.3932  -21.2694   -8.5221 C   0  0  0  0  0  0  0  0  0  0  0  0
   22.0719  -21.6344   -8.3785 C   0  0  0  0  0  0  0  0  0  0  0  0
   21.2896  -21.9160   -9.4839 C   0  0  0  0  0  0  0  0  0  0  0  0
   21.8681  -21.8224  -10.7505 C   0  0  0  0  0  0  0  0  0  0  0  0
   24.8132  -19.6597  -13.6950 C   0  0  0  0  0  0  0  0  0  0  0  0
   24.3357  -19.1876  -14.7945 O   0  0  0  0  0  0  0  0  0  0  0  0
   26.1924  -19.8884  -13.5573 N   0  0  0  0  0  0  0  0  0  0  0  0
   26.9928  -19.7251  -12.3156 C   0  0  0  0  0  0  0  0  0  0  0  0
   27.7695  -21.0571  -12.3236 C   0  0  0  0  0  0  0  0  0  0  0  0
   27.7180  -21.5556  -13.7622 C   0  0  0  0  0  0  0  0  0  0  0  0
   27.2159  -20.2916  -14.4722 C   0  0  1  0  0  0  0  0  0  0  0  0
   26.9665  -20.4727  -15.8612 C   0  0  0  0  0  0  0  0  0  0  0  0
   26.2700  -21.3215  -16.4441 O   0  0  0  0  0  0  0  0  0  0  0  0
   28.9512  -17.7609  -18.2845 O   0  0  0  0  0  0  0  0  0  0  0  0
   27.7171  -18.1874  -18.7301 C   0  0  0  0  0  0  0  0  0  0  0  0
   27.4154  -19.5892  -18.1835 C   0  0  2  0  0  0  0  0  0  0  0  0
   27.6197  -19.5270  -16.7555 N   0  0  0  0  0  0  0  0  0  0  0  0
   28.4371  -20.4919  -18.8252 C   0  0  0  0  0  0  0  0  0  0  0  0
   29.3879  -20.9623  -18.1520 O   0  0  0  0  0  0  0  0  0  0  0  0
   28.3730  -20.8376  -20.1677 O   0  0  0  0  0  0  0  0  0  0  0  0
  2  1  1  6
  2 10  1  0
  3  2  1  0
  4  3  1  0
  4  9  1  0
  5  4  2  0
  6  5  1  0
  6  7  2  0
  7  8  1  0
  8  9  2  0
 10 11  2  0
 10 12  1  0
 12 13  1  0
 13 14  1  0
 15 14  1  0
 16 12  1  0
 16 15  1  0
 16 17  1  6
 18 17  2  0
 19 20  1  0
 21 20  1  6
 21 22  1  0
 21 23  1  0
 22 17  1  0
 23 25  1  0
 24 23  2  0
M  END
$$$$
