FPS.pdb
     RDKit          3D

 25 26  0  0  1  0  0  0  0  0999 V2000
   17.7669  -12.2313  -16.4079 N   0  0  0  0  0  0  0  0  0  0  0  0
   18.3296  -11.1544  -17.1670 C   0  0  1  0  0  0  0  0  0  0  0  0
   17.2176  -10.4174  -17.9180 C   0  0  0  0  0  0  0  0  0  0  0  0
   16.5446  -11.4172  -18.7806 C   0  0  0  0  0  0  0  0  0  0  0  0
   15.4304  -12.1317  -18.4174 C   0  0  0  0  0  0  0  0  0  0  0  0
   14.8304  -13.0563  -19.2443 C   0  0  0  0  0  0  0  0  0  0  0  0
   15.3744  -13.2726  -20.4921 C   0  0  0  0  0  0  0  0  0  0  0  0
   16.4968  -12.5786  -20.9066 C   0  0  0  0  0  0  0  0  0  0  0  0
   17.0678  -11.6526  -20.0325 C   0  0  0  0  0  0  0  0  0  0  0  0
   19.1885  -10.2162  -16.4348 C   0  0  0  0  0  0  0  0  0  0  0  0
   18.5283   -9.4244  -15.6621 O   0  0  0  0  0  0  0  0  0  0  0  0
   20.5885  -10.1307  -16.5140 N   0  0  0  0  0  0  0  0  0  0  0  0
   21.5375  -11.2716  -16.5976 C   0  0  0  0  0  0  0  0  0  0  0  0
   22.4242  -10.7941  -17.7653 C   0  0  0  0  0  0  0  0  0  0  0  0
   22.2165   -9.2874  -17.8510 C   0  0  0  0  0  0  0  0  0  0  0  0
   21.5056   -9.0325  -16.5155 C   0  0  1  0  0  0  0  0  0  0  0  0
   21.0807   -7.6863  -16.3379 C   0  0  0  0  0  0  0  0  0  0  0  0
   20.4165   -6.9521  -17.0895 O   0  0  0  0  0  0  0  0  0  0  0  0
   20.1640   -4.3311  -13.1112 O   0  0  0  0  0  0  0  0  0  0  0  0
   20.5571   -5.6186  -13.4130 C   0  0  0  0  0  0  0  0  0  0  0  0
   21.1612   -5.6681  -14.8227 C   0  0  2  0  0  0  0  0  0  0  0  0
   21.4754   -7.0522  -15.0877 N   0  0  0  0  0  0  0  0  0  0  0  0
   22.4212   -4.8457  -14.7418 C   0  0  0  0  0  0  0  0  0  0  0  0
   22.3636   -3.5931  -14.6619 O   0  0  0  0  0  0  0  0  0  0  0  0
   23.6810   -5.4276  -14.7517 O   0  0  0  0  0  0  0  0  0  0  0  0
  2  1  1  1
  2 10  1  0
  3  2  1  0
  4  3  1  0
  4  9  1  0
  5  4  2  0
  6  5  1  0
  6  7  2  0
  7  8  1  0
  8  9  2  0
 10 11  2  0
 10 12  1  0
 12 13  1  0
 13 14  1  0
 15 14  1  0
 16 12  1  0
 16 15  1  0
 16 17  1  6
 18 17  2  0
 19 20  1  0
 21 20  1  1
 21 22  1  0
 21 23  1  0
 22 17  1  0
 23 25  1  0
 24 23  2  0
M  END
$$$$
