FPS.pdb
     RDKit          3D

 25 26  0  0  1  0  0  0  0  0999 V2000
   27.2629  -19.5740  -15.9044 N   0  0  0  0  0  0  0  0  0  0  0  0
   26.5808  -20.0834  -14.7522 C   0  0  1  0  0  0  0  0  0  0  0  0
   26.7878  -19.1339  -13.5693 C   0  0  0  0  0  0  0  0  0  0  0  0
   26.2861  -19.8333  -12.3627 C   0  0  0  0  0  0  0  0  0  0  0  0
   25.0247  -19.6793  -11.8440 C   0  0  0  0  0  0  0  0  0  0  0  0
   24.5911  -20.3444  -10.7179 C   0  0  0  0  0  0  0  0  0  0  0  0
   25.4640  -21.2026  -10.0844 C   0  0  0  0  0  0  0  0  0  0  0  0
   26.7463  -21.3933  -10.5666 C   0  0  0  0  0  0  0  0  0  0  0  0
   27.1382  -20.6966  -11.7106 C   0  0  0  0  0  0  0  0  0  0  0  0
   25.1616  -20.4153  -14.9252 C   0  0  0  0  0  0  0  0  0  0  0  0
   24.4169  -19.3774  -15.0928 O   0  0  0  0  0  0  0  0  0  0  0  0
   24.5993  -21.7026  -14.9217 N   0  0  0  0  0  0  0  0  0  0  0  0
   25.3108  -22.9755  -15.2091 C   0  0  0  0  0  0  0  0  0  0  0  0
   24.8224  -23.8268  -14.0198 C   0  0  0  0  0  0  0  0  0  0  0  0
   23.5513  -23.1498  -13.5229 C   0  0  0  0  0  0  0  0  0  0  0  0
   23.2755  -22.1941  -14.6910 C   0  0  1  0  0  0  0  0  0  0  0  0
   22.1687  -21.3265  -14.4752 C   0  0  0  0  0  0  0  0  0  0  0  0
   22.0426  -20.3724  -13.6885 O   0  0  0  0  0  0  0  0  0  0  0  0
   19.5880  -20.0167  -17.2481 O   0  0  0  0  0  0  0  0  0  0  0  0
   18.9734  -20.8754  -16.3602 C   0  0  0  0  0  0  0  0  0  0  0  0
   19.7433  -20.9004  -15.0331 C   0  0  2  0  0  0  0  0  0  0  0  0
   20.9907  -21.5793  -15.2934 N   0  0  0  0  0  0  0  0  0  0  0  0
   18.8864  -21.7097  -14.0943 C   0  0  0  0  0  0  0  0  0  0  0  0
   18.9932  -22.9608  -14.0486 O   0  0  0  0  0  0  0  0  0  0  0  0
   17.9560  -21.1172  -13.2523 O   0  0  0  0  0  0  0  0  0  0  0  0
  2  1  1  6
  2 10  1  0
  3  2  1  0
  4  3  1  0
  4  9  1  0
  5  4  2  0
  6  5  1  0
  6  7  2  0
  7  8  1  0
  8  9  2  0
 10 11  2  0
 10 12  1  0
 12 13  1  0
 13 14  1  0
 15 14  1  0
 16 12  1  0
 16 15  1  0
 16 17  1  1
 18 17  2  0
 19 20  1  0
 21 20  1  6
 21 22  1  0
 21 23  1  0
 22 17  1  0
 23 25  1  0
 24 23  2  0
M  END
$$$$
