FPS.pdb
     RDKit          3D

 25 26  0  0  1  0  0  0  0  0999 V2000
   23.6974  -20.3122  -16.9963 N   0  0  0  0  0  0  0  0  0  0  0  0
   24.4648  -19.4061  -16.1947 C   0  0  1  0  0  0  0  0  0  0  0  0
   23.7777  -18.0385  -16.1621 C   0  0  0  0  0  0  0  0  0  0  0  0
   23.6108  -17.6067  -17.5701 C   0  0  0  0  0  0  0  0  0  0  0  0
   24.6475  -17.3155  -18.4212 C   0  0  0  0  0  0  0  0  0  0  0  0
   24.4565  -16.9143  -19.7255 C   0  0  0  0  0  0  0  0  0  0  0  0
   23.1658  -16.8008  -20.1958 C   0  0  0  0  0  0  0  0  0  0  0  0
   22.0859  -17.0825  -19.3787 C   0  0  0  0  0  0  0  0  0  0  0  0
   22.3316  -17.4851  -18.0652 C   0  0  0  0  0  0  0  0  0  0  0  0
   24.8098  -19.8598  -14.8422 C   0  0  0  0  0  0  0  0  0  0  0  0
   23.8071  -19.8452  -14.0332 O   0  0  0  0  0  0  0  0  0  0  0  0
   26.0750  -20.2818  -14.4009 N   0  0  0  0  0  0  0  0  0  0  0  0
   27.0743  -21.0460  -15.1924 C   0  0  0  0  0  0  0  0  0  0  0  0
   28.3378  -20.2113  -14.9014 C   0  0  0  0  0  0  0  0  0  0  0  0
   28.0320  -19.4306  -13.6295 C   0  0  0  0  0  0  0  0  0  0  0  0
   26.7696  -20.1626  -13.1557 C   0  0  1  0  0  0  0  0  0  0  0  0
   26.1692  -19.5859  -12.0018 C   0  0  0  0  0  0  0  0  0  0  0  0
   25.8956  -18.3994  -11.7518 O   0  0  0  0  0  0  0  0  0  0  0  0
   23.5948  -21.5144   -9.7324 O   0  0  0  0  0  0  0  0  0  0  0  0
   23.9513  -20.2072   -9.4725 C   0  0  0  0  0  0  0  0  0  0  0  0
   25.4694  -20.0364   -9.6181 C   0  0  2  0  0  0  0  0  0  0  0  0
   25.8127  -20.5131  -10.9370 N   0  0  0  0  0  0  0  0  0  0  0  0
   26.0703  -20.9263   -8.5610 C   0  0  0  0  0  0  0  0  0  0  0  0
   26.7367  -21.9418   -8.8826 O   0  0  0  0  0  0  0  0  0  0  0  0
   25.9159  -20.6668   -7.2065 O   0  0  0  0  0  0  0  0  0  0  0  0
  2  1  1  1
  2 10  1  0
  3  2  1  0
  4  3  1  0
  4  9  1  0
  5  4  2  0
  6  5  1  0
  6  7  2  0
  7  8  1  0
  8  9  2  0
 10 11  2  0
 10 12  1  0
 12 13  1  0
 13 14  1  0
 15 14  1  0
 16 12  1  0
 16 15  1  0
 16 17  1  1
 18 17  2  0
 19 20  1  0
 21 20  1  6
 21 22  1  0
 21 23  1  0
 22 17  1  0
 23 25  1  0
 24 23  2  0
M  END
$$$$
