FPS.pdb
     RDKit          3D

 25 26  0  0  1  0  0  0  0  0999 V2000
   37.4660  -11.3083   -6.4875 N   0  0  0  0  0  0  0  0  0  0  0  0
   37.9683  -10.0303   -6.8963 C   0  0  1  0  0  0  0  0  0  0  0  0
   37.3642   -8.9336   -6.0155 C   0  0  0  0  0  0  0  0  0  0  0  0
   37.1437   -7.7546   -6.8862 C   0  0  0  0  0  0  0  0  0  0  0  0
   37.2358   -7.7723   -8.2555 C   0  0  0  0  0  0  0  0  0  0  0  0
   37.0263   -6.6559   -9.0354 C   0  0  0  0  0  0  0  0  0  0  0  0
   36.7102   -5.4682   -8.4114 C   0  0  0  0  0  0  0  0  0  0  0  0
   36.6052   -5.3967   -7.0341 C   0  0  0  0  0  0  0  0  0  0  0  0
   36.8266   -6.5553   -6.2882 C   0  0  0  0  0  0  0  0  0  0  0  0
   39.4274   -9.8980   -6.9840 C   0  0  0  0  0  0  0  0  0  0  0  0
   40.0098   -9.9561   -5.8363 O   0  0  0  0  0  0  0  0  0  0  0  0
   40.1805   -9.7250   -8.1572 N   0  0  0  0  0  0  0  0  0  0  0  0
   39.7867  -10.1465   -9.5271 C   0  0  0  0  0  0  0  0  0  0  0  0
   40.1044   -8.8532  -10.3042 C   0  0  0  0  0  0  0  0  0  0  0  0
   41.0814   -8.0768   -9.4304 C   0  0  0  0  0  0  0  0  0  0  0  0
   41.4704   -9.1649   -8.4211 C   0  0  1  0  0  0  0  0  0  0  0  0
   42.3275   -8.7059   -7.3823 C   0  0  0  0  0  0  0  0  0  0  0  0
   42.3282   -7.6270   -6.7650 O   0  0  0  0  0  0  0  0  0  0  0  0
   43.7676  -11.2643   -4.7635 O   0  0  0  0  0  0  0  0  0  0  0  0
   44.8242  -10.5714   -5.3173 C   0  0  0  0  0  0  0  0  0  0  0  0
   44.3255   -9.2616   -5.9421 C   0  0  2  0  0  0  0  0  0  0  0  0
   43.3730   -9.6289   -6.9631 N   0  0  0  0  0  0  0  0  0  0  0  0
   45.5455   -8.6289   -6.5599 C   0  0  0  0  0  0  0  0  0  0  0  0
   45.9796   -9.0262   -7.6701 O   0  0  0  0  0  0  0  0  0  0  0  0
   46.2323   -7.5953   -5.9388 O   0  0  0  0  0  0  0  0  0  0  0  0
  2  1  1  1
  2 10  1  0
  3  2  1  0
  4  3  1  0
  4  9  1  0
  5  4  2  0
  6  5  1  0
  6  7  2  0
  7  8  1  0
  8  9  2  0
 10 11  2  0
 10 12  1  0
 12 13  1  0
 13 14  1  0
 15 14  1  0
 16 12  1  0
 16 15  1  0
 16 17  1  1
 18 17  2  0
 19 20  1  0
 21 20  1  6
 21 22  1  0
 21 23  1  0
 22 17  1  0
 23 25  1  0
 24 23  2  0
M  END
$$$$
