FPS.pdb
     RDKit          3D

 25 26  0  0  1  0  0  0  0  0999 V2000
   25.7847  -19.3360  -16.7564 N   0  0  0  0  0  0  0  0  0  0  0  0
   26.0364  -19.4163  -15.3483 C   0  0  1  0  0  0  0  0  0  0  0  0
   26.4542  -18.0413  -14.8205 C   0  0  0  0  0  0  0  0  0  0  0  0
   27.6835  -17.6542  -15.5526 C   0  0  0  0  0  0  0  0  0  0  0  0
   28.8833  -18.3142  -15.4592 C   0  0  0  0  0  0  0  0  0  0  0  0
   30.0084  -17.9257  -16.1532 C   0  0  0  0  0  0  0  0  0  0  0  0
   29.9243  -16.8246  -16.9780 C   0  0  0  0  0  0  0  0  0  0  0  0
   28.7385  -16.1244  -17.1075 C   0  0  0  0  0  0  0  0  0  0  0  0
   27.6267  -16.5576  -16.3835 C   0  0  0  0  0  0  0  0  0  0  0  0
   24.9709  -20.0002  -14.5251 C   0  0  0  0  0  0  0  0  0  0  0  0
   23.7963  -19.5790  -14.8459 O   0  0  0  0  0  0  0  0  0  0  0  0
   25.1352  -20.9264  -13.4817 N   0  0  0  0  0  0  0  0  0  0  0  0
   26.1703  -21.9902  -13.4029 C   0  0  0  0  0  0  0  0  0  0  0  0
   26.6747  -21.7635  -11.9635 C   0  0  0  0  0  0  0  0  0  0  0  0
   25.5669  -20.9944  -11.2550 C   0  0  0  0  0  0  0  0  0  0  0  0
   24.4242  -21.1684  -12.2639 C   0  0  1  0  0  0  0  0  0  0  0  0
   23.2403  -20.4581  -11.9201 C   0  0  0  0  0  0  0  0  0  0  0  0
   23.0765  -19.5127  -11.1298 O   0  0  0  0  0  0  0  0  0  0  0  0
   20.6715  -19.9143  -14.7087 O   0  0  0  0  0  0  0  0  0  0  0  0
   20.5468  -19.2511  -13.5054 C   0  0  0  0  0  0  0  0  0  0  0  0
   20.7615  -20.2275  -12.3412 C   0  0  2  0  0  0  0  0  0  0  0  0
   22.0201  -20.8909  -12.5870 N   0  0  0  0  0  0  0  0  0  0  0  0
   19.6204  -21.2075  -12.4320 C   0  0  0  0  0  0  0  0  0  0  0  0
   18.4421  -20.8411  -12.1955 O   0  0  0  0  0  0  0  0  0  0  0  0
   19.8187  -22.5373  -12.7756 O   0  0  0  0  0  0  0  0  0  0  0  0
  2  1  1  6
  2 10  1  0
  3  2  1  0
  4  3  1  0
  4  9  1  0
  5  4  2  0
  6  5  1  0
  6  7  2  0
  7  8  1  0
  8  9  2  0
 10 11  2  0
 10 12  1  0
 12 13  1  0
 13 14  1  0
 15 14  1  0
 16 12  1  0
 16 15  1  0
 16 17  1  1
 18 17  2  0
 19 20  1  0
 21 20  1  6
 21 22  1  0
 21 23  1  0
 22 17  1  0
 23 25  1  0
 24 23  2  0
M  END
$$$$
