FPS.pdb
     RDKit          3D

 25 26  0  0  1  0  0  0  0  0999 V2000
   18.8649  -28.7120   -9.7074 N   0  0  0  0  0  0  0  0  0  0  0  0
   18.0639  -27.7713   -8.9823 C   0  0  1  0  0  0  0  0  0  0  0  0
   16.5825  -28.1191   -9.1496 C   0  0  0  0  0  0  0  0  0  0  0  0
   16.1637  -27.5954  -10.4713 C   0  0  0  0  0  0  0  0  0  0  0  0
   16.1168  -26.2635  -10.7995 C   0  0  0  0  0  0  0  0  0  0  0  0
   15.7201  -25.8104  -12.0388 C   0  0  0  0  0  0  0  0  0  0  0  0
   15.3540  -26.7372  -12.9911 C   0  0  0  0  0  0  0  0  0  0  0  0
   15.3835  -28.0914  -12.7111 C   0  0  0  0  0  0  0  0  0  0  0  0
   15.7927  -28.5001  -11.4409 C   0  0  0  0  0  0  0  0  0  0  0  0
   18.4067  -27.5718   -7.5692 C   0  0  0  0  0  0  0  0  0  0  0  0
   18.5201  -28.6765   -6.9160 O   0  0  0  0  0  0  0  0  0  0  0  0
   18.6071  -26.3395   -6.9250 N   0  0  0  0  0  0  0  0  0  0  0  0
   19.2969  -25.1512   -7.4917 C   0  0  0  0  0  0  0  0  0  0  0  0
   18.2726  -24.0549   -7.1359 C   0  0  0  0  0  0  0  0  0  0  0  0
   17.4259  -24.6323   -6.0087 C   0  0  0  0  0  0  0  0  0  0  0  0
   18.2774  -25.8487   -5.6222 C   0  0  1  0  0  0  0  0  0  0  0  0
   17.6835  -26.6734   -4.6263 C   0  0  0  0  0  0  0  0  0  0  0  0
   16.7806  -27.5219   -4.7256 O   0  0  0  0  0  0  0  0  0  0  0  0
   17.7028  -27.1835    0.2385 O   0  0  0  0  0  0  0  0  0  0  0  0
   18.3219  -26.7021   -0.8966 C   0  0  0  0  0  0  0  0  0  0  0  0
   17.4661  -27.0076   -2.1331 C   0  0  2  0  0  0  0  0  0  0  0  0
   18.1999  -26.5133   -3.2740 N   0  0  0  0  0  0  0  0  0  0  0  0
   16.1963  -26.2198   -1.9391 C   0  0  0  0  0  0  0  0  0  0  0  0
   16.1369  -25.0098   -2.2724 O   0  0  0  0  0  0  0  0  0  0  0  0
   15.0546  -26.7882   -1.3922 O   0  0  0  0  0  0  0  0  0  0  0  0
  2  1  1  1
  2 10  1  0
  3  2  1  0
  4  3  1  0
  4  9  1  0
  5  4  2  0
  6  5  1  0
  6  7  2  0
  7  8  1  0
  8  9  2  0
 10 11  2  0
 10 12  1  0
 12 13  1  0
 13 14  1  0
 15 14  1  0
 16 12  1  0
 16 15  1  0
 16 17  1  1
 18 17  2  0
 19 20  1  0
 21 20  1  1
 21 22  1  0
 21 23  1  0
 22 17  1  0
 23 25  1  0
 24 23  2  0
M  END
$$$$
