FPS.pdb
     RDKit          3D

 25 26  0  0  1  0  0  0  0  0999 V2000
   27.5811  -20.6536  -17.0711 N   0  0  0  0  0  0  0  0  0  0  0  0
   28.3335  -20.3943  -15.8798 C   0  0  1  0  0  0  0  0  0  0  0  0
   28.8541  -18.9548  -15.9025 C   0  0  0  0  0  0  0  0  0  0  0  0
   27.6678  -18.0671  -15.8658 C   0  0  0  0  0  0  0  0  0  0  0  0
   26.7766  -17.9187  -16.8991 C   0  0  0  0  0  0  0  0  0  0  0  0
   25.6839  -17.0821  -16.8321 C   0  0  0  0  0  0  0  0  0  0  0  0
   25.4772  -16.3623  -15.6750 C   0  0  0  0  0  0  0  0  0  0  0  0
   26.3457  -16.4757  -14.6044 C   0  0  0  0  0  0  0  0  0  0  0  0
   27.4380  -17.3365  -14.7213 C   0  0  0  0  0  0  0  0  0  0  0  0
   27.6697  -20.6993  -14.6069 C   0  0  0  0  0  0  0  0  0  0  0  0
   26.3958  -20.5105  -14.6434 O   0  0  0  0  0  0  0  0  0  0  0  0
   28.2891  -21.1542  -13.4308 N   0  0  0  0  0  0  0  0  0  0  0  0
   29.4587  -22.0676  -13.3477 C   0  0  0  0  0  0  0  0  0  0  0  0
   30.3289  -21.2931  -12.3375 C   0  0  0  0  0  0  0  0  0  0  0  0
   29.3760  -20.3568  -11.6054 C   0  0  0  0  0  0  0  0  0  0  0  0
   28.0270  -20.9444  -12.0400 C   0  0  1  0  0  0  0  0  0  0  0  0
   26.9023  -20.2035  -11.5810 C   0  0  0  0  0  0  0  0  0  0  0  0
   26.7034  -18.9766  -11.5716 O   0  0  0  0  0  0  0  0  0  0  0  0
   23.3300  -21.6608  -11.9524 O   0  0  0  0  0  0  0  0  0  0  0  0
   23.5503  -20.3665  -11.5284 C   0  0  0  0  0  0  0  0  0  0  0  0
   24.6467  -20.3433  -10.4551 C   0  0  2  0  0  0  0  0  0  0  0  0
   25.8029  -20.9861  -11.0335 N   0  0  0  0  0  0  0  0  0  0  0  0
   24.1007  -21.1633   -9.3148 C   0  0  0  0  0  0  0  0  0  0  0  0
   24.6745  -22.2220   -8.9560 O   0  0  0  0  0  0  0  0  0  0  0  0
   22.9577  -20.7903   -8.6220 O   0  0  0  0  0  0  0  0  0  0  0  0
  2  1  1  6
  2 10  1  0
  3  2  1  0
  4  3  1  0
  4  9  1  0
  5  4  2  0
  6  5  1  0
  6  7  2  0
  7  8  1  0
  8  9  2  0
 10 11  2  0
 10 12  1  0
 12 13  1  0
 13 14  1  0
 15 14  1  0
 16 12  1  0
 16 15  1  0
 16 17  1  6
 18 17  2  0
 19 20  1  0
 21 20  1  6
 21 22  1  0
 21 23  1  0
 22 17  1  0
 23 25  1  0
 24 23  2  0
M  END
$$$$
