FPS.pdb
     RDKit          3D

 25 26  0  0  1  0  0  0  0  0999 V2000
   22.4694  -13.4214  -17.9897 N   0  0  0  0  0  0  0  0  0  0  0  0
   23.2491  -12.2659  -18.3208 C   0  0  1  0  0  0  0  0  0  0  0  0
   22.9396  -11.8293  -19.7551 C   0  0  0  0  0  0  0  0  0  0  0  0
   23.1509  -13.0136  -20.6209 C   0  0  0  0  0  0  0  0  0  0  0  0
   24.3803  -13.4700  -21.0259 C   0  0  0  0  0  0  0  0  0  0  0  0
   24.5409  -14.5746  -21.8338 C   0  0  0  0  0  0  0  0  0  0  0  0
   23.4156  -15.2509  -22.2535 C   0  0  0  0  0  0  0  0  0  0  0  0
   22.1533  -14.8320  -21.8736 C   0  0  0  0  0  0  0  0  0  0  0  0
   22.0432  -13.7075  -21.0544 C   0  0  0  0  0  0  0  0  0  0  0  0
   23.1679  -11.1331  -17.3912 C   0  0  0  0  0  0  0  0  0  0  0  0
   22.0047  -10.5795  -17.3697 O   0  0  0  0  0  0  0  0  0  0  0  0
   24.2040  -10.6457  -16.5772 N   0  0  0  0  0  0  0  0  0  0  0  0
   25.1915  -11.4627  -15.8245 C   0  0  0  0  0  0  0  0  0  0  0  0
   26.4937  -10.7407  -16.2253 C   0  0  0  0  0  0  0  0  0  0  0  0
   26.0681   -9.3579  -16.7022 C   0  0  0  0  0  0  0  0  0  0  0  0
   24.6186   -9.3292  -16.2003 C   0  0  1  0  0  0  0  0  0  0  0  0
   23.8987   -8.1647  -16.5878 C   0  0  0  0  0  0  0  0  0  0  0  0
   23.5324   -7.7898  -17.7149 O   0  0  0  0  0  0  0  0  0  0  0  0
   21.3352   -4.4938  -14.7588 O   0  0  0  0  0  0  0  0  0  0  0  0
   22.1243   -5.5991  -14.5158 C   0  0  0  0  0  0  0  0  0  0  0  0
   22.8816   -5.9958  -15.7901 C   0  0  2  0  0  0  0  0  0  0  0  0
   23.5235   -7.2586  -15.5112 N   0  0  0  0  0  0  0  0  0  0  0  0
   23.9098   -4.9129  -15.9919 C   0  0  0  0  0  0  0  0  0  0  0  0
   24.9816   -4.9182  -15.3364 O   0  0  0  0  0  0  0  0  0  0  0  0
   23.7202   -3.8783  -16.8971 O   0  0  0  0  0  0  0  0  0  0  0  0
  2  1  1  1
  2 10  1  0
  3  2  1  0
  4  3  1  0
  4  9  1  0
  5  4  2  0
  6  5  1  0
  6  7  2  0
  7  8  1  0
  8  9  2  0
 10 11  2  0
 10 12  1  0
 12 13  1  0
 13 14  1  0
 15 14  1  0
 16 12  1  0
 16 15  1  0
 16 17  1  6
 18 17  2  0
 19 20  1  0
 21 20  1  1
 21 22  1  0
 21 23  1  0
 22 17  1  0
 23 25  1  0
 24 23  2  0
M  END
$$$$
