FPS.pdb
     RDKit          3D

 25 26  0  0  1  0  0  0  0  0999 V2000
   23.6169  -17.4648  -16.7924 N   0  0  0  0  0  0  0  0  0  0  0  0
   24.6555  -17.3195  -15.8163 C   0  0  1  0  0  0  0  0  0  0  0  0
   24.4524  -16.0169  -15.0380 C   0  0  0  0  0  0  0  0  0  0  0  0
   24.8557  -14.9103  -15.9377 C   0  0  0  0  0  0  0  0  0  0  0  0
   26.1451  -14.6677  -16.3408 C   0  0  0  0  0  0  0  0  0  0  0  0
   26.4857  -13.6273  -17.1775 C   0  0  0  0  0  0  0  0  0  0  0  0
   25.4858  -12.7931  -17.6294 C   0  0  0  0  0  0  0  0  0  0  0  0
   24.1701  -12.9941  -17.2529 C   0  0  0  0  0  0  0  0  0  0  0  0
   23.8761  -14.0619  -16.4037 C   0  0  0  0  0  0  0  0  0  0  0  0
   24.8642  -18.4538  -14.9087 C   0  0  0  0  0  0  0  0  0  0  0  0
   23.8328  -18.7164  -14.1826 O   0  0  0  0  0  0  0  0  0  0  0  0
   26.0346  -19.2215  -14.7879 N   0  0  0  0  0  0  0  0  0  0  0  0
   26.8237  -19.8061  -15.9035 C   0  0  0  0  0  0  0  0  0  0  0  0
   28.2415  -19.3693  -15.4830 C   0  0  0  0  0  0  0  0  0  0  0  0
   28.1541  -19.0660  -13.9926 C   0  0  0  0  0  0  0  0  0  0  0  0
   26.7902  -19.6880  -13.6660 C   0  0  1  0  0  0  0  0  0  0  0  0
   26.3683  -19.4768  -12.3237 C   0  0  0  0  0  0  0  0  0  0  0  0
   26.6438  -18.5565  -11.5349 O   0  0  0  0  0  0  0  0  0  0  0  0
   23.1945  -21.7492  -11.1165 O   0  0  0  0  0  0  0  0  0  0  0  0
   23.5243  -20.6186  -10.3980 C   0  0  0  0  0  0  0  0  0  0  0  0
   25.0464  -20.4237  -10.3921 C   0  0  2  0  0  0  0  0  0  0  0  0
   25.4745  -20.4843  -11.7696 N   0  0  0  0  0  0  0  0  0  0  0  0
   25.5917  -21.5949   -9.6166 C   0  0  0  0  0  0  0  0  0  0  0  0
   26.1740  -22.5383  -10.2078 O   0  0  0  0  0  0  0  0  0  0  0  0
   25.4761  -21.6810   -8.2364 O   0  0  0  0  0  0  0  0  0  0  0  0
  2  1  1  1
  2 10  1  0
  3  2  1  0
  4  3  1  0
  4  9  1  0
  5  4  2  0
  6  5  1  0
  6  7  2  0
  7  8  1  0
  8  9  2  0
 10 11  2  0
 10 12  1  0
 12 13  1  0
 13 14  1  0
 15 14  1  0
 16 12  1  0
 16 15  1  0
 16 17  1  1
 18 17  2  0
 19 20  1  0
 21 20  1  6
 21 22  1  0
 21 23  1  0
 22 17  1  0
 23 25  1  0
 24 23  2  0
M  END
$$$$
