FPS.pdb
     RDKit          3D

 25 26  0  0  1  0  0  0  0  0999 V2000
   19.4852   -7.4094  -17.4678 N   0  0  0  0  0  0  0  0  0  0  0  0
   20.1835   -6.8760  -16.3362 C   0  0  1  0  0  0  0  0  0  0  0  0
   20.6425   -5.4476  -16.6405 C   0  0  0  0  0  0  0  0  0  0  0  0
   22.0664   -5.5294  -17.0435 C   0  0  0  0  0  0  0  0  0  0  0  0
   22.5003   -5.9041  -18.2905 C   0  0  0  0  0  0  0  0  0  0  0  0
   23.8337   -5.9715  -18.6313 C   0  0  0  0  0  0  0  0  0  0  0  0
   24.7733   -5.6477  -17.6762 C   0  0  0  0  0  0  0  0  0  0  0  0
   24.3886   -5.2638  -16.4043 C   0  0  0  0  0  0  0  0  0  0  0  0
   23.0258   -5.2112  -16.1081 C   0  0  0  0  0  0  0  0  0  0  0  0
   19.4891   -6.9475  -15.0452 C   0  0  0  0  0  0  0  0  0  0  0  0
   18.2610   -6.5633  -15.1102 O   0  0  0  0  0  0  0  0  0  0  0  0
   20.0370   -7.3789  -13.8257 N   0  0  0  0  0  0  0  0  0  0  0  0
   20.9387   -8.5439  -13.6282 C   0  0  0  0  0  0  0  0  0  0  0  0
   22.0322   -7.8889  -12.7605 C   0  0  0  0  0  0  0  0  0  0  0  0
   21.3909   -6.6446  -12.1593 C   0  0  0  0  0  0  0  0  0  0  0  0
   19.9148   -6.9165  -12.4773 C   0  0  1  0  0  0  0  0  0  0  0  0
   19.0428   -5.8525  -12.1139 C   0  0  0  0  0  0  0  0  0  0  0  0
   19.1054   -4.6406  -12.3832 O   0  0  0  0  0  0  0  0  0  0  0  0
   15.2034   -6.6737  -11.3253 O   0  0  0  0  0  0  0  0  0  0  0  0
   15.6633   -5.3822  -11.4798 C   0  0  0  0  0  0  0  0  0  0  0  0
   17.0088   -5.2129  -10.7617 C   0  0  2  0  0  0  0  0  0  0  0  0
   17.8924   -6.2198  -11.3000 N   0  0  0  0  0  0  0  0  0  0  0  0
   16.7183   -5.4862   -9.3086 C   0  0  0  0  0  0  0  0  0  0  0  0
   17.2008   -6.4967   -8.7387 O   0  0  0  0  0  0  0  0  0  0  0  0
   15.9171   -4.6462   -8.5482 O   0  0  0  0  0  0  0  0  0  0  0  0
  2  1  1  6
  2 10  1  0
  3  2  1  0
  4  3  1  0
  4  9  1  0
  5  4  2  0
  6  5  1  0
  6  7  2  0
  7  8  1  0
  8  9  2  0
 10 11  2  0
 10 12  1  0
 12 13  1  0
 13 14  1  0
 15 14  1  0
 16 12  1  0
 16 15  1  0
 16 17  1  6
 18 17  2  0
 19 20  1  0
 21 20  1  6
 21 22  1  0
 21 23  1  0
 22 17  1  0
 23 25  1  0
 24 23  2  0
M  END
$$$$
