FPS.pdb
     RDKit          3D

 25 26  0  0  1  0  0  0  0  0999 V2000
   26.7095  -20.1230  -17.4552 N   0  0  0  0  0  0  0  0  0  0  0  0
   27.1987  -19.5137  -16.2543 C   0  0  1  0  0  0  0  0  0  0  0  0
   26.9140  -18.0098  -16.2868 C   0  0  0  0  0  0  0  0  0  0  0  0
   27.7213  -17.4425  -17.3927 C   0  0  0  0  0  0  0  0  0  0  0  0
   27.1981  -16.9427  -18.5591 C   0  0  0  0  0  0  0  0  0  0  0  0
   27.9786  -16.4238  -19.5690 C   0  0  0  0  0  0  0  0  0  0  0  0
   29.3464  -16.4062  -19.3994 C   0  0  0  0  0  0  0  0  0  0  0  0
   29.9241  -16.8977  -18.2427 C   0  0  0  0  0  0  0  0  0  0  0  0
   29.0906  -17.4129  -17.2489 C   0  0  0  0  0  0  0  0  0  0  0  0
   26.7551  -20.1113  -14.9894 C   0  0  0  0  0  0  0  0  0  0  0  0
   25.4754  -20.0896  -14.8417 O   0  0  0  0  0  0  0  0  0  0  0  0
   27.5774  -20.6691  -13.9963 N   0  0  0  0  0  0  0  0  0  0  0  0
   28.7516  -21.5528  -14.2188 C   0  0  0  0  0  0  0  0  0  0  0  0
   29.7801  -20.8641  -13.2992 C   0  0  0  0  0  0  0  0  0  0  0  0
   28.9634  -20.0368  -12.3145 C   0  0  0  0  0  0  0  0  0  0  0  0
   27.5643  -20.6136  -12.5667 C   0  0  1  0  0  0  0  0  0  0  0  0
   26.5320  -19.9569  -11.8403 C   0  0  0  0  0  0  0  0  0  0  0  0
   26.3750  -18.7496  -11.5895 O   0  0  0  0  0  0  0  0  0  0  0  0
   22.9791  -21.7959  -11.4808 O   0  0  0  0  0  0  0  0  0  0  0  0
   23.1324  -20.4818  -11.0893 C   0  0  0  0  0  0  0  0  0  0  0  0
   24.4885  -20.2936  -10.3961 C   0  0  2  0  0  0  0  0  0  0  0  0
   25.4879  -20.8153  -11.2981 N   0  0  0  0  0  0  0  0  0  0  0  0
   24.4135  -21.1331   -9.1470 C   0  0  0  0  0  0  0  0  0  0  0  0
   25.0982  -22.1809   -9.0383 O   0  0  0  0  0  0  0  0  0  0  0  0
   23.5972  -20.7902   -8.0785 O   0  0  0  0  0  0  0  0  0  0  0  0
  2  1  1  6
  2 10  1  0
  3  2  1  0
  4  3  1  0
  4  9  1  0
  5  4  2  0
  6  5  1  0
  6  7  2  0
  7  8  1  0
  8  9  2  0
 10 11  2  0
 10 12  1  0
 12 13  1  0
 13 14  1  0
 15 14  1  0
 16 12  1  0
 16 15  1  0
 16 17  1  6
 18 17  2  0
 19 20  1  0
 21 20  1  6
 21 22  1  0
 21 23  1  0
 22 17  1  0
 23 25  1  0
 24 23  2  0
M  END
$$$$
