CWF.pdb
     RDKit          3D

 32 34  0  0  1  0  0  0  0  0999 V2000
    9.5093  -17.0396   17.4401 N   0  0  0  0  0  0  0  0  0  0  0  0
    9.5382  -17.8827   18.6137 C   0  0  1  0  0  0  0  0  0  0  0  0
   10.8088  -18.7118   18.6335 C   0  0  0  0  0  0  0  0  0  0  0  0
   12.2199  -17.5816   18.7674 S   0  0  0  0  0  0  0  0  0  0  0  0
    9.4125  -17.0305   19.8069 C   0  0  0  0  0  0  0  0  0  0  0  0
    9.8748  -15.8337   19.7908 O   0  0  0  0  0  0  0  0  0  0  0  0
    8.8051  -17.4179   21.0144 N   0  0  0  0  0  0  0  0  0  0  0  0
    8.6492  -16.6312   22.2114 C   0  0  1  0  0  0  0  0  0  0  0  0
    7.2548  -16.7659   22.6715 C   0  0  0  0  0  0  0  0  0  0  0  0
    6.9711  -16.1240   23.9686 C   0  0  0  0  0  0  0  0  0  0  0  0
    6.4270  -16.7069   25.1069 C   0  0  0  0  0  0  0  0  0  0  0  0
    6.3304  -15.7310   26.0455 N   0  0  0  0  0  0  0  0  0  0  0  0
    6.7876  -14.5586   25.5579 C   0  0  0  0  0  0  0  0  0  0  0  0
    6.9233  -13.2925   26.0687 C   0  0  0  0  0  0  0  0  0  0  0  0
    7.4468  -12.2460   25.3289 C   0  0  0  0  0  0  0  0  0  0  0  0
    7.8487  -12.4614   24.0402 C   0  0  0  0  0  0  0  0  0  0  0  0
    7.7108  -13.7340   23.5336 C   0  0  0  0  0  0  0  0  0  0  0  0
    7.1892  -14.8021   24.2551 C   0  0  0  0  0  0  0  0  0  0  0  0
    9.7220  -16.9732   23.1626 C   0  0  0  0  0  0  0  0  0  0  0  0
   10.2459  -18.0956   23.3071 O   0  0  0  0  0  0  0  0  0  0  0  0
   10.1977  -15.9282   23.9976 N   0  0  0  0  0  0  0  0  0  0  0  0
   11.2364  -16.1402   25.0165 C   0  0  1  0  0  0  0  0  0  0  0  0
   11.5216  -14.7733   25.5879 C   0  0  0  0  0  0  0  0  0  0  0  0
   10.8361  -14.6389   26.8974 C   0  0  0  0  0  0  0  0  0  0  0  0
   10.0347  -15.7030   27.3092 C   0  0  0  0  0  0  0  0  0  0  0  0
    9.4092  -15.6251   28.5195 C   0  0  0  0  0  0  0  0  0  0  0  0
    9.5419  -14.5445   29.3352 C   0  0  0  0  0  0  0  0  0  0  0  0
   10.3496  -13.4747   28.9180 C   0  0  0  0  0  0  0  0  0  0  0  0
   10.9839  -13.5384   27.7047 C   0  0  0  0  0  0  0  0  0  0  0  0
   10.7258  -17.0430   26.0603 C   0  0  0  0  0  0  0  0  0  0  0  0
    9.4665  -17.0949   26.3077 O   0  0  0  0  0  0  0  0  0  0  0  0
   11.5374  -17.8684   26.8157 O   0  0  0  0  0  0  0  0  0  0  0  0
  2  3  1  0
  2  1  1  6
  4  3  1  0
  5  2  1  0
  6  5  2  0
  7  5  1  0
  8  7  1  0
  9 10  1  0
  8  9  1  1
 10 18  1  0
 10 11  2  0
 11 12  1  0
 13 12  1  0
 13 14  2  0
 15 14  1  0
 16 15  2  0
 17 16  1  0
 17 18  2  0
 18 13  1  0
 19  8  1  0
 19 21  1  0
 20 19  2  0
 22 21  1  0
 22 30  1  0
 22 23  1  1
 24 29  1  0
 24 23  1  0
 25 24  2  0
 26 27  2  0
 26 25  1  0
 27 28  1  0
 28 29  2  0
 30 32  1  0
 31 30  2  0
M  END
$$$$
