CWF.pdb
     RDKit          3D

 32 34  0  0  1  0  0  0  0  0999 V2000
    8.2306  -17.7221   20.5579 N   0  0  0  0  0  0  0  0  0  0  0  0
    8.7170  -16.3659   20.4432 C   0  0  1  0  0  0  0  0  0  0  0  0
    7.6447  -15.4720   19.8491 C   0  0  0  0  0  0  0  0  0  0  0  0
    6.2503  -15.4152   21.0061 S   0  0  0  0  0  0  0  0  0  0  0  0
    9.1476  -15.9077   21.7737 C   0  0  0  0  0  0  0  0  0  0  0  0
    9.7107  -14.7623   21.9055 O   0  0  0  0  0  0  0  0  0  0  0  0
    8.9914  -16.6351   22.9669 N   0  0  0  0  0  0  0  0  0  0  0  0
    9.4230  -16.2579   24.2887 C   0  0  1  0  0  0  0  0  0  0  0  0
    8.3330  -16.5644   25.2331 C   0  0  0  0  0  0  0  0  0  0  0  0
    7.2032  -15.6171   25.1960 C   0  0  0  0  0  0  0  0  0  0  0  0
    5.8565  -15.9041   25.0078 C   0  0  0  0  0  0  0  0  0  0  0  0
    5.1916  -14.7208   25.0281 N   0  0  0  0  0  0  0  0  0  0  0  0
    6.0511  -13.6983   25.2208 C   0  0  0  0  0  0  0  0  0  0  0  0
    5.9169  -12.3373   25.3306 C   0  0  0  0  0  0  0  0  0  0  0  0
    6.9987  -11.4996   25.5414 C   0  0  0  0  0  0  0  0  0  0  0  0
    8.2549  -12.0281   25.6465 C   0  0  0  0  0  0  0  0  0  0  0  0
    8.3831  -13.3944   25.5364 C   0  0  0  0  0  0  0  0  0  0  0  0
    7.3136  -14.2577   25.3254 C   0  0  0  0  0  0  0  0  0  0  0  0
   10.7480  -16.8462   24.5552 C   0  0  0  0  0  0  0  0  0  0  0  0
   11.3224  -17.7084   23.8611 O   0  0  0  0  0  0  0  0  0  0  0  0
   11.4304  -16.3942   25.7152 N   0  0  0  0  0  0  0  0  0  0  0  0
   12.7674  -16.8803   26.0866 C   0  0  1  0  0  0  0  0  0  0  0  0
   13.2361  -15.9611   27.1873 C   0  0  0  0  0  0  0  0  0  0  0  0
   12.1144  -15.7135   28.1273 C   0  0  0  0  0  0  0  0  0  0  0  0
   11.2929  -14.6180   27.8644 C   0  0  0  0  0  0  0  0  0  0  0  0
   10.2364  -14.3747   28.6932 C   0  0  0  0  0  0  0  0  0  0  0  0
    9.9600  -15.1649   29.7655 C   0  0  0  0  0  0  0  0  0  0  0  0
   10.7887  -16.2673   30.0275 C   0  0  0  0  0  0  0  0  0  0  0  0
   11.8540  -16.5241   29.2041 C   0  0  0  0  0  0  0  0  0  0  0  0
   12.6705  -18.2656   26.5732 C   0  0  0  0  0  0  0  0  0  0  0  0
   13.7329  -18.9101   26.8984 O   0  0  0  0  0  0  0  0  0  0  0  0
   11.4726  -18.9414   26.7109 O   0  0  0  0  0  0  0  0  0  0  0  0
  2  3  1  0
  2  1  1  1
  4  3  1  0
  5  2  1  0
  6  5  2  0
  7  5  1  0
  8  7  1  0
  9 10  1  0
  8  9  1  1
 10 18  1  0
 10 11  2  0
 11 12  1  0
 13 12  1  0
 13 14  2  0
 15 14  1  0
 16 15  2  0
 17 16  1  0
 17 18  2  0
 18 13  1  0
 19  8  1  0
 19 21  1  0
 20 19  2  0
 22 21  1  0
 22 30  1  0
 22 23  1  1
 24 29  1  0
 24 23  1  0
 25 24  2  0
 26 27  2  0
 26 25  1  0
 27 28  1  0
 28 29  2  0
 30 32  1  0
 31 30  2  0
M  END
$$$$
