CWF.pdb
     RDKit          3D

 32 34  0  0  1  0  0  0  0  0999 V2000
   11.3210  -15.6897   19.8803 N   0  0  0  0  0  0  0  0  0  0  0  0
   11.0734  -16.8717   20.6745 C   0  0  1  0  0  0  0  0  0  0  0  0
   12.2833  -17.7867   20.6454 C   0  0  0  0  0  0  0  0  0  0  0  0
   12.3732  -18.5541   19.0054 S   0  0  0  0  0  0  0  0  0  0  0  0
   10.7260  -16.4537   22.0420 C   0  0  0  0  0  0  0  0  0  0  0  0
   11.2800  -15.4163   22.5550 O   0  0  0  0  0  0  0  0  0  0  0  0
    9.8025  -17.1091   22.8757 N   0  0  0  0  0  0  0  0  0  0  0  0
    9.5136  -16.8275   24.2588 C   0  0  1  0  0  0  0  0  0  0  0  0
    8.0533  -16.6841   24.4034 C   0  0  0  0  0  0  0  0  0  0  0  0
    7.5221  -15.3689   23.9993 C   0  0  0  0  0  0  0  0  0  0  0  0
    7.2801  -14.9070   22.7111 C   0  0  0  0  0  0  0  0  0  0  0  0
    6.8142  -13.6370   22.8255 N   0  0  0  0  0  0  0  0  0  0  0  0
    6.7484  -13.2723   24.1232 C   0  0  0  0  0  0  0  0  0  0  0  0
    6.3519  -12.1370   24.7837 C   0  0  0  0  0  0  0  0  0  0  0  0
    6.3803  -12.0334   26.1639 C   0  0  0  0  0  0  0  0  0  0  0  0
    6.8164  -13.0896   26.9142 C   0  0  0  0  0  0  0  0  0  0  0  0
    7.2120  -14.2262   26.2458 C   0  0  0  0  0  0  0  0  0  0  0  0
    7.1927  -14.3565   24.8615 C   0  0  0  0  0  0  0  0  0  0  0  0
   10.1936  -17.8200   25.1105 C   0  0  0  0  0  0  0  0  0  0  0  0
   10.4856  -18.9885   24.7877 O   0  0  0  0  0  0  0  0  0  0  0  0
   10.5415  -17.4088   26.4241 N   0  0  0  0  0  0  0  0  0  0  0  0
   11.2571  -18.2844   27.3638 C   0  0  1  0  0  0  0  0  0  0  0  0
   11.9100  -17.3561   28.3580 C   0  0  0  0  0  0  0  0  0  0  0  0
   11.1904  -16.0580   28.3592 C   0  0  0  0  0  0  0  0  0  0  0  0
   10.4250  -15.7549   29.4845 C   0  0  0  0  0  0  0  0  0  0  0  0
    9.7699  -14.5586   29.5312 C   0  0  0  0  0  0  0  0  0  0  0  0
    9.8394  -13.6546   28.5171 C   0  0  0  0  0  0  0  0  0  0  0  0
   10.6110  -13.9625   27.3854 C   0  0  0  0  0  0  0  0  0  0  0  0
   11.2743  -15.1604   27.3239 C   0  0  0  0  0  0  0  0  0  0  0  0
   10.2974  -19.1740   28.0369 C   0  0  0  0  0  0  0  0  0  0  0  0
    9.0357  -19.0164   27.8547 O   0  0  0  0  0  0  0  0  0  0  0  0
   10.6753  -20.2037   28.8778 O   0  0  0  0  0  0  0  0  0  0  0  0
  2  3  1  0
  2  1  1  6
  4  3  1  0
  5  2  1  0
  6  5  2  0
  7  5  1  0
  8  7  1  0
  9 10  1  0
  8  9  1  6
 10 18  1  0
 10 11  2  0
 11 12  1  0
 13 12  1  0
 13 14  2  0
 15 14  1  0
 16 15  2  0
 17 16  1  0
 17 18  2  0
 18 13  1  0
 19  8  1  0
 19 21  1  0
 20 19  2  0
 22 21  1  0
 22 30  1  0
 22 23  1  1
 24 29  1  0
 24 23  1  0
 25 24  2  0
 26 27  2  0
 26 25  1  0
 27 28  1  0
 28 29  2  0
 30 32  1  0
 31 30  2  0
M  END
$$$$
