CWF.pdb
     RDKit          3D

 32 34  0  0  1  0  0  0  0  0999 V2000
   10.8053  -18.0451   20.1814 N   0  0  0  0  0  0  0  0  0  0  0  0
   11.5725  -16.9169   20.6583 C   0  0  1  0  0  0  0  0  0  0  0  0
   11.4808  -15.7659   19.6741 C   0  0  0  0  0  0  0  0  0  0  0  0
   12.8126  -14.5942   20.0478 S   0  0  0  0  0  0  0  0  0  0  0  0
   11.0800  -16.5457   21.9944 C   0  0  0  0  0  0  0  0  0  0  0  0
   11.6940  -15.6495   22.6773 O   0  0  0  0  0  0  0  0  0  0  0  0
    9.9498  -17.1008   22.6205 N   0  0  0  0  0  0  0  0  0  0  0  0
    9.3995  -16.7556   23.9065 C   0  0  1  0  0  0  0  0  0  0  0  0
    7.9348  -16.6585   23.7685 C   0  0  0  0  0  0  0  0  0  0  0  0
    7.4280  -15.2917   23.5438 C   0  0  0  0  0  0  0  0  0  0  0  0
    7.2012  -14.6561   22.3289 C   0  0  0  0  0  0  0  0  0  0  0  0
    6.7561  -13.4053   22.6121 N   0  0  0  0  0  0  0  0  0  0  0  0
    6.6890  -13.2178   23.9469 C   0  0  0  0  0  0  0  0  0  0  0  0
    6.3079  -12.1752   24.7532 C   0  0  0  0  0  0  0  0  0  0  0  0
    6.3301  -12.2592   26.1349 C   0  0  0  0  0  0  0  0  0  0  0  0
    6.7441  -13.4143   26.7372 C   0  0  0  0  0  0  0  0  0  0  0  0
    7.1243  -14.4572   25.9229 C   0  0  0  0  0  0  0  0  0  0  0  0
    7.1108  -14.3992   24.5336 C   0  0  0  0  0  0  0  0  0  0  0  0
    9.9335  -17.6746   24.9277 C   0  0  0  0  0  0  0  0  0  0  0  0
   10.7876  -18.5639   24.7416 O   0  0  0  0  0  0  0  0  0  0  0  0
    9.4213  -17.5393   26.2449 N   0  0  0  0  0  0  0  0  0  0  0  0
    9.9444  -18.3127   27.3807 C   0  0  1  0  0  0  0  0  0  0  0  0
    9.4562  -17.5932   28.6137 C   0  0  0  0  0  0  0  0  0  0  0  0
    9.8089  -16.1551   28.5115 C   0  0  0  0  0  0  0  0  0  0  0  0
   11.1026  -15.7886   28.8804 C   0  0  0  0  0  0  0  0  0  0  0  0
   11.4701  -14.4785   28.7751 C   0  0  0  0  0  0  0  0  0  0  0  0
   10.6162  -13.5208   28.3232 C   0  0  0  0  0  0  0  0  0  0  0  0
    9.3144  -13.8929   27.9522 C   0  0  0  0  0  0  0  0  0  0  0  0
    8.9307  -15.2049   28.0529 C   0  0  0  0  0  0  0  0  0  0  0  0
    9.4088  -19.6824   27.3327 C   0  0  0  0  0  0  0  0  0  0  0  0
    8.4144  -19.9589   26.5682 O   0  0  0  0  0  0  0  0  0  0  0  0
    9.9231  -20.7267   28.0779 O   0  0  0  0  0  0  0  0  0  0  0  0
  2  3  1  0
  2  1  1  6
  4  3  1  0
  5  2  1  0
  6  5  2  0
  7  5  1  0
  8  7  1  0
  9 10  1  0
  8  9  1  6
 10 18  1  0
 10 11  2  0
 11 12  1  0
 13 12  1  0
 13 14  2  0
 15 14  1  0
 16 15  2  0
 17 16  1  0
 17 18  2  0
 18 13  1  0
 19  8  1  0
 19 21  1  0
 20 19  2  0
 22 21  1  0
 22 30  1  0
 22 23  1  1
 24 29  1  0
 24 23  1  0
 25 24  2  0
 26 27  2  0
 26 25  1  0
 27 28  1  0
 28 29  2  0
 30 32  1  0
 31 30  2  0
M  END
$$$$
