CWF.pdb
     RDKit          3D

 32 34  0  0  1  0  0  0  0  0999 V2000
   11.4987  -17.2013   18.7512 N   0  0  0  0  0  0  0  0  0  0  0  0
   10.7899  -17.9528   19.7620 C   0  0  1  0  0  0  0  0  0  0  0  0
   11.4491  -19.3032   19.9710 C   0  0  0  0  0  0  0  0  0  0  0  0
   13.0635  -19.0305   20.7492 S   0  0  0  0  0  0  0  0  0  0  0  0
   10.7518  -17.1559   20.9986 C   0  0  0  0  0  0  0  0  0  0  0  0
   11.6562  -16.2730   21.2198 O   0  0  0  0  0  0  0  0  0  0  0  0
    9.7751  -17.2723   22.0035 N   0  0  0  0  0  0  0  0  0  0  0  0
    9.7335  -16.5895   23.2715 C   0  0  1  0  0  0  0  0  0  0  0  0
    8.3207  -16.4350   23.6642 C   0  0  0  0  0  0  0  0  0  0  0  0
    7.4427  -15.9051   22.6042 C   0  0  0  0  0  0  0  0  0  0  0  0
    6.3904  -16.5516   21.9670 C   0  0  0  0  0  0  0  0  0  0  0  0
    5.8877  -15.6848   21.0512 N   0  0  0  0  0  0  0  0  0  0  0  0
    6.5696  -14.5204   21.0777 C   0  0  0  0  0  0  0  0  0  0  0  0
    6.4771  -13.3364   20.3906 C   0  0  0  0  0  0  0  0  0  0  0  0
    7.3261  -12.2700   20.6325 C   0  0  0  0  0  0  0  0  0  0  0  0
    8.2988  -12.3807   21.5864 C   0  0  0  0  0  0  0  0  0  0  0  0
    8.3860  -13.5707   22.2731 C   0  0  0  0  0  0  0  0  0  0  0  0
    7.5461  -14.6563   22.0502 C   0  0  0  0  0  0  0  0  0  0  0  0
   10.6394  -17.2644   24.2184 C   0  0  0  0  0  0  0  0  0  0  0  0
   11.7600  -17.7413   23.9505 O   0  0  0  0  0  0  0  0  0  0  0  0
   10.1900  -17.3898   25.5593 N   0  0  0  0  0  0  0  0  0  0  0  0
   11.1060  -17.3426   26.7084 C   0  0  1  0  0  0  0  0  0  0  0  0
   11.7047  -15.9579   26.6865 C   0  0  0  0  0  0  0  0  0  0  0  0
   10.6631  -14.9697   27.0628 C   0  0  0  0  0  0  0  0  0  0  0  0
   10.5711  -14.6229   28.4102 C   0  0  0  0  0  0  0  0  0  0  0  0
    9.6417  -13.6982   28.7890 C   0  0  0  0  0  0  0  0  0  0  0  0
    8.8037  -13.1057   27.8962 C   0  0  0  0  0  0  0  0  0  0  0  0
    8.8988  -13.4567   26.5403 C   0  0  0  0  0  0  0  0  0  0  0  0
    9.8272  -14.3843   26.1447 C   0  0  0  0  0  0  0  0  0  0  0  0
   10.3491  -17.5612   27.9513 C   0  0  0  0  0  0  0  0  0  0  0  0
   10.9578  -17.5761   29.0822 O   0  0  0  0  0  0  0  0  0  0  0  0
    8.9810  -17.7553   27.9845 O   0  0  0  0  0  0  0  0  0  0  0  0
  2  3  1  0
  2  1  1  6
  4  3  1  0
  5  2  1  0
  6  5  2  0
  7  5  1  0
  8  7  1  0
  9 10  1  0
  8  9  1  1
 10 18  1  0
 10 11  2  0
 11 12  1  0
 13 12  1  0
 13 14  2  0
 15 14  1  0
 16 15  2  0
 17 16  1  0
 17 18  2  0
 18 13  1  0
 19  8  1  0
 19 21  1  0
 20 19  2  0
 22 21  1  0
 22 30  1  0
 22 23  1  1
 24 29  1  0
 24 23  1  0
 25 24  2  0
 26 27  2  0
 26 25  1  0
 27 28  1  0
 28 29  2  0
 30 32  1  0
 31 30  2  0
M  END
$$$$
