CWF.pdb
     RDKit          3D

 32 34  0  0  1  0  0  0  0  0999 V2000
   10.2237  -16.7209   18.2821 N   0  0  0  0  0  0  0  0  0  0  0  0
    9.8680  -17.6575   19.3238 C   0  0  1  0  0  0  0  0  0  0  0  0
   10.7819  -18.8677   19.2763 C   0  0  0  0  0  0  0  0  0  0  0  0
   12.4879  -18.2978   19.5021 S   0  0  0  0  0  0  0  0  0  0  0  0
    9.9319  -16.9639   20.6201 C   0  0  0  0  0  0  0  0  0  0  0  0
   10.6593  -15.9149   20.7502 O   0  0  0  0  0  0  0  0  0  0  0  0
    9.2396  -17.3558   21.7796 N   0  0  0  0  0  0  0  0  0  0  0  0
    9.2584  -16.7186   23.0717 C   0  0  1  0  0  0  0  0  0  0  0  0
    7.8694  -16.3922   23.4434 C   0  0  0  0  0  0  0  0  0  0  0  0
    7.5751  -14.9487   23.5136 C   0  0  0  0  0  0  0  0  0  0  0  0
    7.6863  -14.0061   22.4985 C   0  0  0  0  0  0  0  0  0  0  0  0
    7.3297  -12.8081   23.0280 N   0  0  0  0  0  0  0  0  0  0  0  0
    6.9972  -12.9459   24.3287 C   0  0  0  0  0  0  0  0  0  0  0  0
    6.5671  -12.0857   25.3073 C   0  0  0  0  0  0  0  0  0  0  0  0
    6.2817  -12.5089   26.5941 C   0  0  0  0  0  0  0  0  0  0  0  0
    6.4275  -13.8279   26.9220 C   0  0  0  0  0  0  0  0  0  0  0  0
    6.8584  -14.6862   25.9356 C   0  0  0  0  0  0  0  0  0  0  0  0
    7.1512  -14.2874   24.6361 C   0  0  0  0  0  0  0  0  0  0  0  0
   10.0449  -17.5405   24.0090 C   0  0  0  0  0  0  0  0  0  0  0  0
   10.1072  -18.7859   24.0205 O   0  0  0  0  0  0  0  0  0  0  0  0
   10.7955  -16.8491   24.9961 N   0  0  0  0  0  0  0  0  0  0  0  0
   11.6017  -17.5458   26.0092 C   0  0  1  0  0  0  0  0  0  0  0  0
   12.4782  -16.4827   26.6238 C   0  0  0  0  0  0  0  0  0  0  0  0
   11.6254  -15.4997   27.3377 C   0  0  0  0  0  0  0  0  0  0  0  0
   11.1632  -14.4069   26.6054 C   0  0  0  0  0  0  0  0  0  0  0  0
   10.3557  -13.4961   27.2225 C   0  0  0  0  0  0  0  0  0  0  0  0
    9.9886  -13.6199   28.5265 C   0  0  0  0  0  0  0  0  0  0  0  0
   10.4554  -14.7213   29.2612 C   0  0  0  0  0  0  0  0  0  0  0  0
   11.2675  -15.6442   28.6551 C   0  0  0  0  0  0  0  0  0  0  0  0
   10.7147  -18.1376   27.0233 C   0  0  0  0  0  0  0  0  0  0  0  0
   11.2085  -18.8294   27.9863 O   0  0  0  0  0  0  0  0  0  0  0  0
    9.3403  -17.9918   27.0100 O   0  0  0  0  0  0  0  0  0  0  0  0
  2  3  1  0
  2  1  1  6
  4  3  1  0
  5  2  1  0
  6  5  2  0
  7  5  1  0
  8  7  1  0
  9 10  1  0
  8  9  1  1
 10 18  1  0
 10 11  2  0
 11 12  1  0
 13 12  1  0
 13 14  2  0
 15 14  1  0
 16 15  2  0
 17 16  1  0
 17 18  2  0
 18 13  1  0
 19  8  1  0
 19 21  1  0
 20 19  2  0
 22 21  1  0
 22 30  1  0
 22 23  1  1
 24 29  1  0
 24 23  1  0
 25 24  2  0
 26 27  2  0
 26 25  1  0
 27 28  1  0
 28 29  2  0
 30 32  1  0
 31 30  2  0
M  END
$$$$
