CWF.pdb
     RDKit          3D

 32 34  0  0  1  0  0  0  0  0999 V2000
   10.0078  -18.5609   19.1083 N   0  0  0  0  0  0  0  0  0  0  0  0
   10.6058  -17.2464   19.0484 C   0  0  1  0  0  0  0  0  0  0  0  0
    9.9658  -16.4284   17.9423 C   0  0  0  0  0  0  0  0  0  0  0  0
    8.2015  -16.2503   18.3186 S   0  0  0  0  0  0  0  0  0  0  0  0
   10.4643  -16.6060   20.3657 C   0  0  0  0  0  0  0  0  0  0  0  0
   11.1269  -15.5406   20.6345 O   0  0  0  0  0  0  0  0  0  0  0  0
    9.6340  -17.0681   21.4023 N   0  0  0  0  0  0  0  0  0  0  0  0
    9.4003  -16.4499   22.6825 C   0  0  1  0  0  0  0  0  0  0  0  0
    7.9515  -16.4878   22.9536 C   0  0  0  0  0  0  0  0  0  0  0  0
    7.3126  -15.1633   23.0664 C   0  0  0  0  0  0  0  0  0  0  0  0
    6.6648  -14.4423   22.0704 C   0  0  0  0  0  0  0  0  0  0  0  0
    6.2557  -13.2741   22.6280 N   0  0  0  0  0  0  0  0  0  0  0  0
    6.6119  -13.2203   23.9286 C   0  0  0  0  0  0  0  0  0  0  0  0
    6.4458  -12.3011   24.9335 C   0  0  0  0  0  0  0  0  0  0  0  0
    6.9190  -12.5117   26.2174 C   0  0  0  0  0  0  0  0  0  0  0  0
    7.5788  -13.6713   26.5149 C   0  0  0  0  0  0  0  0  0  0  0  0
    7.7415  -14.5901   25.5027 C   0  0  0  0  0  0  0  0  0  0  0  0
    7.2757  -14.4036   24.2058 C   0  0  0  0  0  0  0  0  0  0  0  0
   10.3020  -17.0472   23.6840 C   0  0  0  0  0  0  0  0  0  0  0  0
   10.6419  -18.2454   23.7451 O   0  0  0  0  0  0  0  0  0  0  0  0
   10.8261  -16.1778   24.6765 N   0  0  0  0  0  0  0  0  0  0  0  0
   11.7104  -16.6478   25.7530 C   0  0  1  0  0  0  0  0  0  0  0  0
   12.2215  -15.3977   26.4257 C   0  0  0  0  0  0  0  0  0  0  0  0
   11.4098  -15.1296   27.6391 C   0  0  0  0  0  0  0  0  0  0  0  0
   11.5422  -16.0203   28.7037 C   0  0  0  0  0  0  0  0  0  0  0  0
   10.8302  -15.7909   29.8451 C   0  0  0  0  0  0  0  0  0  0  0  0
    9.9971  -14.7236   29.9770 C   0  0  0  0  0  0  0  0  0  0  0  0
    9.8661  -13.8285   28.9035 C   0  0  0  0  0  0  0  0  0  0  0  0
   10.5744  -14.0460   27.7504 C   0  0  0  0  0  0  0  0  0  0  0  0
   10.9400  -17.4690   26.7004 C   0  0  0  0  0  0  0  0  0  0  0  0
   11.5475  -18.2626   27.5072 O   0  0  0  0  0  0  0  0  0  0  0  0
    9.5607  -17.4407   26.7848 O   0  0  0  0  0  0  0  0  0  0  0  0
  2  3  1  0
  2  1  1  1
  4  3  1  0
  5  2  1  0
  6  5  2  0
  7  5  1  0
  8  7  1  0
  9 10  1  0
  8  9  1  1
 10 18  1  0
 10 11  2  0
 11 12  1  0
 13 12  1  0
 13 14  2  0
 15 14  1  0
 16 15  2  0
 17 16  1  0
 17 18  2  0
 18 13  1  0
 19  8  1  0
 19 21  1  0
 20 19  2  0
 22 21  1  0
 22 30  1  0
 22 23  1  1
 24 29  1  0
 24 23  1  0
 25 24  2  0
 26 27  2  0
 26 25  1  0
 27 28  1  0
 28 29  2  0
 30 32  1  0
 31 30  2  0
M  END
$$$$
