CWF.pdb
     RDKit          3D

 32 34  0  0  1  0  0  0  0  0999 V2000
    7.4867  -18.3027   18.0146 N   0  0  0  0  0  0  0  0  0  0  0  0
    8.3180  -17.3054   18.6496 C   0  0  1  0  0  0  0  0  0  0  0  0
    8.2226  -15.9887   17.9018 C   0  0  0  0  0  0  0  0  0  0  0  0
    9.7063  -15.8120   16.8754 S   0  0  0  0  0  0  0  0  0  0  0  0
    7.9047  -17.1765   20.0561 C   0  0  0  0  0  0  0  0  0  0  0  0
    6.7253  -16.7594   20.3415 O   0  0  0  0  0  0  0  0  0  0  0  0
    8.7125  -17.4829   21.1655 N   0  0  0  0  0  0  0  0  0  0  0  0
    8.3631  -17.3869   22.5600 C   0  0  1  0  0  0  0  0  0  0  0  0
    8.0264  -18.7385   23.0436 C   0  0  0  0  0  0  0  0  0  0  0  0
    7.7098  -18.8153   24.4820 C   0  0  0  0  0  0  0  0  0  0  0  0
    6.5323  -18.4384   25.1166 C   0  0  0  0  0  0  0  0  0  0  0  0
    6.7043  -18.6699   26.4432 N   0  0  0  0  0  0  0  0  0  0  0  0
    7.9329  -19.1758   26.6797 C   0  0  0  0  0  0  0  0  0  0  0  0
    8.6035  -19.5856   27.8044 C   0  0  0  0  0  0  0  0  0  0  0  0
    9.8930  -20.0873   27.7578 C   0  0  0  0  0  0  0  0  0  0  0  0
   10.5392  -20.1856   26.5573 C   0  0  0  0  0  0  0  0  0  0  0  0
    9.8609  -19.7736   25.4324 C   0  0  0  0  0  0  0  0  0  0  0  0
    8.5660  -19.2671   25.4514 C   0  0  0  0  0  0  0  0  0  0  0  0
    9.4157  -16.6440   23.2761 C   0  0  0  0  0  0  0  0  0  0  0  0
   10.6402  -16.7003   23.0475 O   0  0  0  0  0  0  0  0  0  0  0  0
    8.9960  -15.7904   24.3301 N   0  0  0  0  0  0  0  0  0  0  0  0
    9.9415  -15.0007   25.1329 C   0  0  1  0  0  0  0  0  0  0  0  0
    9.6089  -13.5587   24.8394 C   0  0  0  0  0  0  0  0  0  0  0  0
    8.3154  -13.2157   25.4813 C   0  0  0  0  0  0  0  0  0  0  0  0
    7.1726  -13.2778   24.6849 C   0  0  0  0  0  0  0  0  0  0  0  0
    5.9625  -12.9936   25.2481 C   0  0  0  0  0  0  0  0  0  0  0  0
    5.8359  -12.6520   26.5588 C   0  0  0  0  0  0  0  0  0  0  0  0
    6.9882  -12.5906   27.3582 C   0  0  0  0  0  0  0  0  0  0  0  0
    8.2107  -12.8729   26.8065 C   0  0  0  0  0  0  0  0  0  0  0  0
    9.7446  -15.2987   26.5604 C   0  0  0  0  0  0  0  0  0  0  0  0
    8.6501  -15.8385   26.9610 O   0  0  0  0  0  0  0  0  0  0  0  0
   10.6914  -15.0303   27.5310 O   0  0  0  0  0  0  0  0  0  0  0  0
  2  3  1  0
  2  1  1  6
  4  3  1  0
  5  2  1  0
  6  5  2  0
  7  5  1  0
  8  7  1  0
  9 10  1  0
  8  9  1  1
 10 18  1  0
 10 11  2  0
 11 12  1  0
 13 12  1  0
 13 14  2  0
 15 14  1  0
 16 15  2  0
 17 16  1  0
 17 18  2  0
 18 13  1  0
 19  8  1  0
 19 21  1  0
 20 19  2  0
 22 21  1  0
 22 30  1  0
 22 23  1  1
 24 29  1  0
 24 23  1  0
 25 24  2  0
 26 27  2  0
 26 25  1  0
 27 28  1  0
 28 29  2  0
 30 32  1  0
 31 30  2  0
M  END
$$$$
