CWF.pdb
     RDKit          3D

 32 34  0  0  1  0  0  0  0  0999 V2000
   11.5530  -16.4084   18.3986 N   0  0  0  0  0  0  0  0  0  0  0  0
   10.6932  -17.2841   19.1621 C   0  0  1  0  0  0  0  0  0  0  0  0
   11.3211  -18.6598   19.2852 C   0  0  0  0  0  0  0  0  0  0  0  0
   12.9216  -18.4791   20.1171 S   0  0  0  0  0  0  0  0  0  0  0  0
   10.4432  -16.6683   20.4751 C   0  0  0  0  0  0  0  0  0  0  0  0
   11.2762  -15.8170   20.9525 O   0  0  0  0  0  0  0  0  0  0  0  0
    9.3288  -16.9325   21.2909 N   0  0  0  0  0  0  0  0  0  0  0  0
    9.0509  -16.3966   22.5991 C   0  0  1  0  0  0  0  0  0  0  0  0
    7.5888  -16.2718   22.7435 C   0  0  0  0  0  0  0  0  0  0  0  0
    7.1447  -15.7047   24.0306 C   0  0  0  0  0  0  0  0  0  0  0  0
    6.6726  -16.3878   25.1450 C   0  0  0  0  0  0  0  0  0  0  0  0
    6.3654  -15.4549   26.0821 N   0  0  0  0  0  0  0  0  0  0  0  0
    6.6207  -14.2143   25.6161 C   0  0  0  0  0  0  0  0  0  0  0  0
    6.5054  -12.9497   26.1356 C   0  0  0  0  0  0  0  0  0  0  0  0
    6.8582  -11.8185   25.4198 C   0  0  0  0  0  0  0  0  0  0  0  0
    7.3409  -11.9447   24.1471 C   0  0  0  0  0  0  0  0  0  0  0  0
    7.4551  -13.2161   23.6317 C   0  0  0  0  0  0  0  0  0  0  0  0
    7.1087  -14.3682   24.3292 C   0  0  0  0  0  0  0  0  0  0  0  0
    9.7761  -17.1840   23.6124 C   0  0  0  0  0  0  0  0  0  0  0  0
    9.9611  -18.4170   23.5910 O   0  0  0  0  0  0  0  0  0  0  0  0
   10.3067  -16.4724   24.7205 N   0  0  0  0  0  0  0  0  0  0  0  0
   11.2554  -17.0761   25.6677 C   0  0  1  0  0  0  0  0  0  0  0  0
   11.8848  -15.9158   26.3983 C   0  0  0  0  0  0  0  0  0  0  0  0
   10.8698  -15.2849   27.2786 C   0  0  0  0  0  0  0  0  0  0  0  0
   10.7797  -15.7572   28.5874 C   0  0  0  0  0  0  0  0  0  0  0  0
    9.8751  -15.1832   29.4327 C   0  0  0  0  0  0  0  0  0  0  0  0
    9.0599  -14.1675   29.0398 C   0  0  0  0  0  0  0  0  0  0  0  0
    9.1530  -13.6939   27.7216 C   0  0  0  0  0  0  0  0  0  0  0  0
   10.0566  -14.2609   26.8609 C   0  0  0  0  0  0  0  0  0  0  0  0
   10.5289  -17.9473   26.6051 C   0  0  0  0  0  0  0  0  0  0  0  0
   11.1638  -18.5620   27.5372 O   0  0  0  0  0  0  0  0  0  0  0  0
    9.1633  -18.1531   26.5494 O   0  0  0  0  0  0  0  0  0  0  0  0
  2  3  1  0
  2  1  1  6
  4  3  1  0
  5  2  1  0
  6  5  2  0
  7  5  1  0
  8  7  1  0
  9 10  1  0
  8  9  1  1
 10 18  1  0
 10 11  2  0
 11 12  1  0
 13 12  1  0
 13 14  2  0
 15 14  1  0
 16 15  2  0
 17 16  1  0
 17 18  2  0
 18 13  1  0
 19  8  1  0
 19 21  1  0
 20 19  2  0
 22 21  1  0
 22 30  1  0
 22 23  1  1
 24 29  1  0
 24 23  1  0
 25 24  2  0
 26 27  2  0
 26 25  1  0
 27 28  1  0
 28 29  2  0
 30 32  1  0
 31 30  2  0
M  END
$$$$
