CWF.pdb
     RDKit          3D

 32 34  0  0  1  0  0  0  0  0999 V2000
    7.4442  -21.3152   22.5091 N   0  0  0  0  0  0  0  0  0  0  0  0
    7.4271  -20.3590   23.5928 C   0  0  1  0  0  0  0  0  0  0  0  0
    7.7234  -21.0523   24.9095 C   0  0  0  0  0  0  0  0  0  0  0  0
    7.1957  -19.9592   26.2559 S   0  0  0  0  0  0  0  0  0  0  0  0
    8.3985  -19.2946   23.2948 C   0  0  0  0  0  0  0  0  0  0  0  0
    9.4564  -19.5633   22.6201 O   0  0  0  0  0  0  0  0  0  0  0  0
    8.2716  -17.9520   23.6931 N   0  0  0  0  0  0  0  0  0  0  0  0
    9.2175  -16.8836   23.4947 C   0  0  1  0  0  0  0  0  0  0  0  0
    8.5088  -15.6031   23.6738 C   0  0  0  0  0  0  0  0  0  0  0  0
    7.5665  -15.2655   22.5905 C   0  0  0  0  0  0  0  0  0  0  0  0
    6.2948  -15.7830   22.3755 C   0  0  0  0  0  0  0  0  0  0  0  0
    5.8117  -15.1952   21.2512 N   0  0  0  0  0  0  0  0  0  0  0  0
    6.7149  -14.3301   20.7441 C   0  0  0  0  0  0  0  0  0  0  0  0
    6.7373  -13.4894   19.6600 C   0  0  0  0  0  0  0  0  0  0  0  0
    7.8232  -12.6810   19.3704 C   0  0  0  0  0  0  0  0  0  0  0  0
    8.9231  -12.7070   20.1815 C   0  0  0  0  0  0  0  0  0  0  0  0
    8.8943  -13.5518   21.2681 C   0  0  0  0  0  0  0  0  0  0  0  0
    7.8168  -14.3730   21.5817 C   0  0  0  0  0  0  0  0  0  0  0  0
   10.4113  -17.1293   24.3237 C   0  0  0  0  0  0  0  0  0  0  0  0
   11.5434  -17.4447   23.9067 O   0  0  0  0  0  0  0  0  0  0  0  0
   10.2550  -17.0024   25.7291 N   0  0  0  0  0  0  0  0  0  0  0  0
   11.3808  -17.1341   26.6655 C   0  0  1  0  0  0  0  0  0  0  0  0
   11.9242  -15.7371   26.8373 C   0  0  0  0  0  0  0  0  0  0  0  0
   10.8358  -14.8446   27.3083 C   0  0  0  0  0  0  0  0  0  0  0  0
   10.1080  -14.1595   26.3361 C   0  0  0  0  0  0  0  0  0  0  0  0
    9.0832  -13.3496   26.7312 C   0  0  0  0  0  0  0  0  0  0  0  0
    8.7501  -13.1891   28.0403 C   0  0  0  0  0  0  0  0  0  0  0  0
    9.4845  -13.8803   29.0169 C   0  0  0  0  0  0  0  0  0  0  0  0
   10.5169  -14.6972   28.6354 C   0  0  0  0  0  0  0  0  0  0  0  0
   10.8945  -17.6635   27.9495 C   0  0  0  0  0  0  0  0  0  0  0  0
   11.6938  -17.7615   28.9501 O   0  0  0  0  0  0  0  0  0  0  0  0
    9.5912  -18.0734   28.1585 O   0  0  0  0  0  0  0  0  0  0  0  0
  2  3  1  0
  2  1  1  6
  4  3  1  0
  5  2  1  0
  6  5  2  0
  7  5  1  0
  8  7  1  0
  9 10  1  0
  8  9  1  1
 10 18  1  0
 10 11  2  0
 11 12  1  0
 13 12  1  0
 13 14  2  0
 15 14  1  0
 16 15  2  0
 17 16  1  0
 17 18  2  0
 18 13  1  0
 19  8  1  0
 19 21  1  0
 20 19  2  0
 22 21  1  0
 22 30  1  0
 22 23  1  1
 24 29  1  0
 24 23  1  0
 25 24  2  0
 26 27  2  0
 26 25  1  0
 27 28  1  0
 28 29  2  0
 30 32  1  0
 31 30  2  0
M  END
$$$$
