CWF.pdb
     RDKit          3D

 32 34  0  0  1  0  0  0  0  0999 V2000
    8.1587  -16.6098   19.6197 N   0  0  0  0  0  0  0  0  0  0  0  0
    8.1767  -17.2125   20.9333 C   0  0  1  0  0  0  0  0  0  0  0  0
    8.8793  -18.5564   20.8848 C   0  0  0  0  0  0  0  0  0  0  0  0
   10.5997  -18.2778   20.3859 S   0  0  0  0  0  0  0  0  0  0  0  0
    8.8257  -16.2799   21.8685 C   0  0  0  0  0  0  0  0  0  0  0  0
    9.5124  -15.2944   21.4172 O   0  0  0  0  0  0  0  0  0  0  0  0
    8.7601  -16.3673   23.2704 N   0  0  0  0  0  0  0  0  0  0  0  0
    9.4853  -15.5798   24.2346 C   0  0  1  0  0  0  0  0  0  0  0  0
    8.7585  -15.6386   25.5161 C   0  0  0  0  0  0  0  0  0  0  0  0
    7.3986  -15.0690   25.4780 C   0  0  0  0  0  0  0  0  0  0  0  0
    6.1888  -15.7526   25.4566 C   0  0  0  0  0  0  0  0  0  0  0  0
    5.2055  -14.8182   25.4023 N   0  0  0  0  0  0  0  0  0  0  0  0
    5.7333  -13.5761   25.3892 C   0  0  0  0  0  0  0  0  0  0  0  0
    5.2085  -12.3090   25.3509 C   0  0  0  0  0  0  0  0  0  0  0  0
    6.0040  -11.1760   25.3558 C   0  0  0  0  0  0  0  0  0  0  0  0
    7.3643  -11.3030   25.3997 C   0  0  0  0  0  0  0  0  0  0  0  0
    7.8848  -12.5769   25.4388 C   0  0  0  0  0  0  0  0  0  0  0  0
    7.1087  -13.7307   25.4356 C   0  0  0  0  0  0  0  0  0  0  0  0
   10.9021  -15.9867   24.2296 C   0  0  0  0  0  0  0  0  0  0  0  0
   11.8024  -15.5055   23.5135 O   0  0  0  0  0  0  0  0  0  0  0  0
   11.2743  -17.0297   25.1179 N   0  0  0  0  0  0  0  0  0  0  0  0
   12.6331  -17.1557   25.6653 C   0  0  1  0  0  0  0  0  0  0  0  0
   12.4475  -17.4664   27.1300 C   0  0  0  0  0  0  0  0  0  0  0  0
   11.6568  -16.3814   27.7627 C   0  0  0  0  0  0  0  0  0  0  0  0
   10.3919  -16.7136   28.2463 C   0  0  0  0  0  0  0  0  0  0  0  0
    9.6468  -15.7471   28.8571 C   0  0  0  0  0  0  0  0  0  0  0  0
   10.0976  -14.4726   29.0085 C   0  0  0  0  0  0  0  0  0  0  0  0
   11.3715  -14.1411   28.5208 C   0  0  0  0  0  0  0  0  0  0  0  0
   12.1314  -15.1011   27.9046 C   0  0  0  0  0  0  0  0  0  0  0  0
   13.3378  -18.2549   24.9867 C   0  0  0  0  0  0  0  0  0  0  0  0
   14.5467  -18.5428   25.3114 O   0  0  0  0  0  0  0  0  0  0  0  0
   12.7659  -19.0257   23.9920 O   0  0  0  0  0  0  0  0  0  0  0  0
  2  3  1  0
  2  1  1  6
  4  3  1  0
  5  2  1  0
  6  5  2  0
  7  5  1  0
  8  7  1  0
  9 10  1  0
  8  9  1  1
 10 18  1  0
 10 11  2  0
 11 12  1  0
 13 12  1  0
 13 14  2  0
 15 14  1  0
 16 15  2  0
 17 16  1  0
 17 18  2  0
 18 13  1  0
 19  8  1  0
 19 21  1  0
 20 19  2  0
 22 21  1  0
 22 30  1  0
 22 23  1  1
 24 29  1  0
 24 23  1  0
 25 24  2  0
 26 27  2  0
 26 25  1  0
 27 28  1  0
 28 29  2  0
 30 32  1  0
 31 30  2  0
M  END
$$$$
