CWF.pdb
     RDKit          3D

 32 34  0  0  1  0  0  0  0  0999 V2000
   11.7805  -16.4500   18.7872 N   0  0  0  0  0  0  0  0  0  0  0  0
   10.7749  -17.2620   19.4342 C   0  0  1  0  0  0  0  0  0  0  0  0
   11.1531  -18.7291   19.3536 C   0  0  0  0  0  0  0  0  0  0  0  0
   12.6616  -18.9790   20.3274 S   0  0  0  0  0  0  0  0  0  0  0  0
   10.6241  -16.8028   20.8241 C   0  0  0  0  0  0  0  0  0  0  0  0
   11.5709  -16.1455   21.3879 O   0  0  0  0  0  0  0  0  0  0  0  0
    9.4912  -17.0223   21.6277 N   0  0  0  0  0  0  0  0  0  0  0  0
    9.3333  -16.7150   23.0264 C   0  0  1  0  0  0  0  0  0  0  0  0
    7.9111  -16.4144   23.2733 C   0  0  0  0  0  0  0  0  0  0  0  0
    7.5954  -14.9772   23.3741 C   0  0  0  0  0  0  0  0  0  0  0  0
    7.6984  -14.0105   22.3810 C   0  0  0  0  0  0  0  0  0  0  0  0
    7.3214  -12.8300   22.9351 N   0  0  0  0  0  0  0  0  0  0  0  0
    6.9838  -13.0018   24.2305 C   0  0  0  0  0  0  0  0  0  0  0  0
    6.5358  -12.1702   25.2256 C   0  0  0  0  0  0  0  0  0  0  0  0
    6.2494  -12.6263   26.5009 C   0  0  0  0  0  0  0  0  0  0  0  0
    6.4127  -13.9501   26.7999 C   0  0  0  0  0  0  0  0  0  0  0  0
    6.8616  -14.7797   25.7971 C   0  0  0  0  0  0  0  0  0  0  0  0
    7.1556  -14.3475   24.5086 C   0  0  0  0  0  0  0  0  0  0  0  0
    9.9603  -17.7778   23.8326 C   0  0  0  0  0  0  0  0  0  0  0  0
   10.7521  -18.6463   23.4157 O   0  0  0  0  0  0  0  0  0  0  0  0
    9.6248  -17.8211   25.2115 N   0  0  0  0  0  0  0  0  0  0  0  0
   10.6294  -18.0323   26.2640 C   0  0  1  0  0  0  0  0  0  0  0  0
   11.5503  -16.8398   26.1836 C   0  0  0  0  0  0  0  0  0  0  0  0
   11.1290  -15.8293   27.1859 C   0  0  0  0  0  0  0  0  0  0  0  0
   10.7787  -14.5667   26.7092 C   0  0  0  0  0  0  0  0  0  0  0  0
   10.3621  -13.6202   27.5996 C   0  0  0  0  0  0  0  0  0  0  0  0
   10.2782  -13.8685   28.9344 C   0  0  0  0  0  0  0  0  0  0  0  0
   10.6313  -15.1407   29.4114 C   0  0  0  0  0  0  0  0  0  0  0  0
   11.0521  -16.1016   28.5292 C   0  0  0  0  0  0  0  0  0  0  0  0
    9.9648  -18.0873   27.5757 C   0  0  0  0  0  0  0  0  0  0  0  0
    8.7445  -17.7051   27.6963 O   0  0  0  0  0  0  0  0  0  0  0  0
   10.5856  -18.5406   28.7245 O   0  0  0  0  0  0  0  0  0  0  0  0
  2  3  1  0
  2  1  1  1
  4  3  1  0
  5  2  1  0
  6  5  2  0
  7  5  1  0
  8  7  1  0
  9 10  1  0
  8  9  1  1
 10 18  1  0
 10 11  2  0
 11 12  1  0
 13 12  1  0
 13 14  2  0
 15 14  1  0
 16 15  2  0
 17 16  1  0
 17 18  2  0
 18 13  1  0
 19  8  1  0
 19 21  1  0
 20 19  2  0
 22 21  1  0
 22 30  1  0
 22 23  1  1
 24 29  1  0
 24 23  1  0
 25 24  2  0
 26 27  2  0
 26 25  1  0
 27 28  1  0
 28 29  2  0
 30 32  1  0
 31 30  2  0
M  END
$$$$
