CWF.pdb
     RDKit          3D

 32 34  0  0  1  0  0  0  0  0999 V2000
    9.3196  -17.2754   18.0840 N   0  0  0  0  0  0  0  0  0  0  0  0
    9.2569  -18.0174   19.3227 C   0  0  1  0  0  0  0  0  0  0  0  0
   10.4350  -18.9680   19.4255 C   0  0  0  0  0  0  0  0  0  0  0  0
   11.9435  -17.9810   19.6171 S   0  0  0  0  0  0  0  0  0  0  0  0
    9.2153  -17.0615   20.4407 C   0  0  0  0  0  0  0  0  0  0  0  0
    9.8086  -15.9285   20.3372 O   0  0  0  0  0  0  0  0  0  0  0  0
    8.5564  -17.2788   21.6638 N   0  0  0  0  0  0  0  0  0  0  0  0
    8.5649  -16.4314   22.8290 C   0  0  1  0  0  0  0  0  0  0  0  0
    7.4780  -16.8696   23.7238 C   0  0  0  0  0  0  0  0  0  0  0  0
    6.9754  -15.8260   24.6368 C   0  0  0  0  0  0  0  0  0  0  0  0
    6.2908  -15.9988   25.8339 C   0  0  0  0  0  0  0  0  0  0  0  0
    6.0130  -14.7601   26.3150 N   0  0  0  0  0  0  0  0  0  0  0  0
    6.4890  -13.8112   25.4817 C   0  0  0  0  0  0  0  0  0  0  0  0
    6.4930  -12.4392   25.4895 C   0  0  0  0  0  0  0  0  0  0  0  0
    7.0777  -11.6932   24.4805 C   0  0  0  0  0  0  0  0  0  0  0  0
    7.6779  -12.3277   23.4290 C   0  0  0  0  0  0  0  0  0  0  0  0
    7.6715  -13.7044   23.4273 C   0  0  0  0  0  0  0  0  0  0  0  0
    7.0922  -14.4770   24.4278 C   0  0  0  0  0  0  0  0  0  0  0  0
    9.9300  -16.3772   23.3824 C   0  0  0  0  0  0  0  0  0  0  0  0
   10.9321  -15.8924   22.8205 O   0  0  0  0  0  0  0  0  0  0  0  0
   10.1229  -16.9366   24.6729 N   0  0  0  0  0  0  0  0  0  0  0  0
   11.4468  -17.0272   25.3062 C   0  0  1  0  0  0  0  0  0  0  0  0
   11.8714  -15.6005   25.5523 C   0  0  0  0  0  0  0  0  0  0  0  0
   11.1115  -15.0572   26.7057 C   0  0  0  0  0  0  0  0  0  0  0  0
   11.3831  -15.6009   27.9606 C   0  0  0  0  0  0  0  0  0  0  0  0
   10.7217  -15.1081   29.0478 C   0  0  0  0  0  0  0  0  0  0  0  0
    9.8074  -14.1059   28.9464 C   0  0  0  0  0  0  0  0  0  0  0  0
    9.5361  -13.5603   27.6817 C   0  0  0  0  0  0  0  0  0  0  0  0
   10.1924  -14.0453   26.5804 C   0  0  0  0  0  0  0  0  0  0  0  0
   11.3363  -17.7624   26.5761 C   0  0  0  0  0  0  0  0  0  0  0  0
   12.3760  -17.9434   27.3083 O   0  0  0  0  0  0  0  0  0  0  0  0
   10.1487  -18.2862   27.0509 O   0  0  0  0  0  0  0  0  0  0  0  0
  2  3  1  0
  2  1  1  6
  4  3  1  0
  5  2  1  0
  6  5  2  0
  7  5  1  0
  8  7  1  0
  9 10  1  0
  8  9  1  1
 10 18  1  0
 10 11  2  0
 11 12  1  0
 13 12  1  0
 13 14  2  0
 15 14  1  0
 16 15  2  0
 17 16  1  0
 17 18  2  0
 18 13  1  0
 19  8  1  0
 19 21  1  0
 20 19  2  0
 22 21  1  0
 22 30  1  0
 22 23  1  1
 24 29  1  0
 24 23  1  0
 25 24  2  0
 26 27  2  0
 26 25  1  0
 27 28  1  0
 28 29  2  0
 30 32  1  0
 31 30  2  0
M  END
$$$$
