WLW.pdb
     RDKit          3D

 37 40  0  0  1  0  0  0  0  0999 V2000
    8.8223  -20.1068   21.8160 N   0  0  0  0  0  0  0  0  0  0  0  0
   10.1491  -19.5272   21.5577 C   0  0  1  0  0  0  0  0  0  0  0  0
   10.7723  -20.3537   20.4272 C   0  0  0  0  0  0  0  0  0  0  0  0
   10.9411  -21.7560   20.8409 C   0  0  0  0  0  0  0  0  0  0  0  0
   10.0287  -22.7944   20.6762 C   0  0  0  0  0  0  0  0  0  0  0  0
   10.5882  -23.8855   21.2048 N   0  0  0  0  0  0  0  0  0  0  0  0
   11.8172  -23.5868   21.6987 C   0  0  0  0  0  0  0  0  0  0  0  0
   12.7713  -24.3535   22.3274 C   0  0  0  0  0  0  0  0  0  0  0  0
   13.9611  -23.7877   22.7357 C   0  0  0  0  0  0  0  0  0  0  0  0
   14.1820  -22.4434   22.5059 C   0  0  0  0  0  0  0  0  0  0  0  0
   13.2572  -21.6533   21.8843 C   0  0  0  0  0  0  0  0  0  0  0  0
   12.0607  -22.2459   21.4797 C   0  0  0  0  0  0  0  0  0  0  0  0
   10.0034  -18.1538   21.0028 C   0  0  0  0  0  0  0  0  0  0  0  0
   10.8431  -17.7710   20.1649 O   0  0  0  0  0  0  0  0  0  0  0  0
    8.6090  -13.1223   20.2573 C   0  0  0  0  0  0  0  0  0  0  0  0
    7.8313  -13.7433   21.3822 C   0  0  1  0  0  0  0  0  0  0  0  0
    6.3755  -13.2795   21.1669 C   0  0  0  0  0  0  0  0  0  0  0  0
    7.8025  -15.2321   21.3613 C   0  0  0  0  0  0  0  0  0  0  0  0
    9.1441  -15.9013   21.5260 C   0  0  2  0  0  0  0  0  0  0  0  0
    8.9327  -17.3379   21.4358 N   0  0  0  0  0  0  0  0  0  0  0  0
    9.8510  -15.5587   22.7636 C   0  0  0  0  0  0  0  0  0  0  0  0
   10.6085  -14.5461   22.7548 O   0  0  0  0  0  0  0  0  0  0  0  0
    9.6713  -16.3573   23.9223 N   0  0  0  0  0  0  0  0  0  0  0  0
   10.2664  -15.9204   25.1651 C   0  0  1  0  0  0  0  0  0  0  0  0
    9.2937  -16.0895   26.3179 C   0  0  0  0  0  0  0  0  0  0  0  0
    8.0433  -15.3526   26.1247 C   0  0  0  0  0  0  0  0  0  0  0  0
    6.8354  -15.9460   25.8257 C   0  0  0  0  0  0  0  0  0  0  0  0
    5.8939  -14.9950   25.7201 N   0  0  0  0  0  0  0  0  0  0  0  0
    6.4947  -13.8115   25.9488 C   0  0  0  0  0  0  0  0  0  0  0  0
    5.9596  -12.5323   25.9543 C   0  0  0  0  0  0  0  0  0  0  0  0
    6.8089  -11.4717   26.2213 C   0  0  0  0  0  0  0  0  0  0  0  0
    8.1548  -11.6801   26.4757 C   0  0  0  0  0  0  0  0  0  0  0  0
    8.6960  -12.9442   26.4727 C   0  0  0  0  0  0  0  0  0  0  0  0
    7.8417  -13.9901   26.2064 C   0  0  0  0  0  0  0  0  0  0  0  0
   11.3982  -16.8785   25.4401 C   0  0  0  0  0  0  0  0  0  0  0  0
   11.6511  -17.9544   24.6029 O   0  0  0  0  0  0  0  0  0  0  0  0
   12.1606  -16.7430   26.4402 O   0  0  0  0  0  0  0  0  0  0  0  0
  2  1  1  6
  2  3  1  0
  3  4  1  0
  4  5  2  0
  5  6  1  0
  7  8  2  0
  7  6  1  0
  9  8  1  0
 10  9  2  0
 11 10  1  0
 11 12  2  0
 12  4  1  0
 12  7  1  0
 13  2  1  0
 13 14  2  0
 16 18  1  0
 16 17  1  6
 16 15  1  0
 19 20  1  0
 19 18  1  1
 20 13  1  0
 21 19  1  0
 22 21  2  0
 23 21  1  0
 24 23  1  0
 25 26  1  0
 24 25  1  1
 26 27  2  0
 27 28  1  0
 29 28  1  0
 30 29  2  0
 31 30  1  0
 32 33  1  0
 32 31  2  0
 33 34  2  0
 34 26  1  0
 34 29  1  0
 35 24  1  0
 35 36  1  0
 37 35  2  0
M  END
$$$$
