WLW.pdb
     RDKit          3D

 37 40  0  0  1  0  0  0  0  0999 V2000
    8.3513  -20.0506   19.8429 N   0  0  0  0  0  0  0  0  0  0  0  0
    7.8362  -19.2677   20.9764 C   0  0  1  0  0  0  0  0  0  0  0  0
    8.1222  -20.0894   22.2383 C   0  0  0  0  0  0  0  0  0  0  0  0
    7.4161  -19.5227   23.3986 C   0  0  0  0  0  0  0  0  0  0  0  0
    6.2120  -18.8244   23.3882 C   0  0  0  0  0  0  0  0  0  0  0  0
    5.9508  -18.4892   24.6542 N   0  0  0  0  0  0  0  0  0  0  0  0
    6.9362  -18.9442   25.4699 C   0  0  0  0  0  0  0  0  0  0  0  0
    7.1225  -18.8575   26.8305 C   0  0  0  0  0  0  0  0  0  0  0  0
    8.2358  -19.4212   27.4181 C   0  0  0  0  0  0  0  0  0  0  0  0
    9.1600  -20.0727   26.6243 C   0  0  0  0  0  0  0  0  0  0  0  0
    9.0063  -20.1778   25.2710 C   0  0  0  0  0  0  0  0  0  0  0  0
    7.8732  -19.6003   24.6974 C   0  0  0  0  0  0  0  0  0  0  0  0
    8.6319  -18.0198   21.1342 C   0  0  0  0  0  0  0  0  0  0  0  0
    9.8576  -18.0778   20.9152 O   0  0  0  0  0  0  0  0  0  0  0  0
    6.1599  -13.0763   20.3047 C   0  0  0  0  0  0  0  0  0  0  0  0
    7.1731  -14.1850   20.2925 C   0  0  1  0  0  0  0  0  0  0  0  0
    8.2911  -13.6958   19.3482 C   0  0  0  0  0  0  0  0  0  0  0  0
    7.8207  -14.4406   21.6089 C   0  0  0  0  0  0  0  0  0  0  0  0
    8.7738  -15.6091   21.6382 C   0  0  2  0  0  0  0  0  0  0  0  0
    7.9829  -16.8245   21.5211 N   0  0  0  0  0  0  0  0  0  0  0  0
    9.6370  -15.6652   22.8217 C   0  0  0  0  0  0  0  0  0  0  0  0
   10.7537  -15.0737   22.7718 O   0  0  0  0  0  0  0  0  0  0  0  0
    9.2064  -16.3692   23.9757 N   0  0  0  0  0  0  0  0  0  0  0  0
    9.9092  -16.1562   25.2208 C   0  0  1  0  0  0  0  0  0  0  0  0
    8.9598  -16.2580   26.4006 C   0  0  0  0  0  0  0  0  0  0  0  0
    7.7690  -15.4191   26.2512 C   0  0  0  0  0  0  0  0  0  0  0  0
    6.5514  -15.8801   25.7981 C   0  0  0  0  0  0  0  0  0  0  0  0
    5.6749  -14.8635   25.7851 N   0  0  0  0  0  0  0  0  0  0  0  0
    6.3262  -13.7694   26.2242 C   0  0  0  0  0  0  0  0  0  0  0  0
    5.8661  -12.4723   26.3935 C   0  0  0  0  0  0  0  0  0  0  0  0
    6.7554  -11.5218   26.8657 C   0  0  0  0  0  0  0  0  0  0  0  0
    8.0675  -11.8546   27.1611 C   0  0  0  0  0  0  0  0  0  0  0  0
    8.5344  -13.1375   26.9968 C   0  0  0  0  0  0  0  0  0  0  0  0
    7.6409  -14.0733   26.5271 C   0  0  0  0  0  0  0  0  0  0  0  0
   10.8622  -17.3167   25.3605 C   0  0  0  0  0  0  0  0  0  0  0  0
   11.8259  -17.3418   26.3571 O   0  0  0  0  0  0  0  0  0  0  0  0
   10.8242  -18.3107   24.5793 O   0  0  0  0  0  0  0  0  0  0  0  0
  2  1  1  6
  2  3  1  0
  3  4  1  0
  4  5  2  0
  5  6  1  0
  7  8  2  0
  7  6  1  0
  9  8  1  0
 10  9  2  0
 11 10  1  0
 11 12  2  0
 12  4  1  0
 12  7  1  0
 13  2  1  0
 13 14  2  0
 16 18  1  0
 16 17  1  6
 16 15  1  0
 19 20  1  0
 19 18  1  1
 20 13  1  0
 21 19  1  0
 22 21  2  0
 23 21  1  0
 24 23  1  0
 25 26  1  0
 24 25  1  1
 26 27  2  0
 27 28  1  0
 29 28  1  0
 30 29  2  0
 31 30  1  0
 32 33  1  0
 32 31  2  0
 33 34  2  0
 34 26  1  0
 34 29  1  0
 35 24  1  0
 35 36  1  0
 37 35  2  0
M  END
$$$$
