WLW.pdb
     RDKit          3D

 37 40  0  0  1  0  0  0  0  0999 V2000
    5.8886  -18.7792   24.1477 N   0  0  0  0  0  0  0  0  0  0  0  0
    6.3557  -17.3847   24.1567 C   0  0  1  0  0  0  0  0  0  0  0  0
    7.2933  -17.2477   25.3615 C   0  0  0  0  0  0  0  0  0  0  0  0
    6.9305  -16.0737   26.1716 C   0  0  0  0  0  0  0  0  0  0  0  0
    5.7567  -15.8848   26.8954 C   0  0  0  0  0  0  0  0  0  0  0  0
    5.8464  -14.6811   27.4666 N   0  0  0  0  0  0  0  0  0  0  0  0
    7.0266  -14.0958   27.1379 C   0  0  0  0  0  0  0  0  0  0  0  0
    7.5788  -12.8801   27.4706 C   0  0  0  0  0  0  0  0  0  0  0  0
    8.8224  -12.5257   26.9907 C   0  0  0  0  0  0  0  0  0  0  0  0
    9.5051  -13.4054   26.1730 C   0  0  0  0  0  0  0  0  0  0  0  0
    8.9871  -14.6200   25.8233 C   0  0  0  0  0  0  0  0  0  0  0  0
    7.7277  -14.9582   26.3196 C   0  0  0  0  0  0  0  0  0  0  0  0
    7.2104  -17.1283   22.9655 C   0  0  0  0  0  0  0  0  0  0  0  0
    7.8938  -18.0725   22.5237 O   0  0  0  0  0  0  0  0  0  0  0  0
    7.2648  -13.7606   18.1272 C   0  0  0  0  0  0  0  0  0  0  0  0
    8.2249  -14.0113   19.2547 C   0  0  1  0  0  0  0  0  0  0  0  0
    8.9576  -12.6695   19.4630 C   0  0  0  0  0  0  0  0  0  0  0  0
    7.5752  -14.3383   20.5541 C   0  0  0  0  0  0  0  0  0  0  0  0
    8.0406  -15.6200   21.1987 C   0  0  2  0  0  0  0  0  0  0  0  0
    7.2202  -15.8414   22.3795 N   0  0  0  0  0  0  0  0  0  0  0  0
    9.4648  -15.6490   21.5448 C   0  0  0  0  0  0  0  0  0  0  0  0
   10.3034  -15.7518   20.6039 O   0  0  0  0  0  0  0  0  0  0  0  0
    9.8618  -15.5618   22.9040 N   0  0  0  0  0  0  0  0  0  0  0  0
   11.2511  -15.3000   23.2055 C   0  0  1  0  0  0  0  0  0  0  0  0
   11.3889  -14.5847   24.5370 C   0  0  0  0  0  0  0  0  0  0  0  0
   10.5595  -15.1723   25.5910 C   0  0  0  0  0  0  0  0  0  0  0  0
   10.8139  -16.3899   26.1854 C   0  0  0  0  0  0  0  0  0  0  0  0
    9.8720  -16.6312   27.1109 N   0  0  0  0  0  0  0  0  0  0  0  0
    9.0290  -15.5810   27.1057 C   0  0  0  0  0  0  0  0  0  0  0  0
    7.8972  -15.3491   27.8726 C   0  0  0  0  0  0  0  0  0  0  0  0
    7.1988  -14.1717   27.6644 C   0  0  0  0  0  0  0  0  0  0  0  0
    7.6167  -13.2505   26.7176 C   0  0  0  0  0  0  0  0  0  0  0  0
    8.7372  -13.4703   25.9515 C   0  0  0  0  0  0  0  0  0  0  0  0
    9.4230  -14.6440   26.1680 C   0  0  0  0  0  0  0  0  0  0  0  0
   11.8934  -16.6510   23.3978 C   0  0  0  0  0  0  0  0  0  0  0  0
   11.1444  -17.8172   23.3574 O   0  0  0  0  0  0  0  0  0  0  0  0
   13.1348  -16.7778   23.6032 O   0  0  0  0  0  0  0  0  0  0  0  0
  2  1  1  6
  2  3  1  0
  3  4  1  0
  4  5  2  0
  5  6  1  0
  7  8  2  0
  7  6  1  0
  9  8  1  0
 10  9  2  0
 11 10  1  0
 11 12  2  0
 12  4  1  0
 12  7  1  0
 13  2  1  0
 13 14  2  0
 16 18  1  0
 16 17  1  1
 16 15  1  0
 19 20  1  0
 19 18  1  1
 20 13  1  0
 21 19  1  0
 22 21  2  0
 23 21  1  0
 24 23  1  0
 25 26  1  0
 24 25  1  1
 26 27  2  0
 27 28  1  0
 29 28  1  0
 30 29  2  0
 31 30  1  0
 32 33  1  0
 32 31  2  0
 33 34  2  0
 34 26  1  0
 34 29  1  0
 35 24  1  0
 35 36  1  0
 37 35  2  0
M  END
$$$$
