WLW.pdb
     RDKit          3D

 37 40  0  0  1  0  0  0  0  0999 V2000
    6.3904  -18.2206   23.9638 N   0  0  0  0  0  0  0  0  0  0  0  0
    6.9608  -16.8759   23.7921 C   0  0  1  0  0  0  0  0  0  0  0  0
    7.7666  -16.5797   25.0619 C   0  0  0  0  0  0  0  0  0  0  0  0
    7.0901  -15.5610   25.8809 C   0  0  0  0  0  0  0  0  0  0  0  0
    6.1552  -15.7806   26.8885 C   0  0  0  0  0  0  0  0  0  0  0  0
    5.8004  -14.5797   27.3525 N   0  0  0  0  0  0  0  0  0  0  0  0
    6.4692  -13.6053   26.6841 C   0  0  0  0  0  0  0  0  0  0  0  0
    6.4531  -12.2336   26.7916 C   0  0  0  0  0  0  0  0  0  0  0  0
    7.2500  -11.4616   25.9721 C   0  0  0  0  0  0  0  0  0  0  0  0
    8.0630  -12.0823   25.0435 C   0  0  0  0  0  0  0  0  0  0  0  0
    8.1041  -13.4412   24.9102 C   0  0  0  0  0  0  0  0  0  0  0  0
    7.2899  -14.2029   25.7489 C   0  0  0  0  0  0  0  0  0  0  0  0
    7.9600  -16.8858   22.6889 C   0  0  0  0  0  0  0  0  0  0  0  0
    8.3763  -17.9904   22.2889 O   0  0  0  0  0  0  0  0  0  0  0  0
    7.9151  -12.2137   20.0334 C   0  0  0  0  0  0  0  0  0  0  0  0
    7.9576  -13.5827   20.6497 C   0  0  1  0  0  0  0  0  0  0  0  0
    6.7033  -14.3031   20.1125 C   0  0  0  0  0  0  0  0  0  0  0  0
    9.1243  -14.4088   20.2324 C   0  0  0  0  0  0  0  0  0  0  0  0
    9.3061  -15.6947   20.9994 C   0  0  2  0  0  0  0  0  0  0  0  0
    8.3990  -15.6605   22.1362 N   0  0  0  0  0  0  0  0  0  0  0  0
   10.6796  -15.9551   21.4406 C   0  0  0  0  0  0  0  0  0  0  0  0
   11.5878  -16.0012   20.5617 O   0  0  0  0  0  0  0  0  0  0  0  0
   10.9530  -16.1453   22.8196 N   0  0  0  0  0  0  0  0  0  0  0  0
   12.3250  -16.3291   23.2360 C   0  0  1  0  0  0  0  0  0  0  0  0
   12.6521  -15.4420   24.4233 C   0  0  0  0  0  0  0  0  0  0  0  0
   11.8210  -15.7247   25.5952 C   0  0  0  0  0  0  0  0  0  0  0  0
   11.4283  -16.9900   25.9764 C   0  0  0  0  0  0  0  0  0  0  0  0
   10.6832  -16.9011   27.0895 N   0  0  0  0  0  0  0  0  0  0  0  0
   10.6026  -15.5961   27.4126 C   0  0  0  0  0  0  0  0  0  0  0  0
    9.9488  -14.9838   28.4710 C   0  0  0  0  0  0  0  0  0  0  0  0
   10.0241  -13.6050   28.5738 C   0  0  0  0  0  0  0  0  0  0  0  0
   10.7315  -12.8566   27.6469 C   0  0  0  0  0  0  0  0  0  0  0  0
   11.3835  -13.4533   26.5934 C   0  0  0  0  0  0  0  0  0  0  0  0
   11.3015  -14.8243   26.5024 C   0  0  0  0  0  0  0  0  0  0  0  0
   12.4154  -17.7457   23.7457 C   0  0  0  0  0  0  0  0  0  0  0  0
   11.2969  -18.5628   23.8052 O   0  0  0  0  0  0  0  0  0  0  0  0
   13.5084  -18.2461   24.1388 O   0  0  0  0  0  0  0  0  0  0  0  0
  2  1  1  1
  2  3  1  0
  3  4  1  0
  4  5  2  0
  5  6  1  0
  7  8  2  0
  7  6  1  0
  9  8  1  0
 10  9  2  0
 11 10  1  0
 11 12  2  0
 12  4  1  0
 12  7  1  0
 13  2  1  0
 13 14  2  0
 16 18  1  0
 16 17  1  6
 16 15  1  0
 19 20  1  0
 19 18  1  1
 20 13  1  0
 21 19  1  0
 22 21  2  0
 23 21  1  0
 24 23  1  0
 25 26  1  0
 24 25  1  1
 26 27  2  0
 27 28  1  0
 29 28  1  0
 30 29  2  0
 31 30  1  0
 32 33  1  0
 32 31  2  0
 33 34  2  0
 34 26  1  0
 34 29  1  0
 35 24  1  0
 35 36  1  0
 37 35  2  0
M  END
$$$$
