WLW.pdb
     RDKit          3D

 37 40  0  0  1  0  0  0  0  0999 V2000
    6.0551  -19.8890   24.1363 N   0  0  0  0  0  0  0  0  0  0  0  0
    6.9154  -18.7812   24.5786 C   0  0  1  0  0  0  0  0  0  0  0  0
    8.0624  -19.4125   25.3756 C   0  0  0  0  0  0  0  0  0  0  0  0
    7.8987  -19.1543   26.8153 C   0  0  0  0  0  0  0  0  0  0  0  0
    7.0662  -19.8342   27.6997 C   0  0  0  0  0  0  0  0  0  0  0  0
    7.2268  -19.2626   28.8958 N   0  0  0  0  0  0  0  0  0  0  0  0
    8.1257  -18.2485   28.8111 C   0  0  0  0  0  0  0  0  0  0  0  0
    8.6220  -17.3735   29.7499 C   0  0  0  0  0  0  0  0  0  0  0  0
    9.5488  -16.4176   29.3895 C   0  0  0  0  0  0  0  0  0  0  0  0
    9.9714  -16.3501   28.0759 C   0  0  0  0  0  0  0  0  0  0  0  0
    9.5000  -17.2029   27.1186 C   0  0  0  0  0  0  0  0  0  0  0  0
    8.5631  -18.1619   27.5048 C   0  0  0  0  0  0  0  0  0  0  0  0
    7.5638  -18.1413   23.4015 C   0  0  0  0  0  0  0  0  0  0  0  0
    8.2756  -18.8548   22.6680 O   0  0  0  0  0  0  0  0  0  0  0  0
    6.1307  -13.4986   20.4398 C   0  0  0  0  0  0  0  0  0  0  0  0
    6.6666  -14.8237   20.9014 C   0  0  1  0  0  0  0  0  0  0  0  0
    7.3506  -15.4337   19.6601 C   0  0  0  0  0  0  0  0  0  0  0  0
    7.7170  -14.7294   21.9528 C   0  0  0  0  0  0  0  0  0  0  0  0
    8.3365  -16.0431   22.3593 C   0  0  2  0  0  0  0  0  0  0  0  0
    7.3549  -16.7647   23.1543 N   0  0  0  0  0  0  0  0  0  0  0  0
    9.6040  -15.9231   23.0859 C   0  0  0  0  0  0  0  0  0  0  0  0
   10.6696  -15.8292   22.4112 O   0  0  0  0  0  0  0  0  0  0  0  0
    9.6053  -15.9146   24.5045 N   0  0  0  0  0  0  0  0  0  0  0  0
   10.7026  -15.2737   25.1935 C   0  0  1  0  0  0  0  0  0  0  0  0
   10.2445  -14.6999   26.5219 C   0  0  0  0  0  0  0  0  0  0  0  0
    8.8321  -14.3135   26.5219 C   0  0  0  0  0  0  0  0  0  0  0  0
    7.7886  -15.2008   26.6774 C   0  0  0  0  0  0  0  0  0  0  0  0
    6.6291  -14.5257   26.6357 N   0  0  0  0  0  0  0  0  0  0  0  0
    6.9306  -13.2255   26.4558 C   0  0  0  0  0  0  0  0  0  0  0  0
    6.0905  -12.1278   26.3459 C   0  0  0  0  0  0  0  0  0  0  0  0
    6.6665  -10.8822   26.1612 C   0  0  0  0  0  0  0  0  0  0  0  0
    8.0421  -10.7343   26.0879 C   0  0  0  0  0  0  0  0  0  0  0  0
    8.8845  -11.8158   26.1954 C   0  0  0  0  0  0  0  0  0  0  0  0
    8.3001  -13.0485   26.3791 C   0  0  0  0  0  0  0  0  0  0  0  0
   11.6745  -16.3749   25.5362 C   0  0  0  0  0  0  0  0  0  0  0  0
   12.9562  -16.0917   25.9827 O   0  0  0  0  0  0  0  0  0  0  0  0
   11.3644  -17.5966   25.4314 O   0  0  0  0  0  0  0  0  0  0  0  0
  2  1  1  6
  2  3  1  0
  3  4  1  0
  4  5  2  0
  5  6  1  0
  7  8  2  0
  7  6  1  0
  9  8  1  0
 10  9  2  0
 11 10  1  0
 11 12  2  0
 12  4  1  0
 12  7  1  0
 13  2  1  0
 13 14  2  0
 16 18  1  0
 16 17  1  6
 16 15  1  0
 19 20  1  0
 19 18  1  1
 20 13  1  0
 21 19  1  0
 22 21  2  0
 23 21  1  0
 24 23  1  0
 25 26  1  0
 24 25  1  1
 26 27  2  0
 27 28  1  0
 29 28  1  0
 30 29  2  0
 31 30  1  0
 32 33  1  0
 32 31  2  0
 33 34  2  0
 34 26  1  0
 34 29  1  0
 35 24  1  0
 35 36  1  0
 37 35  2  0
M  END
$$$$
