WLW.pdb
     RDKit          3D

 37 40  0  0  1  0  0  0  0  0999 V2000
    6.6611  -19.4968   20.9545 N   0  0  0  0  0  0  0  0  0  0  0  0
    6.8176  -18.2326   21.6896 C   0  0  1  0  0  0  0  0  0  0  0  0
    7.1536  -18.6096   23.1368 C   0  0  0  0  0  0  0  0  0  0  0  0
    6.2347  -17.9438   24.0740 C   0  0  0  0  0  0  0  0  0  0  0  0
    5.0120  -18.4249   24.5336 C   0  0  0  0  0  0  0  0  0  0  0  0
    4.5164  -17.4948   25.3536 N   0  0  0  0  0  0  0  0  0  0  0  0
    5.3707  -16.4427   25.4362 C   0  0  0  0  0  0  0  0  0  0  0  0
    5.3148  -15.2605   26.1380 C   0  0  0  0  0  0  0  0  0  0  0  0
    6.3418  -14.3447   26.0421 C   0  0  0  0  0  0  0  0  0  0  0  0
    7.4253  -14.6292   25.2336 C   0  0  0  0  0  0  0  0  0  0  0  0
    7.5135  -15.7929   24.5237 C   0  0  0  0  0  0  0  0  0  0  0  0
    6.4636  -16.7050   24.6350 C   0  0  0  0  0  0  0  0  0  0  0  0
    8.0126  -17.4996   21.1894 C   0  0  0  0  0  0  0  0  0  0  0  0
    8.9262  -18.1640   20.6625 O   0  0  0  0  0  0  0  0  0  0  0  0
    7.1285  -12.2129   19.9964 C   0  0  0  0  0  0  0  0  0  0  0  0
    7.5223  -13.6622   20.0174 C   0  0  1  0  0  0  0  0  0  0  0  0
    7.6665  -14.0600   18.5336 C   0  0  0  0  0  0  0  0  0  0  0  0
    8.8424  -13.9314   20.6519 C   0  0  0  0  0  0  0  0  0  0  0  0
    9.2154  -15.3887   20.7619 C   0  0  2  0  0  0  0  0  0  0  0  0
    8.0737  -16.0934   21.3245 N   0  0  0  0  0  0  0  0  0  0  0  0
   10.4250  -15.6532   21.5466 C   0  0  0  0  0  0  0  0  0  0  0  0
   11.5420  -15.3476   21.0384 O   0  0  0  0  0  0  0  0  0  0  0  0
   10.3158  -16.2354   22.8357 N   0  0  0  0  0  0  0  0  0  0  0  0
   11.5238  -16.4794   23.5912 C   0  0  1  0  0  0  0  0  0  0  0  0
   11.2367  -16.4831   25.0816 C   0  0  0  0  0  0  0  0  0  0  0  0
   10.4928  -15.3021   25.5242 C   0  0  0  0  0  0  0  0  0  0  0  0
    9.7198  -14.5199   24.6928 C   0  0  0  0  0  0  0  0  0  0  0  0
    9.1725  -13.5259   25.4100 N   0  0  0  0  0  0  0  0  0  0  0  0
    9.5917  -13.6733   26.6813 C   0  0  0  0  0  0  0  0  0  0  0  0
    9.3102  -12.9067   27.8020 C   0  0  0  0  0  0  0  0  0  0  0  0
    9.8796  -13.2809   29.0074 C   0  0  0  0  0  0  0  0  0  0  0  0
   10.7072  -14.3888   29.0939 C   0  0  0  0  0  0  0  0  0  0  0  0
   10.9931  -15.1559   27.9890 C   0  0  0  0  0  0  0  0  0  0  0  0
   10.4210  -14.7740   26.7968 C   0  0  0  0  0  0  0  0  0  0  0  0
   11.9456  -17.8871   23.2518 C   0  0  0  0  0  0  0  0  0  0  0  0
   13.1486  -18.4076   23.7039 O   0  0  0  0  0  0  0  0  0  0  0  0
   11.2251  -18.6485   22.5442 O   0  0  0  0  0  0  0  0  0  0  0  0
  2  1  1  6
  2  3  1  0
  3  4  1  0
  4  5  2  0
  5  6  1  0
  7  8  2  0
  7  6  1  0
  9  8  1  0
 10  9  2  0
 11 10  1  0
 11 12  2  0
 12  4  1  0
 12  7  1  0
 13  2  1  0
 13 14  2  0
 16 18  1  0
 16 17  1  6
 16 15  1  0
 19 20  1  0
 19 18  1  1
 20 13  1  0
 21 19  1  0
 22 21  2  0
 23 21  1  0
 24 23  1  0
 25 26  1  0
 24 25  1  1
 26 27  2  0
 27 28  1  0
 29 28  1  0
 30 29  2  0
 31 30  1  0
 32 33  1  0
 32 31  2  0
 33 34  2  0
 34 26  1  0
 34 29  1  0
 35 24  1  0
 35 36  1  0
 37 35  2  0
M  END
$$$$
