WLW.pdb
     RDKit          3D

 37 40  0  0  1  0  0  0  0  0999 V2000
    8.8961  -20.1306   20.2855 N   0  0  0  0  0  0  0  0  0  0  0  0
    8.2180  -19.3541   21.3345 C   0  0  1  0  0  0  0  0  0  0  0  0
    8.3628  -20.1568   22.6322 C   0  0  0  0  0  0  0  0  0  0  0  0
    7.5054  -19.5958   23.6887 C   0  0  0  0  0  0  0  0  0  0  0  0
    6.2222  -19.0772   23.5399 C   0  0  0  0  0  0  0  0  0  0  0  0
    5.8280  -18.6728   24.7500 N   0  0  0  0  0  0  0  0  0  0  0  0
    6.8046  -18.9117   25.6626 C   0  0  0  0  0  0  0  0  0  0  0  0
    6.8793  -18.6812   27.0171 C   0  0  0  0  0  0  0  0  0  0  0  0
    8.0132  -19.0293   27.7211 C   0  0  0  0  0  0  0  0  0  0  0  0
    9.0712  -19.6112   27.0498 C   0  0  0  0  0  0  0  0  0  0  0  0
    9.0307  -19.8547   25.7063 C   0  0  0  0  0  0  0  0  0  0  0  0
    7.8743  -19.4946   25.0136 C   0  0  0  0  0  0  0  0  0  0  0  0
    8.9514  -18.0820   21.5781 C   0  0  0  0  0  0  0  0  0  0  0  0
   10.1864  -18.0793   21.4099 O   0  0  0  0  0  0  0  0  0  0  0  0
    6.1917  -13.6439   19.9804 C   0  0  0  0  0  0  0  0  0  0  0  0
    7.2071  -14.7109   20.2746 C   0  0  1  0  0  0  0  0  0  0  0  0
    8.3348  -14.4854   19.2460 C   0  0  0  0  0  0  0  0  0  0  0  0
    7.8400  -14.6035   21.6183 C   0  0  0  0  0  0  0  0  0  0  0  0
    8.8962  -15.6387   21.9138 C   0  0  2  0  0  0  0  0  0  0  0  0
    8.2354  -16.9328   21.9858 N   0  0  0  0  0  0  0  0  0  0  0  0
    9.6764  -15.3874   23.1292 C   0  0  0  0  0  0  0  0  0  0  0  0
   10.3822  -14.3391   23.1766 O   0  0  0  0  0  0  0  0  0  0  0  0
    9.6215  -16.3101   24.2055 N   0  0  0  0  0  0  0  0  0  0  0  0
   10.3674  -16.0176   25.4087 C   0  0  1  0  0  0  0  0  0  0  0  0
    9.4556  -16.0169   26.6221 C   0  0  0  0  0  0  0  0  0  0  0  0
    8.2586  -15.1938   26.4381 C   0  0  0  0  0  0  0  0  0  0  0  0
    7.0511  -15.6779   25.9820 C   0  0  0  0  0  0  0  0  0  0  0  0
    6.1650  -14.6707   25.9339 N   0  0  0  0  0  0  0  0  0  0  0  0
    6.8003  -13.5598   26.3537 C   0  0  0  0  0  0  0  0  0  0  0  0
    6.3255  -12.2637   26.4857 C   0  0  0  0  0  0  0  0  0  0  0  0
    7.1997  -11.2930   26.9450 C   0  0  0  0  0  0  0  0  0  0  0  0
    8.5114  -11.6054   27.2639 C   0  0  0  0  0  0  0  0  0  0  0  0
    8.9927  -12.8872   27.1366 C   0  0  0  0  0  0  0  0  0  0  0  0
    8.1141  -13.8431   26.6795 C   0  0  0  0  0  0  0  0  0  0  0  0
   11.3083  -17.1801   25.6039 C   0  0  0  0  0  0  0  0  0  0  0  0
   12.1921  -17.2203   26.6714 O   0  0  0  0  0  0  0  0  0  0  0  0
   11.3318  -18.1620   24.8071 O   0  0  0  0  0  0  0  0  0  0  0  0
  2  1  1  6
  2  3  1  0
  3  4  1  0
  4  5  2  0
  5  6  1  0
  7  8  2  0
  7  6  1  0
  9  8  1  0
 10  9  2  0
 11 10  1  0
 11 12  2  0
 12  4  1  0
 12  7  1  0
 13  2  1  0
 13 14  2  0
 16 18  1  0
 16 17  1  6
 16 15  1  0
 19 20  1  0
 19 18  1  1
 20 13  1  0
 21 19  1  0
 22 21  2  0
 23 21  1  0
 24 23  1  0
 25 26  1  0
 24 25  1  1
 26 27  2  0
 27 28  1  0
 29 28  1  0
 30 29  2  0
 31 30  1  0
 32 33  1  0
 32 31  2  0
 33 34  2  0
 34 26  1  0
 34 29  1  0
 35 24  1  0
 35 36  1  0
 37 35  2  0
M  END
$$$$
