WLW.pdb
     RDKit          3D

 37 40  0  0  1  0  0  0  0  0999 V2000
    6.1144  -18.5195   24.2169 N   0  0  0  0  0  0  0  0  0  0  0  0
    6.5434  -17.1243   24.0374 C   0  0  1  0  0  0  0  0  0  0  0  0
    6.9984  -16.6284   25.4145 C   0  0  0  0  0  0  0  0  0  0  0  0
    6.1283  -15.5401   25.8885 C   0  0  0  0  0  0  0  0  0  0  0  0
    4.9856  -15.6620   26.6739 C   0  0  0  0  0  0  0  0  0  0  0  0
    4.5087  -14.4277   26.8534 N   0  0  0  0  0  0  0  0  0  0  0  0
    5.2985  -13.5254   26.2165 C   0  0  0  0  0  0  0  0  0  0  0  0
    5.2318  -12.1555   26.1057 C   0  0  0  0  0  0  0  0  0  0  0  0
    6.1856  -11.4681   25.3843 C   0  0  0  0  0  0  0  0  0  0  0  0
    7.2068  -12.1717   24.7754 C   0  0  0  0  0  0  0  0  0  0  0  0
    7.3037  -13.5312   24.8653 C   0  0  0  0  0  0  0  0  0  0  0  0
    6.3283  -14.2066   25.5996 C   0  0  0  0  0  0  0  0  0  0  0  0
    7.7607  -17.0740   23.1824 C   0  0  0  0  0  0  0  0  0  0  0  0
    8.5320  -18.0529   23.2073 O   0  0  0  0  0  0  0  0  0  0  0  0
    8.9218  -12.4350   20.1432 C   0  0  0  0  0  0  0  0  0  0  0  0
    8.3516  -13.6238   20.8626 C   0  0  1  0  0  0  0  0  0  0  0  0
    6.8451  -13.6092   20.5294 C   0  0  0  0  0  0  0  0  0  0  0  0
    8.8713  -14.9364   20.3888 C   0  0  0  0  0  0  0  0  0  0  0  0
    9.1396  -15.9490   21.4740 C   0  0  2  0  0  0  0  0  0  0  0  0
    8.0010  -15.9351   22.3794 N   0  0  0  0  0  0  0  0  0  0  0  0
   10.3895  -15.7397   22.2108 C   0  0  0  0  0  0  0  0  0  0  0  0
   10.9598  -14.6157   22.1070 O   0  0  0  0  0  0  0  0  0  0  0  0
   10.9205  -16.7850   23.0096 N   0  0  0  0  0  0  0  0  0  0  0  0
   12.1941  -16.5809   23.6621 C   0  0  1  0  0  0  0  0  0  0  0  0
   12.2646  -17.3591   24.9633 C   0  0  0  0  0  0  0  0  0  0  0  0
   11.1670  -17.0431   25.8795 C   0  0  0  0  0  0  0  0  0  0  0  0
   10.0527  -17.8361   26.0523 C   0  0  0  0  0  0  0  0  0  0  0  0
    9.2464  -17.2669   26.9623 N   0  0  0  0  0  0  0  0  0  0  0  0
    9.8398  -16.1264   27.3634 C   0  0  0  0  0  0  0  0  0  0  0  0
    9.4133  -15.1820   28.2849 C   0  0  0  0  0  0  0  0  0  0  0  0
   10.2245  -14.0837   28.5154 C   0  0  0  0  0  0  0  0  0  0  0  0
   11.4276  -13.9303   27.8457 C   0  0  0  0  0  0  0  0  0  0  0  0
   11.8601  -14.8604   26.9298 C   0  0  0  0  0  0  0  0  0  0  0  0
   11.0453  -15.9478   26.7097 C   0  0  0  0  0  0  0  0  0  0  0  0
   13.2266  -17.2034   22.7560 C   0  0  0  0  0  0  0  0  0  0  0  0
   14.5822  -17.0929   23.0254 O   0  0  0  0  0  0  0  0  0  0  0  0
   12.9027  -17.8485   21.7176 O   0  0  0  0  0  0  0  0  0  0  0  0
  2  1  1  1
  2  3  1  0
  3  4  1  0
  4  5  2  0
  5  6  1  0
  7  8  2  0
  7  6  1  0
  9  8  1  0
 10  9  2  0
 11 10  1  0
 11 12  2  0
 12  4  1  0
 12  7  1  0
 13  2  1  0
 13 14  2  0
 16 18  1  0
 16 17  1  6
 16 15  1  0
 19 20  1  0
 19 18  1  6
 20 13  1  0
 21 19  1  0
 22 21  2  0
 23 21  1  0
 24 23  1  0
 25 26  1  0
 24 25  1  1
 26 27  2  0
 27 28  1  0
 29 28  1  0
 30 29  2  0
 31 30  1  0
 32 33  1  0
 32 31  2  0
 33 34  2  0
 34 26  1  0
 34 29  1  0
 35 24  1  0
 35 36  1  0
 37 35  2  0
M  END
$$$$
