WLW.pdb
     RDKit          3D

 37 40  0  0  1  0  0  0  0  0999 V2000
   11.8834  -17.5818   18.1643 N   0  0  0  0  0  0  0  0  0  0  0  0
   11.1597  -18.1646   19.3043 C   0  0  1  0  0  0  0  0  0  0  0  0
   12.1075  -19.1836   19.9465 C   0  0  0  0  0  0  0  0  0  0  0  0
   12.1102  -20.4430   19.1847 C   0  0  0  0  0  0  0  0  0  0  0  0
   12.9586  -20.7867   18.1361 C   0  0  0  0  0  0  0  0  0  0  0  0
   12.6007  -22.0097   17.7369 N   0  0  0  0  0  0  0  0  0  0  0  0
   11.5614  -22.4594   18.4861 C   0  0  0  0  0  0  0  0  0  0  0  0
   10.8500  -23.6371   18.4662 C   0  0  0  0  0  0  0  0  0  0  0  0
    9.8190  -23.8427   19.3591 C   0  0  0  0  0  0  0  0  0  0  0  0
    9.5102  -22.8527   20.2719 C   0  0  0  0  0  0  0  0  0  0  0  0
   10.1958  -21.6722   20.3197 C   0  0  0  0  0  0  0  0  0  0  0  0
   11.2347  -21.4849   19.4074 C   0  0  0  0  0  0  0  0  0  0  0  0
   10.9369  -17.1268   20.3477 C   0  0  0  0  0  0  0  0  0  0  0  0
   11.9070  -16.4200   20.6840 O   0  0  0  0  0  0  0  0  0  0  0  0
    6.0184  -14.7232   20.4667 C   0  0  0  0  0  0  0  0  0  0  0  0
    7.5016  -14.9478   20.5422 C   0  0  1  0  0  0  0  0  0  0  0  0
    8.1248  -13.5384   20.4640 C   0  0  0  0  0  0  0  0  0  0  0  0
    7.9691  -15.5404   21.8259 C   0  0  0  0  0  0  0  0  0  0  0  0
    9.4333  -15.8994   21.8704 C   0  0  2  0  0  0  0  0  0  0  0  0
    9.6510  -16.9760   20.9164 N   0  0  0  0  0  0  0  0  0  0  0  0
    9.9313  -16.2746   23.1971 C   0  0  0  0  0  0  0  0  0  0  0  0
   10.5717  -17.3596   23.3068 O   0  0  0  0  0  0  0  0  0  0  0  0
    9.6879  -15.4258   24.3074 N   0  0  0  0  0  0  0  0  0  0  0  0
   10.1601  -15.8357   25.6107 C   0  0  1  0  0  0  0  0  0  0  0  0
    9.6270  -14.9140   26.6923 C   0  0  0  0  0  0  0  0  0  0  0  0
    8.2674  -14.4419   26.4232 C   0  0  0  0  0  0  0  0  0  0  0  0
    7.2076  -15.2704   26.1220 C   0  0  0  0  0  0  0  0  0  0  0  0
    6.1067  -14.5247   25.9376 N   0  0  0  0  0  0  0  0  0  0  0  0
    6.4612  -13.2381   26.1190 C   0  0  0  0  0  0  0  0  0  0  0  0
    5.6919  -12.0872   26.0394 C   0  0  0  0  0  0  0  0  0  0  0  0
    6.3121  -10.8713   26.2729 C   0  0  0  0  0  0  0  0  0  0  0  0
    7.6621  -10.8042   26.5772 C   0  0  0  0  0  0  0  0  0  0  0  0
    8.4344  -11.9390   26.6586 C   0  0  0  0  0  0  0  0  0  0  0  0
    7.8064  -13.1414   26.4248 C   0  0  0  0  0  0  0  0  0  0  0  0
    9.5317  -17.1815   25.8729 C   0  0  0  0  0  0  0  0  0  0  0  0
    8.5769  -17.7098   25.0176 O   0  0  0  0  0  0  0  0  0  0  0  0
    9.8463  -17.8816   26.8781 O   0  0  0  0  0  0  0  0  0  0  0  0
  2  1  1  6
  2  3  1  0
  3  4  1  0
  4  5  2  0
  5  6  1  0
  7  8  2  0
  7  6  1  0
  9  8  1  0
 10  9  2  0
 11 10  1  0
 11 12  2  0
 12  4  1  0
 12  7  1  0
 13  2  1  0
 13 14  2  0
 16 18  1  0
 16 17  1  1
 16 15  1  0
 19 20  1  0
 19 18  1  1
 20 13  1  0
 21 19  1  0
 22 21  2  0
 23 21  1  0
 24 23  1  0
 25 26  1  0
 24 25  1  1
 26 27  2  0
 27 28  1  0
 29 28  1  0
 30 29  2  0
 31 30  1  0
 32 33  1  0
 32 31  2  0
 33 34  2  0
 34 26  1  0
 34 29  1  0
 35 24  1  0
 35 36  1  0
 37 35  2  0
M  END
$$$$
