WLW.pdb
     RDKit          3D

 37 40  0  0  1  0  0  0  0  0999 V2000
    6.5022  -19.2005   24.3810 N   0  0  0  0  0  0  0  0  0  0  0  0
    6.5634  -17.7324   24.3187 C   0  0  1  0  0  0  0  0  0  0  0  0
    7.4287  -17.2825   25.5011 C   0  0  0  0  0  0  0  0  0  0  0  0
    6.9362  -16.0092   26.0509 C   0  0  0  0  0  0  0  0  0  0  0  0
    5.8207  -15.8218   26.8620 C   0  0  0  0  0  0  0  0  0  0  0  0
    5.7433  -14.5125   27.1133 N   0  0  0  0  0  0  0  0  0  0  0  0
    6.7614  -13.8585   26.4974 C   0  0  0  0  0  0  0  0  0  0  0  0
    7.1122  -12.5287   26.4534 C   0  0  0  0  0  0  0  0  0  0  0  0
    8.2202  -12.1243   25.7382 C   0  0  0  0  0  0  0  0  0  0  0  0
    8.9716  -13.0699   25.0678 C   0  0  0  0  0  0  0  0  0  0  0  0
    8.6525  -14.3979   25.0905 C   0  0  0  0  0  0  0  0  0  0  0  0
    7.5278  -14.7851   25.8197 C   0  0  0  0  0  0  0  0  0  0  0  0
    7.3105  -17.3070   23.1038 C   0  0  0  0  0  0  0  0  0  0  0  0
    8.1198  -18.1129   22.6045 O   0  0  0  0  0  0  0  0  0  0  0  0
    7.9749  -12.2487   19.5975 C   0  0  0  0  0  0  0  0  0  0  0  0
    7.8680  -13.7449   19.6751 C   0  0  1  0  0  0  0  0  0  0  0  0
    9.3205  -14.2561   19.5770 C   0  0  0  0  0  0  0  0  0  0  0  0
    7.3317  -14.2566   20.9667 C   0  0  0  0  0  0  0  0  0  0  0  0
    7.7863  -15.6442   21.3447 C   0  0  2  0  0  0  0  0  0  0  0  0
    7.0824  -16.0214   22.5607 N   0  0  0  0  0  0  0  0  0  0  0  0
    9.2348  -15.7871   21.5194 C   0  0  0  0  0  0  0  0  0  0  0  0
    9.9578  -15.8258   20.4826 O   0  0  0  0  0  0  0  0  0  0  0  0
    9.7819  -15.8766   22.8253 N   0  0  0  0  0  0  0  0  0  0  0  0
   11.1794  -15.5594   23.0152 C   0  0  1  0  0  0  0  0  0  0  0  0
   11.3687  -14.6545   24.2189 C   0  0  0  0  0  0  0  0  0  0  0  0
   11.1425  -15.3410   25.4923 C   0  0  0  0  0  0  0  0  0  0  0  0
   11.5853  -16.6163   25.7715 C   0  0  0  0  0  0  0  0  0  0  0  0
   11.2188  -16.9441   27.0206 N   0  0  0  0  0  0  0  0  0  0  0  0
   10.5513  -15.8910   27.5299 C   0  0  0  0  0  0  0  0  0  0  0  0
    9.9702  -15.7298   28.7786 C   0  0  0  0  0  0  0  0  0  0  0  0
    9.3341  -14.5305   29.0514 C   0  0  0  0  0  0  0  0  0  0  0  0
    9.2783  -13.5195   28.1056 C   0  0  0  0  0  0  0  0  0  0  0  0
    9.8509  -13.6687   26.8644 C   0  0  0  0  0  0  0  0  0  0  0  0
   10.4805  -14.8651   26.6054 C   0  0  0  0  0  0  0  0  0  0  0  0
   11.8533  -16.8609   23.3710 C   0  0  0  0  0  0  0  0  0  0  0  0
   11.1200  -18.0198   23.5753 O   0  0  0  0  0  0  0  0  0  0  0  0
   13.1084  -16.9508   23.4981 O   0  0  0  0  0  0  0  0  0  0  0  0
  2  1  1  6
  2  3  1  0
  3  4  1  0
  4  5  2  0
  5  6  1  0
  7  8  2  0
  7  6  1  0
  9  8  1  0
 10  9  2  0
 11 10  1  0
 11 12  2  0
 12  4  1  0
 12  7  1  0
 13  2  1  0
 13 14  2  0
 16 18  1  0
 16 17  1  1
 16 15  1  0
 19 20  1  0
 19 18  1  1
 20 13  1  0
 21 19  1  0
 22 21  2  0
 23 21  1  0
 24 23  1  0
 25 26  1  0
 24 25  1  1
 26 27  2  0
 27 28  1  0
 29 28  1  0
 30 29  2  0
 31 30  1  0
 32 33  1  0
 32 31  2  0
 33 34  2  0
 34 26  1  0
 34 29  1  0
 35 24  1  0
 35 36  1  0
 37 35  2  0
M  END
$$$$
