WLW.pdb
     RDKit          3D

 37 40  0  0  1  0  0  0  0  0999 V2000
    6.7559  -19.3607   21.7712 N   0  0  0  0  0  0  0  0  0  0  0  0
    6.8422  -18.0129   22.3534 C   0  0  1  0  0  0  0  0  0  0  0  0
    7.1000  -18.2022   23.8524 C   0  0  0  0  0  0  0  0  0  0  0  0
    6.2227  -17.3261   24.6455 C   0  0  0  0  0  0  0  0  0  0  0  0
    4.8565  -17.4818   24.8620 C   0  0  0  0  0  0  0  0  0  0  0  0
    4.4689  -16.4573   25.6258 N   0  0  0  0  0  0  0  0  0  0  0  0
    5.5293  -15.6564   25.9050 C   0  0  0  0  0  0  0  0  0  0  0  0
    5.6443  -14.4994   26.6409 C   0  0  0  0  0  0  0  0  0  0  0  0
    6.8671  -13.8740   26.7683 C   0  0  0  0  0  0  0  0  0  0  0  0
    7.9729  -14.4233   26.1484 C   0  0  0  0  0  0  0  0  0  0  0  0
    7.8947  -15.5705   25.4111 C   0  0  0  0  0  0  0  0  0  0  0  0
    6.6482  -16.1865   25.2950 C   0  0  0  0  0  0  0  0  0  0  0  0
    8.0489  -17.3127   21.8350 C   0  0  0  0  0  0  0  0  0  0  0  0
    8.9770  -18.0091   21.3796 O   0  0  0  0  0  0  0  0  0  0  0  0
    7.3806  -12.0926   20.0784 C   0  0  0  0  0  0  0  0  0  0  0  0
    7.7665  -13.5378   20.2137 C   0  0  1  0  0  0  0  0  0  0  0  0
    8.2249  -13.9639   18.8034 C   0  0  0  0  0  0  0  0  0  0  0  0
    8.9221  -13.7832   21.1202 C   0  0  0  0  0  0  0  0  0  0  0  0
    9.2772  -15.2344   21.3275 C   0  0  2  0  0  0  0  0  0  0  0  0
    8.1045  -15.9002   21.8733 N   0  0  0  0  0  0  0  0  0  0  0  0
   10.4465  -15.4623   22.1817 C   0  0  0  0  0  0  0  0  0  0  0  0
   11.5674  -15.0345   21.7818 O   0  0  0  0  0  0  0  0  0  0  0  0
   10.2956  -16.1452   23.4160 N   0  0  0  0  0  0  0  0  0  0  0  0
   11.4668  -16.3682   24.2332 C   0  0  1  0  0  0  0  0  0  0  0  0
   11.0899  -17.0245   25.5489 C   0  0  0  0  0  0  0  0  0  0  0  0
   10.1892  -16.2037   26.3607 C   0  0  0  0  0  0  0  0  0  0  0  0
    8.8946  -16.5579   26.6754 C   0  0  0  0  0  0  0  0  0  0  0  0
    8.3484  -15.5941   27.4335 N   0  0  0  0  0  0  0  0  0  0  0  0
    9.2831  -14.6387   27.5991 C   0  0  0  0  0  0  0  0  0  0  0  0
    9.2139  -13.4425   28.2970 C   0  0  0  0  0  0  0  0  0  0  0  0
   10.3342  -12.6286   28.3080 C   0  0  0  0  0  0  0  0  0  0  0  0
   11.4918  -12.9967   27.6417 C   0  0  0  0  0  0  0  0  0  0  0  0
   11.5714  -14.1804   26.9464 C   0  0  0  0  0  0  0  0  0  0  0  0
   10.4516  -14.9808   26.9431 C   0  0  0  0  0  0  0  0  0  0  0  0
   12.2997  -17.3841   23.4924 C   0  0  0  0  0  0  0  0  0  0  0  0
   13.5306  -17.7987   23.9778 O   0  0  0  0  0  0  0  0  0  0  0  0
   11.9141  -17.8982   22.4031 O   0  0  0  0  0  0  0  0  0  0  0  0
  2  1  1  6
  2  3  1  0
  3  4  1  0
  4  5  2  0
  5  6  1  0
  7  8  2  0
  7  6  1  0
  9  8  1  0
 10  9  2  0
 11 10  1  0
 11 12  2  0
 12  4  1  0
 12  7  1  0
 13  2  1  0
 13 14  2  0
 16 18  1  0
 16 17  1  6
 16 15  1  0
 19 20  1  0
 19 18  1  1
 20 13  1  0
 21 19  1  0
 22 21  2  0
 23 21  1  0
 24 23  1  0
 25 26  1  0
 24 25  1  1
 26 27  2  0
 27 28  1  0
 29 28  1  0
 30 29  2  0
 31 30  1  0
 32 33  1  0
 32 31  2  0
 33 34  2  0
 34 26  1  0
 34 29  1  0
 35 24  1  0
 35 36  1  0
 37 35  2  0
M  END
$$$$
