WLW.pdb
     RDKit          3D

 37 40  0  0  1  0  0  0  0  0999 V2000
    7.0229  -19.3932   20.6159 N   0  0  0  0  0  0  0  0  0  0  0  0
    7.0338  -18.2633   21.5573 C   0  0  1  0  0  0  0  0  0  0  0  0
    7.1923  -18.8654   22.9578 C   0  0  0  0  0  0  0  0  0  0  0  0
    6.2167  -18.2775   23.8899 C   0  0  0  0  0  0  0  0  0  0  0  0
    4.9644  -18.7854   24.2234 C   0  0  0  0  0  0  0  0  0  0  0  0
    4.4200  -17.9281   25.0905 N   0  0  0  0  0  0  0  0  0  0  0  0
    5.2717  -16.8966   25.3235 C   0  0  0  0  0  0  0  0  0  0  0  0
    5.1749  -15.7819   26.1244 C   0  0  0  0  0  0  0  0  0  0  0  0
    6.2100  -14.8718   26.1790 C   0  0  0  0  0  0  0  0  0  0  0  0
    7.3430  -15.0934   25.4202 C   0  0  0  0  0  0  0  0  0  0  0  0
    7.4726  -16.1892   24.6149 C   0  0  0  0  0  0  0  0  0  0  0  0
    6.4137  -17.0967   24.5746 C   0  0  0  0  0  0  0  0  0  0  0  0
    8.2549  -17.4389   21.3461 C   0  0  0  0  0  0  0  0  0  0  0  0
    9.2847  -18.0142   20.9433 O   0  0  0  0  0  0  0  0  0  0  0  0
    7.1847  -12.2255   20.2743 C   0  0  0  0  0  0  0  0  0  0  0  0
    7.6521  -13.6486   20.3855 C   0  0  1  0  0  0  0  0  0  0  0  0
    7.9333  -14.0926   18.9349 C   0  0  0  0  0  0  0  0  0  0  0  0
    8.9307  -13.8193   21.1297 C   0  0  0  0  0  0  0  0  0  0  0  0
    9.3855  -15.2467   21.3032 C   0  0  2  0  0  0  0  0  0  0  0  0
    8.2100  -16.0493   21.6040 N   0  0  0  0  0  0  0  0  0  0  0  0
   10.4193  -15.4398   22.3245 C   0  0  0  0  0  0  0  0  0  0  0  0
   11.5120  -14.8177   22.1894 O   0  0  0  0  0  0  0  0  0  0  0  0
   10.1734  -16.3046   23.4219 N   0  0  0  0  0  0  0  0  0  0  0  0
   11.2064  -16.4708   24.4193 C   0  0  1  0  0  0  0  0  0  0  0  0
   10.6066  -16.8629   25.7572 C   0  0  0  0  0  0  0  0  0  0  0  0
    9.5716  -15.9338   26.2150 C   0  0  0  0  0  0  0  0  0  0  0  0
    8.2180  -16.1679   26.1001 C   0  0  0  0  0  0  0  0  0  0  0  0
    7.5474  -15.1272   26.6190 N   0  0  0  0  0  0  0  0  0  0  0  0
    8.4624  -14.2420   27.0585 C   0  0  0  0  0  0  0  0  0  0  0  0
    8.2820  -13.0108   27.6704 C   0  0  0  0  0  0  0  0  0  0  0  0
    9.4086  -12.2890   28.0271 C   0  0  0  0  0  0  0  0  0  0  0  0
   10.6803  -12.7806   27.7806 C   0  0  0  0  0  0  0  0  0  0  0  0
   10.8708  -14.0000   27.1743 C   0  0  0  0  0  0  0  0  0  0  0  0
    9.7433  -14.7081   26.8248 C   0  0  0  0  0  0  0  0  0  0  0  0
   12.0239  -17.6571   23.9733 C   0  0  0  0  0  0  0  0  0  0  0  0
   13.2104  -17.9937   24.6067 O   0  0  0  0  0  0  0  0  0  0  0  0
   11.6649  -18.3913   23.0080 O   0  0  0  0  0  0  0  0  0  0  0  0
  2  1  1  6
  2  3  1  0
  3  4  1  0
  4  5  2  0
  5  6  1  0
  7  8  2  0
  7  6  1  0
  9  8  1  0
 10  9  2  0
 11 10  1  0
 11 12  2  0
 12  4  1  0
 12  7  1  0
 13  2  1  0
 13 14  2  0
 16 18  1  0
 16 17  1  6
 16 15  1  0
 19 20  1  0
 19 18  1  1
 20 13  1  0
 21 19  1  0
 22 21  2  0
 23 21  1  0
 24 23  1  0
 25 26  1  0
 24 25  1  1
 26 27  2  0
 27 28  1  0
 29 28  1  0
 30 29  2  0
 31 30  1  0
 32 33  1  0
 32 31  2  0
 33 34  2  0
 34 26  1  0
 34 29  1  0
 35 24  1  0
 35 36  1  0
 37 35  2  0
M  END
$$$$
