WLW.pdb
     RDKit          3D

 37 40  0  0  1  0  0  0  0  0999 V2000
    7.0032  -17.4442   25.3767 N   0  0  0  0  0  0  0  0  0  0  0  0
    7.0765  -16.2955   24.4611 C   0  0  1  0  0  0  0  0  0  0  0  0
    7.6306  -15.1229   25.2779 C   0  0  0  0  0  0  0  0  0  0  0  0
    6.5347  -14.3242   25.8501 C   0  0  0  0  0  0  0  0  0  0  0  0
    5.4222  -14.7990   26.5388 C   0  0  0  0  0  0  0  0  0  0  0  0
    4.6876  -13.7326   26.8649 N   0  0  0  0  0  0  0  0  0  0  0  0
    5.2845  -12.5996   26.4138 C   0  0  0  0  0  0  0  0  0  0  0  0
    4.9299  -11.2727   26.4976 C   0  0  0  0  0  0  0  0  0  0  0  0
    5.7352  -10.3004   25.9421 C   0  0  0  0  0  0  0  0  0  0  0  0
    6.9004  -10.6753   25.3014 C   0  0  0  0  0  0  0  0  0  0  0  0
    7.2828  -11.9828   25.2002 C   0  0  0  0  0  0  0  0  0  0  0  0
    6.4535  -12.9499   25.7689 C   0  0  0  0  0  0  0  0  0  0  0  0
    8.0944  -16.5521   23.4059 C   0  0  0  0  0  0  0  0  0  0  0  0
    8.3293  -17.7368   23.0977 O   0  0  0  0  0  0  0  0  0  0  0  0
    7.9557  -12.5479   19.8921 C   0  0  0  0  0  0  0  0  0  0  0  0
    8.0460  -13.7855   20.7383 C   0  0  1  0  0  0  0  0  0  0  0  0
    7.0627  -14.7845   20.0936 C   0  0  0  0  0  0  0  0  0  0  0  0
    9.3812  -14.4448   20.7226 C   0  0  0  0  0  0  0  0  0  0  0  0
    9.4891  -15.6939   21.5609 C   0  0  2  0  0  0  0  0  0  0  0  0
    8.7531  -15.4607   22.7940 N   0  0  0  0  0  0  0  0  0  0  0  0
   10.8615  -16.1204   21.8499 C   0  0  0  0  0  0  0  0  0  0  0  0
   11.6469  -16.2974   20.8747 O   0  0  0  0  0  0  0  0  0  0  0  0
   11.2694  -16.3204   23.1939 N   0  0  0  0  0  0  0  0  0  0  0  0
   12.6619  -16.6009   23.4619 C   0  0  1  0  0  0  0  0  0  0  0  0
   13.0232  -16.2262   24.8876 C   0  0  0  0  0  0  0  0  0  0  0  0
   11.9970  -16.6115   25.8584 C   0  0  0  0  0  0  0  0  0  0  0  0
   11.6166  -17.9136   26.1043 C   0  0  0  0  0  0  0  0  0  0  0  0
   10.6629  -17.9206   27.0490 N   0  0  0  0  0  0  0  0  0  0  0  0
   10.4390  -16.6397   27.3997 C   0  0  0  0  0  0  0  0  0  0  0  0
    9.5526  -16.1173   28.3293 C   0  0  0  0  0  0  0  0  0  0  0  0
    9.5201  -14.7433   28.4982 C   0  0  0  0  0  0  0  0  0  0  0  0
   10.3481  -13.9125   27.7608 C   0  0  0  0  0  0  0  0  0  0  0  0
   11.2306  -14.4198   26.8363 C   0  0  0  0  0  0  0  0  0  0  0  0
   11.2538  -15.7869   26.6777 C   0  0  0  0  0  0  0  0  0  0  0  0
   12.8032  -18.1004   23.3840 C   0  0  0  0  0  0  0  0  0  0  0  0
   14.0497  -18.7077   23.3842 O   0  0  0  0  0  0  0  0  0  0  0  0
   11.7973  -18.8639   23.3152 O   0  0  0  0  0  0  0  0  0  0  0  0
  2  1  1  1
  2  3  1  0
  3  4  1  0
  4  5  2  0
  5  6  1  0
  7  8  2  0
  7  6  1  0
  9  8  1  0
 10  9  2  0
 11 10  1  0
 11 12  2  0
 12  4  1  0
 12  7  1  0
 13  2  1  0
 13 14  2  0
 16 18  1  0
 16 17  1  6
 16 15  1  0
 19 20  1  0
 19 18  1  6
 20 13  1  0
 21 19  1  0
 22 21  2  0
 23 21  1  0
 24 23  1  0
 25 26  1  0
 24 25  1  1
 26 27  2  0
 27 28  1  0
 29 28  1  0
 30 29  2  0
 31 30  1  0
 32 33  1  0
 32 31  2  0
 33 34  2  0
 34 26  1  0
 34 29  1  0
 35 24  1  0
 35 36  1  0
 37 35  2  0
M  END
$$$$
