WLW.pdb
     RDKit          3D

 37 40  0  0  1  0  0  0  0  0999 V2000
    7.1607  -19.9241   21.5770 N   0  0  0  0  0  0  0  0  0  0  0  0
    6.8698  -18.4942   21.7604 C   0  0  1  0  0  0  0  0  0  0  0  0
    6.2452  -18.3525   23.1529 C   0  0  0  0  0  0  0  0  0  0  0  0
    4.9239  -18.9993   23.1982 C   0  0  0  0  0  0  0  0  0  0  0  0
    4.4796  -19.9342   24.1289 C   0  0  0  0  0  0  0  0  0  0  0  0
    3.2305  -20.2567   23.7839 N   0  0  0  0  0  0  0  0  0  0  0  0
    2.8605  -19.5675   22.6741 C   0  0  0  0  0  0  0  0  0  0  0  0
    1.6940  -19.5491   21.9445 C   0  0  0  0  0  0  0  0  0  0  0  0
    1.5795  -18.7376   20.8350 C   0  0  0  0  0  0  0  0  0  0  0  0
    2.6493  -17.9450   20.4663 C   0  0  0  0  0  0  0  0  0  0  0  0
    3.8214  -17.9382   21.1678 C   0  0  0  0  0  0  0  0  0  0  0  0
    3.9158  -18.7667   22.2865 C   0  0  0  0  0  0  0  0  0  0  0  0
    8.1407  -17.7219   21.8220 C   0  0  0  0  0  0  0  0  0  0  0  0
    9.2110  -18.3604   21.8411 O   0  0  0  0  0  0  0  0  0  0  0  0
    7.3980  -12.3593   20.9028 C   0  0  0  0  0  0  0  0  0  0  0  0
    7.6599  -13.7324   21.4522 C   0  0  1  0  0  0  0  0  0  0  0  0
    6.8020  -14.6801   20.5882 C   0  0  0  0  0  0  0  0  0  0  0  0
    9.0681  -14.1946   21.3064 C   0  0  0  0  0  0  0  0  0  0  0  0
    9.3502  -15.5721   21.8520 C   0  0  2  0  0  0  0  0  0  0  0  0
    8.0958  -16.3089   21.8555 N   0  0  0  0  0  0  0  0  0  0  0  0
    9.9644  -15.5891   23.1830 C   0  0  0  0  0  0  0  0  0  0  0  0
   10.9985  -14.8854   23.3696 O   0  0  0  0  0  0  0  0  0  0  0  0
    9.3935  -16.3805   24.2127 N   0  0  0  0  0  0  0  0  0  0  0  0
   10.0595  -16.4367   25.4945 C   0  0  1  0  0  0  0  0  0  0  0  0
    9.0580  -16.3174   26.6287 C   0  0  0  0  0  0  0  0  0  0  0  0
    7.8694  -15.5440   26.2638 C   0  0  0  0  0  0  0  0  0  0  0  0
    6.7612  -16.0785   25.6418 C   0  0  0  0  0  0  0  0  0  0  0  0
    5.8529  -15.1080   25.4545 N   0  0  0  0  0  0  0  0  0  0  0  0
    6.3761  -13.9705   25.9507 C   0  0  0  0  0  0  0  0  0  0  0  0
    5.8368  -12.6939   25.9985 C   0  0  0  0  0  0  0  0  0  0  0  0
    6.5960  -11.6867   26.5700 C   0  0  0  0  0  0  0  0  0  0  0  0
    7.8583  -11.9445   27.0798 C   0  0  0  0  0  0  0  0  0  0  0  0
    8.4028  -13.2064   27.0374 C   0  0  0  0  0  0  0  0  0  0  0  0
    7.6384  -14.1991   26.4673 C   0  0  0  0  0  0  0  0  0  0  0  0
   10.6345  -17.8270   25.6003 C   0  0  0  0  0  0  0  0  0  0  0  0
   11.4696  -18.1835   26.6481 O   0  0  0  0  0  0  0  0  0  0  0  0
   10.3818  -18.7218   24.7430 O   0  0  0  0  0  0  0  0  0  0  0  0
  2  1  1  1
  2  3  1  0
  3  4  1  0
  4  5  2  0
  5  6  1  0
  7  8  2  0
  7  6  1  0
  9  8  1  0
 10  9  2  0
 11 10  1  0
 11 12  2  0
 12  4  1  0
 12  7  1  0
 13  2  1  0
 13 14  2  0
 16 18  1  0
 16 17  1  6
 16 15  1  0
 19 20  1  0
 19 18  1  1
 20 13  1  0
 21 19  1  0
 22 21  2  0
 23 21  1  0
 24 23  1  0
 25 26  1  0
 24 25  1  1
 26 27  2  0
 27 28  1  0
 29 28  1  0
 30 29  2  0
 31 30  1  0
 32 33  1  0
 32 31  2  0
 33 34  2  0
 34 26  1  0
 34 29  1  0
 35 24  1  0
 35 36  1  0
 37 35  2  0
M  END
$$$$
