KGW.pdb
     RDKit          3D

 28 29  0  0  1  0  0  0  0  0999 V2000
   25.1942  -26.0905  -14.7799 N   0  0  0  0  0  0  0  0  0  0  0  0
   24.9008  -25.1683  -15.8315 C   0  0  1  0  0  0  0  0  0  0  0  0
   25.7875  -25.2958  -17.0085 C   0  0  0  0  0  0  0  0  0  0  0  0
   27.0370  -26.0742  -16.7274 C   0  0  0  0  0  0  0  0  0  0  0  0
   28.0145  -26.1861  -17.8410 C   0  0  0  0  0  0  0  0  0  0  0  0
   29.2084  -27.0448  -17.5095 C   0  0  0  0  0  0  0  0  0  0  0  0
   30.0877  -27.0437  -18.6670 N   0  0  0  0  0  0  0  0  0  0  0  0
   23.4617  -25.2795  -16.2718 C   0  0  0  0  0  0  0  0  0  0  0  0
   23.0430  -26.3020  -16.8635 O   0  0  0  0  0  0  0  0  0  0  0  0
   22.5270  -24.2269  -16.0317 N   0  0  0  0  0  0  0  0  0  0  0  0
   22.0443  -23.8964  -14.7143 C   0  0  0  0  0  0  0  0  0  0  0  0
   22.2979  -22.5183  -14.2863 C   0  0  0  0  0  0  0  0  0  0  0  0
   21.6795  -22.0331  -13.2831 O   0  0  0  0  0  0  0  0  0  0  0  0
   23.2107  -21.6586  -14.9349 N   0  0  0  0  0  0  0  0  0  0  0  0
   23.4608  -20.2973  -14.4116 C   0  0  1  0  0  0  0  0  0  0  0  0
   24.8644  -20.2296  -13.9287 C   0  0  0  0  0  0  0  0  0  0  0  0
   25.2649  -21.2040  -12.9083 C   0  0  0  0  0  0  0  0  0  0  0  0
   25.6170  -22.5149  -13.1343 C   0  0  0  0  0  0  0  0  0  0  0  0
   25.8999  -23.1318  -11.9741 N   0  0  0  0  0  0  0  0  0  0  0  0
   25.7378  -22.2399  -10.9882 C   0  0  0  0  0  0  0  0  0  0  0  0
   25.8969  -22.3084   -9.6359 C   0  0  0  0  0  0  0  0  0  0  0  0
   25.6912  -21.2543   -8.7859 C   0  0  0  0  0  0  0  0  0  0  0  0
   25.2974  -20.0450   -9.3368 C   0  0  0  0  0  0  0  0  0  0  0  0
   25.1307  -19.9521  -10.6937 C   0  0  0  0  0  0  0  0  0  0  0  0
   25.3410  -21.0240  -11.5391 C   0  0  0  0  0  0  0  0  0  0  0  0
   23.0133  -19.3054  -15.3737 C   0  0  0  0  0  0  0  0  0  0  0  0
   23.0811  -18.0816  -15.0957 O   0  0  0  0  0  0  0  0  0  0  0  0
   22.5111  -19.6642  -16.6077 O   0  0  0  0  0  0  0  0  0  0  0  0
  2  8  1  0
  2  1  1  1
  3  2  1  0
  4  3  1  0
  4  5  1  0
  5  6  1  0
  7  6  1  0
  8  9  2  0
 10 11  1  0
 10  8  1  0
 12 14  1  0
 12 11  1  0
 13 12  2  0
 15 14  1  0
 15 26  1  0
 15 16  1  6
 17 16  1  0
 18 17  2  0
 19 18  1  0
 20 19  1  0
 20 25  2  0
 21 20  1  0
 22 21  2  0
 22 23  1  0
 23 24  2  0
 24 25  1  0
 25 17  1  0
 26 27  2  0
 26 28  1  0
M  END
$$$$
