KGW.pdb
     RDKit          3D

 28 29  0  0  1  0  0  0  0  0999 V2000
   24.3608  -19.7801  -14.7386 N   0  0  0  0  0  0  0  0  0  0  0  0
   25.5687  -19.0645  -15.0058 C   0  0  1  0  0  0  0  0  0  0  0  0
   25.3906  -17.5995  -15.1048 C   0  0  0  0  0  0  0  0  0  0  0  0
   24.5283  -17.1841  -16.2580 C   0  0  0  0  0  0  0  0  0  0  0  0
   25.1442  -17.2584  -17.6084 C   0  0  0  0  0  0  0  0  0  0  0  0
   24.2325  -16.7860  -18.7122 C   0  0  0  0  0  0  0  0  0  0  0  0
   24.9648  -16.8885  -19.9636 N   0  0  0  0  0  0  0  0  0  0  0  0
   26.6276  -19.3738  -13.9762 C   0  0  0  0  0  0  0  0  0  0  0  0
   27.0622  -18.4846  -13.2072 O   0  0  0  0  0  0  0  0  0  0  0  0
   27.1724  -20.6869  -13.8409 N   0  0  0  0  0  0  0  0  0  0  0  0
   28.2392  -20.9993  -12.9233 C   0  0  0  0  0  0  0  0  0  0  0  0
   27.8305  -21.1608  -11.5256 C   0  0  0  0  0  0  0  0  0  0  0  0
   28.6647  -21.5757  -10.6562 O   0  0  0  0  0  0  0  0  0  0  0  0
   26.5273  -20.8818  -11.0599 N   0  0  0  0  0  0  0  0  0  0  0  0
   26.1909  -21.0465   -9.6283 C   0  0  1  0  0  0  0  0  0  0  0  0
   27.2024  -20.3170   -8.8206 C   0  0  0  0  0  0  0  0  0  0  0  0
   26.9871  -20.2683   -7.3706 C   0  0  0  0  0  0  0  0  0  0  0  0
   25.7919  -20.4786   -6.7219 C   0  0  0  0  0  0  0  0  0  0  0  0
   25.9454  -20.3299   -5.3949 N   0  0  0  0  0  0  0  0  0  0  0  0
   27.2290  -20.0247   -5.1648 C   0  0  0  0  0  0  0  0  0  0  0  0
   27.9384  -19.7828   -4.0259 C   0  0  0  0  0  0  0  0  0  0  0  0
   29.2779  -19.4979   -4.0035 C   0  0  0  0  0  0  0  0  0  0  0  0
   29.9512  -19.4536   -5.2142 C   0  0  0  0  0  0  0  0  0  0  0  0
   29.2591  -19.6931   -6.3723 C   0  0  0  0  0  0  0  0  0  0  0  0
   27.9077  -19.9785   -6.3800 C   0  0  0  0  0  0  0  0  0  0  0  0
   24.7865  -20.7463   -9.4105 C   0  0  0  0  0  0  0  0  0  0  0  0
   24.1680  -20.0043  -10.2144 O   0  0  0  0  0  0  0  0  0  0  0  0
   24.0916  -21.2600   -8.3348 O   0  0  0  0  0  0  0  0  0  0  0  0
  2  8  1  0
  2  1  1  1
  3  2  1  0
  4  3  1  0
  4  5  1  0
  5  6  1  0
  7  6  1  0
  8  9  2  0
 10 11  1  0
 10  8  1  0
 12 14  1  0
 12 11  1  0
 13 12  2  0
 15 14  1  0
 15 26  1  0
 15 16  1  1
 17 16  1  0
 18 17  2  0
 19 18  1  0
 20 19  1  0
 20 25  2  0
 21 20  1  0
 22 21  2  0
 22 23  1  0
 23 24  2  0
 24 25  1  0
 25 17  1  0
 26 27  2  0
 26 28  1  0
M  END
$$$$
