KGW.pdb
     RDKit          3D

 28 29  0  0  1  0  0  0  0  0999 V2000
   24.5295  -21.9545  -16.0936 N   0  0  0  0  0  0  0  0  0  0  0  0
   24.5164  -20.5262  -16.1407 C   0  0  1  0  0  0  0  0  0  0  0  0
   23.1635  -19.9339  -16.0591 C   0  0  0  0  0  0  0  0  0  0  0  0
   22.4238  -20.3158  -14.8129 C   0  0  0  0  0  0  0  0  0  0  0  0
   21.5250  -21.4953  -14.9091 C   0  0  0  0  0  0  0  0  0  0  0  0
   21.5260  -22.3549  -13.6708 C   0  0  0  0  0  0  0  0  0  0  0  0
   20.6655  -23.4982  -13.9265 N   0  0  0  0  0  0  0  0  0  0  0  0
   25.3901  -19.9346  -15.0619 C   0  0  0  0  0  0  0  0  0  0  0  0
   25.4888  -18.6936  -14.9169 O   0  0  0  0  0  0  0  0  0  0  0  0
   26.1348  -20.7645  -14.1697 N   0  0  0  0  0  0  0  0  0  0  0  0
   26.7150  -20.2718  -12.9456 C   0  0  0  0  0  0  0  0  0  0  0  0
   26.2507  -20.9364  -11.7253 C   0  0  0  0  0  0  0  0  0  0  0  0
   25.4139  -21.8951  -11.7945 O   0  0  0  0  0  0  0  0  0  0  0  0
   26.6793  -20.5718  -10.4306 N   0  0  0  0  0  0  0  0  0  0  0  0
   26.2033  -21.3179   -9.2447 C   0  0  1  0  0  0  0  0  0  0  0  0
   27.3357  -21.4613   -8.2935 C   0  0  0  0  0  0  0  0  0  0  0  0
   27.6567  -20.2977   -7.4604 C   0  0  0  0  0  0  0  0  0  0  0  0
   27.3736  -18.9848   -7.7596 C   0  0  0  0  0  0  0  0  0  0  0  0
   27.8323  -18.1731   -6.7913 N   0  0  0  0  0  0  0  0  0  0  0  0
   28.4133  -18.9391   -5.8588 C   0  0  0  0  0  0  0  0  0  0  0  0
   29.0239  -18.6588   -4.6725 C   0  0  0  0  0  0  0  0  0  0  0  0
   29.5508  -19.6091   -3.8387 C   0  0  0  0  0  0  0  0  0  0  0  0
   29.4559  -20.9363   -4.2271 C   0  0  0  0  0  0  0  0  0  0  0  0
   28.8467  -21.2423   -5.4156 C   0  0  0  0  0  0  0  0  0  0  0  0
   28.3203  -20.2732   -6.2472 C   0  0  0  0  0  0  0  0  0  0  0  0
   24.9628  -20.7392   -8.7588 C   0  0  0  0  0  0  0  0  0  0  0  0
   24.4917  -19.7090   -9.3029 O   0  0  0  0  0  0  0  0  0  0  0  0
   24.2664  -21.2928   -7.7040 O   0  0  0  0  0  0  0  0  0  0  0  0
  2  8  1  0
  2  1  1  1
  3  2  1  0
  4  3  1  0
  4  5  1  0
  5  6  1  0
  7  6  1  0
  8  9  2  0
 10 11  1  0
 10  8  1  0
 12 14  1  0
 12 11  1  0
 13 12  2  0
 15 14  1  0
 15 26  1  0
 15 16  1  1
 17 16  1  0
 18 17  2  0
 19 18  1  0
 20 19  1  0
 20 25  2  0
 21 20  1  0
 22 21  2  0
 22 23  1  0
 23 24  2  0
 24 25  1  0
 25 17  1  0
 26 27  2  0
 26 28  1  0
M  END
$$$$
