KGW.pdb
     RDKit          3D

 28 29  0  0  1  0  0  0  0  0999 V2000
   20.2325  -17.7974  -16.7463 N   0  0  0  0  0  0  0  0  0  0  0  0
   20.8537  -17.7700  -15.4595 C   0  0  1  0  0  0  0  0  0  0  0  0
   20.6138  -18.9843  -14.6497 C   0  0  0  0  0  0  0  0  0  0  0  0
   20.3342  -20.2024  -15.4768 C   0  0  0  0  0  0  0  0  0  0  0  0
   21.4755  -21.1263  -15.7053 C   0  0  0  0  0  0  0  0  0  0  0  0
   21.0972  -22.3738  -16.4625 C   0  0  0  0  0  0  0  0  0  0  0  0
   22.3250  -23.0769  -16.7959 N   0  0  0  0  0  0  0  0  0  0  0  0
   22.3386  -17.5269  -15.5733 C   0  0  0  0  0  0  0  0  0  0  0  0
   22.7847  -16.4599  -16.0565 O   0  0  0  0  0  0  0  0  0  0  0  0
   23.2873  -18.5008  -15.1366 N   0  0  0  0  0  0  0  0  0  0  0  0
   24.7117  -18.2957  -15.2194 C   0  0  0  0  0  0  0  0  0  0  0  0
   25.5301  -19.4117  -14.7383 C   0  0  0  0  0  0  0  0  0  0  0  0
   26.8007  -19.3151  -14.7193 O   0  0  0  0  0  0  0  0  0  0  0  0
   24.9880  -20.6324  -14.2813 N   0  0  0  0  0  0  0  0  0  0  0  0
   25.8775  -21.7384  -13.8628 C   0  0  1  0  0  0  0  0  0  0  0  0
   26.7375  -21.2555  -12.7515 C   0  0  0  0  0  0  0  0  0  0  0  0
   26.0640  -20.8774  -11.5047 C   0  0  0  0  0  0  0  0  0  0  0  0
   24.7045  -20.7787  -11.3164 C   0  0  0  0  0  0  0  0  0  0  0  0
   24.4320  -20.3811  -10.0616 N   0  0  0  0  0  0  0  0  0  0  0  0
   25.5981  -20.2182   -9.4234 C   0  0  0  0  0  0  0  0  0  0  0  0
   25.9188  -19.8474   -8.1512 C   0  0  0  0  0  0  0  0  0  0  0  0
   27.2016  -19.7551   -7.6804 C   0  0  0  0  0  0  0  0  0  0  0  0
   28.2353  -20.0578   -8.5528 C   0  0  0  0  0  0  0  0  0  0  0  0
   27.9374  -20.4326   -9.8367 C   0  0  0  0  0  0  0  0  0  0  0  0
   26.6386  -20.5207  -10.2982 C   0  0  0  0  0  0  0  0  0  0  0  0
   25.1020  -22.9496  -13.6592 C   0  0  0  0  0  0  0  0  0  0  0  0
   23.8489  -22.9189  -13.7498 O   0  0  0  0  0  0  0  0  0  0  0  0
   25.7027  -24.1574  -13.3690 O   0  0  0  0  0  0  0  0  0  0  0  0
  2  8  1  0
  2  1  1  6
  3  2  1  0
  4  3  1  0
  4  5  1  0
  5  6  1  0
  7  6  1  0
  8  9  2  0
 10 11  1  0
 10  8  1  0
 12 14  1  0
 12 11  1  0
 13 12  2  0
 15 14  1  0
 15 26  1  0
 15 16  1  1
 17 16  1  0
 18 17  2  0
 19 18  1  0
 20 19  1  0
 20 25  2  0
 21 20  1  0
 22 21  2  0
 22 23  1  0
 23 24  2  0
 24 25  1  0
 25 17  1  0
 26 27  2  0
 26 28  1  0
M  END
$$$$
