KGW.pdb
     RDKit          3D

 28 29  0  0  1  0  0  0  0  0999 V2000
   24.9722  -19.9986  -16.6831 N   0  0  0  0  0  0  0  0  0  0  0  0
   26.3503  -20.1045  -17.0466 C   0  0  1  0  0  0  0  0  0  0  0  0
   26.8366  -18.9927  -17.8924 C   0  0  0  0  0  0  0  0  0  0  0  0
   26.0526  -18.8248  -19.1586 C   0  0  0  0  0  0  0  0  0  0  0  0
   26.8340  -18.7716  -20.4215 C   0  0  0  0  0  0  0  0  0  0  0  0
   25.9905  -18.4930  -21.6394 C   0  0  0  0  0  0  0  0  0  0  0  0
   26.8572  -18.5713  -22.8038 N   0  0  0  0  0  0  0  0  0  0  0  0
   27.2303  -20.2305  -15.8272 C   0  0  0  0  0  0  0  0  0  0  0  0
   28.4597  -20.4489  -15.9358 O   0  0  0  0  0  0  0  0  0  0  0  0
   26.6961  -20.1066  -14.5086 N   0  0  0  0  0  0  0  0  0  0  0  0
   27.5061  -20.2317  -13.3229 C   0  0  0  0  0  0  0  0  0  0  0  0
   26.8456  -20.8727  -12.1829 C   0  0  0  0  0  0  0  0  0  0  0  0
   25.9726  -21.7812  -12.3739 O   0  0  0  0  0  0  0  0  0  0  0  0
   27.1171  -20.5379  -10.8386 N   0  0  0  0  0  0  0  0  0  0  0  0
   26.4925  -21.3001   -9.7347 C   0  0  1  0  0  0  0  0  0  0  0  0
   27.4448  -21.3429   -8.5950 C   0  0  0  0  0  0  0  0  0  0  0  0
   27.4622  -20.1826   -7.6981 C   0  0  0  0  0  0  0  0  0  0  0  0
   26.8054  -18.9909   -7.9029 C   0  0  0  0  0  0  0  0  0  0  0  0
   27.0607  -18.1354   -6.8982 N   0  0  0  0  0  0  0  0  0  0  0  0
   27.8779  -18.7526   -6.0351 C   0  0  0  0  0  0  0  0  0  0  0  0
   28.4394  -18.3739   -4.8519 C   0  0  0  0  0  0  0  0  0  0  0  0
   29.2524  -19.1777   -4.0976 C   0  0  0  0  0  0  0  0  0  0  0  0
   29.5188  -20.4538   -4.5682 C   0  0  0  0  0  0  0  0  0  0  0  0
   28.9658  -20.8567   -5.7554 C   0  0  0  0  0  0  0  0  0  0  0  0
   28.1482  -20.0349   -6.5062 C   0  0  0  0  0  0  0  0  0  0  0  0
   25.1469  -20.8099   -9.4918 C   0  0  0  0  0  0  0  0  0  0  0  0
   24.3400  -21.4927   -8.8121 O   0  0  0  0  0  0  0  0  0  0  0  0
   24.7152  -19.5960   -9.9856 O   0  0  0  0  0  0  0  0  0  0  0  0
  2  8  1  0
  2  1  1  1
  3  2  1  0
  4  3  1  0
  4  5  1  0
  5  6  1  0
  7  6  1  0
  8  9  2  0
 10 11  1  0
 10  8  1  0
 12 14  1  0
 12 11  1  0
 13 12  2  0
 15 14  1  0
 15 26  1  0
 15 16  1  1
 17 16  1  0
 18 17  2  0
 19 18  1  0
 20 19  1  0
 20 25  2  0
 21 20  1  0
 22 21  2  0
 22 23  1  0
 23 24  2  0
 24 25  1  0
 25 17  1  0
 26 27  2  0
 26 28  1  0
M  END
$$$$
