KGW.pdb
     RDKit          3D

 28 29  0  0  1  0  0  0  0  0999 V2000
   25.7950  -22.0834  -16.1969 N   0  0  0  0  0  0  0  0  0  0  0  0
   25.9299  -20.6625  -16.2706 C   0  0  1  0  0  0  0  0  0  0  0  0
   25.1081  -20.0341  -17.3277 C   0  0  0  0  0  0  0  0  0  0  0  0
   25.3763  -20.5878  -18.6943 C   0  0  0  0  0  0  0  0  0  0  0  0
   24.8887  -21.9662  -18.9599 C   0  0  0  0  0  0  0  0  0  0  0  0
   25.2603  -22.4828  -20.3265 C   0  0  0  0  0  0  0  0  0  0  0  0
   24.8279  -23.8683  -20.4071 N   0  0  0  0  0  0  0  0  0  0  0  0
   25.6233  -20.0138  -14.9431 C   0  0  0  0  0  0  0  0  0  0  0  0
   25.8165  -18.7888  -14.7613 O   0  0  0  0  0  0  0  0  0  0  0  0
   25.1038  -20.7695  -13.8483 N   0  0  0  0  0  0  0  0  0  0  0  0
   24.8221  -20.1862  -12.5606 C   0  0  0  0  0  0  0  0  0  0  0  0
   25.6417  -20.6911  -11.4561 C   0  0  0  0  0  0  0  0  0  0  0  0
   26.4487  -21.6591  -11.6453 O   0  0  0  0  0  0  0  0  0  0  0  0
   25.5941  -20.1621  -10.1482 N   0  0  0  0  0  0  0  0  0  0  0  0
   26.3920  -20.7733   -9.0621 C   0  0  1  0  0  0  0  0  0  0  0  0
   27.5668  -19.9036   -8.7949 C   0  0  0  0  0  0  0  0  0  0  0  0
   28.4884  -20.3358   -7.7391 C   0  0  0  0  0  0  0  0  0  0  0  0
   29.3775  -21.3830   -7.8190 C   0  0  0  0  0  0  0  0  0  0  0  0
   30.0468  -21.5199   -6.6614 N   0  0  0  0  0  0  0  0  0  0  0  0
   29.6073  -20.5734   -5.8220 C   0  0  0  0  0  0  0  0  0  0  0  0
   29.9368  -20.2385   -4.5422 C   0  0  0  0  0  0  0  0  0  0  0  0
   29.3681  -19.2020   -3.8507 C   0  0  0  0  0  0  0  0  0  0  0  0
   28.3985  -18.4488   -4.4940 C   0  0  0  0  0  0  0  0  0  0  0  0
   28.0505  -18.7667   -5.7806 C   0  0  0  0  0  0  0  0  0  0  0  0
   28.6321  -19.8156   -6.4656 C   0  0  0  0  0  0  0  0  0  0  0  0
   25.5278  -21.1269   -7.9495 C   0  0  0  0  0  0  0  0  0  0  0  0
   24.4001  -20.5853   -7.8299 O   0  0  0  0  0  0  0  0  0  0  0  0
   25.9049  -22.0576   -7.0032 O   0  0  0  0  0  0  0  0  0  0  0  0
  2  8  1  0
  2  1  1  1
  3  2  1  0
  4  3  1  0
  4  5  1  0
  5  6  1  0
  7  6  1  0
  8  9  2  0
 10 11  1  0
 10  8  1  0
 12 14  1  0
 12 11  1  0
 13 12  2  0
 15 14  1  0
 15 26  1  0
 15 16  1  1
 17 16  1  0
 18 17  2  0
 19 18  1  0
 20 19  1  0
 20 25  2  0
 21 20  1  0
 22 21  2  0
 22 23  1  0
 23 24  2  0
 24 25  1  0
 25 17  1  0
 26 27  2  0
 26 28  1  0
M  END
$$$$
