KGW.pdb
     RDKit          3D

 28 29  0  0  1  0  0  0  0  0999 V2000
   23.4613  -19.6205  -15.4089 N   0  0  0  0  0  0  0  0  0  0  0  0
   23.6518  -18.2204  -15.6233 C   0  0  1  0  0  0  0  0  0  0  0  0
   22.5211  -17.3827  -15.1676 C   0  0  0  0  0  0  0  0  0  0  0  0
   21.6674  -16.8778  -16.2911 C   0  0  0  0  0  0  0  0  0  0  0  0
   22.3815  -16.3215  -17.4696 C   0  0  0  0  0  0  0  0  0  0  0  0
   21.4598  -15.8749  -18.5758 C   0  0  0  0  0  0  0  0  0  0  0  0
   22.2754  -15.2517  -19.6052 N   0  0  0  0  0  0  0  0  0  0  0  0
   24.9277  -17.7364  -14.9792 C   0  0  0  0  0  0  0  0  0  0  0  0
   25.2674  -16.5315  -15.0410 O   0  0  0  0  0  0  0  0  0  0  0  0
   25.7926  -18.6306  -14.2781 N   0  0  0  0  0  0  0  0  0  0  0  0
   26.9078  -18.1776  -13.4851 C   0  0  0  0  0  0  0  0  0  0  0  0
   27.6561  -19.2358  -12.8018 C   0  0  0  0  0  0  0  0  0  0  0  0
   28.5821  -19.8641  -13.4116 O   0  0  0  0  0  0  0  0  0  0  0  0
   27.4100  -19.6239  -11.4670 N   0  0  0  0  0  0  0  0  0  0  0  0
   27.4075  -21.0548  -11.0900 C   0  0  1  0  0  0  0  0  0  0  0  0
   28.0546  -21.1917   -9.7594 C   0  0  0  0  0  0  0  0  0  0  0  0
   27.3182  -20.6681   -8.6042 C   0  0  0  0  0  0  0  0  0  0  0  0
   25.9597  -20.4599   -8.5365 C   0  0  0  0  0  0  0  0  0  0  0  0
   25.6228  -19.9442   -7.3418 N   0  0  0  0  0  0  0  0  0  0  0  0
   26.7455  -19.8119   -6.6237 C   0  0  0  0  0  0  0  0  0  0  0  0
   26.9950  -19.3629   -5.3608 C   0  0  0  0  0  0  0  0  0  0  0  0
   28.2413  -19.3225   -4.7942 C   0  0  0  0  0  0  0  0  0  0  0  0
   29.3128  -19.7661   -5.5534 C   0  0  0  0  0  0  0  0  0  0  0  0
   29.0866  -20.2217   -6.8256 C   0  0  0  0  0  0  0  0  0  0  0  0
   27.8240  -20.2560   -7.3846 C   0  0  0  0  0  0  0  0  0  0  0  0
   26.0796  -21.6143  -11.2726 C   0  0  0  0  0  0  0  0  0  0  0  0
   25.0792  -20.8563  -11.3367 O   0  0  0  0  0  0  0  0  0  0  0  0
   25.8726  -22.9738  -11.3853 O   0  0  0  0  0  0  0  0  0  0  0  0
  2  8  1  0
  2  1  1  1
  3  2  1  0
  4  3  1  0
  4  5  1  0
  5  6  1  0
  7  6  1  0
  8  9  2  0
 10 11  1  0
 10  8  1  0
 12 14  1  0
 12 11  1  0
 13 12  2  0
 15 14  1  0
 15 26  1  0
 15 16  1  1
 17 16  1  0
 18 17  2  0
 19 18  1  0
 20 19  1  0
 20 25  2  0
 21 20  1  0
 22 21  2  0
 22 23  1  0
 23 24  2  0
 24 25  1  0
 25 17  1  0
 26 27  2  0
 26 28  1  0
M  END
$$$$
