KGW.pdb
     RDKit          3D

 28 29  0  0  1  0  0  0  0  0999 V2000
   25.9554  -18.3157  -19.4382 N   0  0  0  0  0  0  0  0  0  0  0  0
   25.2215  -19.2635  -18.6599 C   0  0  1  0  0  0  0  0  0  0  0  0
   24.9405  -20.5326  -19.3656 C   0  0  0  0  0  0  0  0  0  0  0  0
   24.6231  -20.3451  -20.8183 C   0  0  0  0  0  0  0  0  0  0  0  0
   25.2732  -21.2862  -21.7670 C   0  0  0  0  0  0  0  0  0  0  0  0
   25.0041  -20.9625  -23.2146 C   0  0  0  0  0  0  0  0  0  0  0  0
   25.8348  -21.8385  -24.0244 N   0  0  0  0  0  0  0  0  0  0  0  0
   25.9193  -19.5578  -17.3547 C   0  0  0  0  0  0  0  0  0  0  0  0
   25.7711  -20.6593  -16.7754 O   0  0  0  0  0  0  0  0  0  0  0  0
   26.7711  -18.5948  -16.7331 N   0  0  0  0  0  0  0  0  0  0  0  0
   27.9969  -18.9525  -16.0643 C   0  0  0  0  0  0  0  0  0  0  0  0
   27.8852  -19.1321  -14.6145 C   0  0  0  0  0  0  0  0  0  0  0  0
   28.1453  -18.1657  -13.8256 O   0  0  0  0  0  0  0  0  0  0  0  0
   27.4991  -20.3477  -14.0096 N   0  0  0  0  0  0  0  0  0  0  0  0
   27.3341  -20.4362  -12.5417 C   0  0  1  0  0  0  0  0  0  0  0  0
   26.4400  -19.3341  -12.1017 C   0  0  0  0  0  0  0  0  0  0  0  0
   25.0079  -19.6362  -12.0074 C   0  0  0  0  0  0  0  0  0  0  0  0
   24.3796  -20.2603  -10.9543 C   0  0  0  0  0  0  0  0  0  0  0  0
   23.0677  -20.4045  -11.2089 N   0  0  0  0  0  0  0  0  0  0  0  0
   22.8273  -19.8812  -12.4181 C   0  0  0  0  0  0  0  0  0  0  0  0
   21.6942  -19.7419  -13.1633 C   0  0  0  0  0  0  0  0  0  0  0  0
   21.6570  -19.1495  -14.3976 C   0  0  0  0  0  0  0  0  0  0  0  0
   22.8455  -18.6624  -14.9186 C   0  0  0  0  0  0  0  0  0  0  0  0
   23.9974  -18.7913  -14.1879 C   0  0  0  0  0  0  0  0  0  0  0  0
   24.0202  -19.3919  -12.9444 C   0  0  0  0  0  0  0  0  0  0  0  0
   26.9926  -21.7957  -12.1613 C   0  0  0  0  0  0  0  0  0  0  0  0
   26.9537  -22.1203  -10.9478 O   0  0  0  0  0  0  0  0  0  0  0  0
   26.6988  -22.7618  -13.1016 O   0  0  0  0  0  0  0  0  0  0  0  0
  2  8  1  0
  2  1  1  6
  3  2  1  0
  4  3  1  0
  4  5  1  0
  5  6  1  0
  7  6  1  0
  8  9  2  0
 10 11  1  0
 10  8  1  0
 12 14  1  0
 12 11  1  0
 13 12  2  0
 15 14  1  0
 15 26  1  0
 15 16  1  6
 17 16  1  0
 18 17  2  0
 19 18  1  0
 20 19  1  0
 20 25  2  0
 21 20  1  0
 22 21  2  0
 22 23  1  0
 23 24  2  0
 24 25  1  0
 25 17  1  0
 26 27  2  0
 26 28  1  0
M  END
$$$$
