KGW.pdb
     RDKit          3D

 28 29  0  0  1  0  0  0  0  0999 V2000
   25.5675  -17.3959  -14.5712 N   0  0  0  0  0  0  0  0  0  0  0  0
   25.4245  -18.6130  -15.3064 C   0  0  1  0  0  0  0  0  0  0  0  0
   25.4158  -18.4318  -16.7744 C   0  0  0  0  0  0  0  0  0  0  0  0
   24.0390  -18.2651  -17.3426 C   0  0  0  0  0  0  0  0  0  0  0  0
   23.2188  -19.4979  -17.4686 C   0  0  0  0  0  0  0  0  0  0  0  0
   21.8835  -19.2671  -18.1291 C   0  0  0  0  0  0  0  0  0  0  0  0
   21.2033  -20.5493  -18.2091 N   0  0  0  0  0  0  0  0  0  0  0  0
   26.4931  -19.6095  -14.9292 C   0  0  0  0  0  0  0  0  0  0  0  0
   26.4056  -20.8125  -15.2698 O   0  0  0  0  0  0  0  0  0  0  0  0
   27.6395  -19.2198  -14.1722 N   0  0  0  0  0  0  0  0  0  0  0  0
   28.5179  -20.1713  -13.5392 C   0  0  0  0  0  0  0  0  0  0  0  0
   28.0067  -20.7609  -12.2992 C   0  0  0  0  0  0  0  0  0  0  0  0
   28.4401  -21.8904  -11.8985 O   0  0  0  0  0  0  0  0  0  0  0  0
   27.0285  -20.1429  -11.4905 N   0  0  0  0  0  0  0  0  0  0  0  0
   26.6484  -20.7343  -10.1884 C   0  0  1  0  0  0  0  0  0  0  0  0
   27.4080  -20.0398   -9.1167 C   0  0  0  0  0  0  0  0  0  0  0  0
   26.9942  -20.2977   -7.7335 C   0  0  0  0  0  0  0  0  0  0  0  0
   25.9083  -21.0451   -7.3391 C   0  0  0  0  0  0  0  0  0  0  0  0
   25.8049  -21.0521   -5.9989 N   0  0  0  0  0  0  0  0  0  0  0  0
   26.8118  -20.3175   -5.5087 C   0  0  0  0  0  0  0  0  0  0  0  0
   27.1996  -19.9982   -4.2413 C   0  0  0  0  0  0  0  0  0  0  0  0
   28.2937  -19.2293   -3.9456 C   0  0  0  0  0  0  0  0  0  0  0  0
   29.0516  -18.7476   -5.0014 C   0  0  0  0  0  0  0  0  0  0  0  0
   28.6811  -19.0552   -6.2843 C   0  0  0  0  0  0  0  0  0  0  0  0
   27.5743  -19.8314   -6.5677 C   0  0  0  0  0  0  0  0  0  0  0  0
   25.2018  -20.8013  -10.0766 C   0  0  0  0  0  0  0  0  0  0  0  0
   24.6704  -21.2746   -9.0407 O   0  0  0  0  0  0  0  0  0  0  0  0
   24.3731  -20.3512  -11.0839 O   0  0  0  0  0  0  0  0  0  0  0  0
  2  8  1  0
  2  1  1  1
  3  2  1  0
  4  3  1  0
  4  5  1  0
  5  6  1  0
  7  6  1  0
  8  9  2  0
 10 11  1  0
 10  8  1  0
 12 14  1  0
 12 11  1  0
 13 12  2  0
 15 14  1  0
 15 26  1  0
 15 16  1  1
 17 16  1  0
 18 17  2  0
 19 18  1  0
 20 19  1  0
 20 25  2  0
 21 20  1  0
 22 21  2  0
 22 23  1  0
 23 24  2  0
 24 25  1  0
 25 17  1  0
 26 27  2  0
 26 28  1  0
M  END
$$$$
