KGW.pdb
     RDKit          3D

 28 29  0  0  1  0  0  0  0  0999 V2000
   26.8472  -23.6422  -16.4922 N   0  0  0  0  0  0  0  0  0  0  0  0
   27.6344  -22.4979  -16.8291 C   0  0  1  0  0  0  0  0  0  0  0  0
   27.5235  -22.0873  -18.2458 C   0  0  0  0  0  0  0  0  0  0  0  0
   27.8376  -23.1917  -19.2090 C   0  0  0  0  0  0  0  0  0  0  0  0
   29.2603  -23.3356  -19.6135 C   0  0  0  0  0  0  0  0  0  0  0  0
   29.5079  -24.4996  -20.5388 C   0  0  0  0  0  0  0  0  0  0  0  0
   30.9424  -24.5955  -20.7534 N   0  0  0  0  0  0  0  0  0  0  0  0
   27.3050  -21.3251  -15.9385 C   0  0  0  0  0  0  0  0  0  0  0  0
   27.3630  -20.1492  -16.3687 O   0  0  0  0  0  0  0  0  0  0  0  0
   26.9170  -21.5111  -14.5769 N   0  0  0  0  0  0  0  0  0  0  0  0
   26.4588  -20.4301  -13.7406 C   0  0  0  0  0  0  0  0  0  0  0  0
   26.1075  -20.8098  -12.3698 C   0  0  0  0  0  0  0  0  0  0  0  0
   25.3206  -21.7892  -12.1562 O   0  0  0  0  0  0  0  0  0  0  0  0
   26.5955  -20.1381  -11.2281 N   0  0  0  0  0  0  0  0  0  0  0  0
   26.1429  -20.5317   -9.8753 C   0  0  1  0  0  0  0  0  0  0  0  0
   26.9245  -19.7599   -8.8748 C   0  0  0  0  0  0  0  0  0  0  0  0
   26.6999  -20.0826   -7.4618 C   0  0  0  0  0  0  0  0  0  0  0  0
   25.5997  -20.7261   -6.9432 C   0  0  0  0  0  0  0  0  0  0  0  0
   25.7052  -20.8339   -5.6075 N   0  0  0  0  0  0  0  0  0  0  0  0
   26.8634  -20.2687   -5.2432 C   0  0  0  0  0  0  0  0  0  0  0  0
   27.4815  -20.1062   -4.0390 C   0  0  0  0  0  0  0  0  0  0  0  0
   28.6995  -19.5009   -3.8783 C   0  0  0  0  0  0  0  0  0  0  0  0
   29.3411  -19.0254   -5.0112 C   0  0  0  0  0  0  0  0  0  0  0  0
   28.7392  -19.1770   -6.2327 C   0  0  0  0  0  0  0  0  0  0  0  0
   27.5097  -19.7890   -6.3798 C   0  0  0  0  0  0  0  0  0  0  0  0
   24.6929  -20.4852   -9.8036 C   0  0  0  0  0  0  0  0  0  0  0  0
   24.0587  -19.5979  -10.4280 O   0  0  0  0  0  0  0  0  0  0  0  0
   23.9718  -21.4003   -9.0644 O   0  0  0  0  0  0  0  0  0  0  0  0
  2  8  1  0
  2  1  1  6
  3  2  1  0
  4  3  1  0
  4  5  1  0
  5  6  1  0
  7  6  1  0
  8  9  2  0
 10 11  1  0
 10  8  1  0
 12 14  1  0
 12 11  1  0
 13 12  2  0
 15 14  1  0
 15 26  1  0
 15 16  1  1
 17 16  1  0
 18 17  2  0
 19 18  1  0
 20 19  1  0
 20 25  2  0
 21 20  1  0
 22 21  2  0
 22 23  1  0
 23 24  2  0
 24 25  1  0
 25 17  1  0
 26 27  2  0
 26 28  1  0
M  END
$$$$
