KGW.pdb
     RDKit          3D

 28 29  0  0  1  0  0  0  0  0999 V2000
   24.6542  -22.0663  -15.0490 N   0  0  0  0  0  0  0  0  0  0  0  0
   24.9333  -20.6699  -14.9283 C   0  0  1  0  0  0  0  0  0  0  0  0
   23.8532  -19.7946  -15.4333 C   0  0  0  0  0  0  0  0  0  0  0  0
   24.3233  -18.8013  -16.4523 C   0  0  0  0  0  0  0  0  0  0  0  0
   24.8209  -17.5012  -15.9323 C   0  0  0  0  0  0  0  0  0  0  0  0
   25.2069  -16.5277  -17.0166 C   0  0  0  0  0  0  0  0  0  0  0  0
   25.7181  -15.3292  -16.3721 N   0  0  0  0  0  0  0  0  0  0  0  0
   25.2570  -20.2974  -13.5022 C   0  0  0  0  0  0  0  0  0  0  0  0
   24.3836  -19.8113  -12.7460 O   0  0  0  0  0  0  0  0  0  0  0  0
   26.5663  -20.4839  -12.9637 N   0  0  0  0  0  0  0  0  0  0  0  0
   26.9134  -20.1237  -11.6118 C   0  0  0  0  0  0  0  0  0  0  0  0
   26.2895  -20.9433  -10.5698 C   0  0  0  0  0  0  0  0  0  0  0  0
   26.1993  -22.2063  -10.7139 O   0  0  0  0  0  0  0  0  0  0  0  0
   25.7586  -20.4098   -9.3755 N   0  0  0  0  0  0  0  0  0  0  0  0
   25.1551  -21.3001   -8.3592 C   0  0  1  0  0  0  0  0  0  0  0  0
   25.5263  -20.7954   -7.0119 C   0  0  0  0  0  0  0  0  0  0  0  0
   26.7119  -19.9362   -6.9262 C   0  0  0  0  0  0  0  0  0  0  0  0
   27.0114  -18.8841   -7.7609 C   0  0  0  0  0  0  0  0  0  0  0  0
   28.1876  -18.3319   -7.4167 N   0  0  0  0  0  0  0  0  0  0  0  0
   28.6636  -19.0098   -6.3643 C   0  0  0  0  0  0  0  0  0  0  0  0
   29.7899  -18.8815   -5.6068 C   0  0  0  0  0  0  0  0  0  0  0  0
   30.0906  -19.6847   -4.5389 C   0  0  0  0  0  0  0  0  0  0  0  0
   29.1932  -20.6885   -4.2102 C   0  0  0  0  0  0  0  0  0  0  0  0
   28.0542  -20.8370   -4.9574 C   0  0  0  0  0  0  0  0  0  0  0  0
   27.7641  -20.0199   -6.0326 C   0  0  0  0  0  0  0  0  0  0  0  0
   23.7485  -21.5094   -8.6545 C   0  0  0  0  0  0  0  0  0  0  0  0
   23.0546  -22.2581   -7.9214 O   0  0  0  0  0  0  0  0  0  0  0  0
   23.1327  -20.9005   -9.7287 O   0  0  0  0  0  0  0  0  0  0  0  0
  2  8  1  0
  2  1  1  1
  3  2  1  0
  4  3  1  0
  4  5  1  0
  5  6  1  0
  7  6  1  0
  8  9  2  0
 10 11  1  0
 10  8  1  0
 12 14  1  0
 12 11  1  0
 13 12  2  0
 15 14  1  0
 15 26  1  0
 15 16  1  1
 17 16  1  0
 18 17  2  0
 19 18  1  0
 20 19  1  0
 20 25  2  0
 21 20  1  0
 22 21  2  0
 22 23  1  0
 23 24  2  0
 24 25  1  0
 25 17  1  0
 26 27  2  0
 26 28  1  0
M  END
$$$$
