KGW.pdb
     RDKit          3D

 28 29  0  0  1  0  0  0  0  0999 V2000
   29.4408  -21.8894  -14.8859 N   0  0  0  0  0  0  0  0  0  0  0  0
   28.6799  -21.1999  -15.8799 C   0  0  1  0  0  0  0  0  0  0  0  0
   28.9150  -21.6809  -17.2587 C   0  0  0  0  0  0  0  0  0  0  0  0
   30.2835  -22.2580  -17.4595 C   0  0  0  0  0  0  0  0  0  0  0  0
   30.5801  -22.8107  -18.8067 C   0  0  0  0  0  0  0  0  0  0  0  0
   32.0147  -23.2409  -18.9779 C   0  0  0  0  0  0  0  0  0  0  0  0
   32.1745  -23.7105  -20.3443 N   0  0  0  0  0  0  0  0  0  0  0  0
   27.2032  -21.2532  -15.5738 C   0  0  0  0  0  0  0  0  0  0  0  0
   26.3788  -20.5873  -16.2431 O   0  0  0  0  0  0  0  0  0  0  0  0
   26.6922  -22.0615  -14.5132 N   0  0  0  0  0  0  0  0  0  0  0  0
   25.2969  -22.0859  -14.1523 C   0  0  0  0  0  0  0  0  0  0  0  0
   25.0241  -21.9953  -12.7156 C   0  0  0  0  0  0  0  0  0  0  0  0
   23.8381  -22.1508  -12.2759 O   0  0  0  0  0  0  0  0  0  0  0  0
   26.0206  -21.7341  -11.7504 N   0  0  0  0  0  0  0  0  0  0  0  0
   25.6468  -21.3689  -10.3660 C   0  0  1  0  0  0  0  0  0  0  0  0
   26.8907  -21.2161   -9.5677 C   0  0  0  0  0  0  0  0  0  0  0  0
   26.7483  -20.6822   -8.2092 C   0  0  0  0  0  0  0  0  0  0  0  0
   25.5816  -20.2343   -7.6333 C   0  0  0  0  0  0  0  0  0  0  0  0
   25.8149  -19.7857   -6.3878 N   0  0  0  0  0  0  0  0  0  0  0  0
   27.1224  -19.9348   -6.1392 C   0  0  0  0  0  0  0  0  0  0  0  0
   27.8994  -19.6665   -5.0515 C   0  0  0  0  0  0  0  0  0  0  0  0
   29.2453  -19.9132   -4.9917 C   0  0  0  0  0  0  0  0  0  0  0  0
   29.8521  -20.4699   -6.1065 C   0  0  0  0  0  0  0  0  0  0  0  0
   29.0915  -20.7480   -7.2118 C   0  0  0  0  0  0  0  0  0  0  0  0
   27.7348  -20.4931   -7.2584 C   0  0  0  0  0  0  0  0  0  0  0  0
   24.6972  -20.2699  -10.3814 C   0  0  0  0  0  0  0  0  0  0  0  0
   24.8312  -19.3320  -11.2071 O   0  0  0  0  0  0  0  0  0  0  0  0
   23.6295  -20.2192   -9.5088 O   0  0  0  0  0  0  0  0  0  0  0  0
  2  8  1  0
  2  1  1  1
  3  2  1  0
  4  3  1  0
  4  5  1  0
  5  6  1  0
  7  6  1  0
  8  9  2  0
 10 11  1  0
 10  8  1  0
 12 14  1  0
 12 11  1  0
 13 12  2  0
 15 14  1  0
 15 26  1  0
 15 16  1  1
 17 16  1  0
 18 17  2  0
 19 18  1  0
 20 19  1  0
 20 25  2  0
 21 20  1  0
 22 21  2  0
 22 23  1  0
 23 24  2  0
 24 25  1  0
 25 17  1  0
 26 27  2  0
 26 28  1  0
M  END
$$$$
