KGW.pdb
     RDKit          3D

 28 29  0  0  1  0  0  0  0  0999 V2000
   22.5652  -20.8103  -16.2595 N   0  0  0  0  0  0  0  0  0  0  0  0
   23.7116  -21.6533  -16.1265 C   0  0  1  0  0  0  0  0  0  0  0  0
   24.3964  -21.9437  -17.4050 C   0  0  0  0  0  0  0  0  0  0  0  0
   23.8143  -23.1153  -18.1362 C   0  0  0  0  0  0  0  0  0  0  0  0
   23.5834  -24.3478  -17.3388 C   0  0  0  0  0  0  0  0  0  0  0  0
   22.9819  -25.4766  -18.1366 C   0  0  0  0  0  0  0  0  0  0  0  0
   22.7928  -26.6018  -17.2360 N   0  0  0  0  0  0  0  0  0  0  0  0
   24.7028  -21.0789  -15.1443 C   0  0  0  0  0  0  0  0  0  0  0  0
   24.5610  -19.9221  -14.6832 O   0  0  0  0  0  0  0  0  0  0  0  0
   25.8357  -21.8296  -14.7060 N   0  0  0  0  0  0  0  0  0  0  0  0
   26.7552  -21.3447  -13.7074 C   0  0  0  0  0  0  0  0  0  0  0  0
   26.2874  -21.4576  -12.3236 C   0  0  0  0  0  0  0  0  0  0  0  0
   25.1932  -22.0563  -12.0622 O   0  0  0  0  0  0  0  0  0  0  0  0
   26.9893  -20.9258  -11.2202 N   0  0  0  0  0  0  0  0  0  0  0  0
   26.4179  -21.0071   -9.8576 C   0  0  1  0  0  0  0  0  0  0  0  0
   27.4865  -20.6777   -8.8791 C   0  0  0  0  0  0  0  0  0  0  0  0
   27.0730  -20.4659   -7.4880 C   0  0  0  0  0  0  0  0  0  0  0  0
   25.8299  -20.7349   -6.9629 C   0  0  0  0  0  0  0  0  0  0  0  0
   25.7858  -20.3953   -5.6631 N   0  0  0  0  0  0  0  0  0  0  0  0
   26.9870  -19.9065   -5.3286 C   0  0  0  0  0  0  0  0  0  0  0  0
   27.5062  -19.4314   -4.1609 C   0  0  0  0  0  0  0  0  0  0  0  0
   28.7927  -18.9830   -4.0207 C   0  0  0  0  0  0  0  0  0  0  0  0
   29.6153  -19.0155   -5.1358 C   0  0  0  0  0  0  0  0  0  0  0  0
   29.1155  -19.4886   -6.3207 C   0  0  0  0  0  0  0  0  0  0  0  0
   27.8153  -19.9370   -6.4477 C   0  0  0  0  0  0  0  0  0  0  0  0
   25.1723  -20.2626   -9.7960 C   0  0  0  0  0  0  0  0  0  0  0  0
   25.0838  -19.1349  -10.3437 O   0  0  0  0  0  0  0  0  0  0  0  0
   24.0593  -20.7598   -9.1498 O   0  0  0  0  0  0  0  0  0  0  0  0
  2  8  1  0
  2  1  1  6
  3  2  1  0
  4  3  1  0
  4  5  1  0
  5  6  1  0
  7  6  1  0
  8  9  2  0
 10 11  1  0
 10  8  1  0
 12 14  1  0
 12 11  1  0
 13 12  2  0
 15 14  1  0
 15 26  1  0
 15 16  1  1
 17 16  1  0
 18 17  2  0
 19 18  1  0
 20 19  1  0
 20 25  2  0
 21 20  1  0
 22 21  2  0
 22 23  1  0
 23 24  2  0
 24 25  1  0
 25 17  1  0
 26 27  2  0
 26 28  1  0
M  END
$$$$
