KGW.pdb
     RDKit          3D

 28 29  0  0  1  0  0  0  0  0999 V2000
   26.4629  -16.6345  -17.8250 N   0  0  0  0  0  0  0  0  0  0  0  0
   27.6397  -17.3896  -17.5289 C   0  0  1  0  0  0  0  0  0  0  0  0
   28.8999  -16.7091  -17.8983 C   0  0  0  0  0  0  0  0  0  0  0  0
   29.1610  -16.7060  -19.3741 C   0  0  0  0  0  0  0  0  0  0  0  0
   29.0254  -18.0092  -20.0753 C   0  0  0  0  0  0  0  0  0  0  0  0
   29.4617  -17.9644  -21.5177 C   0  0  0  0  0  0  0  0  0  0  0  0
   29.2553  -19.2879  -22.0824 N   0  0  0  0  0  0  0  0  0  0  0  0
   27.6875  -17.7802  -16.0721 C   0  0  0  0  0  0  0  0  0  0  0  0
   28.6105  -18.5008  -15.6251 O   0  0  0  0  0  0  0  0  0  0  0  0
   26.6857  -17.3451  -15.1522 N   0  0  0  0  0  0  0  0  0  0  0  0
   26.6695  -17.7461  -13.7677 C   0  0  0  0  0  0  0  0  0  0  0  0
   26.3737  -19.1618  -13.5334 C   0  0  0  0  0  0  0  0  0  0  0  0
   25.9120  -19.8861  -14.4749 O   0  0  0  0  0  0  0  0  0  0  0  0
   26.5684  -19.8009  -12.2898 N   0  0  0  0  0  0  0  0  0  0  0  0
   26.2553  -21.2380  -12.1275 C   0  0  1  0  0  0  0  0  0  0  0  0
   26.9148  -21.7261  -10.8887 C   0  0  0  0  0  0  0  0  0  0  0  0
   26.6134  -21.0068   -9.6466 C   0  0  0  0  0  0  0  0  0  0  0  0
   25.3893  -20.4928   -9.2851 C   0  0  0  0  0  0  0  0  0  0  0  0
   25.4737  -19.8706   -8.0966 N   0  0  0  0  0  0  0  0  0  0  0  0
   26.7403  -19.9709   -7.6732 C   0  0  0  0  0  0  0  0  0  0  0  0
   27.3821  -19.5443   -6.5485 C   0  0  0  0  0  0  0  0  0  0  0  0
   28.7089  -19.7676   -6.2922 C   0  0  0  0  0  0  0  0  0  0  0  0
   29.4417  -20.4707   -7.2355 C   0  0  0  0  0  0  0  0  0  0  0  0
   28.8182  -20.9092   -8.3741 C   0  0  0  0  0  0  0  0  0  0  0  0
   27.4792  -20.6761   -8.6199 C   0  0  0  0  0  0  0  0  0  0  0  0
   24.8275  -21.4557  -12.2811 C   0  0  0  0  0  0  0  0  0  0  0  0
   24.0205  -20.5137  -12.0793 O   0  0  0  0  0  0  0  0  0  0  0  0
   24.3148  -22.6817  -12.6524 O   0  0  0  0  0  0  0  0  0  0  0  0
  2  8  1  0
  2  1  1  1
  3  2  1  0
  4  3  1  0
  4  5  1  0
  5  6  1  0
  7  6  1  0
  8  9  2  0
 10 11  1  0
 10  8  1  0
 12 14  1  0
 12 11  1  0
 13 12  2  0
 15 14  1  0
 15 26  1  0
 15 16  1  1
 17 16  1  0
 18 17  2  0
 19 18  1  0
 20 19  1  0
 20 25  2  0
 21 20  1  0
 22 21  2  0
 22 23  1  0
 23 24  2  0
 24 25  1  0
 25 17  1  0
 26 27  2  0
 26 28  1  0
M  END
$$$$
