FSE.pdb
     RDKit          3D

 27 27  0  0  1  0  0  0  0  0999 V2000
    5.8668  -16.6134   25.1122 N   0  0  0  0  0  0  0  0  0  0  0  0
    7.0661  -15.8734   24.7875 C   0  0  1  0  0  0  0  0  0  0  0  0
    7.5457  -15.1840   26.0274 C   0  0  0  0  0  0  0  0  0  0  0  0
    7.1007  -13.7698   25.9976 C   0  0  0  0  0  0  0  0  0  0  0  0
    7.7886  -12.8012   25.2913 C   0  0  0  0  0  0  0  0  0  0  0  0
    7.3619  -11.4780   25.2667 C   0  0  0  0  0  0  0  0  0  0  0  0
    6.2400  -11.1023   25.9485 C   0  0  0  0  0  0  0  0  0  0  0  0
    5.5563  -12.0874   26.6559 C   0  0  0  0  0  0  0  0  0  0  0  0
    5.9634  -13.3902   26.6891 C   0  0  0  0  0  0  0  0  0  0  0  0
    8.1202  -16.7565   24.1924 C   0  0  0  0  0  0  0  0  0  0  0  0
    8.3906  -17.8703   24.7071 O   0  0  0  0  0  0  0  0  0  0  0  0
   10.9120  -15.2928   21.1186 O   0  0  0  0  0  0  0  0  0  0  0  0
   10.4556  -16.5906   21.1758 C   0  0  0  0  0  0  0  0  0  0  0  0
   10.0428  -17.0227   22.5464 C   0  0  2  0  0  0  0  0  0  0  0  0
    8.8589  -16.3829   23.0281 N   0  0  0  0  0  0  0  0  0  0  0  0
   11.1867  -16.9628   23.4947 C   0  0  0  0  0  0  0  0  0  0  0  0
   11.4156  -15.9173   24.1324 O   0  0  0  0  0  0  0  0  0  0  0  0
   12.0317  -18.0792   23.6920 N   0  0  0  0  0  0  0  0  0  0  0  0
   13.1642  -18.0842   24.6283 C   0  0  1  0  0  0  0  0  0  0  0  0
   12.8441  -19.0903   25.6622 C   0  0  0  0  0  0  0  0  0  0  0  0
   11.9588  -18.7395   26.7847 C   0  0  0  0  0  0  0  0  0  0  0  0
   11.6713  -19.7804   27.7720 C   0  0  0  0  0  0  0  0  0  0  0  0
   10.5374  -19.8802   28.3079 O   0  0  0  0  0  0  0  0  0  0  0  0
   14.3916  -18.2269   23.8987 C   0  0  0  0  0  0  0  0  0  0  0  0
   14.3681  -18.5849   22.6725 O   0  0  0  0  0  0  0  0  0  0  0  0
   12.6542  -20.6880   28.1406 O   0  0  0  0  0  0  0  0  0  0  0  0
   15.6660  -17.9902   24.4334 O   0  0  0  0  0  0  0  0  0  0  0  0
  2 10  1  0
  2  1  1  1
  3  2  1  0
  4  3  1  0
  5  4  2  0
  6  5  1  0
  7  8  1  0
  7  6  2  0
  8  9  2  0
  9  4  1  0
 10 11  2  0
 13 12  1  0
 14 13  1  6
 15 14  1  0
 15 10  1  0
 16 17  2  0
 16 14  1  0
 18 16  1  0
 19 18  1  0
 20 21  1  0
 19 20  1  1
 22 21  1  0
 23 22  2  0
 24 19  1  0
 24 27  1  0
 25 24  2  0
 26 22  1  0
M  END
$$$$
