FSE.pdb
     RDKit          3D

 27 27  0  0  1  0  0  0  0  0999 V2000
    6.4200  -17.8165   20.0442 N   0  0  0  0  0  0  0  0  0  0  0  0
    7.3154  -16.9808   20.8132 C   0  0  1  0  0  0  0  0  0  0  0  0
    6.4927  -16.0197   21.6144 C   0  0  0  0  0  0  0  0  0  0  0  0
    6.9845  -14.6421   21.3711 C   0  0  0  0  0  0  0  0  0  0  0  0
    7.0616  -14.1069   20.0991 C   0  0  0  0  0  0  0  0  0  0  0  0
    7.5214  -12.8129   19.8809 C   0  0  0  0  0  0  0  0  0  0  0  0
    7.9115  -12.0332   20.9319 C   0  0  0  0  0  0  0  0  0  0  0  0
    7.8290  -12.5840   22.2079 C   0  0  0  0  0  0  0  0  0  0  0  0
    7.3797  -13.8528   22.4371 C   0  0  0  0  0  0  0  0  0  0  0  0
    8.2297  -17.7942   21.6778 C   0  0  0  0  0  0  0  0  0  0  0  0
    7.8804  -18.9267   22.0949 O   0  0  0  0  0  0  0  0  0  0  0  0
   12.4494  -16.7678   22.4235 O   0  0  0  0  0  0  0  0  0  0  0  0
   11.8635  -18.0122   22.3603 C   0  0  0  0  0  0  0  0  0  0  0  0
   10.4607  -18.0431   22.8768 C   0  0  2  0  0  0  0  0  0  0  0  0
    9.5243  -17.3307   22.0653 N   0  0  0  0  0  0  0  0  0  0  0  0
   10.4112  -17.6742   24.3165 C   0  0  0  0  0  0  0  0  0  0  0  0
   10.7040  -16.5178   24.6757 O   0  0  0  0  0  0  0  0  0  0  0  0
   10.0349  -18.6177   25.3001 N   0  0  0  0  0  0  0  0  0  0  0  0
   10.0742  -18.3446   26.7434 C   0  0  1  0  0  0  0  0  0  0  0  0
    9.1303  -19.2924   27.3715 C   0  0  0  0  0  0  0  0  0  0  0  0
    7.8203  -19.5499   26.7513 C   0  0  0  0  0  0  0  0  0  0  0  0
    6.9473  -20.5321   27.3947 C   0  0  0  0  0  0  0  0  0  0  0  0
    7.2514  -21.0567   28.4970 O   0  0  0  0  0  0  0  0  0  0  0  0
   11.4358  -18.3418   27.1961 C   0  0  0  0  0  0  0  0  0  0  0  0
   11.7096  -17.9981   28.3958 O   0  0  0  0  0  0  0  0  0  0  0  0
    5.7535  -20.9082   26.7953 O   0  0  0  0  0  0  0  0  0  0  0  0
   12.5363  -18.7061   26.4073 O   0  0  0  0  0  0  0  0  0  0  0  0
  2 10  1  0
  2  1  1  1
  3  2  1  0
  4  3  1  0
  5  4  2  0
  6  5  1  0
  7  8  1  0
  7  6  2  0
  8  9  2  0
  9  4  1  0
 10 11  2  0
 13 12  1  0
 14 13  1  6
 15 14  1  0
 15 10  1  0
 16 17  2  0
 16 14  1  0
 18 16  1  0
 19 18  1  0
 20 21  1  0
 19 20  1  1
 22 21  1  0
 23 22  2  0
 24 19  1  0
 24 27  1  0
 25 24  2  0
 26 22  1  0
M  END
$$$$
