FSE.pdb
     RDKit          3D

 27 27  0  0  1  0  0  0  0  0999 V2000
    5.4933  -17.6759   24.7492 N   0  0  0  0  0  0  0  0  0  0  0  0
    6.3170  -16.4873   24.7419 C   0  0  1  0  0  0  0  0  0  0  0  0
    6.3639  -15.9368   26.1337 C   0  0  0  0  0  0  0  0  0  0  0  0
    6.9325  -14.5679   26.0937 C   0  0  0  0  0  0  0  0  0  0  0  0
    8.2893  -14.3355   26.2173 C   0  0  0  0  0  0  0  0  0  0  0  0
    8.8137  -13.0483   26.1756 C   0  0  0  0  0  0  0  0  0  0  0  0
    7.9891  -11.9727   26.0096 C   0  0  0  0  0  0  0  0  0  0  0  0
    6.6246  -12.2202   25.8863 C   0  0  0  0  0  0  0  0  0  0  0  0
    6.0956  -13.4784   25.9255 C   0  0  0  0  0  0  0  0  0  0  0  0
    7.6867  -16.7635   24.2006 C   0  0  0  0  0  0  0  0  0  0  0  0
    8.4750  -17.5299   24.8087 O   0  0  0  0  0  0  0  0  0  0  0  0
    9.2088  -14.5475   20.8764 O   0  0  0  0  0  0  0  0  0  0  0  0
    9.5626  -15.8727   20.9962 C   0  0  0  0  0  0  0  0  0  0  0  0
    9.4363  -16.4052   22.3876 C   0  0  2  0  0  0  0  0  0  0  0  0
    8.1577  -16.1790   22.9852 N   0  0  0  0  0  0  0  0  0  0  0  0
   10.5801  -15.9719   23.2333 C   0  0  0  0  0  0  0  0  0  0  0  0
   10.6482  -14.7954   23.6373 O   0  0  0  0  0  0  0  0  0  0  0  0
   11.6058  -16.8759   23.5942 N   0  0  0  0  0  0  0  0  0  0  0  0
   12.7541  -16.5070   24.4336 C   0  0  1  0  0  0  0  0  0  0  0  0
   12.9350  -17.6112   25.3988 C   0  0  0  0  0  0  0  0  0  0  0  0
   11.9406  -17.8335   26.4612 C   0  0  0  0  0  0  0  0  0  0  0  0
   12.1424  -18.9785   27.3496 C   0  0  0  0  0  0  0  0  0  0  0  0
   11.3697  -19.2015   28.3170 O   0  0  0  0  0  0  0  0  0  0  0  0
   13.8642  -16.1457   23.5992 C   0  0  0  0  0  0  0  0  0  0  0  0
   13.8359  -16.4081   22.3491 O   0  0  0  0  0  0  0  0  0  0  0  0
   13.2014  -19.8505   27.1401 O   0  0  0  0  0  0  0  0  0  0  0  0
   15.0209  -15.4958   24.0528 O   0  0  0  0  0  0  0  0  0  0  0  0
  2 10  1  0
  2  1  1  1
  3  2  1  0
  4  3  1  0
  5  4  2  0
  6  5  1  0
  7  8  1  0
  7  6  2  0
  8  9  2  0
  9  4  1  0
 10 11  2  0
 13 12  1  0
 14 13  1  6
 15 14  1  0
 15 10  1  0
 16 17  2  0
 16 14  1  0
 18 16  1  0
 19 18  1  0
 20 21  1  0
 19 20  1  6
 22 21  1  0
 23 22  2  0
 24 19  1  0
 24 27  1  0
 25 24  2  0
 26 22  1  0
M  END
$$$$
