FSE.pdb
     RDKit          3D

 27 27  0  0  1  0  0  0  0  0999 V2000
    6.3611  -16.8929   25.6042 N   0  0  0  0  0  0  0  0  0  0  0  0
    7.3477  -15.9641   25.0989 C   0  0  1  0  0  0  0  0  0  0  0  0
    7.8990  -15.1865   26.2538 C   0  0  0  0  0  0  0  0  0  0  0  0
    7.2321  -13.8632   26.3085 C   0  0  0  0  0  0  0  0  0  0  0  0
    5.8846  -13.7116   26.0407 C   0  0  0  0  0  0  0  0  0  0  0  0
    5.2671  -12.4671   26.0975 C   0  0  0  0  0  0  0  0  0  0  0  0
    5.9878  -11.3538   26.4230 C   0  0  0  0  0  0  0  0  0  0  0  0
    7.3439  -11.5200   26.6905 C   0  0  0  0  0  0  0  0  0  0  0  0
    7.9635  -12.7355   26.6386 C   0  0  0  0  0  0  0  0  0  0  0  0
    8.4250  -16.6630   24.3268 C   0  0  0  0  0  0  0  0  0  0  0  0
    8.8908  -17.7603   24.7236 O   0  0  0  0  0  0  0  0  0  0  0  0
   10.4345  -14.7572   20.9244 O   0  0  0  0  0  0  0  0  0  0  0  0
   10.2591  -16.1186   21.0324 C   0  0  0  0  0  0  0  0  0  0  0  0
   10.1348  -16.5986   22.4429 C   0  0  2  0  0  0  0  0  0  0  0  0
    8.9680  -16.1257   23.1196 N   0  0  0  0  0  0  0  0  0  0  0  0
   11.3975  -16.3791   23.1972 C   0  0  0  0  0  0  0  0  0  0  0  0
   11.5404  -15.3548   23.8919 O   0  0  0  0  0  0  0  0  0  0  0  0
   12.4534  -17.3179   23.1435 N   0  0  0  0  0  0  0  0  0  0  0  0
   13.6932  -17.1900   23.9219 C   0  0  1  0  0  0  0  0  0  0  0  0
   14.1169  -18.5652   24.2576 C   0  0  0  0  0  0  0  0  0  0  0  0
   14.6932  -18.8581   25.5802 C   0  0  0  0  0  0  0  0  0  0  0  0
   13.8078  -19.4337   26.5929 C   0  0  0  0  0  0  0  0  0  0  0  0
   13.8515  -19.0567   27.7923 O   0  0  0  0  0  0  0  0  0  0  0  0
   14.6179  -16.3469   23.2196 C   0  0  0  0  0  0  0  0  0  0  0  0
   14.5595  -16.2557   21.9465 O   0  0  0  0  0  0  0  0  0  0  0  0
   12.8922  -20.4174   26.2464 O   0  0  0  0  0  0  0  0  0  0  0  0
   15.6154  -15.5764   23.8340 O   0  0  0  0  0  0  0  0  0  0  0  0
  2 10  1  0
  2  1  1  1
  3  2  1  0
  4  3  1  0
  5  4  2  0
  6  5  1  0
  7  8  1  0
  7  6  2  0
  8  9  2  0
  9  4  1  0
 10 11  2  0
 13 12  1  0
 14 13  1  6
 15 14  1  0
 15 10  1  0
 16 17  2  0
 16 14  1  0
 18 16  1  0
 19 18  1  0
 20 21  1  0
 19 20  1  6
 22 21  1  0
 23 22  2  0
 24 19  1  0
 24 27  1  0
 25 24  2  0
 26 22  1  0
M  END
$$$$
