FSE.pdb
     RDKit          3D

 27 27  0  0  1  0  0  0  0  0999 V2000
    5.9455  -17.1870   25.5459 N   0  0  0  0  0  0  0  0  0  0  0  0
    6.8193  -16.1311   25.0845 C   0  0  1  0  0  0  0  0  0  0  0  0
    7.2662  -15.3356   26.2719 C   0  0  0  0  0  0  0  0  0  0  0  0
    6.8055  -13.9347   26.1169 C   0  0  0  0  0  0  0  0  0  0  0  0
    7.5687  -12.9809   25.4702 C   0  0  0  0  0  0  0  0  0  0  0  0
    7.1270  -11.6703   25.3271 C   0  0  0  0  0  0  0  0  0  0  0  0
    5.9145  -11.2924   25.8288 C   0  0  0  0  0  0  0  0  0  0  0  0
    5.1555  -12.2624   26.4779 C   0  0  0  0  0  0  0  0  0  0  0  0
    5.5763  -13.5529   26.6259 C   0  0  0  0  0  0  0  0  0  0  0  0
    7.9773  -16.6703   24.3014 C   0  0  0  0  0  0  0  0  0  0  0  0
    8.6557  -17.6333   24.7386 O   0  0  0  0  0  0  0  0  0  0  0  0
    9.5395  -14.4983   20.9390 O   0  0  0  0  0  0  0  0  0  0  0  0
    9.5884  -15.8742   20.9268 C   0  0  0  0  0  0  0  0  0  0  0  0
    9.5231  -16.4901   22.2877 C   0  0  2  0  0  0  0  0  0  0  0  0
    8.3624  -16.1257   23.0381 N   0  0  0  0  0  0  0  0  0  0  0  0
   10.8002  -16.2981   23.0249 C   0  0  0  0  0  0  0  0  0  0  0  0
   10.9365  -15.3299   23.7971 O   0  0  0  0  0  0  0  0  0  0  0  0
   11.8775  -17.2002   22.8677 N   0  0  0  0  0  0  0  0  0  0  0  0
   13.1540  -17.0724   23.5843 C   0  0  1  0  0  0  0  0  0  0  0  0
   13.4009  -18.3786   24.2297 C   0  0  0  0  0  0  0  0  0  0  0  0
   14.6288  -18.5950   25.0124 C   0  0  0  0  0  0  0  0  0  0  0  0
   14.8659  -19.9375   25.5437 C   0  0  0  0  0  0  0  0  0  0  0  0
   14.2240  -20.3732   26.5341 O   0  0  0  0  0  0  0  0  0  0  0  0
   14.1549  -16.5537   22.6964 C   0  0  0  0  0  0  0  0  0  0  0  0
   13.9935  -16.6393   21.4319 O   0  0  0  0  0  0  0  0  0  0  0  0
   15.8137  -20.7658   24.9592 O   0  0  0  0  0  0  0  0  0  0  0  0
   15.3388  -15.9280   23.1122 O   0  0  0  0  0  0  0  0  0  0  0  0
  2 10  1  0
  2  1  1  1
  3  2  1  0
  4  3  1  0
  5  4  2  0
  6  5  1  0
  7  8  1  0
  7  6  2  0
  8  9  2  0
  9  4  1  0
 10 11  2  0
 13 12  1  0
 14 13  1  6
 15 14  1  0
 15 10  1  0
 16 17  2  0
 16 14  1  0
 18 16  1  0
 19 18  1  0
 20 21  1  0
 19 20  1  6
 22 21  1  0
 23 22  2  0
 24 19  1  0
 24 27  1  0
 25 24  2  0
 26 22  1  0
M  END
$$$$
