FSE.pdb
     RDKit          3D

 27 27  0  0  1  0  0  0  0  0999 V2000
    7.4623  -15.8429   25.9957 N   0  0  0  0  0  0  0  0  0  0  0  0
    6.9648  -15.6286   24.6548 C   0  0  1  0  0  0  0  0  0  0  0  0
    7.2815  -14.2212   24.2531 C   0  0  0  0  0  0  0  0  0  0  0  0
    6.9743  -13.3141   25.3852 C   0  0  0  0  0  0  0  0  0  0  0  0
    5.7155  -12.7734   25.5685 C   0  0  0  0  0  0  0  0  0  0  0  0
    5.4360  -11.9261   26.6349 C   0  0  0  0  0  0  0  0  0  0  0  0
    6.4113  -11.6058   27.5354 C   0  0  0  0  0  0  0  0  0  0  0  0
    7.6747  -12.1569   27.3395 C   0  0  0  0  0  0  0  0  0  0  0  0
    7.9637  -12.9902   26.2972 C   0  0  0  0  0  0  0  0  0  0  0  0
    7.5237  -16.6279   23.6882 C   0  0  0  0  0  0  0  0  0  0  0  0
    7.3952  -17.8608   23.8929 O   0  0  0  0  0  0  0  0  0  0  0  0
    9.1847  -15.4281   20.0546 O   0  0  0  0  0  0  0  0  0  0  0  0
    9.5803  -16.6667   20.5074 C   0  0  0  0  0  0  0  0  0  0  0  0
    9.3954  -16.8561   21.9790 C   0  0  2  0  0  0  0  0  0  0  0  0
    8.2196  -16.2355   22.5039 N   0  0  0  0  0  0  0  0  0  0  0  0
   10.6373  -16.5172   22.7234 C   0  0  0  0  0  0  0  0  0  0  0  0
   10.8109  -15.3619   23.1561 O   0  0  0  0  0  0  0  0  0  0  0  0
   11.6387  -17.4883   22.9544 N   0  0  0  0  0  0  0  0  0  0  0  0
   12.8917  -17.2075   23.6690 C   0  0  1  0  0  0  0  0  0  0  0  0
   13.0104  -18.2388   24.7206 C   0  0  0  0  0  0  0  0  0  0  0  0
   11.9571  -18.3791   25.7394 C   0  0  0  0  0  0  0  0  0  0  0  0
   12.1238  -19.4271   26.7467 C   0  0  0  0  0  0  0  0  0  0  0  0
   12.5138  -20.5814   26.4332 O   0  0  0  0  0  0  0  0  0  0  0  0
   13.9644  -17.0730   22.7255 C   0  0  0  0  0  0  0  0  0  0  0  0
   13.7796  -17.3819   21.4996 O   0  0  0  0  0  0  0  0  0  0  0  0
   11.8525  -19.1656   28.0823 O   0  0  0  0  0  0  0  0  0  0  0  0
   15.2477  -16.6053   23.0425 O   0  0  0  0  0  0  0  0  0  0  0  0
  2 10  1  0
  2  1  1  1
  3  2  1  0
  4  3  1  0
  5  4  2  0
  6  5  1  0
  7  8  1  0
  7  6  2  0
  8  9  2  0
  9  4  1  0
 10 11  2  0
 13 12  1  0
 14 13  1  6
 15 14  1  0
 15 10  1  0
 16 17  2  0
 16 14  1  0
 18 16  1  0
 19 18  1  0
 20 21  1  0
 19 20  1  1
 22 21  1  0
 23 22  2  0
 24 19  1  0
 24 27  1  0
 25 24  2  0
 26 22  1  0
M  END
$$$$
