FSE.pdb
     RDKit          3D

 27 27  0  0  1  0  0  0  0  0999 V2000
    6.9006  -17.8697   19.1516 N   0  0  0  0  0  0  0  0  0  0  0  0
    7.6864  -16.6919   19.4457 C   0  0  1  0  0  0  0  0  0  0  0  0
    7.0048  -15.9309   20.5406 C   0  0  0  0  0  0  0  0  0  0  0  0
    7.3356  -14.4916   20.4079 C   0  0  0  0  0  0  0  0  0  0  0  0
    7.5913  -13.9099   19.1804 C   0  0  0  0  0  0  0  0  0  0  0  0
    7.8978  -12.5585   19.0654 C   0  0  0  0  0  0  0  0  0  0  0  0
    7.9535  -11.7669   20.1768 C   0  0  0  0  0  0  0  0  0  0  0  0
    7.6940  -12.3649   21.4070 C   0  0  0  0  0  0  0  0  0  0  0  0
    7.3918  -13.6902   21.5350 C   0  0  0  0  0  0  0  0  0  0  0  0
    9.0999  -17.0409   19.7999 C   0  0  0  0  0  0  0  0  0  0  0  0
    9.3474  -17.9073   20.6755 O   0  0  0  0  0  0  0  0  0  0  0  0
   12.5616  -14.8489   18.2362 O   0  0  0  0  0  0  0  0  0  0  0  0
   12.5349  -16.2180   18.3801 C   0  0  0  0  0  0  0  0  0  0  0  0
   11.5953  -16.6927   19.4419 C   0  0  2  0  0  0  0  0  0  0  0  0
   10.2196  -16.4164   19.1697 N   0  0  0  0  0  0  0  0  0  0  0  0
   12.0420  -16.2506   20.7896 C   0  0  0  0  0  0  0  0  0  0  0  0
   11.5406  -15.2372   21.3129 O   0  0  0  0  0  0  0  0  0  0  0  0
   13.0354  -16.9628   21.5003 N   0  0  0  0  0  0  0  0  0  0  0  0
   13.5340  -16.5590   22.8223 C   0  0  1  0  0  0  0  0  0  0  0  0
   13.5773  -17.7870   23.6430 C   0  0  0  0  0  0  0  0  0  0  0  0
   14.1259  -17.7436   25.0084 C   0  0  0  0  0  0  0  0  0  0  0  0
   14.2681  -19.0128   25.7223 C   0  0  0  0  0  0  0  0  0  0  0  0
   15.4005  -19.4969   25.9793 O   0  0  0  0  0  0  0  0  0  0  0  0
   14.7429  -15.8010   22.6701 C   0  0  0  0  0  0  0  0  0  0  0  0
   15.3890  -15.8430   21.5687 O   0  0  0  0  0  0  0  0  0  0  0  0
   13.1445  -19.7152   26.1348 O   0  0  0  0  0  0  0  0  0  0  0  0
   15.2951  -14.9780   23.6620 O   0  0  0  0  0  0  0  0  0  0  0  0
  2 10  1  0
  2  1  1  1
  3  2  1  0
  4  3  1  0
  5  4  2  0
  6  5  1  0
  7  8  1  0
  7  6  2  0
  8  9  2  0
  9  4  1  0
 10 11  2  0
 13 12  1  0
 14 13  1  6
 15 14  1  0
 15 10  1  0
 16 17  2  0
 16 14  1  0
 18 16  1  0
 19 18  1  0
 20 21  1  0
 19 20  1  1
 22 21  1  0
 23 22  2  0
 24 19  1  0
 24 27  1  0
 25 24  2  0
 26 22  1  0
M  END
$$$$
