FSE.pdb
     RDKit          3D

 27 27  0  0  1  0  0  0  0  0999 V2000
    5.5995  -17.8390   24.6447 N   0  0  0  0  0  0  0  0  0  0  0  0
    6.3645  -16.6120   24.6692 C   0  0  1  0  0  0  0  0  0  0  0  0
    6.4043  -16.1087   26.0790 C   0  0  0  0  0  0  0  0  0  0  0  0
    6.8709  -14.7012   26.0772 C   0  0  0  0  0  0  0  0  0  0  0  0
    6.0770  -13.6679   25.6163 C   0  0  0  0  0  0  0  0  0  0  0  0
    6.5221  -12.3506   25.6213 C   0  0  0  0  0  0  0  0  0  0  0  0
    7.7689  -12.0456   26.0873 C   0  0  0  0  0  0  0  0  0  0  0  0
    8.5586  -13.0953   26.5487 C   0  0  0  0  0  0  0  0  0  0  0  0
    8.1349  -14.3933   26.5498 C   0  0  0  0  0  0  0  0  0  0  0  0
    7.7381  -16.8020   24.1016 C   0  0  0  0  0  0  0  0  0  0  0  0
    8.5323  -17.6343   24.6068 O   0  0  0  0  0  0  0  0  0  0  0  0
    9.4782  -14.1797   20.9986 O   0  0  0  0  0  0  0  0  0  0  0  0
    9.6302  -15.5475   21.0425 C   0  0  0  0  0  0  0  0  0  0  0  0
    9.5219  -16.1205   22.4193 C   0  0  2  0  0  0  0  0  0  0  0  0
    8.2066  -16.0587   22.9752 N   0  0  0  0  0  0  0  0  0  0  0  0
   10.5781  -15.5740   23.3120 C   0  0  0  0  0  0  0  0  0  0  0  0
   10.3287  -14.6056   24.0551 O   0  0  0  0  0  0  0  0  0  0  0  0
   11.8758  -16.1349   23.3374 N   0  0  0  0  0  0  0  0  0  0  0  0
   12.7760  -16.0451   24.4954 C   0  0  1  0  0  0  0  0  0  0  0  0
   12.0755  -16.7024   25.6183 C   0  0  0  0  0  0  0  0  0  0  0  0
   12.7531  -16.8700   26.9144 C   0  0  0  0  0  0  0  0  0  0  0  0
   11.9743  -17.4315   28.0186 C   0  0  0  0  0  0  0  0  0  0  0  0
   12.4860  -17.6190   29.1525 O   0  0  0  0  0  0  0  0  0  0  0  0
   14.0778  -16.5269   24.1317 C   0  0  0  0  0  0  0  0  0  0  0  0
   15.1119  -15.8151   24.3691 O   0  0  0  0  0  0  0  0  0  0  0  0
   10.6415  -17.7716   27.8349 O   0  0  0  0  0  0  0  0  0  0  0  0
   14.3252  -17.7648   23.5213 O   0  0  0  0  0  0  0  0  0  0  0  0
  2 10  1  0
  2  1  1  1
  3  2  1  0
  4  3  1  0
  5  4  2  0
  6  5  1  0
  7  8  1  0
  7  6  2  0
  8  9  2  0
  9  4  1  0
 10 11  2  0
 13 12  1  0
 14 13  1  6
 15 14  1  0
 15 10  1  0
 16 17  2  0
 16 14  1  0
 18 16  1  0
 19 18  1  0
 20 21  1  0
 19 20  1  1
 22 21  1  0
 23 22  2  0
 24 19  1  0
 24 27  1  0
 25 24  2  0
 26 22  1  0
M  END
$$$$
