FSE.pdb
     RDKit          3D

 27 27  0  0  1  0  0  0  0  0999 V2000
    5.9518  -17.1156   25.6954 N   0  0  0  0  0  0  0  0  0  0  0  0
    6.6531  -16.0308   25.0453 C   0  0  1  0  0  0  0  0  0  0  0  0
    7.3425  -15.2172   26.0966 C   0  0  0  0  0  0  0  0  0  0  0  0
    6.7439  -13.8609   26.1286 C   0  0  0  0  0  0  0  0  0  0  0  0
    7.4136  -12.7541   25.6419 C   0  0  0  0  0  0  0  0  0  0  0  0
    6.8430  -11.4865   25.6734 C   0  0  0  0  0  0  0  0  0  0  0  0
    5.5930  -11.3055   26.1925 C   0  0  0  0  0  0  0  0  0  0  0  0
    4.9292  -12.4282   26.6794 C   0  0  0  0  0  0  0  0  0  0  0  0
    5.4769  -13.6787   26.6550 C   0  0  0  0  0  0  0  0  0  0  0  0
    7.6090  -16.5309   24.0055 C   0  0  0  0  0  0  0  0  0  0  0  0
    8.3145  -17.5486   24.2180 O   0  0  0  0  0  0  0  0  0  0  0  0
    8.5755  -14.1150   20.4738 O   0  0  0  0  0  0  0  0  0  0  0  0
    8.6146  -15.4913   20.4720 C   0  0  0  0  0  0  0  0  0  0  0  0
    8.8424  -16.0880   21.8239 C   0  0  2  0  0  0  0  0  0  0  0  0
    7.7639  -15.8864   22.7400 N   0  0  0  0  0  0  0  0  0  0  0  0
   10.1715  -15.6981   22.3650 C   0  0  0  0  0  0  0  0  0  0  0  0
   10.2588  -14.7903   23.2138 O   0  0  0  0  0  0  0  0  0  0  0  0
   11.3539  -16.3417   21.9328 N   0  0  0  0  0  0  0  0  0  0  0  0
   12.6748  -16.0979   22.5288 C   0  0  1  0  0  0  0  0  0  0  0  0
   12.6099  -16.6185   23.9102 C   0  0  0  0  0  0  0  0  0  0  0  0
   12.6242  -18.0703   24.1534 C   0  0  0  0  0  0  0  0  0  0  0  0
   12.4398  -18.5285   25.5307 C   0  0  0  0  0  0  0  0  0  0  0  0
   12.0812  -19.7069   25.7868 O   0  0  0  0  0  0  0  0  0  0  0  0
   13.6968  -16.6057   21.6589 C   0  0  0  0  0  0  0  0  0  0  0  0
   13.3764  -17.2829   20.6239 O   0  0  0  0  0  0  0  0  0  0  0  0
   12.6595  -17.6631   26.5931 O   0  0  0  0  0  0  0  0  0  0  0  0
   15.0720  -16.4086   21.8485 O   0  0  0  0  0  0  0  0  0  0  0  0
  2 10  1  0
  2  1  1  1
  3  2  1  0
  4  3  1  0
  5  4  2  0
  6  5  1  0
  7  8  1  0
  7  6  2  0
  8  9  2  0
  9  4  1  0
 10 11  2  0
 13 12  1  0
 14 13  1  6
 15 14  1  0
 15 10  1  0
 16 17  2  0
 16 14  1  0
 18 16  1  0
 19 18  1  0
 20 21  1  0
 19 20  1  1
 22 21  1  0
 23 22  2  0
 24 19  1  0
 24 27  1  0
 25 24  2  0
 26 22  1  0
M  END
$$$$
