FSE.pdb
     RDKit          3D

 27 27  0  0  1  0  0  0  0  0999 V2000
    5.9934  -16.2354   25.3313 N   0  0  0  0  0  0  0  0  0  0  0  0
    6.4420  -16.0159   23.9741 C   0  0  1  0  0  0  0  0  0  0  0  0
    6.2602  -14.5663   23.6455 C   0  0  0  0  0  0  0  0  0  0  0  0
    6.5733  -13.7550   24.8465 C   0  0  0  0  0  0  0  0  0  0  0  0
    7.8542  -13.3110   25.1158 C   0  0  0  0  0  0  0  0  0  0  0  0
    8.1378  -12.5481   26.2432 C   0  0  0  0  0  0  0  0  0  0  0  0
    7.1444  -12.2169   27.1196 C   0  0  0  0  0  0  0  0  0  0  0  0
    5.8587  -12.6702   26.8370 C   0  0  0  0  0  0  0  0  0  0  0  0
    5.5656  -13.4199   25.7342 C   0  0  0  0  0  0  0  0  0  0  0  0
    7.8586  -16.4630   23.7777 C   0  0  0  0  0  0  0  0  0  0  0  0
    8.5418  -16.8767   24.7476 O   0  0  0  0  0  0  0  0  0  0  0  0
   10.3923  -15.3755   20.4900 O   0  0  0  0  0  0  0  0  0  0  0  0
   10.2400  -16.7096   20.7946 C   0  0  0  0  0  0  0  0  0  0  0  0
    9.7927  -16.9581   22.1996 C   0  0  2  0  0  0  0  0  0  0  0  0
    8.4936  -16.4422   22.4982 N   0  0  0  0  0  0  0  0  0  0  0  0
   10.8393  -16.5528   23.1751 C   0  0  0  0  0  0  0  0  0  0  0  0
   10.9962  -15.3500   23.4596 O   0  0  0  0  0  0  0  0  0  0  0  0
   11.6716  -17.5130   23.7952 N   0  0  0  0  0  0  0  0  0  0  0  0
   12.6702  -17.1802   24.8204 C   0  0  1  0  0  0  0  0  0  0  0  0
   12.2574  -17.8904   26.0487 C   0  0  0  0  0  0  0  0  0  0  0  0
   13.1229  -17.8704   27.2394 C   0  0  0  0  0  0  0  0  0  0  0  0
   12.6715  -18.6107   28.4179 C   0  0  0  0  0  0  0  0  0  0  0  0
   11.5525  -19.1854   28.4419 O   0  0  0  0  0  0  0  0  0  0  0  0
   13.9877  -17.4226   24.3060 C   0  0  0  0  0  0  0  0  0  0  0  0
   14.9809  -16.7544   24.7525 O   0  0  0  0  0  0  0  0  0  0  0  0
   13.4775  -18.6948   29.5444 O   0  0  0  0  0  0  0  0  0  0  0  0
   14.2941  -18.3733   23.3220 O   0  0  0  0  0  0  0  0  0  0  0  0
  2 10  1  0
  2  1  1  1
  3  2  1  0
  4  3  1  0
  5  4  2  0
  6  5  1  0
  7  8  1  0
  7  6  2  0
  8  9  2  0
  9  4  1  0
 10 11  2  0
 13 12  1  0
 14 13  1  6
 15 14  1  0
 15 10  1  0
 16 17  2  0
 16 14  1  0
 18 16  1  0
 19 18  1  0
 20 21  1  0
 19 20  1  1
 22 21  1  0
 23 22  2  0
 24 19  1  0
 24 27  1  0
 25 24  2  0
 26 22  1  0
M  END
$$$$
