FSE.pdb
     RDKit          3D

 27 27  0  0  1  0  0  0  0  0999 V2000
    6.4068  -16.1293   25.8021 N   0  0  0  0  0  0  0  0  0  0  0  0
    6.8897  -15.3417   24.6895 C   0  0  1  0  0  0  0  0  0  0  0  0
    7.7982  -14.2777   25.2235 C   0  0  0  0  0  0  0  0  0  0  0  0
    6.9969  -13.3042   26.0039 C   0  0  0  0  0  0  0  0  0  0  0  0
    7.5156  -12.6424   27.1008 C   0  0  0  0  0  0  0  0  0  0  0  0
    6.7574  -11.7289   27.8248 C   0  0  0  0  0  0  0  0  0  0  0  0
    5.4679  -11.4626   27.4632 C   0  0  0  0  0  0  0  0  0  0  0  0
    4.9573  -12.1358   26.3566 C   0  0  0  0  0  0  0  0  0  0  0  0
    5.6898  -13.0352   25.6364 C   0  0  0  0  0  0  0  0  0  0  0  0
    7.5663  -16.1925   23.6583 C   0  0  0  0  0  0  0  0  0  0  0  0
    8.0982  -17.2855   23.9760 O   0  0  0  0  0  0  0  0  0  0  0  0
    8.1878  -14.2560   19.9853 O   0  0  0  0  0  0  0  0  0  0  0  0
    8.5074  -15.5952   19.9982 C   0  0  0  0  0  0  0  0  0  0  0  0
    8.6839  -16.1579   21.3722 C   0  0  2  0  0  0  0  0  0  0  0  0
    7.6394  -15.8102   22.2838 N   0  0  0  0  0  0  0  0  0  0  0  0
   10.0504  -15.8855   21.8916 C   0  0  0  0  0  0  0  0  0  0  0  0
   10.2095  -15.1171   22.8593 O   0  0  0  0  0  0  0  0  0  0  0  0
   11.1883  -16.4859   21.3051 N   0  0  0  0  0  0  0  0  0  0  0  0
   12.4617  -16.6755   22.0135 C   0  0  1  0  0  0  0  0  0  0  0  0
   12.1433  -17.4232   23.2476 C   0  0  0  0  0  0  0  0  0  0  0  0
   13.2253  -17.8679   24.1413 C   0  0  0  0  0  0  0  0  0  0  0  0
   12.8509  -18.6374   25.3281 C   0  0  0  0  0  0  0  0  0  0  0  0
   11.6455  -18.8594   25.6118 O   0  0  0  0  0  0  0  0  0  0  0  0
   13.4344  -17.2294   21.1156 C   0  0  0  0  0  0  0  0  0  0  0  0
   13.1305  -18.2311   20.3832 O   0  0  0  0  0  0  0  0  0  0  0  0
   13.8285  -19.1434   26.1730 O   0  0  0  0  0  0  0  0  0  0  0  0
   14.7400  -16.7424   20.9595 O   0  0  0  0  0  0  0  0  0  0  0  0
  2 10  1  0
  2  1  1  1
  3  2  1  0
  4  3  1  0
  5  4  2  0
  6  5  1  0
  7  8  1  0
  7  6  2  0
  8  9  2  0
  9  4  1  0
 10 11  2  0
 13 12  1  0
 14 13  1  6
 15 14  1  0
 15 10  1  0
 16 17  2  0
 16 14  1  0
 18 16  1  0
 19 18  1  0
 20 21  1  0
 19 20  1  1
 22 21  1  0
 23 22  2  0
 24 19  1  0
 24 27  1  0
 25 24  2  0
 26 22  1  0
M  END
$$$$
