FSE.pdb
     RDKit          3D

 27 27  0  0  1  0  0  0  0  0999 V2000
    6.1187  -17.2794   25.8726 N   0  0  0  0  0  0  0  0  0  0  0  0
    6.7895  -16.1913   25.1964 C   0  0  1  0  0  0  0  0  0  0  0  0
    7.6100  -15.4445   26.2023 C   0  0  0  0  0  0  0  0  0  0  0  0
    7.0735  -14.0689   26.3389 C   0  0  0  0  0  0  0  0  0  0  0  0
    5.7258  -13.8243   26.5240 C   0  0  0  0  0  0  0  0  0  0  0  0
    5.2324  -12.5309   26.6541 C   0  0  0  0  0  0  0  0  0  0  0  0
    6.0792  -11.4610   26.6009 C   0  0  0  0  0  0  0  0  0  0  0  0
    7.4342  -11.7208   26.4140 C   0  0  0  0  0  0  0  0  0  0  0  0
    7.9329  -12.9852   26.2848 C   0  0  0  0  0  0  0  0  0  0  0  0
    7.6174  -16.6777   24.0461 C   0  0  0  0  0  0  0  0  0  0  0  0
    8.3056  -17.7240   24.1472 O   0  0  0  0  0  0  0  0  0  0  0  0
    8.3732  -13.9966   20.6558 O   0  0  0  0  0  0  0  0  0  0  0  0
    8.4280  -15.3680   20.5472 C   0  0  0  0  0  0  0  0  0  0  0  0
    8.7234  -16.0619   21.8383 C   0  0  2  0  0  0  0  0  0  0  0  0
    7.6650  -15.9877   22.7961 N   0  0  0  0  0  0  0  0  0  0  0  0
   10.0492  -15.6546   22.3748 C   0  0  0  0  0  0  0  0  0  0  0  0
   10.1281  -14.7422   23.2194 O   0  0  0  0  0  0  0  0  0  0  0  0
   11.2379  -16.2869   21.9428 N   0  0  0  0  0  0  0  0  0  0  0  0
   12.4482  -16.3908   22.7696 C   0  0  1  0  0  0  0  0  0  0  0  0
   12.0860  -17.2261   23.9335 C   0  0  0  0  0  0  0  0  0  0  0  0
   13.1249  -17.6632   24.8804 C   0  0  0  0  0  0  0  0  0  0  0  0
   12.6979  -18.4432   26.0424 C   0  0  0  0  0  0  0  0  0  0  0  0
   12.4039  -17.8878   27.1323 O   0  0  0  0  0  0  0  0  0  0  0  0
   13.5542  -16.8048   21.9544 C   0  0  0  0  0  0  0  0  0  0  0  0
   14.7168  -16.3162   22.1589 O   0  0  0  0  0  0  0  0  0  0  0  0
   12.6075  -19.8258   25.9642 O   0  0  0  0  0  0  0  0  0  0  0  0
   13.4686  -17.7432   20.9160 O   0  0  0  0  0  0  0  0  0  0  0  0
  2 10  1  0
  2  1  1  1
  3  2  1  0
  4  3  1  0
  5  4  2  0
  6  5  1  0
  7  8  1  0
  7  6  2  0
  8  9  2  0
  9  4  1  0
 10 11  2  0
 13 12  1  0
 14 13  1  6
 15 14  1  0
 15 10  1  0
 16 17  2  0
 16 14  1  0
 18 16  1  0
 19 18  1  0
 20 21  1  0
 19 20  1  1
 22 21  1  0
 23 22  2  0
 24 19  1  0
 24 27  1  0
 25 24  2  0
 26 22  1  0
M  END
$$$$
