FSE.pdb
     RDKit          3D

 27 27  0  0  1  0  0  0  0  0999 V2000
    7.8845  -16.3219   26.0967 N   0  0  0  0  0  0  0  0  0  0  0  0
    6.9304  -16.6627   25.0648 C   0  0  1  0  0  0  0  0  0  0  0  0
    5.7543  -15.7439   25.1873 C   0  0  0  0  0  0  0  0  0  0  0  0
    6.2082  -14.4494   25.7504 C   0  0  0  0  0  0  0  0  0  0  0  0
    6.2731  -14.2269   27.1129 C   0  0  0  0  0  0  0  0  0  0  0  0
    6.7029  -13.0106   27.6318 C   0  0  0  0  0  0  0  0  0  0  0  0
    7.0748  -11.9969   26.7959 C   0  0  0  0  0  0  0  0  0  0  0  0
    7.0048  -12.2337   25.4257 C   0  0  0  0  0  0  0  0  0  0  0  0
    6.5848  -13.4226   24.9020 C   0  0  0  0  0  0  0  0  0  0  0  0
    7.5454  -16.6089   23.6995 C   0  0  0  0  0  0  0  0  0  0  0  0
    7.0263  -17.2267   22.7364 O   0  0  0  0  0  0  0  0  0  0  0  0
    9.2980  -14.5737   21.1162 O   0  0  0  0  0  0  0  0  0  0  0  0
    9.8998  -15.8025   21.2692 C   0  0  0  0  0  0  0  0  0  0  0  0
    9.8553  -16.3235   22.6700 C   0  0  2  0  0  0  0  0  0  0  0  0
    8.7339  -15.8642   23.4281 N   0  0  0  0  0  0  0  0  0  0  0  0
   11.1618  -16.1337   23.3543 C   0  0  0  0  0  0  0  0  0  0  0  0
   11.3231  -15.1803   24.1399 O   0  0  0  0  0  0  0  0  0  0  0  0
   12.2394  -17.0215   23.1312 N   0  0  0  0  0  0  0  0  0  0  0  0
   13.5771  -16.8357   23.7103 C   0  0  1  0  0  0  0  0  0  0  0  0
   13.9975  -18.1582   24.2179 C   0  0  0  0  0  0  0  0  0  0  0  0
   13.2919  -18.7709   25.3553 C   0  0  0  0  0  0  0  0  0  0  0  0
   13.7685  -20.0711   25.8278 C   0  0  0  0  0  0  0  0  0  0  0  0
   13.2356  -20.6465   26.8115 O   0  0  0  0  0  0  0  0  0  0  0  0
   14.4245  -16.1715   22.7617 C   0  0  0  0  0  0  0  0  0  0  0  0
   14.1049  -16.1499   21.5249 O   0  0  0  0  0  0  0  0  0  0  0  0
   14.8291  -20.7021   25.1931 O   0  0  0  0  0  0  0  0  0  0  0  0
   15.6170  -15.5101   23.0879 O   0  0  0  0  0  0  0  0  0  0  0  0
  2 10  1  0
  2  1  1  1
  3  2  1  0
  4  3  1  0
  5  4  2  0
  6  5  1  0
  7  8  1  0
  7  6  2  0
  8  9  2  0
  9  4  1  0
 10 11  2  0
 13 12  1  0
 14 13  1  6
 15 14  1  0
 15 10  1  0
 16 17  2  0
 16 14  1  0
 18 16  1  0
 19 18  1  0
 20 21  1  0
 19 20  1  6
 22 21  1  0
 23 22  2  0
 24 19  1  0
 24 27  1  0
 25 24  2  0
 26 22  1  0
M  END
$$$$
