QIM.pdb
     RDKit          3D

 26 25  0  0  1  0  0  0  0  0999 V2000
    6.4056  -19.7744   25.5159 N   0  0  0  0  0  0  0  0  0  0  0  0
    6.2258  -20.8129   24.5475 C   0  0  0  0  0  0  0  0  0  0  0  0
    5.4733  -21.7611   24.8654 O   0  0  0  0  0  0  0  0  0  0  0  0
    6.9233  -20.7327   23.2250 C   0  0  0  0  0  0  0  0  0  0  0  0
    7.7443  -19.4618   23.1888 C   0  0  0  0  0  0  0  0  0  0  0  0
    7.0100  -18.3487   22.4781 C   0  0  2  0  0  0  0  0  0  0  0  0
    6.9873  -18.6050   21.0549 N   0  0  0  0  0  0  0  0  0  0  0  0
    7.6532  -17.0304   22.7032 C   0  0  0  0  0  0  0  0  0  0  0  0
    8.5375  -16.6446   21.8673 O   0  0  0  0  0  0  0  0  0  0  0  0
    6.5629  -12.0898   26.2013 C   0  0  0  0  0  0  0  0  0  0  0  0
    7.4168  -12.7327   25.1458 C   0  0  0  0  0  0  0  0  0  0  0  0
    7.0336  -14.1022   24.7687 C   0  0  2  0  0  0  0  0  0  0  0  0
    6.7531  -14.8667   26.0714 C   0  0  0  0  0  0  0  0  0  0  0  0
    7.9960  -14.9304   23.9937 C   0  0  2  0  0  0  0  0  0  0  0  0
    7.3030  -16.2245   23.8038 N   0  0  0  0  0  0  0  0  0  0  0  0
    9.2521  -15.1953   24.7600 C   0  0  0  0  0  0  0  0  0  0  0  0
   10.0743  -14.2247   24.9287 O   0  0  0  0  0  0  0  0  0  0  0  0
   10.2136  -13.0739   29.3681 C   0  0  0  0  0  0  0  0  0  0  0  0
   11.0202  -14.5767   29.9615 S   0  0  0  0  0  0  0  0  0  0  0  0
   11.3329  -15.7324   28.6203 C   0  0  0  0  0  0  0  0  0  0  0  0
   10.3413  -15.5444   27.4765 C   0  0  0  0  0  0  0  0  0  0  0  0
   10.6340  -16.5095   26.3480 C   0  0  2  0  0  0  0  0  0  0  0  0
    9.6042  -16.4393   25.3183 N   0  0  0  0  0  0  0  0  0  0  0  0
   10.7347  -17.8917   26.8267 C   0  0  0  0  0  0  0  0  0  0  0  0
    9.8110  -18.7174   26.5964 O   0  0  0  0  0  0  0  0  0  0  0  0
   11.8291  -18.3506   27.5422 O   0  0  0  0  0  0  0  0  0  0  0  0
  2  1  1  0
  3  2  2  0
  4  2  1  0
  5  4  1  0
  6  5  1  0
  6  7  1  6
  8  6  1  0
  9  8  2  0
 11 10  1  0
 12 14  1  0
 12 11  1  0
 12 13  1  1
 14 15  1  1
 15  8  1  0
 16 17  2  0
 16 14  1  0
 18 19  1  0
 20 19  1  0
 20 21  1  0
 22 21  1  1
 22 23  1  0
 23 16  1  0
 24 22  1  0
 25 24  2  0
 26 24  1  0
M  END
$$$$
