QIM.pdb
     RDKit          3D

 26 25  0  0  1  0  0  0  0  0999 V2000
    8.7130  -17.1479   17.3799 N   0  0  0  0  0  0  0  0  0  0  0  0
    7.3141  -17.2749   17.6545 C   0  0  0  0  0  0  0  0  0  0  0  0
    6.5613  -17.4904   16.6780 O   0  0  0  0  0  0  0  0  0  0  0  0
    6.8122  -17.1495   19.0596 C   0  0  0  0  0  0  0  0  0  0  0  0
    7.9420  -16.6474   19.9325 C   0  0  0  0  0  0  0  0  0  0  0  0
    7.7529  -17.0594   21.3739 C   0  0  2  0  0  0  0  0  0  0  0  0
    6.3522  -16.9863   21.7264 N   0  0  0  0  0  0  0  0  0  0  0  0
    8.5126  -16.1860   22.3026 C   0  0  0  0  0  0  0  0  0  0  0  0
    9.6417  -15.7356   21.9128 O   0  0  0  0  0  0  0  0  0  0  0  0
    6.2148  -12.3100   25.1553 C   0  0  0  0  0  0  0  0  0  0  0  0
    7.2016  -13.1516   24.3975 C   0  0  0  0  0  0  0  0  0  0  0  0
    7.9155  -14.1619   25.1939 C   0  0  2  0  0  0  0  0  0  0  0  0
    8.7375  -13.4059   26.2488 C   0  0  0  0  0  0  0  0  0  0  0  0
    8.8593  -15.0838   24.5066 C   0  0  2  0  0  0  0  0  0  0  0  0
    8.0087  -15.8600   23.5765 N   0  0  0  0  0  0  0  0  0  0  0  0
    9.4927  -16.0488   25.4567 C   0  0  0  0  0  0  0  0  0  0  0  0
    8.7258  -16.7363   26.2220 O   0  0  0  0  0  0  0  0  0  0  0  0
    9.9948  -13.0748   28.9652 C   0  0  0  0  0  0  0  0  0  0  0  0
   10.7577  -14.5131   29.7465 S   0  0  0  0  0  0  0  0  0  0  0  0
   11.6902  -15.4918   28.5613 C   0  0  0  0  0  0  0  0  0  0  0  0
   10.8528  -16.6352   27.9971 C   0  0  0  0  0  0  0  0  0  0  0  0
   11.3967  -17.0903   26.6601 C   0  0  2  0  0  0  0  0  0  0  0  0
   10.8792  -16.2648   25.5755 N   0  0  0  0  0  0  0  0  0  0  0  0
   11.0685  -18.4933   26.3884 C   0  0  0  0  0  0  0  0  0  0  0  0
   11.4919  -19.4075   27.1453 O   0  0  0  0  0  0  0  0  0  0  0  0
   10.2915  -18.8769   25.3071 O   0  0  0  0  0  0  0  0  0  0  0  0
  2  1  1  0
  3  2  2  0
  4  2  1  0
  5  4  1  0
  6  5  1  0
  6  7  1  1
  8  6  1  0
  9  8  2  0
 11 10  1  0
 12 14  1  0
 12 11  1  0
 12 13  1  1
 14 15  1  6
 15  8  1  0
 16 17  2  0
 16 14  1  0
 18 19  1  0
 20 19  1  0
 20 21  1  0
 22 21  1  1
 22 23  1  0
 23 16  1  0
 24 22  1  0
 25 24  2  0
 26 24  1  0
M  END
$$$$
