QIM.pdb
     RDKit          3D

 26 25  0  0  1  0  0  0  0  0999 V2000
    7.6005  -22.5066   22.0442 N   0  0  0  0  0  0  0  0  0  0  0  0
    8.6200  -21.5065   21.9484 C   0  0  0  0  0  0  0  0  0  0  0  0
    9.2498  -21.2362   22.9957 O   0  0  0  0  0  0  0  0  0  0  0  0
    8.8911  -20.8366   20.6371 C   0  0  0  0  0  0  0  0  0  0  0  0
    7.7938  -19.8279   20.3745 C   0  0  0  0  0  0  0  0  0  0  0  0
    8.2302  -18.7832   19.3738 C   0  0  2  0  0  0  0  0  0  0  0  0
    9.2283  -19.3389   18.4868 N   0  0  0  0  0  0  0  0  0  0  0  0
    8.8106  -17.5899   20.0381 C   0  0  0  0  0  0  0  0  0  0  0  0
   10.0814  -17.5171   20.1356 O   0  0  0  0  0  0  0  0  0  0  0  0
    7.9391  -12.2534   18.8885 C   0  0  0  0  0  0  0  0  0  0  0  0
    8.7226  -13.3268   19.5887 C   0  0  0  0  0  0  0  0  0  0  0  0
    7.9381  -14.2206   20.4548 C   0  0  2  0  0  0  0  0  0  0  0  0
    7.3419  -13.3541   21.5746 C   0  0  0  0  0  0  0  0  0  0  0  0
    8.6245  -15.3583   21.1236 C   0  0  2  0  0  0  0  0  0  0  0  0
    7.9899  -16.5651   20.5475 N   0  0  0  0  0  0  0  0  0  0  0  0
    8.3772  -15.3742   22.5980 C   0  0  0  0  0  0  0  0  0  0  0  0
    7.2776  -15.8818   23.0218 O   0  0  0  0  0  0  0  0  0  0  0  0
    6.8200  -11.2197   28.1903 C   0  0  0  0  0  0  0  0  0  0  0  0
    7.1633  -11.6819   26.4787 S   0  0  0  0  0  0  0  0  0  0  0  0
    6.9531  -13.4480   26.2164 C   0  0  0  0  0  0  0  0  0  0  0  0
    7.4232  -13.8676   24.8272 C   0  0  0  0  0  0  0  0  0  0  0  0
    8.7801  -14.5343   24.8981 C   0  0  2  0  0  0  0  0  0  0  0  0
    9.2680  -14.8724   23.5664 N   0  0  0  0  0  0  0  0  0  0  0  0
    8.7463  -15.7511   25.7155 C   0  0  0  0  0  0  0  0  0  0  0  0
    8.7381  -16.8875   25.1711 O   0  0  0  0  0  0  0  0  0  0  0  0
    8.7222  -15.7133   27.1005 O   0  0  0  0  0  0  0  0  0  0  0  0
  2  1  1  0
  3  2  2  0
  4  2  1  0
  5  4  1  0
  6  5  1  0
  6  7  1  6
  8  6  1  0
  9  8  2  0
 11 10  1  0
 12 14  1  0
 12 11  1  0
 12 13  1  1
 14 15  1  6
 15  8  1  0
 16 17  2  0
 16 14  1  0
 18 19  1  0
 20 19  1  0
 20 21  1  0
 22 21  1  6
 22 23  1  0
 23 16  1  0
 24 22  1  0
 25 24  2  0
 26 24  1  0
M  END
$$$$
