QIM.pdb
     RDKit          3D

 26 25  0  0  1  0  0  0  0  0999 V2000
    5.7862  -19.6267   22.9072 N   0  0  0  0  0  0  0  0  0  0  0  0
    6.2254  -19.5744   21.5459 C   0  0  0  0  0  0  0  0  0  0  0  0
    5.8823  -20.5208   20.8022 O   0  0  0  0  0  0  0  0  0  0  0  0
    7.0565  -18.4231   21.0708 C   0  0  0  0  0  0  0  0  0  0  0  0
    7.3790  -17.5391   22.2561 C   0  0  0  0  0  0  0  0  0  0  0  0
    7.6351  -16.1125   21.8291 C   0  0  2  0  0  0  0  0  0  0  0  0
    8.4448  -16.0958   20.6309 N   0  0  0  0  0  0  0  0  0  0  0  0
    8.3430  -15.3397   22.8799 C   0  0  0  0  0  0  0  0  0  0  0  0
    9.6176  -15.4001   22.9119 O   0  0  0  0  0  0  0  0  0  0  0  0
    7.0113  -11.0604   27.1070 C   0  0  0  0  0  0  0  0  0  0  0  0
    7.9526  -12.1371   26.6479 C   0  0  0  0  0  0  0  0  0  0  0  0
    7.4815  -12.9498   25.5156 C   0  0  2  0  0  0  0  0  0  0  0  0
    6.1655  -13.6113   25.9523 C   0  0  0  0  0  0  0  0  0  0  0  0
    8.3517  -14.0421   25.0033 C   0  0  2  0  0  0  0  0  0  0  0  0
    7.6356  -14.5612   23.8164 N   0  0  0  0  0  0  0  0  0  0  0  0
    8.4799  -15.1636   25.9837 C   0  0  0  0  0  0  0  0  0  0  0  0
    7.8346  -16.2479   25.7507 O   0  0  0  0  0  0  0  0  0  0  0  0
   13.7487  -20.1028   26.5133 C   0  0  0  0  0  0  0  0  0  0  0  0
   12.9327  -18.5907   25.9578 S   0  0  0  0  0  0  0  0  0  0  0  0
   11.6143  -18.1015   27.0779 C   0  0  0  0  0  0  0  0  0  0  0  0
   10.8623  -16.8803   26.5582 C   0  0  0  0  0  0  0  0  0  0  0  0
    9.9376  -16.3268   27.6209 C   0  0  2  0  0  0  0  0  0  0  0  0
    9.2638  -15.1215   27.1528 N   0  0  0  0  0  0  0  0  0  0  0  0
   10.6568  -16.0187   28.8609 C   0  0  0  0  0  0  0  0  0  0  0  0
   11.2313  -16.9325   29.5112 O   0  0  0  0  0  0  0  0  0  0  0  0
   10.7394  -14.7325   29.3700 O   0  0  0  0  0  0  0  0  0  0  0  0
  2  1  1  0
  3  2  2  0
  4  2  1  0
  5  4  1  0
  6  5  1  0
  6  7  1  6
  8  6  1  0
  9  8  2  0
 11 10  1  0
 12 14  1  0
 12 11  1  0
 12 13  1  1
 14 15  1  6
 15  8  1  0
 16 17  2  0
 16 14  1  0
 18 19  1  0
 20 19  1  0
 20 21  1  0
 22 21  1  6
 22 23  1  0
 23 16  1  0
 24 22  1  0
 25 24  2  0
 26 24  1  0
M  END
$$$$
