QIM.pdb
     RDKit          3D

 26 25  0  0  1  0  0  0  0  0999 V2000
    8.6709  -22.7360   20.9812 N   0  0  0  0  0  0  0  0  0  0  0  0
    9.8801  -22.0191   20.7119 C   0  0  0  0  0  0  0  0  0  0  0  0
   10.8982  -22.3624   21.3538 O   0  0  0  0  0  0  0  0  0  0  0  0
    9.8866  -20.9146   19.7010 C   0  0  0  0  0  0  0  0  0  0  0  0
    9.5114  -19.6230   20.3949 C   0  0  0  0  0  0  0  0  0  0  0  0
    9.5262  -18.4551   19.4362 C   0  0  2  0  0  0  0  0  0  0  0  0
   10.5831  -18.6300   18.4646 N   0  0  0  0  0  0  0  0  0  0  0  0
    9.7480  -17.1666   20.1383 C   0  0  0  0  0  0  0  0  0  0  0  0
   10.9518  -16.7818   20.3182 O   0  0  0  0  0  0  0  0  0  0  0  0
    7.2911  -12.6376   18.8168 C   0  0  0  0  0  0  0  0  0  0  0  0
    8.2802  -13.6361   19.3467 C   0  0  0  0  0  0  0  0  0  0  0  0
    8.0095  -14.1371   20.7033 C   0  0  2  0  0  0  0  0  0  0  0  0
    7.9952  -12.9188   21.6391 C   0  0  0  0  0  0  0  0  0  0  0  0
    8.9481  -15.1205   21.3071 C   0  0  2  0  0  0  0  0  0  0  0  0
    8.6675  -16.3873   20.5946 N   0  0  0  0  0  0  0  0  0  0  0  0
    8.6691  -15.3438   22.7589 C   0  0  0  0  0  0  0  0  0  0  0  0
    7.5505  -15.8814   23.0845 O   0  0  0  0  0  0  0  0  0  0  0  0
    7.1304  -11.1356   27.9421 C   0  0  0  0  0  0  0  0  0  0  0  0
    6.3368  -12.2038   26.7214 S   0  0  0  0  0  0  0  0  0  0  0  0
    7.2203  -13.7577   26.5294 C   0  0  0  0  0  0  0  0  0  0  0  0
    7.8168  -13.8939   25.1321 C   0  0  0  0  0  0  0  0  0  0  0  0
    9.0311  -14.7969   25.1522 C   0  0  2  0  0  0  0  0  0  0  0  0
    9.5491  -15.0084   23.8058 N   0  0  0  0  0  0  0  0  0  0  0  0
    8.7310  -16.0987   25.7565 C   0  0  0  0  0  0  0  0  0  0  0  0
    8.2719  -16.1697   26.9278 O   0  0  0  0  0  0  0  0  0  0  0  0
    8.9330  -17.2928   25.0830 O   0  0  0  0  0  0  0  0  0  0  0  0
  2  1  1  0
  3  2  2  0
  4  2  1  0
  5  4  1  0
  6  5  1  0
  6  7  1  6
  8  6  1  0
  9  8  2  0
 11 10  1  0
 12 14  1  0
 12 11  1  0
 12 13  1  1
 14 15  1  6
 15  8  1  0
 16 17  2  0
 16 14  1  0
 18 19  1  0
 20 19  1  0
 20 21  1  0
 22 21  1  6
 22 23  1  0
 23 16  1  0
 24 22  1  0
 25 24  2  0
 26 24  1  0
M  END
$$$$
