QIM.pdb
     RDKit          3D

 26 25  0  0  1  0  0  0  0  0999 V2000
    9.1676  -21.2239   23.5062 N   0  0  0  0  0  0  0  0  0  0  0  0
   10.4624  -21.0936   22.9102 C   0  0  0  0  0  0  0  0  0  0  0  0
   11.3806  -21.7967   23.3887 O   0  0  0  0  0  0  0  0  0  0  0  0
   10.6693  -20.1483   21.7676 C   0  0  0  0  0  0  0  0  0  0  0  0
    9.3313  -19.5531   21.3855 C   0  0  0  0  0  0  0  0  0  0  0  0
    9.4575  -18.6219   20.2022 C   0  0  2  0  0  0  0  0  0  0  0  0
   10.5946  -19.0046   19.3946 N   0  0  0  0  0  0  0  0  0  0  0  0
    9.6412  -17.2115   20.6260 C   0  0  0  0  0  0  0  0  0  0  0  0
   10.8336  -16.7833   20.7819 O   0  0  0  0  0  0  0  0  0  0  0  0
    8.1400  -11.9259   19.9576 C   0  0  0  0  0  0  0  0  0  0  0  0
    7.3762  -12.8107   20.9011 C   0  0  0  0  0  0  0  0  0  0  0  0
    7.5243  -14.2566   20.6734 C   0  0  2  0  0  0  0  0  0  0  0  0
    6.3755  -14.9506   21.4210 C   0  0  0  0  0  0  0  0  0  0  0  0
    8.7773  -14.9287   21.1105 C   0  0  2  0  0  0  0  0  0  0  0  0
    8.5376  -16.3660   20.8506 N   0  0  0  0  0  0  0  0  0  0  0  0
    9.0190  -14.7657   22.5769 C   0  0  0  0  0  0  0  0  0  0  0  0
    9.4401  -13.6293   22.9983 O   0  0  0  0  0  0  0  0  0  0  0  0
    6.7576  -11.1669   26.5218 C   0  0  0  0  0  0  0  0  0  0  0  0
    6.0759  -12.8126   26.8186 S   0  0  0  0  0  0  0  0  0  0  0  0
    7.3193  -14.0923   26.5985 C   0  0  0  0  0  0  0  0  0  0  0  0
    7.4869  -14.4634   25.1285 C   0  0  0  0  0  0  0  0  0  0  0  0
    8.6500  -15.4140   24.9438 C   0  0  2  0  0  0  0  0  0  0  0  0
    8.8158  -15.7726   23.5403 N   0  0  0  0  0  0  0  0  0  0  0  0
    8.4815  -16.6393   25.7312 C   0  0  0  0  0  0  0  0  0  0  0  0
    7.5954  -17.4807   25.4235 O   0  0  0  0  0  0  0  0  0  0  0  0
    9.2727  -16.9280   26.8316 O   0  0  0  0  0  0  0  0  0  0  0  0
  2  1  1  0
  3  2  2  0
  4  2  1  0
  5  4  1  0
  6  5  1  0
  6  7  1  1
  8  6  1  0
  9  8  2  0
 11 10  1  0
 12 14  1  0
 12 11  1  0
 12 13  1  1
 14 15  1  1
 15  8  1  0
 16 17  2  0
 16 14  1  0
 18 19  1  0
 20 19  1  0
 20 21  1  0
 22 21  1  6
 22 23  1  0
 23 16  1  0
 24 22  1  0
 25 24  2  0
 26 24  1  0
M  END
$$$$
