QIM.pdb
     RDKit          3D

 26 25  0  0  1  0  0  0  0  0999 V2000
   11.4778  -17.8125   18.2486 N   0  0  0  0  0  0  0  0  0  0  0  0
   10.1710  -18.3569   18.0375 C   0  0  0  0  0  0  0  0  0  0  0  0
   10.0580  -19.2338   17.1516 O   0  0  0  0  0  0  0  0  0  0  0  0
    9.0165  -17.8735   18.8593 C   0  0  0  0  0  0  0  0  0  0  0  0
    9.5116  -16.7971   19.8009 C   0  0  0  0  0  0  0  0  0  0  0  0
    9.3687  -17.2167   21.2454 C   0  0  2  0  0  0  0  0  0  0  0  0
    8.0481  -17.7615   21.4707 N   0  0  0  0  0  0  0  0  0  0  0  0
    9.5664  -16.0764   22.1743 C   0  0  0  0  0  0  0  0  0  0  0  0
   10.6252  -15.3751   22.0453 O   0  0  0  0  0  0  0  0  0  0  0  0
    6.1437  -12.9540   26.1806 C   0  0  0  0  0  0  0  0  0  0  0  0
    7.2889  -12.9292   25.2089 C   0  0  0  0  0  0  0  0  0  0  0  0
    7.4531  -14.1420   24.3924 C   0  0  2  0  0  0  0  0  0  0  0  0
    6.8342  -15.3048   25.1830 C   0  0  0  0  0  0  0  0  0  0  0  0
    8.8255  -14.5738   24.0144 C   0  0  2  0  0  0  0  0  0  0  0  0
    8.6183  -15.7718   23.1701 N   0  0  0  0  0  0  0  0  0  0  0  0
    9.6304  -14.9893   25.2038 C   0  0  0  0  0  0  0  0  0  0  0  0
    9.8651  -14.1135   26.1117 O   0  0  0  0  0  0  0  0  0  0  0  0
   11.5770  -13.4857   30.4453 C   0  0  0  0  0  0  0  0  0  0  0  0
   10.6952  -14.0741   28.9833 S   0  0  0  0  0  0  0  0  0  0  0  0
   10.3914  -15.8442   29.0629 C   0  0  0  0  0  0  0  0  0  0  0  0
    9.6812  -16.3474   27.8101 C   0  0  0  0  0  0  0  0  0  0  0  0
   10.6788  -16.6557   26.7145 C   0  0  2  0  0  0  0  0  0  0  0  0
   10.1536  -16.2808   25.4071 N   0  0  0  0  0  0  0  0  0  0  0  0
   11.0407  -18.0764   26.6923 C   0  0  0  0  0  0  0  0  0  0  0  0
   11.5339  -18.6269   27.7129 O   0  0  0  0  0  0  0  0  0  0  0  0
   10.8620  -18.8695   25.5702 O   0  0  0  0  0  0  0  0  0  0  0  0
  2  1  1  0
  3  2  2  0
  4  2  1  0
  5  4  1  0
  6  5  1  0
  6  7  1  6
  8  6  1  0
  9  8  2  0
 11 10  1  0
 12 14  1  0
 12 11  1  0
 12 13  1  1
 14 15  1  6
 15  8  1  0
 16 17  2  0
 16 14  1  0
 18 19  1  0
 20 19  1  0
 20 21  1  0
 22 21  1  1
 22 23  1  0
 23 16  1  0
 24 22  1  0
 25 24  2  0
 26 24  1  0
M  END
$$$$
