QIM.pdb
     RDKit          3D

 26 25  0  0  1  0  0  0  0  0999 V2000
   10.6620  -19.6649   22.4461 N   0  0  0  0  0  0  0  0  0  0  0  0
   10.1315  -20.0804   21.1834 C   0  0  0  0  0  0  0  0  0  0  0  0
    9.7191  -21.2592   21.1012 O   0  0  0  0  0  0  0  0  0  0  0  0
   10.0889  -19.1191   20.0361 C   0  0  0  0  0  0  0  0  0  0  0  0
   10.6624  -17.7956   20.4940 C   0  0  0  0  0  0  0  0  0  0  0  0
    9.5786  -16.7614   20.6916 C   0  0  2  0  0  0  0  0  0  0  0  0
    9.5529  -15.8547   19.5652 N   0  0  0  0  0  0  0  0  0  0  0  0
    9.7931  -15.9649   21.9253 C   0  0  0  0  0  0  0  0  0  0  0  0
   10.8610  -15.2709   22.0123 O   0  0  0  0  0  0  0  0  0  0  0  0
    6.4224  -13.1270   26.0519 C   0  0  0  0  0  0  0  0  0  0  0  0
    7.7857  -13.6573   25.7104 C   0  0  0  0  0  0  0  0  0  0  0  0
    7.8314  -14.6148   24.5943 C   0  0  2  0  0  0  0  0  0  0  0  0
    6.9256  -15.7955   24.9760 C   0  0  0  0  0  0  0  0  0  0  0  0
    9.1417  -15.1994   24.2018 C   0  0  2  0  0  0  0  0  0  0  0  0
    8.8508  -15.9699   22.9718 N   0  0  0  0  0  0  0  0  0  0  0  0
    9.6582  -16.1572   25.2270 C   0  0  0  0  0  0  0  0  0  0  0  0
    9.6814  -17.4056   24.9317 O   0  0  0  0  0  0  0  0  0  0  0  0
    9.5283  -13.8158   29.5431 C   0  0  0  0  0  0  0  0  0  0  0  0
   11.2431  -13.4331   29.1255 S   0  0  0  0  0  0  0  0  0  0  0  0
   12.0478  -14.8159   28.3056 C   0  0  0  0  0  0  0  0  0  0  0  0
   11.3395  -16.1334   28.6046 C   0  0  0  0  0  0  0  0  0  0  0  0
   10.8251  -16.7678   27.3303 C   0  0  2  0  0  0  0  0  0  0  0  0
   10.1279  -15.7905   26.5030 N   0  0  0  0  0  0  0  0  0  0  0  0
    9.9209  -17.8883   27.6071 C   0  0  0  0  0  0  0  0  0  0  0  0
    8.6788  -17.7659   27.4339 O   0  0  0  0  0  0  0  0  0  0  0  0
   10.3778  -19.1142   28.0640 O   0  0  0  0  0  0  0  0  0  0  0  0
  2  1  1  0
  3  2  2  0
  4  2  1  0
  5  4  1  0
  6  5  1  0
  6  7  1  6
  8  6  1  0
  9  8  2  0
 11 10  1  0
 12 14  1  0
 12 11  1  0
 12 13  1  1
 14 15  1  6
 15  8  1  0
 16 17  2  0
 16 14  1  0
 18 19  1  0
 20 19  1  0
 20 21  1  0
 22 21  1  1
 22 23  1  0
 23 16  1  0
 24 22  1  0
 25 24  2  0
 26 24  1  0
M  END
$$$$
