QIM.pdb
     RDKit          3D

 26 25  0  0  1  0  0  0  0  0999 V2000
    8.7500  -21.8847   16.1935 N   0  0  0  0  0  0  0  0  0  0  0  0
    9.3592  -20.7653   16.8450 C   0  0  0  0  0  0  0  0  0  0  0  0
   10.3746  -20.2758   16.3012 O   0  0  0  0  0  0  0  0  0  0  0  0
    8.7785  -20.2327   18.1182 C   0  0  0  0  0  0  0  0  0  0  0  0
    9.5250  -18.9725   18.4990 C   0  0  0  0  0  0  0  0  0  0  0  0
    9.5104  -18.7508   19.9936 C   0  0  2  0  0  0  0  0  0  0  0  0
    8.1968  -19.0462   20.5216 N   0  0  0  0  0  0  0  0  0  0  0  0
    9.8503  -17.3504   20.3479 C   0  0  0  0  0  0  0  0  0  0  0  0
   11.0254  -16.9320   20.0766 O   0  0  0  0  0  0  0  0  0  0  0  0
    6.9495  -12.1349   20.2331 C   0  0  0  0  0  0  0  0  0  0  0  0
    8.1740  -12.8408   20.7415 C   0  0  0  0  0  0  0  0  0  0  0  0
    8.1520  -14.3076   20.6291 C   0  0  2  0  0  0  0  0  0  0  0  0
    6.8717  -14.7938   21.3254 C   0  0  0  0  0  0  0  0  0  0  0  0
    9.2728  -15.0905   21.2152 C   0  0  2  0  0  0  0  0  0  0  0  0
    8.9094  -16.5034   20.9648 N   0  0  0  0  0  0  0  0  0  0  0  0
    9.3748  -14.9025   22.6949 C   0  0  0  0  0  0  0  0  0  0  0  0
    9.5955  -13.7199   23.1410 O   0  0  0  0  0  0  0  0  0  0  0  0
    6.9297  -10.8663   26.5056 C   0  0  0  0  0  0  0  0  0  0  0  0
    6.4986  -12.6188   26.4414 S   0  0  0  0  0  0  0  0  0  0  0  0
    7.9560  -13.6505   26.2328 C   0  0  0  0  0  0  0  0  0  0  0  0
    7.7492  -14.6980   25.1434 C   0  0  0  0  0  0  0  0  0  0  0  0
    8.9545  -15.6072   25.0369 C   0  0  2  0  0  0  0  0  0  0  0  0
    9.2436  -15.9332   23.6455 N   0  0  0  0  0  0  0  0  0  0  0  0
    8.7647  -16.8523   25.7877 C   0  0  0  0  0  0  0  0  0  0  0  0
    8.0812  -17.7936   25.3033 O   0  0  0  0  0  0  0  0  0  0  0  0
    9.3166  -17.0525   27.0429 O   0  0  0  0  0  0  0  0  0  0  0  0
  2  1  1  0
  3  2  2  0
  4  2  1  0
  5  4  1  0
  6  5  1  0
  6  7  1  6
  8  6  1  0
  9  8  2  0
 11 10  1  0
 12 14  1  0
 12 11  1  0
 12 13  1  1
 14 15  1  1
 15  8  1  0
 16 17  2  0
 16 14  1  0
 18 19  1  0
 20 19  1  0
 20 21  1  0
 22 21  1  6
 22 23  1  0
 23 16  1  0
 24 22  1  0
 25 24  2  0
 26 24  1  0
M  END
$$$$
