QIM.pdb
     RDKit          3D

 26 25  0  0  1  0  0  0  0  0999 V2000
   14.6883  -18.8463   19.7518 N   0  0  0  0  0  0  0  0  0  0  0  0
   13.8234  -19.4864   18.8079 C   0  0  0  0  0  0  0  0  0  0  0  0
   14.2627  -20.5116   18.2401 O   0  0  0  0  0  0  0  0  0  0  0  0
   12.4618  -18.9247   18.5389 C   0  0  0  0  0  0  0  0  0  0  0  0
   12.2748  -17.6854   19.3873 C   0  0  0  0  0  0  0  0  0  0  0  0
   10.9433  -17.6995   20.1016 C   0  0  2  0  0  0  0  0  0  0  0  0
    9.8706  -17.8228   19.1396 N   0  0  0  0  0  0  0  0  0  0  0  0
   10.7242  -16.4592   20.8866 C   0  0  0  0  0  0  0  0  0  0  0  0
   11.7502  -15.8329   21.3162 O   0  0  0  0  0  0  0  0  0  0  0  0
    7.0943  -12.6864   19.5500 C   0  0  0  0  0  0  0  0  0  0  0  0
    8.3108  -13.3676   20.1089 C   0  0  0  0  0  0  0  0  0  0  0  0
    8.1189  -14.0487   21.3987 C   0  0  2  0  0  0  0  0  0  0  0  0
    7.7035  -12.9762   22.4173 C   0  0  0  0  0  0  0  0  0  0  0  0
    9.2643  -14.7811   22.0025 C   0  0  2  0  0  0  0  0  0  0  0  0
    9.4261  -15.9822   21.1526 N   0  0  0  0  0  0  0  0  0  0  0  0
    8.9642  -15.2442   23.3920 C   0  0  0  0  0  0  0  0  0  0  0  0
    7.8917  -15.9212   23.5860 O   0  0  0  0  0  0  0  0  0  0  0  0
    5.6304  -11.6391   26.6124 C   0  0  0  0  0  0  0  0  0  0  0  0
    6.9083  -12.5181   27.5373 S   0  0  0  0  0  0  0  0  0  0  0  0
    8.1910  -13.1545   26.4503 C   0  0  0  0  0  0  0  0  0  0  0  0
    7.9745  -14.6307   26.1329 C   0  0  0  0  0  0  0  0  0  0  0  0
    9.2929  -15.3183   25.8506 C   0  0  2  0  0  0  0  0  0  0  0  0
    9.7773  -14.9940   24.5142 N   0  0  0  0  0  0  0  0  0  0  0  0
    9.1847  -16.7751   25.9769 C   0  0  0  0  0  0  0  0  0  0  0  0
    8.9022  -17.3018   27.0862 O   0  0  0  0  0  0  0  0  0  0  0  0
    9.3836  -17.6290   24.9038 O   0  0  0  0  0  0  0  0  0  0  0  0
  2  1  1  0
  3  2  2  0
  4  2  1  0
  5  4  1  0
  6  5  1  0
  6  7  1  6
  8  6  1  0
  9  8  2  0
 11 10  1  0
 12 14  1  0
 12 11  1  0
 12 13  1  1
 14 15  1  6
 15  8  1  0
 16 17  2  0
 16 14  1  0
 18 19  1  0
 20 19  1  0
 20 21  1  0
 22 21  1  6
 22 23  1  0
 23 16  1  0
 24 22  1  0
 25 24  2  0
 26 24  1  0
M  END
$$$$
