QIM.pdb
     RDKit          3D

 26 25  0  0  1  0  0  0  0  0999 V2000
    5.6355  -23.0866   25.2337 N   0  0  0  0  0  0  0  0  0  0  0  0
    5.5574  -21.6886   25.5304 C   0  0  0  0  0  0  0  0  0  0  0  0
    5.8036  -21.3438   26.7081 O   0  0  0  0  0  0  0  0  0  0  0  0
    5.1944  -20.7136   24.4536 C   0  0  0  0  0  0  0  0  0  0  0  0
    6.2517  -19.6318   24.4056 C   0  0  0  0  0  0  0  0  0  0  0  0
    5.8490  -18.5048   23.4832 C   0  0  2  0  0  0  0  0  0  0  0  0
    5.8039  -18.9793   22.1178 N   0  0  0  0  0  0  0  0  0  0  0  0
    6.8017  -17.3689   23.5499 C   0  0  0  0  0  0  0  0  0  0  0  0
    7.7269  -17.3105   22.6722 O   0  0  0  0  0  0  0  0  0  0  0  0
    5.4274  -12.5183   25.6737 C   0  0  0  0  0  0  0  0  0  0  0  0
    6.1296  -13.5243   24.8070 C   0  0  0  0  0  0  0  0  0  0  0  0
    7.2075  -14.2818   25.4618 C   0  0  2  0  0  0  0  0  0  0  0  0
    8.3497  -13.2924   25.7388 C   0  0  0  0  0  0  0  0  0  0  0  0
    7.8145  -15.4348   24.7442 C   0  0  2  0  0  0  0  0  0  0  0  0
    6.6937  -16.3818   24.5484 N   0  0  0  0  0  0  0  0  0  0  0  0
    8.8539  -16.1243   25.5685 C   0  0  0  0  0  0  0  0  0  0  0  0
    8.4619  -16.9354   26.4821 O   0  0  0  0  0  0  0  0  0  0  0  0
   10.3668  -13.2512   29.7152 C   0  0  0  0  0  0  0  0  0  0  0  0
   11.5505  -14.5523   30.1241 S   0  0  0  0  0  0  0  0  0  0  0  0
   11.3696  -15.9747   29.0396 C   0  0  0  0  0  0  0  0  0  0  0  0
   10.4913  -15.6522   27.8348 C   0  0  0  0  0  0  0  0  0  0  0  0
   11.1304  -16.1492   26.5560 C   0  0  2  0  0  0  0  0  0  0  0  0
   10.2432  -15.9520   25.4159 N   0  0  0  0  0  0  0  0  0  0  0  0
   11.4864  -17.5689   26.6418 C   0  0  0  0  0  0  0  0  0  0  0  0
   10.5893  -18.4488   26.7366 O   0  0  0  0  0  0  0  0  0  0  0  0
   12.8012  -18.0059   26.6234 O   0  0  0  0  0  0  0  0  0  0  0  0
  2  1  1  0
  3  2  2  0
  4  2  1  0
  5  4  1  0
  6  5  1  0
  6  7  1  6
  8  6  1  0
  9  8  2  0
 11 10  1  0
 12 14  1  0
 12 11  1  0
 12 13  1  6
 14 15  1  1
 15  8  1  0
 16 17  2  0
 16 14  1  0
 18 19  1  0
 20 19  1  0
 20 21  1  0
 22 21  1  1
 22 23  1  0
 23 16  1  0
 24 22  1  0
 25 24  2  0
 26 24  1  0
M  END
$$$$
