QIM.pdb
     RDKit          3D

 26 25  0  0  1  0  0  0  0  0999 V2000
    9.1857  -17.3909   17.1614 N   0  0  0  0  0  0  0  0  0  0  0  0
   10.5996  -17.5950   17.2495 C   0  0  0  0  0  0  0  0  0  0  0  0
   11.2382  -17.6152   16.1732 O   0  0  0  0  0  0  0  0  0  0  0  0
   11.2489  -17.7723   18.5870 C   0  0  0  0  0  0  0  0  0  0  0  0
   10.1683  -17.8180   19.6457 C   0  0  0  0  0  0  0  0  0  0  0  0
   10.7569  -17.9307   21.0328 C   0  0  2  0  0  0  0  0  0  0  0  0
   11.0186  -19.3185   21.3445 N   0  0  0  0  0  0  0  0  0  0  0  0
    9.8427  -17.3859   22.0671 C   0  0  0  0  0  0  0  0  0  0  0  0
    9.5231  -16.1521   21.9944 O   0  0  0  0  0  0  0  0  0  0  0  0
    6.6328  -20.7199   23.3734 C   0  0  0  0  0  0  0  0  0  0  0  0
    6.5427  -19.2561   23.6983 C   0  0  0  0  0  0  0  0  0  0  0  0
    7.5993  -18.7370   24.5806 C   0  0  2  0  0  0  0  0  0  0  0  0
    6.9159  -18.2653   25.8731 C   0  0  0  0  0  0  0  0  0  0  0  0
    8.4365  -17.6015   24.1088 C   0  0  2  0  0  0  0  0  0  0  0  0
    9.3392  -18.2001   23.0999 N   0  0  0  0  0  0  0  0  0  0  0  0
    9.2863  -17.0388   25.2026 C   0  0  0  0  0  0  0  0  0  0  0  0
   10.4716  -17.5075   25.3503 O   0  0  0  0  0  0  0  0  0  0  0  0
    6.6703  -11.3514   25.7353 C   0  0  0  0  0  0  0  0  0  0  0  0
    7.2496  -12.4883   27.0133 S   0  0  0  0  0  0  0  0  0  0  0  0
    8.8181  -13.2433   26.5642 C   0  0  0  0  0  0  0  0  0  0  0  0
    9.3174  -14.1872   27.6536 C   0  0  0  0  0  0  0  0  0  0  0  0
    9.8327  -15.4768   27.0520 C   0  0  2  0  0  0  0  0  0  0  0  0
    8.8827  -16.0225   26.0900 N   0  0  0  0  0  0  0  0  0  0  0  0
   10.1023  -16.4870   28.0799 C   0  0  0  0  0  0  0  0  0  0  0  0
    9.3692  -17.5069   28.1824 O   0  0  0  0  0  0  0  0  0  0  0  0
   11.1560  -16.3734   28.9727 O   0  0  0  0  0  0  0  0  0  0  0  0
  2  1  1  0
  3  2  2  0
  4  2  1  0
  5  4  1  0
  6  5  1  0
  6  7  1  1
  8  6  1  0
  9  8  2  0
 11 10  1  0
 12 14  1  0
 12 11  1  0
 12 13  1  1
 14 15  1  6
 15  8  1  0
 16 17  2  0
 16 14  1  0
 18 19  1  0
 20 19  1  0
 20 21  1  0
 22 21  1  1
 22 23  1  0
 23 16  1  0
 24 22  1  0
 25 24  2  0
 26 24  1  0
M  END
$$$$
