QIM.pdb
     RDKit          3D

 26 25  0  0  1  0  0  0  0  0999 V2000
    6.0325  -19.6954   21.2528 N   0  0  0  0  0  0  0  0  0  0  0  0
    7.4222  -20.0203   21.3611 C   0  0  0  0  0  0  0  0  0  0  0  0
    7.8147  -20.4753   22.4590 O   0  0  0  0  0  0  0  0  0  0  0  0
    8.3336  -19.8111   20.1917 C   0  0  0  0  0  0  0  0  0  0  0  0
    9.2522  -18.6480   20.4979 C   0  0  0  0  0  0  0  0  0  0  0  0
    8.5021  -17.3362   20.5010 C   0  0  2  0  0  0  0  0  0  0  0  0
    8.6280  -16.6948   19.2109 N   0  0  0  0  0  0  0  0  0  0  0  0
    9.0193  -16.4063   21.5355 C   0  0  0  0  0  0  0  0  0  0  0  0
   10.1365  -15.8287   21.3172 O   0  0  0  0  0  0  0  0  0  0  0  0
    6.4940  -12.7488   25.6472 C   0  0  0  0  0  0  0  0  0  0  0  0
    7.7700  -13.3771   25.1642 C   0  0  0  0  0  0  0  0  0  0  0  0
    7.6092  -14.4755   24.1987 C   0  0  2  0  0  0  0  0  0  0  0  0
    6.7578  -15.5559   24.8828 C   0  0  0  0  0  0  0  0  0  0  0  0
    8.8235  -15.1617   23.6815 C   0  0  2  0  0  0  0  0  0  0  0  0
    8.3039  -16.1640   22.7241 N   0  0  0  0  0  0  0  0  0  0  0  0
    9.5537  -15.8975   24.7588 C   0  0  0  0  0  0  0  0  0  0  0  0
    8.9803  -16.9132   25.2936 O   0  0  0  0  0  0  0  0  0  0  0  0
   10.4310  -12.7290   29.5689 C   0  0  0  0  0  0  0  0  0  0  0  0
   11.0741  -14.2664   30.2648 S   0  0  0  0  0  0  0  0  0  0  0  0
   11.2991  -15.5218   28.9978 C   0  0  0  0  0  0  0  0  0  0  0  0
   11.0215  -14.9671   27.6042 C   0  0  0  0  0  0  0  0  0  0  0  0
   11.2696  -16.0216   26.5472 C   0  0  2  0  0  0  0  0  0  0  0  0
   10.8354  -15.5596   25.2343 N   0  0  0  0  0  0  0  0  0  0  0  0
   10.5823  -17.2783   26.8607 C   0  0  0  0  0  0  0  0  0  0  0  0
    9.3248  -17.3196   26.9307 O   0  0  0  0  0  0  0  0  0  0  0  0
   11.2676  -18.4605   27.0911 O   0  0  0  0  0  0  0  0  0  0  0  0
  2  1  1  0
  3  2  2  0
  4  2  1  0
  5  4  1  0
  6  5  1  0
  6  7  1  6
  8  6  1  0
  9  8  2  0
 11 10  1  0
 12 14  1  0
 12 11  1  0
 12 13  1  1
 14 15  1  6
 15  8  1  0
 16 17  2  0
 16 14  1  0
 18 19  1  0
 20 19  1  0
 20 21  1  0
 22 21  1  1
 22 23  1  0
 23 16  1  0
 24 22  1  0
 25 24  2  0
 26 24  1  0
M  END
$$$$
