SIC.pdb
     RDKit          3D

 21 20  0  0  1  0  0  0  0  0999 V2000
    9.0300  -19.6674   19.2184 O   0  0  0  0  0  0  0  0  0  0  0  0
    8.3661  -19.2202   18.1066 C   0  0  0  0  0  0  0  0  0  0  0  0
    8.9316  -17.8845   17.6449 C   0  0  2  0  0  0  0  0  0  0  0  0
   10.0994  -18.1235   16.7976 N   0  0  0  0  0  0  0  0  0  0  0  0
    9.3910  -17.0745   18.7886 C   0  0  0  0  0  0  0  0  0  0  0  0
   10.6196  -17.0461   19.1486 O   0  0  0  0  0  0  0  0  0  0  0  0
    6.8682  -12.3884   20.0042 C   0  0  0  0  0  0  0  0  0  0  0  0
    7.9881  -13.3852   19.7867 C   0  0  0  0  0  0  0  0  0  0  0  0
    7.8919  -14.4223   20.8587 C   0  0  2  0  0  0  0  0  0  0  0  0
    8.2285  -13.7434   22.1860 C   0  0  0  0  0  0  0  0  0  0  0  0
    8.8960  -15.5414   20.6883 C   0  0  2  0  0  0  0  0  0  0  0  0
    8.4608  -16.3022   19.5169 N   0  0  0  0  0  0  0  0  0  0  0  0
    9.0053  -16.4020   21.8608 C   0  0  0  0  0  0  0  0  0  0  0  0
    8.0267  -17.0681   22.2563 O   0  0  0  0  0  0  0  0  0  0  0  0
   10.2252  -16.4952   22.5695 N   0  0  0  0  0  0  0  0  0  0  0  0
   10.4453  -17.3384   23.7024 C   0  0  1  0  0  0  0  0  0  0  0  0
   11.6931  -18.1911   23.4550 C   0  0  0  0  0  0  0  0  0  0  0  0
   11.4748  -19.1838   21.9470 S   0  0  0  0  0  0  0  0  0  0  0  0
   10.7359  -16.5017   24.8817 C   0  0  0  0  0  0  0  0  0  0  0  0
   10.7897  -15.1245   24.7866 O   0  0  0  0  0  0  0  0  0  0  0  0
   10.9377  -17.0399   25.9880 O   0  0  0  0  0  0  0  0  0  0  0  0
  2  1  1  0
  3  2  1  0
  3  4  1  6
  5  3  1  0
  6  5  2  0
  7  8  1  0
  9  8  1  0
  9 10  1  1
 11  9  1  0
 11 12  1  6
 12  5  1  0
 13 14  2  0
 13 11  1  0
 15 13  1  0
 16 15  1  0
 16 17  1  6
 18 17  1  0
 19 20  1  0
 19 16  1  0
 21 19  2  0
M  END
$$$$
