SIC.pdb
     RDKit          3D

 21 20  0  0  1  0  0  0  0  0999 V2000
    7.3296  -17.3090   21.2124 O   0  0  0  0  0  0  0  0  0  0  0  0
    6.3931  -16.3500   20.9291 C   0  0  0  0  0  0  0  0  0  0  0  0
    7.0471  -14.9810   20.8064 C   0  0  2  0  0  0  0  0  0  0  0  0
    7.9421  -14.9773   19.6497 N   0  0  0  0  0  0  0  0  0  0  0  0
    7.8743  -14.6758   21.9888 C   0  0  0  0  0  0  0  0  0  0  0  0
    9.1534  -14.7190   21.9500 O   0  0  0  0  0  0  0  0  0  0  0  0
    7.1468  -11.8142   27.3020 C   0  0  0  0  0  0  0  0  0  0  0  0
    7.9812  -12.8387   26.5609 C   0  0  0  0  0  0  0  0  0  0  0  0
    7.3033  -13.1261   25.2602 C   0  0  2  0  0  0  0  0  0  0  0  0
    5.9515  -13.7643   25.5780 C   0  0  0  0  0  0  0  0  0  0  0  0
    8.0560  -14.1277   24.4117 C   0  0  2  0  0  0  0  0  0  0  0  0
    7.2517  -14.3236   23.2055 N   0  0  0  0  0  0  0  0  0  0  0  0
    8.2966  -15.3951   25.0923 C   0  0  0  0  0  0  0  0  0  0  0  0
    7.3645  -16.2024   25.2850 O   0  0  0  0  0  0  0  0  0  0  0  0
    9.5934  -15.7296   25.5456 N   0  0  0  0  0  0  0  0  0  0  0  0
    9.9775  -17.0168   26.0338 C   0  0  1  0  0  0  0  0  0  0  0  0
   11.3984  -17.3287   25.5551 C   0  0  0  0  0  0  0  0  0  0  0  0
   11.9757  -18.8827   26.3027 S   0  0  0  0  0  0  0  0  0  0  0  0
   10.0293  -16.9820   27.5074 C   0  0  0  0  0  0  0  0  0  0  0  0
    9.8524  -18.1288   28.2572 O   0  0  0  0  0  0  0  0  0  0  0  0
   10.2362  -15.9017   28.0942 O   0  0  0  0  0  0  0  0  0  0  0  0
  2  1  1  0
  3  2  1  0
  3  4  1  6
  5  3  1  0
  6  5  2  0
  7  8  1  0
  9  8  1  0
  9 10  1  1
 11  9  1  0
 11 12  1  6
 12  5  1  0
 13 14  2  0
 13 11  1  0
 15 13  1  0
 16 15  1  0
 16 17  1  6
 18 17  1  0
 19 20  1  0
 19 16  1  0
 21 19  2  0
M  END
$$$$
