SIC.pdb
     RDKit          3D

 21 20  0  0  1  0  0  0  0  0999 V2000
    6.2462  -19.3368   21.3851 O   0  0  0  0  0  0  0  0  0  0  0  0
    6.8934  -19.6281   20.2133 C   0  0  0  0  0  0  0  0  0  0  0  0
    7.1298  -18.3622   19.4018 C   0  0  2  0  0  0  0  0  0  0  0  0
    7.9505  -18.6850   18.2350 N   0  0  0  0  0  0  0  0  0  0  0  0
    7.8738  -17.3571   20.1837 C   0  0  0  0  0  0  0  0  0  0  0  0
    9.1394  -17.4379   20.3613 O   0  0  0  0  0  0  0  0  0  0  0  0
    6.9460  -12.2350   19.5107 C   0  0  0  0  0  0  0  0  0  0  0  0
    7.6944  -13.5169   19.8132 C   0  0  0  0  0  0  0  0  0  0  0  0
    7.3395  -13.9365   21.2032 C   0  0  2  0  0  0  0  0  0  0  0  0
    7.9738  -12.9302   22.1628 C   0  0  0  0  0  0  0  0  0  0  0  0
    7.9056  -15.2901   21.5732 C   0  0  2  0  0  0  0  0  0  0  0  0
    7.1842  -16.2681   20.7588 N   0  0  0  0  0  0  0  0  0  0  0  0
    7.7823  -15.5984   22.9934 C   0  0  0  0  0  0  0  0  0  0  0  0
    6.6597  -15.6830   23.5325 O   0  0  0  0  0  0  0  0  0  0  0  0
    8.9360  -15.8069   23.7838 N   0  0  0  0  0  0  0  0  0  0  0  0
    8.9490  -16.4882   25.0401 C   0  0  1  0  0  0  0  0  0  0  0  0
    8.4558  -17.9236   24.8346 C   0  0  0  0  0  0  0  0  0  0  0  0
    6.7495  -18.0842   25.4426 S   0  0  0  0  0  0  0  0  0  0  0  0
   10.3383  -16.5873   25.5248 C   0  0  0  0  0  0  0  0  0  0  0  0
   11.4079  -16.3197   24.6922 O   0  0  0  0  0  0  0  0  0  0  0  0
   10.5598  -16.9181   26.7063 O   0  0  0  0  0  0  0  0  0  0  0  0
  2  1  1  0
  3  2  1  0
  3  4  1  6
  5  3  1  0
  6  5  2  0
  7  8  1  0
  9  8  1  0
  9 10  1  1
 11  9  1  0
 11 12  1  6
 12  5  1  0
 13 14  2  0
 13 11  1  0
 15 13  1  0
 16 15  1  0
 16 17  1  6
 18 17  1  0
 19 20  1  0
 19 16  1  0
 21 19  2  0
M  END
$$$$
