SIC.pdb
     RDKit          3D

 21 20  0  0  1  0  0  0  0  0999 V2000
    7.3062  -17.0432   21.1772 O   0  0  0  0  0  0  0  0  0  0  0  0
    6.4126  -16.0109   21.0639 C   0  0  0  0  0  0  0  0  0  0  0  0
    7.1172  -14.6712   21.2243 C   0  0  2  0  0  0  0  0  0  0  0  0
    8.0416  -14.4771   20.1078 N   0  0  0  0  0  0  0  0  0  0  0  0
    7.9234  -14.6356   22.4588 C   0  0  0  0  0  0  0  0  0  0  0  0
    9.1905  -14.8201   22.4460 O   0  0  0  0  0  0  0  0  0  0  0  0
    5.9954  -11.5691   26.4978 C   0  0  0  0  0  0  0  0  0  0  0  0
    6.9282  -12.1847   25.4750 C   0  0  0  0  0  0  0  0  0  0  0  0
    7.2559  -13.5701   25.9303 C   0  0  2  0  0  0  0  0  0  0  0  0
    8.1112  -13.4489   27.1910 C   0  0  0  0  0  0  0  0  0  0  0  0
    8.0867  -14.3396   24.9266 C   0  0  2  0  0  0  0  0  0  0  0  0
    7.2938  -14.3916   23.6983 N   0  0  0  0  0  0  0  0  0  0  0  0
    8.4414  -15.6803   25.3782 C   0  0  0  0  0  0  0  0  0  0  0  0
    7.5637  -16.5541   25.5330 O   0  0  0  0  0  0  0  0  0  0  0  0
    9.7891  -16.0117   25.6485 N   0  0  0  0  0  0  0  0  0  0  0  0
   10.2511  -17.3186   25.9966 C   0  0  1  0  0  0  0  0  0  0  0  0
   11.6763  -17.5019   25.4665 C   0  0  0  0  0  0  0  0  0  0  0  0
   11.7089  -17.2204   23.6702 S   0  0  0  0  0  0  0  0  0  0  0  0
   10.3321  -17.4304   27.4650 C   0  0  0  0  0  0  0  0  0  0  0  0
   10.7338  -18.6044   28.0725 O   0  0  0  0  0  0  0  0  0  0  0  0
   10.0342  -16.4518   28.1777 O   0  0  0  0  0  0  0  0  0  0  0  0
  2  1  1  0
  3  2  1  0
  3  4  1  6
  5  3  1  0
  6  5  2  0
  7  8  1  0
  9  8  1  0
  9 10  1  1
 11  9  1  0
 11 12  1  6
 12  5  1  0
 13 14  2  0
 13 11  1  0
 15 13  1  0
 16 15  1  0
 16 17  1  6
 18 17  1  0
 19 20  1  0
 19 16  1  0
 21 19  2  0
M  END
$$$$
