SIC.pdb
     RDKit          3D

 21 20  0  0  1  0  0  0  0  0999 V2000
    7.2680  -17.0627   21.2013 O   0  0  0  0  0  0  0  0  0  0  0  0
    6.4868  -15.9487   21.0416 C   0  0  0  0  0  0  0  0  0  0  0  0
    7.3134  -14.6833   21.2217 C   0  0  2  0  0  0  0  0  0  0  0  0
    8.3551  -14.6392   20.1961 N   0  0  0  0  0  0  0  0  0  0  0  0
    7.9979  -14.6732   22.5281 C   0  0  0  0  0  0  0  0  0  0  0  0
    9.2348  -14.9823   22.6472 O   0  0  0  0  0  0  0  0  0  0  0  0
    6.0050  -11.3698   26.3677 C   0  0  0  0  0  0  0  0  0  0  0  0
    6.9874  -12.0792   25.4585 C   0  0  0  0  0  0  0  0  0  0  0  0
    7.0917  -13.4982   25.9163 C   0  0  2  0  0  0  0  0  0  0  0  0
    7.8017  -13.4931   27.2697 C   0  0  0  0  0  0  0  0  0  0  0  0
    7.9365  -14.3537   24.9976 C   0  0  2  0  0  0  0  0  0  0  0  0
    7.2816  -14.3139   23.6900 N   0  0  0  0  0  0  0  0  0  0  0  0
    8.0887  -15.7266   25.4656 C   0  0  0  0  0  0  0  0  0  0  0  0
    7.0994  -16.4819   25.5589 O   0  0  0  0  0  0  0  0  0  0  0  0
    9.3631  -16.2247   25.8218 N   0  0  0  0  0  0  0  0  0  0  0  0
    9.6239  -17.5656   26.2422 C   0  0  1  0  0  0  0  0  0  0  0  0
   10.6520  -18.1941   25.2968 C   0  0  0  0  0  0  0  0  0  0  0  0
   12.0640  -17.0685   25.0824 S   0  0  0  0  0  0  0  0  0  0  0  0
   10.2430  -17.5436   27.5806 C   0  0  0  0  0  0  0  0  0  0  0  0
   10.5796  -16.3523   28.1941 O   0  0  0  0  0  0  0  0  0  0  0  0
   10.4699  -18.6154   28.1755 O   0  0  0  0  0  0  0  0  0  0  0  0
  2  1  1  0
  3  2  1  0
  3  4  1  6
  5  3  1  0
  6  5  2  0
  7  8  1  0
  9  8  1  0
  9 10  1  1
 11  9  1  0
 11 12  1  6
 12  5  1  0
 13 14  2  0
 13 11  1  0
 15 13  1  0
 16 15  1  0
 16 17  1  6
 18 17  1  0
 19 20  1  0
 19 16  1  0
 21 19  2  0
M  END
$$$$
