SIC.pdb
     RDKit          3D

 21 20  0  0  1  0  0  0  0  0999 V2000
    7.4302  -17.3460   21.5285 O   0  0  0  0  0  0  0  0  0  0  0  0
    6.4763  -16.4307   21.1694 C   0  0  0  0  0  0  0  0  0  0  0  0
    7.0924  -15.0478   21.0107 C   0  0  2  0  0  0  0  0  0  0  0  0
    7.9799  -15.0471   19.8483 N   0  0  0  0  0  0  0  0  0  0  0  0
    7.9181  -14.6931   22.1801 C   0  0  0  0  0  0  0  0  0  0  0  0
    9.1955  -14.7799   22.1589 O   0  0  0  0  0  0  0  0  0  0  0  0
    7.2118  -11.5864   27.3674 C   0  0  0  0  0  0  0  0  0  0  0  0
    8.0529  -12.6224   26.6503 C   0  0  0  0  0  0  0  0  0  0  0  0
    7.3421  -12.9955   25.3895 C   0  0  2  0  0  0  0  0  0  0  0  0
    6.0147  -13.6416   25.7847 C   0  0  0  0  0  0  0  0  0  0  0  0
    8.0900  -14.0279   24.5743 C   0  0  2  0  0  0  0  0  0  0  0  0
    7.2963  -14.2424   23.3643 N   0  0  0  0  0  0  0  0  0  0  0  0
    8.3056  -15.2812   25.2884 C   0  0  0  0  0  0  0  0  0  0  0  0
    7.3695  -16.0900   25.4539 O   0  0  0  0  0  0  0  0  0  0  0  0
    9.5822  -15.6003   25.8056 N   0  0  0  0  0  0  0  0  0  0  0  0
    9.9144  -16.8328   26.4486 C   0  0  1  0  0  0  0  0  0  0  0  0
   11.2686  -17.3200   25.9246 C   0  0  0  0  0  0  0  0  0  0  0  0
   11.8171  -18.7668   26.8800 S   0  0  0  0  0  0  0  0  0  0  0  0
   10.0844  -16.5963   27.8944 C   0  0  0  0  0  0  0  0  0  0  0  0
    9.8568  -17.6004   28.8156 O   0  0  0  0  0  0  0  0  0  0  0  0
   10.4397  -15.4724   28.3003 O   0  0  0  0  0  0  0  0  0  0  0  0
  2  1  1  0
  3  2  1  0
  3  4  1  6
  5  3  1  0
  6  5  2  0
  7  8  1  0
  9  8  1  0
  9 10  1  1
 11  9  1  0
 11 12  1  6
 12  5  1  0
 13 14  2  0
 13 11  1  0
 15 13  1  0
 16 15  1  0
 16 17  1  6
 18 17  1  0
 19 20  1  0
 19 16  1  0
 21 19  2  0
M  END
$$$$
