SIC.pdb
     RDKit          3D

 21 20  0  0  1  0  0  0  0  0999 V2000
    7.2919  -19.8488   19.5045 O   0  0  0  0  0  0  0  0  0  0  0  0
    6.5655  -19.0052   18.7060 C   0  0  0  0  0  0  0  0  0  0  0  0
    7.4470  -17.8900   18.1616 C   0  0  2  0  0  0  0  0  0  0  0  0
    8.4434  -18.4625   17.2570 N   0  0  0  0  0  0  0  0  0  0  0  0
    8.1883  -17.2175   19.2449 C   0  0  0  0  0  0  0  0  0  0  0  0
    9.4224  -17.4676   19.4779 O   0  0  0  0  0  0  0  0  0  0  0  0
    6.8906  -12.0505   20.2807 C   0  0  0  0  0  0  0  0  0  0  0  0
    7.6869  -13.3117   20.0156 C   0  0  0  0  0  0  0  0  0  0  0  0
    7.5634  -14.1917   21.2175 C   0  0  2  0  0  0  0  0  0  0  0  0
    8.2394  -13.4728   22.3844 C   0  0  0  0  0  0  0  0  0  0  0  0
    8.2846  -15.5123   21.0580 C   0  0  2  0  0  0  0  0  0  0  0  0
    7.5318  -16.2675   20.0564 N   0  0  0  0  0  0  0  0  0  0  0  0
    8.3973  -16.2623   22.3038 C   0  0  0  0  0  0  0  0  0  0  0  0
    7.3776  -16.5992   22.9398 O   0  0  0  0  0  0  0  0  0  0  0  0
    9.6673  -16.6204   22.8117 N   0  0  0  0  0  0  0  0  0  0  0  0
    9.8860  -17.2993   24.0503 C   0  0  1  0  0  0  0  0  0  0  0  0
   11.1081  -18.2117   23.9104 C   0  0  0  0  0  0  0  0  0  0  0  0
   10.9147  -19.2858   22.4558 S   0  0  0  0  0  0  0  0  0  0  0  0
   10.2172  -16.3114   25.0941 C   0  0  0  0  0  0  0  0  0  0  0  0
   10.3137  -14.9648   24.8005 O   0  0  0  0  0  0  0  0  0  0  0  0
   10.4151  -16.6907   26.2650 O   0  0  0  0  0  0  0  0  0  0  0  0
  2  1  1  0
  3  2  1  0
  3  4  1  6
  5  3  1  0
  6  5  2  0
  7  8  1  0
  9  8  1  0
  9 10  1  1
 11  9  1  0
 11 12  1  6
 12  5  1  0
 13 14  2  0
 13 11  1  0
 15 13  1  0
 16 15  1  0
 16 17  1  6
 18 17  1  0
 19 20  1  0
 19 16  1  0
 21 19  2  0
M  END
$$$$
