SIC.pdb
     RDKit          3D

 21 20  0  0  1  0  0  0  0  0999 V2000
    7.9105  -20.0393   19.2441 O   0  0  0  0  0  0  0  0  0  0  0  0
    6.8757  -19.2933   18.7445 C   0  0  0  0  0  0  0  0  0  0  0  0
    7.4040  -18.1118   17.9431 C   0  0  2  0  0  0  0  0  0  0  0  0
    8.2299  -18.6077   16.8428 N   0  0  0  0  0  0  0  0  0  0  0  0
    8.2666  -17.2476   18.7704 C   0  0  0  0  0  0  0  0  0  0  0  0
    9.5437  -17.3351   18.7377 O   0  0  0  0  0  0  0  0  0  0  0  0
    6.7711  -12.1926   20.0260 C   0  0  0  0  0  0  0  0  0  0  0  0
    7.6965  -13.3383   19.6710 C   0  0  0  0  0  0  0  0  0  0  0  0
    7.7656  -14.2529   20.8512 C   0  0  2  0  0  0  0  0  0  0  0  0
    8.5541  -13.5329   21.9446 C   0  0  0  0  0  0  0  0  0  0  0  0
    8.5162  -15.5343   20.5610 C   0  0  2  0  0  0  0  0  0  0  0  0
    7.6817  -16.2910   19.6276 N   0  0  0  0  0  0  0  0  0  0  0  0
    8.8059  -16.3168   21.7572 C   0  0  0  0  0  0  0  0  0  0  0  0
    7.8933  -16.9105   22.3673 O   0  0  0  0  0  0  0  0  0  0  0  0
   10.1292  -16.4151   22.2455 N   0  0  0  0  0  0  0  0  0  0  0  0
   10.5274  -17.2162   23.3602 C   0  0  1  0  0  0  0  0  0  0  0  0
   10.9552  -18.5972   22.8550 C   0  0  0  0  0  0  0  0  0  0  0  0
    9.5359  -19.7337   22.8852 S   0  0  0  0  0  0  0  0  0  0  0  0
   11.7162  -16.6136   23.9916 C   0  0  0  0  0  0  0  0  0  0  0  0
   12.1629  -17.0384   25.2281 O   0  0  0  0  0  0  0  0  0  0  0  0
   12.3347  -15.7038   23.4051 O   0  0  0  0  0  0  0  0  0  0  0  0
  2  1  1  0
  3  2  1  0
  3  4  1  6
  5  3  1  0
  6  5  2  0
  7  8  1  0
  9  8  1  0
  9 10  1  1
 11  9  1  0
 11 12  1  6
 12  5  1  0
 13 14  2  0
 13 11  1  0
 15 13  1  0
 16 15  1  0
 16 17  1  6
 18 17  1  0
 19 20  1  0
 19 16  1  0
 21 19  2  0
M  END
$$$$
