SIC.pdb
     RDKit          3D

 21 20  0  0  1  0  0  0  0  0999 V2000
    8.7041  -19.7251   22.8809 O   0  0  0  0  0  0  0  0  0  0  0  0
    8.2906  -18.6935   23.6819 C   0  0  0  0  0  0  0  0  0  0  0  0
    7.7612  -17.5403   22.8411 C   0  0  2  0  0  0  0  0  0  0  0  0
    8.1922  -17.7181   21.4549 N   0  0  0  0  0  0  0  0  0  0  0  0
    8.3097  -16.2497   23.2979 C   0  0  0  0  0  0  0  0  0  0  0  0
    9.3362  -15.7172   22.7480 O   0  0  0  0  0  0  0  0  0  0  0  0
    6.2686  -11.5495   26.5842 C   0  0  0  0  0  0  0  0  0  0  0  0
    7.4247  -12.1228   25.7906 C   0  0  0  0  0  0  0  0  0  0  0  0
    7.0702  -13.5252   25.4143 C   0  0  2  0  0  0  0  0  0  0  0  0
    6.6635  -14.2552   26.6939 C   0  0  0  0  0  0  0  0  0  0  0  0
    8.2396  -14.2951   24.8403 C   0  0  2  0  0  0  0  0  0  0  0  0
    7.6955  -15.5696   24.3714 N   0  0  0  0  0  0  0  0  0  0  0  0
    9.3175  -14.5071   25.7996 C   0  0  0  0  0  0  0  0  0  0  0  0
   10.0240  -13.5535   26.1860 O   0  0  0  0  0  0  0  0  0  0  0  0
    9.5795  -15.8001   26.3083 N   0  0  0  0  0  0  0  0  0  0  0  0
   10.5403  -16.0950   27.3245 C   0  0  1  0  0  0  0  0  0  0  0  0
    9.9741  -15.6743   28.6839 C   0  0  0  0  0  0  0  0  0  0  0  0
   10.2204  -13.8895   28.9308 S   0  0  0  0  0  0  0  0  0  0  0  0
   10.7468  -17.5539   27.3893 C   0  0  0  0  0  0  0  0  0  0  0  0
   11.7085  -18.1048   28.2141 O   0  0  0  0  0  0  0  0  0  0  0  0
   10.0445  -18.3103   26.6901 O   0  0  0  0  0  0  0  0  0  0  0  0
  2  1  1  0
  3  2  1  0
  3  4  1  6
  5  3  1  0
  6  5  2  0
  7  8  1  0
  9  8  1  0
  9 10  1  1
 11  9  1  0
 11 12  1  1
 12  5  1  0
 13 14  2  0
 13 11  1  0
 15 13  1  0
 16 15  1  0
 16 17  1  1
 18 17  1  0
 19 20  1  0
 19 16  1  0
 21 19  2  0
M  END
$$$$
