SIC.pdb
     RDKit          3D

 21 20  0  0  1  0  0  0  0  0999 V2000
    8.5372  -17.9926   21.5844 O   0  0  0  0  0  0  0  0  0  0  0  0
    7.3921  -17.2784   21.3486 C   0  0  0  0  0  0  0  0  0  0  0  0
    7.7031  -15.7943   21.2161 C   0  0  2  0  0  0  0  0  0  0  0  0
    8.6067  -15.5913   20.0841 N   0  0  0  0  0  0  0  0  0  0  0  0
    8.3960  -15.2842   22.4139 C   0  0  0  0  0  0  0  0  0  0  0  0
    9.6647  -15.1130   22.4412 O   0  0  0  0  0  0  0  0  0  0  0  0
    6.6770  -11.7591   27.0002 C   0  0  0  0  0  0  0  0  0  0  0  0
    7.8146  -12.5919   26.4459 C   0  0  0  0  0  0  0  0  0  0  0  0
    7.2542  -13.4828   25.3845 C   0  0  2  0  0  0  0  0  0  0  0  0
    6.2826  -14.4488   26.0615 C   0  0  0  0  0  0  0  0  0  0  0  0
    8.3078  -14.3395   24.7170 C   0  0  2  0  0  0  0  0  0  0  0  0
    7.6520  -14.9705   23.5716 N   0  0  0  0  0  0  0  0  0  0  0  0
    8.8860  -15.3405   25.6064 C   0  0  0  0  0  0  0  0  0  0  0  0
    8.3785  -16.4766   25.7033 O   0  0  0  0  0  0  0  0  0  0  0  0
   10.0338  -15.0383   26.3748 N   0  0  0  0  0  0  0  0  0  0  0  0
   10.8328  -16.0062   27.0585 C   0  0  1  0  0  0  0  0  0  0  0  0
   12.0341  -15.3015   27.6957 C   0  0  0  0  0  0  0  0  0  0  0  0
   11.4630  -13.9187   28.7295 S   0  0  0  0  0  0  0  0  0  0  0  0
   10.0510  -16.5867   28.1662 C   0  0  0  0  0  0  0  0  0  0  0  0
   10.5437  -17.6367   28.9168 O   0  0  0  0  0  0  0  0  0  0  0  0
    8.9240  -16.1270   28.4361 O   0  0  0  0  0  0  0  0  0  0  0  0
  2  1  1  0
  3  2  1  0
  3  4  1  6
  5  3  1  0
  6  5  2  0
  7  8  1  0
  9  8  1  0
  9 10  1  1
 11  9  1  0
 11 12  1  6
 12  5  1  0
 13 14  2  0
 13 11  1  0
 15 13  1  0
 16 15  1  0
 16 17  1  1
 18 17  1  0
 19 20  1  0
 19 16  1  0
 21 19  2  0
M  END
$$$$
