SIC.pdb
     RDKit          3D

 21 20  0  0  1  0  0  0  0  0999 V2000
    8.2595  -18.0182   20.3281 O   0  0  0  0  0  0  0  0  0  0  0  0
    7.9697  -17.3195   21.4703 C   0  0  0  0  0  0  0  0  0  0  0  0
    8.3025  -15.8444   21.2960 C   0  0  2  0  0  0  0  0  0  0  0  0
    9.3457  -15.7032   20.2808 N   0  0  0  0  0  0  0  0  0  0  0  0
    8.8373  -15.2660   22.5429 C   0  0  0  0  0  0  0  0  0  0  0  0
   10.0946  -15.2113   22.7795 O   0  0  0  0  0  0  0  0  0  0  0  0
    6.7838  -11.6508   26.9914 C   0  0  0  0  0  0  0  0  0  0  0  0
    7.8326  -12.6810   26.6256 C   0  0  0  0  0  0  0  0  0  0  0  0
    7.4505  -13.2748   25.3083 C   0  0  2  0  0  0  0  0  0  0  0  0
    6.1470  -14.0460   25.5130 C   0  0  0  0  0  0  0  0  0  0  0  0
    8.4615  -14.2787   24.7985 C   0  0  2  0  0  0  0  0  0  0  0  0
    7.9495  -14.7533   23.5129 N   0  0  0  0  0  0  0  0  0  0  0  0
    8.6840  -15.3902   25.7162 C   0  0  0  0  0  0  0  0  0  0  0  0
    7.8164  -16.2744   25.8692 O   0  0  0  0  0  0  0  0  0  0  0  0
    9.8897  -15.4836   26.4489 N   0  0  0  0  0  0  0  0  0  0  0  0
   10.2508  -16.5861   27.2837 C   0  0  1  0  0  0  0  0  0  0  0  0
   11.6686  -17.0407   26.9248 C   0  0  0  0  0  0  0  0  0  0  0  0
   11.7884  -17.3371   25.1346 S   0  0  0  0  0  0  0  0  0  0  0  0
   10.2968  -16.1377   28.6880 C   0  0  0  0  0  0  0  0  0  0  0  0
   10.0527  -14.8208   29.0273 O   0  0  0  0  0  0  0  0  0  0  0  0
   10.5601  -16.9560   29.5909 O   0  0  0  0  0  0  0  0  0  0  0  0
  2  1  1  0
  3  2  1  0
  3  4  1  6
  5  3  1  0
  6  5  2  0
  7  8  1  0
  9  8  1  0
  9 10  1  1
 11  9  1  0
 11 12  1  6
 12  5  1  0
 13 14  2  0
 13 11  1  0
 15 13  1  0
 16 15  1  0
 16 17  1  6
 18 17  1  0
 19 20  1  0
 19 16  1  0
 21 19  2  0
M  END
$$$$
