SIC.pdb
     RDKit          3D

 21 20  0  0  1  0  0  0  0  0999 V2000
    6.7656  -18.7480   22.5950 O   0  0  0  0  0  0  0  0  0  0  0  0
    5.8777  -17.7659   22.9472 C   0  0  0  0  0  0  0  0  0  0  0  0
    6.3195  -16.4191   22.3924 C   0  0  2  0  0  0  0  0  0  0  0  0
    6.9279  -16.6167   21.0772 N   0  0  0  0  0  0  0  0  0  0  0  0
    7.3462  -15.7983   23.2502 C   0  0  0  0  0  0  0  0  0  0  0  0
    8.5922  -15.8481   22.9596 O   0  0  0  0  0  0  0  0  0  0  0  0
    5.8505  -11.7178   26.4180 C   0  0  0  0  0  0  0  0  0  0  0  0
    6.7526  -12.5118   25.4956 C   0  0  0  0  0  0  0  0  0  0  0  0
    7.3025  -13.6635   26.2736 C   0  0  2  0  0  0  0  0  0  0  0  0
    8.3920  -13.1166   27.1953 C   0  0  0  0  0  0  0  0  0  0  0  0
    7.9696  -14.7017   25.3980 C   0  0  2  0  0  0  0  0  0  0  0  0
    6.9589  -15.1255   24.4289 N   0  0  0  0  0  0  0  0  0  0  0  0
    8.4876  -15.8412   26.1467 C   0  0  0  0  0  0  0  0  0  0  0  0
    7.7161  -16.5974   26.7718 O   0  0  0  0  0  0  0  0  0  0  0  0
    9.8759  -16.1075   26.1759 N   0  0  0  0  0  0  0  0  0  0  0  0
   10.4760  -17.2248   26.8349 C   0  0  1  0  0  0  0  0  0  0  0  0
   11.8476  -17.4955   26.2095 C   0  0  0  0  0  0  0  0  0  0  0  0
   11.7080  -17.5128   24.3965 S   0  0  0  0  0  0  0  0  0  0  0  0
   10.7198  -16.8816   28.2484 C   0  0  0  0  0  0  0  0  0  0  0  0
   11.2511  -17.8052   29.1279 O   0  0  0  0  0  0  0  0  0  0  0  0
   10.4439  -15.7394   28.6647 O   0  0  0  0  0  0  0  0  0  0  0  0
  2  1  1  0
  3  2  1  0
  3  4  1  6
  5  3  1  0
  6  5  2  0
  7  8  1  0
  9  8  1  0
  9 10  1  1
 11  9  1  0
 11 12  1  6
 12  5  1  0
 13 14  2  0
 13 11  1  0
 15 13  1  0
 16 15  1  0
 16 17  1  6
 18 17  1  0
 19 20  1  0
 19 16  1  0
 21 19  2  0
M  END
$$$$
