SIC.pdb
     RDKit          3D

 21 20  0  0  1  0  0  0  0  0999 V2000
    9.1581  -19.6955   18.7946 O   0  0  0  0  0  0  0  0  0  0  0  0
    8.4331  -18.9666   17.8891 C   0  0  0  0  0  0  0  0  0  0  0  0
    9.1926  -17.7130   17.4782 C   0  0  2  0  0  0  0  0  0  0  0  0
   10.4302  -18.1003   16.8021 N   0  0  0  0  0  0  0  0  0  0  0  0
    9.5798  -16.9127   18.6549 C   0  0  0  0  0  0  0  0  0  0  0  0
   10.7641  -16.9513   19.1404 O   0  0  0  0  0  0  0  0  0  0  0  0
    6.7769  -12.2879   19.5672 C   0  0  0  0  0  0  0  0  0  0  0  0
    7.9570  -13.2226   19.3976 C   0  0  0  0  0  0  0  0  0  0  0  0
    7.9499  -14.1811   20.5444 C   0  0  2  0  0  0  0  0  0  0  0  0
    8.2847  -13.3884   21.8074 C   0  0  0  0  0  0  0  0  0  0  0  0
    9.0106  -15.2534   20.4232 C   0  0  2  0  0  0  0  0  0  0  0  0
    8.6281  -16.0746   19.2745 N   0  0  0  0  0  0  0  0  0  0  0  0
    9.1486  -16.0670   21.6258 C   0  0  0  0  0  0  0  0  0  0  0  0
    8.1730  -16.6945   22.0866 O   0  0  0  0  0  0  0  0  0  0  0  0
   10.3933  -16.1576   22.2902 N   0  0  0  0  0  0  0  0  0  0  0  0
   10.6593  -17.0096   23.4066 C   0  0  1  0  0  0  0  0  0  0  0  0
   10.9904  -18.4145   22.8946 C   0  0  0  0  0  0  0  0  0  0  0  0
   11.2067  -19.5494   24.2989 S   0  0  0  0  0  0  0  0  0  0  0  0
   11.8611  -16.5259   24.1115 C   0  0  0  0  0  0  0  0  0  0  0  0
   12.7121  -15.6071   23.5281 O   0  0  0  0  0  0  0  0  0  0  0  0
   12.1205  -16.9493   25.2550 O   0  0  0  0  0  0  0  0  0  0  0  0
  2  1  1  0
  3  2  1  0
  3  4  1  1
  5  3  1  0
  6  5  2  0
  7  8  1  0
  9  8  1  0
  9 10  1  1
 11  9  1  0
 11 12  1  6
 12  5  1  0
 13 14  2  0
 13 11  1  0
 15 13  1  0
 16 15  1  0
 16 17  1  6
 18 17  1  0
 19 20  1  0
 19 16  1  0
 21 19  2  0
M  END
$$$$
