SIC.pdb
     RDKit          3D

 21 20  0  0  1  0  0  0  0  0999 V2000
    7.0624  -16.9726   21.1527 O   0  0  0  0  0  0  0  0  0  0  0  0
    6.1821  -15.9264   21.0662 C   0  0  0  0  0  0  0  0  0  0  0  0
    6.9226  -14.5971   21.1085 C   0  0  2  0  0  0  0  0  0  0  0  0
    7.8179  -14.5084   19.9554 N   0  0  0  0  0  0  0  0  0  0  0  0
    7.7656  -14.4929   22.3142 C   0  0  0  0  0  0  0  0  0  0  0  0
    9.0335  -14.6671   22.2715 O   0  0  0  0  0  0  0  0  0  0  0  0
    6.0367  -11.3486   26.4159 C   0  0  0  0  0  0  0  0  0  0  0  0
    6.9703  -11.9752   25.4006 C   0  0  0  0  0  0  0  0  0  0  0  0
    7.1928  -13.3980   25.8009 C   0  0  2  0  0  0  0  0  0  0  0  0
    8.0348  -13.3900   27.0762 C   0  0  0  0  0  0  0  0  0  0  0  0
    7.9830  -14.1821   24.7760 C   0  0  2  0  0  0  0  0  0  0  0  0
    7.1716  -14.1922   23.5587 N   0  0  0  0  0  0  0  0  0  0  0  0
    8.2987  -15.5395   25.2062 C   0  0  0  0  0  0  0  0  0  0  0  0
    7.3908  -16.3714   25.4097 O   0  0  0  0  0  0  0  0  0  0  0  0
    9.6423  -15.9352   25.3997 N   0  0  0  0  0  0  0  0  0  0  0  0
   10.0611  -17.2643   25.7171 C   0  0  1  0  0  0  0  0  0  0  0  0
   11.4476  -17.5082   25.1142 C   0  0  0  0  0  0  0  0  0  0  0  0
   12.0717  -19.1345   25.6362 S   0  0  0  0  0  0  0  0  0  0  0  0
   10.2111  -17.3905   27.1789 C   0  0  0  0  0  0  0  0  0  0  0  0
   10.7868  -16.3832   27.9291 O   0  0  0  0  0  0  0  0  0  0  0  0
    9.8137  -18.4220   27.7553 O   0  0  0  0  0  0  0  0  0  0  0  0
  2  1  1  0
  3  2  1  0
  3  4  1  6
  5  3  1  0
  6  5  2  0
  7  8  1  0
  9  8  1  0
  9 10  1  1
 11  9  1  0
 11 12  1  6
 12  5  1  0
 13 14  2  0
 13 11  1  0
 15 13  1  0
 16 15  1  0
 16 17  1  6
 18 17  1  0
 19 20  1  0
 19 16  1  0
 21 19  2  0
M  END
$$$$
