NDI.pdb
     RDKit          3D

 25 24  0  0  1  0  0  0  0  0999 V2000
   14.9323  -13.9383   20.6080 N   0  0  0  0  0  0  0  0  0  0  0  0
   14.0252  -14.4984   19.6868 C   0  0  0  0  0  0  0  0  0  0  0  0
   14.4961  -14.9822   18.6040 O   0  0  0  0  0  0  0  0  0  0  0  0
   12.5711  -14.5677   19.8801 C   0  0  0  0  0  0  0  0  0  0  0  0
   12.2317  -15.6711   20.8707 C   0  0  2  0  0  0  0  0  0  0  0  0
   12.3595  -16.9432   20.2254 N   0  0  0  0  0  0  0  0  0  0  0  0
   10.8811  -15.4528   21.4425 C   0  0  0  0  0  0  0  0  0  0  0  0
   10.5851  -14.2512   21.7331 O   0  0  0  0  0  0  0  0  0  0  0  0
    9.9518  -16.4949   21.6649 N   0  0  0  0  0  0  0  0  0  0  0  0
    8.7059  -16.1991   22.2912 C   0  0  1  0  0  0  0  0  0  0  0  0
    7.6738  -17.3103   22.1410 C   0  0  0  0  0  0  0  0  0  0  0  0
    7.4355  -17.5658   20.7161 C   0  0  0  0  0  0  0  0  0  0  0  0
    6.8997  -16.7627   19.9304 O   0  0  0  0  0  0  0  0  0  0  0  0
    8.8823  -15.8559   23.7454 C   0  0  0  0  0  0  0  0  0  0  0  0
    9.8555  -16.3710   24.3545 O   0  0  0  0  0  0  0  0  0  0  0  0
    7.8399  -18.7989   20.2082 O   0  0  0  0  0  0  0  0  0  0  0  0
    6.4012  -11.4011   26.1228 C   0  0  0  0  0  0  0  0  0  0  0  0
    7.4971  -12.3391   25.6643 C   0  0  0  0  0  0  0  0  0  0  0  0
    7.3259  -13.6397   26.3696 C   0  0  2  0  0  0  0  0  0  0  0  0
    7.7554  -13.4136   27.8248 C   0  0  0  0  0  0  0  0  0  0  0  0
    8.1587  -14.7598   25.8290 C   0  0  2  0  0  0  0  0  0  0  0  0
    7.9893  -14.9818   24.4216 N   0  0  0  0  0  0  0  0  0  0  0  0
    7.8067  -15.9975   26.5526 C   0  0  0  0  0  0  0  0  0  0  0  0
    6.8024  -16.6686   26.2251 O   0  0  0  0  0  0  0  0  0  0  0  0
    8.5890  -16.4264   27.6038 O   0  0  0  0  0  0  0  0  0  0  0  0
  1  2  1  0
  2  4  1  0
  3  2  2  0
  4  5  1  0
  5  7  1  0
  5  6  1  6
  7  8  2  0
  9  7  1  0
  9 10  1  0
 10 14  1  0
 10 11  1  1
 12 11  1  0
 13 12  2  0
 14 15  2  0
 16 12  1  0
 18 17  1  0
 19 18  1  0
 19 21  1  0
 19 20  1  1
 21 23  1  0
 22 14  1  0
 21 22  1  6
 23 25  1  0
 24 23  2  0
M  END
$$$$
