NDI.pdb
     RDKit          3D

 25 24  0  0  1  0  0  0  0  0999 V2000
    9.2682  -13.5670   16.8828 N   0  0  0  0  0  0  0  0  0  0  0  0
    7.8816  -13.5838   17.1319 C   0  0  0  0  0  0  0  0  0  0  0  0
    7.0941  -13.5023   16.1312 O   0  0  0  0  0  0  0  0  0  0  0  0
    7.2713  -13.6884   18.4635 C   0  0  0  0  0  0  0  0  0  0  0  0
    8.3527  -13.6616   19.5331 C   0  0  2  0  0  0  0  0  0  0  0  0
    9.6103  -14.0120   18.9444 N   0  0  0  0  0  0  0  0  0  0  0  0
    7.9826  -14.5485   20.6623 C   0  0  0  0  0  0  0  0  0  0  0  0
    6.8744  -14.2956   21.2313 O   0  0  0  0  0  0  0  0  0  0  0  0
    8.7895  -15.6209   21.1070 N   0  0  0  0  0  0  0  0  0  0  0  0
    8.4270  -16.3241   22.2927 C   0  0  1  0  0  0  0  0  0  0  0  0
    8.9076  -17.7703   22.3101 C   0  0  0  0  0  0  0  0  0  0  0  0
   10.2975  -17.8282   21.8441 C   0  0  0  0  0  0  0  0  0  0  0  0
   10.7262  -17.2704   20.8172 O   0  0  0  0  0  0  0  0  0  0  0  0
    8.9019  -15.6108   23.5294 C   0  0  0  0  0  0  0  0  0  0  0  0
   10.0446  -15.0848   23.4992 O   0  0  0  0  0  0  0  0  0  0  0  0
   11.2016  -18.5624   22.6093 O   0  0  0  0  0  0  0  0  0  0  0  0
    5.7774  -12.1460   25.9627 C   0  0  0  0  0  0  0  0  0  0  0  0
    6.9658  -12.8476   25.3408 C   0  0  0  0  0  0  0  0  0  0  0  0
    7.5296  -13.7926   26.3446 C   0  0  2  0  0  0  0  0  0  0  0  0
    8.2131  -12.9391   27.4205 C   0  0  0  0  0  0  0  0  0  0  0  0
    8.5583  -14.7375   25.8066 C   0  0  2  0  0  0  0  0  0  0  0  0
    8.0993  -15.5254   24.6987 N   0  0  0  0  0  0  0  0  0  0  0  0
    8.9778  -15.6431   26.8943 C   0  0  0  0  0  0  0  0  0  0  0  0
    9.8397  -15.2871   27.7290 O   0  0  0  0  0  0  0  0  0  0  0  0
    8.4179  -16.8987   26.9991 O   0  0  0  0  0  0  0  0  0  0  0  0
  1  2  1  0
  2  4  1  0
  3  2  2  0
  4  5  1  0
  5  7  1  0
  5  6  1  6
  7  8  2  0
  9  7  1  0
  9 10  1  0
 10 14  1  0
 10 11  1  6
 12 11  1  0
 13 12  2  0
 14 15  2  0
 16 12  1  0
 18 17  1  0
 19 18  1  0
 19 21  1  0
 19 20  1  1
 21 23  1  0
 22 14  1  0
 21 22  1  6
 23 25  1  0
 24 23  2  0
M  END
$$$$
