NDI.pdb
     RDKit          3D

 25 24  0  0  1  0  0  0  0  0999 V2000
    8.6422  -12.5326   17.5552 N   0  0  0  0  0  0  0  0  0  0  0  0
    7.5791  -13.4426   17.7188 C   0  0  0  0  0  0  0  0  0  0  0  0
    6.7633  -13.5885   16.7485 O   0  0  0  0  0  0  0  0  0  0  0  0
    7.3380  -14.2398   18.9283 C   0  0  0  0  0  0  0  0  0  0  0  0
    8.3919  -13.9213   19.9780 C   0  0  2  0  0  0  0  0  0  0  0  0
    9.6870  -13.9286   19.3667 N   0  0  0  0  0  0  0  0  0  0  0  0
    8.2902  -14.8684   21.1143 C   0  0  0  0  0  0  0  0  0  0  0  0
    7.2190  -14.8098   21.7962 O   0  0  0  0  0  0  0  0  0  0  0  0
    9.3043  -15.7951   21.4489 N   0  0  0  0  0  0  0  0  0  0  0  0
    9.2040  -16.5331   22.6642 C   0  0  1  0  0  0  0  0  0  0  0  0
   10.0367  -17.8095   22.6681 C   0  0  0  0  0  0  0  0  0  0  0  0
    9.6650  -18.6383   21.5160 C   0  0  0  0  0  0  0  0  0  0  0  0
    8.5327  -19.1176   21.3217 O   0  0  0  0  0  0  0  0  0  0  0  0
    9.5549  -15.6880   23.8585 C   0  0  0  0  0  0  0  0  0  0  0  0
   10.7004  -15.1682   23.8914 O   0  0  0  0  0  0  0  0  0  0  0  0
   10.6540  -18.9067   20.5718 O   0  0  0  0  0  0  0  0  0  0  0  0
    6.1587  -12.1755   26.0459 C   0  0  0  0  0  0  0  0  0  0  0  0
    7.3828  -12.8562   25.4718 C   0  0  0  0  0  0  0  0  0  0  0  0
    7.9649  -13.7369   26.5225 C   0  0  2  0  0  0  0  0  0  0  0  0
    8.6040  -12.8147   27.5685 C   0  0  0  0  0  0  0  0  0  0  0  0
    9.0325  -14.6678   26.0385 C   0  0  2  0  0  0  0  0  0  0  0  0
    8.6355  -15.4748   24.9205 N   0  0  0  0  0  0  0  0  0  0  0  0
    9.4216  -15.5548   27.1526 C   0  0  0  0  0  0  0  0  0  0  0  0
    8.8794  -16.6728   27.3019 O   0  0  0  0  0  0  0  0  0  0  0  0
   10.3938  -15.1540   28.0443 O   0  0  0  0  0  0  0  0  0  0  0  0
  1  2  1  0
  2  4  1  0
  3  2  2  0
  4  5  1  0
  5  7  1  0
  5  6  1  6
  7  8  2  0
  9  7  1  0
  9 10  1  0
 10 14  1  0
 10 11  1  6
 12 11  1  0
 13 12  2  0
 14 15  2  0
 16 12  1  0
 18 17  1  0
 19 18  1  0
 19 21  1  0
 19 20  1  1
 21 23  1  0
 22 14  1  0
 21 22  1  6
 23 25  1  0
 24 23  2  0
M  END
$$$$
