NDI.pdb
     RDKit          3D

 25 24  0  0  1  0  0  0  0  0999 V2000
    9.0237  -14.1908   16.9341 N   0  0  0  0  0  0  0  0  0  0  0  0
    7.9055  -13.9774   17.7643 C   0  0  0  0  0  0  0  0  0  0  0  0
    6.9246  -14.7873   17.6647 O   0  0  0  0  0  0  0  0  0  0  0  0
    7.7834  -12.8872   18.7406 C   0  0  0  0  0  0  0  0  0  0  0  0
    8.9001  -12.9847   19.7691 C   0  0  2  0  0  0  0  0  0  0  0  0
   10.1433  -13.2197   19.0980 N   0  0  0  0  0  0  0  0  0  0  0  0
    8.5858  -14.0291   20.7736 C   0  0  0  0  0  0  0  0  0  0  0  0
    7.4799  -13.8995   21.3870 O   0  0  0  0  0  0  0  0  0  0  0  0
    9.4411  -15.1183   21.0583 N   0  0  0  0  0  0  0  0  0  0  0  0
    9.1225  -15.9946   22.1365 C   0  0  1  0  0  0  0  0  0  0  0  0
    9.8356  -17.3390   22.0553 C   0  0  0  0  0  0  0  0  0  0  0  0
    9.4079  -18.0459   20.8429 C   0  0  0  0  0  0  0  0  0  0  0  0
   10.1196  -18.2270   19.8379 O   0  0  0  0  0  0  0  0  0  0  0  0
    9.3877  -15.3530   23.4713 C   0  0  0  0  0  0  0  0  0  0  0  0
   10.4970  -14.7824   23.6363 O   0  0  0  0  0  0  0  0  0  0  0  0
    8.1091  -18.5503   20.8178 O   0  0  0  0  0  0  0  0  0  0  0  0
    6.0996  -12.0258   25.9736 C   0  0  0  0  0  0  0  0  0  0  0  0
    7.3007  -12.7375   25.3887 C   0  0  0  0  0  0  0  0  0  0  0  0
    7.6639  -13.8638   26.2931 C   0  0  2  0  0  0  0  0  0  0  0  0
    8.1790  -13.2371   27.5951 C   0  0  0  0  0  0  0  0  0  0  0  0
    8.7438  -14.7608   25.7737 C   0  0  2  0  0  0  0  0  0  0  0  0
    8.4286  -15.3819   24.5192 N   0  0  0  0  0  0  0  0  0  0  0  0
    9.0010  -15.8139   26.7757 C   0  0  0  0  0  0  0  0  0  0  0  0
    9.6956  -15.5787   27.7899 O   0  0  0  0  0  0  0  0  0  0  0  0
    8.4730  -17.0753   26.5997 O   0  0  0  0  0  0  0  0  0  0  0  0
  1  2  1  0
  2  4  1  0
  3  2  2  0
  4  5  1  0
  5  7  1  0
  5  6  1  6
  7  8  2  0
  9  7  1  0
  9 10  1  0
 10 14  1  0
 10 11  1  6
 12 11  1  0
 13 12  2  0
 14 15  2  0
 16 12  1  0
 18 17  1  0
 19 18  1  0
 19 21  1  0
 19 20  1  1
 21 23  1  0
 22 14  1  0
 21 22  1  6
 23 25  1  0
 24 23  2  0
M  END
$$$$
