NDI.pdb
     RDKit          3D

 25 24  0  0  1  0  0  0  0  0999 V2000
    8.8030  -14.4707   17.5712 N   0  0  0  0  0  0  0  0  0  0  0  0
    8.2495  -13.5771   18.5094 C   0  0  0  0  0  0  0  0  0  0  0  0
    8.1603  -12.3471   18.1820 O   0  0  0  0  0  0  0  0  0  0  0  0
    7.7651  -13.9569   19.8427 C   0  0  0  0  0  0  0  0  0  0  0  0
    7.9048  -15.4593   20.0367 C   0  0  2  0  0  0  0  0  0  0  0  0
    6.8851  -16.1306   19.2881 N   0  0  0  0  0  0  0  0  0  0  0  0
    7.8717  -15.7978   21.4799 C   0  0  0  0  0  0  0  0  0  0  0  0
    6.9197  -15.2891   22.1513 O   0  0  0  0  0  0  0  0  0  0  0  0
    8.8253  -16.6332   22.1059 N   0  0  0  0  0  0  0  0  0  0  0  0
    8.6201  -17.0386   23.4570 C   0  0  1  0  0  0  0  0  0  0  0  0
    9.2123  -18.4064   23.7754 C   0  0  0  0  0  0  0  0  0  0  0  0
    8.6176  -19.4137   22.8900 C   0  0  0  0  0  0  0  0  0  0  0  0
    7.4056  -19.6942   22.8462 O   0  0  0  0  0  0  0  0  0  0  0  0
    9.1403  -16.0154   24.4297 C   0  0  0  0  0  0  0  0  0  0  0  0
   10.3162  -15.5980   24.2670 O   0  0  0  0  0  0  0  0  0  0  0  0
    9.4749  -20.1055   22.0366 O   0  0  0  0  0  0  0  0  0  0  0  0
    6.0898  -12.0452   26.6445 C   0  0  0  0  0  0  0  0  0  0  0  0
    7.2088  -12.7979   25.9571 C   0  0  0  0  0  0  0  0  0  0  0  0
    7.9229  -13.6119   26.9798 C   0  0  2  0  0  0  0  0  0  0  0  0
    8.7007  -12.6285   27.8636 C   0  0  0  0  0  0  0  0  0  0  0  0
    8.9118  -14.5885   26.4242 C   0  0  2  0  0  0  0  0  0  0  0  0
    8.3434  -15.5275   25.5000 N   0  0  0  0  0  0  0  0  0  0  0  0
    9.5184  -15.3316   27.5463 C   0  0  0  0  0  0  0  0  0  0  0  0
   10.4522  -14.8343   28.2149 O   0  0  0  0  0  0  0  0  0  0  0  0
    9.0561  -16.5899   27.8685 O   0  0  0  0  0  0  0  0  0  0  0  0
  1  2  1  0
  2  4  1  0
  3  2  2  0
  4  5  1  0
  5  7  1  0
  5  6  1  6
  7  8  2  0
  9  7  1  0
  9 10  1  0
 10 14  1  0
 10 11  1  6
 12 11  1  0
 13 12  2  0
 14 15  2  0
 16 12  1  0
 18 17  1  0
 19 18  1  0
 19 21  1  0
 19 20  1  1
 21 23  1  0
 22 14  1  0
 21 22  1  6
 23 25  1  0
 24 23  2  0
M  END
$$$$
