NDI.pdb
     RDKit          3D

 25 24  0  0  1  0  0  0  0  0999 V2000
    8.9297  -14.4996   16.7087 N   0  0  0  0  0  0  0  0  0  0  0  0
    7.7479  -14.4414   17.4734 C   0  0  0  0  0  0  0  0  0  0  0  0
    6.9865  -15.4654   17.4750 O   0  0  0  0  0  0  0  0  0  0  0  0
    7.3242  -13.2849   18.2731 C   0  0  0  0  0  0  0  0  0  0  0  0
    8.3452  -13.0083   19.3664 C   0  0  2  0  0  0  0  0  0  0  0  0
    9.6439  -12.8717   18.7784 N   0  0  0  0  0  0  0  0  0  0  0  0
    8.2940  -14.0703   20.3999 C   0  0  0  0  0  0  0  0  0  0  0  0
    7.1648  -14.2576   20.9528 O   0  0  0  0  0  0  0  0  0  0  0  0
    9.4141  -14.8478   20.7738 N   0  0  0  0  0  0  0  0  0  0  0  0
    9.2855  -15.7976   21.8288 C   0  0  1  0  0  0  0  0  0  0  0  0
   10.2375  -16.9806   21.6982 C   0  0  0  0  0  0  0  0  0  0  0  0
   10.1028  -17.8476   22.8740 C   0  0  0  0  0  0  0  0  0  0  0  0
    9.0581  -18.4379   23.2053 O   0  0  0  0  0  0  0  0  0  0  0  0
    9.4489  -15.1543   23.1791 C   0  0  0  0  0  0  0  0  0  0  0  0
   10.4612  -14.4301   23.3637 O   0  0  0  0  0  0  0  0  0  0  0  0
   11.2285  -18.0209   23.6768 O   0  0  0  0  0  0  0  0  0  0  0  0
    6.7396  -11.7460   27.0157 C   0  0  0  0  0  0  0  0  0  0  0  0
    7.7826  -12.8422   26.9763 C   0  0  0  0  0  0  0  0  0  0  0  0
    7.6316  -13.5864   25.6949 C   0  0  2  0  0  0  0  0  0  0  0  0
    6.2691  -14.2890   25.7494 C   0  0  0  0  0  0  0  0  0  0  0  0
    8.6668  -14.6412   25.4575 C   0  0  2  0  0  0  0  0  0  0  0  0
    8.5014  -15.3482   24.2199 N   0  0  0  0  0  0  0  0  0  0  0  0
    8.6135  -15.6095   26.5706 C   0  0  0  0  0  0  0  0  0  0  0  0
    8.1279  -16.7510   26.4052 O   0  0  0  0  0  0  0  0  0  0  0  0
    9.1028  -15.2597   27.8112 O   0  0  0  0  0  0  0  0  0  0  0  0
  1  2  1  0
  2  4  1  0
  3  2  2  0
  4  5  1  0
  5  7  1  0
  5  6  1  6
  7  8  2  0
  9  7  1  0
  9 10  1  0
 10 14  1  0
 10 11  1  6
 12 11  1  0
 13 12  2  0
 14 15  2  0
 16 12  1  0
 18 17  1  0
 19 18  1  0
 19 21  1  0
 19 20  1  1
 21 23  1  0
 22 14  1  0
 21 22  1  6
 23 25  1  0
 24 23  2  0
M  END
$$$$
