NDI.pdb
     RDKit          3D

 25 24  0  0  1  0  0  0  0  0999 V2000
    9.1225  -13.0558   17.2501 N   0  0  0  0  0  0  0  0  0  0  0  0
    7.9519  -13.8388   17.2110 C   0  0  0  0  0  0  0  0  0  0  0  0
    7.5344  -14.2321   16.0711 O   0  0  0  0  0  0  0  0  0  0  0  0
    7.1721  -14.2385   18.3894 C   0  0  0  0  0  0  0  0  0  0  0  0
    7.8149  -13.6804   19.6502 C   0  0  2  0  0  0  0  0  0  0  0  0
    9.0954  -13.1279   19.3247 N   0  0  0  0  0  0  0  0  0  0  0  0
    7.8932  -14.7287   20.6961 C   0  0  0  0  0  0  0  0  0  0  0  0
    6.7856  -15.2265   21.0721 O   0  0  0  0  0  0  0  0  0  0  0  0
    9.1094  -15.1728   21.2639 N   0  0  0  0  0  0  0  0  0  0  0  0
    9.0779  -16.0694   22.3716 C   0  0  1  0  0  0  0  0  0  0  0  0
   10.0592  -17.2282   22.2410 C   0  0  0  0  0  0  0  0  0  0  0  0
   10.0448  -18.0213   23.4751 C   0  0  0  0  0  0  0  0  0  0  0  0
    9.0288  -18.5377   23.9757 O   0  0  0  0  0  0  0  0  0  0  0  0
    9.3024  -15.3515   23.6746 C   0  0  0  0  0  0  0  0  0  0  0  0
   10.3854  -14.7276   23.8201 O   0  0  0  0  0  0  0  0  0  0  0  0
   11.2590  -18.2084   24.1328 O   0  0  0  0  0  0  0  0  0  0  0  0
    5.9694  -11.8323   25.5918 C   0  0  0  0  0  0  0  0  0  0  0  0
    7.1552  -12.6631   25.1502 C   0  0  0  0  0  0  0  0  0  0  0  0
    7.4728  -13.6376   26.2309 C   0  0  2  0  0  0  0  0  0  0  0  0
    7.9313  -12.8185   27.4443 C   0  0  0  0  0  0  0  0  0  0  0  0
    8.5712  -14.6002   25.9034 C   0  0  2  0  0  0  0  0  0  0  0  0
    8.3343  -15.3680   24.7145 N   0  0  0  0  0  0  0  0  0  0  0  0
    8.7398  -15.5245   27.0421 C   0  0  0  0  0  0  0  0  0  0  0  0
    9.2583  -15.1357   28.1127 O   0  0  0  0  0  0  0  0  0  0  0  0
    8.3234  -16.8344   26.9329 O   0  0  0  0  0  0  0  0  0  0  0  0
  1  2  1  0
  2  4  1  0
  3  2  2  0
  4  5  1  0
  5  7  1  0
  5  6  1  6
  7  8  2  0
  9  7  1  0
  9 10  1  0
 10 14  1  0
 10 11  1  6
 12 11  1  0
 13 12  2  0
 14 15  2  0
 16 12  1  0
 18 17  1  0
 19 18  1  0
 19 21  1  0
 19 20  1  1
 21 23  1  0
 22 14  1  0
 21 22  1  6
 23 25  1  0
 24 23  2  0
M  END
$$$$
