NDI.pdb
     RDKit          3D

 25 24  0  0  1  0  0  0  0  0999 V2000
    8.4644  -12.1214   18.1013 N   0  0  0  0  0  0  0  0  0  0  0  0
    7.8671  -13.3974   18.0913 C   0  0  0  0  0  0  0  0  0  0  0  0
    7.5486  -13.8988   16.9620 O   0  0  0  0  0  0  0  0  0  0  0  0
    7.5820  -14.1978   19.2891 C   0  0  0  0  0  0  0  0  0  0  0  0
    8.7712  -15.0898   19.6118 C   0  0  2  0  0  0  0  0  0  0  0  0
    8.8921  -16.1011   18.6049 N   0  0  0  0  0  0  0  0  0  0  0  0
    8.6367  -15.6543   20.9763 C   0  0  0  0  0  0  0  0  0  0  0  0
    7.4760  -15.5991   21.4918 O   0  0  0  0  0  0  0  0  0  0  0  0
    9.7131  -16.2277   21.6915 N   0  0  0  0  0  0  0  0  0  0  0  0
    9.4777  -16.7837   22.9827 C   0  0  1  0  0  0  0  0  0  0  0  0
   10.3361  -18.0073   23.2809 C   0  0  0  0  0  0  0  0  0  0  0  0
   10.0142  -19.0736   22.3261 C   0  0  0  0  0  0  0  0  0  0  0  0
   10.6559  -19.3140   21.2869 O   0  0  0  0  0  0  0  0  0  0  0  0
    9.6511  -15.7582   24.0698 C   0  0  0  0  0  0  0  0  0  0  0  0
   10.7143  -15.0851   24.0752 O   0  0  0  0  0  0  0  0  0  0  0  0
    8.9086  -19.8743   22.6059 O   0  0  0  0  0  0  0  0  0  0  0  0
    5.9370  -12.2165   25.4970 C   0  0  0  0  0  0  0  0  0  0  0  0
    7.2166  -12.9351   25.1258 C   0  0  0  0  0  0  0  0  0  0  0  0
    7.7097  -13.6641   26.3274 C   0  0  2  0  0  0  0  0  0  0  0  0
    8.1525  -12.5999   27.3396 C   0  0  0  0  0  0  0  0  0  0  0  0
    8.8844  -14.5580   26.0793 C   0  0  2  0  0  0  0  0  0  0  0  0
    8.6577  -15.5453   25.0631 N   0  0  0  0  0  0  0  0  0  0  0  0
    9.2274  -15.2428   27.3413 C   0  0  0  0  0  0  0  0  0  0  0  0
    9.7846  -14.6244   28.2759 O   0  0  0  0  0  0  0  0  0  0  0  0
    8.9337  -16.5804   27.5005 O   0  0  0  0  0  0  0  0  0  0  0  0
  1  2  1  0
  2  4  1  0
  3  2  2  0
  4  5  1  0
  5  7  1  0
  5  6  1  6
  7  8  2  0
  9  7  1  0
  9 10  1  0
 10 14  1  0
 10 11  1  1
 12 11  1  0
 13 12  2  0
 14 15  2  0
 16 12  1  0
 18 17  1  0
 19 18  1  0
 19 21  1  0
 19 20  1  1
 21 23  1  0
 22 14  1  0
 21 22  1  6
 23 25  1  0
 24 23  2  0
M  END
$$$$
