NDI.pdb
     RDKit          3D

 25 24  0  0  1  0  0  0  0  0999 V2000
    8.4379  -12.7003   16.9795 N   0  0  0  0  0  0  0  0  0  0  0  0
    7.6508  -13.8681   17.0227 C   0  0  0  0  0  0  0  0  0  0  0  0
    7.1855  -14.3157   15.9221 O   0  0  0  0  0  0  0  0  0  0  0  0
    7.3240  -14.6128   18.2455 C   0  0  0  0  0  0  0  0  0  0  0  0
    7.9761  -13.9471   19.4479 C   0  0  2  0  0  0  0  0  0  0  0  0
    9.2285  -13.3762   19.0522 N   0  0  0  0  0  0  0  0  0  0  0  0
    8.1156  -14.9167   20.5610 C   0  0  0  0  0  0  0  0  0  0  0  0
    7.0313  -15.3504   21.0632 O   0  0  0  0  0  0  0  0  0  0  0  0
    9.3636  -15.3554   21.0600 N   0  0  0  0  0  0  0  0  0  0  0  0
    9.4029  -16.1618   22.2347 C   0  0  1  0  0  0  0  0  0  0  0  0
   10.5228  -17.1955   22.2225 C   0  0  0  0  0  0  0  0  0  0  0  0
   10.6047  -17.8418   23.5370 C   0  0  0  0  0  0  0  0  0  0  0  0
    9.6688  -18.4483   24.0898 O   0  0  0  0  0  0  0  0  0  0  0  0
    9.4913  -15.3243   23.4814 C   0  0  0  0  0  0  0  0  0  0  0  0
   10.4460  -14.5098   23.5728 O   0  0  0  0  0  0  0  0  0  0  0  0
   11.8207  -17.7695   24.2137 O   0  0  0  0  0  0  0  0  0  0  0  0
    6.5620  -11.4640   26.5692 C   0  0  0  0  0  0  0  0  0  0  0  0
    7.5757  -12.5623   26.8089 C   0  0  0  0  0  0  0  0  0  0  0  0
    7.5184  -13.5109   25.6621 C   0  0  2  0  0  0  0  0  0  0  0  0
    6.1875  -14.2648   25.7777 C   0  0  0  0  0  0  0  0  0  0  0  0
    8.6095  -14.5354   25.6416 C   0  0  2  0  0  0  0  0  0  0  0  0
    8.5373  -15.4377   24.5282 N   0  0  0  0  0  0  0  0  0  0  0  0
    8.5434  -15.3160   26.8929 C   0  0  0  0  0  0  0  0  0  0  0  0
    8.7391  -14.7690   28.0013 O   0  0  0  0  0  0  0  0  0  0  0  0
    8.2631  -16.6652   26.8485 O   0  0  0  0  0  0  0  0  0  0  0  0
  1  2  1  0
  2  4  1  0
  3  2  2  0
  4  5  1  0
  5  7  1  0
  5  6  1  6
  7  8  2  0
  9  7  1  0
  9 10  1  0
 10 14  1  0
 10 11  1  6
 12 11  1  0
 13 12  2  0
 14 15  2  0
 16 12  1  0
 18 17  1  0
 19 18  1  0
 19 21  1  0
 19 20  1  1
 21 23  1  0
 22 14  1  0
 21 22  1  6
 23 25  1  0
 24 23  2  0
M  END
$$$$
