NDI.pdb
     RDKit          3D

 25 24  0  0  1  0  0  0  0  0999 V2000
    7.9999  -13.9062   15.9695 N   0  0  0  0  0  0  0  0  0  0  0  0
    7.8282  -14.0509   17.3604 C   0  0  0  0  0  0  0  0  0  0  0  0
    8.1391  -15.1707   17.8872 O   0  0  0  0  0  0  0  0  0  0  0  0
    7.3157  -13.0044   18.2541 C   0  0  0  0  0  0  0  0  0  0  0  0
    8.2605  -12.8199   19.4320 C   0  0  2  0  0  0  0  0  0  0  0  0
    9.6103  -12.7800   18.9552 N   0  0  0  0  0  0  0  0  0  0  0  0
    8.0412  -13.8849   20.4402 C   0  0  0  0  0  0  0  0  0  0  0  0
    6.8562  -13.9959   20.8867 O   0  0  0  0  0  0  0  0  0  0  0  0
    9.0653  -14.7440   20.9008 N   0  0  0  0  0  0  0  0  0  0  0  0
    8.7597  -15.7348   21.8790 C   0  0  1  0  0  0  0  0  0  0  0  0
    9.3957  -17.0890   21.5886 C   0  0  0  0  0  0  0  0  0  0  0  0
    9.0753  -18.0216   22.6748 C   0  0  0  0  0  0  0  0  0  0  0  0
    7.9663  -18.5613   22.8437 O   0  0  0  0  0  0  0  0  0  0  0  0
    9.1300  -15.2807   23.2648 C   0  0  0  0  0  0  0  0  0  0  0  0
   10.2924  -14.8331   23.4429 O   0  0  0  0  0  0  0  0  0  0  0  0
   10.0887  -18.3234   23.5824 O   0  0  0  0  0  0  0  0  0  0  0  0
    6.1257  -12.0107   26.2623 C   0  0  0  0  0  0  0  0  0  0  0  0
    7.2427  -12.7253   25.5324 C   0  0  0  0  0  0  0  0  0  0  0  0
    7.5648  -13.9744   26.2771 C   0  0  2  0  0  0  0  0  0  0  0  0
    8.1186  -13.5454   27.6417 C   0  0  0  0  0  0  0  0  0  0  0  0
    8.5997  -14.8405   25.6294 C   0  0  2  0  0  0  0  0  0  0  0  0
    8.2099  -15.3487   24.3454 N   0  0  0  0  0  0  0  0  0  0  0  0
    8.8865  -15.9782   26.5253 C   0  0  0  0  0  0  0  0  0  0  0  0
    8.2449  -17.0484   26.4289 O   0  0  0  0  0  0  0  0  0  0  0  0
    9.8722  -15.8686   27.4832 O   0  0  0  0  0  0  0  0  0  0  0  0
  1  2  1  0
  2  4  1  0
  3  2  2  0
  4  5  1  0
  5  7  1  0
  5  6  1  6
  7  8  2  0
  9  7  1  0
  9 10  1  0
 10 14  1  0
 10 11  1  6
 12 11  1  0
 13 12  2  0
 14 15  2  0
 16 12  1  0
 18 17  1  0
 19 18  1  0
 19 21  1  0
 19 20  1  1
 21 23  1  0
 22 14  1  0
 21 22  1  6
 23 25  1  0
 24 23  2  0
M  END
$$$$
