NDI.pdb
     RDKit          3D

 25 24  0  0  1  0  0  0  0  0999 V2000
    8.8302  -13.3829   16.0981 N   0  0  0  0  0  0  0  0  0  0  0  0
    7.9075  -14.2274   16.7464 C   0  0  0  0  0  0  0  0  0  0  0  0
    6.7540  -14.3680   16.2192 O   0  0  0  0  0  0  0  0  0  0  0  0
    8.1746  -14.9617   17.9897 C   0  0  0  0  0  0  0  0  0  0  0  0
    7.7683  -14.1175   19.1882 C   0  0  2  0  0  0  0  0  0  0  0  0
    8.4847  -12.8778   19.1594 N   0  0  0  0  0  0  0  0  0  0  0  0
    7.9816  -14.8724   20.4465 C   0  0  0  0  0  0  0  0  0  0  0  0
    6.9618  -15.0155   21.1918 O   0  0  0  0  0  0  0  0  0  0  0  0
    9.2305  -15.4149   20.8270 N   0  0  0  0  0  0  0  0  0  0  0  0
    9.3332  -16.1462   22.0462 C   0  0  1  0  0  0  0  0  0  0  0  0
   10.5494  -17.0630   22.1020 C   0  0  0  0  0  0  0  0  0  0  0  0
   10.5494  -17.9456   20.9301 C   0  0  0  0  0  0  0  0  0  0  0  0
    9.7371  -18.8686   20.7360 O   0  0  0  0  0  0  0  0  0  0  0  0
    9.3221  -15.2352   23.2436 C   0  0  0  0  0  0  0  0  0  0  0  0
   10.1519  -14.2896   23.2671 O   0  0  0  0  0  0  0  0  0  0  0  0
   11.5320  -17.7324   19.9653 O   0  0  0  0  0  0  0  0  0  0  0  0
    6.2849  -11.5936   26.4873 C   0  0  0  0  0  0  0  0  0  0  0  0
    7.3708  -12.6326   26.6682 C   0  0  0  0  0  0  0  0  0  0  0  0
    7.3519  -13.5401   25.4873 C   0  0  2  0  0  0  0  0  0  0  0  0
    6.0382  -14.3292   25.5569 C   0  0  0  0  0  0  0  0  0  0  0  0
    8.4678  -14.5369   25.4455 C   0  0  2  0  0  0  0  0  0  0  0  0
    8.4122  -15.4232   24.3184 N   0  0  0  0  0  0  0  0  0  0  0  0
    8.4273  -15.3383   26.6847 C   0  0  0  0  0  0  0  0  0  0  0  0
    8.6329  -14.8074   27.7991 O   0  0  0  0  0  0  0  0  0  0  0  0
    8.1604  -16.6896   26.6221 O   0  0  0  0  0  0  0  0  0  0  0  0
  1  2  1  0
  2  4  1  0
  3  2  2  0
  4  5  1  0
  5  7  1  0
  5  6  1  1
  7  8  2  0
  9  7  1  0
  9 10  1  0
 10 14  1  0
 10 11  1  6
 12 11  1  0
 13 12  2  0
 14 15  2  0
 16 12  1  0
 18 17  1  0
 19 18  1  0
 19 21  1  0
 19 20  1  1
 21 23  1  0
 22 14  1  0
 21 22  1  6
 23 25  1  0
 24 23  2  0
M  END
$$$$
