NDI.pdb
     RDKit          3D

 25 24  0  0  1  0  0  0  0  0999 V2000
    9.1084  -13.0587   17.0907 N   0  0  0  0  0  0  0  0  0  0  0  0
    7.8343  -13.6246   17.2945 C   0  0  0  0  0  0  0  0  0  0  0  0
    7.0816  -13.7834   16.2764 O   0  0  0  0  0  0  0  0  0  0  0  0
    7.3047  -14.0475   18.5972 C   0  0  0  0  0  0  0  0  0  0  0  0
    8.2830  -13.6743   19.7007 C   0  0  2  0  0  0  0  0  0  0  0  0
    9.5981  -13.5521   19.1468 N   0  0  0  0  0  0  0  0  0  0  0  0
    8.2166  -14.6625   20.8042 C   0  0  0  0  0  0  0  0  0  0  0  0
    7.0949  -14.7680   21.3928 O   0  0  0  0  0  0  0  0  0  0  0  0
    9.3151  -15.4571   21.2051 N   0  0  0  0  0  0  0  0  0  0  0  0
    9.2001  -16.2740   22.3676 C   0  0  1  0  0  0  0  0  0  0  0  0
   10.1361  -17.4767   22.3577 C   0  0  0  0  0  0  0  0  0  0  0  0
    9.8889  -18.2776   21.1536 C   0  0  0  0  0  0  0  0  0  0  0  0
    8.8293  -18.8830   20.9084 O   0  0  0  0  0  0  0  0  0  0  0  0
    9.4008  -15.4782   23.6286 C   0  0  0  0  0  0  0  0  0  0  0  0
   10.4616  -14.8102   23.7364 O   0  0  0  0  0  0  0  0  0  0  0  0
   10.9177  -18.3650   20.2178 O   0  0  0  0  0  0  0  0  0  0  0  0
    5.8687  -12.1452   25.6634 C   0  0  0  0  0  0  0  0  0  0  0  0
    7.1094  -12.8630   25.1769 C   0  0  0  0  0  0  0  0  0  0  0  0
    7.5564  -13.8011   26.2440 C   0  0  2  0  0  0  0  0  0  0  0  0
    8.0426  -12.9387   27.4158 C   0  0  0  0  0  0  0  0  0  0  0  0
    8.6879  -14.7001   25.8540 C   0  0  2  0  0  0  0  0  0  0  0  0
    8.4349  -15.4710   24.6705 N   0  0  0  0  0  0  0  0  0  0  0  0
    8.9619  -15.6219   26.9740 C   0  0  0  0  0  0  0  0  0  0  0  0
    8.3342  -16.6987   27.0869 O   0  0  0  0  0  0  0  0  0  0  0  0
    9.9201  -15.3001   27.9117 O   0  0  0  0  0  0  0  0  0  0  0  0
  1  2  1  0
  2  4  1  0
  3  2  2  0
  4  5  1  0
  5  7  1  0
  5  6  1  6
  7  8  2  0
  9  7  1  0
  9 10  1  0
 10 14  1  0
 10 11  1  6
 12 11  1  0
 13 12  2  0
 14 15  2  0
 16 12  1  0
 18 17  1  0
 19 18  1  0
 19 21  1  0
 19 20  1  1
 21 23  1  0
 22 14  1  0
 21 22  1  6
 23 25  1  0
 24 23  2  0
M  END
$$$$
