NDI.pdb
     RDKit          3D

 25 24  0  0  1  0  0  0  0  0999 V2000
    9.3820  -14.7094   17.7889 N   0  0  0  0  0  0  0  0  0  0  0  0
    8.0707  -14.2527   17.5505 C   0  0  0  0  0  0  0  0  0  0  0  0
    7.4659  -14.6878   16.5146 O   0  0  0  0  0  0  0  0  0  0  0  0
    7.3438  -13.3086   18.4090 C   0  0  0  0  0  0  0  0  0  0  0  0
    8.1754  -12.9812   19.6401 C   0  0  2  0  0  0  0  0  0  0  0  0
    9.5029  -12.6281   19.2351 N   0  0  0  0  0  0  0  0  0  0  0  0
    8.1511  -14.1154   20.5949 C   0  0  0  0  0  0  0  0  0  0  0  0
    7.0114  -14.4257   21.0648 O   0  0  0  0  0  0  0  0  0  0  0  0
    9.3067  -14.8319   20.9825 N   0  0  0  0  0  0  0  0  0  0  0  0
    9.2008  -15.8413   21.9833 C   0  0  1  0  0  0  0  0  0  0  0  0
   10.2259  -16.9583   21.8277 C   0  0  0  0  0  0  0  0  0  0  0  0
   10.0745  -17.5791   20.5071 C   0  0  0  0  0  0  0  0  0  0  0  0
   10.9354  -17.5558   19.6083 O   0  0  0  0  0  0  0  0  0  0  0  0
    9.2809  -15.2609   23.3691 C   0  0  0  0  0  0  0  0  0  0  0  0
   10.3162  -14.6137   23.6736 O   0  0  0  0  0  0  0  0  0  0  0  0
    8.8781  -18.2428   20.2425 O   0  0  0  0  0  0  0  0  0  0  0  0
    5.8735  -12.0445   25.6278 C   0  0  0  0  0  0  0  0  0  0  0  0
    7.0939  -12.8047   25.1543 C   0  0  0  0  0  0  0  0  0  0  0  0
    7.2972  -13.9724   26.0563 C   0  0  2  0  0  0  0  0  0  0  0  0
    7.6787  -13.4084   27.4309 C   0  0  0  0  0  0  0  0  0  0  0  0
    8.3921  -14.9036   25.6381 C   0  0  2  0  0  0  0  0  0  0  0  0
    8.2320  -15.4291   24.3126 N   0  0  0  0  0  0  0  0  0  0  0  0
    8.4423  -16.0276   26.5938 C   0  0  0  0  0  0  0  0  0  0  0  0
    7.7287  -17.0424   26.4288 O   0  0  0  0  0  0  0  0  0  0  0  0
    9.2832  -15.9665   27.6848 O   0  0  0  0  0  0  0  0  0  0  0  0
  1  2  1  0
  2  4  1  0
  3  2  2  0
  4  5  1  0
  5  7  1  0
  5  6  1  6
  7  8  2  0
  9  7  1  0
  9 10  1  0
 10 14  1  0
 10 11  1  6
 12 11  1  0
 13 12  2  0
 14 15  2  0
 16 12  1  0
 18 17  1  0
 19 18  1  0
 19 21  1  0
 19 20  1  1
 21 23  1  0
 22 14  1  0
 21 22  1  6
 23 25  1  0
 24 23  2  0
M  END
$$$$
