NKA.pdb
     RDKit          3D

 23 22  0  0  1  0  0  0  0  0999 V2000
   11.0924  -17.4232   17.1691 N   0  0  0  0  0  0  0  0  0  0  0  0
    9.9087  -16.9086   17.7573 C   0  0  0  0  0  0  0  0  0  0  0  0
    8.8093  -17.1400   17.2195 O   0  0  0  0  0  0  0  0  0  0  0  0
   10.0162  -16.1119   18.9944 C   0  0  0  0  0  0  0  0  0  0  0  0
    9.1707  -16.6643   20.1007 C   0  0  2  0  0  0  0  0  0  0  0  0
    7.7839  -16.8133   19.7460 N   0  0  0  0  0  0  0  0  0  0  0  0
    9.3851  -15.9798   21.3832 C   0  0  0  0  0  0  0  0  0  0  0  0
   10.5727  -15.7548   21.7343 O   0  0  0  0  0  0  0  0  0  0  0  0
    8.3360  -15.5638   22.2382 N   0  0  0  0  0  0  0  0  0  0  0  0
    8.6003  -14.9446   23.5070 C   0  0  1  0  0  0  0  0  0  0  0  0
    7.4662  -14.0805   24.0117 C   0  0  0  0  0  0  0  0  0  0  0  0
    7.7357  -13.4734   25.3483 C   0  0  0  0  0  0  0  0  0  0  0  0
    6.5641  -12.5769   25.6975 C   0  0  0  0  0  0  0  0  0  0  0  0
    6.7273  -11.9235   27.0364 C   0  0  0  0  0  0  0  0  0  0  0  0
    5.6369  -11.0758   27.4059 N   0  0  0  0  0  0  0  0  0  0  0  0
    8.9246  -15.9837   24.4956 C   0  0  0  0  0  0  0  0  0  0  0  0
    8.0139  -16.7128   24.9526 O   0  0  0  0  0  0  0  0  0  0  0  0
   12.0336  -17.7401   25.6822 C   0  0  0  0  0  0  0  0  0  0  0  0
   10.6077  -17.2912   25.8457 C   0  0  2  0  0  0  0  0  0  0  0  0
   10.2405  -16.2180   24.9764 N   0  0  0  0  0  0  0  0  0  0  0  0
   10.3761  -16.9012   27.2615 C   0  0  0  0  0  0  0  0  0  0  0  0
   10.4132  -17.8157   28.1220 O   0  0  0  0  0  0  0  0  0  0  0  0
   10.1272  -15.5634   27.6067 O   0  0  0  0  0  0  0  0  0  0  0  0
  2  1  1  0
  3  2  2  0
  4  5  1  0
  4  2  1  0
  5  7  1  0
  5  6  1  6
  7  8  2  0
  9 10  1  0
  9  7  1  0
 11 12  1  0
 10 11  1  1
 12 13  1  0
 14 13  1  0
 15 14  1  0
 16 10  1  0
 16 17  2  0
 19 18  1  1
 19 20  1  0
 19 21  1  0
 20 16  1  0
 21 22  2  0
 21 23  1  0
M  END
$$$$
