NKA.pdb
     RDKit          3D

 23 22  0  0  1  0  0  0  0  0999 V2000
   12.5646  -18.3218   19.9789 N   0  0  0  0  0  0  0  0  0  0  0  0
   11.7746  -17.4121   19.2304 C   0  0  0  0  0  0  0  0  0  0  0  0
   12.1223  -17.1106   18.0729 O   0  0  0  0  0  0  0  0  0  0  0  0
   10.5590  -16.8487   19.8481 C   0  0  0  0  0  0  0  0  0  0  0  0
   10.3375  -17.3632   21.2375 C   0  0  2  0  0  0  0  0  0  0  0  0
    9.2856  -18.3411   21.3284 N   0  0  0  0  0  0  0  0  0  0  0  0
   10.2394  -16.2910   22.2374 C   0  0  0  0  0  0  0  0  0  0  0  0
   11.0873  -15.3623   22.1839 O   0  0  0  0  0  0  0  0  0  0  0  0
    9.2505  -16.2473   23.2498 N   0  0  0  0  0  0  0  0  0  0  0  0
    9.1828  -15.1626   24.1890 C   0  0  1  0  0  0  0  0  0  0  0  0
    7.7717  -14.7677   24.5637 C   0  0  0  0  0  0  0  0  0  0  0  0
    7.7123  -13.6143   25.5091 C   0  0  0  0  0  0  0  0  0  0  0  0
    6.2531  -13.3322   25.8086 C   0  0  0  0  0  0  0  0  0  0  0  0
    6.0728  -12.1103   26.6575 C   0  0  0  0  0  0  0  0  0  0  0  0
    4.7060  -11.7674   26.8992 N   0  0  0  0  0  0  0  0  0  0  0  0
    9.9473  -15.5163   25.3944 C   0  0  0  0  0  0  0  0  0  0  0  0
   10.4678  -16.6520   25.4892 O   0  0  0  0  0  0  0  0  0  0  0  0
   10.9406  -13.8136   28.6587 C   0  0  0  0  0  0  0  0  0  0  0  0
   10.9844  -14.8870   27.6064 C   0  0  2  0  0  0  0  0  0  0  0  0
   10.1372  -14.6268   26.4854 N   0  0  0  0  0  0  0  0  0  0  0  0
   10.6269  -16.1919   28.2225 C   0  0  0  0  0  0  0  0  0  0  0  0
    9.5455  -16.7196   27.8619 O   0  0  0  0  0  0  0  0  0  0  0  0
   11.4721  -16.7962   29.1665 O   0  0  0  0  0  0  0  0  0  0  0  0
  2  1  1  0
  3  2  2  0
  4  5  1  0
  4  2  1  0
  5  7  1  0
  5  6  1  6
  7  8  2  0
  9 10  1  0
  9  7  1  0
 11 12  1  0
 10 11  1  1
 12 13  1  0
 14 13  1  0
 15 14  1  0
 16 10  1  0
 16 17  2  0
 19 18  1  1
 19 20  1  0
 19 21  1  0
 20 16  1  0
 21 22  2  0
 21 23  1  0
M  END
$$$$
