NKA.pdb
     RDKit          3D

 23 22  0  0  1  0  0  0  0  0999 V2000
   15.6489  -17.9078   15.9094 N   0  0  0  0  0  0  0  0  0  0  0  0
   14.4239  -17.3782   15.4288 C   0  0  0  0  0  0  0  0  0  0  0  0
   14.2506  -17.2578   14.2012 O   0  0  0  0  0  0  0  0  0  0  0  0
   13.3873  -16.9849   16.4021 C   0  0  0  0  0  0  0  0  0  0  0  0
   12.4301  -18.0997   16.6937 C   0  0  2  0  0  0  0  0  0  0  0  0
   11.6841  -18.5338   15.5421 N   0  0  0  0  0  0  0  0  0  0  0  0
   11.5989  -17.8469   17.8788 C   0  0  0  0  0  0  0  0  0  0  0  0
   11.0764  -16.7077   17.9942 O   0  0  0  0  0  0  0  0  0  0  0  0
   11.3568  -18.8083   18.8897 N   0  0  0  0  0  0  0  0  0  0  0  0
   10.4457  -18.5510   19.9699 C   0  0  1  0  0  0  0  0  0  0  0  0
    9.6729  -19.7710   20.4194 C   0  0  0  0  0  0  0  0  0  0  0  0
    8.5937  -20.1701   19.4686 C   0  0  0  0  0  0  0  0  0  0  0  0
    8.0350  -21.5016   19.9306 C   0  0  0  0  0  0  0  0  0  0  0  0
    6.9289  -21.9917   19.0460 C   0  0  0  0  0  0  0  0  0  0  0  0
    6.4530  -23.2978   19.3805 N   0  0  0  0  0  0  0  0  0  0  0  0
   11.1861  -17.9744   21.1020 C   0  0  0  0  0  0  0  0  0  0  0  0
   12.3863  -18.2852   21.2827 O   0  0  0  0  0  0  0  0  0  0  0  0
   10.5447  -15.3689   23.8030 C   0  0  0  0  0  0  0  0  0  0  0  0
   11.3050  -16.4778   23.1295 C   0  0  2  0  0  0  0  0  0  0  0  0
   10.6099  -17.0630   22.0266 N   0  0  0  0  0  0  0  0  0  0  0  0
   11.6387  -17.5228   24.1330 C   0  0  0  0  0  0  0  0  0  0  0  0
   10.9257  -18.5570   24.1433 O   0  0  0  0  0  0  0  0  0  0  0  0
   12.7081  -17.3466   25.0252 O   0  0  0  0  0  0  0  0  0  0  0  0
  2  1  1  0
  3  2  2  0
  4  5  1  0
  4  2  1  0
  5  7  1  0
  5  6  1  6
  7  8  2  0
  9 10  1  0
  9  7  1  0
 11 12  1  0
 10 11  1  1
 12 13  1  0
 14 13  1  0
 15 14  1  0
 16 10  1  0
 16 17  2  0
 19 18  1  1
 19 20  1  0
 19 21  1  0
 20 16  1  0
 21 22  2  0
 21 23  1  0
M  END
$$$$
