NKA.pdb
     RDKit          3D

 23 22  0  0  1  0  0  0  0  0999 V2000
   11.3335  -18.9593   16.8695 N   0  0  0  0  0  0  0  0  0  0  0  0
   11.3269  -17.5480   16.7273 C   0  0  0  0  0  0  0  0  0  0  0  0
   11.7674  -17.0379   15.6799 O   0  0  0  0  0  0  0  0  0  0  0  0
   10.7951  -16.7236   17.8292 C   0  0  0  0  0  0  0  0  0  0  0  0
   10.3679  -17.5512   19.0025 C   0  0  2  0  0  0  0  0  0  0  0  0
    9.3046  -18.4727   18.7003 N   0  0  0  0  0  0  0  0  0  0  0  0
   10.1349  -16.7523   20.2136 C   0  0  0  0  0  0  0  0  0  0  0  0
   11.1400  -16.2714   20.7990 O   0  0  0  0  0  0  0  0  0  0  0  0
    8.8509  -16.4973   20.7531 N   0  0  0  0  0  0  0  0  0  0  0  0
    8.6783  -15.7246   21.9516 C   0  0  1  0  0  0  0  0  0  0  0  0
    7.3297  -15.0472   22.0513 C   0  0  0  0  0  0  0  0  0  0  0  0
    6.9266  -14.3460   20.7968 C   0  0  0  0  0  0  0  0  0  0  0  0
    8.0863  -13.4739   20.3576 C   0  0  0  0  0  0  0  0  0  0  0  0
    7.7882  -12.7257   19.0936 C   0  0  0  0  0  0  0  0  0  0  0  0
    8.8639  -11.9008   18.6393 N   0  0  0  0  0  0  0  0  0  0  0  0
    8.8998  -16.5879   23.1212 C   0  0  0  0  0  0  0  0  0  0  0  0
    8.1948  -17.6112   23.2809 O   0  0  0  0  0  0  0  0  0  0  0  0
   10.6730  -18.5933   24.6337 C   0  0  0  0  0  0  0  0  0  0  0  0
   10.2647  -17.2378   25.1410 C   0  0  2  0  0  0  0  0  0  0  0  0
    9.8894  -16.3266   24.1061 N   0  0  0  0  0  0  0  0  0  0  0  0
   11.3727  -16.6627   25.9484 C   0  0  0  0  0  0  0  0  0  0  0  0
   11.7826  -17.3392   26.9243 O   0  0  0  0  0  0  0  0  0  0  0  0
   11.9269  -15.4149   25.6219 O   0  0  0  0  0  0  0  0  0  0  0  0
  2  1  1  0
  3  2  2  0
  4  5  1  0
  4  2  1  0
  5  7  1  0
  5  6  1  6
  7  8  2  0
  9 10  1  0
  9  7  1  0
 11 12  1  0
 10 11  1  1
 12 13  1  0
 14 13  1  0
 15 14  1  0
 16 10  1  0
 16 17  2  0
 19 18  1  6
 19 20  1  0
 19 21  1  0
 20 16  1  0
 21 22  2  0
 21 23  1  0
M  END
$$$$
