NKA.pdb
     RDKit          3D

 23 22  0  0  1  0  0  0  0  0999 V2000
    1.4957  -21.5819   17.5546 N   0  0  0  0  0  0  0  0  0  0  0  0
    0.7078  -20.7860   18.4251 C   0  0  0  0  0  0  0  0  0  0  0  0
   -0.3042  -20.2125   17.9796 O   0  0  0  0  0  0  0  0  0  0  0  0
    1.1124  -20.6618   19.8385 C   0  0  0  0  0  0  0  0  0  0  0  0
    2.3993  -21.3729   20.1252 C   0  0  2  0  0  0  0  0  0  0  0  0
    2.6012  -22.5462   19.3168 N   0  0  0  0  0  0  0  0  0  0  0  0
    2.6248  -21.5945   21.5602 C   0  0  0  0  0  0  0  0  0  0  0  0
    3.1478  -20.6596   22.2211 O   0  0  0  0  0  0  0  0  0  0  0  0
    2.2886  -22.7938   22.2336 N   0  0  0  0  0  0  0  0  0  0  0  0
    2.5354  -22.9625   23.6385 C   0  0  1  0  0  0  0  0  0  0  0  0
    1.6999  -24.0488   24.2783 C   0  0  0  0  0  0  0  0  0  0  0  0
    1.8582  -24.1199   25.7607 C   0  0  0  0  0  0  0  0  0  0  0  0
    1.0061  -25.2678   26.2655 C   0  0  0  0  0  0  0  0  0  0  0  0
    1.7088  -26.5873   26.1589 C   0  0  0  0  0  0  0  0  0  0  0  0
    0.9009  -27.7073   26.5291 N   0  0  0  0  0  0  0  0  0  0  0  0
    3.9655  -23.2314   23.8508 C   0  0  0  0  0  0  0  0  0  0  0  0
    4.5869  -23.9620   23.0447 O   0  0  0  0  0  0  0  0  0  0  0  0
    6.9237  -21.6482   24.9344 C   0  0  0  0  0  0  0  0  0  0  0  0
    6.1062  -22.8932   25.1422 C   0  0  2  0  0  0  0  0  0  0  0  0
    4.7046  -22.6999   24.9411 N   0  0  0  0  0  0  0  0  0  0  0  0
    6.3561  -23.4208   26.5095 C   0  0  0  0  0  0  0  0  0  0  0  0
    5.3895  -23.4162   27.3119 O   0  0  0  0  0  0  0  0  0  0  0  0
    7.6243  -23.8999   26.8740 O   0  0  0  0  0  0  0  0  0  0  0  0
  2  1  1  0
  3  2  2  0
  4  5  1  0
  4  2  1  0
  5  7  1  0
  5  6  1  6
  7  8  2  0
  9 10  1  0
  9  7  1  0
 11 12  1  0
 10 11  1  6
 12 13  1  0
 14 13  1  0
 15 14  1  0
 16 10  1  0
 16 17  2  0
 19 18  1  1
 19 20  1  0
 19 21  1  0
 20 16  1  0
 21 22  2  0
 21 23  1  0
M  END
$$$$
