NKA.pdb
     RDKit          3D

 23 22  0  0  1  0  0  0  0  0999 V2000
   12.9761  -15.4620   19.6826 N   0  0  0  0  0  0  0  0  0  0  0  0
   11.6637  -14.9584   19.4928 C   0  0  0  0  0  0  0  0  0  0  0  0
   11.3966  -14.3267   18.4531 O   0  0  0  0  0  0  0  0  0  0  0  0
   10.6501  -15.2002   20.5372 C   0  0  0  0  0  0  0  0  0  0  0  0
   11.1741  -16.0555   21.6498 C   0  0  2  0  0  0  0  0  0  0  0  0
   11.5559  -17.3776   21.2287 N   0  0  0  0  0  0  0  0  0  0  0  0
   10.3142  -16.0371   22.8413 C   0  0  0  0  0  0  0  0  0  0  0  0
    9.7235  -14.9610   23.1194 O   0  0  0  0  0  0  0  0  0  0  0  0
   10.1167  -17.1558   23.6865 N   0  0  0  0  0  0  0  0  0  0  0  0
    9.2541  -17.0895   24.8331 C   0  0  1  0  0  0  0  0  0  0  0  0
    8.7061  -18.4322   25.2623 C   0  0  0  0  0  0  0  0  0  0  0  0
    7.9213  -18.3719   26.5305 C   0  0  0  0  0  0  0  0  0  0  0  0
    7.5961  -19.7935   26.9449 C   0  0  0  0  0  0  0  0  0  0  0  0
    6.8642  -19.8516   28.2515 C   0  0  0  0  0  0  0  0  0  0  0  0
    6.6172  -21.1794   28.7206 N   0  0  0  0  0  0  0  0  0  0  0  0
    9.9759  -16.4568   25.9471 C   0  0  0  0  0  0  0  0  0  0  0  0
   11.1645  -16.7775   26.1796 O   0  0  0  0  0  0  0  0  0  0  0  0
    9.4503  -13.4952   28.2434 C   0  0  0  0  0  0  0  0  0  0  0  0
   10.0879  -14.7973   27.8440 C   0  0  2  0  0  0  0  0  0  0  0  0
    9.3938  -15.4790   26.7973 N   0  0  0  0  0  0  0  0  0  0  0  0
   10.1974  -15.6758   29.0384 C   0  0  0  0  0  0  0  0  0  0  0  0
    9.5079  -16.7258   29.0435 O   0  0  0  0  0  0  0  0  0  0  0  0
   11.0397  -15.3326   30.1078 O   0  0  0  0  0  0  0  0  0  0  0  0
  2  1  1  0
  3  2  2  0
  4  5  1  0
  4  2  1  0
  5  7  1  0
  5  6  1  6
  7  8  2  0
  9 10  1  0
  9  7  1  0
 11 12  1  0
 10 11  1  1
 12 13  1  0
 14 13  1  0
 15 14  1  0
 16 10  1  0
 16 17  2  0
 19 18  1  1
 19 20  1  0
 19 21  1  0
 20 16  1  0
 21 22  2  0
 21 23  1  0
M  END
$$$$
