NKA.pdb
     RDKit          3D

 23 22  0  0  1  0  0  0  0  0999 V2000
    8.2285  -12.2100   18.3522 N   0  0  0  0  0  0  0  0  0  0  0  0
    7.8098  -13.5222   18.6912 C   0  0  0  0  0  0  0  0  0  0  0  0
    7.8211  -14.4112   17.8188 O   0  0  0  0  0  0  0  0  0  0  0  0
    7.3724  -13.7954   20.0735 C   0  0  0  0  0  0  0  0  0  0  0  0
    8.3434  -14.6619   20.8154 C   0  0  2  0  0  0  0  0  0  0  0  0
    8.6953  -15.8663   20.1106 N   0  0  0  0  0  0  0  0  0  0  0  0
    7.9595  -14.8844   22.2163 C   0  0  0  0  0  0  0  0  0  0  0  0
    7.2214  -14.0244   22.7639 O   0  0  0  0  0  0  0  0  0  0  0  0
    8.3724  -16.0051   22.9768 N   0  0  0  0  0  0  0  0  0  0  0  0
    7.8554  -16.2523   24.2939 C   0  0  1  0  0  0  0  0  0  0  0  0
    7.6835  -17.7200   24.6159 C   0  0  0  0  0  0  0  0  0  0  0  0
    6.5360  -18.3514   23.9000 C   0  0  0  0  0  0  0  0  0  0  0  0
    6.5535  -19.8354   24.2099 C   0  0  0  0  0  0  0  0  0  0  0  0
    5.3983  -20.5598   23.5878 C   0  0  0  0  0  0  0  0  0  0  0  0
    5.4346  -21.9772   23.7713 N   0  0  0  0  0  0  0  0  0  0  0  0
    8.7328  -15.6147   25.2869 C   0  0  0  0  0  0  0  0  0  0  0  0
    9.9766  -15.7094   25.1692 O   0  0  0  0  0  0  0  0  0  0  0  0
    8.4564  -13.0537   28.0286 C   0  0  0  0  0  0  0  0  0  0  0  0
    9.0697  -14.2726   27.3965 C   0  0  2  0  0  0  0  0  0  0  0  0
    8.2446  -14.8789   26.3995 N   0  0  0  0  0  0  0  0  0  0  0  0
    9.3973  -15.2621   28.4567 C   0  0  0  0  0  0  0  0  0  0  0  0
   10.1521  -14.8795   29.3850 O   0  0  0  0  0  0  0  0  0  0  0  0
    8.8778  -16.5654   28.4083 O   0  0  0  0  0  0  0  0  0  0  0  0
  2  1  1  0
  3  2  2  0
  4  5  1  0
  4  2  1  0
  5  7  1  0
  5  6  1  6
  7  8  2  0
  9 10  1  0
  9  7  1  0
 11 12  1  0
 10 11  1  1
 12 13  1  0
 14 13  1  0
 15 14  1  0
 16 10  1  0
 16 17  2  0
 19 18  1  1
 19 20  1  0
 19 21  1  0
 20 16  1  0
 21 22  2  0
 21 23  1  0
M  END
$$$$
