NKA.pdb
     RDKit          3D

 23 22  0  0  1  0  0  0  0  0999 V2000
    8.3254  -12.3425   18.4974 N   0  0  0  0  0  0  0  0  0  0  0  0
    7.7590  -13.5870   18.8745 C   0  0  0  0  0  0  0  0  0  0  0  0
    7.6319  -14.4841   18.0198 O   0  0  0  0  0  0  0  0  0  0  0  0
    7.3365  -13.7822   20.2746 C   0  0  0  0  0  0  0  0  0  0  0  0
    8.4694  -14.2130   21.1548 C   0  0  2  0  0  0  0  0  0  0  0  0
    9.3711  -15.1384   20.5210 N   0  0  0  0  0  0  0  0  0  0  0  0
    8.0289  -14.6346   22.4918 C   0  0  0  0  0  0  0  0  0  0  0  0
    7.1088  -13.9733   23.0397 O   0  0  0  0  0  0  0  0  0  0  0  0
    8.5801  -15.7355   23.1910 N   0  0  0  0  0  0  0  0  0  0  0  0
    8.1975  -16.0363   24.5425 C   0  0  1  0  0  0  0  0  0  0  0  0
    7.8291  -17.4864   24.7635 C   0  0  0  0  0  0  0  0  0  0  0  0
    7.4945  -17.8011   26.1837 C   0  0  0  0  0  0  0  0  0  0  0  0
    7.2169  -19.2885   26.2781 C   0  0  0  0  0  0  0  0  0  0  0  0
    6.7612  -19.6961   27.6465 C   0  0  0  0  0  0  0  0  0  0  0  0
    6.5440  -21.1017   27.7918 N   0  0  0  0  0  0  0  0  0  0  0  0
    9.2841  -15.6448   25.4527 C   0  0  0  0  0  0  0  0  0  0  0  0
   10.1434  -16.4901   25.7946 O   0  0  0  0  0  0  0  0  0  0  0  0
    8.2112  -13.3947   27.8994 C   0  0  0  0  0  0  0  0  0  0  0  0
    9.4734  -14.0219   27.3750 C   0  0  2  0  0  0  0  0  0  0  0  0
    9.4233  -14.3338   25.9813 N   0  0  0  0  0  0  0  0  0  0  0  0
    9.7741  -15.2479   28.1604 C   0  0  0  0  0  0  0  0  0  0  0  0
    9.6546  -16.3507   27.5708 O   0  0  0  0  0  0  0  0  0  0  0  0
   10.1732  -15.1608   29.5034 O   0  0  0  0  0  0  0  0  0  0  0  0
  2  1  1  0
  3  2  2  0
  4  5  1  0
  4  2  1  0
  5  7  1  0
  5  6  1  6
  7  8  2  0
  9 10  1  0
  9  7  1  0
 11 12  1  0
 10 11  1  6
 12 13  1  0
 14 13  1  0
 15 14  1  0
 16 10  1  0
 16 17  2  0
 19 18  1  1
 19 20  1  0
 19 21  1  0
 20 16  1  0
 21 22  2  0
 21 23  1  0
M  END
$$$$
