NKA.pdb
     RDKit          3D

 23 22  0  0  1  0  0  0  0  0999 V2000
   11.3616  -21.7485   11.4263 N   0  0  0  0  0  0  0  0  0  0  0  0
   12.2473  -21.7566   12.5342 C   0  0  0  0  0  0  0  0  0  0  0  0
   13.2126  -22.5437   12.5384 O   0  0  0  0  0  0  0  0  0  0  0  0
   11.9975  -20.8274   13.6526 C   0  0  0  0  0  0  0  0  0  0  0  0
   10.7734  -19.9920   13.4341 C   0  0  2  0  0  0  0  0  0  0  0  0
   10.9793  -18.8957   12.5249 N   0  0  0  0  0  0  0  0  0  0  0  0
   10.1103  -19.6071   14.6877 C   0  0  0  0  0  0  0  0  0  0  0  0
   10.5664  -18.6118   15.3086 O   0  0  0  0  0  0  0  0  0  0  0  0
    8.9953  -20.2907   15.2302 N   0  0  0  0  0  0  0  0  0  0  0  0
    8.3834  -19.8741   16.4611 C   0  0  1  0  0  0  0  0  0  0  0  0
    6.9208  -20.2435   16.5706 C   0  0  0  0  0  0  0  0  0  0  0  0
    6.0549  -19.5238   15.5908 C   0  0  0  0  0  0  0  0  0  0  0  0
    4.6462  -20.0674   15.7270 C   0  0  0  0  0  0  0  0  0  0  0  0
    3.6745  -19.3596   14.8320 C   0  0  0  0  0  0  0  0  0  0  0  0
    2.3674  -19.9388   14.8202 N   0  0  0  0  0  0  0  0  0  0  0  0
    9.1350  -20.4388   17.5919 C   0  0  0  0  0  0  0  0  0  0  0  0
    9.5964  -21.6010   17.5130 O   0  0  0  0  0  0  0  0  0  0  0  0
   10.5187  -19.2217   20.9123 C   0  0  0  0  0  0  0  0  0  0  0  0
   10.0617  -20.2665   19.9320 C   0  0  2  0  0  0  0  0  0  0  0  0
    9.3766  -19.7296   18.7986 N   0  0  0  0  0  0  0  0  0  0  0  0
    9.1938  -21.2495   20.6327 C   0  0  0  0  0  0  0  0  0  0  0  0
    7.9686  -21.2329   20.3558 O   0  0  0  0  0  0  0  0  0  0  0  0
    9.7352  -22.1513   21.5624 O   0  0  0  0  0  0  0  0  0  0  0  0
  2  1  1  0
  3  2  2  0
  4  5  1  0
  4  2  1  0
  5  7  1  0
  5  6  1  1
  7  8  2  0
  9 10  1  0
  9  7  1  0
 11 12  1  0
 10 11  1  6
 12 13  1  0
 14 13  1  0
 15 14  1  0
 16 10  1  0
 16 17  2  0
 19 18  1  1
 19 20  1  0
 19 21  1  0
 20 16  1  0
 21 22  2  0
 21 23  1  0
M  END
$$$$
