NKA.pdb
     RDKit          3D

 23 22  0  0  1  0  0  0  0  0999 V2000
    7.7867  -12.1550   18.5657 N   0  0  0  0  0  0  0  0  0  0  0  0
    8.1448  -13.3473   19.2454 C   0  0  0  0  0  0  0  0  0  0  0  0
    8.7006  -14.2663   18.6146 O   0  0  0  0  0  0  0  0  0  0  0  0
    7.8475  -13.4628   20.6859 C   0  0  0  0  0  0  0  0  0  0  0  0
    7.9802  -14.8701   21.1820 C   0  0  2  0  0  0  0  0  0  0  0  0
    7.2248  -15.8247   20.4144 N   0  0  0  0  0  0  0  0  0  0  0  0
    7.7846  -14.9875   22.6336 C   0  0  0  0  0  0  0  0  0  0  0  0
    7.1925  -14.0453   23.2218 O   0  0  0  0  0  0  0  0  0  0  0  0
    8.2235  -16.0944   23.3998 N   0  0  0  0  0  0  0  0  0  0  0  0
    7.8154  -16.2734   24.7652 C   0  0  1  0  0  0  0  0  0  0  0  0
    7.4989  -17.7083   25.1238 C   0  0  0  0  0  0  0  0  0  0  0  0
    6.3101  -18.2493   24.4015 C   0  0  0  0  0  0  0  0  0  0  0  0
    6.5710  -19.7133   24.1063 C   0  0  0  0  0  0  0  0  0  0  0  0
    5.3873  -20.3869   23.4807 C   0  0  0  0  0  0  0  0  0  0  0  0
    5.6317  -21.7377   23.0810 N   0  0  0  0  0  0  0  0  0  0  0  0
    8.8595  -15.7465   25.6566 C   0  0  0  0  0  0  0  0  0  0  0  0
   10.0660  -15.9601   25.3950 O   0  0  0  0  0  0  0  0  0  0  0  0
    9.1323  -13.3023   28.5202 C   0  0  0  0  0  0  0  0  0  0  0  0
    9.5650  -14.5141   27.7419 C   0  0  2  0  0  0  0  0  0  0  0  0
    8.5773  -14.9905   26.8255 N   0  0  0  0  0  0  0  0  0  0  0  0
    9.9440  -15.5953   28.6893 C   0  0  0  0  0  0  0  0  0  0  0  0
    9.2581  -16.6474   28.6633 O   0  0  0  0  0  0  0  0  0  0  0  0
   11.0248  -15.4324   29.5702 O   0  0  0  0  0  0  0  0  0  0  0  0
  2  1  1  0
  3  2  2  0
  4  5  1  0
  4  2  1  0
  5  7  1  0
  5  6  1  6
  7  8  2  0
  9 10  1  0
  9  7  1  0
 11 12  1  0
 10 11  1  1
 12 13  1  0
 14 13  1  0
 15 14  1  0
 16 10  1  0
 16 17  2  0
 19 18  1  1
 19 20  1  0
 19 21  1  0
 20 16  1  0
 21 22  2  0
 21 23  1  0
M  END
$$$$
