NKA.pdb
     RDKit          3D

 23 22  0  0  1  0  0  0  0  0999 V2000
   15.7708  -16.4395   15.5901 N   0  0  0  0  0  0  0  0  0  0  0  0
   15.0024  -17.6143   15.7934 C   0  0  0  0  0  0  0  0  0  0  0  0
   15.0523  -18.5299   14.9505 O   0  0  0  0  0  0  0  0  0  0  0  0
   14.1642  -17.7167   17.0032 C   0  0  0  0  0  0  0  0  0  0  0  0
   12.7535  -18.1075   16.6852 C   0  0  2  0  0  0  0  0  0  0  0  0
   12.1540  -17.3074   15.6501 N   0  0  0  0  0  0  0  0  0  0  0  0
   11.9149  -18.2542   17.8829 C   0  0  0  0  0  0  0  0  0  0  0  0
   11.3261  -17.2285   18.3136 O   0  0  0  0  0  0  0  0  0  0  0  0
   11.7358  -19.4775   18.5730 N   0  0  0  0  0  0  0  0  0  0  0  0
   10.8689  -19.5778   19.7139 C   0  0  1  0  0  0  0  0  0  0  0  0
   10.2500  -20.9464   19.8910 C   0  0  0  0  0  0  0  0  0  0  0  0
    9.3296  -21.0314   21.0630 C   0  0  0  0  0  0  0  0  0  0  0  0
    8.7823  -22.4439   21.1238 C   0  0  0  0  0  0  0  0  0  0  0  0
    7.8694  -22.6500   22.2944 C   0  0  0  0  0  0  0  0  0  0  0  0
    7.3758  -23.9861   22.4181 N   0  0  0  0  0  0  0  0  0  0  0  0
   11.6134  -19.1975   20.9237 C   0  0  0  0  0  0  0  0  0  0  0  0
   12.8144  -19.5331   21.0455 O   0  0  0  0  0  0  0  0  0  0  0  0
   11.0100  -16.9447   23.9265 C   0  0  0  0  0  0  0  0  0  0  0  0
   11.7661  -17.9630   23.1185 C   0  0  2  0  0  0  0  0  0  0  0  0
   11.0404  -18.4539   21.9896 N   0  0  0  0  0  0  0  0  0  0  0  0
   12.1609  -19.0930   24.0003 C   0  0  0  0  0  0  0  0  0  0  0  0
   11.5284  -20.1705   23.8700 O   0  0  0  0  0  0  0  0  0  0  0  0
   13.1983  -18.9466   24.9347 O   0  0  0  0  0  0  0  0  0  0  0  0
  2  1  1  0
  3  2  2  0
  4  5  1  0
  4  2  1  0
  5  7  1  0
  5  6  1  6
  7  8  2  0
  9 10  1  0
  9  7  1  0
 11 12  1  0
 10 11  1  1
 12 13  1  0
 14 13  1  0
 15 14  1  0
 16 10  1  0
 16 17  2  0
 19 18  1  1
 19 20  1  0
 19 21  1  0
 20 16  1  0
 21 22  2  0
 21 23  1  0
M  END
$$$$
