NKA.pdb
     RDKit          3D

 23 22  0  0  1  0  0  0  0  0999 V2000
   11.2332  -20.6209   11.1226 N   0  0  0  0  0  0  0  0  0  0  0  0
   10.6482  -19.4951   11.7569 C   0  0  0  0  0  0  0  0  0  0  0  0
    9.6126  -19.6447   12.4326 O   0  0  0  0  0  0  0  0  0  0  0  0
   11.2877  -18.1752   11.5969 C   0  0  0  0  0  0  0  0  0  0  0  0
   10.5276  -17.0879   12.2927 C   0  0  2  0  0  0  0  0  0  0  0  0
   10.3188  -15.9198   11.4786 N   0  0  0  0  0  0  0  0  0  0  0  0
   11.0493  -16.7913   13.6340 C   0  0  0  0  0  0  0  0  0  0  0  0
   12.2134  -16.3197   13.7174 O   0  0  0  0  0  0  0  0  0  0  0  0
   10.3188  -17.0062   14.8277 N   0  0  0  0  0  0  0  0  0  0  0  0
   10.8685  -16.6826   16.1147 C   0  0  1  0  0  0  0  0  0  0  0  0
    9.8356  -16.2299   17.1225 C   0  0  0  0  0  0  0  0  0  0  0  0
    9.3149  -14.8563   16.8584 C   0  0  0  0  0  0  0  0  0  0  0  0
    8.2965  -14.5297   17.9329 C   0  0  0  0  0  0  0  0  0  0  0  0
    7.8616  -13.0962   17.8873 C   0  0  0  0  0  0  0  0  0  0  0  0
    6.9413  -12.7351   18.9201 N   0  0  0  0  0  0  0  0  0  0  0  0
   11.6072  -17.8439   16.6325 C   0  0  0  0  0  0  0  0  0  0  0  0
   11.1251  -18.9935   16.5073 O   0  0  0  0  0  0  0  0  0  0  0  0
   15.1159  -18.7210   17.3583 C   0  0  0  0  0  0  0  0  0  0  0  0
   13.6576  -18.8537   17.7006 C   0  0  2  0  0  0  0  0  0  0  0  0
   12.8661  -17.7399   17.2821 N   0  0  0  0  0  0  0  0  0  0  0  0
   13.5150  -19.0573   19.1664 C   0  0  0  0  0  0  0  0  0  0  0  0
   14.1293  -20.0288   19.6732 O   0  0  0  0  0  0  0  0  0  0  0  0
   12.7232  -18.1923   19.9382 O   0  0  0  0  0  0  0  0  0  0  0  0
  2  1  1  0
  3  2  2  0
  4  5  1  0
  4  2  1  0
  5  7  1  0
  5  6  1  6
  7  8  2  0
  9 10  1  0
  9  7  1  0
 11 12  1  0
 10 11  1  1
 12 13  1  0
 14 13  1  0
 15 14  1  0
 16 10  1  0
 16 17  2  0
 19 18  1  1
 19 20  1  0
 19 21  1  0
 20 16  1  0
 21 22  2  0
 21 23  1  0
M  END
$$$$
