NKA.pdb
     RDKit          3D

 23 22  0  0  1  0  0  0  0  0999 V2000
    6.8342  -16.7011   13.3728 N   0  0  0  0  0  0  0  0  0  0  0  0
    7.9299  -16.3145   14.1865 C   0  0  0  0  0  0  0  0  0  0  0  0
    9.0774  -16.3072   13.7021 O   0  0  0  0  0  0  0  0  0  0  0  0
    7.6756  -15.9303   15.5880 C   0  0  0  0  0  0  0  0  0  0  0  0
    8.4294  -16.7880   16.5576 C   0  0  2  0  0  0  0  0  0  0  0  0
    8.2926  -18.1983   16.3058 N   0  0  0  0  0  0  0  0  0  0  0  0
    8.1978  -16.4099   17.9585 C   0  0  0  0  0  0  0  0  0  0  0  0
    8.3013  -15.1923   18.2602 O   0  0  0  0  0  0  0  0  0  0  0  0
    7.8677  -17.3344   18.9789 N   0  0  0  0  0  0  0  0  0  0  0  0
    7.7057  -16.9212   20.3449 C   0  0  1  0  0  0  0  0  0  0  0  0
    6.6855  -17.7337   21.1108 C   0  0  0  0  0  0  0  0  0  0  0  0
    6.5008  -19.1122   20.5691 C   0  0  0  0  0  0  0  0  0  0  0  0
    5.5087  -19.8336   21.4599 C   0  0  0  0  0  0  0  0  0  0  0  0
    5.1471  -21.1875   20.9284 C   0  0  0  0  0  0  0  0  0  0  0  0
    4.1396  -21.8598   21.6880 N   0  0  0  0  0  0  0  0  0  0  0  0
    9.0085  -16.9723   21.0249 C   0  0  0  0  0  0  0  0  0  0  0  0
    9.5242  -18.0812   21.2976 O   0  0  0  0  0  0  0  0  0  0  0  0
    8.9336  -14.9282   23.5460 C   0  0  0  0  0  0  0  0  0  0  0  0
   10.0840  -15.4721   22.7446 C   0  0  2  0  0  0  0  0  0  0  0  0
    9.7372  -15.8125   21.4007 N   0  0  0  0  0  0  0  0  0  0  0  0
   10.6484  -16.6584   23.4406 C   0  0  0  0  0  0  0  0  0  0  0  0
   11.2270  -16.4586   24.5376 O   0  0  0  0  0  0  0  0  0  0  0  0
   10.5322  -17.9414   22.8827 O   0  0  0  0  0  0  0  0  0  0  0  0
  2  1  1  0
  3  2  2  0
  4  5  1  0
  4  2  1  0
  5  7  1  0
  5  6  1  1
  7  8  2  0
  9 10  1  0
  9  7  1  0
 11 12  1  0
 10 11  1  1
 12 13  1  0
 14 13  1  0
 15 14  1  0
 16 10  1  0
 16 17  2  0
 19 18  1  1
 19 20  1  0
 19 21  1  0
 20 16  1  0
 21 22  2  0
 21 23  1  0
M  END
$$$$
