MQS.pdb
     RDKit          3D

 24 23  0  0  1  0  0  0  0  0999 V2000
    5.9960  -11.3060   27.0741 C   0  0  0  0  0  0  0  0  0  0  0  0
    7.3993  -12.3771   27.4222 S   0  0  0  0  0  0  0  0  0  0  0  0
    6.8182  -14.1072   27.4832 C   0  0  0  0  0  0  0  0  0  0  0  0
    6.4431  -14.5069   26.0933 C   0  0  0  0  0  0  0  0  0  0  0  0
    7.4674  -15.3525   25.3984 C   0  0  2  0  0  0  0  0  0  0  0  0
    8.7748  -15.1453   25.9261 N   0  0  0  0  0  0  0  0  0  0  0  0
    7.3989  -15.2991   23.9185 C   0  0  0  0  0  0  0  0  0  0  0  0
    6.3521  -15.5620   23.3049 O   0  0  0  0  0  0  0  0  0  0  0  0
    6.9164  -12.6571   19.1403 N   0  0  0  0  0  0  0  0  0  0  0  0
    7.9776  -13.5980   18.8237 C   0  0  0  0  0  0  0  0  0  0  0  0
    7.7897  -14.3068   17.8266 O   0  0  0  0  0  0  0  0  0  0  0  0
    9.1579  -13.6533   19.6718 C   0  0  0  0  0  0  0  0  0  0  0  0
    8.9708  -13.6871   21.1318 C   0  0  0  0  0  0  0  0  0  0  0  0
    8.6905  -14.9853   21.7795 C   0  0  2  0  0  0  0  0  0  0  0  0
    8.5586  -14.9430   23.1811 N   0  0  0  0  0  0  0  0  0  0  0  0
    9.7182  -15.9877   21.3382 C   0  0  0  0  0  0  0  0  0  0  0  0
   10.8957  -15.7958   21.7312 O   0  0  0  0  0  0  0  0  0  0  0  0
    8.9569  -19.8386   20.7196 O   0  0  0  0  0  0  0  0  0  0  0  0
    9.7827  -19.3941   19.7110 C   0  0  0  0  0  0  0  0  0  0  0  0
   10.4071  -18.0837   20.1178 C   0  0  2  0  0  0  0  0  0  0  0  0
    9.4337  -17.1063   20.5249 N   0  0  0  0  0  0  0  0  0  0  0  0
   11.3052  -17.6119   19.0619 C   0  0  0  0  0  0  0  0  0  0  0  0
   11.0319  -16.4013   18.4452 O   0  0  0  0  0  0  0  0  0  0  0  0
   12.3190  -18.2464   18.6782 O   0  0  0  0  0  0  0  0  0  0  0  0
  1  2  1  0
  2  3  1  0
  3  4  1  0
  5  4  1  0
  5  7  1  0
  5  6  1  6
  7  8  2  0
  9 10  1  0
 10 12  1  0
 10 11  2  0
 12 13  1  0
 14 13  1  1
 15 14  1  0
 15  7  1  0
 16 17  2  0
 16 14  1  0
 18 19  1  0
 20 19  1  6
 20 22  1  0
 20 21  1  0
 21 16  1  0
 22 23  1  0
 24 22  2  0
M  END
$$$$
