MQS.pdb
     RDKit          3D

 24 23  0  0  1  0  0  0  0  0999 V2000
    6.1986  -11.0616   26.4547 C   0  0  0  0  0  0  0  0  0  0  0  0
    6.0076  -12.8237   26.1445 S   0  0  0  0  0  0  0  0  0  0  0  0
    7.6249  -13.6401   26.3731 C   0  0  0  0  0  0  0  0  0  0  0  0
    7.4128  -15.1118   26.2259 C   0  0  0  0  0  0  0  0  0  0  0  0
    6.7393  -15.5118   24.9477 C   0  0  2  0  0  0  0  0  0  0  0  0
    5.5723  -16.2946   25.1839 N   0  0  0  0  0  0  0  0  0  0  0  0
    7.6537  -16.0837   23.9307 C   0  0  0  0  0  0  0  0  0  0  0  0
    8.0751  -17.2485   24.0149 O   0  0  0  0  0  0  0  0  0  0  0  0
    8.6058  -13.3175   18.1965 N   0  0  0  0  0  0  0  0  0  0  0  0
    7.4053  -13.6490   18.9452 C   0  0  0  0  0  0  0  0  0  0  0  0
    6.3477  -13.1836   18.5016 O   0  0  0  0  0  0  0  0  0  0  0  0
    7.5136  -14.4774   20.1357 C   0  0  0  0  0  0  0  0  0  0  0  0
    8.8494  -14.9362   20.5512 C   0  0  0  0  0  0  0  0  0  0  0  0
    8.9832  -15.6550   21.8353 C   0  0  2  0  0  0  0  0  0  0  0  0
    8.0630  -15.2808   22.8336 N   0  0  0  0  0  0  0  0  0  0  0  0
   10.4046  -15.5543   22.3099 C   0  0  0  0  0  0  0  0  0  0  0  0
   10.6273  -14.7543   23.2524 O   0  0  0  0  0  0  0  0  0  0  0  0
   11.8496  -18.9825   23.2679 O   0  0  0  0  0  0  0  0  0  0  0  0
   12.0651  -17.6905   23.6935 C   0  0  0  0  0  0  0  0  0  0  0  0
   12.5512  -16.8577   22.5348 C   0  0  2  0  0  0  0  0  0  0  0  0
   11.4752  -16.2954   21.7637 N   0  0  0  0  0  0  0  0  0  0  0  0
   13.5054  -17.6281   21.7346 C   0  0  0  0  0  0  0  0  0  0  0  0
   13.1131  -18.0859   20.4868 O   0  0  0  0  0  0  0  0  0  0  0  0
   14.6704  -17.9011   22.1165 O   0  0  0  0  0  0  0  0  0  0  0  0
  1  2  1  0
  2  3  1  0
  3  4  1  0
  5  4  1  0
  5  7  1  0
  5  6  1  1
  7  8  2  0
  9 10  1  0
 10 12  1  0
 10 11  2  0
 12 13  1  0
 14 13  1  6
 15 14  1  0
 15  7  1  0
 16 17  2  0
 16 14  1  0
 18 19  1  0
 20 19  1  1
 20 22  1  0
 20 21  1  0
 21 16  1  0
 22 23  1  0
 24 22  2  0
M  END
$$$$
