MQS.pdb
     RDKit          3D

 24 23  0  0  1  0  0  0  0  0999 V2000
    5.7110  -10.9265   26.5844 C   0  0  0  0  0  0  0  0  0  0  0  0
    6.9180  -12.1651   26.0878 S   0  0  0  0  0  0  0  0  0  0  0  0
    6.2120  -13.8241   26.3775 C   0  0  0  0  0  0  0  0  0  0  0  0
    7.2365  -14.8295   25.9629 C   0  0  0  0  0  0  0  0  0  0  0  0
    6.9739  -15.4620   24.6294 C   0  0  2  0  0  0  0  0  0  0  0  0
    5.7535  -16.1977   24.6209 N   0  0  0  0  0  0  0  0  0  0  0  0
    8.1288  -16.2031   24.0687 C   0  0  0  0  0  0  0  0  0  0  0  0
    8.4052  -17.3556   24.4386 O   0  0  0  0  0  0  0  0  0  0  0  0
   12.0869  -13.6514   19.5271 N   0  0  0  0  0  0  0  0  0  0  0  0
   12.6413  -14.9549   19.8516 C   0  0  0  0  0  0  0  0  0  0  0  0
   13.6032  -15.3182   19.1625 O   0  0  0  0  0  0  0  0  0  0  0  0
   12.0502  -15.7330   20.9287 C   0  0  0  0  0  0  0  0  0  0  0  0
   10.7622  -15.2904   21.4879 C   0  0  0  0  0  0  0  0  0  0  0  0
   10.1235  -16.1160   22.5337 C   0  0  2  0  0  0  0  0  0  0  0  0
    8.9440  -15.5808   23.0868 N   0  0  0  0  0  0  0  0  0  0  0  0
   11.1409  -16.4501   23.5868 C   0  0  0  0  0  0  0  0  0  0  0  0
   11.6188  -15.4849   24.2332 O   0  0  0  0  0  0  0  0  0  0  0  0
   11.5502  -20.2376   24.9793 O   0  0  0  0  0  0  0  0  0  0  0  0
   12.0608  -19.2378   25.7771 C   0  0  0  0  0  0  0  0  0  0  0  0
   12.5210  -18.0934   24.9106 C   0  0  2  0  0  0  0  0  0  0  0  0
   11.5754  -17.7615   23.8790 N   0  0  0  0  0  0  0  0  0  0  0  0
   13.8687  -18.3631   24.4054 C   0  0  0  0  0  0  0  0  0  0  0  0
   14.8747  -18.6571   25.3121 O   0  0  0  0  0  0  0  0  0  0  0  0
   14.1697  -18.3434   23.1861 O   0  0  0  0  0  0  0  0  0  0  0  0
  1  2  1  0
  2  3  1  0
  3  4  1  0
  5  4  1  0
  5  7  1  0
  5  6  1  1
  7  8  2  0
  9 10  1  0
 10 12  1  0
 10 11  2  0
 12 13  1  0
 14 13  1  6
 15 14  1  0
 15  7  1  0
 16 17  2  0
 16 14  1  0
 18 19  1  0
 20 19  1  6
 20 22  1  0
 20 21  1  0
 21 16  1  0
 22 23  1  0
 24 22  2  0
M  END
$$$$
