MQS.pdb
     RDKit          3D

 24 23  0  0  1  0  0  0  0  0999 V2000
    7.8115  -11.5268   20.3900 C   0  0  0  0  0  0  0  0  0  0  0  0
    8.4808  -13.1285   20.8636 S   0  0  0  0  0  0  0  0  0  0  0  0
    7.1554  -14.3789   20.7434 C   0  0  0  0  0  0  0  0  0  0  0  0
    7.7034  -15.6690   21.2608 C   0  0  0  0  0  0  0  0  0  0  0  0
    8.5770  -16.4013   20.2873 C   0  0  2  0  0  0  0  0  0  0  0  0
    7.9026  -16.6620   19.0594 N   0  0  0  0  0  0  0  0  0  0  0  0
    9.2687  -17.5817   20.8580 C   0  0  0  0  0  0  0  0  0  0  0  0
    8.7502  -18.7097   20.8459 O   0  0  0  0  0  0  0  0  0  0  0  0
   14.8591  -19.4577   19.6634 N   0  0  0  0  0  0  0  0  0  0  0  0
   14.4566  -18.0647   19.7592 C   0  0  0  0  0  0  0  0  0  0  0  0
   15.1615  -17.2563   19.1416 O   0  0  0  0  0  0  0  0  0  0  0  0
   13.2897  -17.7127   20.5528 C   0  0  0  0  0  0  0  0  0  0  0  0
   12.5648  -18.7888   21.2486 C   0  0  0  0  0  0  0  0  0  0  0  0
   11.3400  -18.4458   22.0006 C   0  0  2  0  0  0  0  0  0  0  0  0
   10.5548  -17.4210   21.4377 N   0  0  0  0  0  0  0  0  0  0  0  0
   11.7036  -18.1594   23.4294 C   0  0  0  0  0  0  0  0  0  0  0  0
   12.2152  -17.0367   23.6652 O   0  0  0  0  0  0  0  0  0  0  0  0
   10.5217  -20.6550   26.4615 O   0  0  0  0  0  0  0  0  0  0  0  0
   10.8310  -19.3654   26.8334 C   0  0  0  0  0  0  0  0  0  0  0  0
   11.8361  -18.7942   25.8660 C   0  0  2  0  0  0  0  0  0  0  0  0
   11.5037  -19.0660   24.4934 N   0  0  0  0  0  0  0  0  0  0  0  0
   13.1851  -19.2248   26.2387 C   0  0  0  0  0  0  0  0  0  0  0  0
   13.9649  -19.8698   25.2919 O   0  0  0  0  0  0  0  0  0  0  0  0
   13.6822  -19.0422   27.3776 O   0  0  0  0  0  0  0  0  0  0  0  0
  1  2  1  0
  2  3  1  0
  3  4  1  0
  5  4  1  0
  5  7  1  0
  5  6  1  6
  7  8  2  0
  9 10  1  0
 10 12  1  0
 10 11  2  0
 12 13  1  0
 14 13  1  6
 15 14  1  0
 15  7  1  0
 16 17  2  0
 16 14  1  0
 18 19  1  0
 20 19  1  1
 20 22  1  0
 20 21  1  0
 21 16  1  0
 22 23  1  0
 24 22  2  0
M  END
$$$$
