MQS.pdb
     RDKit          3D

 24 23  0  0  1  0  0  0  0  0999 V2000
    8.2631  -12.2515   21.5601 C   0  0  0  0  0  0  0  0  0  0  0  0
    7.4270  -12.4242   19.9762 S   0  0  0  0  0  0  0  0  0  0  0  0
    7.8483  -14.0515   19.2628 C   0  0  0  0  0  0  0  0  0  0  0  0
    8.0364  -15.0066   20.3963 C   0  0  0  0  0  0  0  0  0  0  0  0
    8.4047  -16.3973   19.9749 C   0  0  2  0  0  0  0  0  0  0  0  0
    7.4878  -16.9238   19.0195 N   0  0  0  0  0  0  0  0  0  0  0  0
    8.6982  -17.3170   21.0998 C   0  0  0  0  0  0  0  0  0  0  0  0
    7.8842  -18.1806   21.4647 O   0  0  0  0  0  0  0  0  0  0  0  0
   14.6446  -18.8594   23.0533 N   0  0  0  0  0  0  0  0  0  0  0  0
   13.9646  -19.0281   21.7802 C   0  0  0  0  0  0  0  0  0  0  0  0
   14.6762  -19.3837   20.8320 O   0  0  0  0  0  0  0  0  0  0  0  0
   12.5352  -18.7732   21.6961 C   0  0  0  0  0  0  0  0  0  0  0  0
   11.8450  -18.2517   22.8874 C   0  0  0  0  0  0  0  0  0  0  0  0
   10.3834  -18.0438   22.8243 C   0  0  2  0  0  0  0  0  0  0  0  0
    9.9385  -17.2076   21.7820 N   0  0  0  0  0  0  0  0  0  0  0  0
    9.8934  -17.5830   24.1672 C   0  0  0  0  0  0  0  0  0  0  0  0
   10.2903  -16.4558   24.5541 O   0  0  0  0  0  0  0  0  0  0  0  0
    6.8373  -19.4916   26.3058 O   0  0  0  0  0  0  0  0  0  0  0  0
    7.1189  -18.1608   26.5223 C   0  0  0  0  0  0  0  0  0  0  0  0
    8.5901  -17.9191   26.2993 C   0  0  2  0  0  0  0  0  0  0  0  0
    9.0306  -18.3345   24.9948 N   0  0  0  0  0  0  0  0  0  0  0  0
    9.3624  -18.5096   27.3943 C   0  0  0  0  0  0  0  0  0  0  0  0
    9.0773  -18.1252   28.6949 O   0  0  0  0  0  0  0  0  0  0  0  0
   10.2775  -19.3527   27.2224 O   0  0  0  0  0  0  0  0  0  0  0  0
  1  2  1  0
  2  3  1  0
  3  4  1  0
  5  4  1  0
  5  7  1  0
  5  6  1  1
  7  8  2  0
  9 10  1  0
 10 12  1  0
 10 11  2  0
 12 13  1  0
 14 13  1  1
 15 14  1  0
 15  7  1  0
 16 17  2  0
 16 14  1  0
 18 19  1  0
 20 19  1  1
 20 22  1  0
 20 21  1  0
 21 16  1  0
 22 23  1  0
 24 22  2  0
M  END
$$$$
