MQS.pdb
     RDKit          3D

 24 23  0  0  1  0  0  0  0  0999 V2000
    7.6717  -12.2671   22.0495 C   0  0  0  0  0  0  0  0  0  0  0  0
    8.4028  -12.5727   20.4341 S   0  0  0  0  0  0  0  0  0  0  0  0
    7.1575  -13.3757   19.3669 C   0  0  0  0  0  0  0  0  0  0  0  0
    7.3329  -14.8534   19.5014 C   0  0  0  0  0  0  0  0  0  0  0  0
    8.7301  -15.3331   19.2467 C   0  0  2  0  0  0  0  0  0  0  0  0
    8.9260  -15.7009   17.8840 N   0  0  0  0  0  0  0  0  0  0  0  0
    9.2148  -16.3414   20.2193 C   0  0  0  0  0  0  0  0  0  0  0  0
    8.5110  -16.7216   21.1688 O   0  0  0  0  0  0  0  0  0  0  0  0
   14.5291  -20.0812   19.2188 N   0  0  0  0  0  0  0  0  0  0  0  0
   14.2320  -20.1099   20.6410 C   0  0  0  0  0  0  0  0  0  0  0  0
   15.1045  -20.6080   21.3639 O   0  0  0  0  0  0  0  0  0  0  0  0
   12.9664  -19.5733   21.1159 C   0  0  0  0  0  0  0  0  0  0  0  0
   12.3522  -18.4623   20.3702 C   0  0  0  0  0  0  0  0  0  0  0  0
   11.1038  -17.8662   20.8893 C   0  0  2  0  0  0  0  0  0  0  0  0
   10.5174  -16.8849   20.0665 N   0  0  0  0  0  0  0  0  0  0  0  0
   11.3407  -17.3657   22.2854 C   0  0  0  0  0  0  0  0  0  0  0  0
   11.9499  -16.2727   22.3950 O   0  0  0  0  0  0  0  0  0  0  0  0
    8.9389  -18.2129   25.3402 O   0  0  0  0  0  0  0  0  0  0  0  0
    9.8520  -17.1922   25.4863 C   0  0  0  0  0  0  0  0  0  0  0  0
   11.1356  -17.5671   24.7904 C   0  0  2  0  0  0  0  0  0  0  0  0
   10.9229  -18.0451   23.4506 N   0  0  0  0  0  0  0  0  0  0  0  0
   11.9033  -18.4914   25.6274 C   0  0  0  0  0  0  0  0  0  0  0  0
   12.2376  -18.1042   26.9154 O   0  0  0  0  0  0  0  0  0  0  0  0
   12.2804  -19.6260   25.2428 O   0  0  0  0  0  0  0  0  0  0  0  0
  1  2  1  0
  2  3  1  0
  3  4  1  0
  5  4  1  0
  5  7  1  0
  5  6  1  6
  7  8  2  0
  9 10  1  0
 10 12  1  0
 10 11  2  0
 12 13  1  0
 14 13  1  6
 15 14  1  0
 15  7  1  0
 16 17  2  0
 16 14  1  0
 18 19  1  0
 20 19  1  1
 20 22  1  0
 20 21  1  0
 21 16  1  0
 22 23  1  0
 24 22  2  0
M  END
$$$$
