MQS.pdb
     RDKit          3D

 24 23  0  0  1  0  0  0  0  0999 V2000
    8.8506  -11.3972   19.9535 C   0  0  0  0  0  0  0  0  0  0  0  0
    8.3055  -12.6720   21.1005 S   0  0  0  0  0  0  0  0  0  0  0  0
    6.9758  -13.6437   20.3116 C   0  0  0  0  0  0  0  0  0  0  0  0
    6.5127  -14.6623   21.3017 C   0  0  0  0  0  0  0  0  0  0  0  0
    7.6033  -15.5397   21.8382 C   0  0  2  0  0  0  0  0  0  0  0  0
    7.9731  -16.5560   20.9102 N   0  0  0  0  0  0  0  0  0  0  0  0
    7.3636  -16.0373   23.2139 C   0  0  0  0  0  0  0  0  0  0  0  0
    7.0793  -15.2669   24.1450 O   0  0  0  0  0  0  0  0  0  0  0  0
    5.1971  -21.8507   24.4145 N   0  0  0  0  0  0  0  0  0  0  0  0
    4.7623  -20.7425   23.5811 C   0  0  0  0  0  0  0  0  0  0  0  0
    3.7947  -20.9699   22.8436 O   0  0  0  0  0  0  0  0  0  0  0  0
    5.4693  -19.4737   23.6562 C   0  0  0  0  0  0  0  0  0  0  0  0
    6.4952  -19.3037   24.6985 C   0  0  0  0  0  0  0  0  0  0  0  0
    7.2728  -18.0476   24.7280 C   0  0  2  0  0  0  0  0  0  0  0  0
    7.4649  -17.4287   23.4776 N   0  0  0  0  0  0  0  0  0  0  0  0
    8.5704  -18.2887   25.4449 C   0  0  0  0  0  0  0  0  0  0  0  0
    9.5392  -18.6688   24.7415 O   0  0  0  0  0  0  0  0  0  0  0  0
    9.1182  -16.8392   29.0590 O   0  0  0  0  0  0  0  0  0  0  0  0
   10.2825  -17.4340   28.6261 C   0  0  0  0  0  0  0  0  0  0  0  0
    9.9607  -18.4324   27.5435 C   0  0  2  0  0  0  0  0  0  0  0  0
    8.7507  -18.1134   26.8344 N   0  0  0  0  0  0  0  0  0  0  0  0
    9.9754  -19.7880   28.0971 C   0  0  0  0  0  0  0  0  0  0  0  0
   11.0622  -20.1854   28.8597 O   0  0  0  0  0  0  0  0  0  0  0  0
    9.0516  -20.6203   27.9196 O   0  0  0  0  0  0  0  0  0  0  0  0
  1  2  1  0
  2  3  1  0
  3  4  1  0
  5  4  1  0
  5  7  1  0
  5  6  1  6
  7  8  2  0
  9 10  1  0
 10 12  1  0
 10 11  2  0
 12 13  1  0
 14 13  1  6
 15 14  1  0
 15  7  1  0
 16 17  2  0
 16 14  1  0
 18 19  1  0
 20 19  1  1
 20 22  1  0
 20 21  1  0
 21 16  1  0
 22 23  1  0
 24 22  2  0
M  END
$$$$
