MQS.pdb
     RDKit          3D

 24 23  0  0  1  0  0  0  0  0999 V2000
    6.8151  -11.8316   27.4507 C   0  0  0  0  0  0  0  0  0  0  0  0
    6.0382  -11.3056   25.9153 S   0  0  0  0  0  0  0  0  0  0  0  0
    5.7410  -12.7751   24.8727 C   0  0  0  0  0  0  0  0  0  0  0  0
    6.4154  -13.9368   25.5269 C   0  0  0  0  0  0  0  0  0  0  0  0
    7.1733  -14.8204   24.5824 C   0  0  2  0  0  0  0  0  0  0  0  0
    6.5706  -16.1055   24.4569 N   0  0  0  0  0  0  0  0  0  0  0  0
    8.6349  -14.8609   24.8265 C   0  0  0  0  0  0  0  0  0  0  0  0
    9.3552  -13.8679   24.6354 O   0  0  0  0  0  0  0  0  0  0  0  0
   12.5928  -16.9254   29.1544 N   0  0  0  0  0  0  0  0  0  0  0  0
   11.2741  -16.3261   29.2716 C   0  0  0  0  0  0  0  0  0  0  0  0
   11.0058  -15.8246   30.3709 O   0  0  0  0  0  0  0  0  0  0  0  0
   10.3743  -16.3538   28.1293 C   0  0  0  0  0  0  0  0  0  0  0  0
   10.8545  -16.9535   26.8733 C   0  0  0  0  0  0  0  0  0  0  0  0
   10.5903  -16.2444   25.6041 C   0  0  2  0  0  0  0  0  0  0  0  0
    9.2300  -16.0652   25.2862 N   0  0  0  0  0  0  0  0  0  0  0  0
   11.3457  -16.9207   24.4960 C   0  0  0  0  0  0  0  0  0  0  0  0
   11.1037  -18.1396   24.3129 O   0  0  0  0  0  0  0  0  0  0  0  0
   11.6037  -16.1084   20.9356 O   0  0  0  0  0  0  0  0  0  0  0  0
   12.9281  -16.1951   21.3036 C   0  0  0  0  0  0  0  0  0  0  0  0
   13.0336  -16.9165   22.6230 C   0  0  2  0  0  0  0  0  0  0  0  0
   12.2896  -16.2710   23.6710 N   0  0  0  0  0  0  0  0  0  0  0  0
   14.4419  -17.1400   22.9562 C   0  0  0  0  0  0  0  0  0  0  0  0
   15.2693  -17.7155   22.0050 O   0  0  0  0  0  0  0  0  0  0  0  0
   14.9494  -16.8376   24.0646 O   0  0  0  0  0  0  0  0  0  0  0  0
  1  2  1  0
  2  3  1  0
  3  4  1  0
  5  4  1  0
  5  7  1  0
  5  6  1  1
  7  8  2  0
  9 10  1  0
 10 12  1  0
 10 11  2  0
 12 13  1  0
 14 13  1  1
 15 14  1  0
 15  7  1  0
 16 17  2  0
 16 14  1  0
 18 19  1  0
 20 19  1  6
 20 22  1  0
 20 21  1  0
 21 16  1  0
 22 23  1  0
 24 22  2  0
M  END
$$$$
