MQS.pdb
     RDKit          3D

 24 23  0  0  1  0  0  0  0  0999 V2000
    7.4662  -12.4018   21.2638 C   0  0  0  0  0  0  0  0  0  0  0  0
    6.6346  -12.0427   19.7091 S   0  0  0  0  0  0  0  0  0  0  0  0
    7.3312  -13.1173   18.4073 C   0  0  0  0  0  0  0  0  0  0  0  0
    8.4757  -13.8682   19.0061 C   0  0  0  0  0  0  0  0  0  0  0  0
    9.1130  -14.8600   18.0802 C   0  0  2  0  0  0  0  0  0  0  0  0
    8.1599  -15.7703   17.5382 N   0  0  0  0  0  0  0  0  0  0  0  0
   10.3263  -15.5123   18.6278 C   0  0  0  0  0  0  0  0  0  0  0  0
   10.2732  -16.6151   19.1956 O   0  0  0  0  0  0  0  0  0  0  0  0
   16.3730  -13.3332   17.5958 N   0  0  0  0  0  0  0  0  0  0  0  0
   16.5089  -14.3908   18.5830 C   0  0  0  0  0  0  0  0  0  0  0  0
   17.6668  -14.6633   18.9250 O   0  0  0  0  0  0  0  0  0  0  0  0
   15.3159  -15.0491   19.0915 C   0  0  0  0  0  0  0  0  0  0  0  0
   14.0026  -14.5877   18.6120 C   0  0  0  0  0  0  0  0  0  0  0  0
   12.7895  -15.2782   19.0969 C   0  0  2  0  0  0  0  0  0  0  0  0
   11.5816  -14.8603   18.5054 N   0  0  0  0  0  0  0  0  0  0  0  0
   12.7429  -15.1970   20.5959 C   0  0  0  0  0  0  0  0  0  0  0  0
   12.2308  -14.1605   21.0871 O   0  0  0  0  0  0  0  0  0  0  0  0
   10.7087  -17.4375   23.7693 O   0  0  0  0  0  0  0  0  0  0  0  0
   11.2034  -17.0500   22.5438 C   0  0  0  0  0  0  0  0  0  0  0  0
   12.6229  -16.5699   22.7073 C   0  0  2  0  0  0  0  0  0  0  0  0
   13.2332  -16.2020   21.4581 N   0  0  0  0  0  0  0  0  0  0  0  0
   13.3954  -17.5527   23.4700 C   0  0  0  0  0  0  0  0  0  0  0  0
   14.4030  -18.2538   22.8268 O   0  0  0  0  0  0  0  0  0  0  0  0
   13.1964  -17.8003   24.6852 O   0  0  0  0  0  0  0  0  0  0  0  0
  1  2  1  0
  2  3  1  0
  3  4  1  0
  5  4  1  0
  5  7  1  0
  5  6  1  1
  7  8  2  0
  9 10  1  0
 10 12  1  0
 10 11  2  0
 12 13  1  0
 14 13  1  6
 15 14  1  0
 15  7  1  0
 16 17  2  0
 16 14  1  0
 18 19  1  0
 20 19  1  6
 20 22  1  0
 20 21  1  0
 21 16  1  0
 22 23  1  0
 24 22  2  0
M  END
$$$$
