MQS.pdb
     RDKit          3D

 24 23  0  0  1  0  0  0  0  0999 V2000
    9.0887  -11.9182   19.3057 C   0  0  0  0  0  0  0  0  0  0  0  0
    7.4240  -12.3012   19.8712 S   0  0  0  0  0  0  0  0  0  0  0  0
    7.4498  -13.9142   20.7269 C   0  0  0  0  0  0  0  0  0  0  0  0
    7.4773  -14.9802   19.6804 C   0  0  0  0  0  0  0  0  0  0  0  0
    7.5163  -16.3764   20.2248 C   0  0  2  0  0  0  0  0  0  0  0  0
    6.5493  -16.5736   21.2528 N   0  0  0  0  0  0  0  0  0  0  0  0
    8.8747  -16.8561   20.5745 C   0  0  0  0  0  0  0  0  0  0  0  0
    9.0715  -18.0095   20.9897 O   0  0  0  0  0  0  0  0  0  0  0  0
   14.2373  -13.7590   18.4463 N   0  0  0  0  0  0  0  0  0  0  0  0
   14.5804  -15.1229   18.8119 C   0  0  0  0  0  0  0  0  0  0  0  0
   15.6369  -15.5588   18.3366 O   0  0  0  0  0  0  0  0  0  0  0  0
   13.6894  -15.8733   19.6827 C   0  0  0  0  0  0  0  0  0  0  0  0
   12.2497  -15.5681   19.6431 C   0  0  0  0  0  0  0  0  0  0  0  0
   11.3386  -16.3386   20.5147 C   0  0  2  0  0  0  0  0  0  0  0  0
    9.9800  -15.9758   20.4362 N   0  0  0  0  0  0  0  0  0  0  0  0
   11.8544  -16.2975   21.9246 C   0  0  0  0  0  0  0  0  0  0  0  0
   12.0433  -15.1593   22.4212 O   0  0  0  0  0  0  0  0  0  0  0  0
   11.9448  -19.6614   24.3100 O   0  0  0  0  0  0  0  0  0  0  0  0
   11.9219  -18.4344   24.9350 C   0  0  0  0  0  0  0  0  0  0  0  0
   12.6021  -17.4144   24.0579 C   0  0  2  0  0  0  0  0  0  0  0  0
   12.1298  -17.4451   22.6998 N   0  0  0  0  0  0  0  0  0  0  0  0
   14.0556  -17.5474   24.1760 C   0  0  0  0  0  0  0  0  0  0  0  0
   14.6365  -17.4313   25.4289 O   0  0  0  0  0  0  0  0  0  0  0  0
   14.8146  -17.7626   23.1987 O   0  0  0  0  0  0  0  0  0  0  0  0
  1  2  1  0
  2  3  1  0
  3  4  1  0
  5  4  1  0
  5  7  1  0
  5  6  1  1
  7  8  2  0
  9 10  1  0
 10 12  1  0
 10 11  2  0
 12 13  1  0
 14 13  1  6
 15 14  1  0
 15  7  1  0
 16 17  2  0
 16 14  1  0
 18 19  1  0
 20 19  1  1
 20 22  1  0
 20 21  1  0
 21 16  1  0
 22 23  1  0
 24 22  2  0
M  END
$$$$
