MQS.pdb
     RDKit          3D

 24 23  0  0  1  0  0  0  0  0999 V2000
    7.7148  -12.7875   20.9649 C   0  0  0  0  0  0  0  0  0  0  0  0
    7.7895  -12.2725   19.2424 S   0  0  0  0  0  0  0  0  0  0  0  0
    7.9939  -13.7534   18.1938 C   0  0  0  0  0  0  0  0  0  0  0  0
    8.7099  -14.7849   19.0036 C   0  0  0  0  0  0  0  0  0  0  0  0
    8.9860  -16.0619   18.2686 C   0  0  2  0  0  0  0  0  0  0  0  0
    7.8093  -16.5942   17.6665 N   0  0  0  0  0  0  0  0  0  0  0  0
    9.7685  -17.0540   19.0440 C   0  0  0  0  0  0  0  0  0  0  0  0
    9.2156  -17.8999   19.7651 O   0  0  0  0  0  0  0  0  0  0  0  0
   16.0483  -18.2377   17.9130 N   0  0  0  0  0  0  0  0  0  0  0  0
   15.7669  -18.8822   19.1846 C   0  0  0  0  0  0  0  0  0  0  0  0
   16.7349  -19.4097   19.7474 O   0  0  0  0  0  0  0  0  0  0  0  0
   14.4079  -18.8743   19.7027 C   0  0  0  0  0  0  0  0  0  0  0  0
   13.4699  -17.8598   19.1940 C   0  0  0  0  0  0  0  0  0  0  0  0
   12.0603  -17.9158   19.6333 C   0  0  2  0  0  0  0  0  0  0  0  0
   11.1860  -17.0364   18.9655 N   0  0  0  0  0  0  0  0  0  0  0  0
   12.0024  -17.7466   21.1245 C   0  0  0  0  0  0  0  0  0  0  0  0
   12.5274  -16.7061   21.5931 O   0  0  0  0  0  0  0  0  0  0  0  0
    9.5197  -20.0126   23.4899 O   0  0  0  0  0  0  0  0  0  0  0  0
    9.9690  -18.8103   23.9895 C   0  0  0  0  0  0  0  0  0  0  0  0
   11.3385  -18.5181   23.4314 C   0  0  2  0  0  0  0  0  0  0  0  0
   11.4022  -18.6748   22.0031 N   0  0  0  0  0  0  0  0  0  0  0  0
   12.3461  -19.2989   24.1521 C   0  0  0  0  0  0  0  0  0  0  0  0
   12.4729  -19.1230   25.5208 O   0  0  0  0  0  0  0  0  0  0  0  0
   13.1099  -20.1272   23.5971 O   0  0  0  0  0  0  0  0  0  0  0  0
  1  2  1  0
  2  3  1  0
  3  4  1  0
  5  4  1  0
  5  7  1  0
  5  6  1  1
  7  8  2  0
  9 10  1  0
 10 12  1  0
 10 11  2  0
 12 13  1  0
 14 13  1  6
 15 14  1  0
 15  7  1  0
 16 17  2  0
 16 14  1  0
 18 19  1  0
 20 19  1  1
 20 22  1  0
 20 21  1  0
 21 16  1  0
 22 23  1  0
 24 22  2  0
M  END
$$$$
