MQS.pdb
     RDKit          3D

 24 23  0  0  1  0  0  0  0  0999 V2000
    8.7895  -11.9698   19.3738 C   0  0  0  0  0  0  0  0  0  0  0  0
    7.1891  -12.7807   19.5114 S   0  0  0  0  0  0  0  0  0  0  0  0
    7.4478  -14.5048   20.0548 C   0  0  0  0  0  0  0  0  0  0  0  0
    8.5355  -14.4970   21.0791 C   0  0  0  0  0  0  0  0  0  0  0  0
    8.5818  -15.7255   21.9370 C   0  0  2  0  0  0  0  0  0  0  0  0
    7.2983  -16.0583   22.4591 N   0  0  0  0  0  0  0  0  0  0  0  0
    9.6626  -15.7194   22.9517 C   0  0  0  0  0  0  0  0  0  0  0  0
    9.7546  -14.8177   23.8001 O   0  0  0  0  0  0  0  0  0  0  0  0
   11.3397  -19.8366   26.9745 N   0  0  0  0  0  0  0  0  0  0  0  0
   12.5097  -18.9748   26.9622 C   0  0  0  0  0  0  0  0  0  0  0  0
   13.3400  -19.1804   27.8568 O   0  0  0  0  0  0  0  0  0  0  0  0
   12.6306  -17.9514   25.9360 C   0  0  0  0  0  0  0  0  0  0  0  0
   11.5350  -17.8006   24.9640 C   0  0  0  0  0  0  0  0  0  0  0  0
   11.7211  -16.8775   23.8253 C   0  0  2  0  0  0  0  0  0  0  0  0
   10.6206  -16.7672   22.9534 N   0  0  0  0  0  0  0  0  0  0  0  0
   12.9842  -17.2410   23.0985 C   0  0  0  0  0  0  0  0  0  0  0  0
   13.0329  -18.3914   22.5966 O   0  0  0  0  0  0  0  0  0  0  0  0
   16.2830  -14.6298   22.7380 O   0  0  0  0  0  0  0  0  0  0  0  0
   15.9853  -15.4688   21.6871 C   0  0  0  0  0  0  0  0  0  0  0  0
   15.2798  -16.6939   22.2105 C   0  0  2  0  0  0  0  0  0  0  0  0
   14.0908  -16.3757   22.9546 N   0  0  0  0  0  0  0  0  0  0  0  0
   16.2250  -17.5349   22.9478 C   0  0  0  0  0  0  0  0  0  0  0  0
   17.3304  -18.0387   22.2809 O   0  0  0  0  0  0  0  0  0  0  0  0
   16.0914  -17.8296   24.1614 O   0  0  0  0  0  0  0  0  0  0  0  0
  1  2  1  0
  2  3  1  0
  3  4  1  0
  5  4  1  0
  5  7  1  0
  5  6  1  1
  7  8  2  0
  9 10  1  0
 10 12  1  0
 10 11  2  0
 12 13  1  0
 14 13  1  1
 15 14  1  0
 15  7  1  0
 16 17  2  0
 16 14  1  0
 18 19  1  0
 20 19  1  1
 20 22  1  0
 20 21  1  0
 21 16  1  0
 22 23  1  0
 24 22  2  0
M  END
$$$$
