MQS.pdb
     RDKit          3D

 24 23  0  0  1  0  0  0  0  0999 V2000
    7.7648  -11.5488   20.1623 C   0  0  0  0  0  0  0  0  0  0  0  0
    6.9674  -12.7144   19.0473 S   0  0  0  0  0  0  0  0  0  0  0  0
    7.2574  -14.4093   19.6622 C   0  0  0  0  0  0  0  0  0  0  0  0
    8.7342  -14.6341   19.6872 C   0  0  0  0  0  0  0  0  0  0  0  0
    9.1439  -15.9745   20.2189 C   0  0  2  0  0  0  0  0  0  0  0  0
    8.0715  -16.9121   20.1809 N   0  0  0  0  0  0  0  0  0  0  0  0
    9.8543  -15.9230   21.5190 C   0  0  0  0  0  0  0  0  0  0  0  0
   10.8992  -15.2685   21.6649 O   0  0  0  0  0  0  0  0  0  0  0  0
    7.7061  -19.0362   26.8338 N   0  0  0  0  0  0  0  0  0  0  0  0
    8.9000  -18.3260   27.2602 C   0  0  0  0  0  0  0  0  0  0  0  0
    9.2277  -18.4843   28.4432 O   0  0  0  0  0  0  0  0  0  0  0  0
    9.6143  -17.4943   26.3046 C   0  0  0  0  0  0  0  0  0  0  0  0
    9.0870  -17.3908   24.9338 C   0  0  0  0  0  0  0  0  0  0  0  0
    9.9113  -16.7201   23.9072 C   0  0  2  0  0  0  0  0  0  0  0  0
    9.3317  -16.6422   22.6259 N   0  0  0  0  0  0  0  0  0  0  0  0
   11.2713  -17.3567   23.8748 C   0  0  0  0  0  0  0  0  0  0  0  0
   11.3056  -18.6014   23.7093 O   0  0  0  0  0  0  0  0  0  0  0  0
   14.6517  -15.5932   22.6474 O   0  0  0  0  0  0  0  0  0  0  0  0
   14.8987  -16.2729   23.8195 C   0  0  0  0  0  0  0  0  0  0  0  0
   13.7829  -17.2544   24.0723 C   0  0  2  0  0  0  0  0  0  0  0  0
   12.4818  -16.6439   24.0172 N   0  0  0  0  0  0  0  0  0  0  0  0
   14.0353  -17.9847   25.3161 C   0  0  0  0  0  0  0  0  0  0  0  0
   15.2559  -18.6199   25.4808 O   0  0  0  0  0  0  0  0  0  0  0  0
   13.2022  -18.0700   26.2522 O   0  0  0  0  0  0  0  0  0  0  0  0
  1  2  1  0
  2  3  1  0
  3  4  1  0
  5  4  1  0
  5  7  1  0
  5  6  1  1
  7  8  2  0
  9 10  1  0
 10 12  1  0
 10 11  2  0
 12 13  1  0
 14 13  1  1
 15 14  1  0
 15  7  1  0
 16 17  2  0
 16 14  1  0
 18 19  1  0
 20 19  1  1
 20 22  1  0
 20 21  1  0
 21 16  1  0
 22 23  1  0
 24 22  2  0
M  END
$$$$
