MQS.pdb
     RDKit          3D

 24 23  0  0  1  0  0  0  0  0999 V2000
    6.1598  -11.1545   26.3350 C   0  0  0  0  0  0  0  0  0  0  0  0
    7.3513  -12.2169   27.1653 S   0  0  0  0  0  0  0  0  0  0  0  0
    6.8164  -13.9537   26.9858 C   0  0  0  0  0  0  0  0  0  0  0  0
    7.2832  -14.4342   25.6504 C   0  0  0  0  0  0  0  0  0  0  0  0
    6.8966  -15.8479   25.3352 C   0  0  2  0  0  0  0  0  0  0  0  0
    6.9396  -16.6811   26.4904 N   0  0  0  0  0  0  0  0  0  0  0  0
    7.5859  -16.4189   24.1536 C   0  0  0  0  0  0  0  0  0  0  0  0
    8.1855  -17.5046   24.2106 O   0  0  0  0  0  0  0  0  0  0  0  0
    7.2592  -13.5216   18.3435 N   0  0  0  0  0  0  0  0  0  0  0  0
    8.2621  -13.1390   19.3230 C   0  0  0  0  0  0  0  0  0  0  0  0
    8.7889  -12.0323   19.1509 O   0  0  0  0  0  0  0  0  0  0  0  0
    8.5812  -14.0508   20.4102 C   0  0  0  0  0  0  0  0  0  0  0  0
    7.8023  -15.2941   20.5336 C   0  0  0  0  0  0  0  0  0  0  0  0
    8.0563  -16.1764   21.6914 C   0  0  2  0  0  0  0  0  0  0  0  0
    7.5656  -15.7071   22.9253 N   0  0  0  0  0  0  0  0  0  0  0  0
    9.5217  -16.4997   21.7518 C   0  0  0  0  0  0  0  0  0  0  0  0
   10.0158  -17.0606   20.7423 O   0  0  0  0  0  0  0  0  0  0  0  0
   13.8913  -15.6192   23.4345 O   0  0  0  0  0  0  0  0  0  0  0  0
   12.5433  -15.3659   23.5608 C   0  0  0  0  0  0  0  0  0  0  0  0
   11.7629  -16.4775   22.9069 C   0  0  2  0  0  0  0  0  0  0  0  0
   10.3503  -16.2115   22.8582 N   0  0  0  0  0  0  0  0  0  0  0  0
   12.0970  -17.7566   23.5365 C   0  0  0  0  0  0  0  0  0  0  0  0
   13.1713  -18.4814   23.0454 O   0  0  0  0  0  0  0  0  0  0  0  0
   11.4608  -18.2405   24.5053 O   0  0  0  0  0  0  0  0  0  0  0  0
  1  2  1  0
  2  3  1  0
  3  4  1  0
  5  4  1  0
  5  7  1  0
  5  6  1  1
  7  8  2  0
  9 10  1  0
 10 12  1  0
 10 11  2  0
 12 13  1  0
 14 13  1  6
 15 14  1  0
 15  7  1  0
 16 17  2  0
 16 14  1  0
 18 19  1  0
 20 19  1  1
 20 22  1  0
 20 21  1  0
 21 16  1  0
 22 23  1  0
 24 22  2  0
M  END
$$$$
