MQS.pdb
     RDKit          3D

 24 23  0  0  1  0  0  0  0  0999 V2000
    8.6927  -11.6170   19.8340 C   0  0  0  0  0  0  0  0  0  0  0  0
    7.0780  -12.3783   19.6082 S   0  0  0  0  0  0  0  0  0  0  0  0
    7.0227  -13.9345   20.5621 C   0  0  0  0  0  0  0  0  0  0  0  0
    8.3009  -14.6653   20.3084 C   0  0  0  0  0  0  0  0  0  0  0  0
    8.4591  -15.9242   21.1068 C   0  0  2  0  0  0  0  0  0  0  0  0
    7.2217  -16.6131   21.2641 N   0  0  0  0  0  0  0  0  0  0  0  0
    9.2195  -15.7542   22.3679 C   0  0  0  0  0  0  0  0  0  0  0  0
   10.4519  -15.6044   22.3705 O   0  0  0  0  0  0  0  0  0  0  0  0
    6.8809  -12.6757   27.3387 N   0  0  0  0  0  0  0  0  0  0  0  0
    6.4401  -12.9299   25.9776 C   0  0  0  0  0  0  0  0  0  0  0  0
    5.4957  -12.2365   25.5785 O   0  0  0  0  0  0  0  0  0  0  0  0
    7.1093  -13.9540   25.1910 C   0  0  0  0  0  0  0  0  0  0  0  0
    8.4037  -14.4692   25.6671 C   0  0  0  0  0  0  0  0  0  0  0  0
    9.0877  -15.5092   24.8709 C   0  0  2  0  0  0  0  0  0  0  0  0
    8.5246  -15.7667   23.6059 N   0  0  0  0  0  0  0  0  0  0  0  0
    9.2162  -16.7567   25.6973 C   0  0  0  0  0  0  0  0  0  0  0  0
    8.1524  -17.3735   25.9534 O   0  0  0  0  0  0  0  0  0  0  0  0
   12.5664  -18.9406   25.6898 O   0  0  0  0  0  0  0  0  0  0  0  0
   11.3912  -19.5187   26.1162 C   0  0  0  0  0  0  0  0  0  0  0  0
   10.5876  -18.5046   26.8896 C   0  0  2  0  0  0  0  0  0  0  0  0
   10.4419  -17.2578   26.1875 N   0  0  0  0  0  0  0  0  0  0  0  0
   11.1392  -18.3569   28.2380 C   0  0  0  0  0  0  0  0  0  0  0  0
   11.4966  -17.0922   28.6777 O   0  0  0  0  0  0  0  0  0  0  0  0
   11.3091  -19.3188   29.0276 O   0  0  0  0  0  0  0  0  0  0  0  0
  1  2  1  0
  2  3  1  0
  3  4  1  0
  5  4  1  0
  5  7  1  0
  5  6  1  1
  7  8  2  0
  9 10  1  0
 10 12  1  0
 10 11  2  0
 12 13  1  0
 14 13  1  1
 15 14  1  0
 15  7  1  0
 16 17  2  0
 16 14  1  0
 18 19  1  0
 20 19  1  6
 20 22  1  0
 20 21  1  0
 21 16  1  0
 22 23  1  0
 24 22  2  0
M  END
$$$$
