MQS.pdb
     RDKit          3D

 24 23  0  0  1  0  0  0  0  0999 V2000
    7.5490  -11.9102   20.3489 C   0  0  0  0  0  0  0  0  0  0  0  0
    8.2175  -13.5733   20.5064 S   0  0  0  0  0  0  0  0  0  0  0  0
    6.8363  -14.7413   20.7572 C   0  0  0  0  0  0  0  0  0  0  0  0
    7.4137  -16.1183   20.8123 C   0  0  0  0  0  0  0  0  0  0  0  0
    8.4082  -16.3251   21.9148 C   0  0  2  0  0  0  0  0  0  0  0  0
    9.2516  -15.1899   22.0900 N   0  0  0  0  0  0  0  0  0  0  0  0
    9.1380  -17.6134   21.8430 C   0  0  0  0  0  0  0  0  0  0  0  0
    8.5412  -18.6935   21.7066 O   0  0  0  0  0  0  0  0  0  0  0  0
   13.2184  -19.0655   17.8188 N   0  0  0  0  0  0  0  0  0  0  0  0
   13.5247  -20.0694   18.8239 C   0  0  0  0  0  0  0  0  0  0  0  0
   14.3224  -20.9509   18.4797 O   0  0  0  0  0  0  0  0  0  0  0  0
   12.8931  -19.9851   20.1313 C   0  0  0  0  0  0  0  0  0  0  0  0
   11.9999  -18.8474   20.4061 C   0  0  0  0  0  0  0  0  0  0  0  0
   11.3917  -18.7331   21.7479 C   0  0  2  0  0  0  0  0  0  0  0  0
   10.5546  -17.6163   21.9365 N   0  0  0  0  0  0  0  0  0  0  0  0
   12.4735  -18.8109   22.7869 C   0  0  0  0  0  0  0  0  0  0  0  0
   13.2782  -17.8475   22.8340 O   0  0  0  0  0  0  0  0  0  0  0  0
   14.5923  -21.2244   26.4428 O   0  0  0  0  0  0  0  0  0  0  0  0
   13.5839  -21.2304   25.5047 C   0  0  0  0  0  0  0  0  0  0  0  0
   13.7083  -20.0090   24.6301 C   0  0  2  0  0  0  0  0  0  0  0  0
   12.6266  -19.8852   23.6903 N   0  0  0  0  0  0  0  0  0  0  0  0
   15.0329  -19.9768   24.0065 C   0  0  0  0  0  0  0  0  0  0  0  0
   16.0722  -19.3547   24.6798 O   0  0  0  0  0  0  0  0  0  0  0  0
   15.2850  -20.4850   22.8859 O   0  0  0  0  0  0  0  0  0  0  0  0
  1  2  1  0
  2  3  1  0
  3  4  1  0
  5  4  1  0
  5  7  1  0
  5  6  1  6
  7  8  2  0
  9 10  1  0
 10 12  1  0
 10 11  2  0
 12 13  1  0
 14 13  1  6
 15 14  1  0
 15  7  1  0
 16 17  2  0
 16 14  1  0
 18 19  1  0
 20 19  1  6
 20 22  1  0
 20 21  1  0
 21 16  1  0
 22 23  1  0
 24 22  2  0
M  END
$$$$
