RIF.pdb
     RDKit          3D

 31 31  0  0  1  0  0  0  0  0999 V2000
    7.3665  -22.3754   21.1366 N   0  0  0  0  0  0  0  0  0  0  0  0
    6.4474  -21.7293   20.2277 C   0  0  0  0  0  0  0  0  0  0  0  0
    6.5650  -21.8997   18.9690 N   0  0  0  0  0  0  0  0  0  0  0  0
    5.4088  -20.8973   20.7330 N   0  0  0  0  0  0  0  0  0  0  0  0
    5.6543  -19.9969   21.8295 C   0  0  0  0  0  0  0  0  0  0  0  0
    6.9596  -19.2725   21.6699 C   0  0  0  0  0  0  0  0  0  0  0  0
    7.2845  -18.3139   22.7787 C   0  0  0  0  0  0  0  0  0  0  0  0
    6.8824  -16.9348   22.3692 C   0  0  2  0  0  0  0  0  0  0  0  0
    6.9745  -16.7964   20.9475 N   0  0  0  0  0  0  0  0  0  0  0  0
    7.7507  -15.8976   23.0115 C   0  0  0  0  0  0  0  0  0  0  0  0
    8.9029  -15.6643   22.5485 O   0  0  0  0  0  0  0  0  0  0  0  0
    5.9512  -21.4216   18.2850 C   0  0  0  0  0  0  0  0  0  0  0  0
    5.5132  -11.7707   26.2347 C   0  0  0  0  0  0  0  0  0  0  0  0
    6.3328  -12.5857   25.2605 C   0  0  2  0  0  0  0  0  0  0  0  0
    7.4033  -13.4099   25.8645 C   0  0  0  0  0  0  0  0  0  0  0  0
    8.4844  -12.3987   26.3311 C   0  0  1  0  0  0  0  0  0  0  0  0
    8.1153  -14.3891   25.0324 N   0  0  0  0  0  0  0  0  0  0  0  0
    7.3065  -15.1722   24.1315 C   0  0  0  0  0  0  0  0  0  0  0  0
    9.3045  -15.0542   25.5760 O   0  0  0  0  0  0  0  0  0  0  0  0
    9.5040  -15.0577   26.8106 N   0  0  0  0  0  0  0  0  0  0  0  0
   10.2609  -15.7087   24.7872 C   0  0  2  0  0  0  0  0  0  0  0  0
   11.5208  -16.2243   25.3478 C   0  0  0  0  0  0  0  0  0  0  0  0
   11.3144  -17.2141   26.4310 C   0  0  0  0  0  0  0  0  0  0  0  0
   11.0624  -16.5767   27.7429 C   0  0  0  0  0  0  0  0  0  0  0  0
    9.8166  -16.6019   28.3578 C   0  0  0  0  0  0  0  0  0  0  0  0
    9.5677  -16.0207   29.5644 C   0  0  0  0  0  0  0  0  0  0  0  0
   10.6037  -15.3610   30.2302 C   0  0  0  0  0  0  0  0  0  0  0  0
   11.8501  -15.3181   29.6469 C   0  0  0  0  0  0  0  0  0  0  0  0
   12.0756  -15.9265   28.4046 C   0  0  0  0  0  0  0  0  0  0  0  0
   12.3806  -16.7880   24.2370 O   0  0  0  0  0  0  0  0  0  0  0  0
   13.5004  -17.2794   24.4864 O   0  0  0  0  0  0  0  0  0  0  0  0
  2  1  1  0
  2  3  2  0
  4  2  1  0
  5  4  1  0
  6  5  1  0
  7  6  1  0
  8  7  1  0
  8  9  1  6
 10 11  2  0
 10  8  1  0
 13 14  1  0
 13 12  1  0
 14 15  1  1
 16 17  1  6
 16 14  1  0
 17 10  1  0
 18 16  1  0
 19 18  2  0
 20 18  1  0
 21 20  1  0
 21 22  1  6
 22 23  1  0
 23 24  2  0
 24 25  1  0
 26 25  2  0
 27 26  1  0
 28 27  2  0
 28 23  1  0
 29 21  1  0
 29 31  1  0
 30 29  2  0
M  END
$$$$
