RIF.pdb
     RDKit          3D

 31 31  0  0  1  0  0  0  0  0999 V2000
    6.5037  -19.5433   16.9630 N   0  0  0  0  0  0  0  0  0  0  0  0
    6.5638  -18.1572   16.5587 C   0  0  0  0  0  0  0  0  0  0  0  0
    7.1061  -17.8364   15.4496 N   0  0  0  0  0  0  0  0  0  0  0  0
    6.0210  -17.1437   17.3980 N   0  0  0  0  0  0  0  0  0  0  0  0
    5.9460  -17.3303   18.8238 C   0  0  0  0  0  0  0  0  0  0  0  0
    7.2432  -17.8365   19.3852 C   0  0  0  0  0  0  0  0  0  0  0  0
    7.6152  -17.2615   20.7212 C   0  0  0  0  0  0  0  0  0  0  0  0
    8.1479  -15.8791   20.5298 C   0  0  2  0  0  0  0  0  0  0  0  0
    9.1792  -15.8815   19.5372 N   0  0  0  0  0  0  0  0  0  0  0  0
    8.7068  -15.3262   21.8041 C   0  0  0  0  0  0  0  0  0  0  0  0
    9.9547  -15.1757   21.9331 O   0  0  0  0  0  0  0  0  0  0  0  0
    7.2336  -16.8500   15.1596 C   0  0  0  0  0  0  0  0  0  0  0  0
    6.0016  -11.8970   25.6026 C   0  0  0  0  0  0  0  0  0  0  0  0
    7.0687  -12.5697   24.7698 C   0  0  2  0  0  0  0  0  0  0  0  0
    7.3092  -13.9971   25.0775 C   0  0  0  0  0  0  0  0  0  0  0  0
    7.9152  -14.0114   26.5064 C   0  0  2  0  0  0  0  0  0  0  0  0
    8.2460  -14.7656   24.2467 N   0  0  0  0  0  0  0  0  0  0  0  0
    7.8635  -14.9690   22.8714 C   0  0  0  0  0  0  0  0  0  0  0  0
    9.0278  -15.8419   24.8652 O   0  0  0  0  0  0  0  0  0  0  0  0
    8.5771  -17.0084   24.8774 N   0  0  0  0  0  0  0  0  0  0  0  0
   10.2834  -15.6515   25.4588 C   0  0  2  0  0  0  0  0  0  0  0  0
   11.0752  -16.7703   25.9963 C   0  0  0  0  0  0  0  0  0  0  0  0
   12.0423  -16.3518   27.0381 C   0  0  0  0  0  0  0  0  0  0  0  0
   11.3814  -15.7515   28.2187 C   0  0  0  0  0  0  0  0  0  0  0  0
   11.1530  -16.4647   29.3891 C   0  0  0  0  0  0  0  0  0  0  0  0
   10.5466  -15.9277   30.4843 C   0  0  0  0  0  0  0  0  0  0  0  0
   10.1256  -14.5960   30.4464 C   0  0  0  0  0  0  0  0  0  0  0  0
   10.3372  -13.8624   29.3007 C   0  0  0  0  0  0  0  0  0  0  0  0
   10.9650  -14.4427   28.1901 C   0  0  0  0  0  0  0  0  0  0  0  0
   10.1483  -17.8545   26.5025 O   0  0  0  0  0  0  0  0  0  0  0  0
    8.9301  -17.6299   26.6549 O   0  0  0  0  0  0  0  0  0  0  0  0
  2  1  1  0
  2  3  2  0
  4  2  1  0
  5  4  1  0
  6  5  1  0
  7  6  1  0
  8  7  1  0
  8  9  1  6
 10 11  2  0
 10  8  1  0
 13 14  1  0
 13 12  1  0
 14 15  1  6
 16 17  1  6
 16 14  1  0
 17 10  1  0
 18 16  1  0
 19 18  2  0
 20 18  1  0
 21 20  1  0
 21 22  1  6
 22 23  1  0
 23 24  2  0
 24 25  1  0
 26 25  2  0
 27 26  1  0
 28 27  2  0
 28 23  1  0
 29 21  1  0
 29 31  1  0
 30 29  2  0
M  END
$$$$
