RIF.pdb
     RDKit          3D

 31 31  0  0  1  0  0  0  0  0999 V2000
    8.3416  -18.2552   16.2772 N   0  0  0  0  0  0  0  0  0  0  0  0
    8.3922  -19.6994   16.2861 C   0  0  0  0  0  0  0  0  0  0  0  0
    7.6232  -20.3720   15.5222 N   0  0  0  0  0  0  0  0  0  0  0  0
    9.2980  -20.3776   17.1496 N   0  0  0  0  0  0  0  0  0  0  0  0
   10.1130  -19.6452   18.0838 C   0  0  0  0  0  0  0  0  0  0  0  0
    9.2936  -19.0741   19.2046 C   0  0  0  0  0  0  0  0  0  0  0  0
   10.0658  -18.2368   20.1826 C   0  0  0  0  0  0  0  0  0  0  0  0
    9.4363  -16.8854   20.2767 C   0  0  2  0  0  0  0  0  0  0  0  0
    9.9226  -16.0413   19.2280 N   0  0  0  0  0  0  0  0  0  0  0  0
    9.7289  -16.2353   21.5935 C   0  0  0  0  0  0  0  0  0  0  0  0
   10.9215  -15.9693   21.9148 O   0  0  0  0  0  0  0  0  0  0  0  0
    7.5946  -21.4075   15.5369 C   0  0  0  0  0  0  0  0  0  0  0  0
    6.9123  -12.6032   25.7794 C   0  0  0  0  0  0  0  0  0  0  0  0
    8.0078  -13.5935   25.4568 C   0  0  2  0  0  0  0  0  0  0  0  0
    7.8157  -14.3707   24.2121 C   0  0  0  0  0  0  0  0  0  0  0  0
    6.5189  -15.1927   24.4391 C   0  0  2  0  0  0  0  0  0  0  0  0
    8.8346  -15.3490   23.8087 N   0  0  0  0  0  0  0  0  0  0  0  0
    8.6937  -15.9132   22.4893 C   0  0  0  0  0  0  0  0  0  0  0  0
    9.4205  -16.2276   24.8272 O   0  0  0  0  0  0  0  0  0  0  0  0
    8.9943  -17.3959   24.9588 N   0  0  0  0  0  0  0  0  0  0  0  0
   10.4574  -15.8406   25.6876 C   0  0  2  0  0  0  0  0  0  0  0  0
   11.1857  -16.8089   26.5240 C   0  0  0  0  0  0  0  0  0  0  0  0
   12.1649  -16.1710   27.4351 C   0  0  0  0  0  0  0  0  0  0  0  0
   11.5206  -15.2908   28.4355 C   0  0  0  0  0  0  0  0  0  0  0  0
   11.3498  -15.6684   29.7618 C   0  0  0  0  0  0  0  0  0  0  0  0
   10.7593  -14.8708   30.6950 C   0  0  0  0  0  0  0  0  0  0  0  0
   10.2951  -13.6083   30.3176 C   0  0  0  0  0  0  0  0  0  0  0  0
   10.4492  -13.2048   29.0103 C   0  0  0  0  0  0  0  0  0  0  0  0
   11.0619  -14.0477   28.0731 C   0  0  0  0  0  0  0  0  0  0  0  0
   10.1997  -17.6702   27.2835 O   0  0  0  0  0  0  0  0  0  0  0  0
    8.9941  -17.3536   27.3450 O   0  0  0  0  0  0  0  0  0  0  0  0
  2  1  1  0
  2  3  2  0
  4  2  1  0
  5  4  1  0
  6  5  1  0
  7  6  1  0
  8  7  1  0
  8  9  1  6
 10 11  2  0
 10  8  1  0
 13 14  1  0
 13 12  1  0
 14 15  1  6
 16 17  1  1
 16 14  1  0
 17 10  1  0
 18 16  1  0
 19 18  2  0
 20 18  1  0
 21 20  1  0
 21 22  1  6
 22 23  1  0
 23 24  2  0
 24 25  1  0
 26 25  2  0
 27 26  1  0
 28 27  2  0
 28 23  1  0
 29 21  1  0
 29 31  1  0
 30 29  2  0
M  END
$$$$
