RIF.pdb
     RDKit          3D

 31 31  0  0  1  0  0  0  0  0999 V2000
    7.3942  -12.7473   16.7084 N   0  0  0  0  0  0  0  0  0  0  0  0
    8.4617  -13.7183   16.7860 C   0  0  0  0  0  0  0  0  0  0  0  0
    9.6608  -13.3747   16.5189 N   0  0  0  0  0  0  0  0  0  0  0  0
    8.1792  -15.0630   17.1575 N   0  0  0  0  0  0  0  0  0  0  0  0
    7.0287  -15.3780   17.9641 C   0  0  0  0  0  0  0  0  0  0  0  0
    7.0414  -14.6273   19.2642 C   0  0  0  0  0  0  0  0  0  0  0  0
    6.5968  -15.4270   20.4545 C   0  0  0  0  0  0  0  0  0  0  0  0
    7.3485  -16.7174   20.4878 C   0  0  2  0  0  0  0  0  0  0  0  0
    6.4357  -17.8175   20.5614 N   0  0  0  0  0  0  0  0  0  0  0  0
    8.2756  -16.7811   21.6619 C   0  0  0  0  0  0  0  0  0  0  0  0
    7.9115  -17.3627   22.7228 O   0  0  0  0  0  0  0  0  0  0  0  0
   10.4361  -14.0601   16.4700 C   0  0  0  0  0  0  0  0  0  0  0  0
   14.3233  -15.3226   22.8335 C   0  0  0  0  0  0  0  0  0  0  0  0
   12.9864  -15.8690   23.2794 C   0  0  2  0  0  0  0  0  0  0  0  0
   11.8973  -15.7767   22.2816 C   0  0  0  0  0  0  0  0  0  0  0  0
   11.8177  -14.2742   21.9005 C   0  0  2  0  0  0  0  0  0  0  0  0
   10.5317  -16.1561   22.6681 N   0  0  0  0  0  0  0  0  0  0  0  0
    9.5551  -16.1997   21.6082 C   0  0  0  0  0  0  0  0  0  0  0  0
   10.0317  -15.7654   23.9908 O   0  0  0  0  0  0  0  0  0  0  0  0
    9.5215  -14.6351   24.1525 N   0  0  0  0  0  0  0  0  0  0  0  0
   10.0837  -16.5943   25.1201 C   0  0  2  0  0  0  0  0  0  0  0  0
    9.6000  -16.1546   26.4393 C   0  0  0  0  0  0  0  0  0  0  0  0
    8.1318  -15.9597   26.4861 C   0  0  0  0  0  0  0  0  0  0  0  0
    7.7418  -14.5402   26.3311 C   0  0  0  0  0  0  0  0  0  0  0  0
    6.6270  -14.1482   25.6002 C   0  0  0  0  0  0  0  0  0  0  0  0
    6.2540  -12.8469   25.4478 C   0  0  0  0  0  0  0  0  0  0  0  0
    7.0191  -11.8436   26.0477 C   0  0  0  0  0  0  0  0  0  0  0  0
    8.1302  -12.1996   26.7785 C   0  0  0  0  0  0  0  0  0  0  0  0
    8.4880  -13.5475   26.9181 C   0  0  0  0  0  0  0  0  0  0  0  0
   10.0654  -17.1257   27.5030 O   0  0  0  0  0  0  0  0  0  0  0  0
   10.6716  -18.1705   27.1891 O   0  0  0  0  0  0  0  0  0  0  0  0
  2  1  1  0
  2  3  2  0
  4  2  1  0
  5  4  1  0
  6  5  1  0
  7  6  1  0
  8  7  1  0
  8  9  1  1
 10 11  2  0
 10  8  1  0
 13 14  1  0
 13 12  1  0
 14 15  1  6
 16 17  1  1
 16 14  1  0
 17 10  1  0
 18 16  1  0
 19 18  2  0
 20 18  1  0
 21 20  1  0
 21 22  1  1
 22 23  1  0
 23 24  2  0
 24 25  1  0
 26 25  2  0
 27 26  1  0
 28 27  2  0
 28 23  1  0
 29 21  1  0
 29 31  1  0
 30 29  2  0
M  END
$$$$
