RIF.pdb
     RDKit          3D

 31 31  0  0  1  0  0  0  0  0999 V2000
   13.1071  -22.3281   18.3397 N   0  0  0  0  0  0  0  0  0  0  0  0
   13.4652  -22.2249   19.7360 C   0  0  0  0  0  0  0  0  0  0  0  0
   14.6814  -22.3578   20.0969 N   0  0  0  0  0  0  0  0  0  0  0  0
   12.4617  -21.9777   20.7148 N   0  0  0  0  0  0  0  0  0  0  0  0
   11.0651  -22.0443   20.3707 C   0  0  0  0  0  0  0  0  0  0  0  0
   10.6365  -20.8545   19.5616 C   0  0  0  0  0  0  0  0  0  0  0  0
   10.4487  -19.5926   20.3530 C   0  0  0  0  0  0  0  0  0  0  0  0
    9.9212  -18.5228   19.4538 C   0  0  2  0  0  0  0  0  0  0  0  0
   10.7070  -18.4513   18.2596 N   0  0  0  0  0  0  0  0  0  0  0  0
    9.9411  -17.1843   20.1247 C   0  0  0  0  0  0  0  0  0  0  0  0
   11.0413  -16.5989   20.3326 O   0  0  0  0  0  0  0  0  0  0  0  0
   14.9742  -22.3048   21.0893 C   0  0  0  0  0  0  0  0  0  0  0  0
    7.5851  -11.7145   20.1263 C   0  0  0  0  0  0  0  0  0  0  0  0
    8.1383  -12.8073   21.0121 C   0  0  2  0  0  0  0  0  0  0  0  0
    8.1635  -14.1599   20.4122 C   0  0  0  0  0  0  0  0  0  0  0  0
    6.6868  -14.4762   20.0538 C   0  0  2  0  0  0  0  0  0  0  0  0
    8.6235  -15.2979   21.2193 N   0  0  0  0  0  0  0  0  0  0  0  0
    8.7491  -16.5601   20.5335 C   0  0  0  0  0  0  0  0  0  0  0  0
    8.2425  -15.3672   22.6343 O   0  0  0  0  0  0  0  0  0  0  0  0
    7.0331  -15.4049   22.9504 N   0  0  0  0  0  0  0  0  0  0  0  0
    9.1649  -15.3982   23.6895 C   0  0  2  0  0  0  0  0  0  0  0  0
    8.7475  -15.5581   25.0923 C   0  0  0  0  0  0  0  0  0  0  0  0
    7.2870  -15.4003   25.2870 C   0  0  0  0  0  0  0  0  0  0  0  0
    6.9235  -14.0597   25.7985 C   0  0  0  0  0  0  0  0  0  0  0  0
    5.6117  -13.6995   26.0817 C   0  0  0  0  0  0  0  0  0  0  0  0
    5.2600  -12.4707   26.5529 C   0  0  0  0  0  0  0  0  0  0  0  0
    6.2538  -11.5123   26.7664 C   0  0  0  0  0  0  0  0  0  0  0  0
    7.5636  -11.8383   26.4950 C   0  0  0  0  0  0  0  0  0  0  0  0
    7.8944  -13.1116   26.0119 C   0  0  0  0  0  0  0  0  0  0  0  0
    9.2377  -16.8885   25.6220 O   0  0  0  0  0  0  0  0  0  0  0  0
    9.3368  -17.8767   24.8661 O   0  0  0  0  0  0  0  0  0  0  0  0
  2  1  1  0
  2  3  2  0
  4  2  1  0
  5  4  1  0
  6  5  1  0
  7  6  1  0
  8  7  1  0
  8  9  1  6
 10 11  2  0
 10  8  1  0
 13 14  1  0
 13 12  1  0
 14 15  1  6
 16 17  1  1
 16 14  1  0
 17 10  1  0
 18 16  1  0
 19 18  2  0
 20 18  1  0
 21 20  1  0
 21 22  1  6
 22 23  1  0
 23 24  2  0
 24 25  1  0
 26 25  2  0
 27 26  1  0
 28 27  2  0
 28 23  1  0
 29 21  1  0
 29 31  1  0
 30 29  2  0
M  END
$$$$
