RIF.pdb
     RDKit          3D

 31 31  0  0  1  0  0  0  0  0999 V2000
    9.4599  -14.2918   16.0441 N   0  0  0  0  0  0  0  0  0  0  0  0
    8.2339  -13.7735   16.6067 C   0  0  0  0  0  0  0  0  0  0  0  0
    7.9384  -12.5399   16.4717 N   0  0  0  0  0  0  0  0  0  0  0  0
    7.3523  -14.6365   17.3167 N   0  0  0  0  0  0  0  0  0  0  0  0
    7.2958  -16.0430   17.0133 C   0  0  0  0  0  0  0  0  0  0  0  0
    8.1651  -16.8445   17.9383 C   0  0  0  0  0  0  0  0  0  0  0  0
    8.6251  -16.1074   19.1627 C   0  0  0  0  0  0  0  0  0  0  0  0
    8.5226  -17.0113   20.3475 C   0  0  2  0  0  0  0  0  0  0  0  0
    7.1594  -17.3926   20.5598 N   0  0  0  0  0  0  0  0  0  0  0  0
    9.0364  -16.3485   21.5880 C   0  0  0  0  0  0  0  0  0  0  0  0
   10.2533  -16.0184   21.6694 O   0  0  0  0  0  0  0  0  0  0  0  0
    7.0284  -12.1510   16.7781 C   0  0  0  0  0  0  0  0  0  0  0  0
    6.9975  -12.6203   26.0596 C   0  0  0  0  0  0  0  0  0  0  0  0
    8.0232  -13.6319   25.6021 C   0  0  2  0  0  0  0  0  0  0  0  0
    7.5959  -14.5129   24.4924 C   0  0  0  0  0  0  0  0  0  0  0  0
    6.4310  -15.3614   25.0688 C   0  0  2  0  0  0  0  0  0  0  0  0
    8.5482  -15.4823   23.9341 N   0  0  0  0  0  0  0  0  0  0  0  0
    8.1847  -16.0850   22.6757 C   0  0  0  0  0  0  0  0  0  0  0  0
    9.3291  -16.3213   24.8498 O   0  0  0  0  0  0  0  0  0  0  0  0
    8.8643  -17.4153   25.2385 N   0  0  0  0  0  0  0  0  0  0  0  0
   10.5989  -15.9755   25.3328 C   0  0  2  0  0  0  0  0  0  0  0  0
   11.3867  -16.8797   26.1869 C   0  0  0  0  0  0  0  0  0  0  0  0
   12.1853  -16.1655   27.2106 C   0  0  0  0  0  0  0  0  0  0  0  0
   11.3415  -15.4167   28.1689 C   0  0  0  0  0  0  0  0  0  0  0  0
   11.0338  -15.9057   29.4326 C   0  0  0  0  0  0  0  0  0  0  0  0
   10.2593  -15.2298   30.3264 C   0  0  0  0  0  0  0  0  0  0  0  0
    9.7389  -13.9828   29.9717 C   0  0  0  0  0  0  0  0  0  0  0  0
   10.0254  -13.4707   28.7262 C   0  0  0  0  0  0  0  0  0  0  0  0
   10.8264  -14.1896   27.8284 C   0  0  0  0  0  0  0  0  0  0  0  0
   10.4748  -17.9119   26.8146 O   0  0  0  0  0  0  0  0  0  0  0  0
   10.9482  -18.8778   27.4476 O   0  0  0  0  0  0  0  0  0  0  0  0
  2  1  1  0
  2  3  2  0
  4  2  1  0
  5  4  1  0
  6  5  1  0
  7  6  1  0
  8  7  1  0
  8  9  1  1
 10 11  2  0
 10  8  1  0
 13 14  1  0
 13 12  1  0
 14 15  1  6
 16 17  1  1
 16 14  1  0
 17 10  1  0
 18 16  1  0
 19 18  2  0
 20 18  1  0
 21 20  1  0
 21 22  1  6
 22 23  1  0
 23 24  2  0
 24 25  1  0
 26 25  2  0
 27 26  1  0
 28 27  2  0
 28 23  1  0
 29 21  1  0
 29 31  1  0
 30 29  2  0
M  END
$$$$
