RIF.pdb
     RDKit          3D

 31 31  0  0  1  0  0  0  0  0999 V2000
   10.3335  -23.5526   18.4310 N   0  0  0  0  0  0  0  0  0  0  0  0
   11.4888  -23.3419   17.5888 C   0  0  0  0  0  0  0  0  0  0  0  0
   11.8199  -24.2195   16.7242 N   0  0  0  0  0  0  0  0  0  0  0  0
   12.2642  -22.1558   17.7228 N   0  0  0  0  0  0  0  0  0  0  0  0
   11.9118  -21.1511   18.6923 C   0  0  0  0  0  0  0  0  0  0  0  0
   10.6157  -20.4774   18.3457 C   0  0  0  0  0  0  0  0  0  0  0  0
   10.0871  -19.5526   19.4037 C   0  0  0  0  0  0  0  0  0  0  0  0
    9.7064  -18.2526   18.7741 C   0  0  2  0  0  0  0  0  0  0  0  0
   10.5420  -17.9901   17.6420 N   0  0  0  0  0  0  0  0  0  0  0  0
    9.8348  -17.1171   19.7416 C   0  0  0  0  0  0  0  0  0  0  0  0
   10.9721  -16.6267   19.9917 O   0  0  0  0  0  0  0  0  0  0  0  0
   12.6518  -24.1125   16.1162 C   0  0  0  0  0  0  0  0  0  0  0  0
    7.1068  -12.3400   19.8163 C   0  0  0  0  0  0  0  0  0  0  0  0
    8.1662  -13.3734   20.1240 C   0  0  2  0  0  0  0  0  0  0  0  0
    7.7795  -14.4053   21.1118 C   0  0  0  0  0  0  0  0  0  0  0  0
    7.6550  -13.6520   22.4631 C   0  0  2  0  0  0  0  0  0  0  0  0
    8.6879  -15.5301   21.3722 N   0  0  0  0  0  0  0  0  0  0  0  0
    8.7051  -16.5810   20.3851 C   0  0  0  0  0  0  0  0  0  0  0  0
    8.9303  -15.9430   22.7589 O   0  0  0  0  0  0  0  0  0  0  0  0
    8.2189  -16.8326   23.2751 N   0  0  0  0  0  0  0  0  0  0  0  0
    9.9345  -15.3974   23.5707 C   0  0  1  0  0  0  0  0  0  0  0  0
    9.9270  -15.5465   25.0354 C   0  0  0  0  0  0  0  0  0  0  0  0
   10.1632  -14.2711   25.7519 C   0  0  0  0  0  0  0  0  0  0  0  0
   10.1637  -14.4372   27.2227 C   0  0  0  0  0  0  0  0  0  0  0  0
    9.1242  -13.9832   28.0253 C   0  0  0  0  0  0  0  0  0  0  0  0
    9.1088  -14.1279   29.3797 C   0  0  0  0  0  0  0  0  0  0  0  0
   10.1833  -14.7602   30.0101 C   0  0  0  0  0  0  0  0  0  0  0  0
   11.2292  -15.2211   29.2426 C   0  0  0  0  0  0  0  0  0  0  0  0
   11.2159  -15.0582   27.8506 C   0  0  0  0  0  0  0  0  0  0  0  0
    8.6342  -16.1992   25.4752 O   0  0  0  0  0  0  0  0  0  0  0  0
    8.6492  -17.2319   26.1759 O   0  0  0  0  0  0  0  0  0  0  0  0
  2  1  1  0
  2  3  2  0
  4  2  1  0
  5  4  1  0
  6  5  1  0
  7  6  1  0
  8  7  1  0
  8  9  1  6
 10 11  2  0
 10  8  1  0
 13 14  1  0
 13 12  1  0
 14 15  1  6
 16 17  1  1
 16 14  1  0
 17 10  1  0
 18 16  1  0
 19 18  2  0
 20 18  1  0
 21 20  1  0
 21 22  1  1
 22 23  1  0
 23 24  2  0
 24 25  1  0
 26 25  2  0
 27 26  1  0
 28 27  2  0
 28 23  1  0
 29 21  1  0
 29 31  1  0
 30 29  2  0
M  END
$$$$
