RIF.pdb
     RDKit          3D

 31 31  0  0  1  0  0  0  0  0999 V2000
    7.0241  -14.3539   16.3854 N   0  0  0  0  0  0  0  0  0  0  0  0
    8.2830  -13.7342   16.7314 C   0  0  0  0  0  0  0  0  0  0  0  0
    8.3348  -12.4839   16.9790 N   0  0  0  0  0  0  0  0  0  0  0  0
    9.4709  -14.5158   16.7944 N   0  0  0  0  0  0  0  0  0  0  0  0
    9.4580  -15.9067   16.4220 C   0  0  0  0  0  0  0  0  0  0  0  0
    9.5523  -16.8025   17.6230 C   0  0  0  0  0  0  0  0  0  0  0  0
   10.7790  -16.5971   18.4638 C   0  0  0  0  0  0  0  0  0  0  0  0
   10.7436  -17.5391   19.6226 C   0  0  2  0  0  0  0  0  0  0  0  0
    9.6665  -18.4690   19.4688 N   0  0  0  0  0  0  0  0  0  0  0  0
   10.5680  -16.8081   20.9176 C   0  0  0  0  0  0  0  0  0  0  0  0
   11.4594  -16.0057   21.3152 O   0  0  0  0  0  0  0  0  0  0  0  0
    9.2201  -12.0026   17.2195 C   0  0  0  0  0  0  0  0  0  0  0  0
    6.9683  -14.4301   21.2288 C   0  0  0  0  0  0  0  0  0  0  0  0
    7.6217  -14.4381   22.5918 C   0  0  2  0  0  0  0  0  0  0  0  0
    7.8513  -15.7772   23.1786 C   0  0  0  0  0  0  0  0  0  0  0  0
    7.6829  -15.5873   24.7099 C   0  0  2  0  0  0  0  0  0  0  0  0
    9.1580  -16.4257   23.0053 N   0  0  0  0  0  0  0  0  0  0  0  0
    9.4212  -16.9993   21.7088 C   0  0  0  0  0  0  0  0  0  0  0  0
    9.7711  -17.1087   24.1498 O   0  0  0  0  0  0  0  0  0  0  0  0
    9.6225  -18.3426   24.2888 N   0  0  0  0  0  0  0  0  0  0  0  0
   10.5374  -16.4582   25.1269 C   0  0  2  0  0  0  0  0  0  0  0  0
   11.3059  -17.1973   26.1422 C   0  0  0  0  0  0  0  0  0  0  0  0
   12.0781  -16.3128   27.0462 C   0  0  0  0  0  0  0  0  0  0  0  0
   11.2226  -15.3261   27.7430 C   0  0  0  0  0  0  0  0  0  0  0  0
   10.6789  -14.2222   27.0976 C   0  0  0  0  0  0  0  0  0  0  0  0
    9.8899  -13.3051   27.7236 C   0  0  0  0  0  0  0  0  0  0  0  0
    9.6038  -13.4654   29.0816 C   0  0  0  0  0  0  0  0  0  0  0  0
   10.1279  -14.5491   29.7498 C   0  0  0  0  0  0  0  0  0  0  0  0
   10.9358  -15.4766   29.0780 C   0  0  0  0  0  0  0  0  0  0  0  0
   10.3810  -18.1116   26.9165 O   0  0  0  0  0  0  0  0  0  0  0  0
    9.1434  -18.0312   26.7765 O   0  0  0  0  0  0  0  0  0  0  0  0
  2  1  1  0
  2  3  2  0
  4  2  1  0
  5  4  1  0
  6  5  1  0
  7  6  1  0
  8  7  1  0
  8  9  1  6
 10 11  2  0
 10  8  1  0
 13 14  1  0
 13 12  1  0
 14 15  1  6
 16 17  1  1
 16 14  1  0
 17 10  1  0
 18 16  1  0
 19 18  2  0
 20 18  1  0
 21 20  1  0
 21 22  1  6
 22 23  1  0
 23 24  2  0
 24 25  1  0
 26 25  2  0
 27 26  1  0
 28 27  2  0
 28 23  1  0
 29 21  1  0
 29 31  1  0
 30 29  2  0
M  END
$$$$
