RIF.pdb
     RDKit          3D

 31 31  0  0  1  0  0  0  0  0999 V2000
   11.1478  -21.5296   16.6071 N   0  0  0  0  0  0  0  0  0  0  0  0
   10.1679  -20.6342   17.1783 C   0  0  0  0  0  0  0  0  0  0  0  0
    9.0064  -21.0653   17.4822 N   0  0  0  0  0  0  0  0  0  0  0  0
   10.4935  -19.2666   17.4012 N   0  0  0  0  0  0  0  0  0  0  0  0
    9.5284  -18.3633   17.9722 C   0  0  0  0  0  0  0  0  0  0  0  0
    9.2043  -18.7248   19.3929 C   0  0  0  0  0  0  0  0  0  0  0  0
    9.7243  -17.7606   20.4195 C   0  0  0  0  0  0  0  0  0  0  0  0
    8.5768  -17.0165   21.0203 C   0  0  2  0  0  0  0  0  0  0  0  0
    7.8361  -16.3437   19.9969 N   0  0  0  0  0  0  0  0  0  0  0  0
    9.0434  -16.0055   22.0214 C   0  0  0  0  0  0  0  0  0  0  0  0
   10.2299  -15.5735   21.9759 O   0  0  0  0  0  0  0  0  0  0  0  0
    8.2879  -20.4611   17.9204 C   0  0  0  0  0  0  0  0  0  0  0  0
    6.5868  -12.0545   26.2477 C   0  0  0  0  0  0  0  0  0  0  0  0
    7.7732  -12.7994   25.6801 C   0  0  2  0  0  0  0  0  0  0  0  0
    7.4488  -13.8545   24.6943 C   0  0  0  0  0  0  0  0  0  0  0  0
    6.5260  -14.8491   25.4480 C   0  0  2  0  0  0  0  0  0  0  0  0
    8.5314  -14.6730   24.1320 N   0  0  0  0  0  0  0  0  0  0  0  0
    8.1806  -15.5236   23.0219 C   0  0  0  0  0  0  0  0  0  0  0  0
    9.5799  -15.1774   25.0255 O   0  0  0  0  0  0  0  0  0  0  0  0
   10.2866  -14.3719   25.6702 N   0  0  0  0  0  0  0  0  0  0  0  0
    9.8529  -16.5391   25.2165 C   0  0  1  0  0  0  0  0  0  0  0  0
   10.6702  -17.0256   26.3404 C   0  0  0  0  0  0  0  0  0  0  0  0
    9.9613  -16.9753   27.6407 C   0  0  0  0  0  0  0  0  0  0  0  0
   10.2617  -15.7435   28.4045 C   0  0  0  0  0  0  0  0  0  0  0  0
   11.2257  -15.7019   29.4044 C   0  0  0  0  0  0  0  0  0  0  0  0
   11.5145  -14.5772   30.1165 C   0  0  0  0  0  0  0  0  0  0  0  0
   10.8161  -13.3986   29.8427 C   0  0  0  0  0  0  0  0  0  0  0  0
    9.8542  -13.4073   28.8577 C   0  0  0  0  0  0  0  0  0  0  0  0
    9.5801  -14.5802   28.1412 C   0  0  0  0  0  0  0  0  0  0  0  0
   11.1764  -18.4195   26.0374 O   0  0  0  0  0  0  0  0  0  0  0  0
   12.0078  -18.9713   26.7870 O   0  0  0  0  0  0  0  0  0  0  0  0
  2  1  1  0
  2  3  2  0
  4  2  1  0
  5  4  1  0
  6  5  1  0
  7  6  1  0
  8  7  1  0
  8  9  1  6
 10 11  2  0
 10  8  1  0
 13 14  1  0
 13 12  1  0
 14 15  1  6
 16 17  1  1
 16 14  1  0
 17 10  1  0
 18 16  1  0
 19 18  2  0
 20 18  1  0
 21 20  1  0
 21 22  1  1
 22 23  1  0
 23 24  2  0
 24 25  1  0
 26 25  2  0
 27 26  1  0
 28 27  2  0
 28 23  1  0
 29 21  1  0
 29 31  1  0
 30 29  2  0
M  END
$$$$
