RIF.pdb
     RDKit          3D

 31 31  0  0  1  0  0  0  0  0999 V2000
   13.3769  -17.5761   16.4598 N   0  0  0  0  0  0  0  0  0  0  0  0
   13.0268  -18.8236   15.8197 C   0  0  0  0  0  0  0  0  0  0  0  0
   12.8532  -18.8689   14.5568 N   0  0  0  0  0  0  0  0  0  0  0  0
   12.8711  -20.0063   16.5963 N   0  0  0  0  0  0  0  0  0  0  0  0
   13.2224  -20.0221   17.9926 C   0  0  0  0  0  0  0  0  0  0  0  0
   12.0063  -19.9550   18.8704 C   0  0  0  0  0  0  0  0  0  0  0  0
   11.9443  -18.7511   19.7653 C   0  0  0  0  0  0  0  0  0  0  0  0
   10.7599  -17.9214   19.3911 C   0  0  2  0  0  0  0  0  0  0  0  0
   11.0758  -17.0887   18.2706 N   0  0  0  0  0  0  0  0  0  0  0  0
   10.3185  -17.0527   20.5280 C   0  0  0  0  0  0  0  0  0  0  0  0
   11.1139  -16.8036   21.4776 O   0  0  0  0  0  0  0  0  0  0  0  0
   12.6078  -19.7454   14.0620 C   0  0  0  0  0  0  0  0  0  0  0  0
    7.3790  -13.4464   18.8851 C   0  0  0  0  0  0  0  0  0  0  0  0
    7.8132  -13.4657   20.3329 C   0  0  2  0  0  0  0  0  0  0  0  0
    7.4400  -14.6799   21.0921 C   0  0  0  0  0  0  0  0  0  0  0  0
    6.7547  -14.1602   22.3842 C   0  0  2  0  0  0  0  0  0  0  0  0
    8.4933  -15.5967   21.5485 N   0  0  0  0  0  0  0  0  0  0  0  0
    9.0239  -16.5044   20.5618 C   0  0  0  0  0  0  0  0  0  0  0  0
    8.4558  -16.0934   22.9284 O   0  0  0  0  0  0  0  0  0  0  0  0
    8.0546  -17.2551   23.1594 N   0  0  0  0  0  0  0  0  0  0  0  0
    8.8524  -15.3373   24.0403 C   0  0  2  0  0  0  0  0  0  0  0  0
    8.7447  -15.8494   25.4165 C   0  0  0  0  0  0  0  0  0  0  0  0
    8.9982  -14.8132   26.4450 C   0  0  0  0  0  0  0  0  0  0  0  0
    8.1699  -13.6024   26.2481 C   0  0  0  0  0  0  0  0  0  0  0  0
    7.0507  -13.3294   27.0250 C   0  0  0  0  0  0  0  0  0  0  0  0
    6.2779  -12.2203   26.8572 C   0  0  0  0  0  0  0  0  0  0  0  0
    6.6111  -11.3017   25.8587 C   0  0  0  0  0  0  0  0  0  0  0  0
    7.7144  -11.5438   25.0716 C   0  0  0  0  0  0  0  0  0  0  0  0
    8.4908  -12.6938   25.2690 C   0  0  0  0  0  0  0  0  0  0  0  0
    7.3957  -16.5074   25.6119 O   0  0  0  0  0  0  0  0  0  0  0  0
    7.1564  -17.1750   26.6389 O   0  0  0  0  0  0  0  0  0  0  0  0
  2  1  1  0
  2  3  2  0
  4  2  1  0
  5  4  1  0
  6  5  1  0
  7  6  1  0
  8  7  1  0
  8  9  1  6
 10 11  2  0
 10  8  1  0
 13 14  1  0
 13 12  1  0
 14 15  1  6
 16 17  1  1
 16 14  1  0
 17 10  1  0
 18 16  1  0
 19 18  2  0
 20 18  1  0
 21 20  1  0
 21 22  1  6
 22 23  1  0
 23 24  2  0
 24 25  1  0
 26 25  2  0
 27 26  1  0
 28 27  2  0
 28 23  1  0
 29 21  1  0
 29 31  1  0
 30 29  2  0
M  END
$$$$
