RIF.pdb
     RDKit          3D

 31 31  0  0  1  0  0  0  0  0999 V2000
    8.6166  -24.1780   20.2547 N   0  0  0  0  0  0  0  0  0  0  0  0
   10.0299  -23.9338   20.4322 C   0  0  0  0  0  0  0  0  0  0  0  0
   10.8831  -24.7997   20.0453 N   0  0  0  0  0  0  0  0  0  0  0  0
   10.4757  -22.7277   21.0424 N   0  0  0  0  0  0  0  0  0  0  0  0
    9.5960  -21.5941   21.1624 C   0  0  0  0  0  0  0  0  0  0  0  0
    9.1480  -21.0960   19.8188 C   0  0  0  0  0  0  0  0  0  0  0  0
    8.2719  -19.8776   19.8617 C   0  0  0  0  0  0  0  0  0  0  0  0
    8.8829  -18.8035   19.0225 C   0  0  2  0  0  0  0  0  0  0  0  0
   10.0602  -19.2951   18.3736 N   0  0  0  0  0  0  0  0  0  0  0  0
    9.2498  -17.6075   19.8453 C   0  0  0  0  0  0  0  0  0  0  0  0
   10.3122  -17.6139   20.5293 O   0  0  0  0  0  0  0  0  0  0  0  0
   11.9002  -24.6859   20.2057 C   0  0  0  0  0  0  0  0  0  0  0  0
    7.7649  -11.7059   19.8163 C   0  0  0  0  0  0  0  0  0  0  0  0
    8.0675  -12.7928   20.8221 C   0  0  2  0  0  0  0  0  0  0  0  0
    7.6977  -14.1642   20.4064 C   0  0  0  0  0  0  0  0  0  0  0  0
    6.4279  -14.5125   21.2282 C   0  0  2  0  0  0  0  0  0  0  0  0
    8.6362  -15.2683   20.6480 N   0  0  0  0  0  0  0  0  0  0  0  0
    8.4276  -16.4669   19.8741 C   0  0  0  0  0  0  0  0  0  0  0  0
    9.1803  -15.4577   21.9972 O   0  0  0  0  0  0  0  0  0  0  0  0
   10.2890  -14.9614   22.2948 N   0  0  0  0  0  0  0  0  0  0  0  0
    8.5255  -16.1743   23.0085 C   0  0  1  0  0  0  0  0  0  0  0  0
    8.2265  -15.5818   24.3227 C   0  0  0  0  0  0  0  0  0  0  0  0
    7.4607  -14.3165   24.2305 C   0  0  0  0  0  0  0  0  0  0  0  0
    7.2421  -13.6870   25.5522 C   0  0  0  0  0  0  0  0  0  0  0  0
    5.9781  -13.3415   26.0143 C   0  0  0  0  0  0  0  0  0  0  0  0
    5.7593  -12.7619   27.2274 C   0  0  0  0  0  0  0  0  0  0  0  0
    6.8479  -12.4928   28.0608 C   0  0  0  0  0  0  0  0  0  0  0  0
    8.1137  -12.8230   27.6315 C   0  0  0  0  0  0  0  0  0  0  0  0
    8.3068  -13.4196   26.3781 C   0  0  0  0  0  0  0  0  0  0  0  0
    7.5169  -16.5983   25.1911 O   0  0  0  0  0  0  0  0  0  0  0  0
    7.9047  -16.8207   26.3564 O   0  0  0  0  0  0  0  0  0  0  0  0
  2  1  1  0
  2  3  2  0
  4  2  1  0
  5  4  1  0
  6  5  1  0
  7  6  1  0
  8  7  1  0
  8  9  1  1
 10 11  2  0
 10  8  1  0
 13 14  1  0
 13 12  1  0
 14 15  1  6
 16 17  1  1
 16 14  1  0
 17 10  1  0
 18 16  1  0
 19 18  2  0
 20 18  1  0
 21 20  1  0
 21 22  1  1
 22 23  1  0
 23 24  2  0
 24 25  1  0
 26 25  2  0
 27 26  1  0
 28 27  2  0
 28 23  1  0
 29 21  1  0
 29 31  1  0
 30 29  2  0
M  END
$$$$
