RIF.pdb
     RDKit          3D

 31 31  0  0  1  0  0  0  0  0999 V2000
   10.4839  -21.6326   17.0345 N   0  0  0  0  0  0  0  0  0  0  0  0
   10.9192  -22.8282   17.7197 C   0  0  0  0  0  0  0  0  0  0  0  0
   11.1296  -23.9018   17.0637 N   0  0  0  0  0  0  0  0  0  0  0  0
   11.1119  -22.8137   19.1299 N   0  0  0  0  0  0  0  0  0  0  0  0
   10.8915  -21.6114   19.8911 C   0  0  0  0  0  0  0  0  0  0  0  0
    9.4322  -21.3891   20.1650 C   0  0  0  0  0  0  0  0  0  0  0  0
    9.1348  -20.2409   21.0856 C   0  0  0  0  0  0  0  0  0  0  0  0
    8.4943  -19.1395   20.3059 C   0  0  2  0  0  0  0  0  0  0  0  0
    8.7193  -19.3318   18.9056 N   0  0  0  0  0  0  0  0  0  0  0  0
    9.0365  -17.8011   20.7019 C   0  0  0  0  0  0  0  0  0  0  0  0
   10.2835  -17.5973   20.6922 O   0  0  0  0  0  0  0  0  0  0  0  0
   11.4971  -24.7613   17.5102 C   0  0  0  0  0  0  0  0  0  0  0  0
    7.6516  -11.8514   20.2843 C   0  0  0  0  0  0  0  0  0  0  0  0
    8.4003  -12.9335   21.0283 C   0  0  2  0  0  0  0  0  0  0  0  0
    7.9249  -14.3145   20.7894 C   0  0  0  0  0  0  0  0  0  0  0  0
    6.4420  -14.3218   21.2475 C   0  0  2  0  0  0  0  0  0  0  0  0
    8.5614  -15.4295   21.5034 N   0  0  0  0  0  0  0  0  0  0  0  0
    8.1784  -16.7566   21.0898 C   0  0  0  0  0  0  0  0  0  0  0  0
    8.8967  -15.2672   22.9224 O   0  0  0  0  0  0  0  0  0  0  0  0
    9.6300  -14.3204   23.2827 N   0  0  0  0  0  0  0  0  0  0  0  0
    8.4378  -16.1216   23.9346 C   0  0  1  0  0  0  0  0  0  0  0  0
    8.8006  -15.9291   25.3485 C   0  0  0  0  0  0  0  0  0  0  0  0
    7.6596  -15.4957   26.1888 C   0  0  0  0  0  0  0  0  0  0  0  0
    7.4796  -14.0265   26.1888 C   0  0  0  0  0  0  0  0  0  0  0  0
    6.2645  -13.4236   25.8875 C   0  0  0  0  0  0  0  0  0  0  0  0
    6.0817  -12.0737   25.8831 C   0  0  0  0  0  0  0  0  0  0  0  0
    7.1583  -11.2389   26.1928 C   0  0  0  0  0  0  0  0  0  0  0  0
    8.3758  -11.8057   26.4955 C   0  0  0  0  0  0  0  0  0  0  0  0
    8.5326  -13.1984   26.4928 C   0  0  0  0  0  0  0  0  0  0  0  0
    9.4396  -17.1909   25.8876 O   0  0  0  0  0  0  0  0  0  0  0  0
    9.3455  -18.2679   25.2641 O   0  0  0  0  0  0  0  0  0  0  0  0
  2  1  1  0
  2  3  2  0
  4  2  1  0
  5  4  1  0
  6  5  1  0
  7  6  1  0
  8  7  1  0
  8  9  1  6
 10 11  2  0
 10  8  1  0
 13 14  1  0
 13 12  1  0
 14 15  1  6
 16 17  1  1
 16 14  1  0
 17 10  1  0
 18 16  1  0
 19 18  2  0
 20 18  1  0
 21 20  1  0
 21 22  1  1
 22 23  1  0
 23 24  2  0
 24 25  1  0
 26 25  2  0
 27 26  1  0
 28 27  2  0
 28 23  1  0
 29 21  1  0
 29 31  1  0
 30 29  2  0
M  END
$$$$
