CGD.pdb
     RDKit          3D

 19 18  0  0  1  0  0  0  0  0999 V2000
   17.2529  -17.8762  -15.7671 N   0  0  0  0  0  0  0  0  0  0  0  0
   18.1734  -16.7297  -15.6771 C   0  0  1  0  0  0  0  0  0  0  0  0
   19.4563  -17.2235  -16.3188 C   0  0  0  0  0  0  0  0  0  0  0  0
   20.1727  -18.5282  -15.3234 S   0  0  0  0  0  0  0  0  0  0  0  0
   17.5390  -15.6390  -16.4623 C   0  0  0  0  0  0  0  0  0  0  0  0
   16.4437  -15.8170  -17.0358 O   0  0  0  0  0  0  0  0  0  0  0  0
   18.1220  -14.3352  -16.6151 N   0  0  0  0  0  0  0  0  0  0  0  0
   17.4975  -13.2812  -17.3744 C   0  0  0  0  0  0  0  0  0  0  0  0
   18.2511  -12.0014  -17.2915 C   0  0  0  0  0  0  0  0  0  0  0  0
   19.3060  -11.8150  -17.9450 O   0  0  0  0  0  0  0  0  0  0  0  0
   17.7735  -10.9555  -16.4564 N   0  0  0  0  0  0  0  0  0  0  0  0
   18.4572   -9.6850  -16.2824 C   0  0  1  0  0  0  0  0  0  0  0  0
   17.4305   -8.5970  -16.6328 C   0  0  0  0  0  0  0  0  0  0  0  0
   18.0719   -7.2875  -16.5145 C   0  0  0  0  0  0  0  0  0  0  0  0
   19.2378   -7.1279  -17.0146 O   0  0  0  0  0  0  0  0  0  0  0  0
   18.8523   -9.4819  -14.8563 C   0  0  0  0  0  0  0  0  0  0  0  0
   18.2333  -10.0475  -13.9480 O   0  0  0  0  0  0  0  0  0  0  0  0
   17.4508   -6.2185  -15.8739 O   0  0  0  0  0  0  0  0  0  0  0  0
   19.9297   -8.6454  -14.5355 O   0  0  0  0  0  0  0  0  0  0  0  0
  2  1  1  6
  2  3  1  0
  4  3  1  0
  5  2  1  0
  6  5  2  0
  7  5  1  0
  8  7  1  0
  9  8  1  0
  9 10  2  0
 11  9  1  0
 12 11  1  0
 12 13  1  1
 14 13  1  0
 15 14  2  0
 16 12  1  0
 17 16  2  0
 18 14  1  0
 19 16  1  0
M  END
$$$$
