CGD.pdb
     RDKit          3D

 19 18  0  0  1  0  0  0  0  0999 V2000
   13.5794  -10.4332   -9.4213 N   0  0  0  0  0  0  0  0  0  0  0  0
   13.9575  -10.5096  -10.8429 C   0  0  1  0  0  0  0  0  0  0  0  0
   12.6644  -10.2503  -11.5926 C   0  0  0  0  0  0  0  0  0  0  0  0
   11.5318  -11.6148  -11.3441 S   0  0  0  0  0  0  0  0  0  0  0  0
   14.9538   -9.4276  -11.0553 C   0  0  0  0  0  0  0  0  0  0  0  0
   14.8738   -8.3515  -10.4260 O   0  0  0  0  0  0  0  0  0  0  0  0
   16.0526   -9.5363  -11.9740 N   0  0  0  0  0  0  0  0  0  0  0  0
   17.0004   -8.4726  -12.1922 C   0  0  0  0  0  0  0  0  0  0  0  0
   18.0267   -8.8288  -13.2082 C   0  0  0  0  0  0  0  0  0  0  0  0
   18.0587   -9.9643  -13.7416 O   0  0  0  0  0  0  0  0  0  0  0  0
   18.9993   -7.8674  -13.5942 N   0  0  0  0  0  0  0  0  0  0  0  0
   20.0283   -8.1146  -14.5902 C   0  0  1  0  0  0  0  0  0  0  0  0
   19.4247   -7.6957  -15.9396 C   0  0  0  0  0  0  0  0  0  0  0  0
   20.3601   -8.0533  -17.0060 C   0  0  0  0  0  0  0  0  0  0  0  0
   21.0366   -7.1242  -17.5661 O   0  0  0  0  0  0  0  0  0  0  0  0
   21.2231   -7.2512  -14.3494 C   0  0  0  0  0  0  0  0  0  0  0  0
   21.0894   -6.1075  -13.8998 O   0  0  0  0  0  0  0  0  0  0  0  0
   20.5299   -9.3702  -17.4256 O   0  0  0  0  0  0  0  0  0  0  0  0
   22.5086   -7.7313  -14.6334 O   0  0  0  0  0  0  0  0  0  0  0  0
  2  1  1  1
  2  3  1  0
  4  3  1  0
  5  2  1  0
  6  5  2  0
  7  5  1  0
  8  7  1  0
  9  8  1  0
  9 10  2  0
 11  9  1  0
 12 11  1  0
 12 13  1  6
 14 13  1  0
 15 14  2  0
 16 12  1  0
 17 16  2  0
 18 14  1  0
 19 16  1  0
M  END
$$$$
