CGD.pdb
     RDKit          3D

 19 18  0  0  1  0  0  0  0  0999 V2000
   21.0704  -10.7506  -17.4448 N   0  0  0  0  0  0  0  0  0  0  0  0
   21.2585   -9.3194  -17.7383 C   0  0  1  0  0  0  0  0  0  0  0  0
   20.0703   -8.9522  -18.6072 C   0  0  0  0  0  0  0  0  0  0  0  0
   20.1858   -9.7925  -20.1842 S   0  0  0  0  0  0  0  0  0  0  0  0
   21.2241   -8.6288  -16.4228 C   0  0  0  0  0  0  0  0  0  0  0  0
   20.1828   -8.6179  -15.7328 O   0  0  0  0  0  0  0  0  0  0  0  0
   22.3544   -7.9421  -15.8625 N   0  0  0  0  0  0  0  0  0  0  0  0
   22.3312   -7.3269  -14.5594 C   0  0  0  0  0  0  0  0  0  0  0  0
   22.2226   -5.8452  -14.6350 C   0  0  0  0  0  0  0  0  0  0  0  0
   22.5406   -5.1116  -13.6679 O   0  0  0  0  0  0  0  0  0  0  0  0
   21.7502   -5.2335  -15.8274 N   0  0  0  0  0  0  0  0  0  0  0  0
   21.7464   -3.7977  -16.0518 C   0  0  1  0  0  0  0  0  0  0  0  0
   21.7555   -3.6045  -17.5760 C   0  0  0  0  0  0  0  0  0  0  0  0
   21.7729   -2.1715  -17.8698 C   0  0  0  0  0  0  0  0  0  0  0  0
   21.9373   -1.3492  -16.9046 O   0  0  0  0  0  0  0  0  0  0  0  0
   20.4903   -3.1790  -15.5319 C   0  0  0  0  0  0  0  0  0  0  0  0
   20.4680   -1.9874  -15.2037 O   0  0  0  0  0  0  0  0  0  0  0  0
   21.6140   -1.6832  -19.1641 O   0  0  0  0  0  0  0  0  0  0  0  0
   19.3243   -3.9466  -15.4101 O   0  0  0  0  0  0  0  0  0  0  0  0
  2  1  1  1
  2  3  1  0
  4  3  1  0
  5  2  1  0
  6  5  2  0
  7  5  1  0
  8  7  1  0
  9  8  1  0
  9 10  2  0
 11  9  1  0
 12 11  1  0
 12 13  1  6
 14 13  1  0
 15 14  2  0
 16 12  1  0
 17 16  2  0
 18 14  1  0
 19 16  1  0
M  END
$$$$
