CGD.pdb
     RDKit          3D

 19 18  0  0  1  0  0  0  0  0999 V2000
   15.4931  -13.1224  -15.0441 N   0  0  0  0  0  0  0  0  0  0  0  0
   15.7634  -12.0841  -16.0534 C   0  0  1  0  0  0  0  0  0  0  0  0
   14.4695  -11.9731  -16.8376 C   0  0  0  0  0  0  0  0  0  0  0  0
   14.2047  -13.4655  -17.7910 S   0  0  0  0  0  0  0  0  0  0  0  0
   16.0623  -10.8451  -15.2891 C   0  0  0  0  0  0  0  0  0  0  0  0
   15.2726  -10.4248  -14.4172 O   0  0  0  0  0  0  0  0  0  0  0  0
   17.2488  -10.0610  -15.4903 N   0  0  0  0  0  0  0  0  0  0  0  0
   17.5942   -8.9343  -14.6605 C   0  0  0  0  0  0  0  0  0  0  0  0
   18.9176   -8.3550  -15.0151 C   0  0  0  0  0  0  0  0  0  0  0  0
   19.6406   -8.8621  -15.9067 O   0  0  0  0  0  0  0  0  0  0  0  0
   19.3848   -7.1977  -14.3358 N   0  0  0  0  0  0  0  0  0  0  0  0
   20.6230   -6.5122  -14.6658 C   0  0  1  0  0  0  0  0  0  0  0  0
   20.6418   -5.2330  -13.8151 C   0  0  0  0  0  0  0  0  0  0  0  0
   21.8649   -4.4871  -14.1118 C   0  0  0  0  0  0  0  0  0  0  0  0
   22.0370   -4.0368  -15.2960 O   0  0  0  0  0  0  0  0  0  0  0  0
   21.8083   -7.3293  -14.2678 C   0  0  0  0  0  0  0  0  0  0  0  0
   21.8478   -7.8782  -13.1609 O   0  0  0  0  0  0  0  0  0  0  0  0
   22.8407   -4.2585  -13.1451 O   0  0  0  0  0  0  0  0  0  0  0  0
   22.8886   -7.4796  -15.1476 O   0  0  0  0  0  0  0  0  0  0  0  0
  2  1  1  1
  2  3  1  0
  4  3  1  0
  5  2  1  0
  6  5  2  0
  7  5  1  0
  8  7  1  0
  9  8  1  0
  9 10  2  0
 11  9  1  0
 12 11  1  0
 12 13  1  1
 14 13  1  0
 15 14  2  0
 16 12  1  0
 17 16  2  0
 18 14  1  0
 19 16  1  0
M  END
$$$$
