CGD.pdb
     RDKit          3D

 19 18  0  0  1  0  0  0  0  0999 V2000
   19.1211  -10.3170  -16.8603 N   0  0  0  0  0  0  0  0  0  0  0  0
   18.7766  -10.5607  -15.4490 C   0  0  1  0  0  0  0  0  0  0  0  0
   18.8820  -12.0656  -15.2884 C   0  0  0  0  0  0  0  0  0  0  0  0
   17.3673  -12.8449  -15.8402 S   0  0  0  0  0  0  0  0  0  0  0  0
   19.8030   -9.8399  -14.6517 C   0  0  0  0  0  0  0  0  0  0  0  0
   19.7068   -9.7581  -13.4090 O   0  0  0  0  0  0  0  0  0  0  0  0
   20.9502   -9.2020  -15.2349 N   0  0  0  0  0  0  0  0  0  0  0  0
   21.9378   -8.4994  -14.4550 C   0  0  0  0  0  0  0  0  0  0  0  0
   21.5732   -7.0747  -14.2313 C   0  0  0  0  0  0  0  0  0  0  0  0
   21.3899   -6.6153  -13.0781 O   0  0  0  0  0  0  0  0  0  0  0  0
   21.4278   -6.2019  -15.3432 N   0  0  0  0  0  0  0  0  0  0  0  0
   21.0036   -4.8163  -15.2322 C   0  0  1  0  0  0  0  0  0  0  0  0
   21.2982   -4.1700  -16.5947 C   0  0  0  0  0  0  0  0  0  0  0  0
   20.9602   -2.7484  -16.5252 C   0  0  0  0  0  0  0  0  0  0  0  0
   20.3036   -2.2259  -17.4899 O   0  0  0  0  0  0  0  0  0  0  0  0
   19.5301   -4.7254  -15.0054 C   0  0  0  0  0  0  0  0  0  0  0  0
   18.7703   -5.5819  -15.4714 O   0  0  0  0  0  0  0  0  0  0  0  0
   21.3345   -1.9545  -15.4442 O   0  0  0  0  0  0  0  0  0  0  0  0
   18.9954   -3.6649  -14.2616 O   0  0  0  0  0  0  0  0  0  0  0  0
  2  1  1  6
  2  3  1  0
  4  3  1  0
  5  2  1  0
  6  5  2  0
  7  5  1  0
  8  7  1  0
  9  8  1  0
  9 10  2  0
 11  9  1  0
 12 11  1  0
 12 13  1  6
 14 13  1  0
 15 14  2  0
 16 12  1  0
 17 16  2  0
 18 14  1  0
 19 16  1  0
M  END
$$$$
