CGD.pdb
     RDKit          3D

 19 18  0  0  1  0  0  0  0  0999 V2000
   16.6727  -12.5106  -14.0162 N   0  0  0  0  0  0  0  0  0  0  0  0
   16.9554  -12.9695  -15.3871 C   0  0  1  0  0  0  0  0  0  0  0  0
   15.5912  -13.0589  -16.0448 C   0  0  0  0  0  0  0  0  0  0  0  0
   14.6328  -14.3666  -15.2847 S   0  0  0  0  0  0  0  0  0  0  0  0
   17.8037  -11.9144  -16.0000 C   0  0  0  0  0  0  0  0  0  0  0  0
   18.2082  -12.0220  -17.1770 O   0  0  0  0  0  0  0  0  0  0  0  0
   18.2097  -10.7254  -15.3040 N   0  0  0  0  0  0  0  0  0  0  0  0
   18.9805   -9.6778  -15.9250 C   0  0  0  0  0  0  0  0  0  0  0  0
   19.2378   -8.5409  -15.0009 C   0  0  0  0  0  0  0  0  0  0  0  0
   18.5862   -8.3957  -13.9384 O   0  0  0  0  0  0  0  0  0  0  0  0
   20.2451   -7.5900  -15.3174 N   0  0  0  0  0  0  0  0  0  0  0  0
   20.6081   -6.4798  -14.4527 C   0  0  1  0  0  0  0  0  0  0  0  0
   22.0388   -6.0822  -14.8474 C   0  0  0  0  0  0  0  0  0  0  0  0
   22.5117   -5.0479  -13.9272 C   0  0  0  0  0  0  0  0  0  0  0  0
   22.6822   -5.3522  -12.6971 O   0  0  0  0  0  0  0  0  0  0  0  0
   19.7314   -5.2972  -14.7051 C   0  0  0  0  0  0  0  0  0  0  0  0
   19.3143   -5.0582  -15.8440 O   0  0  0  0  0  0  0  0  0  0  0  0
   22.7770   -3.7490  -14.3530 O   0  0  0  0  0  0  0  0  0  0  0  0
   19.3748   -4.4459  -13.6507 O   0  0  0  0  0  0  0  0  0  0  0  0
  2  1  1  1
  2  3  1  0
  4  3  1  0
  5  2  1  0
  6  5  2  0
  7  5  1  0
  8  7  1  0
  9  8  1  0
  9 10  2  0
 11  9  1  0
 12 11  1  0
 12 13  1  6
 14 13  1  0
 15 14  2  0
 16 12  1  0
 17 16  2  0
 18 14  1  0
 19 16  1  0
M  END
$$$$
