CGD.pdb
     RDKit          3D

 19 18  0  0  1  0  0  0  0  0999 V2000
   14.0959  -15.0862  -11.8421 N   0  0  0  0  0  0  0  0  0  0  0  0
   13.6372  -13.6886  -11.9211 C   0  0  1  0  0  0  0  0  0  0  0  0
   12.2033  -13.7327  -11.4276 C   0  0  0  0  0  0  0  0  0  0  0  0
   11.1237  -14.2936  -12.7415 S   0  0  0  0  0  0  0  0  0  0  0  0
   14.5205  -12.9206  -11.0053 C   0  0  0  0  0  0  0  0  0  0  0  0
   15.1437  -13.4940  -10.0870 O   0  0  0  0  0  0  0  0  0  0  0  0
   14.7181  -11.5015  -11.1059 N   0  0  0  0  0  0  0  0  0  0  0  0
   15.6006  -10.7688  -10.2331 C   0  0  0  0  0  0  0  0  0  0  0  0
   15.6666   -9.3235  -10.5786 C   0  0  0  0  0  0  0  0  0  0  0  0
   15.6313   -8.9291  -11.7694 O   0  0  0  0  0  0  0  0  0  0  0  0
   15.7704   -8.3557   -9.5434 N   0  0  0  0  0  0  0  0  0  0  0  0
   15.7681   -6.9212   -9.7757 C   0  0  1  0  0  0  0  0  0  0  0  0
   15.7236   -6.2647   -8.3873 C   0  0  0  0  0  0  0  0  0  0  0  0
   15.4972   -4.8287   -8.5516 C   0  0  0  0  0  0  0  0  0  0  0  0
   15.2183   -4.3807   -9.7161 O   0  0  0  0  0  0  0  0  0  0  0  0
   17.0356   -6.4847  -10.4344 C   0  0  0  0  0  0  0  0  0  0  0  0
   18.0943   -7.0840  -10.2152 O   0  0  0  0  0  0  0  0  0  0  0  0
   15.5794   -3.9430   -7.4802 O   0  0  0  0  0  0  0  0  0  0  0  0
   17.0353   -5.3885  -11.3073 O   0  0  0  0  0  0  0  0  0  0  0  0
  2  1  1  1
  2  3  1  0
  4  3  1  0
  5  2  1  0
  6  5  2  0
  7  5  1  0
  8  7  1  0
  9  8  1  0
  9 10  2  0
 11  9  1  0
 12 11  1  0
 12 13  1  1
 14 13  1  0
 15 14  2  0
 16 12  1  0
 17 16  2  0
 18 14  1  0
 19 16  1  0
M  END
$$$$
