CGD.pdb
     RDKit          3D

 19 18  0  0  1  0  0  0  0  0999 V2000
   17.4255  -16.7313  -15.4447 N   0  0  0  0  0  0  0  0  0  0  0  0
   18.6124  -16.1879  -16.1271 C   0  0  1  0  0  0  0  0  0  0  0  0
   18.8766  -17.1621  -17.2597 C   0  0  0  0  0  0  0  0  0  0  0  0
   19.6581  -18.6413  -16.6213 S   0  0  0  0  0  0  0  0  0  0  0  0
   18.2136  -14.8458  -16.6254 C   0  0  0  0  0  0  0  0  0  0  0  0
   17.3727  -14.7272  -17.5415 O   0  0  0  0  0  0  0  0  0  0  0  0
   18.7501  -13.6195  -16.1044 N   0  0  0  0  0  0  0  0  0  0  0  0
   18.3084  -12.3204  -16.5456 C   0  0  0  0  0  0  0  0  0  0  0  0
   18.9141  -11.2174  -15.7524 C   0  0  0  0  0  0  0  0  0  0  0  0
   18.9561  -11.2541  -14.4987 O   0  0  0  0  0  0  0  0  0  0  0  0
   19.4639  -10.0896  -16.4195 N   0  0  0  0  0  0  0  0  0  0  0  0
   20.0335   -8.9430  -15.7319 C   0  0  1  0  0  0  0  0  0  0  0  0
   20.5483   -8.0000  -16.8303 C   0  0  0  0  0  0  0  0  0  0  0  0
   21.2510   -6.8819  -16.2008 C   0  0  0  0  0  0  0  0  0  0  0  0
   21.3437   -6.8550  -14.9259 O   0  0  0  0  0  0  0  0  0  0  0  0
   18.9852   -8.2044  -14.9661 C   0  0  0  0  0  0  0  0  0  0  0  0
   17.9112   -7.9070  -15.5009 O   0  0  0  0  0  0  0  0  0  0  0  0
   21.8157   -5.8522  -16.9489 O   0  0  0  0  0  0  0  0  0  0  0  0
   19.2118   -7.8404  -13.6320 O   0  0  0  0  0  0  0  0  0  0  0  0
  2  1  1  1
  2  3  1  0
  4  3  1  0
  5  2  1  0
  6  5  2  0
  7  5  1  0
  8  7  1  0
  9  8  1  0
  9 10  2  0
 11  9  1  0
 12 11  1  0
 12 13  1  6
 14 13  1  0
 15 14  2  0
 16 12  1  0
 17 16  2  0
 18 14  1  0
 19 16  1  0
M  END
$$$$
