CGD.pdb
     RDKit          3D

 19 18  0  0  1  0  0  0  0  0999 V2000
   16.2025  -13.7779  -16.2698 N   0  0  0  0  0  0  0  0  0  0  0  0
   17.3418  -13.3164  -15.4582 C   0  0  1  0  0  0  0  0  0  0  0  0
   18.3815  -14.4109  -15.6088 C   0  0  0  0  0  0  0  0  0  0  0  0
   17.9578  -15.8018  -14.5636 S   0  0  0  0  0  0  0  0  0  0  0  0
   17.7837  -12.0370  -16.0718 C   0  0  0  0  0  0  0  0  0  0  0  0
   17.6990  -11.8558  -17.3048 O   0  0  0  0  0  0  0  0  0  0  0  0
   18.3253  -10.9440  -15.3134 N   0  0  0  0  0  0  0  0  0  0  0  0
   18.7469   -9.7044  -15.9159 C   0  0  0  0  0  0  0  0  0  0  0  0
   19.3057   -8.7522  -14.9191 C   0  0  0  0  0  0  0  0  0  0  0  0
   19.1723   -8.9372  -13.6851 O   0  0  0  0  0  0  0  0  0  0  0  0
   20.0118   -7.6016  -15.3629 N   0  0  0  0  0  0  0  0  0  0  0  0
   20.5611   -6.5963  -14.4687 C   0  0  1  0  0  0  0  0  0  0  0  0
   21.8823   -6.1369  -15.1042 C   0  0  0  0  0  0  0  0  0  0  0  0
   22.5501   -5.2125  -14.1878 C   0  0  0  0  0  0  0  0  0  0  0  0
   23.0740   -4.1478  -14.6638 O   0  0  0  0  0  0  0  0  0  0  0  0
   19.6655   -5.4035  -14.3915 C   0  0  0  0  0  0  0  0  0  0  0  0
   19.7030   -4.6542  -13.4090 O   0  0  0  0  0  0  0  0  0  0  0  0
   22.6313   -5.4617  -12.8202 O   0  0  0  0  0  0  0  0  0  0  0  0
   18.7720   -5.1240  -15.4342 O   0  0  0  0  0  0  0  0  0  0  0  0
  2  1  1  6
  2  3  1  0
  4  3  1  0
  5  2  1  0
  6  5  2  0
  7  5  1  0
  8  7  1  0
  9  8  1  0
  9 10  2  0
 11  9  1  0
 12 11  1  0
 12 13  1  6
 14 13  1  0
 15 14  2  0
 16 12  1  0
 17 16  2  0
 18 14  1  0
 19 16  1  0
M  END
$$$$
