CGD.pdb
     RDKit          3D

 19 18  0  0  1  0  0  0  0  0999 V2000
   26.5378  -19.6920  -10.7075 N   0  0  0  0  0  0  0  0  0  0  0  0
   26.2856  -21.0318  -11.2653 C   0  0  1  0  0  0  0  0  0  0  0  0
   25.2387  -21.6331  -10.3466 C   0  0  0  0  0  0  0  0  0  0  0  0
   25.3650  -20.9010   -8.7173 S   0  0  0  0  0  0  0  0  0  0  0  0
   25.7623  -20.8066  -12.6379 C   0  0  0  0  0  0  0  0  0  0  0  0
   25.5796  -21.7647  -13.4184 O   0  0  0  0  0  0  0  0  0  0  0  0
   25.4362  -19.5066  -13.1543 N   0  0  0  0  0  0  0  0  0  0  0  0
   24.9694  -19.2922  -14.5010 C   0  0  0  0  0  0  0  0  0  0  0  0
   23.5043  -19.0419  -14.5588 C   0  0  0  0  0  0  0  0  0  0  0  0
   22.7502  -19.3203  -13.5952 O   0  0  0  0  0  0  0  0  0  0  0  0
   22.9327  -18.4720  -15.7283 N   0  0  0  0  0  0  0  0  0  0  0  0
   21.5188  -18.1674  -15.8702 C   0  0  1  0  0  0  0  0  0  0  0  0
   21.3952  -17.2929  -17.1274 C   0  0  0  0  0  0  0  0  0  0  0  0
   20.2569  -16.3888  -16.9630 C   0  0  0  0  0  0  0  0  0  0  0  0
   19.5896  -16.4341  -15.8734 O   0  0  0  0  0  0  0  0  0  0  0  0
   20.7263  -19.4101  -16.1124 C   0  0  0  0  0  0  0  0  0  0  0  0
   21.1120  -20.2489  -16.9344 O   0  0  0  0  0  0  0  0  0  0  0  0
   19.8827  -15.4879  -17.9566 O   0  0  0  0  0  0  0  0  0  0  0  0
   19.5354  -19.6352  -15.4090 O   0  0  0  0  0  0  0  0  0  0  0  0
  2  1  1  1
  2  3  1  0
  4  3  1  0
  5  2  1  0
  6  5  2  0
  7  5  1  0
  8  7  1  0
  9  8  1  0
  9 10  2  0
 11  9  1  0
 12 11  1  0
 12 13  1  6
 14 13  1  0
 15 14  2  0
 16 12  1  0
 17 16  2  0
 18 14  1  0
 19 16  1  0
M  END
$$$$
