CGD.pdb
     RDKit          3D

 19 18  0  0  1  0  0  0  0  0999 V2000
   19.9023   -9.6628  -18.5422 N   0  0  0  0  0  0  0  0  0  0  0  0
   20.3621  -10.7288  -17.6355 C   0  0  1  0  0  0  0  0  0  0  0  0
   21.6215  -11.2648  -18.2899 C   0  0  0  0  0  0  0  0  0  0  0  0
   21.2422  -12.7494  -19.2165 S   0  0  0  0  0  0  0  0  0  0  0  0
   20.6462  -10.0618  -16.3383 C   0  0  0  0  0  0  0  0  0  0  0  0
   20.5047  -10.6747  -15.2590 O   0  0  0  0  0  0  0  0  0  0  0  0
   21.0929   -8.7008  -16.2322 N   0  0  0  0  0  0  0  0  0  0  0  0
   21.4650   -8.0930  -14.9794 C   0  0  0  0  0  0  0  0  0  0  0  0
   21.8589   -6.6673  -15.1372 C   0  0  0  0  0  0  0  0  0  0  0  0
   22.8461   -6.3303  -15.8348 O   0  0  0  0  0  0  0  0  0  0  0  0
   21.1053   -5.6523  -14.4883 N   0  0  0  0  0  0  0  0  0  0  0  0
   21.4143   -4.2351  -14.5776 C   0  0  1  0  0  0  0  0  0  0  0  0
   20.1515   -3.4935  -14.1129 C   0  0  0  0  0  0  0  0  0  0  0  0
   19.1987   -3.4437  -15.2220 C   0  0  0  0  0  0  0  0  0  0  0  0
   19.4097   -4.1800  -16.2457 O   0  0  0  0  0  0  0  0  0  0  0  0
   22.5169   -3.8686  -13.6391 C   0  0  0  0  0  0  0  0  0  0  0  0
   22.7075   -4.5253  -12.6094 O   0  0  0  0  0  0  0  0  0  0  0  0
   18.0770   -2.6192  -15.1926 O   0  0  0  0  0  0  0  0  0  0  0  0
   23.3455   -2.7735  -13.9182 O   0  0  0  0  0  0  0  0  0  0  0  0
  2  1  1  6
  2  3  1  0
  4  3  1  0
  5  2  1  0
  6  5  2  0
  7  5  1  0
  8  7  1  0
  9  8  1  0
  9 10  2  0
 11  9  1  0
 12 11  1  0
 12 13  1  1
 14 13  1  0
 15 14  2  0
 16 12  1  0
 17 16  2  0
 18 14  1  0
 19 16  1  0
M  END
$$$$
