CGD.pdb
     RDKit          3D

 19 18  0  0  1  0  0  0  0  0999 V2000
   24.7769  -14.3499  -15.9715 N   0  0  0  0  0  0  0  0  0  0  0  0
   25.2149  -13.0154  -16.4153 C   0  0  1  0  0  0  0  0  0  0  0  0
   25.8318  -13.2544  -17.7805 C   0  0  0  0  0  0  0  0  0  0  0  0
   27.2130  -14.3849  -17.6355 S   0  0  0  0  0  0  0  0  0  0  0  0
   23.9811  -12.1908  -16.4957 C   0  0  0  0  0  0  0  0  0  0  0  0
   22.9331  -12.6539  -16.9934 O   0  0  0  0  0  0  0  0  0  0  0  0
   23.9042  -10.8377  -16.0198 N   0  0  0  0  0  0  0  0  0  0  0  0
   22.6840  -10.0707  -16.0312 C   0  0  0  0  0  0  0  0  0  0  0  0
   22.8928   -8.6689  -15.5794 C   0  0  0  0  0  0  0  0  0  0  0  0
   24.0417   -8.2066  -15.3770 O   0  0  0  0  0  0  0  0  0  0  0  0
   21.7712   -7.8218  -15.3701 N   0  0  0  0  0  0  0  0  0  0  0  0
   21.8756   -6.4141  -15.0247 C   0  0  1  0  0  0  0  0  0  0  0  0
   22.5163   -5.7238  -16.2387 C   0  0  0  0  0  0  0  0  0  0  0  0
   22.7527   -4.3177  -15.9113 C   0  0  0  0  0  0  0  0  0  0  0  0
   22.5186   -3.9172  -14.7199 O   0  0  0  0  0  0  0  0  0  0  0  0
   20.5234   -5.8099  -14.8311 C   0  0  0  0  0  0  0  0  0  0  0  0
   19.5992   -6.0809  -15.6059 O   0  0  0  0  0  0  0  0  0  0  0  0
   23.2207   -3.4099  -16.8579 O   0  0  0  0  0  0  0  0  0  0  0  0
   20.2913   -4.9273  -13.7676 O   0  0  0  0  0  0  0  0  0  0  0  0
  2  1  1  6
  2  3  1  0
  4  3  1  0
  5  2  1  0
  6  5  2  0
  7  5  1  0
  8  7  1  0
  9  8  1  0
  9 10  2  0
 11  9  1  0
 12 11  1  0
 12 13  1  6
 14 13  1  0
 15 14  2  0
 16 12  1  0
 17 16  2  0
 18 14  1  0
 19 16  1  0
M  END
$$$$
