CGD.pdb
     RDKit          3D

 19 18  0  0  1  0  0  0  0  0999 V2000
   27.7493  -22.3076  -16.4892 N   0  0  0  0  0  0  0  0  0  0  0  0
   27.5454  -20.9810  -17.0962 C   0  0  1  0  0  0  0  0  0  0  0  0
   26.1515  -21.0477  -17.6915 C   0  0  0  0  0  0  0  0  0  0  0  0
   26.1046  -22.2720  -18.9975 S   0  0  0  0  0  0  0  0  0  0  0  0
   27.6295  -20.0068  -15.9771 C   0  0  0  0  0  0  0  0  0  0  0  0
   27.2840  -18.8171  -16.1370 O   0  0  0  0  0  0  0  0  0  0  0  0
   28.1008  -20.3517  -14.6648 N   0  0  0  0  0  0  0  0  0  0  0  0
   28.2621  -19.3829  -13.6099 C   0  0  0  0  0  0  0  0  0  0  0  0
   27.1400  -19.4171  -12.6339 C   0  0  0  0  0  0  0  0  0  0  0  0
   27.1613  -18.7331  -11.5821 O   0  0  0  0  0  0  0  0  0  0  0  0
   26.0095  -20.2395  -12.8888 N   0  0  0  0  0  0  0  0  0  0  0  0
   24.9364  -20.4561  -11.9330 C   0  0  1  0  0  0  0  0  0  0  0  0
   23.8323  -21.2056  -12.6945 C   0  0  0  0  0  0  0  0  0  0  0  0
   22.6414  -20.3580  -12.7534 C   0  0  0  0  0  0  0  0  0  0  0  0
   22.2381  -19.7909  -11.6809 O   0  0  0  0  0  0  0  0  0  0  0  0
   25.3862  -21.3401  -10.8162 C   0  0  0  0  0  0  0  0  0  0  0  0
   24.9228  -21.1981   -9.6791 O   0  0  0  0  0  0  0  0  0  0  0  0
   21.9392  -20.1563  -13.9388 O   0  0  0  0  0  0  0  0  0  0  0  0
   26.3407  -22.3394  -11.0487 O   0  0  0  0  0  0  0  0  0  0  0  0
  2  1  1  1
  2  3  1  0
  4  3  1  0
  5  2  1  0
  6  5  2  0
  7  5  1  0
  8  7  1  0
  9  8  1  0
  9 10  2  0
 11  9  1  0
 12 11  1  0
 12 13  1  6
 14 13  1  0
 15 14  2  0
 16 12  1  0
 17 16  2  0
 18 14  1  0
 19 16  1  0
M  END
$$$$
