CGD.pdb
     RDKit          3D

 19 18  0  0  1  0  0  0  0  0999 V2000
   42.8495  -11.6749   -7.4951 N   0  0  0  0  0  0  0  0  0  0  0  0
   42.5178  -11.0371   -8.7808 C   0  0  1  0  0  0  0  0  0  0  0  0
   41.5294  -11.9872   -9.4304 C   0  0  0  0  0  0  0  0  0  0  0  0
   42.4097  -13.2607  -10.3302 S   0  0  0  0  0  0  0  0  0  0  0  0
   41.8955   -9.7322   -8.4363 C   0  0  0  0  0  0  0  0  0  0  0  0
   41.0166   -9.6560   -7.5520 O   0  0  0  0  0  0  0  0  0  0  0  0
   42.2492   -8.4961   -9.0766 N   0  0  0  0  0  0  0  0  0  0  0  0
   41.6529   -7.2320   -8.7248 C   0  0  0  0  0  0  0  0  0  0  0  0
   40.2765   -7.0846   -9.2695 C   0  0  0  0  0  0  0  0  0  0  0  0
   39.8116   -7.8913  -10.1108 O   0  0  0  0  0  0  0  0  0  0  0  0
   39.4575   -6.0088   -8.8325 N   0  0  0  0  0  0  0  0  0  0  0  0
   38.0980   -5.7886   -9.2965 C   0  0  1  0  0  0  0  0  0  0  0  0
   37.5232   -4.6687   -8.4156 C   0  0  0  0  0  0  0  0  0  0  0  0
   37.3628   -5.1760   -7.0528 C   0  0  0  0  0  0  0  0  0  0  0  0
   37.5911   -6.4137   -6.8279 O   0  0  0  0  0  0  0  0  0  0  0  0
   38.0880   -5.2957  -10.7064 C   0  0  0  0  0  0  0  0  0  0  0  0
   39.1099   -4.8153  -11.2095 O   0  0  0  0  0  0  0  0  0  0  0  0
   36.9683   -4.3518   -6.0020 O   0  0  0  0  0  0  0  0  0  0  0  0
   36.9169   -5.3728  -11.4720 O   0  0  0  0  0  0  0  0  0  0  0  0
  2  1  1  1
  2  3  1  0
  4  3  1  0
  5  2  1  0
  6  5  2  0
  7  5  1  0
  8  7  1  0
  9  8  1  0
  9 10  2  0
 11  9  1  0
 12 11  1  0
 12 13  1  1
 14 13  1  0
 15 14  2  0
 16 12  1  0
 17 16  2  0
 18 14  1  0
 19 16  1  0
M  END
$$$$
