CGD.pdb
     RDKit          3D

 19 18  0  0  1  0  0  0  0  0999 V2000
   26.4257  -15.4531  -17.0220 N   0  0  0  0  0  0  0  0  0  0  0  0
   25.4764  -15.1753  -15.9305 C   0  0  1  0  0  0  0  0  0  0  0  0
   26.0105  -15.9697  -14.7535 C   0  0  0  0  0  0  0  0  0  0  0  0
   25.6895  -17.7141  -14.9997 S   0  0  0  0  0  0  0  0  0  0  0  0
   25.5484  -13.7098  -15.6949 C   0  0  0  0  0  0  0  0  0  0  0  0
   26.5917  -13.0713  -15.9487 O   0  0  0  0  0  0  0  0  0  0  0  0
   24.4538  -12.9400  -15.1731 N   0  0  0  0  0  0  0  0  0  0  0  0
   24.5124  -11.5102  -15.0012 C   0  0  0  0  0  0  0  0  0  0  0  0
   23.3478  -10.8182  -15.6156 C   0  0  0  0  0  0  0  0  0  0  0  0
   23.0417  -10.9882  -16.8207 O   0  0  0  0  0  0  0  0  0  0  0  0
   22.5533   -9.9419  -14.8282 N   0  0  0  0  0  0  0  0  0  0  0  0
   21.3868   -9.2369  -15.3324 C   0  0  1  0  0  0  0  0  0  0  0  0
   20.1657  -10.0418  -14.8613 C   0  0  0  0  0  0  0  0  0  0  0  0
   18.9517   -9.3800  -15.3392 C   0  0  0  0  0  0  0  0  0  0  0  0
   18.9177   -8.9565  -16.5451 O   0  0  0  0  0  0  0  0  0  0  0  0
   21.2829   -7.8751  -14.7277 C   0  0  0  0  0  0  0  0  0  0  0  0
   20.4654   -7.0567  -15.1634 O   0  0  0  0  0  0  0  0  0  0  0  0
   17.8407   -9.1987  -14.5196 O   0  0  0  0  0  0  0  0  0  0  0  0
   22.1146   -7.5127  -13.6597 O   0  0  0  0  0  0  0  0  0  0  0  0
  2  1  1  6
  2  3  1  0
  4  3  1  0
  5  2  1  0
  6  5  2  0
  7  5  1  0
  8  7  1  0
  9  8  1  0
  9 10  2  0
 11  9  1  0
 12 11  1  0
 12 13  1  1
 14 13  1  0
 15 14  2  0
 16 12  1  0
 17 16  2  0
 18 14  1  0
 19 16  1  0
M  END
$$$$
