YLF.pdb
     RDKit          3D

 32 33  0  0  1  0  0  0  0  0999 V2000
   11.9755  -22.9639   16.0818 O   0  0  0  0  0  0  0  0  0  0  0  0
   11.8497  -21.7152   16.6992 C   0  0  0  0  0  0  0  0  0  0  0  0
   10.8608  -20.8481   16.2991 C   0  0  0  0  0  0  0  0  0  0  0  0
   10.7308  -19.6264   16.8968 C   0  0  0  0  0  0  0  0  0  0  0  0
   11.5741  -19.2467   17.8960 C   0  0  0  0  0  0  0  0  0  0  0  0
   11.4563  -17.9367   18.5555 C   0  0  0  0  0  0  0  0  0  0  0  0
   10.9312  -18.0977   19.9781 C   0  0  2  0  0  0  0  0  0  0  0  0
    9.5739  -18.6266   19.8426 N   0  0  0  0  0  0  0  0  0  0  0  0
   10.9155  -16.7826   20.6515 C   0  0  0  0  0  0  0  0  0  0  0  0
   11.9937  -16.1466   20.7711 O   0  0  0  0  0  0  0  0  0  0  0  0
   12.5897  -20.0861   18.3376 C   0  0  0  0  0  0  0  0  0  0  0  0
   12.7064  -21.3181   17.7218 C   0  0  0  0  0  0  0  0  0  0  0  0
    6.2970  -13.8969   20.7594 C   0  0  0  0  0  0  0  0  0  0  0  0
    7.8031  -14.1910   20.6415 C   0  0  1  0  0  0  0  0  0  0  0  0
    8.5244  -12.9180   20.2187 C   0  0  0  0  0  0  0  0  0  0  0  0
    8.2483  -14.5728   22.0171 C   0  0  0  0  0  0  0  0  0  0  0  0
    9.7294  -14.9688   21.9445 C   0  0  2  0  0  0  0  0  0  0  0  0
    9.7570  -16.1946   21.1696 N   0  0  0  0  0  0  0  0  0  0  0  0
   10.1600  -15.1426   23.3375 C   0  0  0  0  0  0  0  0  0  0  0  0
   11.2391  -14.6694   23.7235 O   0  0  0  0  0  0  0  0  0  0  0  0
    9.3249  -15.8515   24.2296 N   0  0  0  0  0  0  0  0  0  0  0  0
    9.6422  -16.0527   25.6338 C   0  0  1  0  0  0  0  0  0  0  0  0
    9.7195  -14.7237   26.3525 C   0  0  0  0  0  0  0  0  0  0  0  0
    8.4102  -14.0532   26.2793 C   0  0  0  0  0  0  0  0  0  0  0  0
    7.3874  -14.4497   25.4259 C   0  0  0  0  0  0  0  0  0  0  0  0
    6.1880  -13.8150   25.3921 C   0  0  0  0  0  0  0  0  0  0  0  0
    5.9143  -12.7235   26.2196 C   0  0  0  0  0  0  0  0  0  0  0  0
    6.9188  -12.3145   27.0741 C   0  0  0  0  0  0  0  0  0  0  0  0
    8.1261  -12.9574   27.1029 C   0  0  0  0  0  0  0  0  0  0  0  0
    8.7855  -16.9945   26.3077 C   0  0  0  0  0  0  0  0  0  0  0  0
    7.8052  -17.5183   25.6675 O   0  0  0  0  0  0  0  0  0  0  0  0
    8.8998  -17.4197   27.6160 O   0  0  0  0  0  0  0  0  0  0  0  0
  2  3  2  0
  2  1  1  0
  4  3  1  0
  5 11  1  0
  5  4  2  0
  6  7  1  0
  6  5  1  0
  7  9  1  0
  7  8  1  6
  9 10  2  0
 11 12  2  0
 12  2  1  0
 14 13  1  1
 15 14  1  0
 16 14  1  0
 17 16  1  1
 18 17  1  0
 18  9  1  0
 19 20  2  0
 19 17  1  0
 21 19  1  0
 22 21  1  0
 22 23  1  1
 23 24  1  0
 24 25  2  0
 25 26  1  0
 27 26  2  0
 28 27  1  0
 29 24  1  0
 29 28  2  0
 30 22  1  0
 31 30  2  0
 32 30  1  0
M  END
$$$$
