YLF.pdb
     RDKit          3D

 32 33  0  0  1  0  0  0  0  0999 V2000
    2.7318  -22.4581   23.9843 O   0  0  0  0  0  0  0  0  0  0  0  0
    3.8406  -21.6373   23.7542 C   0  0  0  0  0  0  0  0  0  0  0  0
    5.0204  -21.8749   24.4188 C   0  0  0  0  0  0  0  0  0  0  0  0
    6.1083  -21.0781   24.1999 C   0  0  0  0  0  0  0  0  0  0  0  0
    6.0452  -20.0387   23.3227 C   0  0  0  0  0  0  0  0  0  0  0  0
    7.2017  -19.1651   23.0694 C   0  0  0  0  0  0  0  0  0  0  0  0
    7.3874  -18.9417   21.5724 C   0  0  2  0  0  0  0  0  0  0  0  0
    7.8569  -20.2192   21.0358 N   0  0  0  0  0  0  0  0  0  0  0  0
    8.3916  -17.8805   21.3514 C   0  0  0  0  0  0  0  0  0  0  0  0
    9.5864  -18.2080   21.1356 O   0  0  0  0  0  0  0  0  0  0  0  0
    4.8768  -19.7564   22.6254 C   0  0  0  0  0  0  0  0  0  0  0  0
    3.7861  -20.5728   22.8591 C   0  0  0  0  0  0  0  0  0  0  0  0
    6.5707  -12.9639   19.9200 C   0  0  0  0  0  0  0  0  0  0  0  0
    7.4090  -14.2543   19.9512 C   0  0  1  0  0  0  0  0  0  0  0  0
    8.3134  -14.2868   18.7262 C   0  0  0  0  0  0  0  0  0  0  0  0
    8.2535  -14.1567   21.1815 C   0  0  0  0  0  0  0  0  0  0  0  0
    9.0706  -15.4505   21.3008 C   0  0  2  0  0  0  0  0  0  0  0  0
    8.0879  -16.5153   21.3666 N   0  0  0  0  0  0  0  0  0  0  0  0
    9.8639  -15.3043   22.5278 C   0  0  0  0  0  0  0  0  0  0  0  0
   10.9441  -14.6960   22.5068 O   0  0  0  0  0  0  0  0  0  0  0  0
    9.3755  -15.8624   23.7302 N   0  0  0  0  0  0  0  0  0  0  0  0
    9.9687  -15.6028   25.0316 C   0  0  1  0  0  0  0  0  0  0  0  0
    8.8918  -15.4812   26.0872 C   0  0  0  0  0  0  0  0  0  0  0  0
    9.5066  -15.0940   27.3683 C   0  0  0  0  0  0  0  0  0  0  0  0
    9.8397  -15.9995   28.3687 C   0  0  0  0  0  0  0  0  0  0  0  0
   10.4158  -15.6088   29.5341 C   0  0  0  0  0  0  0  0  0  0  0  0
   10.7087  -14.2676   29.7918 C   0  0  0  0  0  0  0  0  0  0  0  0
   10.3842  -13.3530   28.8097 C   0  0  0  0  0  0  0  0  0  0  0  0
    9.8026  -13.7525   27.6376 C   0  0  0  0  0  0  0  0  0  0  0  0
   11.0063  -16.5289   25.4072 C   0  0  0  0  0  0  0  0  0  0  0  0
   11.8037  -16.2211   26.3635 O   0  0  0  0  0  0  0  0  0  0  0  0
   11.2539  -17.7614   24.8372 O   0  0  0  0  0  0  0  0  0  0  0  0
  2  3  2  0
  2  1  1  0
  4  3  1  0
  5 11  1  0
  5  4  2  0
  6  7  1  0
  6  5  1  0
  7  9  1  0
  7  8  1  6
  9 10  2  0
 11 12  2  0
 12  2  1  0
 14 13  1  6
 15 14  1  0
 16 14  1  0
 17 16  1  1
 18 17  1  0
 18  9  1  0
 19 20  2  0
 19 17  1  0
 21 19  1  0
 22 21  1  0
 22 23  1  1
 23 24  1  0
 24 25  2  0
 25 26  1  0
 27 26  2  0
 28 27  1  0
 29 24  1  0
 29 28  2  0
 30 22  1  0
 31 30  2  0
 32 30  1  0
M  END
$$$$
