YLF.pdb
     RDKit          3D

 32 33  0  0  1  0  0  0  0  0999 V2000
    8.2576  -19.8481   28.2239 O   0  0  0  0  0  0  0  0  0  0  0  0
    7.5325  -19.4118   27.1103 C   0  0  0  0  0  0  0  0  0  0  0  0
    6.9160  -20.3274   26.2909 C   0  0  0  0  0  0  0  0  0  0  0  0
    6.2057  -19.9098   25.2010 C   0  0  0  0  0  0  0  0  0  0  0  0
    6.0950  -18.5849   24.9078 C   0  0  0  0  0  0  0  0  0  0  0  0
    5.3369  -18.1089   23.7400 C   0  0  0  0  0  0  0  0  0  0  0  0
    6.1395  -18.3138   22.4597 C   0  0  2  0  0  0  0  0  0  0  0  0
    6.5258  -19.7249   22.4549 N   0  0  0  0  0  0  0  0  0  0  0  0
    7.3340  -17.4443   22.4800 C   0  0  0  0  0  0  0  0  0  0  0  0
    8.4690  -17.9713   22.6035 O   0  0  0  0  0  0  0  0  0  0  0  0
    6.6987  -17.6194   25.7041 C   0  0  0  0  0  0  0  0  0  0  0  0
    7.4131  -18.0597   26.8025 C   0  0  0  0  0  0  0  0  0  0  0  0
    6.7427  -12.6066   20.1805 C   0  0  0  0  0  0  0  0  0  0  0  0
    7.2689  -13.9950   20.5860 C   0  0  1  0  0  0  0  0  0  0  0  0
    8.3279  -14.4351   19.5837 C   0  0  0  0  0  0  0  0  0  0  0  0
    7.9085  -13.8086   21.9248 C   0  0  0  0  0  0  0  0  0  0  0  0
    8.4304  -15.1728   22.3962 C   0  0  2  0  0  0  0  0  0  0  0  0
    7.2766  -16.0513   22.3671 N   0  0  0  0  0  0  0  0  0  0  0  0
    8.9645  -14.9462   23.7451 C   0  0  0  0  0  0  0  0  0  0  0  0
    8.5451  -14.0053   24.4352 O   0  0  0  0  0  0  0  0  0  0  0  0
    9.9576  -15.8181   24.2444 N   0  0  0  0  0  0  0  0  0  0  0  0
   10.5756  -15.6624   25.5507 C   0  0  1  0  0  0  0  0  0  0  0  0
    9.5367  -15.7855   26.6436 C   0  0  0  0  0  0  0  0  0  0  0  0
    8.7201  -14.5603   26.6800 C   0  0  0  0  0  0  0  0  0  0  0  0
    7.5191  -14.4134   25.9962 C   0  0  0  0  0  0  0  0  0  0  0  0
    6.7859  -13.2729   26.0608 C   0  0  0  0  0  0  0  0  0  0  0  0
    7.2003  -12.1790   26.8243 C   0  0  0  0  0  0  0  0  0  0  0  0
    8.3918  -12.3061   27.5104 C   0  0  0  0  0  0  0  0  0  0  0  0
    9.1270  -13.4577   27.4405 C   0  0  0  0  0  0  0  0  0  0  0  0
   11.7147  -16.5153   25.7749 C   0  0  0  0  0  0  0  0  0  0  0  0
   12.0093  -17.4082   24.9024 O   0  0  0  0  0  0  0  0  0  0  0  0
   12.5642  -16.4836   26.8625 O   0  0  0  0  0  0  0  0  0  0  0  0
  2  3  2  0
  2  1  1  0
  4  3  1  0
  5 11  1  0
  5  4  2  0
  6  7  1  0
  6  5  1  0
  7  9  1  0
  7  8  1  1
  9 10  2  0
 11 12  2  0
 12  2  1  0
 14 13  1  6
 15 14  1  0
 16 14  1  0
 17 16  1  1
 18 17  1  0
 18  9  1  0
 19 20  2  0
 19 17  1  0
 21 19  1  0
 22 21  1  0
 22 23  1  1
 23 24  1  0
 24 25  2  0
 25 26  1  0
 27 26  2  0
 28 27  1  0
 29 24  1  0
 29 28  2  0
 30 22  1  0
 31 30  2  0
 32 30  1  0
M  END
$$$$
