YLF.pdb
     RDKit          3D

 32 33  0  0  1  0  0  0  0  0999 V2000
    8.5128  -15.8900   14.7319 O   0  0  0  0  0  0  0  0  0  0  0  0
    9.1459  -16.4691   15.8365 C   0  0  0  0  0  0  0  0  0  0  0  0
    8.4268  -17.2538   16.7066 C   0  0  0  0  0  0  0  0  0  0  0  0
    9.0373  -17.8232   17.7880 C   0  0  0  0  0  0  0  0  0  0  0  0
   10.3638  -17.6258   18.0229 C   0  0  0  0  0  0  0  0  0  0  0  0
   11.0452  -18.2266   19.1803 C   0  0  0  0  0  0  0  0  0  0  0  0
   10.1701  -18.1334   20.4257 C   0  0  2  0  0  0  0  0  0  0  0  0
    8.7905  -18.2383   19.9501 N   0  0  0  0  0  0  0  0  0  0  0  0
   10.3962  -16.8348   21.0934 C   0  0  0  0  0  0  0  0  0  0  0  0
   11.5559  -16.5438   21.4828 O   0  0  0  0  0  0  0  0  0  0  0  0
   11.1354  -16.8417   17.1739 C   0  0  0  0  0  0  0  0  0  0  0  0
   10.5014  -16.2736   16.0849 C   0  0  0  0  0  0  0  0  0  0  0  0
    7.0126  -12.9074   19.8624 C   0  0  0  0  0  0  0  0  0  0  0  0
    8.2987  -13.6893   20.1841 C   0  0  1  0  0  0  0  0  0  0  0  0
    9.4999  -12.8856   19.7037 C   0  0  0  0  0  0  0  0  0  0  0  0
    8.3441  -13.7949   21.6751 C   0  0  0  0  0  0  0  0  0  0  0  0
    9.5558  -14.6576   22.0537 C   0  0  2  0  0  0  0  0  0  0  0  0
    9.3837  -15.8968   21.3197 N   0  0  0  0  0  0  0  0  0  0  0  0
    9.4836  -14.8212   23.5111 C   0  0  0  0  0  0  0  0  0  0  0  0
    9.8670  -13.9132   24.2634 O   0  0  0  0  0  0  0  0  0  0  0  0
    8.9671  -16.0248   24.0409 N   0  0  0  0  0  0  0  0  0  0  0  0
    8.8417  -16.2828   25.4658 C   0  0  1  0  0  0  0  0  0  0  0  0
    7.3958  -16.1703   25.8969 C   0  0  0  0  0  0  0  0  0  0  0  0
    7.0318  -14.7481   26.0151 C   0  0  0  0  0  0  0  0  0  0  0  0
    5.9825  -14.1602   25.3187 C   0  0  0  0  0  0  0  0  0  0  0  0
    5.6675  -12.8474   25.4599 C   0  0  0  0  0  0  0  0  0  0  0  0
    6.3840  -12.0115   26.3195 C   0  0  0  0  0  0  0  0  0  0  0  0
    7.4308  -12.5777   27.0195 C   0  0  0  0  0  0  0  0  0  0  0  0
    7.7444  -13.9012   26.8722 C   0  0  0  0  0  0  0  0  0  0  0  0
    9.4529  -17.5118   25.9033 C   0  0  0  0  0  0  0  0  0  0  0  0
    9.4561  -17.7988   27.1535 O   0  0  0  0  0  0  0  0  0  0  0  0
   10.0601  -18.4584   25.1029 O   0  0  0  0  0  0  0  0  0  0  0  0
  2  3  2  0
  2  1  1  0
  4  3  1  0
  5 11  1  0
  5  4  2  0
  6  7  1  0
  6  5  1  0
  7  9  1  0
  7  8  1  6
  9 10  2  0
 11 12  2  0
 12  2  1  0
 14 13  1  1
 15 14  1  0
 16 14  1  0
 17 16  1  6
 18 17  1  0
 18  9  1  0
 19 20  2  0
 19 17  1  0
 21 19  1  0
 22 21  1  0
 22 23  1  6
 23 24  1  0
 24 25  2  0
 25 26  1  0
 27 26  2  0
 28 27  1  0
 29 24  1  0
 29 28  2  0
 30 22  1  0
 31 30  2  0
 32 30  1  0
M  END
$$$$
