YLF.pdb
     RDKit          3D

 32 33  0  0  1  0  0  0  0  0999 V2000
    3.0801  -20.5075   18.2870 O   0  0  0  0  0  0  0  0  0  0  0  0
    3.7645  -19.4964   18.9693 C   0  0  0  0  0  0  0  0  0  0  0  0
    5.1390  -19.4699   18.9586 C   0  0  0  0  0  0  0  0  0  0  0  0
    5.8154  -18.4859   19.6224 C   0  0  0  0  0  0  0  0  0  0  0  0
    5.1440  -17.5168   20.3034 C   0  0  0  0  0  0  0  0  0  0  0  0
    5.8483  -16.4466   21.0270 C   0  0  0  0  0  0  0  0  0  0  0  0
    7.0032  -17.0198   21.8413 C   0  0  2  0  0  0  0  0  0  0  0  0
    6.3888  -17.6649   23.0018 N   0  0  0  0  0  0  0  0  0  0  0  0
    7.9008  -15.9253   22.2652 C   0  0  0  0  0  0  0  0  0  0  0  0
    8.6522  -15.3886   21.4116 O   0  0  0  0  0  0  0  0  0  0  0  0
    3.7552  -17.4981   20.3450 C   0  0  0  0  0  0  0  0  0  0  0  0
    3.0872  -18.5011   19.6678 C   0  0  0  0  0  0  0  0  0  0  0  0
    6.1764  -12.6099   25.9791 C   0  0  0  0  0  0  0  0  0  0  0  0
    6.8708  -13.1928   24.7353 C   0  0  1  0  0  0  0  0  0  0  0  0
    7.1480  -12.0656   23.7493 C   0  0  0  0  0  0  0  0  0  0  0  0
    8.1708  -13.7485   25.2227 C   0  0  0  0  0  0  0  0  0  0  0  0
    8.8782  -14.4143   24.0344 C   0  0  2  0  0  0  0  0  0  0  0  0
    7.9643  -15.4434   23.5767 N   0  0  0  0  0  0  0  0  0  0  0  0
   10.1388  -14.9424   24.5713 C   0  0  0  0  0  0  0  0  0  0  0  0
   11.1691  -14.2530   24.5441 O   0  0  0  0  0  0  0  0  0  0  0  0
   10.1577  -16.2432   25.1222 N   0  0  0  0  0  0  0  0  0  0  0  0
   11.3337  -16.8335   25.7396 C   0  0  1  0  0  0  0  0  0  0  0  0
   11.0149  -17.2985   27.1435 C   0  0  0  0  0  0  0  0  0  0  0  0
   10.6711  -16.1335   27.9765 C   0  0  0  0  0  0  0  0  0  0  0  0
   10.5856  -14.8350   27.4885 C   0  0  0  0  0  0  0  0  0  0  0  0
   10.2552  -13.7851   28.2830 C   0  0  0  0  0  0  0  0  0  0  0  0
    9.9795  -13.9542   29.6419 C   0  0  0  0  0  0  0  0  0  0  0  0
   10.0601  -15.2375   30.1450 C   0  0  0  0  0  0  0  0  0  0  0  0
   10.3948  -16.2916   29.3397 C   0  0  0  0  0  0  0  0  0  0  0  0
   11.9680  -17.8584   24.9506 C   0  0  0  0  0  0  0  0  0  0  0  0
   11.4426  -18.2024   23.8322 O   0  0  0  0  0  0  0  0  0  0  0  0
   13.1244  -18.5423   25.2676 O   0  0  0  0  0  0  0  0  0  0  0  0
  2  3  2  0
  2  1  1  0
  4  3  1  0
  5 11  1  0
  5  4  2  0
  6  7  1  0
  6  5  1  0
  7  9  1  0
  7  8  1  1
  9 10  2  0
 11 12  2  0
 12  2  1  0
 14 13  1  1
 15 14  1  0
 16 14  1  0
 17 16  1  1
 18 17  1  0
 18  9  1  0
 19 20  2  0
 19 17  1  0
 21 19  1  0
 22 21  1  0
 22 23  1  1
 23 24  1  0
 24 25  2  0
 25 26  1  0
 27 26  2  0
 28 27  1  0
 29 24  1  0
 29 28  2  0
 30 22  1  0
 31 30  2  0
 32 30  1  0
M  END
$$$$
