YLF.pdb
     RDKit          3D

 32 33  0  0  1  0  0  0  0  0999 V2000
   12.6070  -23.0198   17.6476 O   0  0  0  0  0  0  0  0  0  0  0  0
   12.4173  -21.8426   18.3786 C   0  0  0  0  0  0  0  0  0  0  0  0
   11.4380  -21.7828   19.3417 C   0  0  0  0  0  0  0  0  0  0  0  0
   11.2459  -20.6368   20.0603 C   0  0  0  0  0  0  0  0  0  0  0  0
   12.0178  -19.5375   19.8376 C   0  0  0  0  0  0  0  0  0  0  0  0
   11.8310  -18.2911   20.5968 C   0  0  0  0  0  0  0  0  0  0  0  0
   10.5391  -17.5970   20.1789 C   0  0  2  0  0  0  0  0  0  0  0  0
   10.6470  -17.3942   18.7340 N   0  0  0  0  0  0  0  0  0  0  0  0
   10.4232  -16.3024   20.8818 C   0  0  0  0  0  0  0  0  0  0  0  0
   11.4595  -15.6143   21.0659 O   0  0  0  0  0  0  0  0  0  0  0  0
   13.0210  -19.5461   18.8762 C   0  0  0  0  0  0  0  0  0  0  0  0
   13.2014  -20.7138   18.1588 C   0  0  0  0  0  0  0  0  0  0  0  0
    6.3607  -13.3896   19.5879 C   0  0  0  0  0  0  0  0  0  0  0  0
    7.7589  -13.8649   20.0215 C   0  0  1  0  0  0  0  0  0  0  0  0
    8.7846  -12.8105   19.6269 C   0  0  0  0  0  0  0  0  0  0  0  0
    7.7066  -13.9640   21.5127 C   0  0  0  0  0  0  0  0  0  0  0  0
    9.0602  -14.4976   22.0012 C   0  0  2  0  0  0  0  0  0  0  0  0
    9.2130  -15.7894   21.3596 N   0  0  0  0  0  0  0  0  0  0  0  0
    8.9491  -14.5754   23.4633 C   0  0  0  0  0  0  0  0  0  0  0  0
    8.6268  -13.5752   24.1214 O   0  0  0  0  0  0  0  0  0  0  0  0
    9.2098  -15.8063   24.1059 N   0  0  0  0  0  0  0  0  0  0  0  0
    9.1222  -15.9919   25.5448 C   0  0  1  0  0  0  0  0  0  0  0  0
    7.7302  -15.6597   26.0356 C   0  0  0  0  0  0  0  0  0  0  0  0
    7.6659  -14.2313   26.3888 C   0  0  0  0  0  0  0  0  0  0  0  0
    8.7696  -13.4836   26.7818 C   0  0  0  0  0  0  0  0  0  0  0  0
    8.6762  -12.1650   27.0901 C   0  0  0  0  0  0  0  0  0  0  0  0
    7.4586  -11.4833   27.0267 C   0  0  0  0  0  0  0  0  0  0  0  0
    6.3505  -12.2099   26.6387 C   0  0  0  0  0  0  0  0  0  0  0  0
    6.4506  -13.5390   26.3304 C   0  0  0  0  0  0  0  0  0  0  0  0
    9.5769  -17.2784   26.0070 C   0  0  0  0  0  0  0  0  0  0  0  0
    9.5353  -17.5434   27.2612 O   0  0  0  0  0  0  0  0  0  0  0  0
   10.0716  -18.3042   25.2270 O   0  0  0  0  0  0  0  0  0  0  0  0
  2  3  2  0
  2  1  1  0
  4  3  1  0
  5 11  1  0
  5  4  2  0
  6  7  1  0
  6  5  1  0
  7  9  1  0
  7  8  1  6
  9 10  2  0
 11 12  2  0
 12  2  1  0
 14 13  1  1
 15 14  1  0
 16 14  1  0
 17 16  1  6
 18 17  1  0
 18  9  1  0
 19 20  2  0
 19 17  1  0
 21 19  1  0
 22 21  1  0
 22 23  1  6
 23 24  1  0
 24 25  2  0
 25 26  1  0
 27 26  2  0
 28 27  1  0
 29 24  1  0
 29 28  2  0
 30 22  1  0
 31 30  2  0
 32 30  1  0
M  END
$$$$
