YLF.pdb
     RDKit          3D

 32 33  0  0  1  0  0  0  0  0999 V2000
   12.2680  -23.0728   16.9916 O   0  0  0  0  0  0  0  0  0  0  0  0
   12.0898  -22.0608   17.9405 C   0  0  0  0  0  0  0  0  0  0  0  0
   10.8711  -21.4353   18.0565 C   0  0  0  0  0  0  0  0  0  0  0  0
   10.6885  -20.4459   18.9808 C   0  0  0  0  0  0  0  0  0  0  0  0
   11.7053  -20.0630   19.8012 C   0  0  0  0  0  0  0  0  0  0  0  0
   11.5354  -18.9999   20.8041 C   0  0  0  0  0  0  0  0  0  0  0  0
   11.3067  -17.6537   20.1252 C   0  0  2  0  0  0  0  0  0  0  0  0
   12.5969  -17.2761   19.5479 N   0  0  0  0  0  0  0  0  0  0  0  0
   10.8720  -16.6606   21.1293 C   0  0  0  0  0  0  0  0  0  0  0  0
   11.7211  -16.1916   21.9295 O   0  0  0  0  0  0  0  0  0  0  0  0
   12.9561  -20.6636   19.7247 C   0  0  0  0  0  0  0  0  0  0  0  0
   13.1229  -21.6628   18.7841 C   0  0  0  0  0  0  0  0  0  0  0  0
    6.6113  -13.4844   20.0765 C   0  0  0  0  0  0  0  0  0  0  0  0
    7.9829  -14.0266   20.5164 C   0  0  1  0  0  0  0  0  0  0  0  0
    8.9058  -12.8530   20.8174 C   0  0  0  0  0  0  0  0  0  0  0  0
    7.7298  -14.7874   21.7787 C   0  0  0  0  0  0  0  0  0  0  0  0
    9.0749  -15.3215   22.2895 C   0  0  2  0  0  0  0  0  0  0  0  0
    9.5548  -16.2042   21.2433 N   0  0  0  0  0  0  0  0  0  0  0  0
    8.7724  -16.0117   23.5497 C   0  0  0  0  0  0  0  0  0  0  0  0
    8.4144  -17.1988   23.5438 O   0  0  0  0  0  0  0  0  0  0  0  0
    8.9001  -15.3047   24.7661 N   0  0  0  0  0  0  0  0  0  0  0  0
    8.6552  -15.9022   26.0683 C   0  0  1  0  0  0  0  0  0  0  0  0
    8.7355  -14.8517   27.1541 C   0  0  0  0  0  0  0  0  0  0  0  0
    7.7748  -13.7742   26.8616 C   0  0  0  0  0  0  0  0  0  0  0  0
    8.0939  -12.6324   26.1363 C   0  0  0  0  0  0  0  0  0  0  0  0
    7.1800  -11.6632   25.8757 C   0  0  0  0  0  0  0  0  0  0  0  0
    5.8606  -11.7624   26.3236 C   0  0  0  0  0  0  0  0  0  0  0  0
    5.5249  -12.8896   27.0468 C   0  0  0  0  0  0  0  0  0  0  0  0
    6.4507  -13.8626   27.3073 C   0  0  0  0  0  0  0  0  0  0  0  0
    7.4474  -16.6835   26.1460 C   0  0  0  0  0  0  0  0  0  0  0  0
    6.5625  -16.5612   25.2256 O   0  0  0  0  0  0  0  0  0  0  0  0
    7.1156  -17.5881   27.1345 O   0  0  0  0  0  0  0  0  0  0  0  0
  2  3  2  0
  2  1  1  0
  4  3  1  0
  5 11  1  0
  5  4  2  0
  6  7  1  0
  6  5  1  0
  7  9  1  0
  7  8  1  1
  9 10  2  0
 11 12  2  0
 12  2  1  0
 14 13  1  1
 15 14  1  0
 16 14  1  0
 17 16  1  6
 18 17  1  0
 18  9  1  0
 19 20  2  0
 19 17  1  0
 21 19  1  0
 22 21  1  0
 22 23  1  1
 23 24  1  0
 24 25  2  0
 25 26  1  0
 27 26  2  0
 28 27  1  0
 29 24  1  0
 29 28  2  0
 30 22  1  0
 31 30  2  0
 32 30  1  0
M  END
$$$$
