YLF.pdb
     RDKit          3D

 32 33  0  0  1  0  0  0  0  0999 V2000
    7.1273  -25.0035   19.9393 O   0  0  0  0  0  0  0  0  0  0  0  0
    7.7887  -23.7802   20.0892 C   0  0  0  0  0  0  0  0  0  0  0  0
    7.2796  -22.8238   20.9354 C   0  0  0  0  0  0  0  0  0  0  0  0
    7.9193  -21.6262   21.0877 C   0  0  0  0  0  0  0  0  0  0  0  0
    9.0683  -21.3589   20.4079 C   0  0  0  0  0  0  0  0  0  0  0  0
    9.7761  -20.0773   20.5533 C   0  0  0  0  0  0  0  0  0  0  0  0
    8.8579  -18.9137   20.1949 C   0  0  2  0  0  0  0  0  0  0  0  0
    8.4748  -19.1259   18.7990 N   0  0  0  0  0  0  0  0  0  0  0  0
    9.5904  -17.6397   20.3487 C   0  0  0  0  0  0  0  0  0  0  0  0
   10.7495  -17.5421   19.8710 O   0  0  0  0  0  0  0  0  0  0  0  0
    9.6243  -22.2917   19.5410 C   0  0  0  0  0  0  0  0  0  0  0  0
    8.9640  -23.4978   19.3991 C   0  0  0  0  0  0  0  0  0  0  0  0
    6.5263  -13.2867   20.8377 C   0  0  0  0  0  0  0  0  0  0  0  0
    7.6500  -14.2354   20.3835 C   0  0  1  0  0  0  0  0  0  0  0  0
    8.3008  -13.6671   19.1292 C   0  0  0  0  0  0  0  0  0  0  0  0
    8.6494  -14.2383   21.4959 C   0  0  0  0  0  0  0  0  0  0  0  0
    9.7487  -15.2501   21.1444 C   0  0  2  0  0  0  0  0  0  0  0  0
    9.0636  -16.5205   21.0015 N   0  0  0  0  0  0  0  0  0  0  0  0
   10.6929  -15.2131   22.2684 C   0  0  0  0  0  0  0  0  0  0  0  0
   11.5471  -14.3172   22.3400 O   0  0  0  0  0  0  0  0  0  0  0  0
   10.6094  -16.2093   23.2667 N   0  0  0  0  0  0  0  0  0  0  0  0
   10.7649  -15.9350   24.6856 C   0  0  1  0  0  0  0  0  0  0  0  0
    9.5019  -15.3178   25.2449 C   0  0  0  0  0  0  0  0  0  0  0  0
    9.7320  -14.9207   26.6444 C   0  0  0  0  0  0  0  0  0  0  0  0
    9.7577  -13.6002   27.0771 C   0  0  0  0  0  0  0  0  0  0  0  0
    9.9619  -13.2701   28.3778 C   0  0  0  0  0  0  0  0  0  0  0  0
   10.1564  -14.2458   29.3584 C   0  0  0  0  0  0  0  0  0  0  0  0
   10.1348  -15.5637   28.9473 C   0  0  0  0  0  0  0  0  0  0  0  0
    9.9298  -15.8903   27.6347 C   0  0  0  0  0  0  0  0  0  0  0  0
   11.2189  -17.0602   25.4622 C   0  0  0  0  0  0  0  0  0  0  0  0
   10.7165  -18.2189   25.2380 O   0  0  0  0  0  0  0  0  0  0  0  0
   12.1721  -17.0392   26.4604 O   0  0  0  0  0  0  0  0  0  0  0  0
  2  3  2  0
  2  1  1  0
  4  3  1  0
  5 11  1  0
  5  4  2  0
  6  7  1  0
  6  5  1  0
  7  9  1  0
  7  8  1  6
  9 10  2  0
 11 12  2  0
 12  2  1  0
 14 13  1  1
 15 14  1  0
 16 14  1  0
 17 16  1  1
 18 17  1  0
 18  9  1  0
 19 20  2  0
 19 17  1  0
 21 19  1  0
 22 21  1  0
 22 23  1  1
 23 24  1  0
 24 25  2  0
 25 26  1  0
 27 26  2  0
 28 27  1  0
 29 24  1  0
 29 28  2  0
 30 22  1  0
 31 30  2  0
 32 30  1  0
M  END
$$$$
