YLF.pdb
     RDKit          3D

 32 33  0  0  1  0  0  0  0  0999 V2000
    6.4914  -14.3337   14.7867 O   0  0  0  0  0  0  0  0  0  0  0  0
    7.2345  -14.3305   15.9716 C   0  0  0  0  0  0  0  0  0  0  0  0
    7.9981  -15.4237   16.3059 C   0  0  0  0  0  0  0  0  0  0  0  0
    8.7271  -15.4289   17.4614 C   0  0  0  0  0  0  0  0  0  0  0  0
    8.7116  -14.3560   18.2995 C   0  0  0  0  0  0  0  0  0  0  0  0
    9.4866  -14.3364   19.5500 C   0  0  0  0  0  0  0  0  0  0  0  0
    9.2183  -15.5957   20.3672 C   0  0  2  0  0  0  0  0  0  0  0  0
    7.8476  -15.9932   20.0451 N   0  0  0  0  0  0  0  0  0  0  0  0
    9.3496  -15.2890   21.8066 C   0  0  0  0  0  0  0  0  0  0  0  0
   10.4612  -14.9003   22.2476 O   0  0  0  0  0  0  0  0  0  0  0  0
    7.9567  -13.2265   18.0076 C   0  0  0  0  0  0  0  0  0  0  0  0
    7.2256  -13.2384   16.8345 C   0  0  0  0  0  0  0  0  0  0  0  0
    7.3078  -12.5031   24.4244 C   0  0  0  0  0  0  0  0  0  0  0  0
    7.0189  -13.6300   25.4322 C   0  0  1  0  0  0  0  0  0  0  0  0
    5.6476  -13.3989   26.0534 C   0  0  0  0  0  0  0  0  0  0  0  0
    6.9870  -14.8909   24.6289 C   0  0  0  0  0  0  0  0  0  0  0  0
    8.4148  -15.1844   24.1483 C   0  0  2  0  0  0  0  0  0  0  0  0
    8.2965  -15.4054   22.7197 N   0  0  0  0  0  0  0  0  0  0  0  0
    8.8457  -16.3733   24.8947 C   0  0  0  0  0  0  0  0  0  0  0  0
    8.3326  -17.4782   24.6638 O   0  0  0  0  0  0  0  0  0  0  0  0
    9.8550  -16.2391   25.8741 N   0  0  0  0  0  0  0  0  0  0  0  0
   10.5455  -17.3701   26.4714 C   0  0  1  0  0  0  0  0  0  0  0  0
   11.8322  -16.9167   27.1254 C   0  0  0  0  0  0  0  0  0  0  0  0
   11.5308  -15.8796   28.1269 C   0  0  0  0  0  0  0  0  0  0  0  0
   11.2956  -14.5470   27.8101 C   0  0  0  0  0  0  0  0  0  0  0  0
   11.0097  -13.6188   28.7584 C   0  0  0  0  0  0  0  0  0  0  0  0
   10.9340  -13.9551   30.1120 C   0  0  0  0  0  0  0  0  0  0  0  0
   11.1655  -15.2746   30.4462 C   0  0  0  0  0  0  0  0  0  0  0  0
   11.4544  -16.2055   29.4862 C   0  0  0  0  0  0  0  0  0  0  0  0
    9.7302  -18.1661   27.3529 C   0  0  0  0  0  0  0  0  0  0  0  0
    8.5786  -17.7266   27.7076 O   0  0  0  0  0  0  0  0  0  0  0  0
   10.0540  -19.3990   27.8825 O   0  0  0  0  0  0  0  0  0  0  0  0
  2  3  2  0
  2  1  1  0
  4  3  1  0
  5 11  1  0
  5  4  2  0
  6  7  1  0
  6  5  1  0
  7  9  1  0
  7  8  1  1
  9 10  2  0
 11 12  2  0
 12  2  1  0
 14 13  1  6
 15 14  1  0
 16 14  1  0
 17 16  1  1
 18 17  1  0
 18  9  1  0
 19 20  2  0
 19 17  1  0
 21 19  1  0
 22 21  1  0
 22 23  1  1
 23 24  1  0
 24 25  2  0
 25 26  1  0
 27 26  2  0
 28 27  1  0
 29 24  1  0
 29 28  2  0
 30 22  1  0
 31 30  2  0
 32 30  1  0
M  END
$$$$
