YLF.pdb
     RDKit          3D

 32 33  0  0  1  0  0  0  0  0999 V2000
   13.2808  -21.9622   15.4684 O   0  0  0  0  0  0  0  0  0  0  0  0
   12.7105  -20.8768   16.1415 C   0  0  0  0  0  0  0  0  0  0  0  0
   12.6325  -20.8844   17.5141 C   0  0  0  0  0  0  0  0  0  0  0  0
   12.0770  -19.8283   18.1795 C   0  0  0  0  0  0  0  0  0  0  0  0
   11.5932  -18.7530   17.4989 C   0  0  0  0  0  0  0  0  0  0  0  0
   10.9896  -17.6034   18.1910 C   0  0  0  0  0  0  0  0  0  0  0  0
   10.7235  -17.9381   19.6548 C   0  0  2  0  0  0  0  0  0  0  0  0
    9.4156  -18.5932   19.6807 N   0  0  0  0  0  0  0  0  0  0  0  0
   10.7011  -16.6934   20.4508 C   0  0  0  0  0  0  0  0  0  0  0  0
   11.7820  -16.0875   20.6645 O   0  0  0  0  0  0  0  0  0  0  0  0
   11.6485  -18.6958   16.1116 C   0  0  0  0  0  0  0  0  0  0  0  0
   12.2138  -19.7728   15.4548 C   0  0  0  0  0  0  0  0  0  0  0  0
    6.0695  -13.9109   20.5240 C   0  0  0  0  0  0  0  0  0  0  0  0
    7.5793  -14.1973   20.4398 C   0  0  1  0  0  0  0  0  0  0  0  0
    8.2993  -12.9312   19.9946 C   0  0  0  0  0  0  0  0  0  0  0  0
    8.0033  -14.5383   21.8327 C   0  0  0  0  0  0  0  0  0  0  0  0
    9.4849  -14.9371   21.7943 C   0  0  2  0  0  0  0  0  0  0  0  0
    9.5332  -16.1409   20.9867 N   0  0  0  0  0  0  0  0  0  0  0  0
    9.8723  -15.1510   23.1944 C   0  0  0  0  0  0  0  0  0  0  0  0
   10.9570  -14.7238   23.6167 O   0  0  0  0  0  0  0  0  0  0  0  0
    8.9894  -15.8452   24.0514 N   0  0  0  0  0  0  0  0  0  0  0  0
    9.3051  -16.1695   25.4326 C   0  0  1  0  0  0  0  0  0  0  0  0
    9.4998  -14.9050   26.2400 C   0  0  0  0  0  0  0  0  0  0  0  0
    8.3048  -14.0540   26.1085 C   0  0  0  0  0  0  0  0  0  0  0  0
    7.1728  -14.1860   26.9039 C   0  0  0  0  0  0  0  0  0  0  0  0
    6.0923  -13.3766   26.7626 C   0  0  0  0  0  0  0  0  0  0  0  0
    6.0601  -12.3598   25.8055 C   0  0  0  0  0  0  0  0  0  0  0  0
    7.1757  -12.2137   25.0052 C   0  0  0  0  0  0  0  0  0  0  0  0
    8.2614  -13.0332   25.1515 C   0  0  0  0  0  0  0  0  0  0  0  0
    8.3814  -17.0835   26.0546 C   0  0  0  0  0  0  0  0  0  0  0  0
    8.5917  -17.4607   27.2623 O   0  0  0  0  0  0  0  0  0  0  0  0
    7.2475  -17.6233   25.4815 O   0  0  0  0  0  0  0  0  0  0  0  0
  2  3  2  0
  2  1  1  0
  4  3  1  0
  5 11  1  0
  5  4  2  0
  6  7  1  0
  6  5  1  0
  7  9  1  0
  7  8  1  6
  9 10  2  0
 11 12  2  0
 12  2  1  0
 14 13  1  1
 15 14  1  0
 16 14  1  0
 17 16  1  1
 18 17  1  0
 18  9  1  0
 19 20  2  0
 19 17  1  0
 21 19  1  0
 22 21  1  0
 22 23  1  1
 23 24  1  0
 24 25  2  0
 25 26  1  0
 27 26  2  0
 28 27  1  0
 29 24  1  0
 29 28  2  0
 30 22  1  0
 31 30  2  0
 32 30  1  0
M  END
$$$$
