YLF.pdb
     RDKit          3D

 32 33  0  0  1  0  0  0  0  0999 V2000
    7.3415  -14.7691   13.9494 O   0  0  0  0  0  0  0  0  0  0  0  0
    7.5881  -14.5225   15.3038 C   0  0  0  0  0  0  0  0  0  0  0  0
    7.3581  -13.2721   15.8270 C   0  0  0  0  0  0  0  0  0  0  0  0
    7.5963  -13.0227   17.1490 C   0  0  0  0  0  0  0  0  0  0  0  0
    8.0630  -14.0036   17.9697 C   0  0  0  0  0  0  0  0  0  0  0  0
    8.3285  -13.7611   19.3964 C   0  0  0  0  0  0  0  0  0  0  0  0
    8.7105  -15.0595   20.0991 C   0  0  2  0  0  0  0  0  0  0  0  0
    7.5411  -15.9313   19.9853 N   0  0  0  0  0  0  0  0  0  0  0  0
    9.0204  -14.7821   21.5170 C   0  0  0  0  0  0  0  0  0  0  0  0
   10.1302  -14.2676   21.8086 O   0  0  0  0  0  0  0  0  0  0  0  0
    8.3113  -15.2842   17.4907 C   0  0  0  0  0  0  0  0  0  0  0  0
    8.0648  -15.5187   16.1510 C   0  0  0  0  0  0  0  0  0  0  0  0
    7.9802  -12.3358   25.2178 C   0  0  0  0  0  0  0  0  0  0  0  0
    7.3501  -13.6161   25.7947 C   0  0  1  0  0  0  0  0  0  0  0  0
    6.0256  -13.2608   26.4573 C   0  0  0  0  0  0  0  0  0  0  0  0
    7.0877  -14.5015   24.6185 C   0  0  0  0  0  0  0  0  0  0  0  0
    8.4366  -14.8442   23.9714 C   0  0  2  0  0  0  0  0  0  0  0  0
    8.1405  -15.0602   22.5680 N   0  0  0  0  0  0  0  0  0  0  0  0
    8.9125  -16.0477   24.6651 C   0  0  0  0  0  0  0  0  0  0  0  0
    8.2880  -17.1145   24.5691 O   0  0  0  0  0  0  0  0  0  0  0  0
   10.0930  -15.9718   25.4376 N   0  0  0  0  0  0  0  0  0  0  0  0
   10.7129  -17.1262   26.0667 C   0  0  1  0  0  0  0  0  0  0  0  0
   11.8819  -16.6947   26.9247 C   0  0  0  0  0  0  0  0  0  0  0  0
   11.3944  -15.8320   28.0144 C   0  0  0  0  0  0  0  0  0  0  0  0
   11.0825  -14.4873   27.8525 C   0  0  0  0  0  0  0  0  0  0  0  0
   10.6248  -13.7236   28.8772 C   0  0  0  0  0  0  0  0  0  0  0  0
   10.4395  -14.2515   30.1571 C   0  0  0  0  0  0  0  0  0  0  0  0
   10.7448  -15.5859   30.3374 C   0  0  0  0  0  0  0  0  0  0  0  0
   11.2069  -16.3504   29.3012 C   0  0  0  0  0  0  0  0  0  0  0  0
    9.7953  -17.9811   26.7755 C   0  0  0  0  0  0  0  0  0  0  0  0
    8.6103  -17.5578   27.0240 O   0  0  0  0  0  0  0  0  0  0  0  0
   10.0499  -19.2568   27.2372 O   0  0  0  0  0  0  0  0  0  0  0  0
  2  3  2  0
  2  1  1  0
  4  3  1  0
  5 11  1  0
  5  4  2  0
  6  7  1  0
  6  5  1  0
  7  9  1  0
  7  8  1  1
  9 10  2  0
 11 12  2  0
 12  2  1  0
 14 13  1  6
 15 14  1  0
 16 14  1  0
 17 16  1  1
 18 17  1  0
 18  9  1  0
 19 20  2  0
 19 17  1  0
 21 19  1  0
 22 21  1  0
 22 23  1  1
 23 24  1  0
 24 25  2  0
 25 26  1  0
 27 26  2  0
 28 27  1  0
 29 24  1  0
 29 28  2  0
 30 22  1  0
 31 30  2  0
 32 30  1  0
M  END
$$$$
