YLF.pdb
     RDKit          3D

 32 33  0  0  1  0  0  0  0  0999 V2000
    8.7932  -13.0662   16.5649 O   0  0  0  0  0  0  0  0  0  0  0  0
    8.2185  -13.7797   17.6217 C   0  0  0  0  0  0  0  0  0  0  0  0
    7.9524  -15.1210   17.4800 C   0  0  0  0  0  0  0  0  0  0  0  0
    7.3911  -15.8255   18.5072 C   0  0  0  0  0  0  0  0  0  0  0  0
    7.0869  -15.2153   19.6857 C   0  0  0  0  0  0  0  0  0  0  0  0
    6.4814  -15.9507   20.8071 C   0  0  0  0  0  0  0  0  0  0  0  0
    7.5326  -16.7843   21.5318 C   0  0  2  0  0  0  0  0  0  0  0  0
    6.7894  -17.6582   22.4397 N   0  0  0  0  0  0  0  0  0  0  0  0
    8.4369  -15.8926   22.2871 C   0  0  0  0  0  0  0  0  0  0  0  0
    9.4518  -15.4243   21.7109 O   0  0  0  0  0  0  0  0  0  0  0  0
    7.3362  -13.8622   19.8801 C   0  0  0  0  0  0  0  0  0  0  0  0
    7.9044  -13.1651   18.8304 C   0  0  0  0  0  0  0  0  0  0  0  0
    5.9268  -13.2348   25.9091 C   0  0  0  0  0  0  0  0  0  0  0  0
    6.8492  -13.7283   24.7800 C   0  0  1  0  0  0  0  0  0  0  0  0
    7.0112  -12.6166   23.7517 C   0  0  0  0  0  0  0  0  0  0  0  0
    8.1711  -13.9943   25.4266 C   0  0  0  0  0  0  0  0  0  0  0  0
    9.0880  -14.6464   24.3827 C   0  0  2  0  0  0  0  0  0  0  0  0
    8.2275  -15.5325   23.6223 N   0  0  0  0  0  0  0  0  0  0  0  0
   10.1243  -15.3478   25.1510 C   0  0  0  0  0  0  0  0  0  0  0  0
   11.1357  -14.7430   25.5366 O   0  0  0  0  0  0  0  0  0  0  0  0
    9.9485  -16.7179   25.4473 N   0  0  0  0  0  0  0  0  0  0  0  0
   10.8881  -17.4916   26.2417 C   0  0  1  0  0  0  0  0  0  0  0  0
   10.3642  -17.6732   27.6493 C   0  0  0  0  0  0  0  0  0  0  0  0
   10.4410  -16.3895   28.3673 C   0  0  0  0  0  0  0  0  0  0  0  0
   11.4651  -16.0577   29.2464 C   0  0  0  0  0  0  0  0  0  0  0  0
   11.5104  -14.8599   29.8835 C   0  0  0  0  0  0  0  0  0  0  0  0
   10.5252  -13.8893   29.6876 C   0  0  0  0  0  0  0  0  0  0  0  0
    9.4990  -14.2013   28.8181 C   0  0  0  0  0  0  0  0  0  0  0  0
    9.4581  -15.4106   28.1796 C   0  0  0  0  0  0  0  0  0  0  0  0
   11.2919  -18.7364   25.6393 C   0  0  0  0  0  0  0  0  0  0  0  0
   10.8148  -19.0611   24.4938 O   0  0  0  0  0  0  0  0  0  0  0  0
   12.1698  -19.6600   26.1701 O   0  0  0  0  0  0  0  0  0  0  0  0
  2  3  2  0
  2  1  1  0
  4  3  1  0
  5 11  1  0
  5  4  2  0
  6  7  1  0
  6  5  1  0
  7  9  1  0
  7  8  1  1
  9 10  2  0
 11 12  2  0
 12  2  1  0
 14 13  1  1
 15 14  1  0
 16 14  1  0
 17 16  1  1
 18 17  1  0
 18  9  1  0
 19 20  2  0
 19 17  1  0
 21 19  1  0
 22 21  1  0
 22 23  1  1
 23 24  1  0
 24 25  2  0
 25 26  1  0
 27 26  2  0
 28 27  1  0
 29 24  1  0
 29 28  2  0
 30 22  1  0
 31 30  2  0
 32 30  1  0
M  END
$$$$
