YLF.pdb
     RDKit          3D

 32 33  0  0  1  0  0  0  0  0999 V2000
    8.0441  -24.6440   19.7822 O   0  0  0  0  0  0  0  0  0  0  0  0
    8.4514  -23.3744   20.2048 C   0  0  0  0  0  0  0  0  0  0  0  0
    7.5127  -22.4080   20.4783 C   0  0  0  0  0  0  0  0  0  0  0  0
    7.9018  -21.1653   20.8917 C   0  0  0  0  0  0  0  0  0  0  0  0
    9.2208  -20.8622   21.0406 C   0  0  0  0  0  0  0  0  0  0  0  0
    9.6665  -19.5318   21.4834 C   0  0  0  0  0  0  0  0  0  0  0  0
    9.1976  -18.4571   20.5084 C   0  0  2  0  0  0  0  0  0  0  0  0
    9.8355  -18.7748   19.2307 N   0  0  0  0  0  0  0  0  0  0  0  0
    9.6276  -17.1287   20.9920 C   0  0  0  0  0  0  0  0  0  0  0  0
   10.8281  -16.7855   20.8430 O   0  0  0  0  0  0  0  0  0  0  0  0
   10.2089  -21.8032   20.7777 C   0  0  0  0  0  0  0  0  0  0  0  0
    9.7972  -23.0551   20.3607 C   0  0  0  0  0  0  0  0  0  0  0  0
    6.3008  -13.1712   20.3665 C   0  0  0  0  0  0  0  0  0  0  0  0
    7.6281  -13.9432   20.4731 C   0  0  1  0  0  0  0  0  0  0  0  0
    8.7223  -13.1450   19.7766 C   0  0  0  0  0  0  0  0  0  0  0  0
    7.9330  -14.0208   21.9351 C   0  0  0  0  0  0  0  0  0  0  0  0
    9.1656  -14.9172   22.1165 C   0  0  2  0  0  0  0  0  0  0  0  0
    8.7668  -16.2175   21.6126 N   0  0  0  0  0  0  0  0  0  0  0  0
    9.4530  -14.9061   23.5564 C   0  0  0  0  0  0  0  0  0  0  0  0
   10.0568  -13.9515   24.0676 O   0  0  0  0  0  0  0  0  0  0  0  0
    9.0271  -15.9956   24.3486 N   0  0  0  0  0  0  0  0  0  0  0  0
    9.3295  -16.1216   25.7647 C   0  0  1  0  0  0  0  0  0  0  0  0
    8.1128  -15.7793   26.5962 C   0  0  0  0  0  0  0  0  0  0  0  0
    7.9041  -14.3214   26.5774 C   0  0  0  0  0  0  0  0  0  0  0  0
    8.8374  -13.4028   27.0428 C   0  0  0  0  0  0  0  0  0  0  0  0
    8.6166  -12.0641   27.0004 C   0  0  0  0  0  0  0  0  0  0  0  0
    7.4329  -11.5340   26.4819 C   0  0  0  0  0  0  0  0  0  0  0  0
    6.4931  -12.4315   26.0153 C   0  0  0  0  0  0  0  0  0  0  0  0
    6.7208  -13.7797   26.0616 C   0  0  0  0  0  0  0  0  0  0  0  0
    9.9142  -17.3843   26.1377 C   0  0  0  0  0  0  0  0  0  0  0  0
   10.1895  -17.6067   27.3705 O   0  0  0  0  0  0  0  0  0  0  0  0
   10.2250  -18.4286   25.2902 O   0  0  0  0  0  0  0  0  0  0  0  0
  2  3  2  0
  2  1  1  0
  4  3  1  0
  5 11  1  0
  5  4  2  0
  6  7  1  0
  6  5  1  0
  7  9  1  0
  7  8  1  6
  9 10  2  0
 11 12  2  0
 12  2  1  0
 14 13  1  1
 15 14  1  0
 16 14  1  0
 17 16  1  1
 18 17  1  0
 18  9  1  0
 19 20  2  0
 19 17  1  0
 21 19  1  0
 22 21  1  0
 22 23  1  1
 23 24  1  0
 24 25  2  0
 25 26  1  0
 27 26  2  0
 28 27  1  0
 29 24  1  0
 29 28  2  0
 30 22  1  0
 31 30  2  0
 32 30  1  0
M  END
$$$$
