YLF.pdb
     RDKit          3D

 32 33  0  0  1  0  0  0  0  0999 V2000
   11.4524  -22.9776   16.6718 O   0  0  0  0  0  0  0  0  0  0  0  0
   11.4213  -21.7401   17.3230 C   0  0  0  0  0  0  0  0  0  0  0  0
   11.7584  -21.6557   18.6532 C   0  0  0  0  0  0  0  0  0  0  0  0
   11.7309  -20.4510   19.2969 C   0  0  0  0  0  0  0  0  0  0  0  0
   11.3713  -19.3163   18.6360 C   0  0  0  0  0  0  0  0  0  0  0  0
   11.3326  -18.0068   19.3059 C   0  0  0  0  0  0  0  0  0  0  0  0
   10.6513  -18.1199   20.6655 C   0  0  2  0  0  0  0  0  0  0  0  0
    9.2933  -18.5898   20.3911 N   0  0  0  0  0  0  0  0  0  0  0  0
   10.6246  -16.7941   21.3173 C   0  0  0  0  0  0  0  0  0  0  0  0
   11.7114  -16.2004   21.5353 O   0  0  0  0  0  0  0  0  0  0  0  0
   11.0222  -19.3474   17.2914 C   0  0  0  0  0  0  0  0  0  0  0  0
   11.0557  -20.5745   16.6560 C   0  0  0  0  0  0  0  0  0  0  0  0
    6.2897  -13.9233   20.2716 C   0  0  0  0  0  0  0  0  0  0  0  0
    7.7293  -14.4173   20.5007 C   0  0  1  0  0  0  0  0  0  0  0  0
    8.6939  -13.4803   19.7858 C   0  0  0  0  0  0  0  0  0  0  0  0
    7.9577  -14.3238   21.9756 C   0  0  0  0  0  0  0  0  0  0  0  0
    9.3827  -14.8134   22.2678 C   0  0  2  0  0  0  0  0  0  0  0  0
    9.4463  -16.1509   21.7103 N   0  0  0  0  0  0  0  0  0  0  0  0
    9.5204  -14.7771   23.7292 C   0  0  0  0  0  0  0  0  0  0  0  0
    9.9733  -13.7688   24.2911 O   0  0  0  0  0  0  0  0  0  0  0  0
    9.1251  -15.9046   24.4831 N   0  0  0  0  0  0  0  0  0  0  0  0
    9.2882  -16.0006   25.9242 C   0  0  1  0  0  0  0  0  0  0  0  0
    7.9733  -15.7319   26.6227 C   0  0  0  0  0  0  0  0  0  0  0  0
    7.7033  -14.2840   26.6129 C   0  0  0  0  0  0  0  0  0  0  0  0
    8.5899  -13.3309   27.0996 C   0  0  0  0  0  0  0  0  0  0  0  0
    8.3131  -12.0024   27.0650 C   0  0  0  0  0  0  0  0  0  0  0  0
    7.1156  -11.5183   26.5332 C   0  0  0  0  0  0  0  0  0  0  0  0
    6.2216  -12.4506   26.0453 C   0  0  0  0  0  0  0  0  0  0  0  0
    6.5056  -13.7883   26.0839 C   0  0  0  0  0  0  0  0  0  0  0  0
    9.9106  -17.2202   26.3720 C   0  0  0  0  0  0  0  0  0  0  0  0
   10.2692  -18.0948   25.5050 O   0  0  0  0  0  0  0  0  0  0  0  0
   10.1802  -17.5739   27.6788 O   0  0  0  0  0  0  0  0  0  0  0  0
  2  3  2  0
  2  1  1  0
  4  3  1  0
  5 11  1  0
  5  4  2  0
  6  7  1  0
  6  5  1  0
  7  9  1  0
  7  8  1  6
  9 10  2  0
 11 12  2  0
 12  2  1  0
 14 13  1  1
 15 14  1  0
 16 14  1  0
 17 16  1  1
 18 17  1  0
 18  9  1  0
 19 20  2  0
 19 17  1  0
 21 19  1  0
 22 21  1  0
 22 23  1  1
 23 24  1  0
 24 25  2  0
 25 26  1  0
 27 26  2  0
 28 27  1  0
 29 24  1  0
 29 28  2  0
 30 22  1  0
 31 30  2  0
 32 30  1  0
M  END
$$$$
