YLF.pdb
     RDKit          3D

 32 33  0  0  1  0  0  0  0  0999 V2000
    5.7925  -23.8429   19.6526 O   0  0  0  0  0  0  0  0  0  0  0  0
    6.4990  -22.7254   20.1088 C   0  0  0  0  0  0  0  0  0  0  0  0
    6.7775  -21.6907   19.2475 C   0  0  0  0  0  0  0  0  0  0  0  0
    7.4671  -20.5953   19.6849 C   0  0  0  0  0  0  0  0  0  0  0  0
    7.8889  -20.5079   20.9764 C   0  0  0  0  0  0  0  0  0  0  0  0
    8.6338  -19.3401   21.4726 C   0  0  0  0  0  0  0  0  0  0  0  0
    8.8117  -18.3072   20.3649 C   0  0  2  0  0  0  0  0  0  0  0  0
    9.6682  -18.9429   19.3635 N   0  0  0  0  0  0  0  0  0  0  0  0
    9.4585  -17.0980   20.9151 C   0  0  0  0  0  0  0  0  0  0  0  0
   10.7142  -17.0328   20.9315 O   0  0  0  0  0  0  0  0  0  0  0  0
    7.6327  -21.5259   21.8869 C   0  0  0  0  0  0  0  0  0  0  0  0
    6.9339  -22.6264   21.4272 C   0  0  0  0  0  0  0  0  0  0  0  0
    6.7828  -12.6636   20.2063 C   0  0  0  0  0  0  0  0  0  0  0  0
    7.8714  -13.7439   20.3361 C   0  0  1  0  0  0  0  0  0  0  0  0
    9.0438  -13.3759   19.4363 C   0  0  0  0  0  0  0  0  0  0  0  0
    8.3158  -13.6991   21.7632 C   0  0  0  0  0  0  0  0  0  0  0  0
    9.3553  -14.8088   21.9723 C   0  0  2  0  0  0  0  0  0  0  0  0
    8.7476  -16.0064   21.4242 N   0  0  0  0  0  0  0  0  0  0  0  0
    9.5786  -14.8721   23.4222 C   0  0  0  0  0  0  0  0  0  0  0  0
   10.2379  -13.9912   23.9937 O   0  0  0  0  0  0  0  0  0  0  0  0
    9.0275  -15.9475   24.1541 N   0  0  0  0  0  0  0  0  0  0  0  0
    9.2090  -16.1167   25.5863 C   0  0  1  0  0  0  0  0  0  0  0  0
    7.8841  -15.9853   26.3049 C   0  0  0  0  0  0  0  0  0  0  0  0
    7.5443  -14.5590   26.4437 C   0  0  0  0  0  0  0  0  0  0  0  0
    6.3442  -14.0066   26.0121 C   0  0  0  0  0  0  0  0  0  0  0  0
    6.0591  -12.6883   26.1658 C   0  0  0  0  0  0  0  0  0  0  0  0
    6.9612  -11.8106   26.7715 C   0  0  0  0  0  0  0  0  0  0  0  0
    8.1595  -12.3411   27.2062 C   0  0  0  0  0  0  0  0  0  0  0  0
    8.4417  -13.6703   27.0475 C   0  0  0  0  0  0  0  0  0  0  0  0
    9.9211  -17.3125   25.9581 C   0  0  0  0  0  0  0  0  0  0  0  0
   10.0714  -17.5905   27.2012 O   0  0  0  0  0  0  0  0  0  0  0  0
   10.4834  -18.2351   25.0990 O   0  0  0  0  0  0  0  0  0  0  0  0
  2  3  2  0
  2  1  1  0
  4  3  1  0
  5 11  1  0
  5  4  2  0
  6  7  1  0
  6  5  1  0
  7  9  1  0
  7  8  1  6
  9 10  2  0
 11 12  2  0
 12  2  1  0
 14 13  1  1
 15 14  1  0
 16 14  1  0
 17 16  1  1
 18 17  1  0
 18  9  1  0
 19 20  2  0
 19 17  1  0
 21 19  1  0
 22 21  1  0
 22 23  1  1
 23 24  1  0
 24 25  2  0
 25 26  1  0
 27 26  2  0
 28 27  1  0
 29 24  1  0
 29 28  2  0
 30 22  1  0
 31 30  2  0
 32 30  1  0
M  END
$$$$
