YLF.pdb
     RDKit          3D

 32 33  0  0  1  0  0  0  0  0999 V2000
    7.4975  -17.2310   14.7515 O   0  0  0  0  0  0  0  0  0  0  0  0
    7.8921  -16.6467   15.9594 C   0  0  0  0  0  0  0  0  0  0  0  0
    7.1273  -15.6533   16.5236 C   0  0  0  0  0  0  0  0  0  0  0  0
    7.5054  -15.0772   17.7033 C   0  0  0  0  0  0  0  0  0  0  0  0
    8.6413  -15.4747   18.3399 C   0  0  0  0  0  0  0  0  0  0  0  0
    9.0713  -14.8702   19.6106 C   0  0  0  0  0  0  0  0  0  0  0  0
    9.2350  -15.9398   20.6851 C   0  0  2  0  0  0  0  0  0  0  0  0
    7.8920  -16.4668   20.9283 N   0  0  0  0  0  0  0  0  0  0  0  0
    9.7873  -15.3284   21.9117 C   0  0  0  0  0  0  0  0  0  0  0  0
   10.9800  -14.9303   21.9100 O   0  0  0  0  0  0  0  0  0  0  0  0
    9.4489  -16.4748   17.8121 C   0  0  0  0  0  0  0  0  0  0  0  0
    9.0512  -17.0466   16.6181 C   0  0  0  0  0  0  0  0  0  0  0  0
    6.0003  -13.0756   24.7193 C   0  0  0  0  0  0  0  0  0  0  0  0
    7.2972  -13.4007   23.9569 C   0  0  1  0  0  0  0  0  0  0  0  0
    7.8916  -12.1066   23.4168 C   0  0  0  0  0  0  0  0  0  0  0  0
    8.2279  -13.9807   24.9736 C   0  0  0  0  0  0  0  0  0  0  0  0
    9.5078  -14.4208   24.2498 C   0  0  2  0  0  0  0  0  0  0  0  0
    9.0519  -15.1629   23.0899 N   0  0  0  0  0  0  0  0  0  0  0  0
   10.2477  -15.2389   25.2191 C   0  0  0  0  0  0  0  0  0  0  0  0
   11.0461  -14.7092   26.0061 O   0  0  0  0  0  0  0  0  0  0  0  0
   10.0321  -16.6349   25.2436 N   0  0  0  0  0  0  0  0  0  0  0  0
   10.7417  -17.5385   26.1340 C   0  0  1  0  0  0  0  0  0  0  0  0
   10.0578  -17.5952   27.4823 C   0  0  0  0  0  0  0  0  0  0  0  0
   10.2502  -16.3128   28.1807 C   0  0  0  0  0  0  0  0  0  0  0  0
    9.3028  -15.2961   28.2012 C   0  0  0  0  0  0  0  0  0  0  0  0
    9.5090  -14.1300   28.8646 C   0  0  0  0  0  0  0  0  0  0  0  0
   10.6908  -13.8878   29.5687 C   0  0  0  0  0  0  0  0  0  0  0  0
   11.6444  -14.8863   29.5592 C   0  0  0  0  0  0  0  0  0  0  0  0
   11.4315  -16.0592   28.8877 C   0  0  0  0  0  0  0  0  0  0  0  0
   10.9832  -18.8476   25.5833 C   0  0  0  0  0  0  0  0  0  0  0  0
   10.5611  -19.1175   24.4026 O   0  0  0  0  0  0  0  0  0  0  0  0
   11.6445  -19.8900   26.2009 O   0  0  0  0  0  0  0  0  0  0  0  0
  2  3  2  0
  2  1  1  0
  4  3  1  0
  5 11  1  0
  5  4  2  0
  6  7  1  0
  6  5  1  0
  7  9  1  0
  7  8  1  1
  9 10  2  0
 11 12  2  0
 12  2  1  0
 14 13  1  1
 15 14  1  0
 16 14  1  0
 17 16  1  1
 18 17  1  0
 18  9  1  0
 19 20  2  0
 19 17  1  0
 21 19  1  0
 22 21  1  0
 22 23  1  1
 23 24  1  0
 24 25  2  0
 25 26  1  0
 27 26  2  0
 28 27  1  0
 29 24  1  0
 29 28  2  0
 30 22  1  0
 31 30  2  0
 32 30  1  0
M  END
$$$$
