PIF.pdb
     RDKit          3D

 27 28  0  0  1  0  0  0  0  0999 V2000
    6.6551  -17.0391   21.5182 N   0  0  0  0  0  0  0  0  0  0  0  0
    5.5721  -17.0481   20.5754 C   0  0  0  0  0  0  0  0  0  0  0  0
    5.8136  -15.8227   19.7365 C   0  0  0  0  0  0  0  0  0  0  0  0
    7.3102  -15.7149   19.6662 C   0  0  0  0  0  0  0  0  0  0  0  0
    7.8148  -16.5141   20.8206 C   0  0  1  0  0  0  0  0  0  0  0  0
    8.6072  -15.7162   21.7905 C   0  0  0  0  0  0  0  0  0  0  0  0
    9.7288  -15.1952   21.4675 O   0  0  0  0  0  0  0  0  0  0  0  0
    5.6196  -12.9670   25.2465 C   0  0  0  0  0  0  0  0  0  0  0  0
    6.6961  -13.4182   24.2868 C   0  0  0  0  0  0  0  0  0  0  0  0
    7.8615  -14.0416   24.9557 C   0  0  2  0  0  0  0  0  0  0  0  0
    8.4904  -13.0086   25.9046 C   0  0  0  0  0  0  0  0  0  0  0  0
    8.9476  -14.5652   24.0136 C   0  0  2  0  0  0  0  0  0  0  0  0
    8.1816  -15.4800   23.1229 N   0  0  0  0  0  0  0  0  0  0  0  0
   10.0078  -15.3150   24.6854 C   0  0  0  0  0  0  0  0  0  0  0  0
   11.1616  -14.7603   24.7688 O   0  0  0  0  0  0  0  0  0  0  0  0
    9.8286  -16.6005   25.2420 N   0  0  0  0  0  0  0  0  0  0  0  0
   10.9205  -17.2087   25.9906 C   0  0  1  0  0  0  0  0  0  0  0  0
   10.5254  -17.4127   27.4375 C   0  0  0  0  0  0  0  0  0  0  0  0
   10.3379  -16.1577   28.1842 C   0  0  0  0  0  0  0  0  0  0  0  0
   11.3273  -15.6433   29.0030 C   0  0  0  0  0  0  0  0  0  0  0  0
   11.1666  -14.4594   29.7104 C   0  0  0  0  0  0  0  0  0  0  0  0
    9.9810  -13.7586   29.6028 C   0  0  0  0  0  0  0  0  0  0  0  0
    8.9937  -14.2598   28.7940 C   0  0  0  0  0  0  0  0  0  0  0  0
    9.1647  -15.4373   28.0957 C   0  0  0  0  0  0  0  0  0  0  0  0
   11.3521  -18.4576   25.3395 C   0  0  0  0  0  0  0  0  0  0  0  0
   12.3226  -19.1539   25.7269 O   0  0  0  0  0  0  0  0  0  0  0  0
   10.6721  -18.9302   24.2265 O   0  0  0  0  0  0  0  0  0  0  0  0
  1  2  1  0
  3  2  1  0
  4  3  1  0
  4  5  1  0
  5  6  1  1
  5  1  1  0
  6  7  2  0
  9  8  1  0
 10  9  1  0
 10 11  1  1
 12 10  1  0
 13  6  1  0
 12 13  1  6
 14 12  1  0
 14 15  2  0
 16 14  1  0
 17 25  1  0
 17 16  1  0
 17 18  1  1
 19 20  2  0
 19 18  1  0
 21 20  1  0
 22 21  2  0
 23 22  1  0
 23 24  2  0
 24 19  1  0
 25 27  1  0
 26 25  2  0
M  END
$$$$
