PIF.pdb
     RDKit          3D

 27 28  0  0  1  0  0  0  0  0999 V2000
    7.6428  -19.5741   19.4613 N   0  0  0  0  0  0  0  0  0  0  0  0
    7.2979  -20.9449   19.7135 C   0  0  0  0  0  0  0  0  0  0  0  0
    7.2737  -21.0406   21.2149 C   0  0  0  0  0  0  0  0  0  0  0  0
    6.7705  -19.6972   21.6605 C   0  0  0  0  0  0  0  0  0  0  0  0
    7.0173  -18.7843   20.5064 C   0  0  1  0  0  0  0  0  0  0  0  0
    7.9259  -17.6551   20.8298 C   0  0  0  0  0  0  0  0  0  0  0  0
    9.1900  -17.7474   20.6649 O   0  0  0  0  0  0  0  0  0  0  0  0
    7.8815  -11.7685   20.0366 C   0  0  0  0  0  0  0  0  0  0  0  0
    8.5490  -12.8833   20.8081 C   0  0  0  0  0  0  0  0  0  0  0  0
    7.7505  -14.1301   20.8561 C   0  0  2  0  0  0  0  0  0  0  0  0
    6.4038  -13.8221   21.5303 C   0  0  0  0  0  0  0  0  0  0  0  0
    8.4113  -15.2965   21.5938 C   0  0  2  0  0  0  0  0  0  0  0  0
    7.4619  -16.4141   21.3363 N   0  0  0  0  0  0  0  0  0  0  0  0
    8.5423  -15.0916   23.0354 C   0  0  0  0  0  0  0  0  0  0  0  0
    7.8933  -14.1141   23.5544 O   0  0  0  0  0  0  0  0  0  0  0  0
    9.3341  -15.9052   23.8753 N   0  0  0  0  0  0  0  0  0  0  0  0
    9.2539  -15.7259   25.3189 C   0  0  1  0  0  0  0  0  0  0  0  0
    7.8121  -15.5885   25.7592 C   0  0  0  0  0  0  0  0  0  0  0  0
    7.4242  -14.2096   26.0995 C   0  0  0  0  0  0  0  0  0  0  0  0
    6.1034  -13.7988   26.0776 C   0  0  0  0  0  0  0  0  0  0  0  0
    5.7218  -12.5031   26.3995 C   0  0  0  0  0  0  0  0  0  0  0  0
    6.6851  -11.5795   26.7565 C   0  0  0  0  0  0  0  0  0  0  0  0
    7.9973  -11.9763   26.7814 C   0  0  0  0  0  0  0  0  0  0  0  0
    8.3647  -13.2667   26.4596 C   0  0  0  0  0  0  0  0  0  0  0  0
    9.9552  -16.8220   26.0091 C   0  0  0  0  0  0  0  0  0  0  0  0
   10.2997  -17.8954   25.4559 O   0  0  0  0  0  0  0  0  0  0  0  0
   10.2745  -16.7028   27.3539 O   0  0  0  0  0  0  0  0  0  0  0  0
  1  2  1  0
  3  2  1  0
  4  3  1  0
  4  5  1  0
  5  6  1  1
  5  1  1  0
  6  7  2  0
  9  8  1  0
 10  9  1  0
 10 11  1  1
 12 10  1  0
 13  6  1  0
 12 13  1  1
 14 12  1  0
 14 15  2  0
 16 14  1  0
 17 25  1  0
 17 16  1  0
 17 18  1  1
 19 20  2  0
 19 18  1  0
 21 20  1  0
 22 21  2  0
 23 22  1  0
 23 24  2  0
 24 19  1  0
 25 27  1  0
 26 25  2  0
M  END
$$$$
