PIF.pdb
     RDKit          3D

 27 28  0  0  1  0  0  0  0  0999 V2000
    7.0596  -18.6083   21.1894 N   0  0  0  0  0  0  0  0  0  0  0  0
    6.1103  -19.2665   20.3365 C   0  0  0  0  0  0  0  0  0  0  0  0
    6.5905  -18.9461   18.9471 C   0  0  0  0  0  0  0  0  0  0  0  0
    8.0866  -18.9069   19.0754 C   0  0  0  0  0  0  0  0  0  0  0  0
    8.3493  -18.6964   20.5290 C   0  0  1  0  0  0  0  0  0  0  0  0
    9.0962  -17.4462   20.8196 C   0  0  0  0  0  0  0  0  0  0  0  0
   10.2969  -17.2769   20.4156 O   0  0  0  0  0  0  0  0  0  0  0  0
    6.5152  -12.7429   20.9125 C   0  0  0  0  0  0  0  0  0  0  0  0
    7.2133  -13.8769   21.6268 C   0  0  0  0  0  0  0  0  0  0  0  0
    8.6313  -14.0415   21.2312 C   0  0  2  0  0  0  0  0  0  0  0  0
    8.6918  -14.2631   19.7112 C   0  0  0  0  0  0  0  0  0  0  0  0
    9.3693  -15.1898   21.9226 C   0  0  2  0  0  0  0  0  0  0  0  0
    8.5382  -16.3690   21.5546 N   0  0  0  0  0  0  0  0  0  0  0  0
    9.4264  -15.0699   23.3786 C   0  0  0  0  0  0  0  0  0  0  0  0
    9.1975  -13.9137   23.8854 O   0  0  0  0  0  0  0  0  0  0  0  0
    9.7142  -16.1478   24.2444 N   0  0  0  0  0  0  0  0  0  0  0  0
    9.0529  -16.2134   25.5409 C   0  0  1  0  0  0  0  0  0  0  0  0
    7.6243  -15.7244   25.4354 C   0  0  0  0  0  0  0  0  0  0  0  0
    7.4302  -14.3487   25.9230 C   0  0  0  0  0  0  0  0  0  0  0  0
    6.2237  -13.6880   25.7763 C   0  0  0  0  0  0  0  0  0  0  0  0
    6.0244  -12.3924   26.2341 C   0  0  0  0  0  0  0  0  0  0  0  0
    7.0596  -11.7261   26.8609 C   0  0  0  0  0  0  0  0  0  0  0  0
    8.2597  -12.3718   27.0114 C   0  0  0  0  0  0  0  0  0  0  0  0
    8.4461  -13.6595   26.5525 C   0  0  0  0  0  0  0  0  0  0  0  0
    9.1462  -17.5759   26.0930 C   0  0  0  0  0  0  0  0  0  0  0  0
    9.1507  -18.6193   25.3944 O   0  0  0  0  0  0  0  0  0  0  0  0
    9.2365  -17.7635   27.4646 O   0  0  0  0  0  0  0  0  0  0  0  0
  1  2  1  0
  3  2  1  0
  4  3  1  0
  4  5  1  0
  5  6  1  6
  5  1  1  0
  6  7  2  0
  9  8  1  0
 10  9  1  0
 10 11  1  6
 12 10  1  0
 13  6  1  0
 12 13  1  1
 14 12  1  0
 14 15  2  0
 16 14  1  0
 17 25  1  0
 17 16  1  0
 17 18  1  6
 19 20  2  0
 19 18  1  0
 21 20  1  0
 22 21  2  0
 23 22  1  0
 23 24  2  0
 24 19  1  0
 25 27  1  0
 26 25  2  0
M  END
$$$$
