PIF.pdb
     RDKit          3D

 27 28  0  0  1  0  0  0  0  0999 V2000
    9.3071  -14.2007   19.4693 N   0  0  0  0  0  0  0  0  0  0  0  0
    9.1205  -13.4995   18.2303 C   0  0  0  0  0  0  0  0  0  0  0  0
    7.6729  -13.0902   18.2618 C   0  0  0  0  0  0  0  0  0  0  0  0
    7.4002  -12.8162   19.7134 C   0  0  0  0  0  0  0  0  0  0  0  0
    8.4735  -13.5387   20.4563 C   0  0  1  0  0  0  0  0  0  0  0  0
    7.9549  -14.5760   21.3839 C   0  0  0  0  0  0  0  0  0  0  0  0
    6.9360  -14.3596   22.1246 O   0  0  0  0  0  0  0  0  0  0  0  0
    8.2462  -19.8438   20.0581 C   0  0  0  0  0  0  0  0  0  0  0  0
    7.8213  -18.5044   20.6139 C   0  0  0  0  0  0  0  0  0  0  0  0
    8.4537  -18.1752   21.9124 C   0  0  2  0  0  0  0  0  0  0  0  0
    8.1189  -19.2909   22.9155 C   0  0  0  0  0  0  0  0  0  0  0  0
    8.0358  -16.8329   22.5164 C   0  0  2  0  0  0  0  0  0  0  0  0
    8.5446  -15.8598   21.5109 N   0  0  0  0  0  0  0  0  0  0  0  0
    8.6417  -16.5506   23.8167 C   0  0  0  0  0  0  0  0  0  0  0  0
    9.9002  -16.3022   23.8404 O   0  0  0  0  0  0  0  0  0  0  0  0
    7.9218  -16.5351   25.0315 N   0  0  0  0  0  0  0  0  0  0  0  0
    8.6127  -16.1728   26.2619 C   0  0  1  0  0  0  0  0  0  0  0  0
    7.6961  -15.3886   27.1763 C   0  0  0  0  0  0  0  0  0  0  0  0
    7.2750  -14.0905   26.6237 C   0  0  0  0  0  0  0  0  0  0  0  0
    8.1520  -13.0260   26.5171 C   0  0  0  0  0  0  0  0  0  0  0  0
    7.7707  -11.7973   25.9948 C   0  0  0  0  0  0  0  0  0  0  0  0
    6.4714  -11.6163   25.5618 C   0  0  0  0  0  0  0  0  0  0  0  0
    5.5939  -12.6650   25.6631 C   0  0  0  0  0  0  0  0  0  0  0  0
    5.9842  -13.8816   26.1838 C   0  0  0  0  0  0  0  0  0  0  0  0
    9.1662  -17.3746   26.9093 C   0  0  0  0  0  0  0  0  0  0  0  0
    8.8320  -18.5489   26.6160 O   0  0  0  0  0  0  0  0  0  0  0  0
   10.1185  -17.2468   27.9101 O   0  0  0  0  0  0  0  0  0  0  0  0
  1  2  1  0
  3  2  1  0
  4  3  1  0
  4  5  1  0
  5  6  1  1
  5  1  1  0
  6  7  2  0
  9  8  1  0
 10  9  1  0
 10 11  1  1
 12 10  1  0
 13  6  1  0
 12 13  1  6
 14 12  1  0
 14 15  2  0
 16 14  1  0
 17 25  1  0
 17 16  1  0
 17 18  1  1
 19 20  2  0
 19 18  1  0
 21 20  1  0
 22 21  2  0
 23 22  1  0
 23 24  2  0
 24 19  1  0
 25 27  1  0
 26 25  2  0
M  END
$$$$
