PIF.pdb
     RDKit          3D

 27 28  0  0  1  0  0  0  0  0999 V2000
    6.3216  -18.4560   20.9930 N   0  0  0  0  0  0  0  0  0  0  0  0
    5.1707  -18.7597   20.1900 C   0  0  0  0  0  0  0  0  0  0  0  0
    5.5565  -18.2893   18.8138 C   0  0  0  0  0  0  0  0  0  0  0  0
    7.0329  -18.5550   18.7354 C   0  0  0  0  0  0  0  0  0  0  0  0
    7.4869  -18.6633   20.1525 C   0  0  1  0  0  0  0  0  0  0  0  0
    8.5046  -17.6486   20.5264 C   0  0  0  0  0  0  0  0  0  0  0  0
    9.7406  -17.8068   20.2419 O   0  0  0  0  0  0  0  0  0  0  0  0
    7.0055  -12.3623   21.0700 C   0  0  0  0  0  0  0  0  0  0  0  0
    7.4251  -13.7249   21.5709 C   0  0  0  0  0  0  0  0  0  0  0  0
    8.7346  -14.1720   21.0420 C   0  0  2  0  0  0  0  0  0  0  0  0
    8.6236  -14.3089   19.5148 C   0  0  0  0  0  0  0  0  0  0  0  0
    9.2493  -15.4940   21.6153 C   0  0  2  0  0  0  0  0  0  0  0  0
    8.1815  -16.4513   21.2148 N   0  0  0  0  0  0  0  0  0  0  0  0
    9.3861  -15.4987   23.0709 C   0  0  0  0  0  0  0  0  0  0  0  0
   10.3097  -14.7678   23.5796 O   0  0  0  0  0  0  0  0  0  0  0  0
    8.5629  -16.2544   23.9344 N   0  0  0  0  0  0  0  0  0  0  0  0
    8.8175  -16.2203   25.3685 C   0  0  1  0  0  0  0  0  0  0  0  0
    7.5403  -15.9361   26.1295 C   0  0  0  0  0  0  0  0  0  0  0  0
    7.2367  -14.5018   26.2650 C   0  0  0  0  0  0  0  0  0  0  0  0
    6.0376  -13.9674   25.8286 C   0  0  0  0  0  0  0  0  0  0  0  0
    5.7355  -12.6178   25.9528 C   0  0  0  0  0  0  0  0  0  0  0  0
    6.6561  -11.7655   26.5310 C   0  0  0  0  0  0  0  0  0  0  0  0
    7.8478  -12.2849   26.9668 C   0  0  0  0  0  0  0  0  0  0  0  0
    8.1371  -13.6277   26.8382 C   0  0  0  0  0  0  0  0  0  0  0  0
    9.4690  -17.4687   25.8009 C   0  0  0  0  0  0  0  0  0  0  0  0
    9.6703  -18.4542   25.0492 O   0  0  0  0  0  0  0  0  0  0  0  0
    9.9028  -17.6065   27.1115 O   0  0  0  0  0  0  0  0  0  0  0  0
  1  2  1  0
  3  2  1  0
  4  3  1  0
  4  5  1  0
  5  6  1  1
  5  1  1  0
  6  7  2  0
  9  8  1  0
 10  9  1  0
 10 11  1  6
 12 10  1  0
 13  6  1  0
 12 13  1  1
 14 12  1  0
 14 15  2  0
 16 14  1  0
 17 25  1  0
 17 16  1  0
 17 18  1  1
 19 20  2  0
 19 18  1  0
 21 20  1  0
 22 21  2  0
 23 22  1  0
 23 24  2  0
 24 19  1  0
 25 27  1  0
 26 25  2  0
M  END
$$$$
