PIF.pdb
     RDKit          3D

 27 28  0  0  1  0  0  0  0  0999 V2000
    7.2344  -18.7190   20.4164 N   0  0  0  0  0  0  0  0  0  0  0  0
    6.5158  -19.3411   19.3402 C   0  0  0  0  0  0  0  0  0  0  0  0
    7.1683  -18.7873   18.1027 C   0  0  0  0  0  0  0  0  0  0  0  0
    8.6103  -18.6229   18.4901 C   0  0  0  0  0  0  0  0  0  0  0  0
    8.6136  -18.5909   19.9818 C   0  0  1  0  0  0  0  0  0  0  0  0
    9.1531  -17.3270   20.5447 C   0  0  0  0  0  0  0  0  0  0  0  0
   10.3789  -16.9986   20.3931 O   0  0  0  0  0  0  0  0  0  0  0  0
    6.8931  -12.7968   19.5615 C   0  0  0  0  0  0  0  0  0  0  0  0
    7.9178  -13.8346   19.9570 C   0  0  0  0  0  0  0  0  0  0  0  0
    7.9634  -14.0954   21.4145 C   0  0  2  0  0  0  0  0  0  0  0  0
    8.3134  -12.7832   22.1348 C   0  0  0  0  0  0  0  0  0  0  0  0
    8.9583  -15.1731   21.8505 C   0  0  2  0  0  0  0  0  0  0  0  0
    8.3581  -16.4098   21.2787 N   0  0  0  0  0  0  0  0  0  0  0  0
    9.0822  -15.3176   23.3001 C   0  0  0  0  0  0  0  0  0  0  0  0
    9.9854  -14.6214   23.8880 O   0  0  0  0  0  0  0  0  0  0  0  0
    8.2678  -16.1711   24.0765 N   0  0  0  0  0  0  0  0  0  0  0  0
    8.4945  -16.2557   25.5131 C   0  0  1  0  0  0  0  0  0  0  0  0
    7.2608  -15.8187   26.2736 C   0  0  0  0  0  0  0  0  0  0  0  0
    7.1314  -14.3580   26.4059 C   0  0  0  0  0  0  0  0  0  0  0  0
    8.1509  -13.5814   26.9268 C   0  0  0  0  0  0  0  0  0  0  0  0
    8.0450  -12.2028   27.0544 C   0  0  0  0  0  0  0  0  0  0  0  0
    6.8855  -11.5697   26.6508 C   0  0  0  0  0  0  0  0  0  0  0  0
    5.8687  -12.3302   26.1332 C   0  0  0  0  0  0  0  0  0  0  0  0
    5.9852  -13.6995   26.0111 C   0  0  0  0  0  0  0  0  0  0  0  0
    8.9362  -17.6119   25.8811 C   0  0  0  0  0  0  0  0  0  0  0  0
    9.0232  -18.5675   25.0711 O   0  0  0  0  0  0  0  0  0  0  0  0
    9.2875  -17.8946   27.1931 O   0  0  0  0  0  0  0  0  0  0  0  0
  1  2  1  0
  3  2  1  0
  4  3  1  0
  4  5  1  0
  5  6  1  6
  5  1  1  0
  6  7  2  0
  9  8  1  0
 10  9  1  0
 10 11  1  1
 12 10  1  0
 13  6  1  0
 12 13  1  6
 14 12  1  0
 14 15  2  0
 16 14  1  0
 17 25  1  0
 17 16  1  0
 17 18  1  1
 19 20  2  0
 19 18  1  0
 21 20  1  0
 22 21  2  0
 23 22  1  0
 23 24  2  0
 24 19  1  0
 25 27  1  0
 26 25  2  0
M  END
$$$$
