PIF.pdb
     RDKit          3D

 27 28  0  0  1  0  0  0  0  0999 V2000
    8.5201  -18.5602   19.5272 N   0  0  0  0  0  0  0  0  0  0  0  0
    8.2746  -19.1626   18.2471 C   0  0  0  0  0  0  0  0  0  0  0  0
    9.0144  -18.2755   17.2830 C   0  0  0  0  0  0  0  0  0  0  0  0
   10.2216  -17.8220   18.0533 C   0  0  0  0  0  0  0  0  0  0  0  0
    9.8696  -18.0268   19.4886 C   0  0  1  0  0  0  0  0  0  0  0  0
    9.8873  -16.7742   20.2862 C   0  0  0  0  0  0  0  0  0  0  0  0
   10.9585  -16.0930   20.4352 O   0  0  0  0  0  0  0  0  0  0  0  0
    6.9107  -12.7102   19.4055 C   0  0  0  0  0  0  0  0  0  0  0  0
    8.0044  -13.6199   19.9154 C   0  0  0  0  0  0  0  0  0  0  0  0
    7.7489  -14.1472   21.2759 C   0  0  2  0  0  0  0  0  0  0  0  0
    7.5799  -12.9590   22.2365 C   0  0  0  0  0  0  0  0  0  0  0  0
    8.8353  -15.0721   21.8285 C   0  0  2  0  0  0  0  0  0  0  0  0
    8.7346  -16.2539   20.9284 N   0  0  0  0  0  0  0  0  0  0  0  0
    8.6126  -15.4929   23.2109 C   0  0  0  0  0  0  0  0  0  0  0  0
    7.5964  -16.2405   23.4442 O   0  0  0  0  0  0  0  0  0  0  0  0
    9.4491  -15.1256   24.2878 N   0  0  0  0  0  0  0  0  0  0  0  0
    9.1433  -15.6178   25.6245 C   0  0  1  0  0  0  0  0  0  0  0  0
    7.6735  -15.4341   25.9364 C   0  0  0  0  0  0  0  0  0  0  0  0
    7.3007  -14.0427   26.2411 C   0  0  0  0  0  0  0  0  0  0  0  0
    8.2439  -13.1013   26.6124 C   0  0  0  0  0  0  0  0  0  0  0  0
    7.9082  -11.7849   26.8993 C   0  0  0  0  0  0  0  0  0  0  0  0
    6.5883  -11.3860   26.8152 C   0  0  0  0  0  0  0  0  0  0  0  0
    5.6454  -12.3113   26.4482 C   0  0  0  0  0  0  0  0  0  0  0  0
    5.9907  -13.6168   26.1654 C   0  0  0  0  0  0  0  0  0  0  0  0
    9.5822  -17.0168   25.7660 C   0  0  0  0  0  0  0  0  0  0  0  0
    9.9873  -17.7269   24.8129 O   0  0  0  0  0  0  0  0  0  0  0  0
    9.5629  -17.6269   27.0119 O   0  0  0  0  0  0  0  0  0  0  0  0
  1  2  1  0
  3  2  1  0
  4  3  1  0
  4  5  1  0
  5  6  1  1
  5  1  1  0
  6  7  2  0
  9  8  1  0
 10  9  1  0
 10 11  1  1
 12 10  1  0
 13  6  1  0
 12 13  1  6
 14 12  1  0
 14 15  2  0
 16 14  1  0
 17 25  1  0
 17 16  1  0
 17 18  1  6
 19 20  2  0
 19 18  1  0
 21 20  1  0
 22 21  2  0
 23 22  1  0
 23 24  2  0
 24 19  1  0
 25 27  1  0
 26 25  2  0
M  END
$$$$
