PIF.pdb
     RDKit          3D

 27 28  0  0  1  0  0  0  0  0999 V2000
    7.3807  -18.7264   20.7812 N   0  0  0  0  0  0  0  0  0  0  0  0
    6.4705  -19.4994   19.9838 C   0  0  0  0  0  0  0  0  0  0  0  0
    6.7808  -19.0795   18.5727 C   0  0  0  0  0  0  0  0  0  0  0  0
    8.2604  -18.8205   18.5835 C   0  0  0  0  0  0  0  0  0  0  0  0
    8.6097  -18.6060   20.0181 C   0  0  1  0  0  0  0  0  0  0  0  0
    9.1865  -17.2653   20.2920 C   0  0  0  0  0  0  0  0  0  0  0  0
   10.3804  -16.9689   19.9450 O   0  0  0  0  0  0  0  0  0  0  0  0
    6.6627  -12.8455   18.9883 C   0  0  0  0  0  0  0  0  0  0  0  0
    7.7947  -13.7801   19.3475 C   0  0  0  0  0  0  0  0  0  0  0  0
    7.9924  -13.9360   20.8073 C   0  0  2  0  0  0  0  0  0  0  0  0
    8.3130  -12.5572   21.4068 C   0  0  0  0  0  0  0  0  0  0  0  0
    9.0972  -14.9141   21.2121 C   0  0  2  0  0  0  0  0  0  0  0  0
    8.4642  -16.2356   20.9477 N   0  0  0  0  0  0  0  0  0  0  0  0
    9.4795  -14.8308   22.6208 C   0  0  0  0  0  0  0  0  0  0  0  0
    9.1489  -13.7691   23.2607 O   0  0  0  0  0  0  0  0  0  0  0  0
   10.1825  -15.8467   23.3049 N   0  0  0  0  0  0  0  0  0  0  0  0
   10.5463  -15.6423   24.7008 C   0  0  1  0  0  0  0  0  0  0  0  0
    9.3096  -15.4332   25.5483 C   0  0  0  0  0  0  0  0  0  0  0  0
    9.6010  -15.1446   26.9623 C   0  0  0  0  0  0  0  0  0  0  0  0
    9.4523  -13.8751   27.4915 C   0  0  0  0  0  0  0  0  0  0  0  0
    9.7195  -13.5883   28.8236 C   0  0  0  0  0  0  0  0  0  0  0  0
   10.1504  -14.5972   29.6631 C   0  0  0  0  0  0  0  0  0  0  0  0
   10.3011  -15.8592   29.1486 C   0  0  0  0  0  0  0  0  0  0  0  0
   10.0325  -16.1325   27.8232 C   0  0  0  0  0  0  0  0  0  0  0  0
   11.3795  -16.7586   25.1798 C   0  0  0  0  0  0  0  0  0  0  0  0
   11.1869  -17.9615   24.8750 O   0  0  0  0  0  0  0  0  0  0  0  0
   12.4539  -16.5104   26.0216 O   0  0  0  0  0  0  0  0  0  0  0  0
  1  2  1  0
  3  2  1  0
  4  3  1  0
  4  5  1  0
  5  6  1  6
  5  1  1  0
  6  7  2  0
  9  8  1  0
 10  9  1  0
 10 11  1  6
 12 10  1  0
 13  6  1  0
 12 13  1  1
 14 12  1  0
 14 15  2  0
 16 14  1  0
 17 25  1  0
 17 16  1  0
 17 18  1  1
 19 20  2  0
 19 18  1  0
 21 20  1  0
 22 21  2  0
 23 22  1  0
 23 24  2  0
 24 19  1  0
 25 27  1  0
 26 25  2  0
M  END
$$$$
