PIF.pdb
     RDKit          3D

 27 28  0  0  1  0  0  0  0  0999 V2000
    9.4086  -18.5165   18.5910 N   0  0  0  0  0  0  0  0  0  0  0  0
    9.4997  -18.8321   17.1932 C   0  0  0  0  0  0  0  0  0  0  0  0
    8.7778  -17.6971   16.5191 C   0  0  0  0  0  0  0  0  0  0  0  0
    9.0795  -16.5055   17.3826 C   0  0  0  0  0  0  0  0  0  0  0  0
    9.4880  -17.0712   18.7014 C   0  0  1  0  0  0  0  0  0  0  0  0
    8.6095  -16.6510   19.8225 C   0  0  0  0  0  0  0  0  0  0  0  0
    8.3775  -15.4172   20.0623 O   0  0  0  0  0  0  0  0  0  0  0  0
    4.1487  -19.4082   20.6446 C   0  0  0  0  0  0  0  0  0  0  0  0
    5.0670  -18.2082   20.6648 C   0  0  0  0  0  0  0  0  0  0  0  0
    6.0044  -18.2000   21.8117 C   0  0  2  0  0  0  0  0  0  0  0  0
    5.1902  -18.0504   23.1070 C   0  0  0  0  0  0  0  0  0  0  0  0
    7.0682  -17.1009   21.7731 C   0  0  2  0  0  0  0  0  0  0  0  0
    7.9761  -17.5751   20.6925 N   0  0  0  0  0  0  0  0  0  0  0  0
    7.8240  -16.9597   23.0166 C   0  0  0  0  0  0  0  0  0  0  0  0
    8.7360  -17.8300   23.2555 O   0  0  0  0  0  0  0  0  0  0  0  0
    7.6064  -15.9267   23.9547 N   0  0  0  0  0  0  0  0  0  0  0  0
    8.4011  -15.8968   25.1754 C   0  0  1  0  0  0  0  0  0  0  0  0
    8.5220  -14.4812   25.6976 C   0  0  0  0  0  0  0  0  0  0  0  0
    9.2126  -14.3838   26.9942 C   0  0  0  0  0  0  0  0  0  0  0  0
    8.6368  -13.7477   28.0794 C   0  0  0  0  0  0  0  0  0  0  0  0
    9.2740  -13.6511   29.3093 C   0  0  0  0  0  0  0  0  0  0  0  0
   10.5290  -14.2054   29.4702 C   0  0  0  0  0  0  0  0  0  0  0  0
   11.1089  -14.8380   28.4009 C   0  0  0  0  0  0  0  0  0  0  0  0
   10.4661  -14.9280   27.1834 C   0  0  0  0  0  0  0  0  0  0  0  0
    7.8387  -16.8229   26.1733 C   0  0  0  0  0  0  0  0  0  0  0  0
    6.6103  -16.9525   26.3992 O   0  0  0  0  0  0  0  0  0  0  0  0
    8.6827  -17.6201   26.9327 O   0  0  0  0  0  0  0  0  0  0  0  0
  1  2  1  0
  3  2  1  0
  4  3  1  0
  4  5  1  0
  5  6  1  1
  5  1  1  0
  6  7  2  0
  9  8  1  0
 10  9  1  0
 10 11  1  1
 12 10  1  0
 13  6  1  0
 12 13  1  6
 14 12  1  0
 14 15  2  0
 16 14  1  0
 17 25  1  0
 17 16  1  0
 17 18  1  1
 19 20  2  0
 19 18  1  0
 21 20  1  0
 22 21  2  0
 23 22  1  0
 23 24  2  0
 24 19  1  0
 25 27  1  0
 26 25  2  0
M  END
$$$$
