PIF.pdb
     RDKit          3D

 27 28  0  0  1  0  0  0  0  0999 V2000
   10.0248  -18.3122   19.0986 N   0  0  0  0  0  0  0  0  0  0  0  0
   10.4188  -18.6499   17.7598 C   0  0  0  0  0  0  0  0  0  0  0  0
   11.2225  -17.4605   17.3093 C   0  0  0  0  0  0  0  0  0  0  0  0
   11.9155  -16.9916   18.5568 C   0  0  0  0  0  0  0  0  0  0  0  0
   11.1227  -17.5642   19.6836 C   0  0  1  0  0  0  0  0  0  0  0  0
   10.5439  -16.5337   20.5827 C   0  0  0  0  0  0  0  0  0  0  0  0
   11.2873  -15.7708   21.2891 O   0  0  0  0  0  0  0  0  0  0  0  0
    8.1686  -12.8469   20.0102 C   0  0  0  0  0  0  0  0  0  0  0  0
    7.4158  -14.1454   19.8349 C   0  0  0  0  0  0  0  0  0  0  0  0
    7.2910  -14.9302   21.0850 C   0  0  2  0  0  0  0  0  0  0  0  0
    6.5049  -14.0958   22.1092 C   0  0  0  0  0  0  0  0  0  0  0  0
    8.6166  -15.3589   21.7176 C   0  0  2  0  0  0  0  0  0  0  0  0
    9.1472  -16.3269   20.7184 N   0  0  0  0  0  0  0  0  0  0  0  0
    8.4713  -16.0251   23.0109 C   0  0  0  0  0  0  0  0  0  0  0  0
    8.3615  -17.3034   23.0078 O   0  0  0  0  0  0  0  0  0  0  0  0
    8.4484  -15.3430   24.2473 N   0  0  0  0  0  0  0  0  0  0  0  0
    8.3797  -16.1130   25.4821 C   0  0  1  0  0  0  0  0  0  0  0  0
    8.6672  -15.2297   26.6773 C   0  0  0  0  0  0  0  0  0  0  0  0
    7.9157  -13.9636   26.6741 C   0  0  0  0  0  0  0  0  0  0  0  0
    8.5480  -12.7424   26.5242 C   0  0  0  0  0  0  0  0  0  0  0  0
    7.8525  -11.5406   26.5155 C   0  0  0  0  0  0  0  0  0  0  0  0
    6.4788  -11.5490   26.6611 C   0  0  0  0  0  0  0  0  0  0  0  0
    5.8422  -12.7541   26.8105 C   0  0  0  0  0  0  0  0  0  0  0  0
    6.5437  -13.9421   26.8175 C   0  0  0  0  0  0  0  0  0  0  0  0
    7.0803  -16.7992   25.5841 C   0  0  0  0  0  0  0  0  0  0  0  0
    6.0834  -16.5276   24.8705 O   0  0  0  0  0  0  0  0  0  0  0  0
    6.9033  -17.8146   26.5128 O   0  0  0  0  0  0  0  0  0  0  0  0
  1  2  1  0
  3  2  1  0
  4  3  1  0
  4  5  1  0
  5  6  1  1
  5  1  1  0
  6  7  2  0
  9  8  1  0
 10  9  1  0
 10 11  1  1
 12 10  1  0
 13  6  1  0
 12 13  1  6
 14 12  1  0
 14 15  2  0
 16 14  1  0
 17 25  1  0
 17 16  1  0
 17 18  1  1
 19 20  2  0
 19 18  1  0
 21 20  1  0
 22 21  2  0
 23 22  1  0
 23 24  2  0
 24 19  1  0
 25 27  1  0
 26 25  2  0
M  END
$$$$
