PIF.pdb
     RDKit          3D

 27 28  0  0  1  0  0  0  0  0999 V2000
    8.3589  -15.2139   18.7121 N   0  0  0  0  0  0  0  0  0  0  0  0
    8.1433  -14.5631   17.4505 C   0  0  0  0  0  0  0  0  0  0  0  0
    7.3984  -13.3076   17.8146 C   0  0  0  0  0  0  0  0  0  0  0  0
    7.9638  -12.9195   19.1511 C   0  0  0  0  0  0  0  0  0  0  0  0
    8.5784  -14.1664   19.6930 C   0  0  1  0  0  0  0  0  0  0  0  0
    7.9787  -14.6114   20.9766 C   0  0  0  0  0  0  0  0  0  0  0  0
    7.9100  -13.8316   21.9869 O   0  0  0  0  0  0  0  0  0  0  0  0
    4.4557  -18.8327   20.8113 C   0  0  0  0  0  0  0  0  0  0  0  0
    5.0162  -17.5061   21.2691 C   0  0  0  0  0  0  0  0  0  0  0  0
    6.1926  -17.6366   22.1598 C   0  0  2  0  0  0  0  0  0  0  0  0
    5.7405  -18.2964   23.4726 C   0  0  0  0  0  0  0  0  0  0  0  0
    6.9042  -16.3235   22.4922 C   0  0  2  0  0  0  0  0  0  0  0  0
    7.4484  -15.9129   21.1685 N   0  0  0  0  0  0  0  0  0  0  0  0
    8.0025  -16.4664   23.4466 C   0  0  0  0  0  0  0  0  0  0  0  0
    9.1024  -16.9633   23.0113 O   0  0  0  0  0  0  0  0  0  0  0  0
    7.9167  -16.0883   24.8046 N   0  0  0  0  0  0  0  0  0  0  0  0
    9.1079  -16.1653   25.6398 C   0  0  1  0  0  0  0  0  0  0  0  0
    9.5069  -14.7887   26.1267 C   0  0  0  0  0  0  0  0  0  0  0  0
    8.3691  -13.9567   26.5522 C   0  0  0  0  0  0  0  0  0  0  0  0
    7.3281  -13.6532   25.6931 C   0  0  0  0  0  0  0  0  0  0  0  0
    6.2468  -12.8732   26.0808 C   0  0  0  0  0  0  0  0  0  0  0  0
    6.1949  -12.3748   27.3682 C   0  0  0  0  0  0  0  0  0  0  0  0
    7.2217  -12.6696   28.2277 C   0  0  0  0  0  0  0  0  0  0  0  0
    8.2911  -13.4459   27.8313 C   0  0  0  0  0  0  0  0  0  0  0  0
    8.8966  -17.1176   26.7437 C   0  0  0  0  0  0  0  0  0  0  0  0
    9.7455  -17.3588   27.6370 O   0  0  0  0  0  0  0  0  0  0  0  0
    7.6997  -17.8125   26.8403 O   0  0  0  0  0  0  0  0  0  0  0  0
  1  2  1  0
  3  2  1  0
  4  3  1  0
  4  5  1  0
  5  6  1  1
  5  1  1  0
  6  7  2  0
  9  8  1  0
 10  9  1  0
 10 11  1  1
 12 10  1  0
 13  6  1  0
 12 13  1  6
 14 12  1  0
 14 15  2  0
 16 14  1  0
 17 25  1  0
 17 16  1  0
 17 18  1  1
 19 20  2  0
 19 18  1  0
 21 20  1  0
 22 21  2  0
 23 22  1  0
 23 24  2  0
 24 19  1  0
 25 27  1  0
 26 25  2  0
M  END
$$$$
