PIF.pdb
     RDKit          3D

 27 28  0  0  1  0  0  0  0  0999 V2000
    8.9755  -14.5120   19.3363 N   0  0  0  0  0  0  0  0  0  0  0  0
    8.6833  -13.8598   18.0909 C   0  0  0  0  0  0  0  0  0  0  0  0
    7.3354  -13.2317   18.3199 C   0  0  0  0  0  0  0  0  0  0  0  0
    7.3545  -12.8396   19.7699 C   0  0  0  0  0  0  0  0  0  0  0  0
    8.4241  -13.6765   20.3875 C   0  0  1  0  0  0  0  0  0  0  0  0
    7.9278  -14.5690   21.4657 C   0  0  0  0  0  0  0  0  0  0  0  0
    7.1959  -14.1256   22.4150 O   0  0  0  0  0  0  0  0  0  0  0  0
    7.9207  -19.4962   19.8738 C   0  0  0  0  0  0  0  0  0  0  0  0
    7.1693  -18.5441   20.7752 C   0  0  0  0  0  0  0  0  0  0  0  0
    7.8893  -18.2249   22.0298 C   0  0  2  0  0  0  0  0  0  0  0  0
    7.4822  -19.2496   23.1010 C   0  0  0  0  0  0  0  0  0  0  0  0
    7.6431  -16.8184   22.5800 C   0  0  2  0  0  0  0  0  0  0  0  0
    8.2265  -15.9547   21.5167 N   0  0  0  0  0  0  0  0  0  0  0  0
    8.3165  -16.5493   23.8495 C   0  0  0  0  0  0  0  0  0  0  0  0
    9.5832  -16.3482   23.8151 O   0  0  0  0  0  0  0  0  0  0  0  0
    7.6526  -16.4974   25.0948 N   0  0  0  0  0  0  0  0  0  0  0  0
    8.4321  -16.2829   26.3068 C   0  0  1  0  0  0  0  0  0  0  0  0
    7.6702  -15.4121   27.2828 C   0  0  0  0  0  0  0  0  0  0  0  0
    7.4499  -14.0371   26.8047 C   0  0  0  0  0  0  0  0  0  0  0  0
    6.2283  -13.6292   26.2996 C   0  0  0  0  0  0  0  0  0  0  0  0
    6.0043  -12.3353   25.8484 C   0  0  0  0  0  0  0  0  0  0  0  0
    7.0293  -11.4105   25.8995 C   0  0  0  0  0  0  0  0  0  0  0  0
    8.2442  -11.8044   26.3982 C   0  0  0  0  0  0  0  0  0  0  0  0
    8.4552  -13.0931   26.8437 C   0  0  0  0  0  0  0  0  0  0  0  0
    8.8316  -17.5743   26.8920 C   0  0  0  0  0  0  0  0  0  0  0  0
    8.3362  -18.6798   26.5614 O   0  0  0  0  0  0  0  0  0  0  0  0
    9.8125  -17.6177   27.8721 O   0  0  0  0  0  0  0  0  0  0  0  0
  1  2  1  0
  3  2  1  0
  4  3  1  0
  4  5  1  0
  5  6  1  1
  5  1  1  0
  6  7  2  0
  9  8  1  0
 10  9  1  0
 10 11  1  1
 12 10  1  0
 13  6  1  0
 12 13  1  6
 14 12  1  0
 14 15  2  0
 16 14  1  0
 17 25  1  0
 17 16  1  0
 17 18  1  1
 19 20  2  0
 19 18  1  0
 21 20  1  0
 22 21  2  0
 23 22  1  0
 23 24  2  0
 24 19  1  0
 25 27  1  0
 26 25  2  0
M  END
$$$$
