YWF.pdb
     RDKit          3D

 38 41  0  0  1  0  0  0  0  0999 V2000
   15.3209  -19.5179   16.3742 O   0  0  0  0  0  0  0  0  0  0  0  0
   14.6369  -18.7750   17.3564 C   0  0  0  0  0  0  0  0  0  0  0  0
   14.1986  -19.4165   18.4954 C   0  0  0  0  0  0  0  0  0  0  0  0
   13.5210  -18.6779   19.4666 C   0  0  0  0  0  0  0  0  0  0  0  0
   13.2992  -17.3311   19.2801 C   0  0  0  0  0  0  0  0  0  0  0  0
   12.5796  -16.5844   20.3336 C   0  0  0  0  0  0  0  0  0  0  0  0
   11.1030  -16.9236   20.2897 C   0  0  2  0  0  0  0  0  0  0  0  0
   10.4675  -16.4208   19.1147 N   0  0  0  0  0  0  0  0  0  0  0  0
   10.4866  -16.4654   21.5577 C   0  0  0  0  0  0  0  0  0  0  0  0
   10.2800  -15.2257   21.7585 O   0  0  0  0  0  0  0  0  0  0  0  0
   13.7251  -16.6703   18.1565 C   0  0  0  0  0  0  0  0  0  0  0  0
   14.3993  -17.4430   17.2074 C   0  0  0  0  0  0  0  0  0  0  0  0
   10.0907  -17.3278   22.6110 N   0  0  0  0  0  0  0  0  0  0  0  0
    9.4836  -16.8186   23.8577 C   0  0  1  0  0  0  0  0  0  0  0  0
    8.0968  -17.3767   23.9839 C   0  0  0  0  0  0  0  0  0  0  0  0
    7.2296  -16.4885   24.7641 C   0  0  0  0  0  0  0  0  0  0  0  0
    6.0903  -16.8385   25.5005 C   0  0  0  0  0  0  0  0  0  0  0  0
    5.5518  -15.7434   26.0470 N   0  0  0  0  0  0  0  0  0  0  0  0
    6.2703  -14.6734   25.7161 C   0  0  0  0  0  0  0  0  0  0  0  0
    6.1115  -13.3250   26.0387 C   0  0  0  0  0  0  0  0  0  0  0  0
    7.0381  -12.4406   25.5342 C   0  0  0  0  0  0  0  0  0  0  0  0
    8.0991  -12.8386   24.7345 C   0  0  0  0  0  0  0  0  0  0  0  0
    8.2130  -14.1925   24.4422 C   0  0  0  0  0  0  0  0  0  0  0  0
    7.3121  -15.1035   24.9247 C   0  0  0  0  0  0  0  0  0  0  0  0
   10.4090  -17.1952   24.9342 C   0  0  0  0  0  0  0  0  0  0  0  0
   11.3148  -18.0621   24.6853 O   0  0  0  0  0  0  0  0  0  0  0  0
   10.3521  -16.6405   26.2313 N   0  0  0  0  0  0  0  0  0  0  0  0
   11.2169  -17.2382   27.2522 C   0  0  1  0  0  0  0  0  0  0  0  0
   11.1453  -16.3810   28.5154 C   0  0  0  0  0  0  0  0  0  0  0  0
   10.8463  -14.9930   28.1165 C   0  0  0  0  0  0  0  0  0  0  0  0
   11.8324  -14.2240   27.4935 C   0  0  0  0  0  0  0  0  0  0  0  0
   11.5484  -12.9454   27.0994 C   0  0  0  0  0  0  0  0  0  0  0  0
   10.3192  -12.3465   27.2807 C   0  0  0  0  0  0  0  0  0  0  0  0
    9.3487  -13.1001   27.8924 C   0  0  0  0  0  0  0  0  0  0  0  0
    9.6162  -14.3874   28.2951 C   0  0  0  0  0  0  0  0  0  0  0  0
   10.7375  -18.5864   27.5356 C   0  0  0  0  0  0  0  0  0  0  0  0
    9.5405  -19.0464   27.0327 O   0  0  0  0  0  0  0  0  0  0  0  0
   11.4091  -19.3637   28.2506 O   0  0  0  0  0  0  0  0  0  0  0  0
  2  1  1  0
  3  2  2  0
  4  3  1  0
  5  4  2  0
  5 11  1  0
  6  5  1  0
  7  8  1  6
  7  6  1  0
  9  7  1  0
 10  9  2  0
 11 12  2  0
 12  2  1  0
 13  9  1  0
 14 13  1  0
 14 25  1  0
 14 15  1  1
 16 15  1  0
 17 16  2  0
 18 17  1  0
 19 18  1  0
 19 24  2  0
 20 21  2  0
 20 19  1  0
 21 22  1  0
 22 23  2  0
 24 23  1  0
 24 16  1  0
 25 26  2  0
 27 25  1  0
 27 28  1  0
 28 29  1  1
 29 30  1  0
 30 35  2  0
 31 32  2  0
 31 30  1  0
 32 33  1  0
 33 34  2  0
 35 34  1  0
 36 37  1  0
 36 28  1  0
 38 36  2  0
M  END
$$$$
