YWF.pdb
     RDKit          3D

 38 41  0  0  1  0  0  0  0  0999 V2000
   15.0448  -22.0158   18.2512 O   0  0  0  0  0  0  0  0  0  0  0  0
   14.5645  -20.9235   19.0000 C   0  0  0  0  0  0  0  0  0  0  0  0
   13.2145  -20.6438   18.9841 C   0  0  0  0  0  0  0  0  0  0  0  0
   12.7416  -19.5609   19.7267 C   0  0  0  0  0  0  0  0  0  0  0  0
   13.6178  -18.7910   20.4599 C   0  0  0  0  0  0  0  0  0  0  0  0
   13.0764  -17.6544   21.2346 C   0  0  0  0  0  0  0  0  0  0  0  0
   11.6021  -17.4779   20.9305 C   0  0  2  0  0  0  0  0  0  0  0  0
   11.3821  -16.8414   19.6721 N   0  0  0  0  0  0  0  0  0  0  0  0
   10.9737  -16.7849   22.0806 C   0  0  0  0  0  0  0  0  0  0  0  0
   11.2844  -15.5806   22.3507 O   0  0  0  0  0  0  0  0  0  0  0  0
   14.9643  -19.0487   20.4922 C   0  0  0  0  0  0  0  0  0  0  0  0
   15.3996  -20.1404   19.7364 C   0  0  0  0  0  0  0  0  0  0  0  0
   10.0148  -17.3749   22.9421 N   0  0  0  0  0  0  0  0  0  0  0  0
    9.3254  -16.6034   23.9965 C   0  0  1  0  0  0  0  0  0  0  0  0
    7.8436  -16.7504   23.8132 C   0  0  0  0  0  0  0  0  0  0  0  0
    7.3692  -15.9942   22.6501 C   0  0  0  0  0  0  0  0  0  0  0  0
    6.7536  -16.4986   21.4971 C   0  0  0  0  0  0  0  0  0  0  0  0
    6.4967  -15.4982   20.6479 N   0  0  0  0  0  0  0  0  0  0  0  0
    6.9078  -14.3455   21.1701 C   0  0  0  0  0  0  0  0  0  0  0  0
    6.8597  -13.0427   20.6722 C   0  0  0  0  0  0  0  0  0  0  0  0
    7.3764  -12.0431   21.4653 C   0  0  0  0  0  0  0  0  0  0  0  0
    7.9301  -12.2847   22.7137 C   0  0  0  0  0  0  0  0  0  0  0  0
    7.9543  -13.5993   23.1642 C   0  0  0  0  0  0  0  0  0  0  0  0
    7.4505  -14.6214   22.4055 C   0  0  0  0  0  0  0  0  0  0  0  0
    9.8508  -17.1120   25.2702 C   0  0  0  0  0  0  0  0  0  0  0  0
   10.8527  -17.9053   25.2443 O   0  0  0  0  0  0  0  0  0  0  0  0
    9.3073  -16.7614   26.5253 N   0  0  0  0  0  0  0  0  0  0  0  0
   10.0204  -17.2296   27.7167 C   0  0  1  0  0  0  0  0  0  0  0  0
    9.6628  -16.3175   28.8896 C   0  0  0  0  0  0  0  0  0  0  0  0
    9.4493  -14.9547   28.3678 C   0  0  0  0  0  0  0  0  0  0  0  0
    8.1496  -14.4992   28.1327 C   0  0  0  0  0  0  0  0  0  0  0  0
    7.9488  -13.2265   27.6735 C   0  0  0  0  0  0  0  0  0  0  0  0
    8.9718  -12.3368   27.4195 C   0  0  0  0  0  0  0  0  0  0  0  0
   10.2496  -12.7821   27.6499 C   0  0  0  0  0  0  0  0  0  0  0  0
   10.4704  -14.0583   28.1117 C   0  0  0  0  0  0  0  0  0  0  0  0
    9.6009  -18.5974   28.0016 C   0  0  0  0  0  0  0  0  0  0  0  0
    8.6508  -19.2344   27.2344 O   0  0  0  0  0  0  0  0  0  0  0  0
   10.0988  -19.2294   28.9602 O   0  0  0  0  0  0  0  0  0  0  0  0
  2  1  1  0
  3  2  2  0
  4  3  1  0
  5  4  2  0
  5 11  1  0
  6  5  1  0
  7  8  1  6
  7  6  1  0
  9  7  1  0
 10  9  2  0
 11 12  2  0
 12  2  1  0
 13  9  1  0
 14 13  1  0
 14 25  1  0
 14 15  1  1
 16 15  1  0
 17 16  2  0
 18 17  1  0
 19 18  1  0
 19 24  2  0
 20 21  2  0
 20 19  1  0
 21 22  1  0
 22 23  2  0
 24 23  1  0
 24 16  1  0
 25 26  2  0
 27 25  1  0
 27 28  1  0
 28 29  1  1
 29 30  1  0
 30 35  2  0
 31 32  2  0
 31 30  1  0
 32 33  1  0
 33 34  2  0
 35 34  1  0
 36 37  1  0
 36 28  1  0
 38 36  2  0
M  END
$$$$
