YWF.pdb
     RDKit          3D

 38 41  0  0  1  0  0  0  0  0999 V2000
   13.8967  -17.4804   14.4631 O   0  0  0  0  0  0  0  0  0  0  0  0
   13.3498  -17.0332   15.6818 C   0  0  0  0  0  0  0  0  0  0  0  0
   12.0494  -16.5755   15.7034 C   0  0  0  0  0  0  0  0  0  0  0  0
   11.5105  -16.1329   16.9122 C   0  0  0  0  0  0  0  0  0  0  0  0
   12.2738  -16.1573   18.0588 C   0  0  0  0  0  0  0  0  0  0  0  0
   11.6650  -15.6820   19.3192 C   0  0  0  0  0  0  0  0  0  0  0  0
   11.5909  -16.8197   20.3179 C   0  0  2  0  0  0  0  0  0  0  0  0
   10.9745  -17.9833   19.7670 N   0  0  0  0  0  0  0  0  0  0  0  0
   10.9391  -16.3113   21.5486 C   0  0  0  0  0  0  0  0  0  0  0  0
   11.3584  -15.2446   22.1019 O   0  0  0  0  0  0  0  0  0  0  0  0
   13.5690  -16.6080   18.0635 C   0  0  0  0  0  0  0  0  0  0  0  0
   14.0732  -17.0425   16.8350 C   0  0  0  0  0  0  0  0  0  0  0  0
    9.8413  -16.9393   22.1890 N   0  0  0  0  0  0  0  0  0  0  0  0
    9.2547  -16.4138   23.4388 C   0  0  1  0  0  0  0  0  0  0  0  0
    7.7593  -16.4769   23.3355 C   0  0  0  0  0  0  0  0  0  0  0  0
    7.1143  -15.8030   24.4667 C   0  0  0  0  0  0  0  0  0  0  0  0
    6.4558  -16.3968   25.5514 C   0  0  0  0  0  0  0  0  0  0  0  0
    5.9710  -15.4483   26.3596 N   0  0  0  0  0  0  0  0  0  0  0  0
    6.2693  -14.2457   25.8745 C   0  0  0  0  0  0  0  0  0  0  0  0
    5.9852  -12.9660   26.3533 C   0  0  0  0  0  0  0  0  0  0  0  0
    6.4381  -11.8983   25.6117 C   0  0  0  0  0  0  0  0  0  0  0  0
    7.1510  -12.0512   24.4318 C   0  0  0  0  0  0  0  0  0  0  0  0
    7.4080  -13.3462   23.9977 C   0  0  0  0  0  0  0  0  0  0  0  0
    6.9747  -14.4342   24.7067 C   0  0  0  0  0  0  0  0  0  0  0  0
    9.8405  -17.2147   24.5214 C   0  0  0  0  0  0  0  0  0  0  0  0
   10.4696  -18.2852   24.2175 O   0  0  0  0  0  0  0  0  0  0  0  0
    9.7493  -16.8563   25.8841 N   0  0  0  0  0  0  0  0  0  0  0  0
   10.3835  -17.7523   26.8547 C   0  0  1  0  0  0  0  0  0  0  0  0
   10.3717  -17.0751   28.2246 C   0  0  0  0  0  0  0  0  0  0  0  0
   10.6446  -15.6385   28.0331 C   0  0  0  0  0  0  0  0  0  0  0  0
   11.8343  -15.2354   27.4214 C   0  0  0  0  0  0  0  0  0  0  0  0
   12.0769  -13.9045   27.2195 C   0  0  0  0  0  0  0  0  0  0  0  0
   11.2016  -12.9047   27.5894 C   0  0  0  0  0  0  0  0  0  0  0  0
   10.0320  -13.2983   28.1904 C   0  0  0  0  0  0  0  0  0  0  0  0
    9.7711  -14.6319   28.4013 C   0  0  0  0  0  0  0  0  0  0  0  0
    9.6222  -18.9956   26.9055 C   0  0  0  0  0  0  0  0  0  0  0  0
   10.0634  -20.0819   27.6284 O   0  0  0  0  0  0  0  0  0  0  0  0
    8.5402  -19.1054   26.2861 O   0  0  0  0  0  0  0  0  0  0  0  0
  2  1  1  0
  3  2  2  0
  4  3  1  0
  5  4  2  0
  5 11  1  0
  6  5  1  0
  7  8  1  6
  7  6  1  0
  9  7  1  0
 10  9  2  0
 11 12  2  0
 12  2  1  0
 13  9  1  0
 14 13  1  0
 14 25  1  0
 14 15  1  6
 16 15  1  0
 17 16  2  0
 18 17  1  0
 19 18  1  0
 19 24  2  0
 20 21  2  0
 20 19  1  0
 21 22  1  0
 22 23  2  0
 24 23  1  0
 24 16  1  0
 25 26  2  0
 27 25  1  0
 27 28  1  0
 28 29  1  1
 29 30  1  0
 30 35  2  0
 31 32  2  0
 31 30  1  0
 32 33  1  0
 33 34  2  0
 35 34  1  0
 36 37  1  0
 36 28  1  0
 38 36  2  0
M  END
$$$$
