YWF.pdb
     RDKit          3D

 38 41  0  0  1  0  0  0  0  0999 V2000
   12.6752  -13.5416   18.9062 O   0  0  0  0  0  0  0  0  0  0  0  0
   11.3316  -13.9414   19.0448 C   0  0  0  0  0  0  0  0  0  0  0  0
   10.3370  -13.1294   18.5425 C   0  0  0  0  0  0  0  0  0  0  0  0
    9.0067  -13.5280   18.6816 C   0  0  0  0  0  0  0  0  0  0  0  0
    8.7037  -14.7149   19.3118 C   0  0  0  0  0  0  0  0  0  0  0  0
    7.2826  -15.1021   19.4367 C   0  0  0  0  0  0  0  0  0  0  0  0
    7.1732  -16.4520   20.1172 C   0  0  2  0  0  0  0  0  0  0  0  0
    6.0100  -17.1710   19.7081 N   0  0  0  0  0  0  0  0  0  0  0  0
    7.2734  -16.2399   21.5811 C   0  0  0  0  0  0  0  0  0  0  0  0
    6.3306  -15.6620   22.2109 O   0  0  0  0  0  0  0  0  0  0  0  0
    9.6745  -15.5399   19.8196 C   0  0  0  0  0  0  0  0  0  0  0  0
   10.9935  -15.1071   19.6613 C   0  0  0  0  0  0  0  0  0  0  0  0
    8.3777  -16.6437   22.3731 N   0  0  0  0  0  0  0  0  0  0  0  0
    8.5330  -16.2198   23.7796 C   0  0  1  0  0  0  0  0  0  0  0  0
    7.4500  -16.8569   24.5995 C   0  0  0  0  0  0  0  0  0  0  0  0
    6.6397  -15.8509   25.2930 C   0  0  0  0  0  0  0  0  0  0  0  0
    5.4651  -16.0592   26.0276 C   0  0  0  0  0  0  0  0  0  0  0  0
    5.0019  -14.8893   26.4801 N   0  0  0  0  0  0  0  0  0  0  0  0
    5.8047  -13.9034   26.0876 C   0  0  0  0  0  0  0  0  0  0  0  0
    5.7430  -12.5265   26.3066 C   0  0  0  0  0  0  0  0  0  0  0  0
    6.7421  -11.7537   25.7592 C   0  0  0  0  0  0  0  0  0  0  0  0
    7.7830  -12.2880   25.0146 C   0  0  0  0  0  0  0  0  0  0  0  0
    7.7991  -13.6648   24.8251 C   0  0  0  0  0  0  0  0  0  0  0  0
    6.8240  -14.4677   25.3531 C   0  0  0  0  0  0  0  0  0  0  0  0
    9.9028  -16.5899   24.1583 C   0  0  0  0  0  0  0  0  0  0  0  0
   10.4278  -17.6228   23.6183 O   0  0  0  0  0  0  0  0  0  0  0  0
   10.6731  -15.8555   25.0860 N   0  0  0  0  0  0  0  0  0  0  0  0
   12.0133  -16.3630   25.3922 C   0  0  1  0  0  0  0  0  0  0  0  0
   12.6195  -15.5032   26.5006 C   0  0  0  0  0  0  0  0  0  0  0  0
   11.6839  -15.4905   27.6406 C   0  0  0  0  0  0  0  0  0  0  0  0
   10.6511  -14.5503   27.6781 C   0  0  0  0  0  0  0  0  0  0  0  0
    9.7669  -14.5543   28.7218 C   0  0  0  0  0  0  0  0  0  0  0  0
    9.8275  -15.4491   29.7696 C   0  0  0  0  0  0  0  0  0  0  0  0
   10.8413  -16.3739   29.7348 C   0  0  0  0  0  0  0  0  0  0  0  0
   11.7392  -16.3851   28.6935 C   0  0  0  0  0  0  0  0  0  0  0  0
   11.8948  -17.7459   25.8410 C   0  0  0  0  0  0  0  0  0  0  0  0
   13.0003  -18.5556   25.9804 O   0  0  0  0  0  0  0  0  0  0  0  0
   10.7744  -18.2338   26.1112 O   0  0  0  0  0  0  0  0  0  0  0  0
  2  1  1  0
  3  2  2  0
  4  3  1  0
  5  4  2  0
  5 11  1  0
  6  5  1  0
  7  8  1  1
  7  6  1  0
  9  7  1  0
 10  9  2  0
 11 12  2  0
 12  2  1  0
 13  9  1  0
 14 13  1  0
 14 25  1  0
 14 15  1  1
 16 15  1  0
 17 16  2  0
 18 17  1  0
 19 18  1  0
 19 24  2  0
 20 21  2  0
 20 19  1  0
 21 22  1  0
 22 23  2  0
 24 23  1  0
 24 16  1  0
 25 26  2  0
 27 25  1  0
 27 28  1  0
 28 29  1  1
 29 30  1  0
 30 35  2  0
 31 32  2  0
 31 30  1  0
 32 33  1  0
 33 34  2  0
 35 34  1  0
 36 37  1  0
 36 28  1  0
 38 36  2  0
M  END
$$$$
