YWF.pdb
     RDKit          3D

 38 41  0  0  1  0  0  0  0  0999 V2000
    7.1713  -13.8226   14.5905 O   0  0  0  0  0  0  0  0  0  0  0  0
    7.7770  -13.8640   15.8617 C   0  0  0  0  0  0  0  0  0  0  0  0
    6.9834  -13.7597   16.9843 C   0  0  0  0  0  0  0  0  0  0  0  0
    7.5864  -13.8008   18.2423 C   0  0  0  0  0  0  0  0  0  0  0  0
    8.9524  -13.9436   18.3491 C   0  0  0  0  0  0  0  0  0  0  0  0
    9.5518  -13.9849   19.6997 C   0  0  0  0  0  0  0  0  0  0  0  0
   10.0876  -15.3739   19.9844 C   0  0  2  0  0  0  0  0  0  0  0  0
    9.2960  -16.3938   19.3758 N   0  0  0  0  0  0  0  0  0  0  0  0
   10.2404  -15.5173   21.4520 C   0  0  0  0  0  0  0  0  0  0  0  0
   10.9682  -14.7013   22.1033 O   0  0  0  0  0  0  0  0  0  0  0  0
    9.7632  -14.0495   17.2481 C   0  0  0  0  0  0  0  0  0  0  0  0
    9.1232  -14.0040   16.0068 C   0  0  0  0  0  0  0  0  0  0  0  0
    9.6180  -16.5297   22.2249 N   0  0  0  0  0  0  0  0  0  0  0  0
    9.1668  -16.2943   23.6118 C   0  0  1  0  0  0  0  0  0  0  0  0
    7.6798  -16.4831   23.6755 C   0  0  0  0  0  0  0  0  0  0  0  0
    7.0779  -15.6535   24.7239 C   0  0  0  0  0  0  0  0  0  0  0  0
    6.3547  -16.0845   25.8437 C   0  0  0  0  0  0  0  0  0  0  0  0
    5.9408  -15.0265   26.5487 N   0  0  0  0  0  0  0  0  0  0  0  0
    6.3484  -13.9045   25.9608 C   0  0  0  0  0  0  0  0  0  0  0  0
    6.1678  -12.5659   26.3117 C   0  0  0  0  0  0  0  0  0  0  0  0
    6.7217  -11.6150   25.4846 C   0  0  0  0  0  0  0  0  0  0  0  0
    7.4365  -11.9382   24.3408 C   0  0  0  0  0  0  0  0  0  0  0  0
    7.5881  -13.2855   24.0352 C   0  0  0  0  0  0  0  0  0  0  0  0
    7.0525  -14.2612   24.8322 C   0  0  0  0  0  0  0  0  0  0  0  0
    9.9498  -17.2142   24.4470 C   0  0  0  0  0  0  0  0  0  0  0  0
   10.2039  -18.3828   23.9956 O   0  0  0  0  0  0  0  0  0  0  0  0
   10.4431  -16.8683   25.7239 N   0  0  0  0  0  0  0  0  0  0  0  0
   11.3725  -17.8071   26.3580 C   0  0  1  0  0  0  0  0  0  0  0  0
   12.2839  -17.0272   27.3049 C   0  0  0  0  0  0  0  0  0  0  0  0
   11.4917  -15.9502   27.9273 C   0  0  0  0  0  0  0  0  0  0  0  0
   11.3313  -14.7339   27.2589 C   0  0  0  0  0  0  0  0  0  0  0  0
   10.5752  -13.7436   27.8231 C   0  0  0  0  0  0  0  0  0  0  0  0
    9.9421  -13.8678   29.0422 C   0  0  0  0  0  0  0  0  0  0  0  0
   10.0980  -15.0620   29.7008 C   0  0  0  0  0  0  0  0  0  0  0  0
   10.8545  -16.0689   29.1487 C   0  0  0  0  0  0  0  0  0  0  0  0
   10.5994  -18.7917   27.1069 C   0  0  0  0  0  0  0  0  0  0  0  0
   11.2015  -19.8740   27.7096 O   0  0  0  0  0  0  0  0  0  0  0  0
    9.3583  -18.6751   27.2191 O   0  0  0  0  0  0  0  0  0  0  0  0
  2  1  1  0
  3  2  2  0
  4  3  1  0
  5  4  2  0
  5 11  1  0
  6  5  1  0
  7  8  1  1
  7  6  1  0
  9  7  1  0
 10  9  2  0
 11 12  2  0
 12  2  1  0
 13  9  1  0
 14 13  1  0
 14 25  1  0
 14 15  1  6
 16 15  1  0
 17 16  2  0
 18 17  1  0
 19 18  1  0
 19 24  2  0
 20 21  2  0
 20 19  1  0
 21 22  1  0
 22 23  2  0
 24 23  1  0
 24 16  1  0
 25 26  2  0
 27 25  1  0
 27 28  1  0
 28 29  1  1
 29 30  1  0
 30 35  2  0
 31 32  2  0
 31 30  1  0
 32 33  1  0
 33 34  2  0
 35 34  1  0
 36 37  1  0
 36 28  1  0
 38 36  2  0
M  END
$$$$
