YWF.pdb
     RDKit          3D

 38 41  0  0  1  0  0  0  0  0999 V2000
    9.5271  -14.3011   15.2427 O   0  0  0  0  0  0  0  0  0  0  0  0
    9.0277  -14.4164   16.5549 C   0  0  0  0  0  0  0  0  0  0  0  0
    7.8489  -13.7796   16.8802 C   0  0  0  0  0  0  0  0  0  0  0  0
    7.3568  -13.8954   18.1810 C   0  0  0  0  0  0  0  0  0  0  0  0
    8.0453  -14.6361   19.1164 C   0  0  0  0  0  0  0  0  0  0  0  0
    7.4892  -14.7358   20.4825 C   0  0  0  0  0  0  0  0  0  0  0  0
    6.8141  -16.0801   20.6682 C   0  0  2  0  0  0  0  0  0  0  0  0
    5.5311  -16.1313   20.0448 N   0  0  0  0  0  0  0  0  0  0  0  0
    6.7989  -16.3922   22.1174 C   0  0  0  0  0  0  0  0  0  0  0  0
    5.8835  -15.9201   22.8650 O   0  0  0  0  0  0  0  0  0  0  0  0
    9.2193  -15.2790   18.8178 C   0  0  0  0  0  0  0  0  0  0  0  0
    9.6799  -15.1396   17.5060 C   0  0  0  0  0  0  0  0  0  0  0  0
    7.7585  -17.2070   22.7693 N   0  0  0  0  0  0  0  0  0  0  0  0
    7.7658  -17.3938   24.2346 C   0  0  1  0  0  0  0  0  0  0  0  0
    7.9130  -18.8563   24.5353 C   0  0  0  0  0  0  0  0  0  0  0  0
    7.9908  -19.1022   25.9787 C   0  0  0  0  0  0  0  0  0  0  0  0
    6.9316  -19.1543   26.8941 C   0  0  0  0  0  0  0  0  0  0  0  0
    7.4084  -19.3683   28.1249 N   0  0  0  0  0  0  0  0  0  0  0  0
    8.7351  -19.4630   28.0851 C   0  0  0  0  0  0  0  0  0  0  0  0
    9.6710  -19.6802   29.0972 C   0  0  0  0  0  0  0  0  0  0  0  0
   10.9976  -19.7280   28.7323 C   0  0  0  0  0  0  0  0  0  0  0  0
   11.4226  -19.5708   27.4216 C   0  0  0  0  0  0  0  0  0  0  0  0
   10.4514  -19.3568   26.4507 C   0  0  0  0  0  0  0  0  0  0  0  0
    9.1220  -19.3026   26.7731 C   0  0  0  0  0  0  0  0  0  0  0  0
    8.8487  -16.5400   24.7397 C   0  0  0  0  0  0  0  0  0  0  0  0
   10.0322  -16.7273   24.2945 O   0  0  0  0  0  0  0  0  0  0  0  0
    8.6456  -15.5153   25.6896 N   0  0  0  0  0  0  0  0  0  0  0  0
    9.8190  -14.7357   26.0928 C   0  0  1  0  0  0  0  0  0  0  0  0
    9.4535  -13.2521   26.0621 C   0  0  0  0  0  0  0  0  0  0  0  0
    8.1987  -13.0689   26.8151 C   0  0  0  0  0  0  0  0  0  0  0  0
    8.2386  -12.5463   28.1102 C   0  0  0  0  0  0  0  0  0  0  0  0
    7.0736  -12.3515   28.8000 C   0  0  0  0  0  0  0  0  0  0  0  0
    5.8264  -12.6443   28.2890 C   0  0  0  0  0  0  0  0  0  0  0  0
    5.7847  -13.1577   27.0167 C   0  0  0  0  0  0  0  0  0  0  0  0
    6.9457  -13.3602   26.3083 C   0  0  0  0  0  0  0  0  0  0  0  0
   10.1955  -15.1295   27.4460 C   0  0  0  0  0  0  0  0  0  0  0  0
   11.3753  -14.7069   28.0176 O   0  0  0  0  0  0  0  0  0  0  0  0
    9.4483  -15.8689   28.1251 O   0  0  0  0  0  0  0  0  0  0  0  0
  2  1  1  0
  3  2  2  0
  4  3  1  0
  5  4  2  0
  5 11  1  0
  6  5  1  0
  7  8  1  1
  7  6  1  0
  9  7  1  0
 10  9  2  0
 11 12  2  0
 12  2  1  0
 13  9  1  0
 14 13  1  0
 14 25  1  0
 14 15  1  6
 16 15  1  0
 17 16  2  0
 18 17  1  0
 19 18  1  0
 19 24  2  0
 20 21  2  0
 20 19  1  0
 21 22  1  0
 22 23  2  0
 24 23  1  0
 24 16  1  0
 25 26  2  0
 27 25  1  0
 27 28  1  0
 28 29  1  1
 29 30  1  0
 30 35  2  0
 31 32  2  0
 31 30  1  0
 32 33  1  0
 33 34  2  0
 35 34  1  0
 36 37  1  0
 36 28  1  0
 38 36  2  0
M  END
$$$$
