YWF.pdb
     RDKit          3D

 38 41  0  0  1  0  0  0  0  0999 V2000
    8.0602  -14.1352   14.6973 O   0  0  0  0  0  0  0  0  0  0  0  0
    8.1246  -14.1579   16.1044 C   0  0  0  0  0  0  0  0  0  0  0  0
    8.8262  -15.1693   16.7255 C   0  0  0  0  0  0  0  0  0  0  0  0
    8.8880  -15.1892   18.1196 C   0  0  0  0  0  0  0  0  0  0  0  0
    8.2551  -14.2098   18.8531 C   0  0  0  0  0  0  0  0  0  0  0  0
    8.3465  -14.2656   20.3275 C   0  0  0  0  0  0  0  0  0  0  0  0
    9.2027  -15.4438   20.7473 C   0  0  2  0  0  0  0  0  0  0  0  0
    8.6752  -16.6871   20.2853 N   0  0  0  0  0  0  0  0  0  0  0  0
    9.3962  -15.3733   22.2154 C   0  0  0  0  0  0  0  0  0  0  0  0
    9.7573  -14.2825   22.7626 O   0  0  0  0  0  0  0  0  0  0  0  0
    7.5515  -13.1935   18.2591 C   0  0  0  0  0  0  0  0  0  0  0  0
    7.5122  -13.2075   16.8625 C   0  0  0  0  0  0  0  0  0  0  0  0
    9.2048  -16.4647   23.0998 N   0  0  0  0  0  0  0  0  0  0  0  0
    9.2722  -16.3085   24.5672 C   0  0  1  0  0  0  0  0  0  0  0  0
    8.0266  -16.8850   25.1730 C   0  0  0  0  0  0  0  0  0  0  0  0
    6.9492  -15.8924   25.2316 C   0  0  0  0  0  0  0  0  0  0  0  0
    5.5927  -16.0866   24.9401 C   0  0  0  0  0  0  0  0  0  0  0  0
    4.9313  -14.9328   25.0786 N   0  0  0  0  0  0  0  0  0  0  0  0
    5.7733  -13.9711   25.4484 C   0  0  0  0  0  0  0  0  0  0  0  0
    5.5618  -12.6174   25.7140 C   0  0  0  0  0  0  0  0  0  0  0  0
    6.6554  -11.8669   26.0824 C   0  0  0  0  0  0  0  0  0  0  0  0
    7.9303  -12.4013   26.1952 C   0  0  0  0  0  0  0  0  0  0  0  0
    8.0882  -13.7544   25.9199 C   0  0  0  0  0  0  0  0  0  0  0  0
    7.0258  -14.5347   25.5505 C   0  0  0  0  0  0  0  0  0  0  0  0
   10.5246  -16.9552   24.9795 C   0  0  0  0  0  0  0  0  0  0  0  0
   11.2308  -17.5416   24.0898 O   0  0  0  0  0  0  0  0  0  0  0  0
   10.9921  -16.9551   26.3117 N   0  0  0  0  0  0  0  0  0  0  0  0
   12.2157  -17.7117   26.5907 C   0  0  1  0  0  0  0  0  0  0  0  0
   12.7149  -17.3356   27.9853 C   0  0  0  0  0  0  0  0  0  0  0  0
   11.8343  -16.2822   28.5236 C   0  0  0  0  0  0  0  0  0  0  0  0
   11.8024  -15.0268   27.9111 C   0  0  0  0  0  0  0  0  0  0  0  0
   10.9668  -14.0572   28.3934 C   0  0  0  0  0  0  0  0  0  0  0  0
   10.1297  -14.2399   29.4743 C   0  0  0  0  0  0  0  0  0  0  0  0
   10.1592  -15.4725   30.0775 C   0  0  0  0  0  0  0  0  0  0  0  0
   10.9928  -16.4594   29.6062 C   0  0  0  0  0  0  0  0  0  0  0  0
   11.9031  -19.1357   26.5392 C   0  0  0  0  0  0  0  0  0  0  0  0
   12.8867  -20.0939   26.6471 O   0  0  0  0  0  0  0  0  0  0  0  0
   10.7221  -19.5234   26.3931 O   0  0  0  0  0  0  0  0  0  0  0  0
  2  1  1  0
  3  2  2  0
  4  3  1  0
  5  4  2  0
  5 11  1  0
  6  5  1  0
  7  8  1  1
  7  6  1  0
  9  7  1  0
 10  9  2  0
 11 12  2  0
 12  2  1  0
 13  9  1  0
 14 13  1  0
 14 25  1  0
 14 15  1  1
 16 15  1  0
 17 16  2  0
 18 17  1  0
 19 18  1  0
 19 24  2  0
 20 21  2  0
 20 19  1  0
 21 22  1  0
 22 23  2  0
 24 23  1  0
 24 16  1  0
 25 26  2  0
 27 25  1  0
 27 28  1  0
 28 29  1  1
 29 30  1  0
 30 35  2  0
 31 32  2  0
 31 30  1  0
 32 33  1  0
 33 34  2  0
 35 34  1  0
 36 37  1  0
 36 28  1  0
 38 36  2  0
M  END
$$$$
