YWF.pdb
     RDKit          3D

 38 41  0  0  1  0  0  0  0  0999 V2000
   11.0002  -22.6331   14.5030 O   0  0  0  0  0  0  0  0  0  0  0  0
   11.1052  -21.8659   15.6798 C   0  0  0  0  0  0  0  0  0  0  0  0
   12.1279  -20.9478   15.7904 C   0  0  0  0  0  0  0  0  0  0  0  0
   12.2296  -20.1893   16.9575 C   0  0  0  0  0  0  0  0  0  0  0  0
   11.3179  -20.3629   17.9756 C   0  0  0  0  0  0  0  0  0  0  0  0
   11.4591  -19.5383   19.1944 C   0  0  0  0  0  0  0  0  0  0  0  0
   10.4410  -18.4156   19.1787 C   0  0  2  0  0  0  0  0  0  0  0  0
   10.6003  -17.5571   18.0496 N   0  0  0  0  0  0  0  0  0  0  0  0
   10.5028  -17.7188   20.4858 C   0  0  0  0  0  0  0  0  0  0  0  0
   11.4141  -16.8595   20.7115 O   0  0  0  0  0  0  0  0  0  0  0  0
   10.2921  -21.2690   17.8897 C   0  0  0  0  0  0  0  0  0  0  0  0
   10.2233  -22.0094   16.7067 C   0  0  0  0  0  0  0  0  0  0  0  0
    9.5939  -17.9376   21.5516 N   0  0  0  0  0  0  0  0  0  0  0  0
    9.6914  -17.2051   22.8307 C   0  0  1  0  0  0  0  0  0  0  0  0
    8.3145  -16.7867   23.2550 C   0  0  0  0  0  0  0  0  0  0  0  0
    7.6190  -16.0657   22.1844 C   0  0  0  0  0  0  0  0  0  0  0  0
    6.5810  -16.5387   21.3710 C   0  0  0  0  0  0  0  0  0  0  0  0
    6.2325  -15.5958   20.4894 N   0  0  0  0  0  0  0  0  0  0  0  0
    6.9831  -14.5115   20.6674 C   0  0  0  0  0  0  0  0  0  0  0  0
    6.9960  -13.2843   20.0029 C   0  0  0  0  0  0  0  0  0  0  0  0
    7.9079  -12.3446   20.4279 C   0  0  0  0  0  0  0  0  0  0  0  0
    8.7928  -12.5740   21.4708 C   0  0  0  0  0  0  0  0  0  0  0  0
    8.7400  -13.8122   22.1000 C   0  0  0  0  0  0  0  0  0  0  0  0
    7.8477  -14.7732   21.7070 C   0  0  0  0  0  0  0  0  0  0  0  0
   10.3822  -18.1114   23.7571 C   0  0  0  0  0  0  0  0  0  0  0  0
   10.2987  -19.3709   23.5554 O   0  0  0  0  0  0  0  0  0  0  0  0
   11.1419  -17.6591   24.8579 N   0  0  0  0  0  0  0  0  0  0  0  0
   11.7172  -18.6801   25.7376 C   0  0  1  0  0  0  0  0  0  0  0  0
   13.1991  -18.3684   25.9436 C   0  0  0  0  0  0  0  0  0  0  0  0
   13.9055  -18.6185   24.6734 C   0  0  0  0  0  0  0  0  0  0  0  0
   14.5497  -17.5646   24.0204 C   0  0  0  0  0  0  0  0  0  0  0  0
   15.2273  -17.8003   22.8558 C   0  0  0  0  0  0  0  0  0  0  0  0
   15.3204  -19.0434   22.2655 C   0  0  0  0  0  0  0  0  0  0  0  0
   14.6885  -20.0804   22.9053 C   0  0  0  0  0  0  0  0  0  0  0  0
   14.0027  -19.8622   24.0771 C   0  0  0  0  0  0  0  0  0  0  0  0
   11.0159  -18.6402   27.0162 C   0  0  0  0  0  0  0  0  0  0  0  0
    9.9378  -17.8079   27.2212 O   0  0  0  0  0  0  0  0  0  0  0  0
   11.3824  -19.3678   27.9662 O   0  0  0  0  0  0  0  0  0  0  0  0
  2  1  1  0
  3  2  2  0
  4  3  1  0
  5  4  2  0
  5 11  1  0
  6  5  1  0
  7  8  1  6
  7  6  1  0
  9  7  1  0
 10  9  2  0
 11 12  2  0
 12  2  1  0
 13  9  1  0
 14 13  1  0
 14 25  1  0
 14 15  1  1
 16 15  1  0
 17 16  2  0
 18 17  1  0
 19 18  1  0
 19 24  2  0
 20 21  2  0
 20 19  1  0
 21 22  1  0
 22 23  2  0
 24 23  1  0
 24 16  1  0
 25 26  2  0
 27 25  1  0
 27 28  1  0
 28 29  1  1
 29 30  1  0
 30 35  2  0
 31 32  2  0
 31 30  1  0
 32 33  1  0
 33 34  2  0
 35 34  1  0
 36 37  1  0
 36 28  1  0
 38 36  2  0
M  END
$$$$
