GSI.pdb
     RDKit          3D

 19 18  0  0  1  0  0  0  0  0999 V2000
    7.3205  -17.2147   18.2924 N   0  0  0  0  0  0  0  0  0  0  0  0
    8.0979  -17.3804   19.4827 C   0  0  0  0  0  0  0  0  0  0  0  0
    7.3134  -17.0203   20.7101 C   0  0  0  0  0  0  0  0  0  0  0  0
    6.1507  -16.5984   20.5581 O   0  0  0  0  0  0  0  0  0  0  0  0
    8.0215  -18.7124   24.3297 O   0  0  0  0  0  0  0  0  0  0  0  0
    6.8145  -18.1783   23.8871 C   0  0  0  0  0  0  0  0  0  0  0  0
    7.1224  -16.8668   23.2174 C   0  0  2  0  0  0  0  0  0  0  0  0
    7.8624  -17.1499   22.0075 N   0  0  0  0  0  0  0  0  0  0  0  0
    7.9368  -15.9745   24.1002 C   0  0  0  0  0  0  0  0  0  0  0  0
    9.1589  -15.8048   23.8535 O   0  0  0  0  0  0  0  0  0  0  0  0
    5.5520  -11.5581   26.5974 C   0  0  0  0  0  0  0  0  0  0  0  0
    6.5030  -12.4451   25.8310 C   0  0  0  0  0  0  0  0  0  0  0  0
    7.3699  -13.3044   26.6692 C   0  0  2  0  0  0  0  0  0  0  0  0
    8.3832  -12.3934   27.3588 C   0  0  0  0  0  0  0  0  0  0  0  0
    8.1471  -14.3656   25.9657 C   0  0  2  0  0  0  0  0  0  0  0  0
    7.3695  -15.3053   25.2197 N   0  0  0  0  0  0  0  0  0  0  0  0
    8.9542  -15.1163   26.9479 C   0  0  0  0  0  0  0  0  0  0  0  0
    9.8996  -14.5497   27.5339 O   0  0  0  0  0  0  0  0  0  0  0  0
    8.6752  -16.4362   27.2260 O   0  0  0  0  0  0  0  0  0  0  0  0
  2  1  1  0
  3  4  2  0
  3  2  1  0
  6  5  1  0
  7  8  1  0
  7  6  1  1
  8  3  1  0
  9  7  1  0
 10  9  2  0
 11 12  1  0
 12 13  1  0
 13 14  1  6
 15 16  1  1
 15 13  1  0
 16  9  1  0
 17 15  1  0
 18 17  2  0
 19 17  1  0
M  END
$$$$
