GSI.pdb
     RDKit          3D

 19 18  0  0  1  0  0  0  0  0999 V2000
    8.2121  -12.6090   18.0822 N   0  0  0  0  0  0  0  0  0  0  0  0
    8.7061  -13.7454   18.7985 C   0  0  0  0  0  0  0  0  0  0  0  0
    7.9405  -13.9743   20.0686 C   0  0  0  0  0  0  0  0  0  0  0  0
    7.3284  -13.0086   20.5645 O   0  0  0  0  0  0  0  0  0  0  0  0
    8.0569  -17.6498   22.1466 O   0  0  0  0  0  0  0  0  0  0  0  0
    6.8510  -16.9880   21.9327 C   0  0  0  0  0  0  0  0  0  0  0  0
    7.1477  -15.5135   21.8986 C   0  0  2  0  0  0  0  0  0  0  0  0
    7.9046  -15.2415   20.6966 N   0  0  0  0  0  0  0  0  0  0  0  0
    7.9401  -15.0825   23.0924 C   0  0  0  0  0  0  0  0  0  0  0  0
    9.1948  -15.0251   23.0170 O   0  0  0  0  0  0  0  0  0  0  0  0
    5.6871  -12.0833   27.5055 C   0  0  0  0  0  0  0  0  0  0  0  0
    6.1636  -13.2409   26.6621 C   0  0  0  0  0  0  0  0  0  0  0  0
    7.5642  -13.1379   26.1926 C   0  0  2  0  0  0  0  0  0  0  0  0
    7.6463  -11.9247   25.2687 C   0  0  0  0  0  0  0  0  0  0  0  0
    8.1059  -14.3014   25.4322 C   0  0  2  0  0  0  0  0  0  0  0  0
    7.3157  -14.7321   24.3213 N   0  0  0  0  0  0  0  0  0  0  0  0
    8.2763  -15.4488   26.3455 C   0  0  0  0  0  0  0  0  0  0  0  0
    7.6050  -16.4861   26.1677 O   0  0  0  0  0  0  0  0  0  0  0  0
    9.1692  -15.3881   27.3926 O   0  0  0  0  0  0  0  0  0  0  0  0
  2  1  1  0
  3  4  2  0
  3  2  1  0
  6  5  1  0
  7  8  1  0
  7  6  1  1
  8  3  1  0
  9  7  1  0
 10  9  2  0
 11 12  1  0
 12 13  1  0
 13 14  1  6
 15 16  1  6
 15 13  1  0
 16  9  1  0
 17 15  1  0
 18 17  2  0
 19 17  1  0
M  END
$$$$
