GSI.pdb
     RDKit          3D

 19 18  0  0  1  0  0  0  0  0999 V2000
    7.5408  -17.2193   18.4572 N   0  0  0  0  0  0  0  0  0  0  0  0
    8.2998  -17.4034   19.6565 C   0  0  0  0  0  0  0  0  0  0  0  0
    7.5581  -16.9058   20.8624 C   0  0  0  0  0  0  0  0  0  0  0  0
    6.8142  -15.9155   20.7238 O   0  0  0  0  0  0  0  0  0  0  0  0
    7.6915  -19.0860   24.3217 O   0  0  0  0  0  0  0  0  0  0  0  0
    6.5275  -18.3819   24.0265 C   0  0  0  0  0  0  0  0  0  0  0  0
    6.9321  -17.1329   23.2920 C   0  0  2  0  0  0  0  0  0  0  0  0
    7.6884  -17.5304   22.1250 N   0  0  0  0  0  0  0  0  0  0  0  0
    7.7726  -16.2379   24.1471 C   0  0  0  0  0  0  0  0  0  0  0  0
    9.0227  -16.2371   24.0039 O   0  0  0  0  0  0  0  0  0  0  0  0
    5.5013  -11.7299   26.6390 C   0  0  0  0  0  0  0  0  0  0  0  0
    6.5363  -12.5097   25.8651 C   0  0  0  0  0  0  0  0  0  0  0  0
    7.3380  -13.4576   26.6722 C   0  0  2  0  0  0  0  0  0  0  0  0
    8.4134  -12.6463   27.3914 C   0  0  0  0  0  0  0  0  0  0  0  0
    8.0373  -14.5474   25.9316 C   0  0  2  0  0  0  0  0  0  0  0  0
    7.1995  -15.3797   25.1259 N   0  0  0  0  0  0  0  0  0  0  0  0
    8.7549  -15.4109   26.8904 C   0  0  0  0  0  0  0  0  0  0  0  0
    8.1981  -16.4347   27.3377 O   0  0  0  0  0  0  0  0  0  0  0  0
   10.0336  -15.0999   27.2970 O   0  0  0  0  0  0  0  0  0  0  0  0
  2  1  1  0
  3  4  2  0
  3  2  1  0
  6  5  1  0
  7  8  1  0
  7  6  1  1
  8  3  1  0
  9  7  1  0
 10  9  2  0
 11 12  1  0
 12 13  1  0
 13 14  1  6
 15 16  1  1
 15 13  1  0
 16  9  1  0
 17 15  1  0
 18 17  2  0
 19 17  1  0
M  END
$$$$
