GSI.pdb
     RDKit          3D

 19 18  0  0  1  0  0  0  0  0999 V2000
    8.3368  -12.6515   17.9698 N   0  0  0  0  0  0  0  0  0  0  0  0
    8.7517  -13.8693   18.5969 C   0  0  0  0  0  0  0  0  0  0  0  0
    7.9811  -14.1329   19.8572 C   0  0  0  0  0  0  0  0  0  0  0  0
    7.3904  -13.1749   20.3926 O   0  0  0  0  0  0  0  0  0  0  0  0
    8.1846  -17.7930   21.9745 O   0  0  0  0  0  0  0  0  0  0  0  0
    6.9531  -17.2179   21.6736 C   0  0  0  0  0  0  0  0  0  0  0  0
    7.1535  -15.7278   21.6230 C   0  0  2  0  0  0  0  0  0  0  0  0
    7.9171  -15.4235   20.4330 N   0  0  0  0  0  0  0  0  0  0  0  0
    7.8897  -15.2290   22.8263 C   0  0  0  0  0  0  0  0  0  0  0  0
    9.1415  -15.1086   22.7826 O   0  0  0  0  0  0  0  0  0  0  0  0
    7.0987  -11.1692   27.3635 C   0  0  0  0  0  0  0  0  0  0  0  0
    7.8661  -12.3335   26.7857 C   0  0  0  0  0  0  0  0  0  0  0  0
    7.1758  -13.0577   25.6941 C   0  0  2  0  0  0  0  0  0  0  0  0
    5.8810  -13.6248   26.2721 C   0  0  0  0  0  0  0  0  0  0  0  0
    7.9109  -14.1975   25.0731 C   0  0  2  0  0  0  0  0  0  0  0  0
    7.2147  -14.8832   24.0295 N   0  0  0  0  0  0  0  0  0  0  0  0
    8.2602  -15.1831   26.1154 C   0  0  0  0  0  0  0  0  0  0  0  0
    7.6230  -16.2537   26.1928 O   0  0  0  0  0  0  0  0  0  0  0  0
    9.2829  -14.9349   27.0041 O   0  0  0  0  0  0  0  0  0  0  0  0
  2  1  1  0
  3  4  2  0
  3  2  1  0
  6  5  1  0
  7  8  1  0
  7  6  1  1
  8  3  1  0
  9  7  1  0
 10  9  2  0
 11 12  1  0
 12 13  1  0
 13 14  1  1
 15 16  1  6
 15 13  1  0
 16  9  1  0
 17 15  1  0
 18 17  2  0
 19 17  1  0
M  END
$$$$
