GSI.pdb
     RDKit          3D

 19 18  0  0  1  0  0  0  0  0999 V2000
    7.4162  -17.2577   18.5020 N   0  0  0  0  0  0  0  0  0  0  0  0
    8.1560  -17.4773   19.7074 C   0  0  0  0  0  0  0  0  0  0  0  0
    7.3630  -17.0910   20.9212 C   0  0  0  0  0  0  0  0  0  0  0  0
    6.3823  -16.3381   20.7638 O   0  0  0  0  0  0  0  0  0  0  0  0
    7.8425  -19.0047   24.5777 O   0  0  0  0  0  0  0  0  0  0  0  0
    6.6499  -18.4109   24.1739 C   0  0  0  0  0  0  0  0  0  0  0  0
    7.0047  -17.1620   23.4139 C   0  0  2  0  0  0  0  0  0  0  0  0
    7.7047  -17.5585   22.2120 N   0  0  0  0  0  0  0  0  0  0  0  0
    7.8788  -16.2546   24.2210 C   0  0  0  0  0  0  0  0  0  0  0  0
    9.1096  -16.1907   23.9672 O   0  0  0  0  0  0  0  0  0  0  0  0
    5.6837  -11.6942   26.6750 C   0  0  0  0  0  0  0  0  0  0  0  0
    6.6346  -12.5550   25.8793 C   0  0  0  0  0  0  0  0  0  0  0  0
    7.5101  -13.4330   26.6888 C   0  0  2  0  0  0  0  0  0  0  0  0
    8.5914  -12.5506   27.3086 C   0  0  0  0  0  0  0  0  0  0  0  0
    8.2091  -14.5357   25.9671 C   0  0  2  0  0  0  0  0  0  0  0  0
    7.3592  -15.4543   25.2758 N   0  0  0  0  0  0  0  0  0  0  0  0
    9.0327  -15.3033   26.9221 C   0  0  0  0  0  0  0  0  0  0  0  0
   10.0874  -14.8066   27.3682 O   0  0  0  0  0  0  0  0  0  0  0  0
    8.6497  -16.5627   27.3277 O   0  0  0  0  0  0  0  0  0  0  0  0
  2  1  1  0
  3  4  2  0
  3  2  1  0
  6  5  1  0
  7  8  1  0
  7  6  1  1
  8  3  1  0
  9  7  1  0
 10  9  2  0
 11 12  1  0
 12 13  1  0
 13 14  1  6
 15 16  1  1
 15 13  1  0
 16  9  1  0
 17 15  1  0
 18 17  2  0
 19 17  1  0
M  END
$$$$
