GSI.pdb
     RDKit          3D

 19 18  0  0  1  0  0  0  0  0999 V2000
   11.7443  -17.0345   19.1088 N   0  0  0  0  0  0  0  0  0  0  0  0
   10.7235  -17.5283   19.9819 C   0  0  0  0  0  0  0  0  0  0  0  0
    9.9201  -16.4114   20.5810 C   0  0  0  0  0  0  0  0  0  0  0  0
   10.4521  -15.2874   20.6634 O   0  0  0  0  0  0  0  0  0  0  0  0
    6.1654  -17.2075   21.9271 O   0  0  0  0  0  0  0  0  0  0  0  0
    6.3244  -15.9553   21.3400 C   0  0  0  0  0  0  0  0  0  0  0  0
    7.7577  -15.5443   21.5396 C   0  0  2  0  0  0  0  0  0  0  0  0
    8.5980  -16.6115   21.0429 N   0  0  0  0  0  0  0  0  0  0  0  0
    8.0659  -15.3008   22.9833 C   0  0  0  0  0  0  0  0  0  0  0  0
    8.7394  -16.1476   23.6258 O   0  0  0  0  0  0  0  0  0  0  0  0
    7.1414  -11.2326   27.6257 C   0  0  0  0  0  0  0  0  0  0  0  0
    7.4906  -12.6240   27.1561 C   0  0  0  0  0  0  0  0  0  0  0  0
    7.1152  -12.9241   25.7555 C   0  0  2  0  0  0  0  0  0  0  0  0
    5.6891  -13.4701   25.7737 C   0  0  0  0  0  0  0  0  0  0  0  0
    7.9547  -13.9238   25.0337 C   0  0  2  0  0  0  0  0  0  0  0  0
    7.6182  -14.1326   23.6600 N   0  0  0  0  0  0  0  0  0  0  0  0
    7.8753  -15.2246   25.7276 C   0  0  0  0  0  0  0  0  0  0  0  0
    8.6860  -15.4902   26.6388 O   0  0  0  0  0  0  0  0  0  0  0  0
    6.9150  -16.1494   25.3811 O   0  0  0  0  0  0  0  0  0  0  0  0
  2  1  1  0
  3  4  2  0
  3  2  1  0
  6  5  1  0
  7  8  1  0
  7  6  1  1
  8  3  1  0
  9  7  1  0
 10  9  2  0
 11 12  1  0
 12 13  1  0
 13 14  1  1
 15 16  1  6
 15 13  1  0
 16  9  1  0
 17 15  1  0
 18 17  2  0
 19 17  1  0
M  END
$$$$
