GSI.pdb
     RDKit          3D

 19 18  0  0  1  0  0  0  0  0999 V2000
    9.3488  -17.4337   18.9562 N   0  0  0  0  0  0  0  0  0  0  0  0
    9.2139  -18.1142   20.2080 C   0  0  0  0  0  0  0  0  0  0  0  0
    8.4403  -17.2974   21.2011 C   0  0  0  0  0  0  0  0  0  0  0  0
    8.2405  -16.0953   20.9402 O   0  0  0  0  0  0  0  0  0  0  0  0
    7.1664  -18.9762   24.7692 O   0  0  0  0  0  0  0  0  0  0  0  0
    6.2765  -18.1585   24.0782 C   0  0  0  0  0  0  0  0  0  0  0  0
    7.0918  -17.1442   23.3235 C   0  0  2  0  0  0  0  0  0  0  0  0
    7.9461  -17.8596   22.4015 N   0  0  0  0  0  0  0  0  0  0  0  0
    7.9352  -16.3192   24.2437 C   0  0  0  0  0  0  0  0  0  0  0  0
    9.1630  -16.5714   24.3539 O   0  0  0  0  0  0  0  0  0  0  0  0
    5.7172  -11.8237   27.1867 C   0  0  0  0  0  0  0  0  0  0  0  0
    6.2444  -13.1473   26.6885 C   0  0  0  0  0  0  0  0  0  0  0  0
    7.6591  -13.1325   26.2511 C   0  0  2  0  0  0  0  0  0  0  0  0
    7.7579  -12.1789   25.0625 C   0  0  0  0  0  0  0  0  0  0  0  0
    8.2416  -14.4344   25.8141 C   0  0  2  0  0  0  0  0  0  0  0  0
    7.3895  -15.2492   25.0053 N   0  0  0  0  0  0  0  0  0  0  0  0
    8.6348  -15.2198   27.0008 C   0  0  0  0  0  0  0  0  0  0  0  0
    9.4727  -14.7547   27.8006 O   0  0  0  0  0  0  0  0  0  0  0  0
    8.0862  -16.4611   27.2364 O   0  0  0  0  0  0  0  0  0  0  0  0
  2  1  1  0
  3  4  2  0
  3  2  1  0
  6  5  1  0
  7  8  1  0
  7  6  1  1
  8  3  1  0
  9  7  1  0
 10  9  2  0
 11 12  1  0
 12 13  1  0
 13 14  1  6
 15 16  1  1
 15 13  1  0
 16  9  1  0
 17 15  1  0
 18 17  2  0
 19 17  1  0
M  END
$$$$
