GSI.pdb
     RDKit          3D

 19 18  0  0  1  0  0  0  0  0999 V2000
    8.4474  -15.9477   12.7568 N   0  0  0  0  0  0  0  0  0  0  0  0
    8.4073  -17.0708   13.6431 C   0  0  0  0  0  0  0  0  0  0  0  0
    7.9239  -16.6805   15.0090 C   0  0  0  0  0  0  0  0  0  0  0  0
    7.7271  -15.4711   15.2362 O   0  0  0  0  0  0  0  0  0  0  0  0
    7.7990  -19.4516   18.0397 O   0  0  0  0  0  0  0  0  0  0  0  0
    6.7063  -18.5917   17.9724 C   0  0  0  0  0  0  0  0  0  0  0  0
    7.1777  -17.3157   17.3299 C   0  0  2  0  0  0  0  0  0  0  0  0
    7.6936  -17.6438   16.0192 N   0  0  0  0  0  0  0  0  0  0  0  0
    8.2523  -16.6565   18.1357 C   0  0  0  0  0  0  0  0  0  0  0  0
    9.4582  -16.9347   17.9079 O   0  0  0  0  0  0  0  0  0  0  0  0
    7.3043  -12.0774   21.7064 C   0  0  0  0  0  0  0  0  0  0  0  0
    7.5815  -13.4914   21.2567 C   0  0  0  0  0  0  0  0  0  0  0  0
    8.6760  -13.6305   20.2692 C   0  0  2  0  0  0  0  0  0  0  0  0
    8.2674  -12.8470   19.0237 C   0  0  0  0  0  0  0  0  0  0  0  0
    9.0074  -15.0149   19.8231 C   0  0  2  0  0  0  0  0  0  0  0  0
    7.9528  -15.7168   19.1605 N   0  0  0  0  0  0  0  0  0  0  0  0
    9.4315  -15.8178   20.9872 C   0  0  0  0  0  0  0  0  0  0  0  0
    8.6930  -16.7304   21.4114 O   0  0  0  0  0  0  0  0  0  0  0  0
   10.6347  -15.5717   21.6110 O   0  0  0  0  0  0  0  0  0  0  0  0
  2  1  1  0
  3  4  2  0
  3  2  1  0
  6  5  1  0
  7  8  1  0
  7  6  1  1
  8  3  1  0
  9  7  1  0
 10  9  2  0
 11 12  1  0
 12 13  1  0
 13 14  1  6
 15 16  1  1
 15 13  1  0
 16  9  1  0
 17 15  1  0
 18 17  2  0
 19 17  1  0
M  END
$$$$
