GSI.pdb
     RDKit          3D

 19 18  0  0  1  0  0  0  0  0999 V2000
    9.1558  -17.7048   18.6310 N   0  0  0  0  0  0  0  0  0  0  0  0
    9.4580  -18.0562   19.9851 C   0  0  0  0  0  0  0  0  0  0  0  0
    8.4856  -17.4389   20.9469 C   0  0  0  0  0  0  0  0  0  0  0  0
    7.6847  -16.5920   20.5059 O   0  0  0  0  0  0  0  0  0  0  0  0
    8.2558  -18.9305   24.7402 O   0  0  0  0  0  0  0  0  0  0  0  0
    7.0894  -18.4523   24.1498 C   0  0  0  0  0  0  0  0  0  0  0  0
    7.4765  -17.3092   23.2516 C   0  0  2  0  0  0  0  0  0  0  0  0
    8.4655  -17.7965   22.3155 N   0  0  0  0  0  0  0  0  0  0  0  0
    8.0494  -16.1664   24.0289 C   0  0  0  0  0  0  0  0  0  0  0  0
    9.2972  -16.0654   24.1559 O   0  0  0  0  0  0  0  0  0  0  0  0
    6.5187  -10.6418   26.5894 C   0  0  0  0  0  0  0  0  0  0  0  0
    7.4646  -11.7978   26.3722 C   0  0  0  0  0  0  0  0  0  0  0  0
    6.8879  -12.9491   25.6411 C   0  0  2  0  0  0  0  0  0  0  0  0
    5.7557  -13.5112   26.4980 C   0  0  0  0  0  0  0  0  0  0  0  0
    7.8086  -14.0830   25.3382 C   0  0  2  0  0  0  0  0  0  0  0  0
    7.2220  -15.1809   24.6349 N   0  0  0  0  0  0  0  0  0  0  0  0
    8.3827  -14.5993   26.5966 C   0  0  0  0  0  0  0  0  0  0  0  0
    9.2395  -13.9275   27.2071 O   0  0  0  0  0  0  0  0  0  0  0  0
    7.9826  -15.8150   27.1058 O   0  0  0  0  0  0  0  0  0  0  0  0
  2  1  1  0
  3  4  2  0
  3  2  1  0
  6  5  1  0
  7  8  1  0
  7  6  1  1
  8  3  1  0
  9  7  1  0
 10  9  2  0
 11 12  1  0
 12 13  1  0
 13 14  1  1
 15 16  1  1
 15 13  1  0
 16  9  1  0
 17 15  1  0
 18 17  2  0
 19 17  1  0
M  END
$$$$
