GSI.pdb
     RDKit          3D

 19 18  0  0  1  0  0  0  0  0999 V2000
    3.3084  -17.9335   19.9834 N   0  0  0  0  0  0  0  0  0  0  0  0
    4.3276  -16.9441   20.1584 C   0  0  0  0  0  0  0  0  0  0  0  0
    5.2082  -17.2585   21.3320 C   0  0  0  0  0  0  0  0  0  0  0  0
    4.7273  -17.9403   22.2578 O   0  0  0  0  0  0  0  0  0  0  0  0
    9.2671  -16.9845   21.0762 O   0  0  0  0  0  0  0  0  0  0  0  0
    8.6206  -17.8299   21.9735 C   0  0  0  0  0  0  0  0  0  0  0  0
    7.4279  -17.0870   22.5111 C   0  0  2  0  0  0  0  0  0  0  0  0
    6.5457  -16.8026   21.4008 N   0  0  0  0  0  0  0  0  0  0  0  0
    7.8277  -15.8039   23.1687 C   0  0  0  0  0  0  0  0  0  0  0  0
    8.3384  -14.8847   22.4774 O   0  0  0  0  0  0  0  0  0  0  0  0
    6.4789  -11.3408   26.9127 C   0  0  0  0  0  0  0  0  0  0  0  0
    7.5615  -12.3008   26.4826 C   0  0  0  0  0  0  0  0  0  0  0  0
    7.0911  -13.4597   25.6899 C   0  0  2  0  0  0  0  0  0  0  0  0
    6.1687  -14.2810   26.5880 C   0  0  0  0  0  0  0  0  0  0  0  0
    8.1366  -14.3898   25.1731 C   0  0  2  0  0  0  0  0  0  0  0  0
    7.6479  -15.5868   24.5627 N   0  0  0  0  0  0  0  0  0  0  0  0
    9.0407  -14.7738   26.2752 C   0  0  0  0  0  0  0  0  0  0  0  0
    8.9701  -15.9210   26.7622 O   0  0  0  0  0  0  0  0  0  0  0  0
    9.9631  -13.8798   26.7725 O   0  0  0  0  0  0  0  0  0  0  0  0
  2  1  1  0
  3  4  2  0
  3  2  1  0
  6  5  1  0
  7  8  1  0
  7  6  1  6
  8  3  1  0
  9  7  1  0
 10  9  2  0
 11 12  1  0
 12 13  1  0
 13 14  1  1
 15 16  1  1
 15 13  1  0
 16  9  1  0
 17 15  1  0
 18 17  2  0
 19 17  1  0
M  END
$$$$
