WRE.pdb
     RDKit          3D

 35 36  0  0  1  0  0  0  0  0999 V2000
   26.9401  -19.1806  -11.3383 N   0  0  0  0  0  0  0  0  0  0  0  0
   26.7633  -20.6433  -11.4689 C   0  0  1  0  0  0  0  0  0  0  0  0
   25.7265  -20.9998  -10.4618 C   0  0  0  0  0  0  0  0  0  0  0  0
   25.9184  -20.4860   -9.0988 C   0  0  0  0  0  0  0  0  0  0  0  0
   25.0299  -19.9813   -8.1954 C   0  0  0  0  0  0  0  0  0  0  0  0
   25.7072  -19.6411   -7.0819 N   0  0  0  0  0  0  0  0  0  0  0  0
   26.9930  -19.9182   -7.2597 C   0  0  0  0  0  0  0  0  0  0  0  0
   28.1024  -19.7706   -6.4430 C   0  0  0  0  0  0  0  0  0  0  0  0
   29.3671  -20.1536   -6.8810 C   0  0  0  0  0  0  0  0  0  0  0  0
   29.5469  -20.6873   -8.1355 C   0  0  0  0  0  0  0  0  0  0  0  0
   28.4523  -20.8374   -8.9546 C   0  0  0  0  0  0  0  0  0  0  0  0
   27.1960  -20.4535   -8.5096 C   0  0  0  0  0  0  0  0  0  0  0  0
   26.3790  -20.8864  -12.8820 C   0  0  0  0  0  0  0  0  0  0  0  0
   25.4765  -20.1915  -13.4599 O   0  0  0  0  0  0  0  0  0  0  0  0
   31.3589  -25.2900  -15.9612 N   0  0  0  0  0  0  0  0  0  0  0  0
   30.3152  -25.1518  -16.9091 C   0  0  0  0  0  0  0  0  0  0  0  0
   29.9057  -26.1770  -17.6031 N   0  0  0  0  0  0  0  0  0  0  0  0
   29.7157  -23.8850  -17.0965 N   0  0  0  0  0  0  0  0  0  0  0  0
   30.1338  -22.7396  -16.3162 C   0  0  0  0  0  0  0  0  0  0  0  0
   29.0279  -22.2643  -15.4194 C   0  0  0  0  0  0  0  0  0  0  0  0
   27.6719  -22.7360  -15.8869 C   0  0  0  0  0  0  0  0  0  0  0  0
   26.5785  -22.1518  -15.0793 C   0  0  2  0  0  0  0  0  0  0  0  0
   26.9785  -21.8962  -13.6889 N   0  0  0  0  0  0  0  0  0  0  0  0
   25.2589  -22.7692  -15.1389 C   0  0  0  0  0  0  0  0  0  0  0  0
   24.9222  -23.7803  -14.4580 O   0  0  0  0  0  0  0  0  0  0  0  0
   29.1350  -26.1104  -18.2855 N   0  0  0  0  0  0  0  0  0  0  0  0
   24.2385  -22.2531  -16.0025 C   0  0  2  0  0  0  0  0  0  0  0  0
   22.9062  -22.8025  -15.9742 C   0  0  0  0  0  0  0  0  0  0  0  0
   21.9072  -21.7146  -15.9833 C   0  0  0  0  0  0  0  0  0  0  0  0
   21.6031  -21.1085  -17.3080 C   0  0  0  0  0  0  0  0  0  0  0  0
   20.5917  -20.0395  -17.2936 O   0  0  0  0  0  0  0  0  0  0  0  0
   19.5055  -20.0710  -16.6410 C   0  0  0  0  0  0  0  0  0  0  0  0
   22.7717  -23.7552  -17.0969 O   0  0  0  0  0  0  0  0  0  0  0  0
   21.7274  -24.6620  -17.2323 O   0  0  0  0  0  0  0  0  0  0  0  0
   20.8261  -18.8918  -18.0503 O   0  0  0  0  0  0  0  0  0  0  0  0
  2  1  1  6
  3  4  1  0
  3  2  1  0
  4  5  2  0
  5  6  1  0
  7  6  1  0
  8  7  2  0
  9  8  1  0
 10 11  1  0
 10  9  2  0
 11 12  2  0
 12  4  1  0
 12  7  1  0
 13  2  1  0
 13 14  2  0
 15 16  1  0
 16 17  2  0
 18 16  1  0
 18 19  1  0
 20 21  1  0
 20 19  1  0
 22 21  1  1
 22 23  1  0
 23 13  1  0
 24 22  1  0
 25 24  2  0
 26 24  1  0
 27 26  1  0
 27 28  1  6
 29 28  1  0
 30 34  1  0
 30 29  1  0
 31 30  2  0
 32 27  1  0
 32 33  1  0
 35 32  2  0
M  END
$$$$
