WRE.pdb
     RDKit          3D

 35 36  0  0  1  0  0  0  0  0999 V2000
   28.0550  -22.3594  -12.3582 N   0  0  0  0  0  0  0  0  0  0  0  0
   27.0212  -21.5071  -11.7315 C   0  0  1  0  0  0  0  0  0  0  0  0
   27.7647  -20.3460  -11.1696 C   0  0  0  0  0  0  0  0  0  0  0  0
   28.7252  -20.6284  -10.0943 C   0  0  0  0  0  0  0  0  0  0  0  0
   30.0610  -20.9013  -10.1315 C   0  0  0  0  0  0  0  0  0  0  0  0
   30.4882  -21.0925   -8.8684 N   0  0  0  0  0  0  0  0  0  0  0  0
   29.4609  -20.9466   -8.0407 C   0  0  0  0  0  0  0  0  0  0  0  0
   29.3520  -21.0322   -6.6622 C   0  0  0  0  0  0  0  0  0  0  0  0
   28.1296  -20.8259   -6.0287 C   0  0  0  0  0  0  0  0  0  0  0  0
   26.9997  -20.5328   -6.7554 C   0  0  0  0  0  0  0  0  0  0  0  0
   27.0966  -20.4463   -8.1247 C   0  0  0  0  0  0  0  0  0  0  0  0
   28.3187  -20.6529   -8.7472 C   0  0  0  0  0  0  0  0  0  0  0  0
   26.0543  -21.1749  -12.8079 C   0  0  0  0  0  0  0  0  0  0  0  0
   26.4390  -20.9218  -13.9992 O   0  0  0  0  0  0  0  0  0  0  0  0
   23.6790  -27.3527  -16.4772 N   0  0  0  0  0  0  0  0  0  0  0  0
   22.6657  -26.9886  -15.5564 C   0  0  0  0  0  0  0  0  0  0  0  0
   21.8733  -27.8904  -15.0472 N   0  0  0  0  0  0  0  0  0  0  0  0
   22.5207  -25.6307  -15.1902 N   0  0  0  0  0  0  0  0  0  0  0  0
   23.2887  -24.5949  -15.8483 C   0  0  0  0  0  0  0  0  0  0  0  0
   22.9887  -23.2457  -15.2629 C   0  0  0  0  0  0  0  0  0  0  0  0
   23.9683  -22.8636  -14.1793 C   0  0  0  0  0  0  0  0  0  0  0  0
   23.6677  -21.5305  -13.6121 C   0  0  2  0  0  0  0  0  0  0  0  0
   24.6463  -21.1151  -12.5980 N   0  0  0  0  0  0  0  0  0  0  0  0
   22.3065  -21.2490  -13.1717 C   0  0  0  0  0  0  0  0  0  0  0  0
   21.8151  -21.6723  -12.0860 O   0  0  0  0  0  0  0  0  0  0  0  0
   21.1480  -27.6594  -14.3509 N   0  0  0  0  0  0  0  0  0  0  0  0
   21.4190  -20.4569  -13.9705 C   0  0  2  0  0  0  0  0  0  0  0  0
   20.5456  -19.4886  -13.3561 C   0  0  0  0  0  0  0  0  0  0  0  0
   20.3935  -18.3112  -14.2349 C   0  0  0  0  0  0  0  0  0  0  0  0
   19.4702  -17.2460  -13.7577 C   0  0  0  0  0  0  0  0  0  0  0  0
   19.2357  -16.1454  -14.7060 O   0  0  0  0  0  0  0  0  0  0  0  0
   19.9494  -15.8932  -15.7227 C   0  0  0  0  0  0  0  0  0  0  0  0
   19.2716  -20.1590  -13.0189 O   0  0  0  0  0  0  0  0  0  0  0  0
   18.7041  -21.1825  -13.7683 O   0  0  0  0  0  0  0  0  0  0  0  0
   18.1477  -15.3005  -14.4885 O   0  0  0  0  0  0  0  0  0  0  0  0
  2  1  1  6
  3  4  1  0
  3  2  1  0
  4  5  2  0
  5  6  1  0
  7  6  1  0
  8  7  2  0
  9  8  1  0
 10 11  1  0
 10  9  2  0
 11 12  2  0
 12  4  1  0
 12  7  1  0
 13  2  1  0
 13 14  2  0
 15 16  1  0
 16 17  2  0
 18 16  1  0
 18 19  1  0
 20 21  1  0
 20 19  1  0
 22 21  1  1
 22 23  1  0
 23 13  1  0
 24 22  1  0
 25 24  2  0
 26 24  1  0
 27 26  1  0
 27 28  1  6
 29 28  1  0
 30 34  1  0
 30 29  1  0
 31 30  2  0
 32 27  1  0
 32 33  1  0
 35 32  2  0
M  END
$$$$
