WRE.pdb
     RDKit          3D

 35 36  0  0  1  0  0  0  0  0999 V2000
   24.4428  -20.6703  -18.8240 N   0  0  0  0  0  0  0  0  0  0  0  0
   23.2945  -19.8375  -18.4049 C   0  0  1  0  0  0  0  0  0  0  0  0
   22.4737  -19.6621  -19.6345 C   0  0  0  0  0  0  0  0  0  0  0  0
   23.0812  -18.9052  -20.7375 C   0  0  0  0  0  0  0  0  0  0  0  0
   23.6734  -19.3213  -21.8935 C   0  0  0  0  0  0  0  0  0  0  0  0
   24.0770  -18.2327  -22.5766 N   0  0  0  0  0  0  0  0  0  0  0  0
   23.7548  -17.1471  -21.8842 C   0  0  0  0  0  0  0  0  0  0  0  0
   23.9336  -15.7953  -22.1291 C   0  0  0  0  0  0  0  0  0  0  0  0
   23.4872  -14.8401  -21.2200 C   0  0  0  0  0  0  0  0  0  0  0  0
   22.8584  -15.2146  -20.0559 C   0  0  0  0  0  0  0  0  0  0  0  0
   22.6765  -16.5543  -19.8026 C   0  0  0  0  0  0  0  0  0  0  0  0
   23.1241  -17.4987  -20.7143 C   0  0  0  0  0  0  0  0  0  0  0  0
   22.6295  -20.5786  -17.3038 C   0  0  0  0  0  0  0  0  0  0  0  0
   22.5472  -21.8532  -17.3081 O   0  0  0  0  0  0  0  0  0  0  0  0
   25.1951  -22.7453  -11.1758 N   0  0  0  0  0  0  0  0  0  0  0  0
   24.8970  -23.1072  -12.5127 C   0  0  0  0  0  0  0  0  0  0  0  0
   24.7191  -24.3567  -12.8407 N   0  0  0  0  0  0  0  0  0  0  0  0
   24.7913  -22.0956  -13.4949 N   0  0  0  0  0  0  0  0  0  0  0  0
   24.5913  -20.7114  -13.1209 C   0  0  0  0  0  0  0  0  0  0  0  0
   23.6137  -20.0393  -14.0405 C   0  0  0  0  0  0  0  0  0  0  0  0
   22.1941  -20.4891  -13.7911 C   0  0  0  0  0  0  0  0  0  0  0  0
   21.4462  -20.6734  -15.0543 C   0  0  2  0  0  0  0  0  0  0  0  0
   22.0426  -19.9353  -16.1760 N   0  0  0  0  0  0  0  0  0  0  0  0
   19.9965  -20.5175  -15.0374 C   0  0  0  0  0  0  0  0  0  0  0  0
   19.3953  -19.5794  -14.4394 O   0  0  0  0  0  0  0  0  0  0  0  0
   24.4968  -24.6490  -13.8046 N   0  0  0  0  0  0  0  0  0  0  0  0
   19.1439  -21.4497  -15.7137 C   0  0  2  0  0  0  0  0  0  0  0  0
   18.0815  -22.1191  -15.0062 C   0  0  0  0  0  0  0  0  0  0  0  0
   18.6183  -23.2719  -14.2547 C   0  0  0  0  0  0  0  0  0  0  0  0
   17.6530  -24.0043  -13.3907 C   0  0  0  0  0  0  0  0  0  0  0  0
   17.8980  -25.4493  -13.2582 O   0  0  0  0  0  0  0  0  0  0  0  0
   18.9252  -26.0577  -13.6841 C   0  0  0  0  0  0  0  0  0  0  0  0
   17.3822  -21.1234  -14.1659 O   0  0  0  0  0  0  0  0  0  0  0  0
   16.0003  -21.0071  -14.0775 O   0  0  0  0  0  0  0  0  0  0  0  0
   16.9376  -26.2307  -12.6164 O   0  0  0  0  0  0  0  0  0  0  0  0
  2  1  1  6
  3  4  1  0
  3  2  1  0
  4  5  2  0
  5  6  1  0
  7  6  1  0
  8  7  2  0
  9  8  1  0
 10 11  1  0
 10  9  2  0
 11 12  2  0
 12  4  1  0
 12  7  1  0
 13  2  1  0
 13 14  2  0
 15 16  1  0
 16 17  2  0
 18 16  1  0
 18 19  1  0
 20 21  1  0
 20 19  1  0
 22 21  1  1
 22 23  1  0
 23 13  1  0
 24 22  1  0
 25 24  2  0
 26 24  1  0
 27 26  1  0
 27 28  1  6
 29 28  1  0
 30 34  1  0
 30 29  1  0
 31 30  2  0
 32 27  1  0
 32 33  1  0
 35 32  2  0
M  END
$$$$
