WRE.pdb
     RDKit          3D

 35 36  0  0  1  0  0  0  0  0999 V2000
   21.9434  -19.7522  -17.3865 N   0  0  0  0  0  0  0  0  0  0  0  0
   22.5367  -18.7581  -16.4658 C   0  0  1  0  0  0  0  0  0  0  0  0
   21.4814  -18.4927  -15.4497 C   0  0  0  0  0  0  0  0  0  0  0  0
   20.2553  -17.8341  -15.9203 C   0  0  0  0  0  0  0  0  0  0  0  0
   18.9665  -18.2754  -15.9851 C   0  0  0  0  0  0  0  0  0  0  0  0
   18.2078  -17.2888  -16.5004 N   0  0  0  0  0  0  0  0  0  0  0  0
   18.9819  -16.2423  -16.7595 C   0  0  0  0  0  0  0  0  0  0  0  0
   18.7134  -14.9883  -17.2838 C   0  0  0  0  0  0  0  0  0  0  0  0
   19.7302  -14.0524  -17.4520 C   0  0  0  0  0  0  0  0  0  0  0  0
   21.0265  -14.3495  -17.1027 C   0  0  0  0  0  0  0  0  0  0  0  0
   21.3041  -15.5919  -16.5820 C   0  0  0  0  0  0  0  0  0  0  0  0
   20.2847  -16.5178  -16.4175 C   0  0  0  0  0  0  0  0  0  0  0  0
   23.7785  -19.3768  -15.9377 C   0  0  0  0  0  0  0  0  0  0  0  0
   23.7842  -20.5579  -15.4515 O   0  0  0  0  0  0  0  0  0  0  0  0
   29.6325  -20.8083  -18.5601 N   0  0  0  0  0  0  0  0  0  0  0  0
   29.5727  -19.6778  -19.4118 C   0  0  0  0  0  0  0  0  0  0  0  0
   29.7537  -19.8020  -20.6972 N   0  0  0  0  0  0  0  0  0  0  0  0
   29.3116  -18.4053  -18.8534 N   0  0  0  0  0  0  0  0  0  0  0  0
   29.0943  -18.2458  -17.4310 C   0  0  0  0  0  0  0  0  0  0  0  0
   27.7619  -18.8033  -17.0224 C   0  0  0  0  0  0  0  0  0  0  0  0
   27.4581  -18.5457  -15.5660 C   0  0  0  0  0  0  0  0  0  0  0  0
   26.1885  -19.1807  -15.1488 C   0  0  2  0  0  0  0  0  0  0  0  0
   25.0385  -18.7117  -15.9338 N   0  0  0  0  0  0  0  0  0  0  0  0
   25.8662  -19.2313  -13.7277 C   0  0  0  0  0  0  0  0  0  0  0  0
   25.0959  -18.4115  -13.1500 O   0  0  0  0  0  0  0  0  0  0  0  0
   29.8290  -18.9879  -21.3262 N   0  0  0  0  0  0  0  0  0  0  0  0
   26.4250  -20.2403  -12.8774 C   0  0  1  0  0  0  0  0  0  0  0  0
   26.0767  -20.2975  -11.4799 C   0  0  0  0  0  0  0  0  0  0  0  0
   24.6169  -20.4612  -11.3259 C   0  0  0  0  0  0  0  0  0  0  0  0
   24.1137  -20.6236   -9.9348 C   0  0  0  0  0  0  0  0  0  0  0  0
   22.6663  -20.8597   -9.8127 O   0  0  0  0  0  0  0  0  0  0  0  0
   21.8704  -21.0328  -10.7840 C   0  0  0  0  0  0  0  0  0  0  0  0
   26.8746  -21.3682  -10.8448 O   0  0  0  0  0  0  0  0  0  0  0  0
   27.4455  -22.4314  -11.5338 O   0  0  0  0  0  0  0  0  0  0  0  0
   22.1042  -20.9006   -8.5371 O   0  0  0  0  0  0  0  0  0  0  0  0
  2  1  1  6
  3  4  1  0
  3  2  1  0
  4  5  2  0
  5  6  1  0
  7  6  1  0
  8  7  2  0
  9  8  1  0
 10 11  1  0
 10  9  2  0
 11 12  2  0
 12  4  1  0
 12  7  1  0
 13  2  1  0
 13 14  2  0
 15 16  1  0
 16 17  2  0
 18 16  1  0
 18 19  1  0
 20 21  1  0
 20 19  1  0
 22 21  1  1
 22 23  1  0
 23 13  1  0
 24 22  1  0
 25 24  2  0
 26 24  1  0
 27 26  1  0
 27 28  1  1
 29 28  1  0
 30 34  1  0
 30 29  1  0
 31 30  2  0
 32 27  1  0
 32 33  1  0
 35 32  2  0
M  END
$$$$
