WRE.pdb
     RDKit          3D

 35 36  0  0  1  0  0  0  0  0999 V2000
   25.9935  -20.0099  -16.8706 N   0  0  0  0  0  0  0  0  0  0  0  0
   25.4027  -19.0251  -15.9383 C   0  0  1  0  0  0  0  0  0  0  0  0
   24.6434  -18.0802  -16.8027 C   0  0  0  0  0  0  0  0  0  0  0  0
   25.4233  -17.0657  -17.5245 C   0  0  0  0  0  0  0  0  0  0  0  0
   25.5391  -16.8021  -18.8576 C   0  0  0  0  0  0  0  0  0  0  0  0
   26.3856  -15.7656  -19.0111 N   0  0  0  0  0  0  0  0  0  0  0  0
   26.8029  -15.3709  -17.8145 C   0  0  0  0  0  0  0  0  0  0  0  0
   27.6632  -14.3630  -17.4104 C   0  0  0  0  0  0  0  0  0  0  0  0
   27.9335  -14.1537  -16.0609 C   0  0  0  0  0  0  0  0  0  0  0  0
   27.3538  -14.9426  -15.0954 C   0  0  0  0  0  0  0  0  0  0  0  0
   26.4987  -15.9468  -15.4858 C   0  0  0  0  0  0  0  0  0  0  0  0
   26.2351  -16.1476  -16.8325 C   0  0  0  0  0  0  0  0  0  0  0  0
   24.5778  -19.8069  -14.9832 C   0  0  0  0  0  0  0  0  0  0  0  0
   24.0196  -20.9045  -15.3223 O   0  0  0  0  0  0  0  0  0  0  0  0
   27.0099  -22.7057  -11.0518 N   0  0  0  0  0  0  0  0  0  0  0  0
   27.1807  -21.3007  -10.9893 C   0  0  0  0  0  0  0  0  0  0  0  0
   28.1363  -20.7157  -11.6565 N   0  0  0  0  0  0  0  0  0  0  0  0
   26.2998  -20.5325  -10.1938 N   0  0  0  0  0  0  0  0  0  0  0  0
   25.1483  -21.1382   -9.5590 C   0  0  0  0  0  0  0  0  0  0  0  0
   23.9709  -21.1662  -10.4898 C   0  0  0  0  0  0  0  0  0  0  0  0
   23.8439  -19.8904  -11.2873 C   0  0  0  0  0  0  0  0  0  0  0  0
   23.5074  -20.1586  -12.7029 C   0  0  2  0  0  0  0  0  0  0  0  0
   24.3503  -19.3998  -13.6368 N   0  0  0  0  0  0  0  0  0  0  0  0
   22.1075  -20.1158  -13.1087 C   0  0  0  0  0  0  0  0  0  0  0  0
   21.4901  -19.0512  -13.3996 O   0  0  0  0  0  0  0  0  0  0  0  0
   28.2913  -19.6965  -11.6215 N   0  0  0  0  0  0  0  0  0  0  0  0
   21.3261  -21.3135  -13.1990 C   0  0  1  0  0  0  0  0  0  0  0  0
   19.9180  -21.2499  -13.5003 C   0  0  0  0  0  0  0  0  0  0  0  0
   19.4045  -22.5979  -13.8182 C   0  0  0  0  0  0  0  0  0  0  0  0
   17.9284  -22.7264  -13.9569 C   0  0  0  0  0  0  0  0  0  0  0  0
   17.4501  -24.0483  -14.3923 O   0  0  0  0  0  0  0  0  0  0  0  0
   18.1907  -25.0441  -14.6500 C   0  0  0  0  0  0  0  0  0  0  0  0
   19.2291  -20.5927  -12.3690 O   0  0  0  0  0  0  0  0  0  0  0  0
   18.1663  -19.7081  -12.5078 O   0  0  0  0  0  0  0  0  0  0  0  0
   16.0771  -24.2436  -14.5392 O   0  0  0  0  0  0  0  0  0  0  0  0
  2  1  1  6
  3  4  1  0
  3  2  1  0
  4  5  2  0
  5  6  1  0
  7  6  1  0
  8  7  2  0
  9  8  1  0
 10 11  1  0
 10  9  2  0
 11 12  2  0
 12  4  1  0
 12  7  1  0
 13  2  1  0
 13 14  2  0
 15 16  1  0
 16 17  2  0
 18 16  1  0
 18 19  1  0
 20 21  1  0
 20 19  1  0
 22 21  1  1
 22 23  1  0
 23 13  1  0
 24 22  1  0
 25 24  2  0
 26 24  1  0
 27 26  1  0
 27 28  1  6
 29 28  1  0
 30 34  1  0
 30 29  1  0
 31 30  2  0
 32 27  1  0
 32 33  1  0
 35 32  2  0
M  END
$$$$
