WRE.pdb
     RDKit          3D

 35 36  0  0  1  0  0  0  0  0999 V2000
   25.1557  -17.3450  -19.0768 N   0  0  0  0  0  0  0  0  0  0  0  0
   25.2804  -17.0529  -17.6322 C   0  0  1  0  0  0  0  0  0  0  0  0
   24.6814  -15.7012  -17.4570 C   0  0  0  0  0  0  0  0  0  0  0  0
   25.3754  -14.5775  -18.1006 C   0  0  0  0  0  0  0  0  0  0  0  0
   24.9065  -13.5550  -18.8719 C   0  0  0  0  0  0  0  0  0  0  0  0
   25.9500  -12.7801  -19.2254 N   0  0  0  0  0  0  0  0  0  0  0  0
   27.0584  -13.2853  -18.6982 C   0  0  0  0  0  0  0  0  0  0  0  0
   28.3835  -12.8839  -18.7467 C   0  0  0  0  0  0  0  0  0  0  0  0
   29.3730  -13.6070  -18.0862 C   0  0  0  0  0  0  0  0  0  0  0  0
   29.0598  -14.7382  -17.3698 C   0  0  0  0  0  0  0  0  0  0  0  0
   27.7473  -15.1459  -17.3158 C   0  0  0  0  0  0  0  0  0  0  0  0
   26.7682  -14.4190  -17.9766 C   0  0  0  0  0  0  0  0  0  0  0  0
   24.5729  -18.1517  -16.9280 C   0  0  0  0  0  0  0  0  0  0  0  0
   23.6631  -18.8395  -17.5031 O   0  0  0  0  0  0  0  0  0  0  0  0
   26.0598  -20.2298  -10.6918 N   0  0  0  0  0  0  0  0  0  0  0  0
   26.9710  -21.2915  -10.9147 C   0  0  0  0  0  0  0  0  0  0  0  0
   27.1469  -22.2183  -10.0144 N   0  0  0  0  0  0  0  0  0  0  0  0
   27.6917  -21.3394  -12.1302 N   0  0  0  0  0  0  0  0  0  0  0  0
   27.3670  -20.4495  -13.2250 C   0  0  0  0  0  0  0  0  0  0  0  0
   26.1499  -20.9244  -13.9641 C   0  0  0  0  0  0  0  0  0  0  0  0
   24.9396  -20.0676  -13.6800 C   0  0  0  0  0  0  0  0  0  0  0  0
   24.2368  -19.6800  -14.9229 C   0  0  2  0  0  0  0  0  0  0  0  0
   24.8507  -18.5178  -15.5794 N   0  0  0  0  0  0  0  0  0  0  0  0
   22.7840  -19.5583  -14.8955 C   0  0  0  0  0  0  0  0  0  0  0  0
   22.1714  -18.4732  -14.6798 O   0  0  0  0  0  0  0  0  0  0  0  0
   27.7879  -23.0137  -10.1576 N   0  0  0  0  0  0  0  0  0  0  0  0
   21.9416  -20.6969  -15.1130 C   0  0  2  0  0  0  0  0  0  0  0  0
   20.5113  -20.5893  -14.9709 C   0  0  0  0  0  0  0  0  0  0  0  0
   19.8514  -21.7734  -15.5574 C   0  0  0  0  0  0  0  0  0  0  0  0
   18.3633  -21.7776  -15.5375 C   0  0  0  0  0  0  0  0  0  0  0  0
   17.7293  -22.9605  -16.1411 O   0  0  0  0  0  0  0  0  0  0  0  0
   16.4800  -23.1625  -16.2130 C   0  0  0  0  0  0  0  0  0  0  0  0
   20.2007  -20.3708  -13.5418 O   0  0  0  0  0  0  0  0  0  0  0  0
   19.1358  -19.6061  -13.0809 O   0  0  0  0  0  0  0  0  0  0  0  0
   18.5485  -23.9504  -16.6833 O   0  0  0  0  0  0  0  0  0  0  0  0
  2  1  1  6
  3  4  1  0
  3  2  1  0
  4  5  2  0
  5  6  1  0
  7  6  1  0
  8  7  2  0
  9  8  1  0
 10 11  1  0
 10  9  2  0
 11 12  2  0
 12  4  1  0
 12  7  1  0
 13  2  1  0
 13 14  2  0
 15 16  1  0
 16 17  2  0
 18 16  1  0
 18 19  1  0
 20 21  1  0
 20 19  1  0
 22 21  1  1
 22 23  1  0
 23 13  1  0
 24 22  1  0
 25 24  2  0
 26 24  1  0
 27 26  1  0
 27 28  1  6
 29 28  1  0
 30 34  1  0
 30 29  1  0
 31 30  2  0
 32 27  1  0
 32 33  1  0
 35 32  2  0
M  END
$$$$
