WRE.pdb
     RDKit          3D

 35 36  0  0  1  0  0  0  0  0999 V2000
   19.6638  -17.9809  -18.9295 N   0  0  0  0  0  0  0  0  0  0  0  0
   20.1347  -17.8242  -17.5361 C   0  0  1  0  0  0  0  0  0  0  0  0
   19.1868  -16.8600  -16.9128 C   0  0  0  0  0  0  0  0  0  0  0  0
   19.2193  -15.4784  -17.4116 C   0  0  0  0  0  0  0  0  0  0  0  0
   18.3504  -14.7891  -18.2053 C   0  0  0  0  0  0  0  0  0  0  0  0
   18.8347  -13.5443  -18.3797 N   0  0  0  0  0  0  0  0  0  0  0  0
   19.9801  -13.4323  -17.7186 C   0  0  0  0  0  0  0  0  0  0  0  0
   20.8714  -12.3829  -17.5644 C   0  0  0  0  0  0  0  0  0  0  0  0
   22.0228  -12.5315  -16.7959 C   0  0  0  0  0  0  0  0  0  0  0  0
   22.3044  -13.7237  -16.1714 C   0  0  0  0  0  0  0  0  0  0  0  0
   21.4264  -14.7722  -16.3186 C   0  0  0  0  0  0  0  0  0  0  0  0
   20.2817  -14.6149  -17.0857 C   0  0  0  0  0  0  0  0  0  0  0  0
   20.1283  -19.1857  -16.9444 C   0  0  0  0  0  0  0  0  0  0  0  0
   19.1176  -19.9590  -17.0537 O   0  0  0  0  0  0  0  0  0  0  0  0
   25.8888  -24.4589  -15.9820 N   0  0  0  0  0  0  0  0  0  0  0  0
   25.9451  -23.1103  -15.5515 C   0  0  0  0  0  0  0  0  0  0  0  0
   26.9593  -22.3529  -15.8650 N   0  0  0  0  0  0  0  0  0  0  0  0
   24.8847  -22.5881  -14.7756 N   0  0  0  0  0  0  0  0  0  0  0  0
   23.8401  -23.4503  -14.2645 C   0  0  0  0  0  0  0  0  0  0  0  0
   22.4879  -22.8225  -14.4395 C   0  0  0  0  0  0  0  0  0  0  0  0
   22.5412  -21.5848  -15.3027 C   0  0  0  0  0  0  0  0  0  0  0  0
   21.1912  -21.0379  -15.5629 C   0  0  2  0  0  0  0  0  0  0  0  0
   21.2315  -19.7256  -16.2222 N   0  0  0  0  0  0  0  0  0  0  0  0
   20.2117  -21.0508  -14.4828 C   0  0  0  0  0  0  0  0  0  0  0  0
   20.1982  -20.2155  -13.5334 O   0  0  0  0  0  0  0  0  0  0  0  0
   26.9927  -21.3489  -15.6310 N   0  0  0  0  0  0  0  0  0  0  0  0
   19.1801  -22.0440  -14.4309 C   0  0  2  0  0  0  0  0  0  0  0  0
   18.1748  -22.0044  -13.3988 C   0  0  0  0  0  0  0  0  0  0  0  0
   16.8643  -22.4056  -13.9497 C   0  0  0  0  0  0  0  0  0  0  0  0
   15.7124  -22.3667  -13.0083 C   0  0  0  0  0  0  0  0  0  0  0  0
   14.6696  -23.3771  -13.2478 O   0  0  0  0  0  0  0  0  0  0  0  0
   14.1644  -23.6512  -14.3776 C   0  0  0  0  0  0  0  0  0  0  0  0
   18.6354  -22.8385  -12.2681 O   0  0  0  0  0  0  0  0  0  0  0  0
   18.2354  -22.6583  -10.9495 O   0  0  0  0  0  0  0  0  0  0  0  0
   14.1841  -24.1027  -12.1603 O   0  0  0  0  0  0  0  0  0  0  0  0
  2  1  1  6
  3  4  1  0
  3  2  1  0
  4  5  2  0
  5  6  1  0
  7  6  1  0
  8  7  2  0
  9  8  1  0
 10 11  1  0
 10  9  2  0
 11 12  2  0
 12  4  1  0
 12  7  1  0
 13  2  1  0
 13 14  2  0
 15 16  1  0
 16 17  2  0
 18 16  1  0
 18 19  1  0
 20 21  1  0
 20 19  1  0
 22 21  1  1
 22 23  1  0
 23 13  1  0
 24 22  1  0
 25 24  2  0
 26 24  1  0
 27 26  1  0
 27 28  1  6
 29 28  1  0
 30 34  1  0
 30 29  1  0
 31 30  2  0
 32 27  1  0
 32 33  1  0
 35 32  2  0
M  END
$$$$
