WRE.pdb
     RDKit          3D

 35 36  0  0  1  0  0  0  0  0999 V2000
   26.1502  -20.4555  -17.3610 N   0  0  0  0  0  0  0  0  0  0  0  0
   26.3214  -19.8602  -16.0178 C   0  0  1  0  0  0  0  0  0  0  0  0
   25.9390  -18.4301  -16.1762 C   0  0  0  0  0  0  0  0  0  0  0  0
   26.7763  -17.6118  -17.0638 C   0  0  0  0  0  0  0  0  0  0  0  0
   26.4454  -16.6969  -18.0196 C   0  0  0  0  0  0  0  0  0  0  0  0
   27.5836  -16.2211  -18.5606 N   0  0  0  0  0  0  0  0  0  0  0  0
   28.6177  -16.8094  -17.9720 C   0  0  0  0  0  0  0  0  0  0  0  0
   29.9866  -16.6841  -18.1445 C   0  0  0  0  0  0  0  0  0  0  0  0
   30.8742  -17.4322  -17.3760 C   0  0  0  0  0  0  0  0  0  0  0  0
   30.4144  -18.3148  -16.4272 C   0  0  0  0  0  0  0  0  0  0  0  0
   29.0570  -18.4475  -16.2485 C   0  0  0  0  0  0  0  0  0  0  0  0
   28.1803  -17.6977  -17.0183 C   0  0  0  0  0  0  0  0  0  0  0  0
   25.4539  -20.6472  -15.1058 C   0  0  0  0  0  0  0  0  0  0  0  0
   24.3624  -21.1743  -15.5084 O   0  0  0  0  0  0  0  0  0  0  0  0
   29.1019  -22.6911  -10.2365 N   0  0  0  0  0  0  0  0  0  0  0  0
   29.2982  -21.2950  -10.0976 C   0  0  0  0  0  0  0  0  0  0  0  0
   30.4380  -20.7476  -10.4167 N   0  0  0  0  0  0  0  0  0  0  0  0
   28.2406  -20.4940   -9.6086 N   0  0  0  0  0  0  0  0  0  0  0  0
   26.8758  -20.9767   -9.6144 C   0  0  0  0  0  0  0  0  0  0  0  0
   26.1878  -20.6356  -10.9042 C   0  0  0  0  0  0  0  0  0  0  0  0
   25.4600  -21.8202  -11.4930 C   0  0  0  0  0  0  0  0  0  0  0  0
   24.8272  -21.4878  -12.7885 C   0  0  2  0  0  0  0  0  0  0  0  0
   25.7678  -20.8718  -13.7343 N   0  0  0  0  0  0  0  0  0  0  0  0
   23.5525  -20.7798  -12.7825 C   0  0  0  0  0  0  0  0  0  0  0  0
   23.4368  -19.5380  -12.5731 O   0  0  0  0  0  0  0  0  0  0  0  0
   30.6356  -19.7481  -10.2558 N   0  0  0  0  0  0  0  0  0  0  0  0
   22.3200  -21.4726  -13.0155 C   0  0  1  0  0  0  0  0  0  0  0  0
   21.0717  -20.7535  -13.0623 C   0  0  0  0  0  0  0  0  0  0  0  0
   20.7453  -20.3916  -14.4566 C   0  0  0  0  0  0  0  0  0  0  0  0
   19.4562  -19.6790  -14.6693 C   0  0  0  0  0  0  0  0  0  0  0  0
   19.1052  -19.4194  -16.0748 O   0  0  0  0  0  0  0  0  0  0  0  0
   17.9501  -19.5614  -16.5770 C   0  0  0  0  0  0  0  0  0  0  0  0
   20.0378  -21.5717  -12.3930 O   0  0  0  0  0  0  0  0  0  0  0  0
   18.8308  -21.0722  -11.9190 O   0  0  0  0  0  0  0  0  0  0  0  0
   20.1070  -18.9815  -16.9405 O   0  0  0  0  0  0  0  0  0  0  0  0
  2  1  1  6
  3  4  1  0
  3  2  1  0
  4  5  2  0
  5  6  1  0
  7  6  1  0
  8  7  2  0
  9  8  1  0
 10 11  1  0
 10  9  2  0
 11 12  2  0
 12  4  1  0
 12  7  1  0
 13  2  1  0
 13 14  2  0
 15 16  1  0
 16 17  2  0
 18 16  1  0
 18 19  1  0
 20 21  1  0
 20 19  1  0
 22 21  1  1
 22 23  1  0
 23 13  1  0
 24 22  1  0
 25 24  2  0
 26 24  1  0
 27 26  1  0
 27 28  1  1
 29 28  1  0
 30 34  1  0
 30 29  1  0
 31 30  2  0
 32 27  1  0
 32 33  1  0
 35 32  2  0
M  END
$$$$
