WRE.pdb
     RDKit          3D

 35 36  0  0  1  0  0  0  0  0999 V2000
   26.0403  -18.8067  -10.8039 N   0  0  0  0  0  0  0  0  0  0  0  0
   26.3056  -20.2369  -11.0728 C   0  0  1  0  0  0  0  0  0  0  0  0
   25.7326  -20.9633   -9.9064 C   0  0  0  0  0  0  0  0  0  0  0  0
   26.1875  -20.5453   -8.5734 C   0  0  0  0  0  0  0  0  0  0  0  0
   25.5425  -19.8832   -7.5706 C   0  0  0  0  0  0  0  0  0  0  0  0
   26.4004  -19.7347   -6.5427 N   0  0  0  0  0  0  0  0  0  0  0  0
   27.5630  -20.2847   -6.8706 C   0  0  0  0  0  0  0  0  0  0  0  0
   28.7624  -20.4109   -6.1887 C   0  0  0  0  0  0  0  0  0  0  0  0
   29.8515  -21.0517   -6.7730 C   0  0  0  0  0  0  0  0  0  0  0  0
   29.7642  -21.5746   -8.0417 C   0  0  0  0  0  0  0  0  0  0  0  0
   28.5782  -21.4540   -8.7278 C   0  0  0  0  0  0  0  0  0  0  0  0
   27.4984  -20.8144   -8.1375 C   0  0  0  0  0  0  0  0  0  0  0  0
   25.6645  -20.5355  -12.3780 C   0  0  0  0  0  0  0  0  0  0  0  0
   24.5144  -20.0701  -12.6816 O   0  0  0  0  0  0  0  0  0  0  0  0
   28.9192  -24.4702  -16.7392 N   0  0  0  0  0  0  0  0  0  0  0  0
   30.0246  -23.7333  -16.2471 C   0  0  0  0  0  0  0  0  0  0  0  0
   31.0967  -24.3435  -15.8242 N   0  0  0  0  0  0  0  0  0  0  0  0
   29.9564  -22.3213  -16.2197 N   0  0  0  0  0  0  0  0  0  0  0  0
   28.7999  -21.6206  -16.7369 C   0  0  0  0  0  0  0  0  0  0  0  0
   27.8441  -21.2686  -15.6344 C   0  0  0  0  0  0  0  0  0  0  0  0
   26.5760  -22.0859  -15.6964 C   0  0  0  0  0  0  0  0  0  0  0  0
   25.6142  -21.6884  -14.6446 C   0  0  2  0  0  0  0  0  0  0  0  0
   26.2735  -21.3499  -13.3760 N   0  0  0  0  0  0  0  0  0  0  0  0
   24.4414  -22.5246  -14.4178 C   0  0  0  0  0  0  0  0  0  0  0  0
   24.4424  -23.5574  -13.6880 O   0  0  0  0  0  0  0  0  0  0  0  0
   31.9014  -23.8354  -15.4263 N   0  0  0  0  0  0  0  0  0  0  0  0
   23.1836  -22.2175  -15.0316 C   0  0  1  0  0  0  0  0  0  0  0  0
   22.0142  -23.0099  -14.7446 C   0  0  0  0  0  0  0  0  0  0  0  0
   21.0128  -22.1966  -14.0253 C   0  0  0  0  0  0  0  0  0  0  0  0
   19.7584  -22.8925  -13.6289 C   0  0  0  0  0  0  0  0  0  0  0  0
   18.7710  -22.0578  -12.9261 O   0  0  0  0  0  0  0  0  0  0  0  0
   18.6381  -21.9876  -11.6675 C   0  0  0  0  0  0  0  0  0  0  0  0
   21.5226  -23.5904  -16.0126 O   0  0  0  0  0  0  0  0  0  0  0  0
   20.7980  -24.7727  -16.1024 O   0  0  0  0  0  0  0  0  0  0  0  0
   17.9026  -21.2735  -13.6849 O   0  0  0  0  0  0  0  0  0  0  0  0
  2  1  1  1
  3  4  1  0
  3  2  1  0
  4  5  2  0
  5  6  1  0
  7  6  1  0
  8  7  2  0
  9  8  1  0
 10 11  1  0
 10  9  2  0
 11 12  2  0
 12  4  1  0
 12  7  1  0
 13  2  1  0
 13 14  2  0
 15 16  1  0
 16 17  2  0
 18 16  1  0
 18 19  1  0
 20 21  1  0
 20 19  1  0
 22 21  1  6
 22 23  1  0
 23 13  1  0
 24 22  1  0
 25 24  2  0
 26 24  1  0
 27 26  1  0
 27 28  1  6
 29 28  1  0
 30 34  1  0
 30 29  1  0
 31 30  2  0
 32 27  1  0
 32 33  1  0
 35 32  2  0
M  END
$$$$
