WRE.pdb
     RDKit          3D

 35 36  0  0  1  0  0  0  0  0999 V2000
   22.0718  -14.7437  -19.8178 N   0  0  0  0  0  0  0  0  0  0  0  0
   21.8784  -14.7806  -18.3518 C   0  0  1  0  0  0  0  0  0  0  0  0
   20.4418  -14.4510  -18.1420 C   0  0  0  0  0  0  0  0  0  0  0  0
   20.0525  -13.0430  -18.2982 C   0  0  0  0  0  0  0  0  0  0  0  0
   19.9939  -12.2441  -19.4021 C   0  0  0  0  0  0  0  0  0  0  0  0
   19.5774  -11.0223  -19.0173 N   0  0  0  0  0  0  0  0  0  0  0  0
   19.3722  -11.0315  -17.7060 C   0  0  0  0  0  0  0  0  0  0  0  0
   18.9440  -10.0560  -16.8203 C   0  0  0  0  0  0  0  0  0  0  0  0
   18.8058  -10.3351  -15.4634 C   0  0  0  0  0  0  0  0  0  0  0  0
   19.0915  -11.5857  -14.9684 C   0  0  0  0  0  0  0  0  0  0  0  0
   19.5181  -12.5613  -15.8391 C   0  0  0  0  0  0  0  0  0  0  0  0
   19.6524  -12.2742  -17.1893 C   0  0  0  0  0  0  0  0  0  0  0  0
   22.2825  -16.1416  -17.9180 C   0  0  0  0  0  0  0  0  0  0  0  0
   21.7974  -17.1900  -18.4628 O   0  0  0  0  0  0  0  0  0  0  0  0
   25.6989  -21.8527  -13.5618 N   0  0  0  0  0  0  0  0  0  0  0  0
   26.5882  -21.8951  -14.6638 C   0  0  0  0  0  0  0  0  0  0  0  0
   26.9547  -23.0350  -15.1805 N   0  0  0  0  0  0  0  0  0  0  0  0
   27.0771  -20.6833  -15.2039 N   0  0  0  0  0  0  0  0  0  0  0  0
   26.5369  -19.4079  -14.7828 C   0  0  0  0  0  0  0  0  0  0  0  0
   25.1232  -19.2370  -15.2576 C   0  0  0  0  0  0  0  0  0  0  0  0
   24.8849  -17.8732  -15.8603 C   0  0  0  0  0  0  0  0  0  0  0  0
   23.4887  -17.7134  -16.3231 C   0  0  2  0  0  0  0  0  0  0  0  0
   23.2277  -16.3784  -16.8784 N   0  0  0  0  0  0  0  0  0  0  0  0
   22.4072  -18.1331  -15.4398 C   0  0  0  0  0  0  0  0  0  0  0  0
   22.1436  -17.5775  -14.3348 O   0  0  0  0  0  0  0  0  0  0  0  0
   27.6271  -23.0979  -15.9602 N   0  0  0  0  0  0  0  0  0  0  0  0
   21.5584  -19.2360  -15.7813 C   0  0  2  0  0  0  0  0  0  0  0  0
   20.5004  -19.6496  -14.8942 C   0  0  0  0  0  0  0  0  0  0  0  0
   19.2289  -19.0074  -15.2848 C   0  0  0  0  0  0  0  0  0  0  0  0
   18.0163  -19.4329  -14.5344 C   0  0  0  0  0  0  0  0  0  0  0  0
   16.7453  -18.8763  -15.0249 O   0  0  0  0  0  0  0  0  0  0  0  0
   16.6080  -17.7406  -15.5709 C   0  0  0  0  0  0  0  0  0  0  0  0
   20.4522  -21.1275  -14.8844 O   0  0  0  0  0  0  0  0  0  0  0  0
   19.8620  -21.8841  -13.8793 O   0  0  0  0  0  0  0  0  0  0  0  0
   15.5874  -19.6415  -14.8886 O   0  0  0  0  0  0  0  0  0  0  0  0
  2  1  1  6
  3  4  1  0
  3  2  1  0
  4  5  2  0
  5  6  1  0
  7  6  1  0
  8  7  2  0
  9  8  1  0
 10 11  1  0
 10  9  2  0
 11 12  2  0
 12  4  1  0
 12  7  1  0
 13  2  1  0
 13 14  2  0
 15 16  1  0
 16 17  2  0
 18 16  1  0
 18 19  1  0
 20 21  1  0
 20 19  1  0
 22 21  1  1
 22 23  1  0
 23 13  1  0
 24 22  1  0
 25 24  2  0
 26 24  1  0
 27 26  1  0
 27 28  1  6
 29 28  1  0
 30 34  1  0
 30 29  1  0
 31 30  2  0
 32 27  1  0
 32 33  1  0
 35 32  2  0
M  END
$$$$
