GKL.pdb
     RDKit          3D

 22 21  0  0  1  0  0  0  0  0999 V2000
   25.8572  -14.5352  -15.5632 N   0  0  0  0  0  0  0  0  0  0  0  0
   25.8875  -15.7000  -14.7298 C   0  0  0  0  0  0  0  0  0  0  0  0
   25.0017  -16.7799  -15.2527 C   0  0  0  0  0  0  0  0  0  0  0  0
   24.0357  -16.4363  -16.0065 O   0  0  0  0  0  0  0  0  0  0  0  0
   25.2622  -18.1153  -14.8995 N   0  0  0  0  0  0  0  0  0  0  0  0
   24.3402  -19.1580  -15.3281 C   0  0  1  0  0  0  0  0  0  0  0  0
   25.0367  -20.4833  -15.1219 C   0  0  0  0  0  0  0  0  0  0  0  0
   25.8055  -20.8777  -16.3362 C   0  0  0  0  0  0  0  0  0  0  0  0
   27.1873  -21.4061  -15.9951 C   0  0  0  0  0  0  0  0  0  0  0  0
   27.8763  -21.7621  -17.3193 C   0  0  0  0  0  0  0  0  0  0  0  0
   29.2174  -22.2059  -17.0412 N   0  0  0  0  0  0  0  0  0  0  0  0
   23.0809  -19.0912  -14.5451 C   0  0  0  0  0  0  0  0  0  0  0  0
   23.0904  -18.9302  -13.3120 O   0  0  0  0  0  0  0  0  0  0  0  0
   19.2236  -17.4823  -12.4857 C   0  0  0  0  0  0  0  0  0  0  0  0
   19.6532  -16.7243  -13.7343 C   0  0  2  0  0  0  0  0  0  0  0  0
   18.7208  -15.6323  -14.1337 C   0  0  0  0  0  0  0  0  0  0  0  0
   20.1847  -17.5883  -14.8081 C   0  0  0  0  0  0  0  0  0  0  0  0
   20.5397  -18.9872  -14.5326 C   0  0  2  0  0  0  0  0  0  0  0  0
   21.8419  -19.2115  -15.2013 N   0  0  0  0  0  0  0  0  0  0  0  0
   19.5986  -20.0425  -14.8528 C   0  0  0  0  0  0  0  0  0  0  0  0
   19.6079  -20.5628  -15.9971 O   0  0  0  0  0  0  0  0  0  0  0  0
   18.6572  -20.5507  -13.9835 O   0  0  0  0  0  0  0  0  0  0  0  0
  2  1  1  0
  3  2  1  0
  4  3  2  0
  5  3  1  0
  6  5  1  0
  6  7  1  1
  8  7  1  0
  9  8  1  0
 10  9  1  0
 11 10  1  0
 12  6  1  0
 12 19  1  0
 13 12  2  0
 15 14  1  1
 16 15  1  0
 17 15  1  0
 18 17  1  6
 18 19  1  0
 18 20  1  0
 20 21  2  0
 20 22  1  0
M  END
$$$$
