GKL.pdb
     RDKit          3D

 22 21  0  0  1  0  0  0  0  0999 V2000
   28.2619  -21.9917  -17.8203 N   0  0  0  0  0  0  0  0  0  0  0  0
   28.0135  -22.5713  -16.5340 C   0  0  0  0  0  0  0  0  0  0  0  0
   26.5632  -22.5513  -16.1868 C   0  0  0  0  0  0  0  0  0  0  0  0
   25.7301  -22.4392  -17.1422 O   0  0  0  0  0  0  0  0  0  0  0  0
   26.1764  -22.6554  -14.8394 N   0  0  0  0  0  0  0  0  0  0  0  0
   24.7592  -22.7001  -14.5069 C   0  0  1  0  0  0  0  0  0  0  0  0
   24.6208  -23.5256  -13.2486 C   0  0  0  0  0  0  0  0  0  0  0  0
   23.1884  -23.6885  -12.8710 C   0  0  0  0  0  0  0  0  0  0  0  0
   22.4525  -24.6351  -13.8024 C   0  0  0  0  0  0  0  0  0  0  0  0
   20.9840  -24.6586  -13.3574 C   0  0  0  0  0  0  0  0  0  0  0  0
   20.2194  -25.4129  -14.3163 N   0  0  0  0  0  0  0  0  0  0  0  0
   24.2302  -21.3282  -14.3041 C   0  0  0  0  0  0  0  0  0  0  0  0
   24.7919  -20.5213  -13.5424 O   0  0  0  0  0  0  0  0  0  0  0  0
   23.5331  -18.6760  -18.2349 C   0  0  0  0  0  0  0  0  0  0  0  0
   22.5272  -19.2488  -17.2458 C   0  0  2  0  0  0  0  0  0  0  0  0
   21.1342  -19.3240  -17.7700 C   0  0  0  0  0  0  0  0  0  0  0  0
   22.7053  -18.7663  -15.8611 C   0  0  0  0  0  0  0  0  0  0  0  0
   22.3794  -19.6343  -14.7211 C   0  0  2  0  0  0  0  0  0  0  0  0
   23.0677  -20.9191  -14.9833 N   0  0  0  0  0  0  0  0  0  0  0  0
   20.9928  -19.8486  -14.3562 C   0  0  0  0  0  0  0  0  0  0  0  0
   20.4675  -20.9774  -14.5302 O   0  0  0  0  0  0  0  0  0  0  0  0
   20.1630  -18.8916  -13.8123 O   0  0  0  0  0  0  0  0  0  0  0  0
  2  1  1  0
  3  2  1  0
  4  3  2  0
  5  3  1  0
  6  5  1  0
  6  7  1  1
  8  7  1  0
  9  8  1  0
 10  9  1  0
 11 10  1  0
 12  6  1  0
 12 19  1  0
 13 12  2  0
 15 14  1  6
 16 15  1  0
 17 15  1  0
 18 17  1  6
 18 19  1  0
 18 20  1  0
 20 21  2  0
 20 22  1  0
M  END
$$$$
