GKL.pdb
     RDKit          3D

 22 21  0  0  1  0  0  0  0  0999 V2000
   28.5212  -17.7144  -15.5887 N   0  0  0  0  0  0  0  0  0  0  0  0
   28.6685  -18.8969  -14.7935 C   0  0  0  0  0  0  0  0  0  0  0  0
   27.4863  -19.1250  -13.9134 C   0  0  0  0  0  0  0  0  0  0  0  0
   27.0071  -18.1194  -13.2981 O   0  0  0  0  0  0  0  0  0  0  0  0
   26.9538  -20.4207  -13.7979 N   0  0  0  0  0  0  0  0  0  0  0  0
   25.8635  -20.6618  -12.8630 C   0  0  1  0  0  0  0  0  0  0  0  0
   25.0229  -21.7799  -13.4348 C   0  0  0  0  0  0  0  0  0  0  0  0
   23.5719  -21.5285  -13.2060 C   0  0  0  0  0  0  0  0  0  0  0  0
   22.9134  -20.8440  -14.3905 C   0  0  0  0  0  0  0  0  0  0  0  0
   21.4585  -20.5556  -13.9962 C   0  0  0  0  0  0  0  0  0  0  0  0
   20.8381  -19.7829  -15.0407 N   0  0  0  0  0  0  0  0  0  0  0  0
   26.3969  -21.0270  -11.5268 C   0  0  0  0  0  0  0  0  0  0  0  0
   27.2821  -21.8903  -11.3943 O   0  0  0  0  0  0  0  0  0  0  0  0
   27.3502  -18.5934   -6.2023 C   0  0  0  0  0  0  0  0  0  0  0  0
   27.4298  -19.9029   -6.9751 C   0  0  2  0  0  0  0  0  0  0  0  0
   28.6552  -20.7024   -6.6922 C   0  0  0  0  0  0  0  0  0  0  0  0
   27.0011  -19.7951   -8.3846 C   0  0  0  0  0  0  0  0  0  0  0  0
   26.1841  -20.8509   -8.9984 C   0  0  2  0  0  0  0  0  0  0  0  0
   25.8977  -20.3890  -10.3761 N   0  0  0  0  0  0  0  0  0  0  0  0
   24.9754  -21.2993   -8.3353 C   0  0  0  0  0  0  0  0  0  0  0  0
   23.8559  -20.8817   -8.7259 O   0  0  0  0  0  0  0  0  0  0  0  0
   24.9373  -22.1783   -7.2740 O   0  0  0  0  0  0  0  0  0  0  0  0
  2  1  1  0
  3  2  1  0
  4  3  2  0
  5  3  1  0
  6  5  1  0
  6  7  1  6
  8  7  1  0
  9  8  1  0
 10  9  1  0
 11 10  1  0
 12  6  1  0
 12 19  1  0
 13 12  2  0
 15 14  1  6
 16 15  1  0
 17 15  1  0
 18 17  1  1
 18 19  1  0
 18 20  1  0
 20 21  2  0
 20 22  1  0
M  END
$$$$
