GKL.pdb
     RDKit          3D

 22 21  0  0  1  0  0  0  0  0999 V2000
   19.8402  -22.8635  -13.7257 N   0  0  0  0  0  0  0  0  0  0  0  0
   20.4246  -22.6758  -15.0202 C   0  0  0  0  0  0  0  0  0  0  0  0
   21.3831  -21.5334  -15.0362 C   0  0  0  0  0  0  0  0  0  0  0  0
   20.9615  -20.4166  -15.4771 O   0  0  0  0  0  0  0  0  0  0  0  0
   22.6952  -21.7291  -14.5714 N   0  0  0  0  0  0  0  0  0  0  0  0
   23.6190  -20.6034  -14.5518 C   0  0  1  0  0  0  0  0  0  0  0  0
   24.7705  -20.9854  -13.6506 C   0  0  0  0  0  0  0  0  0  0  0  0
   24.5076  -20.5723  -12.2431 C   0  0  0  0  0  0  0  0  0  0  0  0
   25.6784  -20.8779  -11.3261 C   0  0  0  0  0  0  0  0  0  0  0  0
   25.2766  -20.4319   -9.9137 C   0  0  0  0  0  0  0  0  0  0  0  0
   26.3747  -20.6824   -9.0169 N   0  0  0  0  0  0  0  0  0  0  0  0
   24.0956  -20.2992  -15.9242 C   0  0  0  0  0  0  0  0  0  0  0  0
   24.2780  -21.1991  -16.7630 O   0  0  0  0  0  0  0  0  0  0  0  0
   21.7162  -18.4058  -20.3265 C   0  0  0  0  0  0  0  0  0  0  0  0
   23.1523  -18.4584  -19.8232 C   0  0  2  0  0  0  0  0  0  0  0  0
   24.0761  -19.2314  -20.7007 C   0  0  0  0  0  0  0  0  0  0  0  0
   23.2703  -18.6653  -18.3654 C   0  0  0  0  0  0  0  0  0  0  0  0
   24.5730  -18.5395  -17.6974 C   0  0  2  0  0  0  0  0  0  0  0  0
   24.3505  -18.9664  -16.2969 N   0  0  0  0  0  0  0  0  0  0  0  0
   25.2889  -17.2800  -17.7529 C   0  0  0  0  0  0  0  0  0  0  0  0
   26.2667  -17.1502  -18.5322 O   0  0  0  0  0  0  0  0  0  0  0  0
   24.9839  -16.1653  -17.0015 O   0  0  0  0  0  0  0  0  0  0  0  0
  2  1  1  0
  3  2  1  0
  4  3  2  0
  5  3  1  0
  6  5  1  0
  6  7  1  1
  8  7  1  0
  9  8  1  0
 10  9  1  0
 11 10  1  0
 12  6  1  0
 12 19  1  0
 13 12  2  0
 15 14  1  6
 16 15  1  0
 17 15  1  0
 18 17  1  1
 18 19  1  0
 18 20  1  0
 20 21  2  0
 20 22  1  0
M  END
$$$$
