GKL.pdb
     RDKit          3D

 22 21  0  0  1  0  0  0  0  0999 V2000
   24.2960  -25.7712  -14.7411 N   0  0  0  0  0  0  0  0  0  0  0  0
   25.1425  -24.6209  -14.8532 C   0  0  0  0  0  0  0  0  0  0  0  0
   24.4977  -23.4000  -14.2894 C   0  0  0  0  0  0  0  0  0  0  0  0
   23.2260  -23.3509  -14.2913 O   0  0  0  0  0  0  0  0  0  0  0  0
   25.3049  -22.3657  -13.7850 N   0  0  0  0  0  0  0  0  0  0  0  0
   24.6871  -21.1056  -13.3960 C   0  0  1  0  0  0  0  0  0  0  0  0
   25.7269  -20.3127  -12.6382 C   0  0  0  0  0  0  0  0  0  0  0  0
   25.8592  -20.8056  -11.2380 C   0  0  0  0  0  0  0  0  0  0  0  0
   24.5729  -20.6439  -10.4478 C   0  0  0  0  0  0  0  0  0  0  0  0
   24.8791  -21.0399   -8.9971 C   0  0  0  0  0  0  0  0  0  0  0  0
   23.6642  -20.9650   -8.2282 N   0  0  0  0  0  0  0  0  0  0  0  0
   24.2217  -20.3639  -14.5945 C   0  0  0  0  0  0  0  0  0  0  0  0
   24.9698  -20.1683  -15.5686 O   0  0  0  0  0  0  0  0  0  0  0  0
   20.8939  -21.3190  -18.6742 C   0  0  0  0  0  0  0  0  0  0  0  0
   21.9210  -20.2785  -18.2488 C   0  0  2  0  0  0  0  0  0  0  0  0
   22.9280  -19.9538  -19.2982 C   0  0  0  0  0  0  0  0  0  0  0  0
   22.4135  -20.4512  -16.8670 C   0  0  0  0  0  0  0  0  0  0  0  0
   22.2661  -19.3707  -15.8822 C   0  0  2  0  0  0  0  0  0  0  0  0
   22.9064  -19.8658  -14.6420 N   0  0  0  0  0  0  0  0  0  0  0  0
   20.9517  -18.8231  -15.6095 C   0  0  0  0  0  0  0  0  0  0  0  0
   20.3185  -19.1949  -14.5892 O   0  0  0  0  0  0  0  0  0  0  0  0
   20.3057  -17.8933  -16.3959 O   0  0  0  0  0  0  0  0  0  0  0  0
  2  1  1  0
  3  2  1  0
  4  3  2  0
  5  3  1  0
  6  5  1  0
  6  7  1  6
  8  7  1  0
  9  8  1  0
 10  9  1  0
 11 10  1  0
 12  6  1  0
 12 19  1  0
 13 12  2  0
 15 14  1  6
 16 15  1  0
 17 15  1  0
 18 17  1  6
 18 19  1  0
 18 20  1  0
 20 21  2  0
 20 22  1  0
M  END
$$$$
