GKL.pdb
     RDKit          3D

 22 21  0  0  1  0  0  0  0  0999 V2000
   25.5110  -29.1348  -20.0101 N   0  0  0  0  0  0  0  0  0  0  0  0
   26.5961  -29.1361  -19.0747 C   0  0  0  0  0  0  0  0  0  0  0  0
   26.7261  -30.4479  -18.3770 C   0  0  0  0  0  0  0  0  0  0  0  0
   25.9352  -31.3818  -18.7259 O   0  0  0  0  0  0  0  0  0  0  0  0
   27.7012  -30.6017  -17.3764 N   0  0  0  0  0  0  0  0  0  0  0  0
   27.8546  -31.8949  -16.7245 C   0  0  1  0  0  0  0  0  0  0  0  0
   29.2442  -31.9350  -16.1317 C   0  0  0  0  0  0  0  0  0  0  0  0
   30.2826  -31.8713  -17.1988 C   0  0  0  0  0  0  0  0  0  0  0  0
   31.6906  -31.8607  -16.6309 C   0  0  0  0  0  0  0  0  0  0  0  0
   32.6596  -31.8713  -17.8208 C   0  0  0  0  0  0  0  0  0  0  0  0
   34.0082  -31.7919  -17.3230 N   0  0  0  0  0  0  0  0  0  0  0  0
   26.8222  -32.0716  -15.6727 C   0  0  0  0  0  0  0  0  0  0  0  0
   26.5475  -31.1603  -14.8724 O   0  0  0  0  0  0  0  0  0  0  0  0
   22.3909  -34.8162  -13.9018 C   0  0  0  0  0  0  0  0  0  0  0  0
   22.5174  -33.4394  -14.5397 C   0  0  2  0  0  0  0  0  0  0  0  0
   21.2820  -32.9737  -15.2309 C   0  0  0  0  0  0  0  0  0  0  0  0
   23.8051  -33.2121  -15.2266 C   0  0  0  0  0  0  0  0  0  0  0  0
   25.0731  -33.5488  -14.5649 C   0  0  2  0  0  0  0  0  0  0  0  0
   26.1316  -33.2933  -15.5685 N   0  0  0  0  0  0  0  0  0  0  0  0
   25.2379  -34.8518  -13.9509 C   0  0  0  0  0  0  0  0  0  0  0  0
   25.7314  -35.7982  -14.6150 O   0  0  0  0  0  0  0  0  0  0  0  0
   24.8915  -35.1620  -12.6532 O   0  0  0  0  0  0  0  0  0  0  0  0
  2  1  1  0
  3  2  1  0
  4  3  2  0
  5  3  1  0
  6  5  1  0
  6  7  1  1
  8  7  1  0
  9  8  1  0
 10  9  1  0
 11 10  1  0
 12  6  1  0
 12 19  1  0
 13 12  2  0
 15 14  1  6
 16 15  1  0
 17 15  1  0
 18 17  1  6
 18 19  1  0
 18 20  1  0
 20 21  2  0
 20 22  1  0
M  END
$$$$
