GKL.pdb
     RDKit          3D

 22 21  0  0  1  0  0  0  0  0999 V2000
   17.4121  -15.0030  -16.1531 N   0  0  0  0  0  0  0  0  0  0  0  0
   16.8739  -13.6794  -16.2571 C   0  0  0  0  0  0  0  0  0  0  0  0
   17.9108  -12.6892  -16.6677 C   0  0  0  0  0  0  0  0  0  0  0  0
   19.1228  -13.0769  -16.6824 O   0  0  0  0  0  0  0  0  0  0  0  0
   17.5176  -11.3857  -17.0174 N   0  0  0  0  0  0  0  0  0  0  0  0
   18.5258  -10.4326  -17.4603 C   0  0  1  0  0  0  0  0  0  0  0  0
   17.7977   -9.2905  -18.1307 C   0  0  0  0  0  0  0  0  0  0  0  0
   17.2893   -9.6947  -19.4720 C   0  0  0  0  0  0  0  0  0  0  0  0
   16.3098   -8.6852  -20.0436 C   0  0  0  0  0  0  0  0  0  0  0  0
   15.7989   -9.2527  -21.3748 C   0  0  0  0  0  0  0  0  0  0  0  0
   14.8695   -8.3174  -21.9529 N   0  0  0  0  0  0  0  0  0  0  0  0
   19.3256   -9.9497  -16.3069 C   0  0  0  0  0  0  0  0  0  0  0  0
   18.8101   -9.7660  -15.1902 O   0  0  0  0  0  0  0  0  0  0  0  0
   25.2492  -10.3801  -14.9462 C   0  0  0  0  0  0  0  0  0  0  0  0
   23.8918   -9.8604  -14.4925 C   0  0  2  0  0  0  0  0  0  0  0  0
   23.5275  -10.2460  -13.0998 C   0  0  0  0  0  0  0  0  0  0  0  0
   22.8366   -9.9595  -15.5214 C   0  0  0  0  0  0  0  0  0  0  0  0
   21.5750   -9.2217  -15.3694 C   0  0  2  0  0  0  0  0  0  0  0  0
   20.6993   -9.6903  -16.4679 N   0  0  0  0  0  0  0  0  0  0  0  0
   21.5950   -7.7739  -15.2977 C   0  0  0  0  0  0  0  0  0  0  0  0
   21.4950   -7.0941  -16.3504 O   0  0  0  0  0  0  0  0  0  0  0  0
   21.7166   -7.0430  -14.1353 O   0  0  0  0  0  0  0  0  0  0  0  0
  2  1  1  0
  3  2  1  0
  4  3  2  0
  5  3  1  0
  6  5  1  0
  6  7  1  1
  8  7  1  0
  9  8  1  0
 10  9  1  0
 11 10  1  0
 12  6  1  0
 12 19  1  0
 13 12  2  0
 15 14  1  6
 16 15  1  0
 17 15  1  0
 18 17  1  6
 18 19  1  0
 18 20  1  0
 20 21  2  0
 20 22  1  0
M  END
$$$$
