GKL.pdb
     RDKit          3D

 22 21  0  0  1  0  0  0  0  0999 V2000
   18.6016  -21.4093  -14.1698 N   0  0  0  0  0  0  0  0  0  0  0  0
   19.6846  -20.4726  -14.1227 C   0  0  0  0  0  0  0  0  0  0  0  0
   21.0104  -21.1548  -14.1565 C   0  0  0  0  0  0  0  0  0  0  0  0
   21.3371  -21.8582  -13.1475 O   0  0  0  0  0  0  0  0  0  0  0  0
   21.8367  -20.9982  -15.2828 N   0  0  0  0  0  0  0  0  0  0  0  0
   23.2045  -21.4961  -15.2373 C   0  0  1  0  0  0  0  0  0  0  0  0
   23.7434  -21.4533  -16.6486 C   0  0  0  0  0  0  0  0  0  0  0  0
   24.9232  -22.3514  -16.7977 C   0  0  0  0  0  0  0  0  0  0  0  0
   24.6637  -23.7391  -16.2389 C   0  0  0  0  0  0  0  0  0  0  0  0
   25.9225  -24.5766  -16.5017 C   0  0  0  0  0  0  0  0  0  0  0  0
   25.7026  -25.9127  -16.0125 N   0  0  0  0  0  0  0  0  0  0  0  0
   24.0299  -20.6633  -14.3271 C   0  0  0  0  0  0  0  0  0  0  0  0
   23.5326  -19.7342  -13.6668 O   0  0  0  0  0  0  0  0  0  0  0  0
   25.7628  -21.4412   -9.4435 C   0  0  0  0  0  0  0  0  0  0  0  0
   26.1729  -20.4738  -10.5454 C   0  0  2  0  0  0  0  0  0  0  0  0
   26.2269  -19.0483  -10.1140 C   0  0  0  0  0  0  0  0  0  0  0  0
   25.5577  -20.7622  -11.8570 C   0  0  0  0  0  0  0  0  0  0  0  0
   26.2401  -20.3801  -13.1010 C   0  0  2  0  0  0  0  0  0  0  0  0
   25.4075  -20.9209  -14.1998 N   0  0  0  0  0  0  0  0  0  0  0  0
   27.6369  -20.7210  -13.2867 C   0  0  0  0  0  0  0  0  0  0  0  0
   27.9492  -21.8406  -13.7654 O   0  0  0  0  0  0  0  0  0  0  0  0
   28.6981  -19.8976  -12.9764 O   0  0  0  0  0  0  0  0  0  0  0  0
  2  1  1  0
  3  2  1  0
  4  3  2  0
  5  3  1  0
  6  5  1  0
  6  7  1  6
  8  7  1  0
  9  8  1  0
 10  9  1  0
 11 10  1  0
 12  6  1  0
 12 19  1  0
 13 12  2  0
 15 14  1  1
 16 15  1  0
 17 15  1  0
 18 17  1  1
 18 19  1  0
 18 20  1  0
 20 21  2  0
 20 22  1  0
M  END
$$$$
