GKL.pdb
     RDKit          3D

 22 21  0  0  1  0  0  0  0  0999 V2000
   26.1694  -24.2603  -17.0906 N   0  0  0  0  0  0  0  0  0  0  0  0
   27.0037  -25.1907  -16.3901 C   0  0  0  0  0  0  0  0  0  0  0  0
   27.1162  -26.4897  -17.1140 C   0  0  0  0  0  0  0  0  0  0  0  0
   26.4198  -26.6389  -18.1686 O   0  0  0  0  0  0  0  0  0  0  0  0
   27.9732  -27.4849  -16.6130 N   0  0  0  0  0  0  0  0  0  0  0  0
   28.1316  -28.7278  -17.3553 C   0  0  1  0  0  0  0  0  0  0  0  0
   29.5686  -29.1664  -17.1919 C   0  0  0  0  0  0  0  0  0  0  0  0
   30.4236  -28.6122  -18.2795 C   0  0  0  0  0  0  0  0  0  0  0  0
   31.8634  -29.0824  -18.1749 C   0  0  0  0  0  0  0  0  0  0  0  0
   32.6430  -28.4129  -19.3148 C   0  0  0  0  0  0  0  0  0  0  0  0
   34.0305  -28.7823  -19.2089 N   0  0  0  0  0  0  0  0  0  0  0  0
   27.1982  -29.7615  -16.8419 C   0  0  0  0  0  0  0  0  0  0  0  0
   27.1494  -30.0500  -15.6332 O   0  0  0  0  0  0  0  0  0  0  0  0
   22.3748  -30.9823  -15.6522 C   0  0  0  0  0  0  0  0  0  0  0  0
   23.3464  -30.1282  -16.4551 C   0  0  2  0  0  0  0  0  0  0  0  0
   22.8386  -28.7630  -16.7705 C   0  0  0  0  0  0  0  0  0  0  0  0
   24.0380  -30.8605  -17.5356 C   0  0  0  0  0  0  0  0  0  0  0  0
   25.3603  -31.4578  -17.3039 C   0  0  2  0  0  0  0  0  0  0  0  0
   26.3442  -30.4374  -17.7330 N   0  0  0  0  0  0  0  0  0  0  0  0
   25.6708  -32.7551  -17.8718 C   0  0  0  0  0  0  0  0  0  0  0  0
   26.4705  -32.8398  -18.8380 O   0  0  0  0  0  0  0  0  0  0  0  0
   25.1511  -33.9538  -17.4321 O   0  0  0  0  0  0  0  0  0  0  0  0
  2  1  1  0
  3  2  1  0
  4  3  2  0
  5  3  1  0
  6  5  1  0
  6  7  1  1
  8  7  1  0
  9  8  1  0
 10  9  1  0
 11 10  1  0
 12  6  1  0
 12 19  1  0
 13 12  2  0
 15 14  1  6
 16 15  1  0
 17 15  1  0
 18 17  1  6
 18 19  1  0
 18 20  1  0
 20 21  2  0
 20 22  1  0
M  END
$$$$
