GKL.pdb
     RDKit          3D

 22 21  0  0  1  0  0  0  0  0999 V2000
   22.5854  -15.1772  -17.2620 N   0  0  0  0  0  0  0  0  0  0  0  0
   23.1263  -15.4049  -15.9551 C   0  0  0  0  0  0  0  0  0  0  0  0
   23.8050  -16.7295  -15.8582 C   0  0  0  0  0  0  0  0  0  0  0  0
   23.1441  -17.7575  -16.2130 O   0  0  0  0  0  0  0  0  0  0  0  0
   25.1276  -16.7924  -15.3865 N   0  0  0  0  0  0  0  0  0  0  0  0
   25.6873  -18.0820  -15.0062 C   0  0  1  0  0  0  0  0  0  0  0  0
   27.1044  -17.8355  -14.5427 C   0  0  0  0  0  0  0  0  0  0  0  0
   27.8429  -19.1191  -14.3751 C   0  0  0  0  0  0  0  0  0  0  0  0
   27.8476  -19.9497  -15.6460 C   0  0  0  0  0  0  0  0  0  0  0  0
   28.7604  -21.1575  -15.3950 C   0  0  0  0  0  0  0  0  0  0  0  0
   28.8090  -21.9599  -16.5894 N   0  0  0  0  0  0  0  0  0  0  0  0
   24.8757  -18.7028  -13.9294 C   0  0  0  0  0  0  0  0  0  0  0  0
   24.3462  -18.0168  -13.0374 O   0  0  0  0  0  0  0  0  0  0  0  0
   26.0901  -21.9381  -11.2216 C   0  0  0  0  0  0  0  0  0  0  0  0
   25.6276  -20.5024  -11.0132 C   0  0  2  0  0  0  0  0  0  0  0  0
   25.9183  -19.9610   -9.6555 C   0  0  0  0  0  0  0  0  0  0  0  0
   24.2994  -20.2099  -11.5895 C   0  0  0  0  0  0  0  0  0  0  0  0
   23.8973  -20.7997  -12.8738 C   0  0  2  0  0  0  0  0  0  0  0  0
   24.6939  -20.0980  -13.9064 N   0  0  0  0  0  0  0  0  0  0  0  0
   22.4940  -20.8427  -13.2353 C   0  0  0  0  0  0  0  0  0  0  0  0
   21.6762  -21.4483  -12.4973 O   0  0  0  0  0  0  0  0  0  0  0  0
   21.9500  -20.2559  -14.3578 O   0  0  0  0  0  0  0  0  0  0  0  0
  2  1  1  0
  3  2  1  0
  4  3  2  0
  5  3  1  0
  6  5  1  0
  6  7  1  1
  8  7  1  0
  9  8  1  0
 10  9  1  0
 11 10  1  0
 12  6  1  0
 12 19  1  0
 13 12  2  0
 15 14  1  1
 16 15  1  0
 17 15  1  0
 18 17  1  1
 18 19  1  0
 18 20  1  0
 20 21  2  0
 20 22  1  0
M  END
$$$$
