GKL.pdb
     RDKit          3D

 22 21  0  0  1  0  0  0  0  0999 V2000
   19.2762  -19.7708  -11.0141 N   0  0  0  0  0  0  0  0  0  0  0  0
   20.2979  -19.1586  -11.8102 C   0  0  0  0  0  0  0  0  0  0  0  0
   21.4415  -20.0845  -12.0535 C   0  0  0  0  0  0  0  0  0  0  0  0
   21.7346  -20.9135  -11.1336 O   0  0  0  0  0  0  0  0  0  0  0  0
   22.1418  -20.0086  -13.2699 N   0  0  0  0  0  0  0  0  0  0  0  0
   23.3561  -20.7939  -13.4426 C   0  0  1  0  0  0  0  0  0  0  0  0
   23.6933  -20.7782  -14.9157 C   0  0  0  0  0  0  0  0  0  0  0  0
   24.8810  -21.6318  -15.2013 C   0  0  0  0  0  0  0  0  0  0  0  0
   24.5859  -23.1091  -15.0129 C   0  0  0  0  0  0  0  0  0  0  0  0
   25.8889  -23.8709  -15.2906 C   0  0  0  0  0  0  0  0  0  0  0  0
   25.6504  -25.2798  -15.1148 N   0  0  0  0  0  0  0  0  0  0  0  0
   24.4635  -20.2212  -12.6372 C   0  0  0  0  0  0  0  0  0  0  0  0
   24.6539  -18.9938  -12.5745 O   0  0  0  0  0  0  0  0  0  0  0  0
   28.4385  -20.2926   -8.8940 C   0  0  0  0  0  0  0  0  0  0  0  0
   26.9381  -20.2298   -8.6430 C   0  0  2  0  0  0  0  0  0  0  0  0
   26.5423  -20.5448   -7.2412 C   0  0  0  0  0  0  0  0  0  0  0  0
   26.1232  -20.8177   -9.7258 C   0  0  0  0  0  0  0  0  0  0  0  0
   26.4805  -20.5943  -11.1334 C   0  0  2  0  0  0  0  0  0  0  0  0
   25.3244  -21.0758  -11.9238 N   0  0  0  0  0  0  0  0  0  0  0  0
   27.7259  -21.1269  -11.6505 C   0  0  0  0  0  0  0  0  0  0  0  0
   27.7360  -22.2415  -12.2319 O   0  0  0  0  0  0  0  0  0  0  0  0
   28.9497  -20.4988  -11.5622 O   0  0  0  0  0  0  0  0  0  0  0  0
  2  1  1  0
  3  2  1  0
  4  3  2  0
  5  3  1  0
  6  5  1  0
  6  7  1  6
  8  7  1  0
  9  8  1  0
 10  9  1  0
 11 10  1  0
 12  6  1  0
 12 19  1  0
 13 12  2  0
 15 14  1  6
 16 15  1  0
 17 15  1  0
 18 17  1  1
 18 19  1  0
 18 20  1  0
 20 21  2  0
 20 22  1  0
M  END
$$$$
