GKL.pdb
     RDKit          3D

 22 21  0  0  1  0  0  0  0  0999 V2000
   12.0375  -13.4833  -11.9276 N   0  0  0  0  0  0  0  0  0  0  0  0
   11.8347  -12.1508  -12.4130 C   0  0  0  0  0  0  0  0  0  0  0  0
   13.0473  -11.3024  -12.2289 C   0  0  0  0  0  0  0  0  0  0  0  0
   13.3986  -11.0272  -11.0371 O   0  0  0  0  0  0  0  0  0  0  0  0
   13.7460  -10.8455  -13.3599 N   0  0  0  0  0  0  0  0  0  0  0  0
   14.9441  -10.0378  -13.1784 C   0  0  1  0  0  0  0  0  0  0  0  0
   15.5408   -9.8086  -14.5479 C   0  0  0  0  0  0  0  0  0  0  0  0
   16.7662   -8.9649  -14.4627 C   0  0  0  0  0  0  0  0  0  0  0  0
   18.0224   -9.7377  -14.8229 C   0  0  0  0  0  0  0  0  0  0  0  0
   19.2018   -8.7617  -14.7157 C   0  0  0  0  0  0  0  0  0  0  0  0
   20.4293   -9.4954  -14.8822 N   0  0  0  0  0  0  0  0  0  0  0  0
   14.6071   -8.7495  -12.5226 C   0  0  0  0  0  0  0  0  0  0  0  0
   13.6403   -8.0630  -12.8975 O   0  0  0  0  0  0  0  0  0  0  0  0
   15.6825   -6.7000   -6.9690 C   0  0  0  0  0  0  0  0  0  0  0  0
   14.8617   -6.4306   -8.2227 C   0  0  2  0  0  0  0  0  0  0  0  0
   13.4766   -5.9521   -7.9515 C   0  0  0  0  0  0  0  0  0  0  0  0
   15.0329   -7.4457   -9.2820 C   0  0  0  0  0  0  0  0  0  0  0  0
   15.0877   -7.0470  -10.6952 C   0  0  2  0  0  0  0  0  0  0  0  0
   15.3915   -8.2837  -11.4512 N   0  0  0  0  0  0  0  0  0  0  0  0
   15.9563   -5.9594  -11.1005 C   0  0  0  0  0  0  0  0  0  0  0  0
   15.4752   -4.8149  -11.2979 O   0  0  0  0  0  0  0  0  0  0  0  0
   17.3167   -6.0669  -11.2958 O   0  0  0  0  0  0  0  0  0  0  0  0
  2  1  1  0
  3  2  1  0
  4  3  2  0
  5  3  1  0
  6  5  1  0
  6  7  1  6
  8  7  1  0
  9  8  1  0
 10  9  1  0
 11 10  1  0
 12  6  1  0
 12 19  1  0
 13 12  2  0
 15 14  1  1
 16 15  1  0
 17 15  1  0
 18 17  1  1
 18 19  1  0
 18 20  1  0
 20 21  2  0
 20 22  1  0
M  END
$$$$
