MGC.pdb
     RDKit          3D

 19 18  0  0  1  0  0  0  0  0999 V2000
    6.6497  -11.0867   26.7064 C   0  0  0  0  0  0  0  0  0  0  0  0
    5.6632  -12.6134   26.6419 S   0  0  0  0  0  0  0  0  0  0  0  0
    5.7774  -13.2583   24.9555 C   0  0  0  0  0  0  0  0  0  0  0  0
    7.2315  -13.6098   24.6728 C   0  0  0  0  0  0  0  0  0  0  0  0
    7.2599  -14.9794   23.9804 C   0  0  2  0  0  0  0  0  0  0  0  0
    6.6788  -15.9768   24.8257 N   0  0  0  0  0  0  0  0  0  0  0  0
    8.6866  -15.3026   23.7692 C   0  0  0  0  0  0  0  0  0  0  0  0
    9.4175  -14.4696   23.1840 O   0  0  0  0  0  0  0  0  0  0  0  0
    9.2422  -16.5137   24.2051 N   0  0  0  0  0  0  0  0  0  0  0  0
   10.6088  -16.8155   23.8991 C   0  0  0  0  0  0  0  0  0  0  0  0
   11.4268  -16.6758   25.1109 C   0  0  0  0  0  0  0  0  0  0  0  0
   12.6321  -16.9953   25.0862 O   0  0  0  0  0  0  0  0  0  0  0  0
   10.8606  -16.1780   26.3207 N   0  0  0  0  0  0  0  0  0  0  0  0
   11.7088  -16.0701   27.4733 C   0  0  1  0  0  0  0  0  0  0  0  0
   11.4227  -14.7407   28.1555 C   0  0  0  0  0  0  0  0  0  0  0  0
    9.6678  -14.7083   28.6100 S   0  0  0  0  0  0  0  0  0  0  0  0
   11.4973  -17.2090   28.3688 C   0  0  0  0  0  0  0  0  0  0  0  0
   10.5199  -18.1733   28.1554 O   0  0  0  0  0  0  0  0  0  0  0  0
   12.2173  -17.3425   29.3802 O   0  0  0  0  0  0  0  0  0  0  0  0
  2  1  1  0
  3  2  1  0
  4  3  1  0
  5  4  1  0
  5  6  1  1
  7  5  1  0
  7  8  2  0
  9  7  1  0
 10  9  1  0
 10 11  1  0
 11 13  1  0
 11 12  2  0
 13 14  1  0
 14 15  1  1
 15 16  1  0
 17 14  1  0
 17 18  1  0
 19 17  2  0
M  END
$$$$
