MGC.pdb
     RDKit          3D

 19 18  0  0  1  0  0  0  0  0999 V2000
    7.7371  -11.8881   20.5234 C   0  0  0  0  0  0  0  0  0  0  0  0
    7.4968  -12.8932   19.0267 S   0  0  0  0  0  0  0  0  0  0  0  0
    8.0823  -14.5639   19.3995 C   0  0  0  0  0  0  0  0  0  0  0  0
    7.6152  -14.9356   20.8000 C   0  0  0  0  0  0  0  0  0  0  0  0
    8.1373  -16.3445   21.1133 C   0  0  2  0  0  0  0  0  0  0  0  0
    7.6555  -17.2809   20.1449 N   0  0  0  0  0  0  0  0  0  0  0  0
    7.5877  -16.7003   22.4384 C   0  0  0  0  0  0  0  0  0  0  0  0
    7.0607  -17.8265   22.5945 O   0  0  0  0  0  0  0  0  0  0  0  0
    7.6405  -15.8130   23.5226 N   0  0  0  0  0  0  0  0  0  0  0  0
    7.6250  -16.3281   24.8593 C   0  0  0  0  0  0  0  0  0  0  0  0
    8.8469  -15.9132   25.5606 C   0  0  0  0  0  0  0  0  0  0  0  0
    9.9289  -15.8589   24.9427 O   0  0  0  0  0  0  0  0  0  0  0  0
    8.8142  -15.5701   26.9438 N   0  0  0  0  0  0  0  0  0  0  0  0
   10.0092  -15.0471   27.5421 C   0  0  1  0  0  0  0  0  0  0  0  0
    9.6315  -13.8442   28.3935 C   0  0  0  0  0  0  0  0  0  0  0  0
    8.4932  -12.8106   27.4327 S   0  0  0  0  0  0  0  0  0  0  0  0
   10.6851  -16.0866   28.3208 C   0  0  0  0  0  0  0  0  0  0  0  0
   11.9382  -15.9130   28.8954 O   0  0  0  0  0  0  0  0  0  0  0  0
   10.1290  -17.1916   28.4912 O   0  0  0  0  0  0  0  0  0  0  0  0
  2  1  1  0
  3  2  1  0
  4  3  1  0
  5  4  1  0
  5  6  1  6
  7  5  1  0
  7  8  2  0
  9  7  1  0
 10  9  1  0
 10 11  1  0
 11 13  1  0
 11 12  2  0
 13 14  1  0
 14 15  1  1
 15 16  1  0
 17 14  1  0
 17 18  1  0
 19 17  2  0
M  END
$$$$
