MGC.pdb
     RDKit          3D

 19 18  0  0  1  0  0  0  0  0999 V2000
    9.3614  -13.7371   28.7009 C   0  0  0  0  0  0  0  0  0  0  0  0
   11.0149  -14.4042   28.3417 S   0  0  0  0  0  0  0  0  0  0  0  0
   10.7868  -16.0273   27.5760 C   0  0  0  0  0  0  0  0  0  0  0  0
    9.9725  -16.8962   28.5246 C   0  0  0  0  0  0  0  0  0  0  0  0
    9.6244  -18.1985   27.7906 C   0  0  2  0  0  0  0  0  0  0  0  0
   10.5355  -18.4198   26.7100 N   0  0  0  0  0  0  0  0  0  0  0  0
    8.2658  -18.0088   27.2405 C   0  0  0  0  0  0  0  0  0  0  0  0
    7.3237  -17.7502   28.0254 O   0  0  0  0  0  0  0  0  0  0  0  0
    8.0041  -18.1103   25.8669 N   0  0  0  0  0  0  0  0  0  0  0  0
    6.6643  -17.9432   25.3881 C   0  0  0  0  0  0  0  0  0  0  0  0
    6.5961  -16.7609   24.5195 C   0  0  0  0  0  0  0  0  0  0  0  0
    6.2244  -16.8817   23.3351 O   0  0  0  0  0  0  0  0  0  0  0  0
    6.9503  -15.4712   25.0125 N   0  0  0  0  0  0  0  0  0  0  0  0
    7.3233  -14.4607   24.0642 C   0  0  1  0  0  0  0  0  0  0  0  0
    6.7841  -13.1241   24.5517 C   0  0  0  0  0  0  0  0  0  0  0  0
    5.3155  -13.4464   25.5650 S   0  0  0  0  0  0  0  0  0  0  0  0
    8.7767  -14.4404   23.8879 C   0  0  0  0  0  0  0  0  0  0  0  0
    9.4216  -13.6069   22.9823 O   0  0  0  0  0  0  0  0  0  0  0  0
    9.4934  -15.1997   24.5727 O   0  0  0  0  0  0  0  0  0  0  0  0
  2  1  1  0
  3  2  1  0
  4  3  1  0
  5  4  1  0
  5  6  1  6
  7  5  1  0
  7  8  2  0
  9  7  1  0
 10  9  1  0
 10 11  1  0
 11 13  1  0
 11 12  2  0
 13 14  1  0
 14 15  1  1
 15 16  1  0
 17 14  1  0
 17 18  1  0
 19 17  2  0
M  END
$$$$
