MGC.pdb
     RDKit          3D

 19 18  0  0  1  0  0  0  0  0999 V2000
    6.9482  -11.4220   27.0809 C   0  0  0  0  0  0  0  0  0  0  0  0
    5.4422  -11.8970   26.1785 S   0  0  0  0  0  0  0  0  0  0  0  0
    5.6751  -13.5940   25.5963 C   0  0  0  0  0  0  0  0  0  0  0  0
    7.1221  -13.7551   25.1510 C   0  0  0  0  0  0  0  0  0  0  0  0
    7.1891  -14.9469   24.1861 C   0  0  2  0  0  0  0  0  0  0  0  0
    6.6157  -16.1098   24.7906 N   0  0  0  0  0  0  0  0  0  0  0  0
    8.6252  -15.1942   23.9390 C   0  0  0  0  0  0  0  0  0  0  0  0
    9.3289  -14.2685   23.4717 O   0  0  0  0  0  0  0  0  0  0  0  0
    9.2192  -16.4342   24.2131 N   0  0  0  0  0  0  0  0  0  0  0  0
   10.6087  -16.6315   23.9258 C   0  0  0  0  0  0  0  0  0  0  0  0
   11.3767  -16.6184   25.1776 C   0  0  0  0  0  0  0  0  0  0  0  0
   12.6229  -16.6512   25.1414 O   0  0  0  0  0  0  0  0  0  0  0  0
   10.7154  -16.5684   26.4394 N   0  0  0  0  0  0  0  0  0  0  0  0
   11.5197  -16.5682   27.6280 C   0  0  1  0  0  0  0  0  0  0  0  0
   10.8217  -15.7172   28.6784 C   0  0  0  0  0  0  0  0  0  0  0  0
   10.4813  -14.0922   27.9497 S   0  0  0  0  0  0  0  0  0  0  0  0
   11.7476  -17.9394   28.0881 C   0  0  0  0  0  0  0  0  0  0  0  0
   12.4680  -18.2469   29.2358 O   0  0  0  0  0  0  0  0  0  0  0  0
   11.2822  -18.8963   27.4348 O   0  0  0  0  0  0  0  0  0  0  0  0
  2  1  1  0
  3  2  1  0
  4  3  1  0
  5  4  1  0
  5  6  1  1
  7  5  1  0
  7  8  2  0
  9  7  1  0
 10  9  1  0
 10 11  1  0
 11 13  1  0
 11 12  2  0
 13 14  1  0
 14 15  1  1
 15 16  1  0
 17 14  1  0
 17 18  1  0
 19 17  2  0
M  END
$$$$
