MGC.pdb
     RDKit          3D

 19 18  0  0  1  0  0  0  0  0999 V2000
    6.1874  -11.0506   26.6634 C   0  0  0  0  0  0  0  0  0  0  0  0
    5.6010  -12.4317   25.6354 S   0  0  0  0  0  0  0  0  0  0  0  0
    6.8263  -13.7565   25.7624 C   0  0  0  0  0  0  0  0  0  0  0  0
    6.2874  -14.9810   25.0356 C   0  0  0  0  0  0  0  0  0  0  0  0
    7.3325  -16.0988   25.1551 C   0  0  2  0  0  0  0  0  0  0  0  0
    7.9800  -16.0408   26.4296 N   0  0  0  0  0  0  0  0  0  0  0  0
    8.3323  -15.8403   24.0977 C   0  0  0  0  0  0  0  0  0  0  0  0
    8.1325  -16.2982   22.9484 O   0  0  0  0  0  0  0  0  0  0  0  0
    9.4954  -15.0979   24.3462 N   0  0  0  0  0  0  0  0  0  0  0  0
   10.7727  -15.6498   24.0054 C   0  0  0  0  0  0  0  0  0  0  0  0
   11.4139  -16.1881   25.2121 C   0  0  0  0  0  0  0  0  0  0  0  0
   12.5692  -16.6533   25.1459 O   0  0  0  0  0  0  0  0  0  0  0  0
   10.7318  -16.1867   26.4638 N   0  0  0  0  0  0  0  0  0  0  0  0
   11.4417  -16.6436   27.6244 C   0  0  1  0  0  0  0  0  0  0  0  0
   11.0285  -15.7822   28.8084 C   0  0  0  0  0  0  0  0  0  0  0  0
   10.4364  -14.1928   28.1676 S   0  0  0  0  0  0  0  0  0  0  0  0
   11.1780  -18.0652   27.8550 C   0  0  0  0  0  0  0  0  0  0  0  0
   11.7352  -18.7815   28.9072 O   0  0  0  0  0  0  0  0  0  0  0  0
   10.4189  -18.6867   27.0825 O   0  0  0  0  0  0  0  0  0  0  0  0
  2  1  1  0
  3  2  1  0
  4  3  1  0
  5  4  1  0
  5  6  1  1
  7  5  1  0
  7  8  2  0
  9  7  1  0
 10  9  1  0
 10 11  1  0
 11 13  1  0
 11 12  2  0
 13 14  1  0
 14 15  1  1
 15 16  1  0
 17 14  1  0
 17 18  1  0
 19 17  2  0
M  END
$$$$
