MGC.pdb
     RDKit          3D

 19 18  0  0  1  0  0  0  0  0999 V2000
    5.7393  -12.1141   26.8897 C   0  0  0  0  0  0  0  0  0  0  0  0
    7.2860  -13.0581   27.0472 S   0  0  0  0  0  0  0  0  0  0  0  0
    6.9201  -14.7716   26.5969 C   0  0  0  0  0  0  0  0  0  0  0  0
    6.7360  -14.8432   25.0874 C   0  0  0  0  0  0  0  0  0  0  0  0
    6.3407  -16.2820   24.7277 C   0  0  2  0  0  0  0  0  0  0  0  0
    6.7943  -17.1899   25.7361 N   0  0  0  0  0  0  0  0  0  0  0  0
    7.0314  -16.5920   23.4583 C   0  0  0  0  0  0  0  0  0  0  0  0
    6.9905  -15.7565   22.5252 O   0  0  0  0  0  0  0  0  0  0  0  0
    7.7295  -17.7934   23.2713 N   0  0  0  0  0  0  0  0  0  0  0  0
    8.3086  -18.0831   21.9934 C   0  0  0  0  0  0  0  0  0  0  0  0
    9.7388  -17.7496   22.0144 C   0  0  0  0  0  0  0  0  0  0  0  0
   10.4277  -17.9067   20.9867 O   0  0  0  0  0  0  0  0  0  0  0  0
   10.3540  -17.2466   23.1978 N   0  0  0  0  0  0  0  0  0  0  0  0
   11.7676  -17.0002   23.1760 C   0  0  1  0  0  0  0  0  0  0  0  0
   12.0938  -15.9866   24.2627 C   0  0  0  0  0  0  0  0  0  0  0  0
   10.8495  -14.6696   24.1945 S   0  0  0  0  0  0  0  0  0  0  0  0
   12.5050  -18.2534   23.3482 C   0  0  0  0  0  0  0  0  0  0  0  0
   13.8927  -18.3250   23.3530 O   0  0  0  0  0  0  0  0  0  0  0  0
   11.8794  -19.3233   23.5000 O   0  0  0  0  0  0  0  0  0  0  0  0
  2  1  1  0
  3  2  1  0
  4  3  1  0
  5  4  1  0
  5  6  1  1
  7  5  1  0
  7  8  2  0
  9  7  1  0
 10  9  1  0
 10 11  1  0
 11 13  1  0
 11 12  2  0
 13 14  1  0
 14 15  1  1
 15 16  1  0
 17 14  1  0
 17 18  1  0
 19 17  2  0
M  END
$$$$
