MGC.pdb
     RDKit          3D

 19 18  0  0  1  0  0  0  0  0999 V2000
    6.9979  -10.8775   27.5669 C   0  0  0  0  0  0  0  0  0  0  0  0
    7.1968  -12.3440   26.5095 S   0  0  0  0  0  0  0  0  0  0  0  0
    6.3645  -13.7214   27.3359 C   0  0  0  0  0  0  0  0  0  0  0  0
    6.6204  -14.9892   26.5328 C   0  0  0  0  0  0  0  0  0  0  0  0
    7.1211  -14.5742   25.1424 C   0  0  2  0  0  0  0  0  0  0  0  0
    6.0870  -13.8965   24.4226 N   0  0  0  0  0  0  0  0  0  0  0  0
    7.4541  -15.8286   24.4351 C   0  0  0  0  0  0  0  0  0  0  0  0
    8.4177  -16.5180   24.8431 O   0  0  0  0  0  0  0  0  0  0  0  0
    6.7218  -16.2661   23.3225 N   0  0  0  0  0  0  0  0  0  0  0  0
    7.1714  -17.4091   22.5852 C   0  0  0  0  0  0  0  0  0  0  0  0
    8.2398  -17.0090   21.6604 C   0  0  0  0  0  0  0  0  0  0  0  0
    8.8710  -17.8790   21.0278 O   0  0  0  0  0  0  0  0  0  0  0  0
    8.5677  -15.6343   21.4743 N   0  0  0  0  0  0  0  0  0  0  0  0
    9.6420  -15.3074   20.5807 C   0  0  1  0  0  0  0  0  0  0  0  0
    9.4645  -13.8666   20.1253 C   0  0  0  0  0  0  0  0  0  0  0  0
    7.8125  -13.7075   19.3953 S   0  0  0  0  0  0  0  0  0  0  0  0
   10.9330  -15.5260   21.2360 C   0  0  0  0  0  0  0  0  0  0  0  0
   12.1523  -15.3198   20.6024 O   0  0  0  0  0  0  0  0  0  0  0  0
   10.9665  -15.9167   22.4215 O   0  0  0  0  0  0  0  0  0  0  0  0
  2  1  1  0
  3  2  1  0
  4  3  1  0
  5  4  1  0
  5  6  1  6
  7  5  1  0
  7  8  2  0
  9  7  1  0
 10  9  1  0
 10 11  1  0
 11 13  1  0
 11 12  2  0
 13 14  1  0
 14 15  1  1
 15 16  1  0
 17 14  1  0
 17 18  1  0
 19 17  2  0
M  END
$$$$
