MGC.pdb
     RDKit          3D

 19 18  0  0  1  0  0  0  0  0999 V2000
    6.8863  -11.1600   26.8511 C   0  0  0  0  0  0  0  0  0  0  0  0
    5.4724  -11.9629   26.0361 S   0  0  0  0  0  0  0  0  0  0  0  0
    5.9889  -13.6374   25.5863 C   0  0  0  0  0  0  0  0  0  0  0  0
    7.2229  -13.5380   24.7001 C   0  0  0  0  0  0  0  0  0  0  0  0
    7.2245  -14.7481   23.7558 C   0  0  2  0  0  0  0  0  0  0  0  0
    6.5735  -15.8624   24.3733 N   0  0  0  0  0  0  0  0  0  0  0  0
    8.6446  -15.0888   23.5282 C   0  0  0  0  0  0  0  0  0  0  0  0
    9.4359  -14.1851   23.1711 O   0  0  0  0  0  0  0  0  0  0  0  0
    9.1282  -16.3933   23.7010 N   0  0  0  0  0  0  0  0  0  0  0  0
   10.5275  -16.6556   23.5416 C   0  0  0  0  0  0  0  0  0  0  0  0
   11.1875  -16.6184   24.8531 C   0  0  0  0  0  0  0  0  0  0  0  0
   12.4178  -16.8067   24.9341 O   0  0  0  0  0  0  0  0  0  0  0  0
   10.4392  -16.3689   26.0404 N   0  0  0  0  0  0  0  0  0  0  0  0
   11.1511  -16.2618   27.2818 C   0  0  1  0  0  0  0  0  0  0  0  0
   10.4097  -15.2790   28.1757 C   0  0  0  0  0  0  0  0  0  0  0  0
   11.2485  -15.2376   29.7825 S   0  0  0  0  0  0  0  0  0  0  0  0
   11.2901  -17.5800   27.9038 C   0  0  0  0  0  0  0  0  0  0  0  0
   12.3913  -17.9491   28.6665 O   0  0  0  0  0  0  0  0  0  0  0  0
   10.3887  -18.4315   27.7564 O   0  0  0  0  0  0  0  0  0  0  0  0
  2  1  1  0
  3  2  1  0
  4  3  1  0
  5  4  1  0
  5  6  1  1
  7  5  1  0
  7  8  2  0
  9  7  1  0
 10  9  1  0
 10 11  1  0
 11 13  1  0
 11 12  2  0
 13 14  1  0
 14 15  1  1
 15 16  1  0
 17 14  1  0
 17 18  1  0
 19 17  2  0
M  END
$$$$
