MGC.pdb
     RDKit          3D

 19 18  0  0  1  0  0  0  0  0999 V2000
    6.5389  -12.4464   19.9874 C   0  0  0  0  0  0  0  0  0  0  0  0
    8.1050  -12.7128   19.1015 S   0  0  0  0  0  0  0  0  0  0  0  0
    8.4075  -14.4960   19.0654 C   0  0  0  0  0  0  0  0  0  0  0  0
    8.6644  -14.9689   20.4896 C   0  0  0  0  0  0  0  0  0  0  0  0
    8.7787  -16.4994   20.4654 C   0  0  2  0  0  0  0  0  0  0  0  0
    7.6011  -17.0777   19.8947 N   0  0  0  0  0  0  0  0  0  0  0  0
    8.8857  -16.9250   21.8768 C   0  0  0  0  0  0  0  0  0  0  0  0
    7.8365  -17.1487   22.5246 O   0  0  0  0  0  0  0  0  0  0  0  0
   10.1272  -17.0845   22.5082 N   0  0  0  0  0  0  0  0  0  0  0  0
   10.1752  -17.4885   23.8819 C   0  0  0  0  0  0  0  0  0  0  0  0
   10.3437  -16.3063   24.7368 C   0  0  0  0  0  0  0  0  0  0  0  0
   10.8770  -15.2777   24.2753 O   0  0  0  0  0  0  0  0  0  0  0  0
    9.9046  -16.3172   26.0929 N   0  0  0  0  0  0  0  0  0  0  0  0
   10.1971  -15.1747   26.9106 C   0  0  1  0  0  0  0  0  0  0  0  0
    8.9707  -14.2745   26.9318 C   0  0  0  0  0  0  0  0  0  0  0  0
    9.3752  -12.7964   27.9007 S   0  0  0  0  0  0  0  0  0  0  0  0
   10.5958  -15.5993   28.2539 C   0  0  0  0  0  0  0  0  0  0  0  0
   11.1937  -14.7477   29.1748 O   0  0  0  0  0  0  0  0  0  0  0  0
   10.3997  -16.7789   28.6133 O   0  0  0  0  0  0  0  0  0  0  0  0
  2  1  1  0
  3  2  1  0
  4  3  1  0
  5  4  1  0
  5  6  1  1
  7  5  1  0
  7  8  2  0
  9  7  1  0
 10  9  1  0
 10 11  1  0
 11 13  1  0
 11 12  2  0
 13 14  1  0
 14 15  1  1
 15 16  1  0
 17 14  1  0
 17 18  1  0
 19 17  2  0
M  END
$$$$
