MGC.pdb
     RDKit          3D

 19 18  0  0  1  0  0  0  0  0999 V2000
    6.9020  -10.3966   25.6084 C   0  0  0  0  0  0  0  0  0  0  0  0
    6.2092  -11.9865   26.1565 S   0  0  0  0  0  0  0  0  0  0  0  0
    6.0108  -13.0233   24.6873 C   0  0  0  0  0  0  0  0  0  0  0  0
    6.7251  -14.3454   24.9319 C   0  0  0  0  0  0  0  0  0  0  0  0
    8.0603  -14.3075   24.1758 C   0  0  2  0  0  0  0  0  0  0  0  0
    7.8446  -14.4986   22.7745 N   0  0  0  0  0  0  0  0  0  0  0  0
    8.8585  -15.4374   24.6961 C   0  0  0  0  0  0  0  0  0  0  0  0
    9.1531  -15.4626   25.9139 O   0  0  0  0  0  0  0  0  0  0  0  0
    9.2936  -16.4792   23.8649 N   0  0  0  0  0  0  0  0  0  0  0  0
   10.1191  -17.5176   24.4058 C   0  0  0  0  0  0  0  0  0  0  0  0
   10.8280  -17.0159   25.5902 C   0  0  0  0  0  0  0  0  0  0  0  0
   11.8448  -16.3073   25.4508 O   0  0  0  0  0  0  0  0  0  0  0  0
   10.3688  -17.3285   26.9029 N   0  0  0  0  0  0  0  0  0  0  0  0
   11.1401  -16.8643   28.0206 C   0  0  1  0  0  0  0  0  0  0  0  0
   10.4882  -15.6000   28.5602 C   0  0  0  0  0  0  0  0  0  0  0  0
   11.3565  -15.1242   30.0790 S   0  0  0  0  0  0  0  0  0  0  0  0
   11.2426  -17.9122   29.0381 C   0  0  0  0  0  0  0  0  0  0  0  0
   12.2163  -17.9173   30.0294 O   0  0  0  0  0  0  0  0  0  0  0  0
   10.4273  -18.8578   29.0363 O   0  0  0  0  0  0  0  0  0  0  0  0
  2  1  1  0
  3  2  1  0
  4  3  1  0
  5  4  1  0
  5  6  1  6
  7  5  1  0
  7  8  2  0
  9  7  1  0
 10  9  1  0
 10 11  1  0
 11 13  1  0
 11 12  2  0
 13 14  1  0
 14 15  1  1
 15 16  1  0
 17 14  1  0
 17 18  1  0
 19 17  2  0
M  END
$$$$
