MGC.pdb
     RDKit          3D

 19 18  0  0  1  0  0  0  0  0999 V2000
    8.6219  -12.0163   19.9859 C   0  0  0  0  0  0  0  0  0  0  0  0
    7.1346  -12.8167   19.3110 S   0  0  0  0  0  0  0  0  0  0  0  0
    7.5997  -14.4960   18.8246 C   0  0  0  0  0  0  0  0  0  0  0  0
    8.3556  -15.1389   19.9793 C   0  0  0  0  0  0  0  0  0  0  0  0
    8.8274  -16.5257   19.5207 C   0  0  2  0  0  0  0  0  0  0  0  0
    7.7044  -17.3572   19.2134 N   0  0  0  0  0  0  0  0  0  0  0  0
    9.5571  -17.1099   20.6656 C   0  0  0  0  0  0  0  0  0  0  0  0
    8.9470  -17.8769   21.4466 O   0  0  0  0  0  0  0  0  0  0  0  0
   10.9105  -16.8292   20.9000 N   0  0  0  0  0  0  0  0  0  0  0  0
   11.5990  -17.5029   21.9603 C   0  0  0  0  0  0  0  0  0  0  0  0
   11.3936  -16.7764   23.2201 C   0  0  0  0  0  0  0  0  0  0  0  0
   12.3757  -16.4554   23.9186 O   0  0  0  0  0  0  0  0  0  0  0  0
   10.0818  -16.4310   23.6582 N   0  0  0  0  0  0  0  0  0  0  0  0
    9.9180  -15.9561   25.0025 C   0  0  1  0  0  0  0  0  0  0  0  0
    8.4907  -15.4541   25.1625 C   0  0  0  0  0  0  0  0  0  0  0  0
    8.1245  -14.3491   23.7726 S   0  0  0  0  0  0  0  0  0  0  0  0
   10.2430  -17.0156   25.9594 C   0  0  0  0  0  0  0  0  0  0  0  0
   10.3200  -16.8048   27.3307 O   0  0  0  0  0  0  0  0  0  0  0  0
   10.4661  -18.1732   25.5481 O   0  0  0  0  0  0  0  0  0  0  0  0
  2  1  1  0
  3  2  1  0
  4  3  1  0
  5  4  1  0
  5  6  1  1
  7  5  1  0
  7  8  2  0
  9  7  1  0
 10  9  1  0
 10 11  1  0
 11 13  1  0
 11 12  2  0
 13 14  1  0
 14 15  1  6
 15 16  1  0
 17 14  1  0
 17 18  1  0
 19 17  2  0
M  END
$$$$
