MGC.pdb
     RDKit          3D

 19 18  0  0  1  0  0  0  0  0999 V2000
    7.5403  -14.7956   17.6360 C   0  0  0  0  0  0  0  0  0  0  0  0
    7.4953  -13.0456   18.1299 S   0  0  0  0  0  0  0  0  0  0  0  0
    8.0403  -12.9574   19.8527 C   0  0  0  0  0  0  0  0  0  0  0  0
    7.3202  -14.0429   20.6408 C   0  0  0  0  0  0  0  0  0  0  0  0
    7.7520  -13.9254   22.1090 C   0  0  2  0  0  0  0  0  0  0  0  0
    9.0475  -13.3252   22.2005 N   0  0  0  0  0  0  0  0  0  0  0  0
    7.8270  -15.3079   22.6263 C   0  0  0  0  0  0  0  0  0  0  0  0
    6.7660  -15.9569   22.7799 O   0  0  0  0  0  0  0  0  0  0  0  0
    9.0510  -15.9107   22.9488 N   0  0  0  0  0  0  0  0  0  0  0  0
    9.1706  -16.6632   24.1620 C   0  0  0  0  0  0  0  0  0  0  0  0
    9.7229  -15.8068   25.2197 C   0  0  0  0  0  0  0  0  0  0  0  0
   10.8660  -15.3242   25.0937 O   0  0  0  0  0  0  0  0  0  0  0  0
    8.9679  -15.5178   26.3937 N   0  0  0  0  0  0  0  0  0  0  0  0
    9.5314  -14.6173   27.3588 C   0  0  1  0  0  0  0  0  0  0  0  0
    8.4607  -13.6134   27.7593 C   0  0  0  0  0  0  0  0  0  0  0  0
    7.5958  -13.0843   26.2562 S   0  0  0  0  0  0  0  0  0  0  0  0
   10.0497  -15.3623   28.5077 C   0  0  0  0  0  0  0  0  0  0  0  0
   10.0952  -16.7502   28.5566 O   0  0  0  0  0  0  0  0  0  0  0  0
   10.4773  -14.7434   29.5043 O   0  0  0  0  0  0  0  0  0  0  0  0
  2  1  1  0
  3  2  1  0
  4  3  1  0
  5  4  1  0
  5  6  1  6
  7  5  1  0
  7  8  2  0
  9  7  1  0
 10  9  1  0
 10 11  1  0
 11 13  1  0
 11 12  2  0
 13 14  1  0
 14 15  1  1
 15 16  1  0
 17 14  1  0
 17 18  1  0
 19 17  2  0
M  END
$$$$
