FAK.pdb
     RDKit          3D

 26 26  0  0  1  0  0  0  0  0999 V2000
   28.7358  -21.0212   -9.0014 N   0  0  0  0  0  0  0  0  0  0  0  0
   27.3197  -20.7103   -8.9902 C   0  0  1  0  0  0  0  0  0  0  0  0
   27.1374  -19.4090   -8.2518 C   0  0  0  0  0  0  0  0  0  0  0  0
   27.5882  -19.5437   -6.8428 C   0  0  0  0  0  0  0  0  0  0  0  0
   28.7125  -18.8855   -6.3903 C   0  0  0  0  0  0  0  0  0  0  0  0
   29.1188  -19.0213   -5.0795 C   0  0  0  0  0  0  0  0  0  0  0  0
   28.3808  -19.8280   -4.2257 C   0  0  0  0  0  0  0  0  0  0  0  0
   27.2599  -20.4785   -4.6943 C   0  0  0  0  0  0  0  0  0  0  0  0
   26.8534  -20.3461   -5.9950 C   0  0  0  0  0  0  0  0  0  0  0  0
   26.8016  -20.7113  -10.3597 C   0  0  0  0  0  0  0  0  0  0  0  0
   27.4016  -20.0407  -11.2683 O   0  0  0  0  0  0  0  0  0  0  0  0
   24.8052  -22.7300  -12.6362 C   0  0  0  0  0  0  0  0  0  0  0  0
   25.1004  -21.3170  -12.1148 C   0  0  2  0  0  0  0  0  0  0  0  0
   25.6519  -21.4144  -10.7891 N   0  0  0  0  0  0  0  0  0  0  0  0
   23.8121  -20.5906  -12.1818 C   0  0  0  0  0  0  0  0  0  0  0  0
   23.0324  -20.4753  -11.2065 O   0  0  0  0  0  0  0  0  0  0  0  0
   23.4571  -20.0043  -13.4099 N   0  0  0  0  0  0  0  0  0  0  0  0
   22.1955  -19.1598  -13.4580 C   0  0  1  0  0  0  0  0  0  0  0  0
   22.2139  -18.5450  -14.8115 C   0  0  0  0  0  0  0  0  0  0  0  0
   21.1640  -17.6273  -15.2251 C   0  0  0  0  0  0  0  0  0  0  0  0
   21.1452  -17.0514  -16.5857 C   0  0  0  0  0  0  0  0  0  0  0  0
   19.9167  -16.1129  -16.7488 C   0  0  0  0  0  0  0  0  0  0  0  0
   19.9633  -15.5180  -18.0612 N   0  0  0  0  0  0  0  0  0  0  0  0
   21.1540  -20.2276  -13.3176 C   0  0  0  0  0  0  0  0  0  0  0  0
   21.2030  -21.5064  -13.7943 O   0  0  0  0  0  0  0  0  0  0  0  0
   20.0883  -19.8906  -12.6739 O   0  0  0  0  0  0  0  0  0  0  0  0
  2  1  1  6
  2 10  1  0
  3  2  1  0
  3  4  1  0
  4  5  2  0
  4  9  1  0
  5  6  1  0
  6  7  2  0
  8  7  1  0
  9  8  2  0
 10 11  2  0
 13 12  1  1
 13 15  1  0
 14 10  1  0
 14 13  1  0
 15 16  2  0
 17 15  1  0
 17 18  1  0
 18 24  1  0
 19 20  1  0
 18 19  1  6
 21 20  1  0
 22 23  1  0
 22 21  1  0
 24 25  1  0
 26 24  2  0
M  END
$$$$
