FAK.pdb
     RDKit          3D

 26 26  0  0  1  0  0  0  0  0999 V2000
   22.2298  -22.0394  -15.1349 N   0  0  0  0  0  0  0  0  0  0  0  0
   22.3390  -23.0672  -14.1181 C   0  0  1  0  0  0  0  0  0  0  0  0
   23.6399  -22.8577  -13.3862 C   0  0  0  0  0  0  0  0  0  0  0  0
   24.7898  -23.1982  -14.2628 C   0  0  0  0  0  0  0  0  0  0  0  0
   25.6795  -22.2290  -14.6767 C   0  0  0  0  0  0  0  0  0  0  0  0
   26.7417  -22.5608  -15.4912 C   0  0  0  0  0  0  0  0  0  0  0  0
   26.9008  -23.8809  -15.8866 C   0  0  0  0  0  0  0  0  0  0  0  0
   26.0025  -24.8367  -15.4639 C   0  0  0  0  0  0  0  0  0  0  0  0
   24.9467  -24.5112  -14.6552 C   0  0  0  0  0  0  0  0  0  0  0  0
   21.1498  -23.0475  -13.2643 C   0  0  0  0  0  0  0  0  0  0  0  0
   20.9489  -22.0621  -12.4743 O   0  0  0  0  0  0  0  0  0  0  0  0
   17.8233  -24.6582  -13.0453 C   0  0  0  0  0  0  0  0  0  0  0  0
   19.0391  -24.0539  -12.3296 C   0  0  2  0  0  0  0  0  0  0  0  0
   20.1612  -24.0585  -13.2308 N   0  0  0  0  0  0  0  0  0  0  0  0
   19.2358  -24.8772  -11.1150 C   0  0  0  0  0  0  0  0  0  0  0  0
   20.0739  -25.8069  -11.0387 O   0  0  0  0  0  0  0  0  0  0  0  0
   18.4340  -24.5904   -9.9957 N   0  0  0  0  0  0  0  0  0  0  0  0
   18.5473  -25.5015   -8.7857 C   0  0  1  0  0  0  0  0  0  0  0  0
   17.6031  -24.9197   -7.7956 C   0  0  0  0  0  0  0  0  0  0  0  0
   17.4635  -25.5029   -6.4704 C   0  0  0  0  0  0  0  0  0  0  0  0
   16.6033  -24.8749   -5.4463 C   0  0  0  0  0  0  0  0  0  0  0  0
   16.6387  -25.7114   -4.1365 C   0  0  0  0  0  0  0  0  0  0  0  0
   15.8468  -25.0370   -3.1383 N   0  0  0  0  0  0  0  0  0  0  0  0
   18.0547  -26.7884   -9.3737 C   0  0  0  0  0  0  0  0  0  0  0  0
   18.4638  -28.0547   -9.0668 O   0  0  0  0  0  0  0  0  0  0  0  0
   17.1408  -26.6788  -10.2772 O   0  0  0  0  0  0  0  0  0  0  0  0
  2  1  1  6
  2 10  1  0
  3  2  1  0
  3  4  1  0
  4  5  2  0
  4  9  1  0
  5  6  1  0
  6  7  2  0
  8  7  1  0
  9  8  2  0
 10 11  2  0
 13 12  1  6
 13 15  1  0
 14 10  1  0
 14 13  1  0
 15 16  2  0
 17 15  1  0
 17 18  1  0
 18 24  1  0
 19 20  1  0
 18 19  1  1
 21 20  1  0
 22 23  1  0
 22 21  1  0
 24 25  1  0
 26 24  2  0
M  END
$$$$
