FAK.pdb
     RDKit          3D

 26 26  0  0  1  0  0  0  0  0999 V2000
   30.3905  -26.8753  -16.6823 N   0  0  0  0  0  0  0  0  0  0  0  0
   29.4005  -26.8259  -17.7403 C   0  0  1  0  0  0  0  0  0  0  0  0
   29.6975  -27.9455  -18.7047 C   0  0  0  0  0  0  0  0  0  0  0  0
   30.9417  -27.6603  -19.4645 C   0  0  0  0  0  0  0  0  0  0  0  0
   32.1160  -28.3257  -19.1808 C   0  0  0  0  0  0  0  0  0  0  0  0
   33.2631  -28.0492  -19.8946 C   0  0  0  0  0  0  0  0  0  0  0  0
   33.2174  -27.0940  -20.8995 C   0  0  0  0  0  0  0  0  0  0  0  0
   32.0357  -26.4385  -21.1699 C   0  0  0  0  0  0  0  0  0  0  0  0
   30.8947  -26.7104  -20.4634 C   0  0  0  0  0  0  0  0  0  0  0  0
   28.0557  -26.8607  -17.1621 C   0  0  0  0  0  0  0  0  0  0  0  0
   27.8506  -27.4814  -16.0631 O   0  0  0  0  0  0  0  0  0  0  0  0
   24.8595  -24.9858  -17.5150 C   0  0  0  0  0  0  0  0  0  0  0  0
   25.6086  -26.2679  -17.1267 C   0  0  2  0  0  0  0  0  0  0  0  0
   26.9152  -26.2458  -17.7294 N   0  0  0  0  0  0  0  0  0  0  0  0
   24.7505  -27.3843  -17.5841 C   0  0  0  0  0  0  0  0  0  0  0  0
   24.7662  -27.8328  -18.7551 O   0  0  0  0  0  0  0  0  0  0  0  0
   23.8772  -27.9625  -16.6455 N   0  0  0  0  0  0  0  0  0  0  0  0
   23.1170  -29.2122  -17.0551 C   0  0  1  0  0  0  0  0  0  0  0  0
   23.1624  -30.0833  -15.8512 C   0  0  0  0  0  0  0  0  0  0  0  0
   24.0901  -31.2012  -15.7775 C   0  0  0  0  0  0  0  0  0  0  0  0
   24.1488  -32.0676  -14.5820 C   0  0  0  0  0  0  0  0  0  0  0  0
   25.2653  -33.1354  -14.7536 C   0  0  0  0  0  0  0  0  0  0  0  0
   25.4320  -33.8320  -13.5025 N   0  0  0  0  0  0  0  0  0  0  0  0
   21.7589  -28.6296  -17.3014 C   0  0  0  0  0  0  0  0  0  0  0  0
   21.1706  -27.5837  -16.6495 O   0  0  0  0  0  0  0  0  0  0  0  0
   21.0696  -29.1895  -18.2368 O   0  0  0  0  0  0  0  0  0  0  0  0
  2  1  1  1
  2 10  1  0
  3  2  1  0
  3  4  1  0
  4  5  2  0
  4  9  1  0
  5  6  1  0
  6  7  2  0
  8  7  1  0
  9  8  2  0
 10 11  2  0
 13 12  1  6
 13 15  1  0
 14 10  1  0
 14 13  1  0
 15 16  2  0
 17 15  1  0
 17 18  1  0
 18 24  1  0
 19 20  1  0
 18 19  1  1
 21 20  1  0
 22 23  1  0
 22 21  1  0
 24 25  1  0
 26 24  2  0
M  END
$$$$
