FAK.pdb
     RDKit          3D

 26 26  0  0  1  0  0  0  0  0999 V2000
   25.1003  -21.5389   -7.8735 N   0  0  0  0  0  0  0  0  0  0  0  0
   25.1987  -20.4796   -8.8586 C   0  0  1  0  0  0  0  0  0  0  0  0
   26.6498  -20.0887   -8.9744 C   0  0  0  0  0  0  0  0  0  0  0  0
   27.1568  -19.5822   -7.6732 C   0  0  0  0  0  0  0  0  0  0  0  0
   28.2148  -20.1954   -7.0354 C   0  0  0  0  0  0  0  0  0  0  0  0
   28.6735  -19.7137   -5.8273 C   0  0  0  0  0  0  0  0  0  0  0  0
   28.0558  -18.6060   -5.2654 C   0  0  0  0  0  0  0  0  0  0  0  0
   26.9999  -18.0054   -5.9163 C   0  0  0  0  0  0  0  0  0  0  0  0
   26.5417  -18.4807   -7.1158 C   0  0  0  0  0  0  0  0  0  0  0  0
   24.5824  -20.9123  -10.1143 C   0  0  0  0  0  0  0  0  0  0  0  0
   25.0370  -21.9388  -10.7266 O   0  0  0  0  0  0  0  0  0  0  0  0
   21.7632  -19.7556  -12.3589 C   0  0  0  0  0  0  0  0  0  0  0  0
   22.9230  -20.6929  -11.9956 C   0  0  2  0  0  0  0  0  0  0  0  0
   23.4852  -20.2744  -10.7387 N   0  0  0  0  0  0  0  0  0  0  0  0
   23.8662  -20.6190  -13.1344 C   0  0  0  0  0  0  0  0  0  0  0  0
   24.8160  -19.8023  -13.1930 O   0  0  0  0  0  0  0  0  0  0  0  0
   23.6748  -21.5177  -14.1992 N   0  0  0  0  0  0  0  0  0  0  0  0
   24.7066  -21.5318  -15.3138 C   0  0  1  0  0  0  0  0  0  0  0  0
   25.1618  -22.9457  -15.3778 C   0  0  0  0  0  0  0  0  0  0  0  0
   26.1380  -23.3679  -16.3701 C   0  0  0  0  0  0  0  0  0  0  0  0
   26.5992  -24.7699  -16.4396 C   0  0  0  0  0  0  0  0  0  0  0  0
   27.7102  -24.9112  -17.5176 C   0  0  0  0  0  0  0  0  0  0  0  0
   28.0939  -26.2982  -17.6038 N   0  0  0  0  0  0  0  0  0  0  0  0
   23.8472  -21.1435  -16.4779 C   0  0  0  0  0  0  0  0  0  0  0  0
   24.2500  -20.6117  -17.6696 O   0  0  0  0  0  0  0  0  0  0  0  0
   22.5802  -21.3326  -16.3275 O   0  0  0  0  0  0  0  0  0  0  0  0
  2  1  1  1
  2 10  1  0
  3  2  1  0
  3  4  1  0
  4  5  2  0
  4  9  1  0
  5  6  1  0
  6  7  2  0
  8  7  1  0
  9  8  2  0
 10 11  2  0
 13 12  1  6
 13 15  1  0
 14 10  1  0
 14 13  1  0
 15 16  2  0
 17 15  1  0
 17 18  1  0
 18 24  1  0
 19 20  1  0
 18 19  1  6
 21 20  1  0
 22 23  1  0
 22 21  1  0
 24 25  1  0
 26 24  2  0
M  END
$$$$
