FAK.pdb
     RDKit          3D

 26 26  0  0  1  0  0  0  0  0999 V2000
   22.8645  -19.8828  -13.6222 N   0  0  0  0  0  0  0  0  0  0  0  0
   23.2314  -20.5005  -14.8815 C   0  0  1  0  0  0  0  0  0  0  0  0
   22.1878  -20.1254  -15.9023 C   0  0  0  0  0  0  0  0  0  0  0  0
   20.8979  -20.7960  -15.5969 C   0  0  0  0  0  0  0  0  0  0  0  0
   20.7382  -22.1520  -15.7914 C   0  0  0  0  0  0  0  0  0  0  0  0
   19.5342  -22.7599  -15.5040 C   0  0  0  0  0  0  0  0  0  0  0  0
   18.4892  -21.9881  -15.0175 C   0  0  0  0  0  0  0  0  0  0  0  0
   18.6658  -20.6344  -14.8290 C   0  0  0  0  0  0  0  0  0  0  0  0
   19.8597  -20.0274  -15.1133 C   0  0  0  0  0  0  0  0  0  0  0  0
   24.5988  -20.1193  -15.2402 C   0  0  0  0  0  0  0  0  0  0  0  0
   24.9660  -18.8982  -15.1437 O   0  0  0  0  0  0  0  0  0  0  0  0
   27.8161  -21.8499  -16.1681 C   0  0  0  0  0  0  0  0  0  0  0  0
   26.9174  -20.6080  -16.0926 C   0  0  2  0  0  0  0  0  0  0  0  0
   25.5929  -21.0132  -15.7022 N   0  0  0  0  0  0  0  0  0  0  0  0
   26.9881  -19.9834  -17.4331 C   0  0  0  0  0  0  0  0  0  0  0  0
   26.0866  -20.0981  -18.2972 O   0  0  0  0  0  0  0  0  0  0  0  0
   28.1320  -19.2246  -17.7396 N   0  0  0  0  0  0  0  0  0  0  0  0
   28.1158  -18.3929  -19.0104 C   0  0  1  0  0  0  0  0  0  0  0  0
   28.7840  -17.1211  -18.6280 C   0  0  0  0  0  0  0  0  0  0  0  0
   28.9125  -16.0325  -19.5841 C   0  0  0  0  0  0  0  0  0  0  0  0
   29.5865  -14.7697  -19.2178 C   0  0  0  0  0  0  0  0  0  0  0  0
   29.5905  -13.7978  -20.4310 C   0  0  0  0  0  0  0  0  0  0  0  0
   28.2697  -13.2386  -20.5769 N   0  0  0  0  0  0  0  0  0  0  0  0
   28.9618  -19.2502  -19.9013 C   0  0  0  0  0  0  0  0  0  0  0  0
   28.9574  -19.2914  -21.2663 O   0  0  0  0  0  0  0  0  0  0  0  0
   29.7845  -20.0420  -19.3014 O   0  0  0  0  0  0  0  0  0  0  0  0
  2  1  1  1
  2 10  1  0
  3  2  1  0
  3  4  1  0
  4  5  2  0
  4  9  1  0
  5  6  1  0
  6  7  2  0
  8  7  1  0
  9  8  2  0
 10 11  2  0
 13 12  1  6
 13 15  1  0
 14 10  1  0
 14 13  1  0
 15 16  2  0
 17 15  1  0
 17 18  1  0
 18 24  1  0
 19 20  1  0
 18 19  1  1
 21 20  1  0
 22 23  1  0
 22 21  1  0
 24 25  1  0
 26 24  2  0
M  END
$$$$
