FAK.pdb
     RDKit          3D

 26 26  0  0  1  0  0  0  0  0999 V2000
   25.9522  -21.9814  -12.0683 N   0  0  0  0  0  0  0  0  0  0  0  0
   25.4362  -20.6363  -12.2311 C   0  0  1  0  0  0  0  0  0  0  0  0
   25.9202  -19.8108  -11.0665 C   0  0  0  0  0  0  0  0  0  0  0  0
   25.4046  -20.3639   -9.7879 C   0  0  0  0  0  0  0  0  0  0  0  0
   26.2546  -20.6319   -8.7354 C   0  0  0  0  0  0  0  0  0  0  0  0
   25.7608  -21.1462   -7.5549 C   0  0  0  0  0  0  0  0  0  0  0  0
   24.3995  -21.3889   -7.4431 C   0  0  0  0  0  0  0  0  0  0  0  0
   23.5644  -21.1153   -8.5045 C   0  0  0  0  0  0  0  0  0  0  0  0
   24.0509  -20.6048   -9.6781 C   0  0  0  0  0  0  0  0  0  0  0  0
   25.8159  -20.1160  -13.5460 C   0  0  0  0  0  0  0  0  0  0  0  0
   25.6348  -18.8798  -13.8186 O   0  0  0  0  0  0  0  0  0  0  0  0
   27.8988  -21.2018  -16.4509 C   0  0  0  0  0  0  0  0  0  0  0  0
   26.7643  -20.3486  -15.8671 C   0  0  2  0  0  0  0  0  0  0  0  0
   26.3887  -20.8851  -14.5857 N   0  0  0  0  0  0  0  0  0  0  0  0
   25.6820  -20.3808  -16.8768 C   0  0  0  0  0  0  0  0  0  0  0  0
   24.9128  -21.3585  -17.0342 O   0  0  0  0  0  0  0  0  0  0  0  0
   25.5197  -19.2486  -17.6953 N   0  0  0  0  0  0  0  0  0  0  0  0
   24.2617  -19.1553  -18.5413 C   0  0  1  0  0  0  0  0  0  0  0  0
   23.5856  -17.9206  -18.0630 C   0  0  0  0  0  0  0  0  0  0  0  0
   22.3597  -17.4537  -18.6914 C   0  0  0  0  0  0  0  0  0  0  0  0
   21.7077  -16.2011  -18.2568 C   0  0  0  0  0  0  0  0  0  0  0  0
   20.3611  -16.0135  -19.0104 C   0  0  0  0  0  0  0  0  0  0  0  0
   19.7114  -14.8304  -18.5039 N   0  0  0  0  0  0  0  0  0  0  0  0
   24.8667  -18.9978  -19.9028 C   0  0  0  0  0  0  0  0  0  0  0  0
   26.1074  -18.5184  -20.2123 O   0  0  0  0  0  0  0  0  0  0  0  0
   24.1209  -19.3549  -20.8927 O   0  0  0  0  0  0  0  0  0  0  0  0
  2  1  1  1
  2 10  1  0
  3  2  1  0
  3  4  1  0
  4  5  2  0
  4  9  1  0
  5  6  1  0
  6  7  2  0
  8  7  1  0
  9  8  2  0
 10 11  2  0
 13 12  1  6
 13 15  1  0
 14 10  1  0
 14 13  1  0
 15 16  2  0
 17 15  1  0
 17 18  1  0
 18 24  1  0
 19 20  1  0
 18 19  1  1
 21 20  1  0
 22 23  1  0
 22 21  1  0
 24 25  1  0
 26 24  2  0
M  END
$$$$
