FAK.pdb
     RDKit          3D

 26 26  0  0  1  0  0  0  0  0999 V2000
   24.4372  -20.6878  -13.1940 N   0  0  0  0  0  0  0  0  0  0  0  0
   23.2550  -21.2007  -13.8584 C   0  0  1  0  0  0  0  0  0  0  0  0
   23.5877  -22.5643  -14.4076 C   0  0  0  0  0  0  0  0  0  0  0  0
   24.5572  -22.4510  -15.5274 C   0  0  0  0  0  0  0  0  0  0  0  0
   24.1792  -21.9224  -16.7440 C   0  0  0  0  0  0  0  0  0  0  0  0
   25.0907  -21.8246  -17.7743 C   0  0  0  0  0  0  0  0  0  0  0  0
   26.3899  -22.2648  -17.5683 C   0  0  0  0  0  0  0  0  0  0  0  0
   26.7508  -22.7903  -16.3465 C   0  0  0  0  0  0  0  0  0  0  0  0
   25.8487  -22.8891  -15.3212 C   0  0  0  0  0  0  0  0  0  0  0  0
   22.1186  -21.1764  -12.9355 C   0  0  0  0  0  0  0  0  0  0  0  0
   22.2870  -21.4959  -11.7088 O   0  0  0  0  0  0  0  0  0  0  0  0
   18.4639  -20.2160  -13.0558 C   0  0  0  0  0  0  0  0  0  0  0  0
   19.6850  -20.8505  -12.3762 C   0  0  2  0  0  0  0  0  0  0  0  0
   20.7970  -20.8172  -13.2892 N   0  0  0  0  0  0  0  0  0  0  0  0
   19.2610  -22.2152  -11.9893 C   0  0  0  0  0  0  0  0  0  0  0  0
   19.4401  -23.2250  -12.7110 O   0  0  0  0  0  0  0  0  0  0  0  0
   18.6254  -22.3724  -10.7447 N   0  0  0  0  0  0  0  0  0  0  0  0
   18.2688  -23.7802  -10.2995 C   0  0  1  0  0  0  0  0  0  0  0  0
   18.3897  -23.7409   -8.8182 C   0  0  0  0  0  0  0  0  0  0  0  0
   17.9738  -24.8753   -8.0084 C   0  0  0  0  0  0  0  0  0  0  0  0
   18.2186  -24.9044   -6.5516 C   0  0  0  0  0  0  0  0  0  0  0  0
   17.7326  -26.2563   -5.9577 C   0  0  0  0  0  0  0  0  0  0  0  0
   17.9282  -26.2285   -4.5297 N   0  0  0  0  0  0  0  0  0  0  0  0
   16.8470  -23.8555  -10.7659 C   0  0  0  0  0  0  0  0  0  0  0  0
   15.9463  -22.8334  -10.8600 O   0  0  0  0  0  0  0  0  0  0  0  0
   16.4319  -25.0263  -11.1130 O   0  0  0  0  0  0  0  0  0  0  0  0
  2  1  1  1
  2 10  1  0
  3  2  1  0
  3  4  1  0
  4  5  2  0
  4  9  1  0
  5  6  1  0
  6  7  2  0
  8  7  1  0
  9  8  2  0
 10 11  2  0
 13 12  1  6
 13 15  1  0
 14 10  1  0
 14 13  1  0
 15 16  2  0
 17 15  1  0
 17 18  1  0
 18 24  1  0
 19 20  1  0
 18 19  1  1
 21 20  1  0
 22 23  1  0
 22 21  1  0
 24 25  1  0
 26 24  2  0
M  END
$$$$
