FAK.pdb
     RDKit          3D

 26 26  0  0  1  0  0  0  0  0999 V2000
   27.6696  -20.8246  -11.3913 N   0  0  0  0  0  0  0  0  0  0  0  0
   26.2864  -21.2135  -11.5850 C   0  0  1  0  0  0  0  0  0  0  0  0
   25.4249  -20.2770  -10.7770 C   0  0  0  0  0  0  0  0  0  0  0  0
   25.8466  -20.2818   -9.3527 C   0  0  0  0  0  0  0  0  0  0  0  0
   25.7729  -21.4309   -8.5935 C   0  0  0  0  0  0  0  0  0  0  0  0
   26.1674  -21.4191   -7.2721 C   0  0  0  0  0  0  0  0  0  0  0  0
   26.6383  -20.2368   -6.7202 C   0  0  0  0  0  0  0  0  0  0  0  0
   26.7055  -19.0978   -7.4931 C   0  0  0  0  0  0  0  0  0  0  0  0
   26.3147  -19.1055   -8.8053 C   0  0  0  0  0  0  0  0  0  0  0  0
   25.9764  -21.2447  -13.0156 C   0  0  0  0  0  0  0  0  0  0  0  0
   25.6733  -20.1624  -13.6256 O   0  0  0  0  0  0  0  0  0  0  0  0
   26.4999  -23.5564  -15.8865 C   0  0  0  0  0  0  0  0  0  0  0  0
   25.7182  -22.4080  -15.2340 C   0  0  2  0  0  0  0  0  0  0  0  0
   25.9816  -22.4087  -13.8192 N   0  0  0  0  0  0  0  0  0  0  0  0
   24.2991  -22.6425  -15.5849 C   0  0  0  0  0  0  0  0  0  0  0  0
   23.8448  -22.5166  -16.7470 O   0  0  0  0  0  0  0  0  0  0  0  0
   23.4263  -23.0260  -14.5509 N   0  0  0  0  0  0  0  0  0  0  0  0
   21.9962  -23.3804  -14.9203 C   0  0  1  0  0  0  0  0  0  0  0  0
   21.6826  -24.5693  -14.0847 C   0  0  0  0  0  0  0  0  0  0  0  0
   20.3378  -25.1228  -14.0549 C   0  0  0  0  0  0  0  0  0  0  0  0
   20.0315  -26.3443  -13.2820 C   0  0  0  0  0  0  0  0  0  0  0  0
   18.5399  -26.7363  -13.4765 C   0  0  0  0  0  0  0  0  0  0  0  0
   18.2616  -27.9004  -12.6729 N   0  0  0  0  0  0  0  0  0  0  0  0
   21.2876  -22.1427  -14.4613 C   0  0  0  0  0  0  0  0  0  0  0  0
   20.5840  -21.2547  -15.2239 O   0  0  0  0  0  0  0  0  0  0  0  0
   21.3587  -21.8915  -13.1983 O   0  0  0  0  0  0  0  0  0  0  0  0
  2  1  1  6
  2 10  1  0
  3  2  1  0
  3  4  1  0
  4  5  2  0
  4  9  1  0
  5  6  1  0
  6  7  2  0
  8  7  1  0
  9  8  2  0
 10 11  2  0
 13 12  1  6
 13 15  1  0
 14 10  1  0
 14 13  1  0
 15 16  2  0
 17 15  1  0
 17 18  1  0
 18 24  1  0
 19 20  1  0
 18 19  1  1
 21 20  1  0
 22 23  1  0
 22 21  1  0
 24 25  1  0
 26 24  2  0
M  END
$$$$
