FAK.pdb
     RDKit          3D

 26 26  0  0  1  0  0  0  0  0999 V2000
   13.0199  -11.5053  -12.1408 N   0  0  0  0  0  0  0  0  0  0  0  0
   12.8942  -11.3586  -10.7039 C   0  0  1  0  0  0  0  0  0  0  0  0
   14.1173  -11.9680  -10.0677 C   0  0  0  0  0  0  0  0  0  0  0  0
   15.3451  -11.2717  -10.5306 C   0  0  0  0  0  0  0  0  0  0  0  0
   15.9011  -10.2464   -9.7945 C   0  0  0  0  0  0  0  0  0  0  0  0
   17.0408   -9.6091  -10.2380 C   0  0  0  0  0  0  0  0  0  0  0  0
   17.6176  -10.0144  -11.4327 C   0  0  0  0  0  0  0  0  0  0  0  0
   17.0491  -11.0407  -12.1557 C   0  0  0  0  0  0  0  0  0  0  0  0
   15.9176  -11.6758  -11.7187 C   0  0  0  0  0  0  0  0  0  0  0  0
   12.6698   -9.9514  -10.3675 C   0  0  0  0  0  0  0  0  0  0  0  0
   12.9754   -9.0385  -11.2092 O   0  0  0  0  0  0  0  0  0  0  0  0
   11.1734   -8.0021   -7.4902 C   0  0  0  0  0  0  0  0  0  0  0  0
   11.8338   -8.1061   -8.8716 C   0  0  2  0  0  0  0  0  0  0  0  0
   12.1233   -9.4886   -9.1478 N   0  0  0  0  0  0  0  0  0  0  0  0
   13.0320   -7.2389   -8.8064 C   0  0  0  0  0  0  0  0  0  0  0  0
   14.1867   -7.6719   -8.5793 O   0  0  0  0  0  0  0  0  0  0  0  0
   12.8506   -5.8594   -9.0119 N   0  0  0  0  0  0  0  0  0  0  0  0
   14.0771   -4.9647   -8.9645 C   0  0  1  0  0  0  0  0  0  0  0  0
   14.1440   -4.3575  -10.3199 C   0  0  0  0  0  0  0  0  0  0  0  0
   15.1342   -3.3380  -10.6293 C   0  0  0  0  0  0  0  0  0  0  0  0
   15.1981   -2.7168  -11.9684 C   0  0  0  0  0  0  0  0  0  0  0  0
   16.3627   -1.6885  -12.0224 C   0  0  0  0  0  0  0  0  0  0  0  0
   16.3486   -1.0447  -13.3122 N   0  0  0  0  0  0  0  0  0  0  0  0
   13.6547   -3.9885   -7.9093 C   0  0  0  0  0  0  0  0  0  0  0  0
   14.4579   -3.2135   -7.1224 O   0  0  0  0  0  0  0  0  0  0  0  0
   12.3830   -3.8761   -7.7261 O   0  0  0  0  0  0  0  0  0  0  0  0
  2  1  1  6
  2 10  1  0
  3  2  1  0
  3  4  1  0
  4  5  2  0
  4  9  1  0
  5  6  1  0
  6  7  2  0
  8  7  1  0
  9  8  2  0
 10 11  2  0
 13 12  1  1
 13 15  1  0
 14 10  1  0
 14 13  1  0
 15 16  2  0
 17 15  1  0
 17 18  1  0
 18 24  1  0
 19 20  1  0
 18 19  1  6
 21 20  1  0
 22 23  1  0
 22 21  1  0
 24 25  1  0
 26 24  2  0
M  END
$$$$
