IPH.pdb
     RDKit          3D

 26 27  0  0  1  0  0  0  0  0999 V2000
   23.7180  -17.5893  -17.7861 C   0  0  0  0  0  0  0  0  0  0  0  0
   24.8186  -16.9429  -16.9872 C   0  0  0  0  0  0  0  0  0  0  0  0
   24.3816  -15.5693  -16.5301 C   0  0  2  0  0  0  0  0  0  0  0  0
   23.9485  -14.7194  -17.7080 C   0  0  0  0  0  0  0  0  0  0  0  0
   25.4359  -14.8577  -15.7053 C   0  0  2  0  0  0  0  0  0  0  0  0
   25.8134  -15.8015  -14.6486 N   0  0  0  0  0  0  0  0  0  0  0  0
   25.0043  -13.5774  -15.1416 C   0  0  0  0  0  0  0  0  0  0  0  0
   24.0631  -13.5483  -14.2930 O   0  0  0  0  0  0  0  0  0  0  0  0
   25.6231  -12.3694  -15.5317 N   0  0  0  0  0  0  0  0  0  0  0  0
   26.6930  -12.1704  -16.4516 C   0  0  0  0  0  0  0  0  0  0  0  0
   26.9850  -10.6746  -16.4854 C   0  0  0  0  0  0  0  0  0  0  0  0
   26.3648  -10.1294  -15.2450 C   0  0  0  0  0  0  0  0  0  0  0  0
   25.2227  -11.0758  -15.0037 C   0  0  1  0  0  0  0  0  0  0  0  0
   23.9627  -10.5842  -15.6193 C   0  0  0  0  0  0  0  0  0  0  0  0
   23.3565  -11.3084  -16.4513 O   0  0  0  0  0  0  0  0  0  0  0  0
   23.4165   -9.3240  -15.3034 N   0  0  0  0  0  0  0  0  0  0  0  0
   21.9677   -9.0455  -15.3078 C   0  0  1  0  0  0  0  0  0  0  0  0
   21.2560   -9.9789  -14.3986 C   0  0  0  0  0  0  0  0  0  0  0  0
   20.2903  -10.8224  -15.1148 C   0  0  0  0  0  0  0  0  0  0  0  0
   20.0259  -10.6924  -16.4944 C   0  0  0  0  0  0  0  0  0  0  0  0
   19.1032  -11.6045  -16.8432 N   0  0  0  0  0  0  0  0  0  0  0  0
   18.7778  -12.2980  -15.7504 C   0  0  0  0  0  0  0  0  0  0  0  0
   19.4942  -11.8181  -14.7337 N   0  0  0  0  0  0  0  0  0  0  0  0
   21.7482   -7.6400  -14.8972 C   0  0  0  0  0  0  0  0  0  0  0  0
   22.3937   -7.1951  -13.7267 O   0  0  0  0  0  0  0  0  0  0  0  0
   21.0527   -6.7950  -15.4714 O   0  0  0  0  0  0  0  0  0  0  0  0
  2  3  1  0
  2  1  1  0
  3  4  1  6
  5  6  1  1
  5  3  1  0
  7  5  1  0
  8  7  2  0
  9  7  1  0
 10  9  1  0
 11 10  1  0
 11 12  1  0
 12 13  1  0
 13  9  1  0
 14 15  2  0
 13 14  1  6
 16 14  1  0
 17 16  1  0
 17 24  1  0
 17 18  1  1
 19 18  1  0
 20 19  2  0
 21 22  1  0
 21 20  1  0
 22 23  2  0
 23 19  1  0
 24 26  2  0
 24 25  1  0
M  END
$$$$
