IPH.pdb
     RDKit          3D

 26 27  0  0  1  0  0  0  0  0999 V2000
   27.1162  -16.9134  -15.1781 C   0  0  0  0  0  0  0  0  0  0  0  0
   25.6746  -16.9341  -15.6128 C   0  0  0  0  0  0  0  0  0  0  0  0
   25.1907  -15.5215  -15.8516 C   0  0  2  0  0  0  0  0  0  0  0  0
   25.1250  -14.7449  -14.5516 C   0  0  0  0  0  0  0  0  0  0  0  0
   23.8649  -15.4669  -16.5847 C   0  0  2  0  0  0  0  0  0  0  0  0
   24.0404  -16.2983  -17.7797 N   0  0  0  0  0  0  0  0  0  0  0  0
   23.4221  -14.1174  -16.9395 C   0  0  0  0  0  0  0  0  0  0  0  0
   24.2175  -13.3296  -17.5341 O   0  0  0  0  0  0  0  0  0  0  0  0
   22.1168  -13.6784  -16.6269 N   0  0  0  0  0  0  0  0  0  0  0  0
   21.0572  -14.3993  -16.0039 C   0  0  0  0  0  0  0  0  0  0  0  0
   19.8590  -13.4601  -15.9258 C   0  0  0  0  0  0  0  0  0  0  0  0
   20.1453  -12.3819  -16.9137 C   0  0  0  0  0  0  0  0  0  0  0  0
   21.6472  -12.3357  -16.9256 C   0  0  1  0  0  0  0  0  0  0  0  0
   22.1734  -11.3308  -15.9657 C   0  0  0  0  0  0  0  0  0  0  0  0
   22.3766  -11.6646  -14.7692 O   0  0  0  0  0  0  0  0  0  0  0  0
   22.4555  -10.0043  -16.3491 N   0  0  0  0  0  0  0  0  0  0  0  0
   23.0089   -8.9950  -15.4262 C   0  0  1  0  0  0  0  0  0  0  0  0
   23.9945   -8.1341  -16.1275 C   0  0  0  0  0  0  0  0  0  0  0  0
   25.2159   -8.8670  -16.4850 C   0  0  0  0  0  0  0  0  0  0  0  0
   25.5785  -10.0967  -15.8963 C   0  0  0  0  0  0  0  0  0  0  0  0
   26.7386  -10.5063  -16.4361 N   0  0  0  0  0  0  0  0  0  0  0  0
   27.1191   -9.5940  -17.3328 C   0  0  0  0  0  0  0  0  0  0  0  0
   26.2008   -8.6276  -17.3471 N   0  0  0  0  0  0  0  0  0  0  0  0
   21.8971   -8.1850  -14.8787 C   0  0  0  0  0  0  0  0  0  0  0  0
   20.6234   -8.3519  -15.4570 O   0  0  0  0  0  0  0  0  0  0  0  0
   21.9557   -7.3645  -13.9562 O   0  0  0  0  0  0  0  0  0  0  0  0
  2  3  1  0
  2  1  1  0
  3  4  1  1
  5  6  1  6
  5  3  1  0
  7  5  1  0
  8  7  2  0
  9  7  1  0
 10  9  1  0
 11 10  1  0
 11 12  1  0
 12 13  1  0
 13  9  1  0
 14 15  2  0
 13 14  1  1
 16 14  1  0
 17 16  1  0
 17 24  1  0
 17 18  1  6
 19 18  1  0
 20 19  2  0
 21 22  1  0
 21 20  1  0
 22 23  2  0
 23 19  1  0
 24 26  2  0
 24 25  1  0
M  END
$$$$
