IPH.pdb
     RDKit          3D

 26 27  0  0  1  0  0  0  0  0999 V2000
   26.6175  -20.1045   -8.6581 C   0  0  0  0  0  0  0  0  0  0  0  0
   26.9100  -20.1345  -10.1350 C   0  0  0  0  0  0  0  0  0  0  0  0
   25.6379  -20.4114  -10.9041 C   0  0  2  0  0  0  0  0  0  0  0  0
   25.0062  -21.7137  -10.4542 C   0  0  0  0  0  0  0  0  0  0  0  0
   25.8404  -20.3963  -12.4064 C   0  0  2  0  0  0  0  0  0  0  0  0
   26.6079  -19.1793  -12.6888 N   0  0  0  0  0  0  0  0  0  0  0  0
   24.6023  -20.4339  -13.1867 C   0  0  0  0  0  0  0  0  0  0  0  0
   23.7633  -19.4895  -13.0822 O   0  0  0  0  0  0  0  0  0  0  0  0
   24.3275  -21.5118  -14.0568 N   0  0  0  0  0  0  0  0  0  0  0  0
   25.1100  -22.6748  -14.3127 C   0  0  0  0  0  0  0  0  0  0  0  0
   24.3607  -23.5017  -15.3514 C   0  0  0  0  0  0  0  0  0  0  0  0
   23.3941  -22.5560  -15.9772 C   0  0  0  0  0  0  0  0  0  0  0  0
   23.1235  -21.5787  -14.8682 C   0  0  1  0  0  0  0  0  0  0  0  0
   21.9311  -21.9681  -14.0717 C   0  0  0  0  0  0  0  0  0  0  0  0
   22.0720  -22.2898  -12.8630 O   0  0  0  0  0  0  0  0  0  0  0  0
   20.6353  -21.9917  -14.6254 N   0  0  0  0  0  0  0  0  0  0  0  0
   19.4077  -21.8531  -13.8191 C   0  0  1  0  0  0  0  0  0  0  0  0
   19.4124  -20.5642  -13.0820 C   0  0  0  0  0  0  0  0  0  0  0  0
   19.8709  -20.7200  -11.6954 C   0  0  0  0  0  0  0  0  0  0  0  0
   20.7377  -19.8051  -11.0616 C   0  0  0  0  0  0  0  0  0  0  0  0
   20.9633  -20.2259   -9.8058 N   0  0  0  0  0  0  0  0  0  0  0  0
   20.2806  -21.3579   -9.6231 C   0  0  0  0  0  0  0  0  0  0  0  0
   19.6378  -21.6348  -10.7578 N   0  0  0  0  0  0  0  0  0  0  0  0
   18.2325  -21.9432  -14.7151 C   0  0  0  0  0  0  0  0  0  0  0  0
   17.2591  -22.9169  -14.4167 O   0  0  0  0  0  0  0  0  0  0  0  0
   18.0001  -21.2515  -15.7127 O   0  0  0  0  0  0  0  0  0  0  0  0
  2  3  1  0
  2  1  1  0
  3  4  1  1
  5  6  1  1
  5  3  1  0
  7  5  1  0
  8  7  2  0
  9  7  1  0
 10  9  1  0
 11 10  1  0
 11 12  1  0
 12 13  1  0
 13  9  1  0
 14 15  2  0
 13 14  1  1
 16 14  1  0
 17 16  1  0
 17 24  1  0
 17 18  1  6
 19 18  1  0
 20 19  2  0
 21 22  1  0
 21 20  1  0
 22 23  2  0
 23 19  1  0
 24 26  2  0
 24 25  1  0
M  END
$$$$
