IPH.pdb
     RDKit          3D

 26 27  0  0  1  0  0  0  0  0999 V2000
   18.6650  -16.3714  -15.9556 C   0  0  0  0  0  0  0  0  0  0  0  0
   19.4457  -15.7871  -17.1030 C   0  0  0  0  0  0  0  0  0  0  0  0
   19.7093  -14.3198  -16.8495 C   0  0  2  0  0  0  0  0  0  0  0  0
   18.4096  -13.5494  -16.7293 C   0  0  0  0  0  0  0  0  0  0  0  0
   20.6176  -13.6941  -17.8895 C   0  0  2  0  0  0  0  0  0  0  0  0
   21.8399  -14.5040  -17.8843 N   0  0  0  0  0  0  0  0  0  0  0  0
   20.9191  -12.2800  -17.6609 C   0  0  0  0  0  0  0  0  0  0  0  0
   21.7208  -11.9484  -16.7367 O   0  0  0  0  0  0  0  0  0  0  0  0
   20.3266  -11.2756  -18.4576 N   0  0  0  0  0  0  0  0  0  0  0  0
   19.4683  -11.4209  -19.5857 C   0  0  0  0  0  0  0  0  0  0  0  0
   19.1367  -10.0183  -20.0825 C   0  0  0  0  0  0  0  0  0  0  0  0
   20.1815   -9.1382  -19.4873 C   0  0  0  0  0  0  0  0  0  0  0  0
   20.5337   -9.8574  -18.2157 C   0  0  1  0  0  0  0  0  0  0  0  0
   19.7344   -9.3620  -17.0652 C   0  0  0  0  0  0  0  0  0  0  0  0
   18.7722  -10.0514  -16.6371 O   0  0  0  0  0  0  0  0  0  0  0  0
   20.0163   -8.1361  -16.4296 N   0  0  0  0  0  0  0  0  0  0  0  0
   19.2477   -7.6254  -15.2785 C   0  0  1  0  0  0  0  0  0  0  0  0
   20.1050   -7.5614  -14.0680 C   0  0  0  0  0  0  0  0  0  0  0  0
   21.2938   -6.7240  -14.2740 C   0  0  0  0  0  0  0  0  0  0  0  0
   22.5263   -7.2332  -14.7343 C   0  0  0  0  0  0  0  0  0  0  0  0
   23.4053   -6.2205  -14.8187 N   0  0  0  0  0  0  0  0  0  0  0  0
   22.7835   -5.1040  -14.4342 C   0  0  0  0  0  0  0  0  0  0  0  0
   21.5295   -5.4242  -14.1146 N   0  0  0  0  0  0  0  0  0  0  0  0
   18.7113   -6.2872  -15.6157 C   0  0  0  0  0  0  0  0  0  0  0  0
   17.8036   -5.7026  -14.7107 O   0  0  0  0  0  0  0  0  0  0  0  0
   18.9712   -5.6096  -16.6161 O   0  0  0  0  0  0  0  0  0  0  0  0
  2  3  1  0
  2  1  1  0
  3  4  1  6
  5  6  1  1
  5  3  1  0
  7  5  1  0
  8  7  2  0
  9  7  1  0
 10  9  1  0
 11 10  1  0
 11 12  1  0
 12 13  1  0
 13  9  1  0
 14 15  2  0
 13 14  1  1
 16 14  1  0
 17 16  1  0
 17 24  1  0
 17 18  1  1
 19 18  1  0
 20 19  2  0
 21 22  1  0
 21 20  1  0
 22 23  2  0
 23 19  1  0
 24 26  2  0
 24 25  1  0
M  END
$$$$
