IPH.pdb
     RDKit          3D

 26 27  0  0  1  0  0  0  0  0999 V2000
   28.1966  -17.2515  -17.1989 C   0  0  0  0  0  0  0  0  0  0  0  0
   28.5068  -18.5195  -16.4481 C   0  0  0  0  0  0  0  0  0  0  0  0
   27.2770  -18.9883  -15.7034 C   0  0  2  0  0  0  0  0  0  0  0  0
   26.8660  -17.9804  -14.6487 C   0  0  0  0  0  0  0  0  0  0  0  0
   27.4420  -20.3693  -15.1002 C   0  0  2  0  0  0  0  0  0  0  0  0
   27.8419  -21.2395  -16.2105 N   0  0  0  0  0  0  0  0  0  0  0  0
   26.2485  -20.8848  -14.4274 C   0  0  0  0  0  0  0  0  0  0  0  0
   25.2826  -21.3338  -15.1146 O   0  0  0  0  0  0  0  0  0  0  0  0
   26.1567  -20.8885  -13.0181 N   0  0  0  0  0  0  0  0  0  0  0  0
   27.1097  -20.4368  -12.0599 C   0  0  0  0  0  0  0  0  0  0  0  0
   26.5149  -20.6908  -10.6794 C   0  0  0  0  0  0  0  0  0  0  0  0
   25.4311  -21.6892  -10.9010 C   0  0  0  0  0  0  0  0  0  0  0  0
   24.9938  -21.3947  -12.3082 C   0  0  1  0  0  0  0  0  0  0  0  0
   23.8564  -20.4391  -12.3412 C   0  0  0  0  0  0  0  0  0  0  0  0
   24.0738  -19.2117  -12.1666 O   0  0  0  0  0  0  0  0  0  0  0  0
   22.5299  -20.8606  -12.5622 N   0  0  0  0  0  0  0  0  0  0  0  0
   21.5388  -20.0592  -13.3053 C   0  0  1  0  0  0  0  0  0  0  0  0
   22.0505  -19.7234  -14.6580 C   0  0  0  0  0  0  0  0  0  0  0  0
   21.0637  -18.9851  -15.4567 C   0  0  0  0  0  0  0  0  0  0  0  0
   19.7925  -18.6187  -14.9669 C   0  0  0  0  0  0  0  0  0  0  0  0
   19.1340  -17.9565  -15.9328 N   0  0  0  0  0  0  0  0  0  0  0  0
   19.9303  -17.8907  -17.0017 C   0  0  0  0  0  0  0  0  0  0  0  0
   21.0726  -18.5077  -16.6987 N   0  0  0  0  0  0  0  0  0  0  0  0
   20.2740  -20.8235  -13.3952 C   0  0  0  0  0  0  0  0  0  0  0  0
   19.0789  -20.1434  -13.0891 O   0  0  0  0  0  0  0  0  0  0  0  0
   20.1406  -22.0103  -13.7136 O   0  0  0  0  0  0  0  0  0  0  0  0
  2  3  1  0
  2  1  1  0
  3  4  1  1
  5  6  1  6
  5  3  1  0
  7  5  1  0
  8  7  2  0
  9  7  1  0
 10  9  1  0
 11 10  1  0
 11 12  1  0
 12 13  1  0
 13  9  1  0
 14 15  2  0
 13 14  1  1
 16 14  1  0
 17 16  1  0
 17 24  1  0
 17 18  1  6
 19 18  1  0
 20 19  2  0
 21 22  1  0
 21 20  1  0
 22 23  2  0
 23 19  1  0
 24 26  2  0
 24 25  1  0
M  END
$$$$
