IPH.pdb
     RDKit          3D

 26 27  0  0  1  0  0  0  0  0999 V2000
   17.0355  -13.1105  -16.3983 C   0  0  0  0  0  0  0  0  0  0  0  0
   18.0834  -12.6665  -17.3844 C   0  0  0  0  0  0  0  0  0  0  0  0
   18.8341  -11.4751  -16.8332 C   0  0  2  0  0  0  0  0  0  0  0  0
   17.9063  -10.2919  -16.6425 C   0  0  0  0  0  0  0  0  0  0  0  0
   20.0359  -11.0930  -17.6745 C   0  0  2  0  0  0  0  0  0  0  0  0
   20.8627  -12.3015  -17.7531 N   0  0  0  0  0  0  0  0  0  0  0  0
   20.8040   -9.9593  -17.1570 C   0  0  0  0  0  0  0  0  0  0  0  0
   21.5390  -10.1105  -16.1354 O   0  0  0  0  0  0  0  0  0  0  0  0
   20.7371   -8.6944  -17.7814 N   0  0  0  0  0  0  0  0  0  0  0  0
   19.9814   -8.3010  -18.9236 C   0  0  0  0  0  0  0  0  0  0  0  0
   20.2926   -6.8317  -19.1849 C   0  0  0  0  0  0  0  0  0  0  0  0
   21.5590   -6.5654  -18.4461 C   0  0  0  0  0  0  0  0  0  0  0  0
   21.4892   -7.5442  -17.3080 C   0  0  1  0  0  0  0  0  0  0  0  0
   20.8803   -6.9356  -16.0968 C   0  0  0  0  0  0  0  0  0  0  0  0
   19.7605   -7.3458  -15.6940 O   0  0  0  0  0  0  0  0  0  0  0  0
   21.5163   -5.9053  -15.3757 N   0  0  0  0  0  0  0  0  0  0  0  0
   21.1729   -5.5607  -13.9829 C   0  0  1  0  0  0  0  0  0  0  0  0
   21.4645   -6.7012  -13.0780 C   0  0  0  0  0  0  0  0  0  0  0  0
   21.1373   -6.3969  -11.6790 C   0  0  0  0  0  0  0  0  0  0  0  0
   19.9621   -6.8513  -11.0446 C   0  0  0  0  0  0  0  0  0  0  0  0
   19.9596   -6.4088   -9.7761 N   0  0  0  0  0  0  0  0  0  0  0  0
   21.0746   -5.7007   -9.5860 C   0  0  0  0  0  0  0  0  0  0  0  0
   21.7613   -5.7055  -10.7287 N   0  0  0  0  0  0  0  0  0  0  0  0
   21.9414   -4.3604  -13.5822 C   0  0  0  0  0  0  0  0  0  0  0  0
   21.2647   -3.3708  -12.8423 O   0  0  0  0  0  0  0  0  0  0  0  0
   23.1293   -4.1199  -13.8245 O   0  0  0  0  0  0  0  0  0  0  0  0
  2  3  1  0
  2  1  1  0
  3  4  1  6
  5  6  1  1
  5  3  1  0
  7  5  1  0
  8  7  2  0
  9  7  1  0
 10  9  1  0
 11 10  1  0
 11 12  1  0
 12 13  1  0
 13  9  1  0
 14 15  2  0
 13 14  1  1
 16 14  1  0
 17 16  1  0
 17 24  1  0
 17 18  1  1
 19 18  1  0
 20 19  2  0
 21 22  1  0
 21 20  1  0
 22 23  2  0
 23 19  1  0
 24 26  2  0
 24 25  1  0
M  END
$$$$
