IPH.pdb
     RDKit          3D

 26 27  0  0  1  0  0  0  0  0999 V2000
   27.4412  -15.5604  -16.8105 C   0  0  0  0  0  0  0  0  0  0  0  0
   28.0255  -16.8908  -16.4155 C   0  0  0  0  0  0  0  0  0  0  0  0
   26.9636  -17.7419  -15.7561 C   0  0  2  0  0  0  0  0  0  0  0  0
   26.5065  -17.1217  -14.4508 C   0  0  0  0  0  0  0  0  0  0  0  0
   27.4008  -19.1788  -15.5512 C   0  0  2  0  0  0  0  0  0  0  0  0
   27.8872  -19.6334  -16.8576 N   0  0  0  0  0  0  0  0  0  0  0  0
   26.3543  -20.0650  -15.0388 C   0  0  0  0  0  0  0  0  0  0  0  0
   25.3967  -20.4110  -15.7938 O   0  0  0  0  0  0  0  0  0  0  0  0
   26.3957  -20.5413  -13.7099 N   0  0  0  0  0  0  0  0  0  0  0  0
   27.3826  -20.3097  -12.7085 C   0  0  0  0  0  0  0  0  0  0  0  0
   26.9490  -21.0754  -11.4637 C   0  0  0  0  0  0  0  0  0  0  0  0
   25.9578  -22.0767  -11.9490 C   0  0  0  0  0  0  0  0  0  0  0  0
   25.3627  -21.3967  -13.1497 C   0  0  1  0  0  0  0  0  0  0  0  0
   24.1349  -20.6371  -12.7983 C   0  0  0  0  0  0  0  0  0  0  0  0
   24.2108  -19.6795  -11.9849 O   0  0  0  0  0  0  0  0  0  0  0  0
   22.8758  -20.9529  -13.3470 N   0  0  0  0  0  0  0  0  0  0  0  0
   21.6409  -20.2162  -13.0168 C   0  0  1  0  0  0  0  0  0  0  0  0
   21.7336  -18.8099  -13.4839 C   0  0  0  0  0  0  0  0  0  0  0  0
   21.9547  -18.7203  -14.9330 C   0  0  0  0  0  0  0  0  0  0  0  0
   22.2581  -19.8382  -15.7382 C   0  0  0  0  0  0  0  0  0  0  0  0
   22.3981  -19.4270  -17.0096 N   0  0  0  0  0  0  0  0  0  0  0  0
   22.1973  -18.1080  -17.0391 C   0  0  0  0  0  0  0  0  0  0  0  0
   21.9351  -17.7069  -15.7950 N   0  0  0  0  0  0  0  0  0  0  0  0
   20.4896  -20.9047  -13.6432 C   0  0  0  0  0  0  0  0  0  0  0  0
   19.2026  -20.3998  -13.3722 O   0  0  0  0  0  0  0  0  0  0  0  0
   20.5252  -21.8885  -14.3906 O   0  0  0  0  0  0  0  0  0  0  0  0
  2  3  1  0
  2  1  1  0
  3  4  1  1
  5  6  1  6
  5  3  1  0
  7  5  1  0
  8  7  2  0
  9  7  1  0
 10  9  1  0
 11 10  1  0
 11 12  1  0
 12 13  1  0
 13  9  1  0
 14 15  2  0
 13 14  1  1
 16 14  1  0
 17 16  1  0
 17 24  1  0
 17 18  1  6
 19 18  1  0
 20 19  2  0
 21 22  1  0
 21 20  1  0
 22 23  2  0
 23 19  1  0
 24 26  2  0
 24 25  1  0
M  END
$$$$
