IPH.pdb
     RDKit          3D

 26 27  0  0  1  0  0  0  0  0999 V2000
   28.3697  -18.2564  -17.0847 C   0  0  0  0  0  0  0  0  0  0  0  0
   28.5777  -19.3254  -16.0448 C   0  0  0  0  0  0  0  0  0  0  0  0
   27.2435  -19.7568  -15.4788 C   0  0  2  0  0  0  0  0  0  0  0  0
   26.5446  -18.5974  -14.7972 C   0  0  0  0  0  0  0  0  0  0  0  0
   27.3537  -20.9480  -14.5477 C   0  0  2  0  0  0  0  0  0  0  0  0
   28.0029  -22.0031  -15.3322 N   0  0  0  0  0  0  0  0  0  0  0  0
   26.0781  -21.4079  -13.9961 C   0  0  0  0  0  0  0  0  0  0  0  0
   25.2913  -22.0933  -14.7158 O   0  0  0  0  0  0  0  0  0  0  0  0
   25.7094  -21.0971  -12.6687 N   0  0  0  0  0  0  0  0  0  0  0  0
   26.4738  -20.4437  -11.6592 C   0  0  0  0  0  0  0  0  0  0  0  0
   25.6067  -20.3830  -10.4068 C   0  0  0  0  0  0  0  0  0  0  0  0
   24.5436  -21.4051  -10.6203 C   0  0  0  0  0  0  0  0  0  0  0  0
   24.4071  -21.4316  -12.1166 C   0  0  1  0  0  0  0  0  0  0  0  0
   23.3437  -20.5066  -12.5876 C   0  0  0  0  0  0  0  0  0  0  0  0
   23.5663  -19.2680  -12.6109 O   0  0  0  0  0  0  0  0  0  0  0  0
   22.0823  -20.9697  -13.0126 N   0  0  0  0  0  0  0  0  0  0  0  0
   21.0226  -20.0789  -13.5226 C   0  0  1  0  0  0  0  0  0  0  0  0
   20.7995  -20.3127  -14.9718 C   0  0  0  0  0  0  0  0  0  0  0  0
   19.7540  -19.4390  -15.5200 C   0  0  0  0  0  0  0  0  0  0  0  0
   19.9368  -18.0566  -15.7335 C   0  0  0  0  0  0  0  0  0  0  0  0
   18.8029  -17.5466  -16.2426 N   0  0  0  0  0  0  0  0  0  0  0  0
   17.9208  -18.5413  -16.3582 C   0  0  0  0  0  0  0  0  0  0  0  0
   18.5052  -19.6580  -15.9236 N   0  0  0  0  0  0  0  0  0  0  0  0
   19.7813  -20.3203  -12.7527 C   0  0  0  0  0  0  0  0  0  0  0  0
   18.8100  -19.2999  -12.7462 O   0  0  0  0  0  0  0  0  0  0  0  0
   19.4910  -21.3309  -12.1031 O   0  0  0  0  0  0  0  0  0  0  0  0
  2  3  1  0
  2  1  1  0
  3  4  1  1
  5  6  1  6
  5  3  1  0
  7  5  1  0
  8  7  2  0
  9  7  1  0
 10  9  1  0
 11 10  1  0
 11 12  1  0
 12 13  1  0
 13  9  1  0
 14 15  2  0
 13 14  1  1
 16 14  1  0
 17 16  1  0
 17 24  1  0
 17 18  1  6
 19 18  1  0
 20 19  2  0
 21 22  1  0
 21 20  1  0
 22 23  2  0
 23 19  1  0
 24 26  2  0
 24 25  1  0
M  END
$$$$
