IPH.pdb
     RDKit          3D

 26 27  0  0  1  0  0  0  0  0999 V2000
   28.4652  -17.8491  -17.1587 C   0  0  0  0  0  0  0  0  0  0  0  0
   28.6804  -18.9651  -16.1709 C   0  0  0  0  0  0  0  0  0  0  0  0
   27.3726  -19.3109  -15.4950 C   0  0  2  0  0  0  0  0  0  0  0  0
   26.8790  -18.1550  -14.6479 C   0  0  0  0  0  0  0  0  0  0  0  0
   27.4473  -20.5878  -14.6813 C   0  0  2  0  0  0  0  0  0  0  0  0
   27.9805  -21.6055  -15.5923 N   0  0  0  0  0  0  0  0  0  0  0  0
   26.1728  -21.0134  -14.1004 C   0  0  0  0  0  0  0  0  0  0  0  0
   25.3039  -21.5760  -14.8320 O   0  0  0  0  0  0  0  0  0  0  0  0
   25.8957  -20.8046  -12.7314 N   0  0  0  0  0  0  0  0  0  0  0  0
   26.7445  -20.2692  -11.7199 C   0  0  0  0  0  0  0  0  0  0  0  0
   25.9554  -20.2846  -10.4156 C   0  0  0  0  0  0  0  0  0  0  0  0
   24.8396  -21.2447  -10.6479 C   0  0  0  0  0  0  0  0  0  0  0  0
   24.6150  -21.1372  -12.1298 C   0  0  1  0  0  0  0  0  0  0  0  0
   23.5657  -20.1366  -12.4551 C   0  0  0  0  0  0  0  0  0  0  0  0
   23.9042  -18.9753  -12.8032 O   0  0  0  0  0  0  0  0  0  0  0  0
   22.1917  -20.4426  -12.3868 N   0  0  0  0  0  0  0  0  0  0  0  0
   21.2454  -20.1676  -13.4847 C   0  0  1  0  0  0  0  0  0  0  0  0
   21.7247  -20.7794  -14.7498 C   0  0  0  0  0  0  0  0  0  0  0  0
   22.2774  -19.7808  -15.6742 C   0  0  0  0  0  0  0  0  0  0  0  0
   22.2873  -18.3971  -15.4000 C   0  0  0  0  0  0  0  0  0  0  0  0
   22.8590  -17.7579  -16.4342 N   0  0  0  0  0  0  0  0  0  0  0  0
   23.2068  -18.6732  -17.3411 C   0  0  0  0  0  0  0  0  0  0  0  0
   22.8527  -19.8693  -16.8707 N   0  0  0  0  0  0  0  0  0  0  0  0
   19.9137  -20.6981  -13.1144 C   0  0  0  0  0  0  0  0  0  0  0  0
   18.8304  -19.7975  -13.1164 O   0  0  0  0  0  0  0  0  0  0  0  0
   19.6350  -21.8599  -12.7982 O   0  0  0  0  0  0  0  0  0  0  0  0
  2  3  1  0
  2  1  1  0
  3  4  1  1
  5  6  1  6
  5  3  1  0
  7  5  1  0
  8  7  2  0
  9  7  1  0
 10  9  1  0
 11 10  1  0
 11 12  1  0
 12 13  1  0
 13  9  1  0
 14 15  2  0
 13 14  1  1
 16 14  1  0
 17 16  1  0
 17 24  1  0
 17 18  1  6
 19 18  1  0
 20 19  2  0
 21 22  1  0
 21 20  1  0
 22 23  2  0
 23 19  1  0
 24 26  2  0
 24 25  1  0
M  END
$$$$
