IPH.pdb
     RDKit          3D

 26 27  0  0  1  0  0  0  0  0999 V2000
   19.8261  -16.4325  -19.9913 C   0  0  0  0  0  0  0  0  0  0  0  0
   20.7269  -16.5959  -18.7957 C   0  0  0  0  0  0  0  0  0  0  0  0
   20.7378  -15.3201  -17.9838 C   0  0  2  0  0  0  0  0  0  0  0  0
   21.2799  -14.1639  -18.8002 C   0  0  0  0  0  0  0  0  0  0  0  0
   21.4883  -15.4594  -16.6741 C   0  0  2  0  0  0  0  0  0  0  0  0
   20.8644  -16.5906  -15.9804 N   0  0  0  0  0  0  0  0  0  0  0  0
   21.4807  -14.2573  -15.8387 C   0  0  0  0  0  0  0  0  0  0  0  0
   20.3799  -13.7879  -15.4207 O   0  0  0  0  0  0  0  0  0  0  0  0
   22.6866  -13.6097  -15.4912 N   0  0  0  0  0  0  0  0  0  0  0  0
   24.0257  -13.9976  -15.7860 C   0  0  0  0  0  0  0  0  0  0  0  0
   24.9446  -12.9559  -15.1577 C   0  0  0  0  0  0  0  0  0  0  0  0
   24.1035  -12.2551  -14.1469 C   0  0  0  0  0  0  0  0  0  0  0  0
   22.7224  -12.3738  -14.7273 C   0  0  1  0  0  0  0  0  0  0  0  0
   22.3716  -11.1915  -15.5562 C   0  0  0  0  0  0  0  0  0  0  0  0
   22.2127  -11.3305  -16.7971 O   0  0  0  0  0  0  0  0  0  0  0  0
   22.2094   -9.9072  -14.9989 N   0  0  0  0  0  0  0  0  0  0  0  0
   21.2934   -8.8931  -15.5550 C   0  0  1  0  0  0  0  0  0  0  0  0
   19.8940   -9.3888  -15.5335 C   0  0  0  0  0  0  0  0  0  0  0  0
   18.9426   -8.3855  -16.0288 C   0  0  0  0  0  0  0  0  0  0  0  0
   19.3369   -7.1199  -16.5114 C   0  0  0  0  0  0  0  0  0  0  0  0
   18.2396   -6.4428  -16.8890 N   0  0  0  0  0  0  0  0  0  0  0  0
   17.1793   -7.2222  -16.6665 C   0  0  0  0  0  0  0  0  0  0  0  0
   17.6182   -8.3726  -16.1552 N   0  0  0  0  0  0  0  0  0  0  0  0
   21.4230   -7.6463  -14.7673 C   0  0  0  0  0  0  0  0  0  0  0  0
   21.5128   -6.4333  -15.4779 O   0  0  0  0  0  0  0  0  0  0  0  0
   21.4618   -7.5422  -13.5363 O   0  0  0  0  0  0  0  0  0  0  0  0
  2  3  1  0
  2  1  1  0
  3  4  1  6
  5  6  1  1
  5  3  1  0
  7  5  1  0
  8  7  2  0
  9  7  1  0
 10  9  1  0
 11 10  1  0
 11 12  1  0
 12 13  1  0
 13  9  1  0
 14 15  2  0
 13 14  1  6
 16 14  1  0
 17 16  1  0
 17 24  1  0
 17 18  1  1
 19 18  1  0
 20 19  2  0
 21 22  1  0
 21 20  1  0
 22 23  2  0
 23 19  1  0
 24 26  2  0
 24 25  1  0
M  END
$$$$
