IPH.pdb
     RDKit          3D

 26 27  0  0  1  0  0  0  0  0999 V2000
   22.0265  -20.7140   -8.5607 C   0  0  0  0  0  0  0  0  0  0  0  0
   23.4863  -20.8182   -8.9152 C   0  0  0  0  0  0  0  0  0  0  0  0
   23.7056  -20.3368  -10.3318 C   0  0  2  0  0  0  0  0  0  0  0  0
   22.8608  -21.1293  -11.3094 C   0  0  0  0  0  0  0  0  0  0  0  0
   25.1652  -20.3490  -10.7409 C   0  0  2  0  0  0  0  0  0  0  0  0
   25.8829  -19.6626   -9.6622 N   0  0  0  0  0  0  0  0  0  0  0  0
   25.4379  -19.7264  -12.0375 C   0  0  0  0  0  0  0  0  0  0  0  0
   25.0361  -18.5462  -12.2663 O   0  0  0  0  0  0  0  0  0  0  0  0
   26.1442  -20.4247  -13.0414 N   0  0  0  0  0  0  0  0  0  0  0  0
   26.7603  -21.7077  -12.9720 C   0  0  0  0  0  0  0  0  0  0  0  0
   27.4022  -21.9727  -14.3291 C   0  0  0  0  0  0  0  0  0  0  0  0
   27.5082  -20.6349  -14.9767 C   0  0  0  0  0  0  0  0  0  0  0  0
   26.3541  -19.8843  -14.3743 C   0  0  1  0  0  0  0  0  0  0  0  0
   25.1348  -19.9825  -15.2179 C   0  0  0  0  0  0  0  0  0  0  0  0
   24.1310  -20.6064  -14.7851 O   0  0  0  0  0  0  0  0  0  0  0  0
   25.0604  -19.3975  -16.4980 N   0  0  0  0  0  0  0  0  0  0  0  0
   23.8972  -18.6203  -16.9665 C   0  0  1  0  0  0  0  0  0  0  0  0
   23.5945  -17.5163  -16.0211 C   0  0  0  0  0  0  0  0  0  0  0  0
   22.2597  -17.6487  -15.4228 C   0  0  0  0  0  0  0  0  0  0  0  0
   21.4028  -18.7391  -15.6811 C   0  0  0  0  0  0  0  0  0  0  0  0
   20.2660  -18.5666  -14.9860 N   0  0  0  0  0  0  0  0  0  0  0  0
   20.3699  -17.4229  -14.3062 C   0  0  0  0  0  0  0  0  0  0  0  0
   21.5622  -16.8924  -14.5791 N   0  0  0  0  0  0  0  0  0  0  0  0
   24.1868  -18.0915  -18.3187 C   0  0  0  0  0  0  0  0  0  0  0  0
   23.2765  -18.4017  -19.3481 O   0  0  0  0  0  0  0  0  0  0  0  0
   25.1512  -17.3964  -18.6572 O   0  0  0  0  0  0  0  0  0  0  0  0
  2  3  1  0
  2  1  1  0
  3  4  1  6
  5  6  1  1
  5  3  1  0
  7  5  1  0
  8  7  2  0
  9  7  1  0
 10  9  1  0
 11 10  1  0
 11 12  1  0
 12 13  1  0
 13  9  1  0
 14 15  2  0
 13 14  1  6
 16 14  1  0
 17 16  1  0
 17 24  1  0
 17 18  1  1
 19 18  1  0
 20 19  2  0
 21 22  1  0
 21 20  1  0
 22 23  2  0
 23 19  1  0
 24 26  2  0
 24 25  1  0
M  END
$$$$
