IPH.pdb
     RDKit          3D

 26 27  0  0  1  0  0  0  0  0999 V2000
   20.9113  -20.9875  -20.2060 C   0  0  0  0  0  0  0  0  0  0  0  0
   21.6832  -20.5070  -19.0056 C   0  0  0  0  0  0  0  0  0  0  0  0
   21.0465  -21.0373  -17.7407 C   0  0  2  0  0  0  0  0  0  0  0  0
   19.5867  -20.6374  -17.6609 C   0  0  0  0  0  0  0  0  0  0  0  0
   21.7918  -20.6257  -16.4864 C   0  0  2  0  0  0  0  0  0  0  0  0
   23.1674  -21.0982  -16.6721 N   0  0  0  0  0  0  0  0  0  0  0  0
   21.2186  -21.1418  -15.2422 C   0  0  0  0  0  0  0  0  0  0  0  0
   21.2943  -22.3797  -14.9799 O   0  0  0  0  0  0  0  0  0  0  0  0
   20.5791  -20.2774  -14.3266 N   0  0  0  0  0  0  0  0  0  0  0  0
   20.4036  -18.8655  -14.4047 C   0  0  0  0  0  0  0  0  0  0  0  0
   19.6656  -18.4334  -13.1427 C   0  0  0  0  0  0  0  0  0  0  0  0
   19.8443  -19.5594  -12.1832 C   0  0  0  0  0  0  0  0  0  0  0  0
   19.9753  -20.7493  -13.0916 C   0  0  1  0  0  0  0  0  0  0  0  0
   18.6646  -21.4095  -13.3244 C   0  0  0  0  0  0  0  0  0  0  0  0
   18.0959  -21.2806  -14.4399 O   0  0  0  0  0  0  0  0  0  0  0  0
   18.0280  -22.1817  -12.3321 N   0  0  0  0  0  0  0  0  0  0  0  0
   16.7970  -22.9576  -12.5758 C   0  0  1  0  0  0  0  0  0  0  0  0
   17.1297  -24.3419  -12.9967 C   0  0  0  0  0  0  0  0  0  0  0  0
   17.8027  -25.0985  -11.9329 C   0  0  0  0  0  0  0  0  0  0  0  0
   19.0017  -24.6732  -11.3232 C   0  0  0  0  0  0  0  0  0  0  0  0
   19.3554  -25.5766  -10.3938 N   0  0  0  0  0  0  0  0  0  0  0  0
   18.4372  -26.5451  -10.3921 C   0  0  0  0  0  0  0  0  0  0  0  0
   17.5227  -26.2425  -11.3137 N   0  0  0  0  0  0  0  0  0  0  0  0
   15.9817  -22.9641  -11.3400 C   0  0  0  0  0  0  0  0  0  0  0  0
   14.7176  -23.5834  -11.3970 O   0  0  0  0  0  0  0  0  0  0  0  0
   16.2852  -22.4816  -10.2434 O   0  0  0  0  0  0  0  0  0  0  0  0
  2  3  1  0
  2  1  1  0
  3  4  1  1
  5  6  1  6
  5  3  1  0
  7  5  1  0
  8  7  2  0
  9  7  1  0
 10  9  1  0
 11 10  1  0
 11 12  1  0
 12 13  1  0
 13  9  1  0
 14 15  2  0
 13 14  1  6
 16 14  1  0
 17 16  1  0
 17 24  1  0
 17 18  1  1
 19 18  1  0
 20 19  2  0
 21 22  1  0
 21 20  1  0
 22 23  2  0
 23 19  1  0
 24 26  2  0
 24 25  1  0
M  END
$$$$
