IPH.pdb
     RDKit          3D

 26 27  0  0  1  0  0  0  0  0999 V2000
   27.0013  -13.7148  -17.1386 C   0  0  0  0  0  0  0  0  0  0  0  0
   27.7115  -15.0243  -16.9187 C   0  0  0  0  0  0  0  0  0  0  0  0
   26.7066  -16.1019  -16.5790 C   0  0  2  0  0  0  0  0  0  0  0  0
   26.6549  -16.3415  -15.0832 C   0  0  0  0  0  0  0  0  0  0  0  0
   26.9522  -17.3966  -17.3283 C   0  0  2  0  0  0  0  0  0  0  0  0
   26.9118  -17.0429  -18.7507 N   0  0  0  0  0  0  0  0  0  0  0  0
   26.0005  -18.4659  -17.0219 C   0  0  0  0  0  0  0  0  0  0  0  0
   24.8075  -18.3869  -17.4432 O   0  0  0  0  0  0  0  0  0  0  0  0
   26.3933  -19.5881  -16.2599 N   0  0  0  0  0  0  0  0  0  0  0  0
   27.6778  -19.9018  -15.7288 C   0  0  0  0  0  0  0  0  0  0  0  0
   27.5524  -21.2393  -15.0081 C   0  0  0  0  0  0  0  0  0  0  0  0
   26.3024  -21.8516  -15.5401 C   0  0  0  0  0  0  0  0  0  0  0  0
   25.4714  -20.6507  -15.8942 C   0  0  1  0  0  0  0  0  0  0  0  0
   24.5740  -20.2553  -14.7779 C   0  0  0  0  0  0  0  0  0  0  0  0
   24.9944  -19.4600  -13.8975 O   0  0  0  0  0  0  0  0  0  0  0  0
   23.2565  -20.7433  -14.6670 N   0  0  0  0  0  0  0  0  0  0  0  0
   22.1215  -19.9151  -14.2170 C   0  0  1  0  0  0  0  0  0  0  0  0
   22.2917  -18.5108  -14.6678 C   0  0  0  0  0  0  0  0  0  0  0  0
   21.1231  -17.6804  -14.3487 C   0  0  0  0  0  0  0  0  0  0  0  0
   20.4691  -17.7155  -13.0992 C   0  0  0  0  0  0  0  0  0  0  0  0
   19.4471  -16.8438  -13.1241 N   0  0  0  0  0  0  0  0  0  0  0  0
   19.4298  -16.2656  -14.3268 C   0  0  0  0  0  0  0  0  0  0  0  0
   20.4339  -16.7762  -15.0399 N   0  0  0  0  0  0  0  0  0  0  0  0
   20.8662  -20.4912  -14.7503 C   0  0  0  0  0  0  0  0  0  0  0  0
   19.7795  -20.6184  -13.8629 O   0  0  0  0  0  0  0  0  0  0  0  0
   20.6552  -20.8806  -15.9042 O   0  0  0  0  0  0  0  0  0  0  0  0
  2  3  1  0
  2  1  1  0
  3  4  1  1
  5  6  1  6
  5  3  1  0
  7  5  1  0
  8  7  2  0
  9  7  1  0
 10  9  1  0
 11 10  1  0
 11 12  1  0
 12 13  1  0
 13  9  1  0
 14 15  2  0
 13 14  1  1
 16 14  1  0
 17 16  1  0
 17 24  1  0
 17 18  1  6
 19 18  1  0
 20 19  2  0
 21 22  1  0
 21 20  1  0
 22 23  2  0
 23 19  1  0
 24 26  2  0
 24 25  1  0
M  END
$$$$
