IPH.pdb
     RDKit          3D

 26 27  0  0  1  0  0  0  0  0999 V2000
   21.7552  -21.5167   -7.8536 C   0  0  0  0  0  0  0  0  0  0  0  0
   22.7446  -20.5352   -8.4237 C   0  0  0  0  0  0  0  0  0  0  0  0
   24.1159  -21.1691   -8.4898 C   0  0  2  0  0  0  0  0  0  0  0  0
   24.6306  -21.4911   -7.1010 C   0  0  0  0  0  0  0  0  0  0  0  0
   25.1178  -20.3316   -9.2598 C   0  0  2  0  0  0  0  0  0  0  0  0
   25.2557  -19.0847   -8.5008 N   0  0  0  0  0  0  0  0  0  0  0  0
   24.7459  -20.0659  -10.6506 C   0  0  0  0  0  0  0  0  0  0  0  0
   23.9490  -19.1174  -10.9191 O   0  0  0  0  0  0  0  0  0  0  0  0
   25.2634  -20.8547  -11.7015 N   0  0  0  0  0  0  0  0  0  0  0  0
   26.2097  -21.9181  -11.6376 C   0  0  0  0  0  0  0  0  0  0  0  0
   26.4321  -22.4089  -13.0637 C   0  0  0  0  0  0  0  0  0  0  0  0
   25.9377  -21.3062  -13.9356 C   0  0  0  0  0  0  0  0  0  0  0  0
   24.8725  -20.6684  -13.0890 C   0  0  1  0  0  0  0  0  0  0  0  0
   23.5299  -21.2373  -13.3749 C   0  0  0  0  0  0  0  0  0  0  0  0
   23.0168  -22.0514  -12.5634 O   0  0  0  0  0  0  0  0  0  0  0  0
   22.8028  -20.8962  -14.5329 N   0  0  0  0  0  0  0  0  0  0  0  0
   21.3616  -20.5807  -14.5204 C   0  0  1  0  0  0  0  0  0  0  0  0
   21.0702  -19.5202  -13.5231 C   0  0  0  0  0  0  0  0  0  0  0  0
   20.2510  -20.0161  -12.4095 C   0  0  0  0  0  0  0  0  0  0  0  0
   19.8551  -21.3642  -12.2830 C   0  0  0  0  0  0  0  0  0  0  0  0
   19.1218  -21.4939  -11.1648 N   0  0  0  0  0  0  0  0  0  0  0  0
   19.0398  -20.2941  -10.5861 C   0  0  0  0  0  0  0  0  0  0  0  0
   19.7174  -19.4293  -11.3412 N   0  0  0  0  0  0  0  0  0  0  0  0
   20.9522  -20.1543  -15.8778 C   0  0  0  0  0  0  0  0  0  0  0  0
   21.7463  -19.1863  -16.5237 O   0  0  0  0  0  0  0  0  0  0  0  0
   19.9777  -20.5554  -16.5236 O   0  0  0  0  0  0  0  0  0  0  0  0
  2  3  1  0
  2  1  1  0
  3  4  1  1
  5  6  1  1
  5  3  1  0
  7  5  1  0
  8  7  2  0
  9  7  1  0
 10  9  1  0
 11 10  1  0
 11 12  1  0
 12 13  1  0
 13  9  1  0
 14 15  2  0
 13 14  1  1
 16 14  1  0
 17 16  1  0
 17 24  1  0
 17 18  1  1
 19 18  1  0
 20 19  2  0
 21 22  1  0
 21 20  1  0
 22 23  2  0
 23 19  1  0
 24 26  2  0
 24 25  1  0
M  END
$$$$
