IPH.pdb
     RDKit          3D

 26 27  0  0  1  0  0  0  0  0999 V2000
   20.1959  -11.4161  -19.7305 C   0  0  0  0  0  0  0  0  0  0  0  0
   20.6583  -11.9505  -18.4007 C   0  0  0  0  0  0  0  0  0  0  0  0
   22.0637  -12.4942  -18.5272 C   0  0  2  0  0  0  0  0  0  0  0  0
   22.1183  -13.6229  -19.5373 C   0  0  0  0  0  0  0  0  0  0  0  0
   22.6525  -12.9252  -17.1985 C   0  0  2  0  0  0  0  0  0  0  0  0
   21.8159  -14.0382  -16.7388 N   0  0  0  0  0  0  0  0  0  0  0  0
   22.7215  -11.8645  -16.1919 C   0  0  0  0  0  0  0  0  0  0  0  0
   21.7386  -11.6676  -15.4161 O   0  0  0  0  0  0  0  0  0  0  0  0
   23.8715  -11.0534  -16.0728 N   0  0  0  0  0  0  0  0  0  0  0  0
   25.0923  -11.1218  -16.8044 C   0  0  0  0  0  0  0  0  0  0  0  0
   26.0045  -10.0279  -16.2610 C   0  0  0  0  0  0  0  0  0  0  0  0
   25.4307   -9.6672  -14.9339 C   0  0  0  0  0  0  0  0  0  0  0  0
   23.9689   -9.9649  -15.1145 C   0  0  1  0  0  0  0  0  0  0  0  0
   23.2135   -8.7626  -15.5525 C   0  0  0  0  0  0  0  0  0  0  0  0
   22.9973   -8.5801  -16.7790 O   0  0  0  0  0  0  0  0  0  0  0  0
   22.7262   -7.8091  -14.6363 N   0  0  0  0  0  0  0  0  0  0  0  0
   21.9571   -6.6168  -15.0408 C   0  0  1  0  0  0  0  0  0  0  0  0
   20.5444   -6.7350  -14.5998 C   0  0  0  0  0  0  0  0  0  0  0  0
   19.8197   -7.7803  -15.3342 C   0  0  0  0  0  0  0  0  0  0  0  0
   19.4405   -9.0092  -14.7546 C   0  0  0  0  0  0  0  0  0  0  0  0
   18.7962   -9.7402  -15.6796 N   0  0  0  0  0  0  0  0  0  0  0  0
   18.7537   -9.0293  -16.8082 C   0  0  0  0  0  0  0  0  0  0  0  0
   19.3673   -7.8674  -16.5825 N   0  0  0  0  0  0  0  0  0  0  0  0
   22.5930   -5.4146  -14.4555 C   0  0  0  0  0  0  0  0  0  0  0  0
   23.6950   -5.6116  -13.6004 O   0  0  0  0  0  0  0  0  0  0  0  0
   22.2649   -4.2362  -14.6325 O   0  0  0  0  0  0  0  0  0  0  0  0
  2  3  1  0
  2  1  1  0
  3  4  1  6
  5  6  1  1
  5  3  1  0
  7  5  1  0
  8  7  2  0
  9  7  1  0
 10  9  1  0
 11 10  1  0
 11 12  1  0
 12 13  1  0
 13  9  1  0
 14 15  2  0
 13 14  1  6
 16 14  1  0
 17 16  1  0
 17 24  1  0
 17 18  1  1
 19 18  1  0
 20 19  2  0
 21 22  1  0
 21 20  1  0
 22 23  2  0
 23 19  1  0
 24 26  2  0
 24 25  1  0
M  END
$$$$
