IPH.pdb
     RDKit          3D

 26 27  0  0  1  0  0  0  0  0999 V2000
   25.3287  -24.6747  -12.7772 C   0  0  0  0  0  0  0  0  0  0  0  0
   26.0554  -23.4889  -12.1998 C   0  0  0  0  0  0  0  0  0  0  0  0
   25.4904  -22.2104  -12.7768 C   0  0  2  0  0  0  0  0  0  0  0  0
   25.5233  -22.2397  -14.2919 C   0  0  0  0  0  0  0  0  0  0  0  0
   26.1746  -20.9677  -12.2425 C   0  0  2  0  0  0  0  0  0  0  0  0
   26.0628  -21.0526  -10.7829 N   0  0  0  0  0  0  0  0  0  0  0  0
   25.6226  -19.7076  -12.7429 C   0  0  0  0  0  0  0  0  0  0  0  0
   24.6381  -19.1721  -12.1506 O   0  0  0  0  0  0  0  0  0  0  0  0
   26.1725  -19.0778  -13.8810 N   0  0  0  0  0  0  0  0  0  0  0  0
   27.3387  -19.4296  -14.6204 C   0  0  0  0  0  0  0  0  0  0  0  0
   27.4883  -18.4048  -15.7391 C   0  0  0  0  0  0  0  0  0  0  0  0
   26.6484  -17.2473  -15.3206 C   0  0  0  0  0  0  0  0  0  0  0  0
   25.5792  -17.8988  -14.4896 C   0  0  1  0  0  0  0  0  0  0  0  0
   24.3788  -18.2297  -15.3005 C   0  0  0  0  0  0  0  0  0  0  0  0
   23.5451  -19.0638  -14.8605 O   0  0  0  0  0  0  0  0  0  0  0  0
   24.1372  -17.6389  -16.5570 N   0  0  0  0  0  0  0  0  0  0  0  0
   22.8099  -17.6195  -17.2008 C   0  0  1  0  0  0  0  0  0  0  0  0
   21.8291  -16.9011  -16.3486 C   0  0  0  0  0  0  0  0  0  0  0  0
   21.0245  -17.8203  -15.5333 C   0  0  0  0  0  0  0  0  0  0  0  0
   21.2753  -19.2065  -15.4583 C   0  0  0  0  0  0  0  0  0  0  0  0
   20.3723  -19.7628  -14.6335 N   0  0  0  0  0  0  0  0  0  0  0  0
   19.5698  -18.7933  -14.1894 C   0  0  0  0  0  0  0  0  0  0  0  0
   19.9739  -17.6463  -14.7356 N   0  0  0  0  0  0  0  0  0  0  0  0
   22.9295  -16.9722  -18.5270 C   0  0  0  0  0  0  0  0  0  0  0  0
   23.8923  -15.9538  -18.6702 O   0  0  0  0  0  0  0  0  0  0  0  0
   22.2721  -17.2251  -19.5426 O   0  0  0  0  0  0  0  0  0  0  0  0
  2  3  1  0
  2  1  1  0
  3  4  1  6
  5  6  1  1
  5  3  1  0
  7  5  1  0
  8  7  2  0
  9  7  1  0
 10  9  1  0
 11 10  1  0
 11 12  1  0
 12 13  1  0
 13  9  1  0
 14 15  2  0
 13 14  1  6
 16 14  1  0
 17 16  1  0
 17 24  1  0
 17 18  1  1
 19 18  1  0
 20 19  2  0
 21 22  1  0
 21 20  1  0
 22 23  2  0
 23 19  1  0
 24 26  2  0
 24 25  1  0
M  END
$$$$
