IPH.pdb
     RDKit          3D

 26 27  0  0  1  0  0  0  0  0999 V2000
   24.6523  -20.9889  -10.0952 C   0  0  0  0  0  0  0  0  0  0  0  0
   24.4166  -20.8091  -11.5715 C   0  0  0  0  0  0  0  0  0  0  0  0
   25.5312  -21.4678  -12.3528 C   0  0  2  0  0  0  0  0  0  0  0  0
   26.8779  -20.8892  -11.9666 C   0  0  0  0  0  0  0  0  0  0  0  0
   25.3212  -21.4012  -13.8526 C   0  0  2  0  0  0  0  0  0  0  0  0
   25.3216  -19.9738  -14.1880 N   0  0  0  0  0  0  0  0  0  0  0  0
   24.0995  -22.0551  -14.3246 C   0  0  0  0  0  0  0  0  0  0  0  0
   23.0401  -21.3759  -14.4767 O   0  0  0  0  0  0  0  0  0  0  0  0
   24.0836  -23.4375  -14.6132 N   0  0  0  0  0  0  0  0  0  0  0  0
   25.1432  -24.3843  -14.5069 C   0  0  0  0  0  0  0  0  0  0  0  0
   24.5917  -25.7301  -14.9638 C   0  0  0  0  0  0  0  0  0  0  0  0
   23.3607  -25.4031  -15.7373 C   0  0  0  0  0  0  0  0  0  0  0  0
   22.8978  -24.1253  -15.0961 C   0  0  1  0  0  0  0  0  0  0  0  0
   21.9157  -24.3800  -14.0104 C   0  0  0  0  0  0  0  0  0  0  0  0
   22.2545  -24.1926  -12.8127 O   0  0  0  0  0  0  0  0  0  0  0  0
   20.6062  -24.8289  -14.2747 N   0  0  0  0  0  0  0  0  0  0  0  0
   19.5074  -24.7428  -13.2941 C   0  0  1  0  0  0  0  0  0  0  0  0
   19.2641  -23.3298  -12.9085 C   0  0  0  0  0  0  0  0  0  0  0  0
   18.0397  -23.1751  -12.1123 C   0  0  0  0  0  0  0  0  0  0  0  0
   17.6824  -24.0528  -11.0672 C   0  0  0  0  0  0  0  0  0  0  0  0
   16.5177  -23.6409  -10.5391 N   0  0  0  0  0  0  0  0  0  0  0  0
   16.1294  -22.5497  -11.2020 C   0  0  0  0  0  0  0  0  0  0  0  0
   17.0474  -22.2890  -12.1329 N   0  0  0  0  0  0  0  0  0  0  0  0
   18.2902  -25.3453  -13.8834 C   0  0  0  0  0  0  0  0  0  0  0  0
   17.9989  -25.0420  -15.2280 O   0  0  0  0  0  0  0  0  0  0  0  0
   17.4845  -26.0976  -13.3245 O   0  0  0  0  0  0  0  0  0  0  0  0
  2  3  1  0
  2  1  1  0
  3  4  1  6
  5  6  1  1
  5  3  1  0
  7  5  1  0
  8  7  2  0
  9  7  1  0
 10  9  1  0
 11 10  1  0
 11 12  1  0
 12 13  1  0
 13  9  1  0
 14 15  2  0
 13 14  1  1
 16 14  1  0
 17 16  1  0
 17 24  1  0
 17 18  1  6
 19 18  1  0
 20 19  2  0
 21 22  1  0
 21 20  1  0
 22 23  2  0
 23 19  1  0
 24 26  2  0
 24 25  1  0
M  END
$$$$
