CGP.pdb
     RDKit          3D

 18 18  0  0  1  0  0  0  0  0999 V2000
   24.2827  -20.9753  -10.9775 N   0  0  0  0  0  0  0  0  0  0  0  0
   25.6625  -20.4633  -10.9410 C   0  0  1  0  0  0  0  0  0  0  0  0
   26.3078  -21.1721   -9.7623 C   0  0  0  0  0  0  0  0  0  0  0  0
   25.5872  -20.6846   -8.1829 S   0  0  0  0  0  0  0  0  0  0  0  0
   26.2878  -20.7736  -12.2299 C   0  0  0  0  0  0  0  0  0  0  0  0
   25.9515  -21.8234  -12.8804 O   0  0  0  0  0  0  0  0  0  0  0  0
   27.2778  -19.9813  -12.8534 N   0  0  0  0  0  0  0  0  0  0  0  0
   27.7478  -20.2725  -14.1940 C   0  0  0  0  0  0  0  0  0  0  0  0
   26.8623  -19.7414  -15.2329 C   0  0  0  0  0  0  0  0  0  0  0  0
   25.7645  -20.3492  -15.4608 O   0  0  0  0  0  0  0  0  0  0  0  0
   27.2254  -18.5862  -15.9562 N   0  0  0  0  0  0  0  0  0  0  0  0
   28.4089  -17.7864  -15.7037 C   0  0  0  0  0  0  0  0  0  0  0  0
   28.7655  -17.3539  -17.1321 C   0  0  0  0  0  0  0  0  0  0  0  0
   27.3828  -16.8721  -17.5876 C   0  0  0  0  0  0  0  0  0  0  0  0
   26.5027  -17.9711  -17.0816 C   0  0  1  0  0  0  0  0  0  0  0  0
   26.2120  -18.9498  -18.1313 C   0  0  0  0  0  0  0  0  0  0  0  0
   25.1954  -18.8436  -18.8596 O   0  0  0  0  0  0  0  0  0  0  0  0
   27.0571  -20.0252  -18.3488 O   0  0  0  0  0  0  0  0  0  0  0  0
  2  1  1  6
  2  3  1  0
  3  4  1  0
  5  6  2  0
  5  2  1  0
  7  5  1  0
  8  9  1  0
  8  7  1  0
  9 11  1  0
 10  9  2  0
 11 12  1  0
 12 13  1  0
 14 13  1  0
 15 11  1  0
 15 14  1  0
 15 16  1  6
 16 17  2  0
 16 18  1  0
M  END
$$$$
