CGP.pdb
     RDKit          3D

 18 18  0  0  1  0  0  0  0  0999 V2000
   26.6483  -17.6568  -18.0059 N   0  0  0  0  0  0  0  0  0  0  0  0
   27.6155  -18.0472  -16.9670 C   0  0  1  0  0  0  0  0  0  0  0  0
   28.6773  -16.9609  -16.9982 C   0  0  0  0  0  0  0  0  0  0  0  0
   28.0473  -15.3618  -16.4530 S   0  0  0  0  0  0  0  0  0  0  0  0
   26.8939  -18.1299  -15.6939 C   0  0  0  0  0  0  0  0  0  0  0  0
   25.7298  -17.6122  -15.5709 O   0  0  0  0  0  0  0  0  0  0  0  0
   27.3885  -18.7603  -14.5300 N   0  0  0  0  0  0  0  0  0  0  0  0
   26.6710  -18.6978  -13.2714 C   0  0  0  0  0  0  0  0  0  0  0  0
   25.5829  -19.6751  -13.1903 C   0  0  0  0  0  0  0  0  0  0  0  0
   24.8963  -19.9045  -14.2402 O   0  0  0  0  0  0  0  0  0  0  0  0
   25.3110  -20.3393  -11.9761 N   0  0  0  0  0  0  0  0  0  0  0  0
   26.1343  -20.2607  -10.7843 C   0  0  0  0  0  0  0  0  0  0  0  0
   25.0570  -20.3288   -9.6938 C   0  0  0  0  0  0  0  0  0  0  0  0
   24.2665  -21.5353  -10.2145 C   0  0  0  0  0  0  0  0  0  0  0  0
   24.1723  -21.2221  -11.6744 C   0  0  1  0  0  0  0  0  0  0  0  0
   22.8965  -20.5829  -12.0032 C   0  0  0  0  0  0  0  0  0  0  0  0
   22.7785  -19.3335  -12.0250 O   0  0  0  0  0  0  0  0  0  0  0  0
   21.7795  -21.3458  -12.3008 O   0  0  0  0  0  0  0  0  0  0  0  0
  2  1  1  6
  2  3  1  0
  3  4  1  0
  5  6  2  0
  5  2  1  0
  7  5  1  0
  8  9  1  0
  8  7  1  0
  9 11  1  0
 10  9  2  0
 11 12  1  0
 12 13  1  0
 14 13  1  0
 15 11  1  0
 15 14  1  0
 15 16  1  1
 16 17  2  0
 16 18  1  0
M  END
$$$$
