CGP.pdb
     RDKit          3D

 18 18  0  0  1  0  0  0  0  0999 V2000
   23.7596  -20.1583  -18.4227 N   0  0  0  0  0  0  0  0  0  0  0  0
   23.5053  -18.8589  -17.7793 C   0  0  1  0  0  0  0  0  0  0  0  0
   22.2029  -18.3716  -18.3912 C   0  0  0  0  0  0  0  0  0  0  0  0
   22.4371  -17.6327  -20.0192 S   0  0  0  0  0  0  0  0  0  0  0  0
   23.4292  -19.0843  -16.3329 C   0  0  0  0  0  0  0  0  0  0  0  0
   22.7098  -20.0310  -15.8589 O   0  0  0  0  0  0  0  0  0  0  0  0
   24.1109  -18.3151  -15.3634 N   0  0  0  0  0  0  0  0  0  0  0  0
   23.9960  -18.6063  -13.9474 C   0  0  0  0  0  0  0  0  0  0  0  0
   24.9364  -19.6377  -13.5029 C   0  0  0  0  0  0  0  0  0  0  0  0
   25.6731  -20.2021  -14.3776 O   0  0  0  0  0  0  0  0  0  0  0  0
   25.0159  -19.9891  -12.1392 N   0  0  0  0  0  0  0  0  0  0  0  0
   24.2314  -19.3850  -11.0790 C   0  0  0  0  0  0  0  0  0  0  0  0
   24.0221  -20.5957  -10.1598 C   0  0  0  0  0  0  0  0  0  0  0  0
   25.4699  -21.0967  -10.0918 C   0  0  0  0  0  0  0  0  0  0  0  0
   25.8833  -21.0089  -11.5270 C   0  0  1  0  0  0  0  0  0  0  0  0
   25.7500  -22.3016  -12.2021 C   0  0  0  0  0  0  0  0  0  0  0  0
   26.7217  -23.0899  -12.3010 O   0  0  0  0  0  0  0  0  0  0  0  0
   24.5400  -22.6901  -12.7525 O   0  0  0  0  0  0  0  0  0  0  0  0
  2  1  1  6
  2  3  1  0
  3  4  1  0
  5  6  2  0
  5  2  1  0
  7  5  1  0
  8  9  1  0
  8  7  1  0
  9 11  1  0
 10  9  2  0
 11 12  1  0
 12 13  1  0
 14 13  1  0
 15 11  1  0
 15 14  1  0
 15 16  1  6
 16 17  2  0
 16 18  1  0
M  END
$$$$
