CGP.pdb
     RDKit          3D

 18 18  0  0  1  0  0  0  0  0999 V2000
   19.8526  -20.4033  -15.4130 N   0  0  0  0  0  0  0  0  0  0  0  0
   20.3875  -20.7877  -14.0965 C   0  0  1  0  0  0  0  0  0  0  0  0
   19.4930  -21.9244  -13.6315 C   0  0  0  0  0  0  0  0  0  0  0  0
   17.9829  -21.3372  -12.8402 S   0  0  0  0  0  0  0  0  0  0  0  0
   21.7885  -21.1773  -14.2804 C   0  0  0  0  0  0  0  0  0  0  0  0
   22.1343  -21.9159  -15.2670 O   0  0  0  0  0  0  0  0  0  0  0  0
   22.8473  -20.7940  -13.4268 N   0  0  0  0  0  0  0  0  0  0  0  0
   24.2251  -21.1278  -13.7319 C   0  0  0  0  0  0  0  0  0  0  0  0
   24.8758  -20.1274  -14.5812 C   0  0  0  0  0  0  0  0  0  0  0  0
   24.1594  -19.1953  -15.0756 O   0  0  0  0  0  0  0  0  0  0  0  0
   26.2606  -20.2035  -14.8386 N   0  0  0  0  0  0  0  0  0  0  0  0
   27.1610  -21.1798  -14.2551 C   0  0  0  0  0  0  0  0  0  0  0  0
   28.1324  -21.3987  -15.4225 C   0  0  0  0  0  0  0  0  0  0  0  0
   28.4264  -19.9335  -15.7662 C   0  0  0  0  0  0  0  0  0  0  0  0
   27.0552  -19.3366  -15.7241 C   0  0  1  0  0  0  0  0  0  0  0  0
   26.4666  -19.2536  -17.0624 C   0  0  0  0  0  0  0  0  0  0  0  0
   25.7748  -20.1903  -17.5308 O   0  0  0  0  0  0  0  0  0  0  0  0
   26.6594  -18.1315  -17.8510 O   0  0  0  0  0  0  0  0  0  0  0  0
  2  1  1  6
  2  3  1  0
  3  4  1  0
  5  6  2  0
  5  2  1  0
  7  5  1  0
  8  9  1  0
  8  7  1  0
  9 11  1  0
 10  9  2  0
 11 12  1  0
 12 13  1  0
 14 13  1  0
 15 11  1  0
 15 14  1  0
 15 16  1  6
 16 17  2  0
 16 18  1  0
M  END
$$$$
