CGP.pdb
     RDKit          3D

 18 18  0  0  1  0  0  0  0  0999 V2000
   17.0000  -13.8323  -18.7432 N   0  0  0  0  0  0  0  0  0  0  0  0
   16.7072  -12.9148  -17.6299 C   0  0  1  0  0  0  0  0  0  0  0  0
   15.9401  -13.7572  -16.6248 C   0  0  0  0  0  0  0  0  0  0  0  0
   15.6137  -12.8736  -15.0873 S   0  0  0  0  0  0  0  0  0  0  0  0
   17.9851  -12.4083  -17.1211 C   0  0  0  0  0  0  0  0  0  0  0  0
   19.0340  -13.1414  -17.1510 O   0  0  0  0  0  0  0  0  0  0  0  0
   18.1774  -11.1202  -16.5730 N   0  0  0  0  0  0  0  0  0  0  0  0
   19.4782  -10.6825  -16.1048 C   0  0  0  0  0  0  0  0  0  0  0  0
   19.4402   -9.3565  -15.4837 C   0  0  0  0  0  0  0  0  0  0  0  0
   18.3786   -8.6607  -15.6074 O   0  0  0  0  0  0  0  0  0  0  0  0
   20.5559   -8.8722  -14.7693 N   0  0  0  0  0  0  0  0  0  0  0  0
   21.7710   -9.6237  -14.5183 C   0  0  0  0  0  0  0  0  0  0  0  0
   22.8142   -8.5002  -14.5822 C   0  0  0  0  0  0  0  0  0  0  0  0
   22.1276   -7.4845  -13.6610 C   0  0  0  0  0  0  0  0  0  0  0  0
   20.7150   -7.5463  -14.1497 C   0  0  1  0  0  0  0  0  0  0  0  0
   20.4310   -6.4715  -15.1027 C   0  0  0  0  0  0  0  0  0  0  0  0
   19.9045   -5.3936  -14.7335 O   0  0  0  0  0  0  0  0  0  0  0  0
   20.7383   -6.6176  -16.4452 O   0  0  0  0  0  0  0  0  0  0  0  0
  2  1  1  6
  2  3  1  0
  3  4  1  0
  5  6  2  0
  5  2  1  0
  7  5  1  0
  8  9  1  0
  8  7  1  0
  9 11  1  0
 10  9  2  0
 11 12  1  0
 12 13  1  0
 14 13  1  0
 15 11  1  0
 15 14  1  0
 15 16  1  6
 16 17  2  0
 16 18  1  0
M  END
$$$$
