CGP.pdb
     RDKit          3D

 18 18  0  0  1  0  0  0  0  0999 V2000
   20.1885  -20.6321  -15.4658 N   0  0  0  0  0  0  0  0  0  0  0  0
   20.1529  -20.6746  -13.9947 C   0  0  1  0  0  0  0  0  0  0  0  0
   19.2693  -21.8651  -13.6626 C   0  0  0  0  0  0  0  0  0  0  0  0
   17.9544  -21.4481  -12.5014 S   0  0  0  0  0  0  0  0  0  0  0  0
   21.5323  -20.8132  -13.5187 C   0  0  0  0  0  0  0  0  0  0  0  0
   21.8214  -20.5992  -12.2903 O   0  0  0  0  0  0  0  0  0  0  0  0
   22.6289  -21.1799  -14.3308 N   0  0  0  0  0  0  0  0  0  0  0  0
   23.9739  -21.2631  -13.7951 C   0  0  0  0  0  0  0  0  0  0  0  0
   24.9772  -20.6814  -14.6899 C   0  0  0  0  0  0  0  0  0  0  0  0
   24.7126  -20.6183  -15.9359 O   0  0  0  0  0  0  0  0  0  0  0  0
   26.2014  -20.2064  -14.1747 N   0  0  0  0  0  0  0  0  0  0  0  0
   26.5679  -20.2080  -12.7712 C   0  0  0  0  0  0  0  0  0  0  0  0
   28.0747  -20.4790  -12.8749 C   0  0  0  0  0  0  0  0  0  0  0  0
   28.4320  -19.4357  -13.9404 C   0  0  0  0  0  0  0  0  0  0  0  0
   27.3258  -19.6287  -14.9291 C   0  0  1  0  0  0  0  0  0  0  0  0
   27.7383  -20.5023  -16.0296 C   0  0  0  0  0  0  0  0  0  0  0  0
   27.6909  -21.7521  -15.9241 O   0  0  0  0  0  0  0  0  0  0  0  0
   28.1944  -19.9682  -17.2232 O   0  0  0  0  0  0  0  0  0  0  0  0
  2  1  1  6
  2  3  1  0
  3  4  1  0
  5  6  2  0
  5  2  1  0
  7  5  1  0
  8  9  1  0
  8  7  1  0
  9 11  1  0
 10  9  2  0
 11 12  1  0
 12 13  1  0
 14 13  1  0
 15 11  1  0
 15 14  1  0
 15 16  1  6
 16 17  2  0
 16 18  1  0
M  END
$$$$
