CGP.pdb
     RDKit          3D

 18 18  0  0  1  0  0  0  0  0999 V2000
   22.7317  -21.2357   -8.9439 N   0  0  0  0  0  0  0  0  0  0  0  0
   24.1106  -20.8073   -8.6565 C   0  0  1  0  0  0  0  0  0  0  0  0
   24.5143  -21.6009   -7.4254 C   0  0  0  0  0  0  0  0  0  0  0  0
   23.5864  -21.1188   -5.9564 S   0  0  0  0  0  0  0  0  0  0  0  0
   24.9246  -21.1000   -9.8398 C   0  0  0  0  0  0  0  0  0  0  0  0
   25.6251  -22.1697   -9.8993 O   0  0  0  0  0  0  0  0  0  0  0  0
   25.0127  -20.2693  -10.9793 N   0  0  0  0  0  0  0  0  0  0  0  0
   25.7188  -20.6929  -12.1730 C   0  0  0  0  0  0  0  0  0  0  0  0
   25.6831  -19.6889  -13.2389 C   0  0  0  0  0  0  0  0  0  0  0  0
   24.5603  -19.1627  -13.5369 O   0  0  0  0  0  0  0  0  0  0  0  0
   26.8672  -19.3216  -13.9116 N   0  0  0  0  0  0  0  0  0  0  0  0
   28.1977  -19.7813  -13.5613 C   0  0  0  0  0  0  0  0  0  0  0  0
   28.8391  -19.8708  -14.9524 C   0  0  0  0  0  0  0  0  0  0  0  0
   28.4298  -18.4953  -15.4927 C   0  0  0  0  0  0  0  0  0  0  0  0
   26.9960  -18.4244  -15.0716 C   0  0  1  0  0  0  0  0  0  0  0  0
   26.0988  -18.8214  -16.1587 C   0  0  0  0  0  0  0  0  0  0  0  0
   25.7867  -20.0232  -16.3418 O   0  0  0  0  0  0  0  0  0  0  0  0
   25.5679  -17.8744  -17.0186 O   0  0  0  0  0  0  0  0  0  0  0  0
  2  1  1  6
  2  3  1  0
  3  4  1  0
  5  6  2  0
  5  2  1  0
  7  5  1  0
  8  9  1  0
  8  7  1  0
  9 11  1  0
 10  9  2  0
 11 12  1  0
 12 13  1  0
 14 13  1  0
 15 11  1  0
 15 14  1  0
 15 16  1  6
 16 17  2  0
 16 18  1  0
M  END
$$$$
