CGP.pdb
     RDKit          3D

 18 18  0  0  1  0  0  0  0  0999 V2000
   24.1214  -19.8855  -12.5625 N   0  0  0  0  0  0  0  0  0  0  0  0
   24.6547  -20.9195  -11.6605 C   0  0  1  0  0  0  0  0  0  0  0  0
   25.2588  -21.9646  -12.5832 C   0  0  0  0  0  0  0  0  0  0  0  0
   27.0000  -22.2745  -12.2316 S   0  0  0  0  0  0  0  0  0  0  0  0
   25.6319  -20.2789  -10.7755 C   0  0  0  0  0  0  0  0  0  0  0  0
   26.3620  -19.3171  -11.2001 O   0  0  0  0  0  0  0  0  0  0  0  0
   25.8546  -20.6424   -9.4283 N   0  0  0  0  0  0  0  0  0  0  0  0
   26.7712  -19.8999   -8.5849 C   0  0  0  0  0  0  0  0  0  0  0  0
   26.8053  -20.3991   -7.2082 C   0  0  0  0  0  0  0  0  0  0  0  0
   25.8233  -21.0997   -6.7943 O   0  0  0  0  0  0  0  0  0  0  0  0
   27.9020  -20.1058   -6.3711 N   0  0  0  0  0  0  0  0  0  0  0  0
   29.0807  -19.3637   -6.7763 C   0  0  0  0  0  0  0  0  0  0  0  0
   29.4035  -18.6171   -5.4752 C   0  0  0  0  0  0  0  0  0  0  0  0
   29.3226  -19.7958   -4.4975 C   0  0  0  0  0  0  0  0  0  0  0  0
   28.0737  -20.4792   -4.9575 C   0  0  1  0  0  0  0  0  0  0  0  0
   26.9175  -20.0790   -4.1529 C   0  0  0  0  0  0  0  0  0  0  0  0
   26.1708  -19.1345   -4.5073 O   0  0  0  0  0  0  0  0  0  0  0  0
   26.6162  -20.7370   -2.9720 O   0  0  0  0  0  0  0  0  0  0  0  0
  2  1  1  6
  2  3  1  0
  3  4  1  0
  5  6  2  0
  5  2  1  0
  7  5  1  0
  8  9  1  0
  8  7  1  0
  9 11  1  0
 10  9  2  0
 11 12  1  0
 12 13  1  0
 14 13  1  0
 15 11  1  0
 15 14  1  0
 15 16  1  1
 16 17  2  0
 16 18  1  0
M  END
$$$$
