CGP.pdb
     RDKit          3D

 18 18  0  0  1  0  0  0  0  0999 V2000
   21.1396  -20.9697  -15.6882 N   0  0  0  0  0  0  0  0  0  0  0  0
   21.5916  -20.5933  -14.3387 C   0  0  1  0  0  0  0  0  0  0  0  0
   20.4229  -20.9337  -13.4296 C   0  0  0  0  0  0  0  0  0  0  0  0
   19.7608  -19.4862  -12.5824 S   0  0  0  0  0  0  0  0  0  0  0  0
   22.8080  -21.3570  -14.0463 C   0  0  0  0  0  0  0  0  0  0  0  0
   22.8516  -22.6182  -14.2602 O   0  0  0  0  0  0  0  0  0  0  0  0
   23.9980  -20.8027  -13.5237 N   0  0  0  0  0  0  0  0  0  0  0  0
   25.2729  -21.4800  -13.6600 C   0  0  0  0  0  0  0  0  0  0  0  0
   26.4088  -20.6270  -13.3026 C   0  0  0  0  0  0  0  0  0  0  0  0
   26.8804  -19.8436  -14.1916 O   0  0  0  0  0  0  0  0  0  0  0  0
   26.9586  -20.6796  -12.0047 N   0  0  0  0  0  0  0  0  0  0  0  0
   26.2710  -21.1848  -10.8316 C   0  0  0  0  0  0  0  0  0  0  0  0
   27.4420  -21.8231  -10.0728 C   0  0  0  0  0  0  0  0  0  0  0  0
   28.4394  -20.6610  -10.1523 C   0  0  0  0  0  0  0  0  0  0  0  0
   28.3012  -20.2471  -11.5834 C   0  0  1  0  0  0  0  0  0  0  0  0
   29.3444  -20.8479  -12.4172 C   0  0  0  0  0  0  0  0  0  0  0  0
   29.1546  -21.9322  -13.0201 O   0  0  0  0  0  0  0  0  0  0  0  0
   30.5756  -20.2307  -12.5629 O   0  0  0  0  0  0  0  0  0  0  0  0
  2  1  1  6
  2  3  1  0
  3  4  1  0
  5  6  2  0
  5  2  1  0
  7  5  1  0
  8  9  1  0
  8  7  1  0
  9 11  1  0
 10  9  2  0
 11 12  1  0
 12 13  1  0
 14 13  1  0
 15 11  1  0
 15 14  1  0
 15 16  1  6
 16 17  2  0
 16 18  1  0
M  END
$$$$
