CGP.pdb
     RDKit          3D

 18 18  0  0  1  0  0  0  0  0999 V2000
   27.9151  -21.7911  -15.7736 N   0  0  0  0  0  0  0  0  0  0  0  0
   26.7485  -20.8941  -15.7339 C   0  0  1  0  0  0  0  0  0  0  0  0
   25.5581  -21.7936  -16.0204 C   0  0  0  0  0  0  0  0  0  0  0  0
   25.2895  -23.0193  -14.7254 S   0  0  0  0  0  0  0  0  0  0  0  0
   26.7103  -20.2699  -14.4082 C   0  0  0  0  0  0  0  0  0  0  0  0
   25.8081  -19.4089  -14.1202 O   0  0  0  0  0  0  0  0  0  0  0  0
   27.6229  -20.5442  -13.3649 N   0  0  0  0  0  0  0  0  0  0  0  0
   27.4962  -19.9177  -12.0633 C   0  0  0  0  0  0  0  0  0  0  0  0
   26.6471  -20.6822  -11.1467 C   0  0  0  0  0  0  0  0  0  0  0  0
   25.7981  -21.4940  -11.6434 O   0  0  0  0  0  0  0  0  0  0  0  0
   26.7744  -20.5160   -9.7518 N   0  0  0  0  0  0  0  0  0  0  0  0
   27.8126  -19.7410   -9.0993 C   0  0  0  0  0  0  0  0  0  0  0  0
   27.0331  -19.1780   -7.9035 C   0  0  0  0  0  0  0  0  0  0  0  0
   26.3777  -20.4750   -7.4139 C   0  0  0  0  0  0  0  0  0  0  0  0
   25.9085  -21.0760   -8.7011 C   0  0  1  0  0  0  0  0  0  0  0  0
   24.4978  -20.7723   -8.9505 C   0  0  0  0  0  0  0  0  0  0  0  0
   23.5816  -21.4708   -8.4525 O   0  0  0  0  0  0  0  0  0  0  0  0
   24.1360  -19.6993   -9.7478 O   0  0  0  0  0  0  0  0  0  0  0  0
  2  1  1  1
  2  3  1  0
  3  4  1  0
  5  6  2  0
  5  2  1  0
  7  5  1  0
  8  9  1  0
  8  7  1  0
  9 11  1  0
 10  9  2  0
 11 12  1  0
 12 13  1  0
 14 13  1  0
 15 11  1  0
 15 14  1  0
 15 16  1  6
 16 17  2  0
 16 18  1  0
M  END
$$$$
