CGP.pdb
     RDKit          3D

 18 18  0  0  1  0  0  0  0  0999 V2000
   24.5462  -19.2915  -18.1182 N   0  0  0  0  0  0  0  0  0  0  0  0
   24.2788  -18.9551  -16.7102 C   0  0  1  0  0  0  0  0  0  0  0  0
   22.9648  -19.6468  -16.3893 C   0  0  0  0  0  0  0  0  0  0  0  0
   22.3158  -19.1833  -14.7721 S   0  0  0  0  0  0  0  0  0  0  0  0
   25.4098  -19.4389  -15.9132 C   0  0  0  0  0  0  0  0  0  0  0  0
   25.8753  -20.6177  -16.0927 O   0  0  0  0  0  0  0  0  0  0  0  0
   26.0682  -18.6871  -14.9143 N   0  0  0  0  0  0  0  0  0  0  0  0
   27.1626  -19.2452  -14.1439 C   0  0  0  0  0  0  0  0  0  0  0  0
   26.7057  -20.1247  -13.0653 C   0  0  0  0  0  0  0  0  0  0  0  0
   25.4517  -20.3113  -12.9272 O   0  0  0  0  0  0  0  0  0  0  0  0
   27.6386  -20.7440  -12.2076 N   0  0  0  0  0  0  0  0  0  0  0  0
   29.0793  -20.6828  -12.3651 C   0  0  0  0  0  0  0  0  0  0  0  0
   29.5219  -20.6655  -10.8959 C   0  0  0  0  0  0  0  0  0  0  0  0
   28.6799  -21.8384  -10.3794 C   0  0  0  0  0  0  0  0  0  0  0  0
   27.3543  -21.5552  -11.0125 C   0  0  1  0  0  0  0  0  0  0  0  0
   26.4593  -20.8545  -10.0892 C   0  0  0  0  0  0  0  0  0  0  0  0
   25.6422  -21.4802   -9.3707 O   0  0  0  0  0  0  0  0  0  0  0  0
   26.4916  -19.4739   -9.9845 O   0  0  0  0  0  0  0  0  0  0  0  0
  2  1  1  6
  2  3  1  0
  3  4  1  0
  5  6  2  0
  5  2  1  0
  7  5  1  0
  8  9  1  0
  8  7  1  0
  9 11  1  0
 10  9  2  0
 11 12  1  0
 12 13  1  0
 14 13  1  0
 15 11  1  0
 15 14  1  0
 15 16  1  1
 16 17  2  0
 16 18  1  0
M  END
$$$$
