CGP.pdb
     RDKit          3D

 18 18  0  0  1  0  0  0  0  0999 V2000
   24.9382  -20.3667   -8.4355 N   0  0  0  0  0  0  0  0  0  0  0  0
   26.3431  -20.0123   -8.6966 C   0  0  1  0  0  0  0  0  0  0  0  0
   27.0594  -20.2738   -7.3825 C   0  0  0  0  0  0  0  0  0  0  0  0
   26.9382  -18.8841   -6.2400 S   0  0  0  0  0  0  0  0  0  0  0  0
   26.8163  -20.8495   -9.8028 C   0  0  0  0  0  0  0  0  0  0  0  0
   28.0072  -21.3187   -9.8005 O   0  0  0  0  0  0  0  0  0  0  0  0
   26.0409  -21.2054  -10.9291 N   0  0  0  0  0  0  0  0  0  0  0  0
   26.5684  -21.1005  -12.2758 C   0  0  0  0  0  0  0  0  0  0  0  0
   25.9044  -20.0605  -13.0652 C   0  0  0  0  0  0  0  0  0  0  0  0
   24.6682  -19.8337  -12.8489 O   0  0  0  0  0  0  0  0  0  0  0  0
   26.6245  -19.3350  -14.0370 N   0  0  0  0  0  0  0  0  0  0  0  0
   28.0436  -19.4815  -14.2999 C   0  0  0  0  0  0  0  0  0  0  0  0
   28.0734  -19.2518  -15.8167 C   0  0  0  0  0  0  0  0  0  0  0  0
   27.2309  -17.9721  -15.8807 C   0  0  0  0  0  0  0  0  0  0  0  0
   26.1035  -18.3111  -14.9575 C   0  0  1  0  0  0  0  0  0  0  0  0
   24.9357  -18.7975  -15.6951 C   0  0  0  0  0  0  0  0  0  0  0  0
   24.0322  -18.0146  -16.0772 O   0  0  0  0  0  0  0  0  0  0  0  0
   24.7973  -20.1431  -15.9921 O   0  0  0  0  0  0  0  0  0  0  0  0
  2  1  1  1
  2  3  1  0
  3  4  1  0
  5  6  2  0
  5  2  1  0
  7  5  1  0
  8  9  1  0
  8  7  1  0
  9 11  1  0
 10  9  2  0
 11 12  1  0
 12 13  1  0
 14 13  1  0
 15 11  1  0
 15 14  1  0
 15 16  1  6
 16 17  2  0
 16 18  1  0
M  END
$$$$
