GYY.pdb
     RDKit          3D

 29 30  0  0  1  0  0  0  0  0999 V2000
    8.1066  -19.3234   20.2171 N   0  0  0  0  0  0  0  0  0  0  0  0
    7.4253  -18.3372   21.0304 C   0  0  0  0  0  0  0  0  0  0  0  0
    8.3338  -17.1730   21.2205 C   0  0  0  0  0  0  0  0  0  0  0  0
    9.5357  -17.2205   20.8519 O   0  0  0  0  0  0  0  0  0  0  0  0
    6.5449  -13.4688   16.1115 O   0  0  0  0  0  0  0  0  0  0  0  0
    6.9214  -13.4820   17.4621 C   0  0  0  0  0  0  0  0  0  0  0  0
    8.1902  -13.1437   17.8660 C   0  0  0  0  0  0  0  0  0  0  0  0
    8.5325  -13.1658   19.2029 C   0  0  0  0  0  0  0  0  0  0  0  0
    7.6337  -13.5226   20.1851 C   0  0  0  0  0  0  0  0  0  0  0  0
    8.0432  -13.5306   21.5966 C   0  0  0  0  0  0  0  0  0  0  0  0
    8.7459  -14.8012   22.0184 C   0  0  2  0  0  0  0  0  0  0  0  0
    7.8919  -15.9630   21.8217 N   0  0  0  0  0  0  0  0  0  0  0  0
    9.2807  -14.7509   23.3946 C   0  0  0  0  0  0  0  0  0  0  0  0
    8.7977  -13.8848   24.1809 O   0  0  0  0  0  0  0  0  0  0  0  0
    6.3661  -13.8598   19.7734 C   0  0  0  0  0  0  0  0  0  0  0  0
    6.0060  -13.8420   18.4259 C   0  0  0  0  0  0  0  0  0  0  0  0
   10.9534  -15.6731   31.6730 O   0  0  0  0  0  0  0  0  0  0  0  0
   10.6219  -15.6497   30.3077 C   0  0  0  0  0  0  0  0  0  0  0  0
   10.4799  -14.4597   29.6493 C   0  0  0  0  0  0  0  0  0  0  0  0
   10.1562  -14.3902   28.3130 C   0  0  0  0  0  0  0  0  0  0  0  0
    9.9677  -15.5607   27.6108 C   0  0  0  0  0  0  0  0  0  0  0  0
    9.6155  -15.6059   26.1852 C   0  0  0  0  0  0  0  0  0  0  0  0
   10.8100  -15.4827   25.2563 C   0  0  2  0  0  0  0  0  0  0  0  0
   10.2840  -15.5897   23.9056 N   0  0  0  0  0  0  0  0  0  0  0  0
   11.8564  -16.4588   25.5483 C   0  0  0  0  0  0  0  0  0  0  0  0
   12.8305  -16.2258   26.2992 O   0  0  0  0  0  0  0  0  0  0  0  0
   10.1088  -16.7675   28.2665 C   0  0  0  0  0  0  0  0  0  0  0  0
   10.4317  -16.8129   29.5977 C   0  0  0  0  0  0  0  0  0  0  0  0
   11.7947  -17.7204   24.9783 O   0  0  0  0  0  0  0  0  0  0  0  0
  1  2  1  0
  3  4  2  0
  3  2  1  0
  6  5  1  0
  6 16  2  0
  7  6  1  0
  8  7  2  0
  8  9  1  0
  9 15  2  0
 10  9  1  0
 11 10  1  1
 11 12  1  0
 12  3  1  0
 13 24  1  0
 13 11  1  0
 14 13  2  0
 15 16  1  0
 18 28  2  0
 18 17  1  0
 19 18  1  0
 20 21  1  0
 20 19  2  0
 21 27  2  0
 22 21  1  0
 23 22  1  1
 23 24  1  0
 25 29  1  0
 25 23  1  0
 26 25  2  0
 27 28  1  0
M  END
$$$$
