GYY.pdb
     RDKit          3D

 29 30  0  0  1  0  0  0  0  0999 V2000
   11.0193  -24.5490   22.7184 N   0  0  0  0  0  0  0  0  0  0  0  0
   10.0928  -23.5639   23.2372 C   0  0  0  0  0  0  0  0  0  0  0  0
   10.7599  -22.2329   23.2193 C   0  0  0  0  0  0  0  0  0  0  0  0
   11.9248  -22.0968   22.7640 O   0  0  0  0  0  0  0  0  0  0  0  0
    8.9867  -20.1004   17.6402 O   0  0  0  0  0  0  0  0  0  0  0  0
    9.2358  -19.7594   18.9772 C   0  0  0  0  0  0  0  0  0  0  0  0
    8.3308  -20.0264   19.9758 C   0  0  0  0  0  0  0  0  0  0  0  0
    8.6032  -19.6791   21.2835 C   0  0  0  0  0  0  0  0  0  0  0  0
    9.7778  -19.0570   21.6486 C   0  0  0  0  0  0  0  0  0  0  0  0
   10.0247  -18.7068   23.0545 C   0  0  0  0  0  0  0  0  0  0  0  0
   10.7779  -19.7696   23.8223 C   0  0  2  0  0  0  0  0  0  0  0  0
   10.1198  -21.0628   23.7109 N   0  0  0  0  0  0  0  0  0  0  0  0
   11.0297  -19.4116   25.2333 C   0  0  0  0  0  0  0  0  0  0  0  0
   10.4853  -18.3592   25.6780 O   0  0  0  0  0  0  0  0  0  0  0  0
   10.6784  -18.7931   20.6440 C   0  0  0  0  0  0  0  0  0  0  0  0
   10.4167  -19.1383   19.3181 C   0  0  0  0  0  0  0  0  0  0  0  0
    5.7560  -20.9371   27.7306 O   0  0  0  0  0  0  0  0  0  0  0  0
    7.1509  -20.8930   27.8941 C   0  0  0  0  0  0  0  0  0  0  0  0
    7.7364  -19.8631   28.5771 C   0  0  0  0  0  0  0  0  0  0  0  0
    9.0983  -19.7801   28.7610 C   0  0  0  0  0  0  0  0  0  0  0  0
    9.9032  -20.7692   28.2389 C   0  0  0  0  0  0  0  0  0  0  0  0
   11.3665  -20.7802   28.3699 C   0  0  0  0  0  0  0  0  0  0  0  0
   12.0654  -19.7479   27.5036 C   0  0  2  0  0  0  0  0  0  0  0  0
   11.8251  -20.1467   26.1267 N   0  0  0  0  0  0  0  0  0  0  0  0
   13.4830  -19.6062   27.8253 C   0  0  0  0  0  0  0  0  0  0  0  0
   14.4040  -19.8233   27.0057 O   0  0  0  0  0  0  0  0  0  0  0  0
    9.3217  -21.8133   27.5476 C   0  0  0  0  0  0  0  0  0  0  0  0
    7.9633  -21.8757   27.3767 C   0  0  0  0  0  0  0  0  0  0  0  0
   13.8603  -19.2109   29.0987 O   0  0  0  0  0  0  0  0  0  0  0  0
  1  2  1  0
  3  4  2  0
  3  2  1  0
  6  5  1  0
  6 16  2  0
  7  6  1  0
  8  7  2  0
  8  9  1  0
  9 15  2  0
 10  9  1  0
 11 10  1  1
 11 12  1  0
 12  3  1  0
 13 24  1  0
 13 11  1  0
 14 13  2  0
 15 16  1  0
 18 28  2  0
 18 17  1  0
 19 18  1  0
 20 21  1  0
 20 19  2  0
 21 27  2  0
 22 21  1  0
 23 22  1  1
 23 24  1  0
 25 29  1  0
 25 23  1  0
 26 25  2  0
 27 28  1  0
M  END
$$$$
