GYY.pdb
     RDKit          3D

 29 30  0  0  1  0  0  0  0  0999 V2000
    8.2476  -17.2712   15.9422 N   0  0  0  0  0  0  0  0  0  0  0  0
    9.4743  -17.5233   16.6699 C   0  0  0  0  0  0  0  0  0  0  0  0
    9.1372  -17.7340   18.1048 C   0  0  0  0  0  0  0  0  0  0  0  0
    7.9881  -17.4748   18.5464 O   0  0  0  0  0  0  0  0  0  0  0  0
    8.0223  -24.4112   18.7593 O   0  0  0  0  0  0  0  0  0  0  0  0
    8.6187  -23.2591   19.2915 C   0  0  0  0  0  0  0  0  0  0  0  0
    9.7546  -22.7112   18.7467 C   0  0  0  0  0  0  0  0  0  0  0  0
   10.3196  -21.5762   19.2921 C   0  0  0  0  0  0  0  0  0  0  0  0
    9.7821  -20.9447   20.3931 C   0  0  0  0  0  0  0  0  0  0  0  0
   10.4182  -19.7373   20.9387 C   0  0  0  0  0  0  0  0  0  0  0  0
    9.7990  -18.4488   20.4464 C   0  0  2  0  0  0  0  0  0  0  0  0
   10.0877  -18.2333   19.0364 N   0  0  0  0  0  0  0  0  0  0  0  0
   10.1643  -17.2702   21.2587 C   0  0  0  0  0  0  0  0  0  0  0  0
   11.3074  -16.7600   21.0719 O   0  0  0  0  0  0  0  0  0  0  0  0
    8.6455  -21.4988   20.9327 C   0  0  0  0  0  0  0  0  0  0  0  0
    8.0634  -22.6454   20.3922 C   0  0  0  0  0  0  0  0  0  0  0  0
    7.3016  -12.8724   17.6430 O   0  0  0  0  0  0  0  0  0  0  0  0
    7.6205  -13.2786   18.9498 C   0  0  0  0  0  0  0  0  0  0  0  0
    8.7517  -12.8156   19.5629 C   0  0  0  0  0  0  0  0  0  0  0  0
    9.1023  -13.1872   20.8414 C   0  0  0  0  0  0  0  0  0  0  0  0
    8.2857  -14.0570   21.5307 C   0  0  0  0  0  0  0  0  0  0  0  0
    8.5635  -14.5242   22.8956 C   0  0  0  0  0  0  0  0  0  0  0  0
    9.7319  -15.4892   22.9853 C   0  0  2  0  0  0  0  0  0  0  0  0
    9.3439  -16.6651   22.2241 N   0  0  0  0  0  0  0  0  0  0  0  0
   10.1110  -15.7916   24.3630 C   0  0  0  0  0  0  0  0  0  0  0  0
   10.6093  -14.9502   25.1445 O   0  0  0  0  0  0  0  0  0  0  0  0
    7.1411  -14.5301   20.9204 C   0  0  0  0  0  0  0  0  0  0  0  0
    6.8115  -14.1467   19.6465 C   0  0  0  0  0  0  0  0  0  0  0  0
    9.9204  -17.0706   24.8610 O   0  0  0  0  0  0  0  0  0  0  0  0
  1  2  1  0
  3  4  2  0
  3  2  1  0
  6  5  1  0
  6 16  2  0
  7  6  1  0
  8  7  2  0
  8  9  1  0
  9 15  2  0
 10  9  1  0
 11 10  1  1
 11 12  1  0
 12  3  1  0
 13 24  1  0
 13 11  1  0
 14 13  2  0
 15 16  1  0
 18 28  2  0
 18 17  1  0
 19 18  1  0
 20 21  1  0
 20 19  2  0
 21 27  2  0
 22 21  1  0
 23 22  1  1
 23 24  1  0
 25 29  1  0
 25 23  1  0
 26 25  2  0
 27 28  1  0
M  END
$$$$
