GYY.pdb
     RDKit          3D

 29 30  0  0  1  0  0  0  0  0999 V2000
    6.0976  -19.4524   20.9928 N   0  0  0  0  0  0  0  0  0  0  0  0
    5.8563  -18.5252   22.0791 C   0  0  0  0  0  0  0  0  0  0  0  0
    6.9997  -17.5741   22.1507 C   0  0  0  0  0  0  0  0  0  0  0  0
    8.1503  -17.9124   21.7708 O   0  0  0  0  0  0  0  0  0  0  0  0
    8.2737  -12.9075   16.7120 O   0  0  0  0  0  0  0  0  0  0  0  0
    8.0657  -13.1574   18.0759 C   0  0  0  0  0  0  0  0  0  0  0  0
    6.8521  -13.5822   18.5599 C   0  0  0  0  0  0  0  0  0  0  0  0
    6.6766  -13.8203   19.9080 C   0  0  0  0  0  0  0  0  0  0  0  0
    7.6930  -13.6471   20.8227 C   0  0  0  0  0  0  0  0  0  0  0  0
    7.4597  -13.9142   22.2490 C   0  0  0  0  0  0  0  0  0  0  0  0
    7.9311  -15.2793   22.6967 C   0  0  2  0  0  0  0  0  0  0  0  0
    6.8485  -16.2505   22.6467 N   0  0  0  0  0  0  0  0  0  0  0  0
    8.5893  -15.2720   24.0194 C   0  0  0  0  0  0  0  0  0  0  0  0
    8.8581  -14.1479   24.5351 O   0  0  0  0  0  0  0  0  0  0  0  0
    8.9044  -13.2219   20.3310 C   0  0  0  0  0  0  0  0  0  0  0  0
    9.0964  -12.9773   18.9713 C   0  0  0  0  0  0  0  0  0  0  0  0
    6.1870  -10.9017   26.7452 O   0  0  0  0  0  0  0  0  0  0  0  0
    6.7306  -12.1952   26.8217 C   0  0  0  0  0  0  0  0  0  0  0  0
    7.9787  -12.3926   27.3443 C   0  0  0  0  0  0  0  0  0  0  0  0
    8.5497  -13.6418   27.4384 C   0  0  0  0  0  0  0  0  0  0  0  0
    7.8402  -14.7348   26.9905 C   0  0  0  0  0  0  0  0  0  0  0  0
    8.3519  -16.1112   27.0373 C   0  0  0  0  0  0  0  0  0  0  0  0
    9.5123  -16.3644   26.0918 C   0  0  2  0  0  0  0  0  0  0  0  0
    8.9414  -16.4142   24.7560 N   0  0  0  0  0  0  0  0  0  0  0  0
   10.2744  -17.5607   26.4396 C   0  0  0  0  0  0  0  0  0  0  0  0
   10.3387  -18.5767   25.7111 O   0  0  0  0  0  0  0  0  0  0  0  0
    6.5791  -14.5460   26.4611 C   0  0  0  0  0  0  0  0  0  0  0  0
    6.0302  -13.2930   26.3772 C   0  0  0  0  0  0  0  0  0  0  0  0
   10.9754  -17.6031   27.6341 O   0  0  0  0  0  0  0  0  0  0  0  0
  1  2  1  0
  3  4  2  0
  3  2  1  0
  6  5  1  0
  6 16  2  0
  7  6  1  0
  8  7  2  0
  8  9  1  0
  9 15  2  0
 10  9  1  0
 11 10  1  1
 11 12  1  0
 12  3  1  0
 13 24  1  0
 13 11  1  0
 14 13  2  0
 15 16  1  0
 18 28  2  0
 18 17  1  0
 19 18  1  0
 20 21  1  0
 20 19  2  0
 21 27  2  0
 22 21  1  0
 23 22  1  1
 23 24  1  0
 25 29  1  0
 25 23  1  0
 26 25  2  0
 27 28  1  0
M  END
$$$$
