GYY.pdb
     RDKit          3D

 29 30  0  0  1  0  0  0  0  0999 V2000
    8.4480  -18.9844   19.1674 N   0  0  0  0  0  0  0  0  0  0  0  0
    7.8465  -18.7498   20.4641 C   0  0  0  0  0  0  0  0  0  0  0  0
    8.5191  -17.5789   21.0915 C   0  0  0  0  0  0  0  0  0  0  0  0
    9.7724  -17.4702   21.0857 O   0  0  0  0  0  0  0  0  0  0  0  0
    7.6507  -13.0005   16.5015 O   0  0  0  0  0  0  0  0  0  0  0  0
    7.6635  -13.2799   17.8755 C   0  0  0  0  0  0  0  0  0  0  0  0
    6.7295  -14.1015   18.4586 C   0  0  0  0  0  0  0  0  0  0  0  0
    6.7669  -14.3586   19.8141 C   0  0  0  0  0  0  0  0  0  0  0  0
    7.7273  -13.8130   20.6387 C   0  0  0  0  0  0  0  0  0  0  0  0
    7.7280  -14.1162   22.0768 C   0  0  0  0  0  0  0  0  0  0  0  0
    8.4060  -15.4228   22.4221 C   0  0  2  0  0  0  0  0  0  0  0  0
    7.7852  -16.5371   21.7214 N   0  0  0  0  0  0  0  0  0  0  0  0
    8.4904  -15.6782   23.8748 C   0  0  0  0  0  0  0  0  0  0  0  0
    7.4341  -16.0423   24.4692 O   0  0  0  0  0  0  0  0  0  0  0  0
    8.6584  -12.9919   20.0481 C   0  0  0  0  0  0  0  0  0  0  0  0
    8.6330  -12.7232   18.6796 C   0  0  0  0  0  0  0  0  0  0  0  0
    5.9801  -10.5426   26.8946 O   0  0  0  0  0  0  0  0  0  0  0  0
    6.5472  -11.8257   26.8139 C   0  0  0  0  0  0  0  0  0  0  0  0
    7.8487  -12.0324   27.1788 C   0  0  0  0  0  0  0  0  0  0  0  0
    8.4443  -13.2721   27.1158 C   0  0  0  0  0  0  0  0  0  0  0  0
    7.7046  -14.3454   26.6693 C   0  0  0  0  0  0  0  0  0  0  0  0
    8.2377  -15.7098   26.5566 C   0  0  0  0  0  0  0  0  0  0  0  0
    9.6817  -15.7652   26.0914 C   0  0  2  0  0  0  0  0  0  0  0  0
    9.6514  -15.5515   24.6540 N   0  0  0  0  0  0  0  0  0  0  0  0
   10.3530  -17.0034   26.4777 C   0  0  0  0  0  0  0  0  0  0  0  0
   10.4922  -17.3740   27.6653 O   0  0  0  0  0  0  0  0  0  0  0  0
    6.3895  -14.1471   26.2985 C   0  0  0  0  0  0  0  0  0  0  0  0
    5.8169  -12.9039   26.3694 C   0  0  0  0  0  0  0  0  0  0  0  0
   10.8742  -17.8342   25.4989 O   0  0  0  0  0  0  0  0  0  0  0  0
  1  2  1  0
  3  4  2  0
  3  2  1  0
  6  5  1  0
  6 16  2  0
  7  6  1  0
  8  7  2  0
  8  9  1  0
  9 15  2  0
 10  9  1  0
 11 10  1  1
 11 12  1  0
 12  3  1  0
 13 24  1  0
 13 11  1  0
 14 13  2  0
 15 16  1  0
 18 28  2  0
 18 17  1  0
 19 18  1  0
 20 21  1  0
 20 19  2  0
 21 27  2  0
 22 21  1  0
 23 22  1  6
 23 24  1  0
 25 29  1  0
 25 23  1  0
 26 25  2  0
 27 28  1  0
M  END
$$$$
