GYY.pdb
     RDKit          3D

 29 30  0  0  1  0  0  0  0  0999 V2000
   -0.8561  -23.6633   19.4480 N   0  0  0  0  0  0  0  0  0  0  0  0
   -0.3374  -25.0048   19.6186 C   0  0  0  0  0  0  0  0  0  0  0  0
   -1.0231  -25.6317   20.7821 C   0  0  0  0  0  0  0  0  0  0  0  0
   -1.1301  -25.0227   21.8778 O   0  0  0  0  0  0  0  0  0  0  0  0
   -6.6744  -30.8254   25.2666 O   0  0  0  0  0  0  0  0  0  0  0  0
   -5.8588  -30.2589   24.2767 C   0  0  0  0  0  0  0  0  0  0  0  0
   -6.2938  -29.2285   23.4789 C   0  0  0  0  0  0  0  0  0  0  0  0
   -5.4686  -28.6905   22.5122 C   0  0  0  0  0  0  0  0  0  0  0  0
   -4.1869  -29.1517   22.3013 C   0  0  0  0  0  0  0  0  0  0  0  0
   -3.3438  -28.5468   21.2604 C   0  0  0  0  0  0  0  0  0  0  0  0
   -2.3441  -27.5457   21.7938 C   0  0  2  0  0  0  0  0  0  0  0  0
   -1.5847  -26.9357   20.7125 N   0  0  0  0  0  0  0  0  0  0  0  0
   -1.4530  -28.0985   22.8345 C   0  0  0  0  0  0  0  0  0  0  0  0
   -0.4795  -28.8126   22.4549 O   0  0  0  0  0  0  0  0  0  0  0  0
   -3.7587  -30.1828   23.1034 C   0  0  0  0  0  0  0  0  0  0  0  0
   -4.5815  -30.7364   24.0843 C   0  0  0  0  0  0  0  0  0  0  0  0
    2.9897  -29.0127   30.4136 O   0  0  0  0  0  0  0  0  0  0  0  0
    2.1494  -28.6032   29.3645 C   0  0  0  0  0  0  0  0  0  0  0  0
    0.7903  -28.6382   29.5111 C   0  0  0  0  0  0  0  0  0  0  0  0
   -0.0699  -28.2467   28.5100 C   0  0  0  0  0  0  0  0  0  0  0  0
    0.4549  -27.8029   27.3157 C   0  0  0  0  0  0  0  0  0  0  0  0
   -0.3668  -27.3658   26.1789 C   0  0  0  0  0  0  0  0  0  0  0  0
   -0.7141  -28.4823   25.2107 C   0  0  2  0  0  0  0  0  0  0  0  0
   -1.5963  -27.8947   24.2162 N   0  0  0  0  0  0  0  0  0  0  0  0
   -1.2884  -29.6490   25.8756 C   0  0  0  0  0  0  0  0  0  0  0  0
   -2.5132  -29.7885   26.0935 O   0  0  0  0  0  0  0  0  0  0  0  0
    1.8259  -27.7638   27.1576 C   0  0  0  0  0  0  0  0  0  0  0  0
    2.6636  -28.1586   28.1681 C   0  0  0  0  0  0  0  0  0  0  0  0
   -0.4578  -30.6740   26.2993 O   0  0  0  0  0  0  0  0  0  0  0  0
  1  2  1  0
  3  4  2  0
  3  2  1  0
  6  5  1  0
  6 16  2  0
  7  6  1  0
  8  7  2  0
  8  9  1  0
  9 15  2  0
 10  9  1  0
 11 10  1  6
 11 12  1  0
 12  3  1  0
 13 24  1  0
 13 11  1  0
 14 13  2  0
 15 16  1  0
 18 28  2  0
 18 17  1  0
 19 18  1  0
 20 21  1  0
 20 19  2  0
 21 27  2  0
 22 21  1  0
 23 22  1  1
 23 24  1  0
 25 29  1  0
 25 23  1  0
 26 25  2  0
 27 28  1  0
M  END
$$$$
