GYY.pdb
     RDKit          3D

 29 30  0  0  1  0  0  0  0  0999 V2000
    9.7347  -17.5968   18.7614 N   0  0  0  0  0  0  0  0  0  0  0  0
    8.4815  -17.1627   19.3438 C   0  0  0  0  0  0  0  0  0  0  0  0
    8.7773  -16.4147   20.5968 C   0  0  0  0  0  0  0  0  0  0  0  0
    9.9262  -16.4349   21.1090 O   0  0  0  0  0  0  0  0  0  0  0  0
    7.2479  -11.7045   28.0359 O   0  0  0  0  0  0  0  0  0  0  0  0
    7.1681  -12.2640   26.7527 C   0  0  0  0  0  0  0  0  0  0  0  0
    7.9124  -11.7830   25.7028 C   0  0  0  0  0  0  0  0  0  0  0  0
    7.8132  -12.3539   24.4502 C   0  0  0  0  0  0  0  0  0  0  0  0
    6.9762  -13.4183   24.1925 C   0  0  0  0  0  0  0  0  0  0  0  0
    6.9045  -13.9945   22.8424 C   0  0  0  0  0  0  0  0  0  0  0  0
    8.0066  -14.9861   22.5454 C   0  0  2  0  0  0  0  0  0  0  0  0
    7.7860  -15.6488   21.2686 N   0  0  0  0  0  0  0  0  0  0  0  0
    8.2287  -15.9642   23.6302 C   0  0  0  0  0  0  0  0  0  0  0  0
    7.2605  -16.7126   23.9531 O   0  0  0  0  0  0  0  0  0  0  0  0
    6.2347  -13.8942   25.2479 C   0  0  0  0  0  0  0  0  0  0  0  0
    6.3247  -13.3273   26.5192 C   0  0  0  0  0  0  0  0  0  0  0  0
   13.8394  -18.9304   20.9994 O   0  0  0  0  0  0  0  0  0  0  0  0
   12.7920  -18.8158   21.9291 C   0  0  0  0  0  0  0  0  0  0  0  0
   11.4897  -18.8845   21.5178 C   0  0  0  0  0  0  0  0  0  0  0  0
   10.4330  -18.7773   22.3937 C   0  0  0  0  0  0  0  0  0  0  0  0
   10.6940  -18.5941   23.7343 C   0  0  0  0  0  0  0  0  0  0  0  0
    9.6465  -18.4623   24.7560 C   0  0  0  0  0  0  0  0  0  0  0  0
    9.6019  -17.0943   25.4126 C   0  0  2  0  0  0  0  0  0  0  0  0
    9.4311  -16.1343   24.3347 N   0  0  0  0  0  0  0  0  0  0  0  0
   10.7727  -16.8277   26.2440 C   0  0  0  0  0  0  0  0  0  0  0  0
   11.1214  -17.5541   27.2021 O   0  0  0  0  0  0  0  0  0  0  0  0
   12.0056  -18.5235   24.1597 C   0  0  0  0  0  0  0  0  0  0  0  0
   13.0422  -18.6328   23.2697 C   0  0  0  0  0  0  0  0  0  0  0  0
   11.5605  -15.7182   25.9822 O   0  0  0  0  0  0  0  0  0  0  0  0
  1  2  1  0
  3  4  2  0
  3  2  1  0
  6  5  1  0
  6 16  2  0
  7  6  1  0
  8  7  2  0
  8  9  1  0
  9 15  2  0
 10  9  1  0
 11 10  1  1
 11 12  1  0
 12  3  1  0
 13 24  1  0
 13 11  1  0
 14 13  2  0
 15 16  1  0
 18 28  2  0
 18 17  1  0
 19 18  1  0
 20 21  1  0
 20 19  2  0
 21 27  2  0
 22 21  1  0
 23 22  1  6
 23 24  1  0
 25 29  1  0
 25 23  1  0
 26 25  2  0
 27 28  1  0
M  END
$$$$
