GYY.pdb
     RDKit          3D

 29 30  0  0  1  0  0  0  0  0999 V2000
    9.5894  -19.3249   18.8199 N   0  0  0  0  0  0  0  0  0  0  0  0
    8.6744  -18.9180   19.8665 C   0  0  0  0  0  0  0  0  0  0  0  0
    9.1804  -17.6549   20.4711 C   0  0  0  0  0  0  0  0  0  0  0  0
   10.3514  -17.2523   20.2487 O   0  0  0  0  0  0  0  0  0  0  0  0
    6.8059  -13.1316   16.3467 O   0  0  0  0  0  0  0  0  0  0  0  0
    7.0484  -13.4771   17.6838 C   0  0  0  0  0  0  0  0  0  0  0  0
    6.3812  -14.5076   18.3004 C   0  0  0  0  0  0  0  0  0  0  0  0
    6.6408  -14.8252   19.6182 C   0  0  0  0  0  0  0  0  0  0  0  0
    7.5675  -14.1362   20.3707 C   0  0  0  0  0  0  0  0  0  0  0  0
    7.8113  -14.5111   21.7708 C   0  0  0  0  0  0  0  0  0  0  0  0
    8.8324  -15.6139   21.9357 C   0  0  2  0  0  0  0  0  0  0  0  0
    8.3732  -16.8503   21.3206 N   0  0  0  0  0  0  0  0  0  0  0  0
    9.2472  -15.8296   23.3371 C   0  0  0  0  0  0  0  0  0  0  0  0
    8.5093  -16.5587   24.0621 O   0  0  0  0  0  0  0  0  0  0  0  0
    8.2312  -13.1064   19.7469 C   0  0  0  0  0  0  0  0  0  0  0  0
    7.9792  -12.7741   18.4159 C   0  0  0  0  0  0  0  0  0  0  0  0
   10.7145  -15.4416   31.7220 O   0  0  0  0  0  0  0  0  0  0  0  0
   10.4516  -15.3556   30.3443 C   0  0  0  0  0  0  0  0  0  0  0  0
   10.0876  -16.4682   29.6375 C   0  0  0  0  0  0  0  0  0  0  0  0
    9.8210  -16.4296   28.2873 C   0  0  0  0  0  0  0  0  0  0  0  0
    9.9238  -15.2277   27.6213 C   0  0  0  0  0  0  0  0  0  0  0  0
    9.6679  -15.0705   26.1832 C   0  0  0  0  0  0  0  0  0  0  0  0
   10.7991  -15.5703   25.3029 C   0  0  2  0  0  0  0  0  0  0  0  0
   10.3987  -15.2917   23.9337 N   0  0  0  0  0  0  0  0  0  0  0  0
   11.1190  -16.9759   25.5370 C   0  0  0  0  0  0  0  0  0  0  0  0
   10.7337  -17.9067   24.7938 O   0  0  0  0  0  0  0  0  0  0  0  0
   10.2907  -14.0985   28.3261 C   0  0  0  0  0  0  0  0  0  0  0  0
   10.5515  -14.1602   29.6702 C   0  0  0  0  0  0  0  0  0  0  0  0
   11.8897  -17.3298   26.6328 O   0  0  0  0  0  0  0  0  0  0  0  0
  1  2  1  0
  3  4  2  0
  3  2  1  0
  6  5  1  0
  6 16  2  0
  7  6  1  0
  8  7  2  0
  8  9  1  0
  9 15  2  0
 10  9  1  0
 11 10  1  1
 11 12  1  0
 12  3  1  0
 13 24  1  0
 13 11  1  0
 14 13  2  0
 15 16  1  0
 18 28  2  0
 18 17  1  0
 19 18  1  0
 20 21  1  0
 20 19  2  0
 21 27  2  0
 22 21  1  0
 23 22  1  1
 23 24  1  0
 25 29  1  0
 25 23  1  0
 26 25  2  0
 27 28  1  0
M  END
$$$$
