GYY.pdb
     RDKit          3D

 29 30  0  0  1  0  0  0  0  0999 V2000
    2.6514  -18.0215   20.8529 N   0  0  0  0  0  0  0  0  0  0  0  0
    4.0105  -18.5189   20.7934 C   0  0  0  0  0  0  0  0  0  0  0  0
    4.7188  -18.1069   22.0365 C   0  0  0  0  0  0  0  0  0  0  0  0
    4.5757  -16.9512   22.5125 O   0  0  0  0  0  0  0  0  0  0  0  0
    9.5605  -18.6065   29.5028 O   0  0  0  0  0  0  0  0  0  0  0  0
    8.8184  -18.9032   28.3507 C   0  0  0  0  0  0  0  0  0  0  0  0
    7.4698  -18.6535   28.2707 C   0  0  0  0  0  0  0  0  0  0  0  0
    6.7650  -18.9561   27.1233 C   0  0  0  0  0  0  0  0  0  0  0  0
    7.3681  -19.5151   26.0171 C   0  0  0  0  0  0  0  0  0  0  0  0
    6.5769  -19.8194   24.8164 C   0  0  0  0  0  0  0  0  0  0  0  0
    6.3173  -18.6161   23.9386 C   0  0  2  0  0  0  0  0  0  0  0  0
    5.5828  -18.9904   22.7393 N   0  0  0  0  0  0  0  0  0  0  0  0
    7.5379  -17.8523   23.6079 C   0  0  0  0  0  0  0  0  0  0  0  0
    8.2645  -18.2855   22.6666 O   0  0  0  0  0  0  0  0  0  0  0  0
    8.7177  -19.7622   26.1045 C   0  0  0  0  0  0  0  0  0  0  0  0
    9.4428  -19.4616   27.2575 C   0  0  0  0  0  0  0  0  0  0  0  0
    7.1410  -13.6315   18.2966 O   0  0  0  0  0  0  0  0  0  0  0  0
    7.5548  -13.8560   19.6206 C   0  0  0  0  0  0  0  0  0  0  0  0
    8.8838  -13.9710   19.9213 C   0  0  0  0  0  0  0  0  0  0  0  0
    9.3334  -14.1910   21.2038 C   0  0  0  0  0  0  0  0  0  0  0  0
    8.4132  -14.2998   22.2236 C   0  0  0  0  0  0  0  0  0  0  0  0
    8.7785  -14.5388   23.6264 C   0  0  0  0  0  0  0  0  0  0  0  0
    9.1845  -15.9725   23.9164 C   0  0  2  0  0  0  0  0  0  0  0  0
    7.9596  -16.6789   24.2532 N   0  0  0  0  0  0  0  0  0  0  0  0
   10.2116  -16.0713   24.9500 C   0  0  0  0  0  0  0  0  0  0  0  0
   10.0138  -16.5810   26.0761 O   0  0  0  0  0  0  0  0  0  0  0  0
    7.0689  -14.1851   21.9303 C   0  0  0  0  0  0  0  0  0  0  0  0
    6.6437  -13.9661   20.6459 C   0  0  0  0  0  0  0  0  0  0  0  0
   11.4843  -15.5835   24.6999 O   0  0  0  0  0  0  0  0  0  0  0  0
  1  2  1  0
  3  4  2  0
  3  2  1  0
  6  5  1  0
  6 16  2  0
  7  6  1  0
  8  7  2  0
  8  9  1  0
  9 15  2  0
 10  9  1  0
 11 10  1  6
 11 12  1  0
 12  3  1  0
 13 24  1  0
 13 11  1  0
 14 13  2  0
 15 16  1  0
 18 28  2  0
 18 17  1  0
 19 18  1  0
 20 21  1  0
 20 19  2  0
 21 27  2  0
 22 21  1  0
 23 22  1  1
 23 24  1  0
 25 29  1  0
 25 23  1  0
 26 25  2  0
 27 28  1  0
M  END
$$$$
