GYY.pdb
     RDKit          3D

 29 30  0  0  1  0  0  0  0  0999 V2000
    8.4910  -19.3866   19.7796 N   0  0  0  0  0  0  0  0  0  0  0  0
    7.7491  -18.5869   20.7326 C   0  0  0  0  0  0  0  0  0  0  0  0
    8.6117  -17.4559   21.1726 C   0  0  0  0  0  0  0  0  0  0  0  0
    9.8281  -17.4058   20.8555 O   0  0  0  0  0  0  0  0  0  0  0  0
    7.6868  -12.9527   16.6175 O   0  0  0  0  0  0  0  0  0  0  0  0
    7.8527  -13.1974   17.9881 C   0  0  0  0  0  0  0  0  0  0  0  0
    8.9382  -12.7241   18.6846 C   0  0  0  0  0  0  0  0  0  0  0  0
    9.0750  -12.9808   20.0338 C   0  0  0  0  0  0  0  0  0  0  0  0
    8.1450  -13.7131   20.7399 C   0  0  0  0  0  0  0  0  0  0  0  0
    8.3324  -13.9603   22.1765 C   0  0  0  0  0  0  0  0  0  0  0  0
    8.9358  -15.3115   22.4871 C   0  0  2  0  0  0  0  0  0  0  0  0
    8.1081  -16.3883   21.9645 N   0  0  0  0  0  0  0  0  0  0  0  0
    9.2365  -15.5083   23.9201 C   0  0  0  0  0  0  0  0  0  0  0  0
   10.1483  -14.7953   24.4319 O   0  0  0  0  0  0  0  0  0  0  0  0
    7.0616  -14.1835   20.0363 C   0  0  0  0  0  0  0  0  0  0  0  0
    6.9101  -13.9319   18.6727 C   0  0  0  0  0  0  0  0  0  0  0  0
    6.3700  -10.6628   26.9159 O   0  0  0  0  0  0  0  0  0  0  0  0
    6.6805  -12.0333   26.9182 C   0  0  0  0  0  0  0  0  0  0  0  0
    7.8778  -12.4718   27.4122 C   0  0  0  0  0  0  0  0  0  0  0  0
    8.2231  -13.8043   27.4338 C   0  0  0  0  0  0  0  0  0  0  0  0
    7.3319  -14.7323   26.9404 C   0  0  0  0  0  0  0  0  0  0  0  0
    7.5963  -16.1771   26.9092 C   0  0  0  0  0  0  0  0  0  0  0  0
    8.8779  -16.5483   26.1850 C   0  0  2  0  0  0  0  0  0  0  0  0
    8.5903  -16.4240   24.7657 N   0  0  0  0  0  0  0  0  0  0  0  0
    9.3773  -17.8685   26.5602 C   0  0  0  0  0  0  0  0  0  0  0  0
    9.4676  -18.8274   25.7606 O   0  0  0  0  0  0  0  0  0  0  0  0
    6.1203  -14.2996   26.4393 C   0  0  0  0  0  0  0  0  0  0  0  0
    5.7974  -12.9676   26.4277 C   0  0  0  0  0  0  0  0  0  0  0  0
    9.7811  -18.1028   27.8649 O   0  0  0  0  0  0  0  0  0  0  0  0
  1  2  1  0
  3  4  2  0
  3  2  1  0
  6  5  1  0
  6 16  2  0
  7  6  1  0
  8  7  2  0
  8  9  1  0
  9 15  2  0
 10  9  1  0
 11 10  1  1
 11 12  1  0
 12  3  1  0
 13 24  1  0
 13 11  1  0
 14 13  2  0
 15 16  1  0
 18 28  2  0
 18 17  1  0
 19 18  1  0
 20 21  1  0
 20 19  2  0
 21 27  2  0
 22 21  1  0
 23 22  1  1
 23 24  1  0
 25 29  1  0
 25 23  1  0
 26 25  2  0
 27 28  1  0
M  END
$$$$
