GYY.pdb
     RDKit          3D

 29 30  0  0  1  0  0  0  0  0999 V2000
    6.7749  -25.8040   16.7519 N   0  0  0  0  0  0  0  0  0  0  0  0
    6.6365  -24.9014   17.8763 C   0  0  0  0  0  0  0  0  0  0  0  0
    7.7562  -25.1537   18.8247 C   0  0  0  0  0  0  0  0  0  0  0  0
    8.5309  -26.1326   18.6688 O   0  0  0  0  0  0  0  0  0  0  0  0
   13.1349  -22.7710   16.3785 O   0  0  0  0  0  0  0  0  0  0  0  0
   12.3680  -22.9506   17.5385 C   0  0  0  0  0  0  0  0  0  0  0  0
   12.7086  -23.8718   18.4992 C   0  0  0  0  0  0  0  0  0  0  0  0
   11.9344  -24.0267   19.6313 C   0  0  0  0  0  0  0  0  0  0  0  0
   10.7987  -23.2776   19.8523 C   0  0  0  0  0  0  0  0  0  0  0  0
   10.0059  -23.4768   21.0738 C   0  0  0  0  0  0  0  0  0  0  0  0
    8.9948  -24.5958   20.9663 C   0  0  2  0  0  0  0  0  0  0  0  0
    8.0021  -24.3092   19.9414 N   0  0  0  0  0  0  0  0  0  0  0  0
    8.3576  -24.9413   22.2537 C   0  0  0  0  0  0  0  0  0  0  0  0
    7.1357  -24.6466   22.4016 O   0  0  0  0  0  0  0  0  0  0  0  0
   10.4643  -22.3579   18.8867 C   0  0  0  0  0  0  0  0  0  0  0  0
   11.2371  -22.1904   17.7377 C   0  0  0  0  0  0  0  0  0  0  0  0
    4.2463  -29.0660   20.5994 O   0  0  0  0  0  0  0  0  0  0  0  0
    5.2077  -28.6788   21.5483 C   0  0  0  0  0  0  0  0  0  0  0  0
    4.8226  -28.1474   22.7480 C   0  0  0  0  0  0  0  0  0  0  0  0
    5.7300  -27.7549   23.7060 C   0  0  0  0  0  0  0  0  0  0  0  0
    7.0759  -27.9016   23.4497 C   0  0  0  0  0  0  0  0  0  0  0  0
    8.1309  -27.5130   24.3954 C   0  0  0  0  0  0  0  0  0  0  0  0
    8.3061  -26.0113   24.5324 C   0  0  2  0  0  0  0  0  0  0  0  0
    8.9978  -25.5741   23.3311 N   0  0  0  0  0  0  0  0  0  0  0  0
    8.9920  -25.6321   25.7647 C   0  0  0  0  0  0  0  0  0  0  0  0
    8.6085  -25.9780   26.9051 O   0  0  0  0  0  0  0  0  0  0  0  0
    7.4750  -28.4371   22.2413 C   0  0  0  0  0  0  0  0  0  0  0  0
    6.5539  -28.8212   21.3018 C   0  0  0  0  0  0  0  0  0  0  0  0
   10.1325  -24.8476   25.7005 O   0  0  0  0  0  0  0  0  0  0  0  0
  1  2  1  0
  3  4  2  0
  3  2  1  0
  6  5  1  0
  6 16  2  0
  7  6  1  0
  8  7  2  0
  8  9  1  0
  9 15  2  0
 10  9  1  0
 11 10  1  1
 11 12  1  0
 12  3  1  0
 13 24  1  0
 13 11  1  0
 14 13  2  0
 15 16  1  0
 18 28  2  0
 18 17  1  0
 19 18  1  0
 20 21  1  0
 20 19  2  0
 21 27  2  0
 22 21  1  0
 23 22  1  6
 23 24  1  0
 25 29  1  0
 25 23  1  0
 26 25  2  0
 27 28  1  0
M  END
$$$$
