WQF.pdb
     RDKit          3D

 35 37  0  0  1  0  0  0  0  0999 V2000
    6.4551  -17.5344   23.5870 N   0  0  0  0  0  0  0  0  0  0  0  0
    7.7758  -16.8863   23.6631 C   0  0  1  0  0  0  0  0  0  0  0  0
    8.0208  -16.4342   25.0498 C   0  0  0  0  0  0  0  0  0  0  0  0
    7.1672  -15.3620   25.5651 C   0  0  0  0  0  0  0  0  0  0  0  0
    6.0105  -15.5853   26.3167 C   0  0  0  0  0  0  0  0  0  0  0  0
    5.5126  -14.3930   26.6597 N   0  0  0  0  0  0  0  0  0  0  0  0
    6.3004  -13.4238   26.1591 C   0  0  0  0  0  0  0  0  0  0  0  0
    6.1846  -12.0572   26.2406 C   0  0  0  0  0  0  0  0  0  0  0  0
    7.0861  -11.2205   25.6469 C   0  0  0  0  0  0  0  0  0  0  0  0
    8.1226  -11.7952   24.9582 C   0  0  0  0  0  0  0  0  0  0  0  0
    8.2473  -13.1647   24.8712 C   0  0  0  0  0  0  0  0  0  0  0  0
    7.3422  -14.0179   25.4692 C   0  0  0  0  0  0  0  0  0  0  0  0
    8.8430  -17.7166   23.0653 C   0  0  0  0  0  0  0  0  0  0  0  0
    8.7014  -18.9616   23.0260 O   0  0  0  0  0  0  0  0  0  0  0  0
   14.1048  -15.0377   20.4515 N   0  0  0  0  0  0  0  0  0  0  0  0
   12.7260  -14.7897   20.2577 C   0  0  0  0  0  0  0  0  0  0  0  0
   12.3155  -13.9080   19.4650 O   0  0  0  0  0  0  0  0  0  0  0  0
   11.7428  -15.5842   21.0108 C   0  0  0  0  0  0  0  0  0  0  0  0
   12.3282  -16.5947   21.9271 C   0  0  0  0  0  0  0  0  0  0  0  0
   11.3815  -17.4083   22.7435 C   0  0  2  0  0  0  0  0  0  0  0  0
   10.0137  -17.1447   22.5439 N   0  0  0  0  0  0  0  0  0  0  0  0
   11.8403  -17.4587   24.1582 C   0  0  0  0  0  0  0  0  0  0  0  0
   13.0176  -17.3359   24.5193 O   0  0  0  0  0  0  0  0  0  0  0  0
   10.8664  -17.6606   25.1973 N   0  0  0  0  0  0  0  0  0  0  0  0
   11.2597  -17.6895   26.6017 C   0  0  1  0  0  0  0  0  0  0  0  0
   10.1511  -17.2549   27.5002 C   0  0  0  0  0  0  0  0  0  0  0  0
    9.8575  -15.8266   27.2830 C   0  0  0  0  0  0  0  0  0  0  0  0
   10.5634  -14.8532   27.9738 C   0  0  0  0  0  0  0  0  0  0  0  0
   10.3382  -13.5075   27.7933 C   0  0  0  0  0  0  0  0  0  0  0  0
    9.3726  -13.1212   26.8896 C   0  0  0  0  0  0  0  0  0  0  0  0
    8.6390  -14.0400   26.1738 C   0  0  0  0  0  0  0  0  0  0  0  0
    8.9070  -15.3745   26.3951 C   0  0  0  0  0  0  0  0  0  0  0  0
   11.8626  -19.0006   26.9480 C   0  0  0  0  0  0  0  0  0  0  0  0
   11.9293  -19.9885   26.1799 O   0  0  0  0  0  0  0  0  0  0  0  0
   12.4233  -19.2211   28.2249 O   0  0  0  0  0  0  0  0  0  0  0  0
  2  1  1  1
  2  3  1  0
  4 12  1  0
  4  3  1  0
  5  4  2  0
  6  5  1  0
  6  7  1  0
  7 12  2  0
  8  7  1  0
  8  9  2  0
  9 10  1  0
 10 11  2  0
 12 11  1  0
 13  2  1  0
 13 21  1  0
 14 13  2  0
 16 15  1  0
 17 16  2  0
 18 16  1  0
 19 18  1  0
 20 21  1  0
 20 19  1  6
 22 20  1  0
 23 22  2  0
 24 22  1  0
 25 24  1  0
 25 33  1  0
 25 26  1  1
 27 26  1  0
 28 27  2  0
 29 28  1  0
 30 29  2  0
 30 31  1  0
 31 32  2  0
 32 27  1  0
 33 35  1  0
 34 33  2  0
M  END
$$$$
