WQF.pdb
     RDKit          3D

 35 37  0  0  1  0  0  0  0  0999 V2000
    7.4935  -18.5281   21.9368 N   0  0  0  0  0  0  0  0  0  0  0  0
    8.2130  -17.6088   22.8353 C   0  0  1  0  0  0  0  0  0  0  0  0
    7.3507  -16.4464   23.1402 C   0  0  0  0  0  0  0  0  0  0  0  0
    6.8868  -15.6419   22.0084 C   0  0  0  0  0  0  0  0  0  0  0  0
    5.7382  -15.9345   21.2682 C   0  0  0  0  0  0  0  0  0  0  0  0
    5.5896  -14.9725   20.3519 N   0  0  0  0  0  0  0  0  0  0  0  0
    6.5921  -14.0836   20.4767 C   0  0  0  0  0  0  0  0  0  0  0  0
    6.8630  -12.9462   19.7553 C   0  0  0  0  0  0  0  0  0  0  0  0
    7.9519  -12.1660   20.0211 C   0  0  0  0  0  0  0  0  0  0  0  0
    8.7764  -12.5595   21.0431 C   0  0  0  0  0  0  0  0  0  0  0  0
    8.5127  -13.6984   21.7725 C   0  0  0  0  0  0  0  0  0  0  0  0
    7.4140  -14.4920   21.5121 C   0  0  0  0  0  0  0  0  0  0  0  0
    8.7844  -18.3039   24.0082 C   0  0  0  0  0  0  0  0  0  0  0  0
    8.0145  -18.7499   24.8915 O   0  0  0  0  0  0  0  0  0  0  0  0
   13.4812  -16.4509   21.3633 N   0  0  0  0  0  0  0  0  0  0  0  0
   13.6117  -15.5874   22.4758 C   0  0  0  0  0  0  0  0  0  0  0  0
   14.5918  -14.8146   22.6044 O   0  0  0  0  0  0  0  0  0  0  0  0
   12.5716  -15.5982   23.5165 C   0  0  0  0  0  0  0  0  0  0  0  0
   11.4818  -16.5823   23.2986 C   0  0  0  0  0  0  0  0  0  0  0  0
   11.2272  -17.5730   24.3841 C   0  0  2  0  0  0  0  0  0  0  0  0
   10.1693  -18.4733   24.1593 N   0  0  0  0  0  0  0  0  0  0  0  0
   11.2409  -16.8943   25.7084 C   0  0  0  0  0  0  0  0  0  0  0  0
   12.2253  -16.3231   26.1944 O   0  0  0  0  0  0  0  0  0  0  0  0
   10.0378  -16.8855   26.4966 N   0  0  0  0  0  0  0  0  0  0  0  0
   10.0291  -16.3412   27.8499 C   0  0  1  0  0  0  0  0  0  0  0  0
    8.7720  -15.5932   28.1421 C   0  0  0  0  0  0  0  0  0  0  0  0
    8.6299  -14.4627   27.2067 C   0  0  0  0  0  0  0  0  0  0  0  0
    7.6037  -14.4493   26.2742 C   0  0  0  0  0  0  0  0  0  0  0  0
    7.4191  -13.4095   25.3916 C   0  0  0  0  0  0  0  0  0  0  0  0
    8.2920  -12.3449   25.4432 C   0  0  0  0  0  0  0  0  0  0  0  0
    9.3300  -12.3001   26.3461 C   0  0  0  0  0  0  0  0  0  0  0  0
    9.4670  -13.3692   27.2063 C   0  0  0  0  0  0  0  0  0  0  0  0
   10.3694  -17.3947   28.8384 C   0  0  0  0  0  0  0  0  0  0  0  0
   10.5817  -18.5988   28.5639 O   0  0  0  0  0  0  0  0  0  0  0  0
   10.4792  -17.0858   30.2117 O   0  0  0  0  0  0  0  0  0  0  0  0
  2  1  1  1
  2  3  1  0
  4 12  1  0
  4  3  1  0
  5  4  2  0
  6  5  1  0
  6  7  1  0
  7 12  2  0
  8  7  1  0
  8  9  2  0
  9 10  1  0
 10 11  2  0
 12 11  1  0
 13  2  1  0
 13 21  1  0
 14 13  2  0
 16 15  1  0
 17 16  2  0
 18 16  1  0
 19 18  1  0
 20 21  1  0
 20 19  1  6
 22 20  1  0
 23 22  2  0
 24 22  1  0
 25 24  1  0
 25 33  1  0
 25 26  1  1
 27 26  1  0
 28 27  2  0
 29 28  1  0
 30 29  2  0
 30 31  1  0
 31 32  2  0
 32 27  1  0
 33 35  1  0
 34 33  2  0
M  END
$$$$
