WQF.pdb
     RDKit          3D

 35 37  0  0  1  0  0  0  0  0999 V2000
    8.7794  -16.9828   20.9232 N   0  0  0  0  0  0  0  0  0  0  0  0
    8.5684  -16.1893   22.1463 C   0  0  1  0  0  0  0  0  0  0  0  0
    7.2352  -15.5512   22.0927 C   0  0  0  0  0  0  0  0  0  0  0  0
    6.9352  -14.7246   20.9222 C   0  0  0  0  0  0  0  0  0  0  0  0
    5.7592  -14.8355   20.1755 C   0  0  0  0  0  0  0  0  0  0  0  0
    5.7959  -13.9021   19.2191 N   0  0  0  0  0  0  0  0  0  0  0  0
    6.9420  -13.2050   19.3247 C   0  0  0  0  0  0  0  0  0  0  0  0
    7.4213  -12.1670   18.5630 C   0  0  0  0  0  0  0  0  0  0  0  0
    8.6314  -11.5863   18.8152 C   0  0  0  0  0  0  0  0  0  0  0  0
    9.3615  -12.0789   19.8655 C   0  0  0  0  0  0  0  0  0  0  0  0
    8.8890  -13.1193   20.6355 C   0  0  0  0  0  0  0  0  0  0  0  0
    7.6668  -13.7112   20.3890 C   0  0  0  0  0  0  0  0  0  0  0  0
    8.8564  -16.9626   23.3729 C   0  0  0  0  0  0  0  0  0  0  0  0
    7.9167  -17.2484   24.1520 O   0  0  0  0  0  0  0  0  0  0  0  0
   14.3074  -20.1956   24.2412 N   0  0  0  0  0  0  0  0  0  0  0  0
   13.7301  -20.2518   25.5311 C   0  0  0  0  0  0  0  0  0  0  0  0
   14.2237  -20.9504   26.4490 O   0  0  0  0  0  0  0  0  0  0  0  0
   12.5119  -19.4733   25.8049 C   0  0  0  0  0  0  0  0  0  0  0  0
   12.0049  -18.6838   24.6546 C   0  0  0  0  0  0  0  0  0  0  0  0
   10.7350  -17.9266   24.8508 C   0  0  2  0  0  0  0  0  0  0  0  0
   10.1580  -17.3816   23.6888 N   0  0  0  0  0  0  0  0  0  0  0  0
   10.8636  -17.0062   26.0131 C   0  0  0  0  0  0  0  0  0  0  0  0
   11.5453  -15.9734   26.0188 O   0  0  0  0  0  0  0  0  0  0  0  0
   10.1538  -17.3152   27.2254 N   0  0  0  0  0  0  0  0  0  0  0  0
   10.3558  -16.5283   28.4369 C   0  0  1  0  0  0  0  0  0  0  0  0
    9.1152  -15.8094   28.8482 C   0  0  0  0  0  0  0  0  0  0  0  0
    8.7523  -14.8079   27.8291 C   0  0  0  0  0  0  0  0  0  0  0  0
    7.7410  -15.0705   26.9173 C   0  0  0  0  0  0  0  0  0  0  0  0
    7.3544  -14.1617   25.9588 C   0  0  0  0  0  0  0  0  0  0  0  0
    8.0021  -12.9467   25.9101 C   0  0  0  0  0  0  0  0  0  0  0  0
    9.0134  -12.6274   26.7876 C   0  0  0  0  0  0  0  0  0  0  0  0
    9.3592  -13.5760   27.7270 C   0  0  0  0  0  0  0  0  0  0  0  0
   10.9753  -17.3574   29.5006 C   0  0  0  0  0  0  0  0  0  0  0  0
   11.2342  -18.5796   29.4025 O   0  0  0  0  0  0  0  0  0  0  0  0
   11.3256  -16.7893   30.7447 O   0  0  0  0  0  0  0  0  0  0  0  0
  2  1  1  6
  2  3  1  0
  4 12  1  0
  4  3  1  0
  5  4  2  0
  6  5  1  0
  6  7  1  0
  7 12  2  0
  8  7  1  0
  8  9  2  0
  9 10  1  0
 10 11  2  0
 12 11  1  0
 13  2  1  0
 13 21  1  0
 14 13  2  0
 16 15  1  0
 17 16  2  0
 18 16  1  0
 19 18  1  0
 20 21  1  0
 20 19  1  6
 22 20  1  0
 23 22  2  0
 24 22  1  0
 25 24  1  0
 25 33  1  0
 25 26  1  1
 27 26  1  0
 28 27  2  0
 29 28  1  0
 30 29  2  0
 30 31  1  0
 31 32  2  0
 32 27  1  0
 33 35  1  0
 34 33  2  0
M  END
$$$$
