WQF.pdb
     RDKit          3D

 35 37  0  0  1  0  0  0  0  0999 V2000
    6.1945  -18.1506   25.2766 N   0  0  0  0  0  0  0  0  0  0  0  0
    7.3417  -17.3972   24.7415 C   0  0  1  0  0  0  0  0  0  0  0  0
    7.5861  -16.2094   25.5883 C   0  0  0  0  0  0  0  0  0  0  0  0
    7.1225  -14.9174   25.0792 C   0  0  0  0  0  0  0  0  0  0  0  0
    6.2335  -14.0868   25.7666 C   0  0  0  0  0  0  0  0  0  0  0  0
    6.0700  -12.9769   25.0396 N   0  0  0  0  0  0  0  0  0  0  0  0
    6.8141  -13.0661   23.9221 C   0  0  0  0  0  0  0  0  0  0  0  0
    6.9569  -12.1828   22.8796 C   0  0  0  0  0  0  0  0  0  0  0  0
    7.7569  -12.4564   21.8070 C   0  0  0  0  0  0  0  0  0  0  0  0
    8.4207  -13.6557   21.8040 C   0  0  0  0  0  0  0  0  0  0  0  0
    8.2841  -14.5479   22.8452 C   0  0  0  0  0  0  0  0  0  0  0  0
    7.4792  -14.2793   23.9337 C   0  0  0  0  0  0  0  0  0  0  0  0
    8.5168  -18.2613   24.5008 C   0  0  0  0  0  0  0  0  0  0  0  0
    8.7601  -19.2003   25.2949 O   0  0  0  0  0  0  0  0  0  0  0  0
   13.4781  -16.0087   20.7807 N   0  0  0  0  0  0  0  0  0  0  0  0
   13.6268  -17.0938   21.6755 C   0  0  0  0  0  0  0  0  0  0  0  0
   14.5322  -17.1184   22.5438 O   0  0  0  0  0  0  0  0  0  0  0  0
   12.6969  -18.2304   21.5834 C   0  0  0  0  0  0  0  0  0  0  0  0
   11.2775  -17.8990   21.8642 C   0  0  0  0  0  0  0  0  0  0  0  0
   10.7548  -18.2233   23.2229 C   0  0  2  0  0  0  0  0  0  0  0  0
    9.3700  -18.0532   23.4060 N   0  0  0  0  0  0  0  0  0  0  0  0
   11.6328  -17.6239   24.2643 C   0  0  0  0  0  0  0  0  0  0  0  0
   12.6256  -16.9241   24.0278 O   0  0  0  0  0  0  0  0  0  0  0  0
   11.3256  -17.8575   25.6500 N   0  0  0  0  0  0  0  0  0  0  0  0
   12.0678  -17.1828   26.7091 C   0  0  1  0  0  0  0  0  0  0  0  0
   12.0592  -15.7008   26.5389 C   0  0  0  0  0  0  0  0  0  0  0  0
   10.8086  -15.1391   27.0808 C   0  0  0  0  0  0  0  0  0  0  0  0
    9.8703  -14.5706   26.2325 C   0  0  0  0  0  0  0  0  0  0  0  0
    8.6809  -14.0488   26.6879 C   0  0  0  0  0  0  0  0  0  0  0  0
    8.4203  -14.0970   28.0398 C   0  0  0  0  0  0  0  0  0  0  0  0
    9.3119  -14.6484   28.9319 C   0  0  0  0  0  0  0  0  0  0  0  0
   10.4874  -15.1562   28.4198 C   0  0  0  0  0  0  0  0  0  0  0  0
   11.6224  -17.6578   28.0427 C   0  0  0  0  0  0  0  0  0  0  0  0
   12.1198  -17.3034   29.1369 O   0  0  0  0  0  0  0  0  0  0  0  0
   10.5608  -18.5810   28.1613 O   0  0  0  0  0  0  0  0  0  0  0  0
  2  1  1  1
  2  3  1  0
  4 12  1  0
  4  3  1  0
  5  4  2  0
  6  5  1  0
  6  7  1  0
  7 12  2  0
  8  7  1  0
  8  9  2  0
  9 10  1  0
 10 11  2  0
 12 11  1  0
 13  2  1  0
 13 21  1  0
 14 13  2  0
 16 15  1  0
 17 16  2  0
 18 16  1  0
 19 18  1  0
 20 21  1  0
 20 19  1  6
 22 20  1  0
 23 22  2  0
 24 22  1  0
 25 24  1  0
 25 33  1  0
 25 26  1  1
 27 26  1  0
 28 27  2  0
 29 28  1  0
 30 29  2  0
 30 31  1  0
 31 32  2  0
 32 27  1  0
 33 35  1  0
 34 33  2  0
M  END
$$$$
