WQF.pdb
     RDKit          3D

 35 37  0  0  1  0  0  0  0  0999 V2000
    5.9681  -18.9688   23.2092 N   0  0  0  0  0  0  0  0  0  0  0  0
    6.7916  -17.7542   23.3378 C   0  0  1  0  0  0  0  0  0  0  0  0
    6.1784  -16.8495   24.3343 C   0  0  0  0  0  0  0  0  0  0  0  0
    6.6697  -15.4711   24.3789 C   0  0  0  0  0  0  0  0  0  0  0  0
    7.2615  -14.8232   23.2913 C   0  0  0  0  0  0  0  0  0  0  0  0
    7.5416  -13.5714   23.6676 N   0  0  0  0  0  0  0  0  0  0  0  0
    7.1553  -13.3961   24.9445 C   0  0  0  0  0  0  0  0  0  0  0  0
    7.2496  -12.2909   25.7552 C   0  0  0  0  0  0  0  0  0  0  0  0
    6.8109  -12.3057   27.0484 C   0  0  0  0  0  0  0  0  0  0  0  0
    6.2671  -13.4733   27.5175 C   0  0  0  0  0  0  0  0  0  0  0  0
    6.1679  -14.5868   26.7119 C   0  0  0  0  0  0  0  0  0  0  0  0
    6.6071  -14.5807   25.4035 C   0  0  0  0  0  0  0  0  0  0  0  0
    8.2205  -18.0658   23.5537 C   0  0  0  0  0  0  0  0  0  0  0  0
    8.5336  -19.1155   24.1635 O   0  0  0  0  0  0  0  0  0  0  0  0
   12.8151  -14.6371   20.5709 N   0  0  0  0  0  0  0  0  0  0  0  0
   13.5327  -15.6724   21.2139 C   0  0  0  0  0  0  0  0  0  0  0  0
   14.7225  -15.9382   20.9172 O   0  0  0  0  0  0  0  0  0  0  0  0
   12.8644  -16.4657   22.2575 C   0  0  0  0  0  0  0  0  0  0  0  0
   11.3857  -16.3386   22.2861 C   0  0  0  0  0  0  0  0  0  0  0  0
   10.6386  -17.2444   23.2058 C   0  0  2  0  0  0  0  0  0  0  0  0
    9.2361  -17.2123   23.0957 N   0  0  0  0  0  0  0  0  0  0  0  0
   11.1910  -17.1417   24.5838 C   0  0  0  0  0  0  0  0  0  0  0  0
   12.3446  -16.7838   24.8530 O   0  0  0  0  0  0  0  0  0  0  0  0
   10.3438  -17.4735   25.6980 N   0  0  0  0  0  0  0  0  0  0  0  0
   10.8255  -17.3573   27.0700 C   0  0  1  0  0  0  0  0  0  0  0  0
    9.8951  -16.5615   27.9221 C   0  0  0  0  0  0  0  0  0  0  0  0
    9.9865  -15.1331   27.5692 C   0  0  0  0  0  0  0  0  0  0  0  0
   11.0649  -14.3733   27.9965 C   0  0  0  0  0  0  0  0  0  0  0  0
   11.2040  -13.0413   27.6789 C   0  0  0  0  0  0  0  0  0  0  0  0
   10.2298  -12.4478   26.9064 C   0  0  0  0  0  0  0  0  0  0  0  0
    9.1360  -13.1492   26.4521 C   0  0  0  0  0  0  0  0  0  0  0  0
    9.0484  -14.4805   26.8008 C   0  0  0  0  0  0  0  0  0  0  0  0
   11.1784  -18.6923   27.6140 C   0  0  0  0  0  0  0  0  0  0  0  0
   11.0326  -19.7791   27.0075 O   0  0  0  0  0  0  0  0  0  0  0  0
   11.7254  -18.8210   28.9092 O   0  0  0  0  0  0  0  0  0  0  0  0
  2  1  1  1
  2  3  1  0
  4 12  1  0
  4  3  1  0
  5  4  2  0
  6  5  1  0
  6  7  1  0
  7 12  2  0
  8  7  1  0
  8  9  2  0
  9 10  1  0
 10 11  2  0
 12 11  1  0
 13  2  1  0
 13 21  1  0
 14 13  2  0
 16 15  1  0
 17 16  2  0
 18 16  1  0
 19 18  1  0
 20 21  1  0
 20 19  1  6
 22 20  1  0
 23 22  2  0
 24 22  1  0
 25 24  1  0
 25 33  1  0
 25 26  1  1
 27 26  1  0
 28 27  2  0
 29 28  1  0
 30 29  2  0
 30 31  1  0
 31 32  2  0
 32 27  1  0
 33 35  1  0
 34 33  2  0
M  END
$$$$
