WQF.pdb
     RDKit          3D

 35 37  0  0  1  0  0  0  0  0999 V2000
    8.5222  -16.4967   20.7842 N   0  0  0  0  0  0  0  0  0  0  0  0
    8.8387  -16.3584   22.2162 C   0  0  1  0  0  0  0  0  0  0  0  0
    7.6389  -15.8852   22.9400 C   0  0  0  0  0  0  0  0  0  0  0  0
    7.4262  -14.4384   23.0095 C   0  0  0  0  0  0  0  0  0  0  0  0
    7.3772  -13.6071   21.8873 C   0  0  0  0  0  0  0  0  0  0  0  0
    7.1202  -12.3659   22.3123 N   0  0  0  0  0  0  0  0  0  0  0  0
    7.0049  -12.3720   23.6530 C   0  0  0  0  0  0  0  0  0  0  0  0
    6.7584  -11.3403   24.5261 C   0  0  0  0  0  0  0  0  0  0  0  0
    6.6908  -11.5383   25.8756 C   0  0  0  0  0  0  0  0  0  0  0  0
    6.8796  -12.8153   26.3368 C   0  0  0  0  0  0  0  0  0  0  0  0
    7.1270  -13.8566   25.4689 C   0  0  0  0  0  0  0  0  0  0  0  0
    7.1955  -13.6662   24.1036 C   0  0  0  0  0  0  0  0  0  0  0  0
    9.4796  -17.5708   22.7684 C   0  0  0  0  0  0  0  0  0  0  0  0
    8.8984  -18.2124   23.6753 O   0  0  0  0  0  0  0  0  0  0  0  0
   13.0275  -14.4088   19.0778 N   0  0  0  0  0  0  0  0  0  0  0  0
   13.7969  -15.3576   19.7907 C   0  0  0  0  0  0  0  0  0  0  0  0
   14.7510  -15.9736   19.2573 O   0  0  0  0  0  0  0  0  0  0  0  0
   13.4668  -15.6357   21.1974 C   0  0  0  0  0  0  0  0  0  0  0  0
   12.1078  -16.1893   21.4212 C   0  0  0  0  0  0  0  0  0  0  0  0
   12.0000  -17.4247   22.2498 C   0  0  2  0  0  0  0  0  0  0  0  0
   10.7258  -18.0194   22.3045 N   0  0  0  0  0  0  0  0  0  0  0  0
   12.6878  -17.2262   23.5545 C   0  0  0  0  0  0  0  0  0  0  0  0
   13.6696  -16.4927   23.7261 O   0  0  0  0  0  0  0  0  0  0  0  0
   12.1944  -17.9222   24.7125 N   0  0  0  0  0  0  0  0  0  0  0  0
   11.7379  -17.1931   25.8906 C   0  0  1  0  0  0  0  0  0  0  0  0
   10.7208  -16.1577   25.5460 C   0  0  0  0  0  0  0  0  0  0  0  0
   10.1520  -15.5812   26.7779 C   0  0  0  0  0  0  0  0  0  0  0  0
    9.1913  -14.5838   26.7063 C   0  0  0  0  0  0  0  0  0  0  0  0
    8.6182  -14.0264   27.8266 C   0  0  0  0  0  0  0  0  0  0  0  0
    9.0200  -14.4826   29.0628 C   0  0  0  0  0  0  0  0  0  0  0  0
    9.9692  -15.4702   29.1990 C   0  0  0  0  0  0  0  0  0  0  0  0
   10.5095  -15.9924   28.0426 C   0  0  0  0  0  0  0  0  0  0  0  0
   11.3274  -18.1355   26.9611 C   0  0  0  0  0  0  0  0  0  0  0  0
   11.5258  -17.9646   28.1866 O   0  0  0  0  0  0  0  0  0  0  0  0
   10.6569  -19.3371   26.6451 O   0  0  0  0  0  0  0  0  0  0  0  0
  2  1  1  6
  2  3  1  0
  4 12  1  0
  4  3  1  0
  5  4  2  0
  6  5  1  0
  6  7  1  0
  7 12  2  0
  8  7  1  0
  8  9  2  0
  9 10  1  0
 10 11  2  0
 12 11  1  0
 13  2  1  0
 13 21  1  0
 14 13  2  0
 16 15  1  0
 17 16  2  0
 18 16  1  0
 19 18  1  0
 20 21  1  0
 20 19  1  1
 22 20  1  0
 23 22  2  0
 24 22  1  0
 25 24  1  0
 25 33  1  0
 25 26  1  6
 27 26  1  0
 28 27  2  0
 29 28  1  0
 30 29  2  0
 30 31  1  0
 31 32  2  0
 32 27  1  0
 33 35  1  0
 34 33  2  0
M  END
$$$$
