WQF.pdb
     RDKit          3D

 35 37  0  0  1  0  0  0  0  0999 V2000
    9.5337  -16.5475   21.1264 N   0  0  0  0  0  0  0  0  0  0  0  0
    8.6394  -15.9882   22.1548 C   0  0  1  0  0  0  0  0  0  0  0  0
    7.2663  -15.8964   21.6130 C   0  0  0  0  0  0  0  0  0  0  0  0
    7.0762  -15.0935   20.4035 C   0  0  0  0  0  0  0  0  0  0  0  0
    6.2606  -15.4800   19.3366 C   0  0  0  0  0  0  0  0  0  0  0  0
    6.2808  -14.4953   18.4326 N   0  0  0  0  0  0  0  0  0  0  0  0
    7.0727  -13.5024   18.8773 C   0  0  0  0  0  0  0  0  0  0  0  0
    7.4052  -12.3045   18.2923 C   0  0  0  0  0  0  0  0  0  0  0  0
    8.2488  -11.4166   18.8965 C   0  0  0  0  0  0  0  0  0  0  0  0
    8.7598  -11.7635   20.1203 C   0  0  0  0  0  0  0  0  0  0  0  0
    8.4318  -12.9624   20.7151 C   0  0  0  0  0  0  0  0  0  0  0  0
    7.5790  -13.8651   20.1128 C   0  0  0  0  0  0  0  0  0  0  0  0
    8.7680  -16.6884   23.4505 C   0  0  0  0  0  0  0  0  0  0  0  0
    7.8200  -16.6410   24.2695 O   0  0  0  0  0  0  0  0  0  0  0  0
   13.3108  -21.0840   24.5295 N   0  0  0  0  0  0  0  0  0  0  0  0
   12.8425  -20.8339   25.8403 C   0  0  0  0  0  0  0  0  0  0  0  0
   13.3007  -21.4441   26.8362 O   0  0  0  0  0  0  0  0  0  0  0  0
   11.7832  -19.8330   26.0434 C   0  0  0  0  0  0  0  0  0  0  0  0
   11.3872  -19.0878   24.8222 C   0  0  0  0  0  0  0  0  0  0  0  0
   10.3688  -18.0094   24.9786 C   0  0  2  0  0  0  0  0  0  0  0  0
    9.9283  -17.4021   23.7881 N   0  0  0  0  0  0  0  0  0  0  0  0
   10.7658  -17.0877   26.0774 C   0  0  0  0  0  0  0  0  0  0  0  0
   11.7205  -16.3021   26.0245 O   0  0  0  0  0  0  0  0  0  0  0  0
   10.0006  -17.0891   27.2954 N   0  0  0  0  0  0  0  0  0  0  0  0
   10.3484  -16.2062   28.4033 C   0  0  1  0  0  0  0  0  0  0  0  0
    9.1916  -15.3679   28.8325 C   0  0  0  0  0  0  0  0  0  0  0  0
    8.7014  -14.5667   27.6963 C   0  0  0  0  0  0  0  0  0  0  0  0
    9.2820  -13.3430   27.3992 C   0  0  0  0  0  0  0  0  0  0  0  0
    8.8715  -12.5667   26.3395 C   0  0  0  0  0  0  0  0  0  0  0  0
    7.8435  -13.0306   25.5483 C   0  0  0  0  0  0  0  0  0  0  0  0
    7.2273  -14.2371   25.7921 C   0  0  0  0  0  0  0  0  0  0  0  0
    7.6795  -14.9729   26.8672 C   0  0  0  0  0  0  0  0  0  0  0  0
   11.0007  -16.9709   29.4952 C   0  0  0  0  0  0  0  0  0  0  0  0
   11.4405  -16.4754   30.5589 O   0  0  0  0  0  0  0  0  0  0  0  0
   11.1716  -18.3687   29.3935 O   0  0  0  0  0  0  0  0  0  0  0  0
  2  1  1  6
  2  3  1  0
  4 12  1  0
  4  3  1  0
  5  4  2  0
  6  5  1  0
  6  7  1  0
  7 12  2  0
  8  7  1  0
  8  9  2  0
  9 10  1  0
 10 11  2  0
 12 11  1  0
 13  2  1  0
 13 21  1  0
 14 13  2  0
 16 15  1  0
 17 16  2  0
 18 16  1  0
 19 18  1  0
 20 21  1  0
 20 19  1  6
 22 20  1  0
 23 22  2  0
 24 22  1  0
 25 24  1  0
 25 33  1  0
 25 26  1  1
 27 26  1  0
 28 27  2  0
 29 28  1  0
 30 29  2  0
 30 31  1  0
 31 32  2  0
 32 27  1  0
 33 35  1  0
 34 33  2  0
M  END
$$$$
