WQF.pdb
     RDKit          3D

 35 37  0  0  1  0  0  0  0  0999 V2000
    6.7295  -18.8555   24.8168 N   0  0  0  0  0  0  0  0  0  0  0  0
    7.2328  -18.2325   23.5805 C   0  0  1  0  0  0  0  0  0  0  0  0
    6.4788  -16.9877   23.3167 C   0  0  0  0  0  0  0  0  0  0  0  0
    6.4709  -15.9733   24.3723 C   0  0  0  0  0  0  0  0  0  0  0  0
    5.9738  -16.1970   25.6590 C   0  0  0  0  0  0  0  0  0  0  0  0
    6.1691  -15.0816   26.3695 N   0  0  0  0  0  0  0  0  0  0  0  0
    6.7668  -14.1604   25.5918 C   0  0  0  0  0  0  0  0  0  0  0  0
    7.1498  -12.8725   25.8782 C   0  0  0  0  0  0  0  0  0  0  0  0
    7.7373  -12.0698   24.9424 C   0  0  0  0  0  0  0  0  0  0  0  0
    7.9345  -12.5970   23.6925 C   0  0  0  0  0  0  0  0  0  0  0  0
    7.5542  -13.8878   23.3959 C   0  0  0  0  0  0  0  0  0  0  0  0
    6.9613  -14.7066   24.3355 C   0  0  0  0  0  0  0  0  0  0  0  0
    8.7051  -18.0984   23.5793 C   0  0  0  0  0  0  0  0  0  0  0  0
    9.3742  -18.6811   24.4651 O   0  0  0  0  0  0  0  0  0  0  0  0
   12.5091  -18.4353   19.8048 N   0  0  0  0  0  0  0  0  0  0  0  0
   11.2553  -18.1173   19.2327 C   0  0  0  0  0  0  0  0  0  0  0  0
   10.7928  -18.7515   18.2539 O   0  0  0  0  0  0  0  0  0  0  0  0
   10.4716  -17.0072   19.7972 C   0  0  0  0  0  0  0  0  0  0  0  0
   11.0287  -16.4204   21.0417 C   0  0  0  0  0  0  0  0  0  0  0  0
   10.7339  -17.1255   22.3225 C   0  0  2  0  0  0  0  0  0  0  0  0
    9.3723  -17.3308   22.6124 N   0  0  0  0  0  0  0  0  0  0  0  0
   11.5599  -16.5551   23.4212 C   0  0  0  0  0  0  0  0  0  0  0  0
   12.3101  -15.5783   23.3011 O   0  0  0  0  0  0  0  0  0  0  0  0
   11.4974  -17.1621   24.7237 N   0  0  0  0  0  0  0  0  0  0  0  0
   12.3241  -16.6734   25.8217 C   0  0  1  0  0  0  0  0  0  0  0  0
   12.2326  -15.1922   25.9723 C   0  0  0  0  0  0  0  0  0  0  0  0
   11.2360  -14.8516   27.0038 C   0  0  0  0  0  0  0  0  0  0  0  0
   10.4435  -13.7219   26.8667 C   0  0  0  0  0  0  0  0  0  0  0  0
    9.4880  -13.3713   27.7932 C   0  0  0  0  0  0  0  0  0  0  0  0
    9.3188  -14.1791   28.8963 C   0  0  0  0  0  0  0  0  0  0  0  0
   10.0746  -15.3134   29.0883 C   0  0  0  0  0  0  0  0  0  0  0  0
   11.0169  -15.6161   28.1280 C   0  0  0  0  0  0  0  0  0  0  0  0
   12.0523  -17.4421   27.0619 C   0  0  0  0  0  0  0  0  0  0  0  0
   12.6639  -17.2999   28.1464 O   0  0  0  0  0  0  0  0  0  0  0  0
   11.0397  -18.4255   27.0928 O   0  0  0  0  0  0  0  0  0  0  0  0
  2  1  1  1
  2  3  1  0
  4 12  1  0
  4  3  1  0
  5  4  2  0
  6  5  1  0
  6  7  1  0
  7 12  2  0
  8  7  1  0
  8  9  2  0
  9 10  1  0
 10 11  2  0
 12 11  1  0
 13  2  1  0
 13 21  1  0
 14 13  2  0
 16 15  1  0
 17 16  2  0
 18 16  1  0
 19 18  1  0
 20 21  1  0
 20 19  1  6
 22 20  1  0
 23 22  2  0
 24 22  1  0
 25 24  1  0
 25 33  1  0
 25 26  1  1
 27 26  1  0
 28 27  2  0
 29 28  1  0
 30 29  2  0
 30 31  1  0
 31 32  2  0
 32 27  1  0
 33 35  1  0
 34 33  2  0
M  END
$$$$
