WQF.pdb
     RDKit          3D

 35 37  0  0  1  0  0  0  0  0999 V2000
    8.6216  -17.9150   21.3036 N   0  0  0  0  0  0  0  0  0  0  0  0
    9.2935  -16.8817   22.1104 C   0  0  1  0  0  0  0  0  0  0  0  0
    8.2760  -16.0654   22.8074 C   0  0  0  0  0  0  0  0  0  0  0  0
    7.4505  -15.1791   21.9848 C   0  0  0  0  0  0  0  0  0  0  0  0
    6.0563  -15.2524   21.9247 C   0  0  0  0  0  0  0  0  0  0  0  0
    5.6322  -14.2703   21.1231 N   0  0  0  0  0  0  0  0  0  0  0  0
    6.6939  -13.5779   20.6714 C   0  0  0  0  0  0  0  0  0  0  0  0
    6.7528  -12.5007   19.8207 C   0  0  0  0  0  0  0  0  0  0  0  0
    7.9405  -11.9323   19.4582 C   0  0  0  0  0  0  0  0  0  0  0  0
    9.0861  -12.4781   19.9765 C   0  0  0  0  0  0  0  0  0  0  0  0
    9.0371  -13.5581   20.8308 C   0  0  0  0  0  0  0  0  0  0  0  0
    7.8416  -14.1381   21.2039 C   0  0  0  0  0  0  0  0  0  0  0  0
   10.3570  -17.4445   22.9693 C   0  0  0  0  0  0  0  0  0  0  0  0
   10.0717  -18.3585   23.7786 O   0  0  0  0  0  0  0  0  0  0  0  0
   14.3001  -18.9179   20.8596 N   0  0  0  0  0  0  0  0  0  0  0  0
   14.9323  -18.1179   21.8397 C   0  0  0  0  0  0  0  0  0  0  0  0
   15.8363  -18.5702   22.5830 O   0  0  0  0  0  0  0  0  0  0  0  0
   14.5153  -16.7157   21.9974 C   0  0  0  0  0  0  0  0  0  0  0  0
   14.0158  -16.3621   23.3498 C   0  0  0  0  0  0  0  0  0  0  0  0
   12.7566  -17.0175   23.8073 C   0  0  2  0  0  0  0  0  0  0  0  0
   11.6788  -16.9774   22.9036 N   0  0  0  0  0  0  0  0  0  0  0  0
   12.4532  -16.6184   25.2085 C   0  0  0  0  0  0  0  0  0  0  0  0
   12.3063  -15.4503   25.5897 O   0  0  0  0  0  0  0  0  0  0  0  0
   12.3134  -17.6436   26.2077 N   0  0  0  0  0  0  0  0  0  0  0  0
   11.4072  -17.4737   27.3381 C   0  0  1  0  0  0  0  0  0  0  0  0
   10.0242  -17.1298   26.8973 C   0  0  0  0  0  0  0  0  0  0  0  0
    9.7675  -15.6951   27.1186 C   0  0  0  0  0  0  0  0  0  0  0  0
    8.8912  -15.0047   26.2949 C   0  0  0  0  0  0  0  0  0  0  0  0
    8.6058  -13.6699   26.4713 C   0  0  0  0  0  0  0  0  0  0  0  0
    9.2184  -13.0014   27.5085 C   0  0  0  0  0  0  0  0  0  0  0  0
   10.0974  -13.6316   28.3599 C   0  0  0  0  0  0  0  0  0  0  0  0
   10.3461  -14.9695   28.1360 C   0  0  0  0  0  0  0  0  0  0  0  0
   11.4956  -18.6356   28.2572 C   0  0  0  0  0  0  0  0  0  0  0  0
   12.0196  -19.7387   27.9758 O   0  0  0  0  0  0  0  0  0  0  0  0
   10.9690  -18.5617   29.5650 O   0  0  0  0  0  0  0  0  0  0  0  0
  2  1  1  1
  2  3  1  0
  4 12  1  0
  4  3  1  0
  5  4  2  0
  6  5  1  0
  6  7  1  0
  7 12  2  0
  8  7  1  0
  8  9  2  0
  9 10  1  0
 10 11  2  0
 12 11  1  0
 13  2  1  0
 13 21  1  0
 14 13  2  0
 16 15  1  0
 17 16  2  0
 18 16  1  0
 19 18  1  0
 20 21  1  0
 20 19  1  6
 22 20  1  0
 23 22  2  0
 24 22  1  0
 25 24  1  0
 25 33  1  0
 25 26  1  6
 27 26  1  0
 28 27  2  0
 29 28  1  0
 30 29  2  0
 30 31  1  0
 31 32  2  0
 32 27  1  0
 33 35  1  0
 34 33  2  0
M  END
$$$$
