HHV.pdb
     RDKit          3D

 28 29  0  0  1  0  0  0  0  0999 V2000
   12.2784  -16.7636   19.9414 N   0  0  0  0  0  0  0  0  0  0  0  0
   11.7326  -17.4317   21.0957 C   0  0  1  0  0  0  0  0  0  0  0  0
   12.6874  -18.4463   21.6833 C   0  0  0  0  0  0  0  0  0  0  0  0
   12.6063  -19.6631   20.8389 C   0  0  0  0  0  0  0  0  0  0  0  0
   11.4543  -20.2938   20.4514 C   0  0  0  0  0  0  0  0  0  0  0  0
   11.7319  -21.3598   19.6959 N   0  0  0  0  0  0  0  0  0  0  0  0
   13.0684  -21.4099   19.6005 C   0  0  0  0  0  0  0  0  0  0  0  0
   13.6135  -20.3846   20.2905 N   0  0  0  0  0  0  0  0  0  0  0  0
   11.2518  -16.4575   22.1105 C   0  0  0  0  0  0  0  0  0  0  0  0
   11.9340  -15.4289   22.3497 O   0  0  0  0  0  0  0  0  0  0  0  0
   10.0390  -16.6657   22.8139 N   0  0  0  0  0  0  0  0  0  0  0  0
    9.5171  -15.5938   23.6882 C   0  0  1  0  0  0  0  0  0  0  0  0
    8.0901  -15.3223   23.3284 C   0  0  0  0  0  0  0  0  0  0  0  0
    7.8437  -14.7540   22.0021 C   0  0  0  0  0  0  0  0  0  0  0  0
    7.1221  -15.4070   20.9959 C   0  0  0  0  0  0  0  0  0  0  0  0
    7.0731  -14.6296   19.9072 N   0  0  0  0  0  0  0  0  0  0  0  0
    7.7389  -13.5000   20.1811 C   0  0  0  0  0  0  0  0  0  0  0  0
    8.1989  -13.5842   21.4441 N   0  0  0  0  0  0  0  0  0  0  0  0
    9.7522  -15.9410   25.0975 C   0  0  0  0  0  0  0  0  0  0  0  0
    9.9130  -17.1715   25.4517 O   0  0  0  0  0  0  0  0  0  0  0  0
   11.0225  -13.1878   27.8997 C   0  0  0  0  0  0  0  0  0  0  0  0
    9.9848  -14.1559   28.3614 C   0  0  1  0  0  0  0  0  0  0  0  0
    8.6090  -13.5827   28.2642 C   0  0  0  0  0  0  0  0  0  0  0  0
   10.0983  -15.4285   27.5308 C   0  0  2  0  0  0  0  0  0  0  0  0
    9.8313  -15.0219   26.1686 N   0  0  0  0  0  0  0  0  0  0  0  0
    9.1901  -16.4543   28.0534 C   0  0  0  0  0  0  0  0  0  0  0  0
    9.3667  -17.0845   29.1123 O   0  0  0  0  0  0  0  0  0  0  0  0
    8.0489  -16.7137   27.2700 O   0  0  0  0  0  0  0  0  0  0  0  0
  2  9  1  0
  2  1  1  6
  3  2  1  0
  4  3  1  0
  5  4  2  0
  6  7  1  0
  6  5  1  0
  7  8  2  0
  8  4  1  0
  9 11  1  0
 10  9  2  0
 11 12  1  0
 12 13  1  1
 13 14  1  0
 14 18  1  0
 15 14  2  0
 15 16  1  0
 16 17  1  0
 18 17  2  0
 19 12  1  0
 19 20  2  0
 22 21  1  6
 22 24  1  0
 23 22  1  0
 24 26  1  0
 24 25  1  6
 25 19  1  0
 26 28  1  0
 27 26  2  0
M  END
$$$$
