HHV.pdb
     RDKit          3D

 28 29  0  0  1  0  0  0  0  0999 V2000
   12.1536  -16.6787   20.1820 N   0  0  0  0  0  0  0  0  0  0  0  0
   11.5075  -17.0326   21.4204 C   0  0  1  0  0  0  0  0  0  0  0  0
   12.4696  -17.6185   22.4292 C   0  0  0  0  0  0  0  0  0  0  0  0
   12.4387  -19.0916   22.2583 C   0  0  0  0  0  0  0  0  0  0  0  0
   11.6889  -19.7758   21.3391 C   0  0  0  0  0  0  0  0  0  0  0  0
   11.8923  -21.0912   21.4503 N   0  0  0  0  0  0  0  0  0  0  0  0
   12.7767  -21.2477   22.4458 C   0  0  0  0  0  0  0  0  0  0  0  0
   13.1180  -20.0405   22.9465 N   0  0  0  0  0  0  0  0  0  0  0  0
   10.7356  -15.8901   21.9764 C   0  0  0  0  0  0  0  0  0  0  0  0
   11.2918  -14.7687   22.0931 O   0  0  0  0  0  0  0  0  0  0  0  0
    9.3845  -16.0405   22.3775 N   0  0  0  0  0  0  0  0  0  0  0  0
    8.6203  -14.8493   22.8049 C   0  0  1  0  0  0  0  0  0  0  0  0
    7.3713  -14.7516   21.9864 C   0  0  0  0  0  0  0  0  0  0  0  0
    7.5404  -14.4607   20.5618 C   0  0  0  0  0  0  0  0  0  0  0  0
    7.2150  -15.3590   19.5386 C   0  0  0  0  0  0  0  0  0  0  0  0
    7.4839  -14.7994   18.3526 N   0  0  0  0  0  0  0  0  0  0  0  0
    7.9709  -13.5725   18.5805 C   0  0  0  0  0  0  0  0  0  0  0  0
    8.0011  -13.3778   19.9128 N   0  0  0  0  0  0  0  0  0  0  0  0
    8.4139  -14.8848   24.2602 C   0  0  0  0  0  0  0  0  0  0  0  0
    8.7119  -15.9409   24.9392 O   0  0  0  0  0  0  0  0  0  0  0  0
    7.6866  -11.4801   26.4382 C   0  0  0  0  0  0  0  0  0  0  0  0
    6.9242  -12.6882   26.8699 C   0  0  1  0  0  0  0  0  0  0  0  0
    5.5537  -12.7204   26.2771 C   0  0  0  0  0  0  0  0  0  0  0  0
    7.7117  -13.9315   26.4742 C   0  0  2  0  0  0  0  0  0  0  0  0
    7.9000  -13.8264   25.0438 N   0  0  0  0  0  0  0  0  0  0  0  0
    7.0026  -15.1380   26.9120 C   0  0  0  0  0  0  0  0  0  0  0  0
    6.9475  -15.5400   28.0888 O   0  0  0  0  0  0  0  0  0  0  0  0
    6.3512  -15.8640   25.8961 O   0  0  0  0  0  0  0  0  0  0  0  0
  2  9  1  0
  2  1  1  6
  3  2  1  0
  4  3  1  0
  5  4  2  0
  6  7  1  0
  6  5  1  0
  7  8  2  0
  8  4  1  0
  9 11  1  0
 10  9  2  0
 11 12  1  0
 12 13  1  6
 13 14  1  0
 14 18  1  0
 15 14  2  0
 15 16  1  0
 16 17  1  0
 18 17  2  0
 19 12  1  0
 19 20  2  0
 22 21  1  6
 22 24  1  0
 23 22  1  0
 24 26  1  0
 24 25  1  6
 25 19  1  0
 26 28  1  0
 27 26  2  0
M  END
$$$$
