HHV.pdb
     RDKit          3D

 28 29  0  0  1  0  0  0  0  0999 V2000
    7.6133  -16.8665   19.7324 N   0  0  0  0  0  0  0  0  0  0  0  0
    7.7313  -15.6456   20.4887 C   0  0  1  0  0  0  0  0  0  0  0  0
    7.0109  -14.4875   19.8357 C   0  0  0  0  0  0  0  0  0  0  0  0
    7.6612  -14.2522   18.5234 C   0  0  0  0  0  0  0  0  0  0  0  0
    8.5660  -13.2631   18.2438 C   0  0  0  0  0  0  0  0  0  0  0  0
    8.9574  -13.3293   16.9684 N   0  0  0  0  0  0  0  0  0  0  0  0
    8.2989  -14.3662   16.4309 C   0  0  0  0  0  0  0  0  0  0  0  0
    7.5071  -14.9369   17.3646 N   0  0  0  0  0  0  0  0  0  0  0  0
    7.3173  -15.8405   21.9032 C   0  0  0  0  0  0  0  0  0  0  0  0
    6.1016  -15.7446   22.2087 O   0  0  0  0  0  0  0  0  0  0  0  0
    8.2667  -16.1323   22.9143 N   0  0  0  0  0  0  0  0  0  0  0  0
    7.8026  -16.3477   24.3014 C   0  0  1  0  0  0  0  0  0  0  0  0
    8.1224  -17.7513   24.7102 C   0  0  0  0  0  0  0  0  0  0  0  0
    7.2691  -18.8062   24.1608 C   0  0  0  0  0  0  0  0  0  0  0  0
    6.1697  -18.5652   23.3284 C   0  0  0  0  0  0  0  0  0  0  0  0
    5.5989  -19.7297   22.9964 N   0  0  0  0  0  0  0  0  0  0  0  0
    6.2950  -20.7095   23.5878 C   0  0  0  0  0  0  0  0  0  0  0  0
    7.2982  -20.1439   24.2862 N   0  0  0  0  0  0  0  0  0  0  0  0
    8.3478  -15.3007   25.1780 C   0  0  0  0  0  0  0  0  0  0  0  0
    9.6078  -15.0226   25.1621 O   0  0  0  0  0  0  0  0  0  0  0  0
    7.1121  -11.8334   25.7522 C   0  0  0  0  0  0  0  0  0  0  0  0
    7.2747  -12.4155   27.1168 C   0  0  1  0  0  0  0  0  0  0  0  0
    5.9635  -12.8176   27.7082 C   0  0  0  0  0  0  0  0  0  0  0  0
    8.2160  -13.6109   27.0302 C   0  0  2  0  0  0  0  0  0  0  0  0
    7.5997  -14.5161   26.0851 N   0  0  0  0  0  0  0  0  0  0  0  0
    8.4376  -14.1759   28.3651 C   0  0  0  0  0  0  0  0  0  0  0  0
    8.0343  -15.2931   28.7377 O   0  0  0  0  0  0  0  0  0  0  0  0
    9.1630  -13.3633   29.2576 O   0  0  0  0  0  0  0  0  0  0  0  0
  2  9  1  0
  2  1  1  6
  3  2  1  0
  4  3  1  0
  5  4  2  0
  6  7  1  0
  6  5  1  0
  7  8  2  0
  8  4  1  0
  9 11  1  0
 10  9  2  0
 11 12  1  0
 12 13  1  1
 13 14  1  0
 14 18  1  0
 15 14  2  0
 15 16  1  0
 16 17  1  0
 18 17  2  0
 19 12  1  0
 19 20  2  0
 22 21  1  6
 22 24  1  0
 23 22  1  0
 24 26  1  0
 24 25  1  6
 25 19  1  0
 26 28  1  0
 27 26  2  0
M  END
$$$$
