HHV.pdb
     RDKit          3D

 28 29  0  0  1  0  0  0  0  0999 V2000
    7.7884  -16.8607   19.1348 N   0  0  0  0  0  0  0  0  0  0  0  0
    7.6315  -15.7261   20.0092 C   0  0  1  0  0  0  0  0  0  0  0  0
    6.6664  -14.7000   19.4596 C   0  0  0  0  0  0  0  0  0  0  0  0
    7.2376  -14.2015   18.1846 C   0  0  0  0  0  0  0  0  0  0  0  0
    8.1243  -13.1660   18.0548 C   0  0  0  0  0  0  0  0  0  0  0  0
    8.4392  -12.9734   16.7711 N   0  0  0  0  0  0  0  0  0  0  0  0
    7.7499  -13.8909   16.0776 C   0  0  0  0  0  0  0  0  0  0  0  0
    7.0149  -14.6447   16.9239 N   0  0  0  0  0  0  0  0  0  0  0  0
    7.2776  -16.1490   21.3898 C   0  0  0  0  0  0  0  0  0  0  0  0
    6.4519  -17.0823   21.5563 O   0  0  0  0  0  0  0  0  0  0  0  0
    7.8530  -15.5203   22.5224 N   0  0  0  0  0  0  0  0  0  0  0  0
    7.5284  -16.0264   23.8730 C   0  0  1  0  0  0  0  0  0  0  0  0
    7.7741  -17.5020   23.9130 C   0  0  0  0  0  0  0  0  0  0  0  0
    7.5482  -18.1711   25.1952 C   0  0  0  0  0  0  0  0  0  0  0  0
    7.1680  -17.5046   26.3662 C   0  0  0  0  0  0  0  0  0  0  0  0
    7.0424  -18.3905   27.3619 N   0  0  0  0  0  0  0  0  0  0  0  0
    7.3291  -19.6027   26.8693 C   0  0  0  0  0  0  0  0  0  0  0  0
    7.6322  -19.4604   25.5647 N   0  0  0  0  0  0  0  0  0  0  0  0
    8.2517  -15.2437   24.8860 C   0  0  0  0  0  0  0  0  0  0  0  0
    9.5410  -15.2660   24.9346 O   0  0  0  0  0  0  0  0  0  0  0  0
    7.8027  -11.6161   25.5870 C   0  0  0  0  0  0  0  0  0  0  0  0
    7.7200  -12.2993   26.9113 C   0  0  1  0  0  0  0  0  0  0  0  0
    6.3054  -12.4793   27.3553 C   0  0  0  0  0  0  0  0  0  0  0  0
    8.4293  -13.6446   26.8134 C   0  0  2  0  0  0  0  0  0  0  0  0
    7.6561  -14.4172   25.8661 N   0  0  0  0  0  0  0  0  0  0  0  0
    8.5498  -14.2490   28.1439 C   0  0  0  0  0  0  0  0  0  0  0  0
    7.9238  -15.2553   28.5246 O   0  0  0  0  0  0  0  0  0  0  0  0
    9.4491  -13.6140   29.0221 O   0  0  0  0  0  0  0  0  0  0  0  0
  2  9  1  0
  2  1  1  6
  3  2  1  0
  4  3  1  0
  5  4  2  0
  6  7  1  0
  6  5  1  0
  7  8  2  0
  8  4  1  0
  9 11  1  0
 10  9  2  0
 11 12  1  0
 12 13  1  6
 13 14  1  0
 14 18  1  0
 15 14  2  0
 15 16  1  0
 16 17  1  0
 18 17  2  0
 19 12  1  0
 19 20  2  0
 22 21  1  6
 22 24  1  0
 23 22  1  0
 24 26  1  0
 24 25  1  6
 25 19  1  0
 26 28  1  0
 27 26  2  0
M  END
$$$$
