HHV.pdb
     RDKit          3D

 28 29  0  0  1  0  0  0  0  0999 V2000
    7.5112  -16.8395   18.9476 N   0  0  0  0  0  0  0  0  0  0  0  0
    7.7437  -15.7634   19.8774 C   0  0  1  0  0  0  0  0  0  0  0  0
    7.0900  -14.4709   19.4430 C   0  0  0  0  0  0  0  0  0  0  0  0
    7.7875  -14.0199   18.2141 C   0  0  0  0  0  0  0  0  0  0  0  0
    8.6802  -12.9845   18.1339 C   0  0  0  0  0  0  0  0  0  0  0  0
    9.1244  -12.8411   16.8824 N   0  0  0  0  0  0  0  0  0  0  0  0
    8.5119  -13.7900   16.1596 C   0  0  0  0  0  0  0  0  0  0  0  0
    7.6961  -14.5143   16.9560 N   0  0  0  0  0  0  0  0  0  0  0  0
    7.3626  -16.1495   21.2616 C   0  0  0  0  0  0  0  0  0  0  0  0
    6.1756  -16.4857   21.5033 O   0  0  0  0  0  0  0  0  0  0  0  0
    8.3117  -16.1459   22.3143 N   0  0  0  0  0  0  0  0  0  0  0  0
    7.8707  -16.4750   23.6865 C   0  0  1  0  0  0  0  0  0  0  0  0
    8.4021  -17.8233   24.0594 C   0  0  0  0  0  0  0  0  0  0  0  0
    8.2440  -18.2281   25.4572 C   0  0  0  0  0  0  0  0  0  0  0  0
    9.3150  -18.4372   26.3343 C   0  0  0  0  0  0  0  0  0  0  0  0
    8.8438  -18.7977   27.5343 N   0  0  0  0  0  0  0  0  0  0  0  0
    7.5069  -18.8269   27.4567 C   0  0  0  0  0  0  0  0  0  0  0  0
    7.1554  -18.4827   26.2029 N   0  0  0  0  0  0  0  0  0  0  0  0
    8.2340  -15.3836   24.6023 C   0  0  0  0  0  0  0  0  0  0  0  0
    9.4232  -14.8827   24.5865 O   0  0  0  0  0  0  0  0  0  0  0  0
    6.9509  -11.8489   27.7356 C   0  0  0  0  0  0  0  0  0  0  0  0
    6.6012  -12.8781   26.7130 C   0  0  1  0  0  0  0  0  0  0  0  0
    6.1452  -12.2566   25.4337 C   0  0  0  0  0  0  0  0  0  0  0  0
    7.8165  -13.7667   26.4772 C   0  0  2  0  0  0  0  0  0  0  0  0
    7.3729  -14.7843   25.5497 N   0  0  0  0  0  0  0  0  0  0  0  0
    8.3215  -14.2800   27.7546 C   0  0  0  0  0  0  0  0  0  0  0  0
    8.9434  -13.6034   28.5942 O   0  0  0  0  0  0  0  0  0  0  0  0
    8.0622  -15.6405   28.0095 O   0  0  0  0  0  0  0  0  0  0  0  0
  2  9  1  0
  2  1  1  6
  3  2  1  0
  4  3  1  0
  5  4  2  0
  6  7  1  0
  6  5  1  0
  7  8  2  0
  8  4  1  0
  9 11  1  0
 10  9  2  0
 11 12  1  0
 12 13  1  1
 13 14  1  0
 14 18  1  0
 15 14  2  0
 15 16  1  0
 16 17  1  0
 18 17  2  0
 19 12  1  0
 19 20  2  0
 22 21  1  1
 22 24  1  0
 23 22  1  0
 24 26  1  0
 24 25  1  6
 25 19  1  0
 26 28  1  0
 27 26  2  0
M  END
$$$$
