HHV.pdb
     RDKit          3D

 28 29  0  0  1  0  0  0  0  0999 V2000
    7.0933  -17.3243   19.4098 N   0  0  0  0  0  0  0  0  0  0  0  0
    7.2321  -16.1413   20.2207 C   0  0  1  0  0  0  0  0  0  0  0  0
    6.4196  -14.9795   19.6946 C   0  0  0  0  0  0  0  0  0  0  0  0
    7.3703  -14.0308   19.0651 C   0  0  0  0  0  0  0  0  0  0  0  0
    8.7224  -14.2124   18.9459 C   0  0  0  0  0  0  0  0  0  0  0  0
    9.2853  -13.1697   18.3294 N   0  0  0  0  0  0  0  0  0  0  0  0
    8.2873  -12.3179   18.0534 C   0  0  0  0  0  0  0  0  0  0  0  0
    7.1171  -12.8281   18.4949 N   0  0  0  0  0  0  0  0  0  0  0  0
    6.9455  -16.4264   21.6513 C   0  0  0  0  0  0  0  0  0  0  0  0
    5.7881  -16.7822   21.9894 O   0  0  0  0  0  0  0  0  0  0  0  0
    7.9521  -16.3051   22.6418 N   0  0  0  0  0  0  0  0  0  0  0  0
    7.6216  -16.6116   24.0499 C   0  0  1  0  0  0  0  0  0  0  0  0
    7.9650  -18.0407   24.3315 C   0  0  0  0  0  0  0  0  0  0  0  0
    7.8615  -18.4791   25.7243 C   0  0  0  0  0  0  0  0  0  0  0  0
    7.3964  -17.6663   26.7649 C   0  0  0  0  0  0  0  0  0  0  0  0
    7.4223  -18.3545   27.9129 N   0  0  0  0  0  0  0  0  0  0  0  0
    7.8882  -19.5813   27.6437 C   0  0  0  0  0  0  0  0  0  0  0  0
    8.1497  -19.6466   26.3241 N   0  0  0  0  0  0  0  0  0  0  0  0
    8.2592  -15.6280   24.9374 C   0  0  0  0  0  0  0  0  0  0  0  0
    9.5326  -15.4254   24.8844 O   0  0  0  0  0  0  0  0  0  0  0  0
    7.0810  -12.0778   25.6348 C   0  0  0  0  0  0  0  0  0  0  0  0
    7.3173  -12.7357   26.9534 C   0  0  1  0  0  0  0  0  0  0  0  0
    6.0436  -13.2096   27.5730 C   0  0  0  0  0  0  0  0  0  0  0  0
    8.2846  -13.8964   26.7552 C   0  0  2  0  0  0  0  0  0  0  0  0
    7.5918  -14.8297   25.8942 N   0  0  0  0  0  0  0  0  0  0  0  0
    8.6878  -14.4442   28.0543 C   0  0  0  0  0  0  0  0  0  0  0  0
    8.3738  -15.5725   28.4761 O   0  0  0  0  0  0  0  0  0  0  0  0
    9.4869  -13.6002   28.8496 O   0  0  0  0  0  0  0  0  0  0  0  0
  2  9  1  0
  2  1  1  6
  3  2  1  0
  4  3  1  0
  5  4  2  0
  6  7  1  0
  6  5  1  0
  7  8  2  0
  8  4  1  0
  9 11  1  0
 10  9  2  0
 11 12  1  0
 12 13  1  1
 13 14  1  0
 14 18  1  0
 15 14  2  0
 15 16  1  0
 16 17  1  0
 18 17  2  0
 19 12  1  0
 19 20  2  0
 22 21  1  6
 22 24  1  0
 23 22  1  0
 24 26  1  0
 24 25  1  6
 25 19  1  0
 26 28  1  0
 27 26  2  0
M  END
$$$$
