HHV.pdb
     RDKit          3D

 28 29  0  0  1  0  0  0  0  0999 V2000
    8.9933  -15.4083   19.7057 N   0  0  0  0  0  0  0  0  0  0  0  0
    7.8113  -14.6929   20.1149 C   0  0  1  0  0  0  0  0  0  0  0  0
    6.7336  -14.6996   19.0542 C   0  0  0  0  0  0  0  0  0  0  0  0
    7.3571  -14.2249   17.7947 C   0  0  0  0  0  0  0  0  0  0  0  0
    8.1364  -13.1072   17.6583 C   0  0  0  0  0  0  0  0  0  0  0  0
    8.5393  -12.9652   16.3927 N   0  0  0  0  0  0  0  0  0  0  0  0
    8.0143  -13.9978   15.7175 C   0  0  0  0  0  0  0  0  0  0  0  0
    7.2930  -14.7721   16.5569 N   0  0  0  0  0  0  0  0  0  0  0  0
    7.3110  -15.1766   21.4286 C   0  0  0  0  0  0  0  0  0  0  0  0
    6.2753  -14.6618   21.9216 O   0  0  0  0  0  0  0  0  0  0  0  0
    7.9790  -16.2070   22.1365 N   0  0  0  0  0  0  0  0  0  0  0  0
    7.5437  -16.5406   23.5094 C   0  0  1  0  0  0  0  0  0  0  0  0
    7.7591  -18.0021   23.7479 C   0  0  0  0  0  0  0  0  0  0  0  0
    7.5625  -18.4804   25.1173 C   0  0  0  0  0  0  0  0  0  0  0  0
    7.1732  -17.6587   26.1818 C   0  0  0  0  0  0  0  0  0  0  0  0
    7.0807  -18.3908   27.2986 N   0  0  0  0  0  0  0  0  0  0  0  0
    7.3975  -19.6544   26.9866 C   0  0  0  0  0  0  0  0  0  0  0  0
    7.6859  -19.6983   25.6717 N   0  0  0  0  0  0  0  0  0  0  0  0
    8.2017  -15.6455   24.4725 C   0  0  0  0  0  0  0  0  0  0  0  0
    9.4839  -15.4992   24.4617 O   0  0  0  0  0  0  0  0  0  0  0  0
    7.4222  -12.1248   25.1656 C   0  0  0  0  0  0  0  0  0  0  0  0
    7.4620  -12.7643   26.5134 C   0  0  1  0  0  0  0  0  0  0  0  0
    6.0906  -13.0270   27.0435 C   0  0  0  0  0  0  0  0  0  0  0  0
    8.2598  -14.0592   26.4177 C   0  0  2  0  0  0  0  0  0  0  0  0
    7.5464  -14.8790   25.4631 N   0  0  0  0  0  0  0  0  0  0  0  0
    8.4108  -14.6579   27.7478 C   0  0  0  0  0  0  0  0  0  0  0  0
    7.8577  -15.7095   28.1187 O   0  0  0  0  0  0  0  0  0  0  0  0
    9.2507  -13.9606   28.6376 O   0  0  0  0  0  0  0  0  0  0  0  0
  2  9  1  0
  2  1  1  6
  3  2  1  0
  4  3  1  0
  5  4  2  0
  6  7  1  0
  6  5  1  0
  7  8  2  0
  8  4  1  0
  9 11  1  0
 10  9  2  0
 11 12  1  0
 12 13  1  1
 13 14  1  0
 14 18  1  0
 15 14  2  0
 15 16  1  0
 16 17  1  0
 18 17  2  0
 19 12  1  0
 19 20  2  0
 22 21  1  6
 22 24  1  0
 23 22  1  0
 24 26  1  0
 24 25  1  6
 25 19  1  0
 26 28  1  0
 27 26  2  0
M  END
$$$$
