HHV.pdb
     RDKit          3D

 28 29  0  0  1  0  0  0  0  0999 V2000
   11.0150  -17.4979   20.7913 N   0  0  0  0  0  0  0  0  0  0  0  0
    9.7283  -16.8944   20.5528 C   0  0  1  0  0  0  0  0  0  0  0  0
    8.9473  -17.6040   19.4697 C   0  0  0  0  0  0  0  0  0  0  0  0
    9.7804  -17.5795   18.2427 C   0  0  0  0  0  0  0  0  0  0  0  0
   11.0798  -17.1545   18.1651 C   0  0  0  0  0  0  0  0  0  0  0  0
   11.5371  -17.2626   16.9147 N   0  0  0  0  0  0  0  0  0  0  0  0
   10.5241  -17.7593   16.1902 C   0  0  0  0  0  0  0  0  0  0  0  0
    9.4495  -17.9570   16.9843 N   0  0  0  0  0  0  0  0  0  0  0  0
    8.9496  -16.7597   21.8120 C   0  0  0  0  0  0  0  0  0  0  0  0
    7.7761  -16.3108   21.7664 O   0  0  0  0  0  0  0  0  0  0  0  0
    9.5044  -17.1276   23.0634 N   0  0  0  0  0  0  0  0  0  0  0  0
    8.6939  -16.9656   24.2892 C   0  0  1  0  0  0  0  0  0  0  0  0
    8.8377  -18.1921   25.1345 C   0  0  0  0  0  0  0  0  0  0  0  0
    8.0612  -19.3646   24.7285 C   0  0  0  0  0  0  0  0  0  0  0  0
    7.1726  -19.3749   23.6468 C   0  0  0  0  0  0  0  0  0  0  0  0
    6.6210  -20.5895   23.5352 N   0  0  0  0  0  0  0  0  0  0  0  0
    7.1257  -21.3587   24.5088 C   0  0  0  0  0  0  0  0  0  0  0  0
    7.9914  -20.6128   25.2217 N   0  0  0  0  0  0  0  0  0  0  0  0
    9.0434  -15.7021   24.9548 C   0  0  0  0  0  0  0  0  0  0  0  0
   10.2640  -15.2833   24.9677 O   0  0  0  0  0  0  0  0  0  0  0  0
    7.2526  -12.3578   24.8684 C   0  0  0  0  0  0  0  0  0  0  0  0
    7.4517  -12.6905   26.3096 C   0  0  1  0  0  0  0  0  0  0  0  0
    6.1962  -13.1968   26.9406 C   0  0  0  0  0  0  0  0  0  0  0  0
    8.5667  -13.7230   26.4244 C   0  0  2  0  0  0  0  0  0  0  0  0
    8.1364  -14.8428   25.6161 N   0  0  0  0  0  0  0  0  0  0  0  0
    8.8140  -14.0436   27.8337 C   0  0  0  0  0  0  0  0  0  0  0  0
    8.4975  -15.1148   28.3831 O   0  0  0  0  0  0  0  0  0  0  0  0
    9.4578  -13.0396   28.5827 O   0  0  0  0  0  0  0  0  0  0  0  0
  2  9  1  0
  2  1  1  1
  3  2  1  0
  4  3  1  0
  5  4  2  0
  6  7  1  0
  6  5  1  0
  7  8  2  0
  8  4  1  0
  9 11  1  0
 10  9  2  0
 11 12  1  0
 12 13  1  1
 13 14  1  0
 14 18  1  0
 15 14  2  0
 15 16  1  0
 16 17  1  0
 18 17  2  0
 19 12  1  0
 19 20  2  0
 22 21  1  6
 22 24  1  0
 23 22  1  0
 24 26  1  0
 24 25  1  6
 25 19  1  0
 26 28  1  0
 27 26  2  0
M  END
$$$$
