HHV.pdb
     RDKit          3D

 28 29  0  0  1  0  0  0  0  0999 V2000
    6.9720  -17.0124   19.1006 N   0  0  0  0  0  0  0  0  0  0  0  0
    7.3684  -15.9072   19.9359 C   0  0  1  0  0  0  0  0  0  0  0  0
    6.8499  -14.5810   19.4269 C   0  0  0  0  0  0  0  0  0  0  0  0
    7.6656  -14.2184   18.2423 C   0  0  0  0  0  0  0  0  0  0  0  0
    8.7293  -14.9294   17.7541 C   0  0  0  0  0  0  0  0  0  0  0  0
    9.2426  -14.3293   16.6768 N   0  0  0  0  0  0  0  0  0  0  0  0
    8.5026  -13.2293   16.4761 C   0  0  0  0  0  0  0  0  0  0  0  0
    7.5400  -13.1488   17.4202 N   0  0  0  0  0  0  0  0  0  0  0  0
    7.0071  -16.1442   21.3584 C   0  0  0  0  0  0  0  0  0  0  0  0
    5.7951  -16.2320   21.6804 O   0  0  0  0  0  0  0  0  0  0  0  0
    8.0028  -16.2732   22.3589 N   0  0  0  0  0  0  0  0  0  0  0  0
    7.5959  -16.5575   23.7515 C   0  0  1  0  0  0  0  0  0  0  0  0
    7.8711  -17.9966   24.0559 C   0  0  0  0  0  0  0  0  0  0  0  0
    7.6906  -18.4203   25.4454 C   0  0  0  0  0  0  0  0  0  0  0  0
    7.2235  -17.5794   26.4625 C   0  0  0  0  0  0  0  0  0  0  0  0
    7.1700  -18.2604   27.6138 N   0  0  0  0  0  0  0  0  0  0  0  0
    7.5870  -19.5098   27.3695 C   0  0  0  0  0  0  0  0  0  0  0  0
    7.8981  -19.5962   26.0619 N   0  0  0  0  0  0  0  0  0  0  0  0
    8.2288  -15.5927   24.6628 C   0  0  0  0  0  0  0  0  0  0  0  0
    9.5021  -15.3875   24.6194 O   0  0  0  0  0  0  0  0  0  0  0  0
    7.1350  -12.0959   25.3992 C   0  0  0  0  0  0  0  0  0  0  0  0
    7.3421  -12.7350   26.7318 C   0  0  1  0  0  0  0  0  0  0  0  0
    6.0484  -13.1317   27.3639 C   0  0  0  0  0  0  0  0  0  0  0  0
    8.2506  -13.9462   26.5581 C   0  0  2  0  0  0  0  0  0  0  0  0
    7.5565  -14.8162   25.6341 N   0  0  0  0  0  0  0  0  0  0  0  0
    8.5445  -14.5474   27.8629 C   0  0  0  0  0  0  0  0  0  0  0  0
    8.0969  -15.6400   28.2568 O   0  0  0  0  0  0  0  0  0  0  0  0
    9.3983  -13.8016   28.6985 O   0  0  0  0  0  0  0  0  0  0  0  0
  2  9  1  0
  2  1  1  6
  3  2  1  0
  4  3  1  0
  5  4  2  0
  6  7  1  0
  6  5  1  0
  7  8  2  0
  8  4  1  0
  9 11  1  0
 10  9  2  0
 11 12  1  0
 12 13  1  1
 13 14  1  0
 14 18  1  0
 15 14  2  0
 15 16  1  0
 16 17  1  0
 18 17  2  0
 19 12  1  0
 19 20  2  0
 22 21  1  6
 22 24  1  0
 23 22  1  0
 24 26  1  0
 24 25  1  6
 25 19  1  0
 26 28  1  0
 27 26  2  0
M  END
$$$$
