HHV.pdb
     RDKit          3D

 28 29  0  0  1  0  0  0  0  0999 V2000
    8.9389  -17.6373   19.4430 N   0  0  0  0  0  0  0  0  0  0  0  0
    8.5979  -16.5013   20.2611 C   0  0  1  0  0  0  0  0  0  0  0  0
    7.3475  -15.7977   19.7837 C   0  0  0  0  0  0  0  0  0  0  0  0
    7.7747  -14.5196   19.1638 C   0  0  0  0  0  0  0  0  0  0  0  0
    9.0688  -14.1065   18.9908 C   0  0  0  0  0  0  0  0  0  0  0  0
    9.1061  -12.9084   18.4012 N   0  0  0  0  0  0  0  0  0  0  0  0
    7.8290  -12.5548   18.1968 C   0  0  0  0  0  0  0  0  0  0  0  0
    7.0083  -13.5247   18.6554 N   0  0  0  0  0  0  0  0  0  0  0  0
    8.5216  -16.8706   21.6992 C   0  0  0  0  0  0  0  0  0  0  0  0
    7.4944  -17.4510   22.1332 O   0  0  0  0  0  0  0  0  0  0  0  0
    9.5848  -16.5811   22.5907 N   0  0  0  0  0  0  0  0  0  0  0  0
    9.4059  -16.8354   24.0361 C   0  0  1  0  0  0  0  0  0  0  0  0
   10.4003  -17.8630   24.4773 C   0  0  0  0  0  0  0  0  0  0  0  0
   10.1372  -19.2462   24.0770 C   0  0  0  0  0  0  0  0  0  0  0  0
   10.6533  -19.8333   22.9156 C   0  0  0  0  0  0  0  0  0  0  0  0
   10.2322  -21.1013   22.8328 N   0  0  0  0  0  0  0  0  0  0  0  0
    9.4635  -21.3474   23.9018 C   0  0  0  0  0  0  0  0  0  0  0  0
    9.4123  -20.2251   24.6446 N   0  0  0  0  0  0  0  0  0  0  0  0
    9.4488  -15.5650   24.7750 C   0  0  0  0  0  0  0  0  0  0  0  0
   10.4922  -14.8078   24.7176 O   0  0  0  0  0  0  0  0  0  0  0  0
    7.3512  -12.0477   27.4414 C   0  0  0  0  0  0  0  0  0  0  0  0
    7.2355  -13.2469   26.5606 C   0  0  1  0  0  0  0  0  0  0  0  0
    6.7367  -12.8891   25.1990 C   0  0  0  0  0  0  0  0  0  0  0  0
    8.5979  -13.9244   26.4744 C   0  0  2  0  0  0  0  0  0  0  0  0
    8.4108  -15.0490   25.5841 N   0  0  0  0  0  0  0  0  0  0  0  0
    9.0712  -14.2774   27.8167 C   0  0  0  0  0  0  0  0  0  0  0  0
    9.0186  -15.4193   28.3093 O   0  0  0  0  0  0  0  0  0  0  0  0
    9.6172  -13.2186   28.5678 O   0  0  0  0  0  0  0  0  0  0  0  0
  2  9  1  0
  2  1  1  6
  3  2  1  0
  4  3  1  0
  5  4  2  0
  6  7  1  0
  6  5  1  0
  7  8  2  0
  8  4  1  0
  9 11  1  0
 10  9  2  0
 11 12  1  0
 12 13  1  1
 13 14  1  0
 14 18  1  0
 15 14  2  0
 15 16  1  0
 16 17  1  0
 18 17  2  0
 19 12  1  0
 19 20  2  0
 22 21  1  1
 22 24  1  0
 23 22  1  0
 24 26  1  0
 24 25  1  6
 25 19  1  0
 26 28  1  0
 27 26  2  0
M  END
$$$$
