HHV.pdb
     RDKit          3D

 28 29  0  0  1  0  0  0  0  0999 V2000
   10.9833  -18.4051   20.8910 N   0  0  0  0  0  0  0  0  0  0  0  0
   11.8634  -17.3437   21.3096 C   0  0  1  0  0  0  0  0  0  0  0  0
   12.6448  -16.7510   20.1587 C   0  0  0  0  0  0  0  0  0  0  0  0
   13.4273  -17.8532   19.5480 C   0  0  0  0  0  0  0  0  0  0  0  0
   14.7569  -18.1042   19.7591 C   0  0  0  0  0  0  0  0  0  0  0  0
   15.1522  -19.1704   19.0584 N   0  0  0  0  0  0  0  0  0  0  0  0
   14.0692  -19.6026   18.3964 C   0  0  0  0  0  0  0  0  0  0  0  0
   13.0130  -18.8114   18.6844 N   0  0  0  0  0  0  0  0  0  0  0  0
   11.1339  -16.3078   22.0874 C   0  0  0  0  0  0  0  0  0  0  0  0
   11.6629  -15.1806   22.2609 O   0  0  0  0  0  0  0  0  0  0  0  0
    9.8534  -16.5663   22.6373 N   0  0  0  0  0  0  0  0  0  0  0  0
    9.3226  -15.6698   23.6863 C   0  0  1  0  0  0  0  0  0  0  0  0
    7.8834  -16.0007   23.9283 C   0  0  0  0  0  0  0  0  0  0  0  0
    7.1398  -15.0955   24.8061 C   0  0  0  0  0  0  0  0  0  0  0  0
    7.1023  -13.7058   24.6415 C   0  0  0  0  0  0  0  0  0  0  0  0
    6.3409  -13.1643   25.6002 N   0  0  0  0  0  0  0  0  0  0  0  0
    5.8887  -14.1597   26.3742 C   0  0  0  0  0  0  0  0  0  0  0  0
    6.3748  -15.3180   25.8884 N   0  0  0  0  0  0  0  0  0  0  0  0
   10.1865  -15.7265   24.8747 C   0  0  0  0  0  0  0  0  0  0  0  0
   11.3767  -15.2287   24.8447 O   0  0  0  0  0  0  0  0  0  0  0  0
   10.0327  -14.1486   29.0756 C   0  0  0  0  0  0  0  0  0  0  0  0
    9.8525  -14.4777   27.6311 C   0  0  1  0  0  0  0  0  0  0  0  0
   10.5016  -13.4647   26.7462 C   0  0  0  0  0  0  0  0  0  0  0  0
   10.4240  -15.8662   27.3703 C   0  0  2  0  0  0  0  0  0  0  0  0
    9.8347  -16.2943   26.1205 N   0  0  0  0  0  0  0  0  0  0  0  0
   10.1501  -16.7466   28.5105 C   0  0  0  0  0  0  0  0  0  0  0  0
   10.8244  -16.7826   29.5562 O   0  0  0  0  0  0  0  0  0  0  0  0
    9.0352  -17.5955   28.3703 O   0  0  0  0  0  0  0  0  0  0  0  0
  2  9  1  0
  2  1  1  6
  3  2  1  0
  4  3  1  0
  5  4  2  0
  6  7  1  0
  6  5  1  0
  7  8  2  0
  8  4  1  0
  9 11  1  0
 10  9  2  0
 11 12  1  0
 12 13  1  1
 13 14  1  0
 14 18  1  0
 15 14  2  0
 15 16  1  0
 16 17  1  0
 18 17  2  0
 19 12  1  0
 19 20  2  0
 22 21  1  1
 22 24  1  0
 23 22  1  0
 24 26  1  0
 24 25  1  6
 25 19  1  0
 26 28  1  0
 27 26  2  0
M  END
$$$$
