HHV.pdb
     RDKit          3D

 28 29  0  0  1  0  0  0  0  0999 V2000
    9.4750  -18.3263   19.1408 N   0  0  0  0  0  0  0  0  0  0  0  0
    8.9271  -16.9944   19.0931 C   0  0  1  0  0  0  0  0  0  0  0  0
    8.3419  -16.6566   17.7403 C   0  0  0  0  0  0  0  0  0  0  0  0
    9.4465  -16.7377   16.7536 C   0  0  0  0  0  0  0  0  0  0  0  0
    9.3851  -17.3517   15.5311 C   0  0  0  0  0  0  0  0  0  0  0  0
   10.5520  -17.2431   14.8901 N   0  0  0  0  0  0  0  0  0  0  0  0
   11.3626  -16.5560   15.7077 C   0  0  0  0  0  0  0  0  0  0  0  0
   10.7041  -16.2420   16.8445 N   0  0  0  0  0  0  0  0  0  0  0  0
    7.9595  -16.7650   20.1981 C   0  0  0  0  0  0  0  0  0  0  0  0
    6.7746  -17.1662   20.0734 O   0  0  0  0  0  0  0  0  0  0  0  0
    8.3468  -16.1027   21.3899 N   0  0  0  0  0  0  0  0  0  0  0  0
    7.7537  -16.5242   22.6768 C   0  0  1  0  0  0  0  0  0  0  0  0
    7.9408  -18.0000   22.8400 C   0  0  0  0  0  0  0  0  0  0  0  0
    7.4898  -18.5836   24.1044 C   0  0  0  0  0  0  0  0  0  0  0  0
    6.9467  -17.8380   25.1574 C   0  0  0  0  0  0  0  0  0  0  0  0
    6.6340  -18.6577   26.1685 N   0  0  0  0  0  0  0  0  0  0  0  0
    6.9582  -19.9040   25.7996 C   0  0  0  0  0  0  0  0  0  0  0  0
    7.4724  -19.8492   24.5559 N   0  0  0  0  0  0  0  0  0  0  0  0
    8.2935  -15.7004   23.7684 C   0  0  0  0  0  0  0  0  0  0  0  0
    9.5676  -15.6054   23.9501 O   0  0  0  0  0  0  0  0  0  0  0  0
    7.4664  -12.4886   27.4051 C   0  0  0  0  0  0  0  0  0  0  0  0
    7.1216  -13.0864   26.0818 C   0  0  1  0  0  0  0  0  0  0  0  0
    7.1129  -12.0615   24.9954 C   0  0  0  0  0  0  0  0  0  0  0  0
    8.1207  -14.1940   25.7696 C   0  0  2  0  0  0  0  0  0  0  0  0
    7.5264  -14.9532   24.6913 N   0  0  0  0  0  0  0  0  0  0  0  0
    8.4075  -14.9702   26.9802 C   0  0  0  0  0  0  0  0  0  0  0  0
    7.8075  -16.0080   27.3156 O   0  0  0  0  0  0  0  0  0  0  0  0
    9.4435  -14.4704   27.7928 O   0  0  0  0  0  0  0  0  0  0  0  0
  2  9  1  0
  2  1  1  6
  3  2  1  0
  4  3  1  0
  5  4  2  0
  6  7  1  0
  6  5  1  0
  7  8  2  0
  8  4  1  0
  9 11  1  0
 10  9  2  0
 11 12  1  0
 12 13  1  1
 13 14  1  0
 14 18  1  0
 15 14  2  0
 15 16  1  0
 16 17  1  0
 18 17  2  0
 19 12  1  0
 19 20  2  0
 22 21  1  1
 22 24  1  0
 23 22  1  0
 24 26  1  0
 24 25  1  6
 25 19  1  0
 26 28  1  0
 27 26  2  0
M  END
$$$$
