HHV.pdb
     RDKit          3D

 28 29  0  0  1  0  0  0  0  0999 V2000
    7.8121  -17.3041   18.9685 N   0  0  0  0  0  0  0  0  0  0  0  0
    8.7921  -16.8826   19.9371 C   0  0  1  0  0  0  0  0  0  0  0  0
    9.7180  -15.8155   19.3981 C   0  0  0  0  0  0  0  0  0  0  0  0
    8.8651  -14.7435   18.8293 C   0  0  0  0  0  0  0  0  0  0  0  0
    8.0033  -13.9464   19.5345 C   0  0  0  0  0  0  0  0  0  0  0  0
    7.3880  -13.0831   18.7220 N   0  0  0  0  0  0  0  0  0  0  0  0
    7.8594  -13.3303   17.4913 C   0  0  0  0  0  0  0  0  0  0  0  0
    8.7583  -14.3373   17.5412 N   0  0  0  0  0  0  0  0  0  0  0  0
    8.1523  -16.4787   21.2169 C   0  0  0  0  0  0  0  0  0  0  0  0
    6.9227  -16.2175   21.2361 O   0  0  0  0  0  0  0  0  0  0  0  0
    8.9018  -16.3824   22.4161 N   0  0  0  0  0  0  0  0  0  0  0  0
    8.2158  -16.5605   23.7136 C   0  0  1  0  0  0  0  0  0  0  0  0
    8.3474  -17.9879   24.1431 C   0  0  0  0  0  0  0  0  0  0  0  0
    7.8641  -18.3175   25.4849 C   0  0  0  0  0  0  0  0  0  0  0  0
    6.6233  -17.9095   25.9887 C   0  0  0  0  0  0  0  0  0  0  0  0
    6.4771  -18.3687   27.2376 N   0  0  0  0  0  0  0  0  0  0  0  0
    7.5821  -19.0575   27.5520 C   0  0  0  0  0  0  0  0  0  0  0  0
    8.4109  -19.0210   26.4909 N   0  0  0  0  0  0  0  0  0  0  0  0
    8.7101  -15.5681   24.6793 C   0  0  0  0  0  0  0  0  0  0  0  0
    9.9748  -15.4466   24.9057 O   0  0  0  0  0  0  0  0  0  0  0  0
    7.4426  -11.9717   25.2138 C   0  0  0  0  0  0  0  0  0  0  0  0
    7.4889  -12.6395   26.5477 C   0  0  1  0  0  0  0  0  0  0  0  0
    6.1334  -13.0786   26.9956 C   0  0  0  0  0  0  0  0  0  0  0  0
    8.4408  -13.8269   26.4680 C   0  0  2  0  0  0  0  0  0  0  0  0
    7.9066  -14.6770   25.4267 N   0  0  0  0  0  0  0  0  0  0  0  0
    8.5589  -14.4675   27.7818 C   0  0  0  0  0  0  0  0  0  0  0  0
    8.0607  -15.5682   28.0810 O   0  0  0  0  0  0  0  0  0  0  0  0
    9.2973  -13.7518   28.7441 O   0  0  0  0  0  0  0  0  0  0  0  0
  2  9  1  0
  2  1  1  6
  3  2  1  0
  4  3  1  0
  5  4  2  0
  6  7  1  0
  6  5  1  0
  7  8  2  0
  8  4  1  0
  9 11  1  0
 10  9  2  0
 11 12  1  0
 12 13  1  1
 13 14  1  0
 14 18  1  0
 15 14  2  0
 15 16  1  0
 16 17  1  0
 18 17  2  0
 19 12  1  0
 19 20  2  0
 22 21  1  6
 22 24  1  0
 23 22  1  0
 24 26  1  0
 24 25  1  6
 25 19  1  0
 26 28  1  0
 27 26  2  0
M  END
$$$$
