HHV.pdb
     RDKit          3D

 28 29  0  0  1  0  0  0  0  0999 V2000
    9.2677  -15.1332   19.3737 N   0  0  0  0  0  0  0  0  0  0  0  0
    8.1064  -14.5353   19.9823 C   0  0  1  0  0  0  0  0  0  0  0  0
    6.8628  -14.6936   19.1369 C   0  0  0  0  0  0  0  0  0  0  0  0
    7.2665  -14.4934   17.7237 C   0  0  0  0  0  0  0  0  0  0  0  0
    8.3490  -13.7729   17.2943 C   0  0  0  0  0  0  0  0  0  0  0  0
    8.4284  -13.7913   15.9610 N   0  0  0  0  0  0  0  0  0  0  0  0
    7.3911  -14.5274   15.5370 C   0  0  0  0  0  0  0  0  0  0  0  0
    6.6758  -14.9609   16.5976 N   0  0  0  0  0  0  0  0  0  0  0  0
    7.9084  -15.0249   21.3720 C   0  0  0  0  0  0  0  0  0  0  0  0
    6.9313  -14.6029   22.0412 O   0  0  0  0  0  0  0  0  0  0  0  0
    8.8000  -15.9584   21.9575 N   0  0  0  0  0  0  0  0  0  0  0  0
    8.5425  -16.4406   23.3311 C   0  0  1  0  0  0  0  0  0  0  0  0
    9.2956  -17.7151   23.5498 C   0  0  0  0  0  0  0  0  0  0  0  0
    9.2385  -18.2894   24.8951 C   0  0  0  0  0  0  0  0  0  0  0  0
    8.5133  -17.7276   25.9525 C   0  0  0  0  0  0  0  0  0  0  0  0
    8.6620  -18.4849   27.0463 N   0  0  0  0  0  0  0  0  0  0  0  0
    9.4580  -19.5136   26.7262 C   0  0  0  0  0  0  0  0  0  0  0  0
    9.7998  -19.3872   25.4296 N   0  0  0  0  0  0  0  0  0  0  0  0
    8.8295  -15.3702   24.2974 C   0  0  0  0  0  0  0  0  0  0  0  0
   10.0003  -14.8300   24.3491 O   0  0  0  0  0  0  0  0  0  0  0  0
    5.8817  -13.4171   26.5589 C   0  0  0  0  0  0  0  0  0  0  0  0
    7.1570  -12.7788   26.1192 C   0  0  1  0  0  0  0  0  0  0  0  0
    7.4944  -11.5839   26.9494 C   0  0  0  0  0  0  0  0  0  0  0  0
    8.2723  -13.8150   26.1880 C   0  0  2  0  0  0  0  0  0  0  0  0
    7.9095  -14.8328   25.2264 N   0  0  0  0  0  0  0  0  0  0  0  0
    8.4270  -14.2987   27.5637 C   0  0  0  0  0  0  0  0  0  0  0  0
    8.0271  -15.4031   27.9758 O   0  0  0  0  0  0  0  0  0  0  0  0
    9.0804  -13.4193   28.4486 O   0  0  0  0  0  0  0  0  0  0  0  0
  2  9  1  0
  2  1  1  6
  3  2  1  0
  4  3  1  0
  5  4  2  0
  6  7  1  0
  6  5  1  0
  7  8  2  0
  8  4  1  0
  9 11  1  0
 10  9  2  0
 11 12  1  0
 12 13  1  1
 13 14  1  0
 14 18  1  0
 15 14  2  0
 15 16  1  0
 16 17  1  0
 18 17  2  0
 19 12  1  0
 19 20  2  0
 22 21  1  1
 22 24  1  0
 23 22  1  0
 24 26  1  0
 24 25  1  6
 25 19  1  0
 26 28  1  0
 27 26  2  0
M  END
$$$$
