HHV.pdb
     RDKit          3D

 28 29  0  0  1  0  0  0  0  0999 V2000
    7.0809  -16.3469   19.1258 N   0  0  0  0  0  0  0  0  0  0  0  0
    7.8202  -15.4930   20.0206 C   0  0  1  0  0  0  0  0  0  0  0  0
    7.7111  -14.0313   19.6490 C   0  0  0  0  0  0  0  0  0  0  0  0
    8.2907  -13.8809   18.2919 C   0  0  0  0  0  0  0  0  0  0  0  0
    7.6384  -13.3908   17.1921 C   0  0  0  0  0  0  0  0  0  0  0  0
    8.4454  -13.3885   16.1277 N   0  0  0  0  0  0  0  0  0  0  0  0
    9.6192  -13.8799   16.5502 C   0  0  0  0  0  0  0  0  0  0  0  0
    9.5400  -14.1836   17.8640 N   0  0  0  0  0  0  0  0  0  0  0  0
    7.4506  -15.7423   21.4389 C   0  0  0  0  0  0  0  0  0  0  0  0
    6.3427  -15.3320   21.8687 O   0  0  0  0  0  0  0  0  0  0  0  0
    8.3232  -16.4336   22.3161 N   0  0  0  0  0  0  0  0  0  0  0  0
    7.8983  -16.6833   23.7100 C   0  0  1  0  0  0  0  0  0  0  0  0
    8.4336  -18.0086   24.1531 C   0  0  0  0  0  0  0  0  0  0  0  0
    8.2171  -18.3691   25.5552 C   0  0  0  0  0  0  0  0  0  0  0  0
    7.4702  -17.5965   26.4525 C   0  0  0  0  0  0  0  0  0  0  0  0
    7.4595  -18.1923   27.6512 N   0  0  0  0  0  0  0  0  0  0  0  0
    8.1743  -19.3210   27.5532 C   0  0  0  0  0  0  0  0  0  0  0  0
    8.6260  -19.4187   26.2881 N   0  0  0  0  0  0  0  0  0  0  0  0
    8.2730  -15.5418   24.5576 C   0  0  0  0  0  0  0  0  0  0  0  0
    9.5125  -15.2160   24.7086 O   0  0  0  0  0  0  0  0  0  0  0  0
    5.4697  -13.3263   26.7718 C   0  0  0  0  0  0  0  0  0  0  0  0
    6.6394  -12.6446   26.1438 C   0  0  1  0  0  0  0  0  0  0  0  0
    7.0139  -11.3980   26.8762 C   0  0  0  0  0  0  0  0  0  0  0  0
    7.8106  -13.6188   26.1042 C   0  0  2  0  0  0  0  0  0  0  0  0
    7.3726  -14.7103   25.2621 N   0  0  0  0  0  0  0  0  0  0  0  0
    8.1882  -14.0090   27.4663 C   0  0  0  0  0  0  0  0  0  0  0  0
    7.6811  -14.9531   28.0995 O   0  0  0  0  0  0  0  0  0  0  0  0
    9.2009  -13.2334   28.0633 O   0  0  0  0  0  0  0  0  0  0  0  0
  2  9  1  0
  2  1  1  6
  3  2  1  0
  4  3  1  0
  5  4  2  0
  6  7  1  0
  6  5  1  0
  7  8  2  0
  8  4  1  0
  9 11  1  0
 10  9  2  0
 11 12  1  0
 12 13  1  1
 13 14  1  0
 14 18  1  0
 15 14  2  0
 15 16  1  0
 16 17  1  0
 18 17  2  0
 19 12  1  0
 19 20  2  0
 22 21  1  1
 22 24  1  0
 23 22  1  0
 24 26  1  0
 24 25  1  6
 25 19  1  0
 26 28  1  0
 27 26  2  0
M  END
$$$$
