CYM.pdb
     RDKit          3D

 27 27  0  0  1  0  0  0  0  0999 V2000
   11.6550  -16.9219   18.7412 N   0  0  0  0  0  0  0  0  0  0  0  0
   10.8376  -17.5217   19.7603 C   0  0  1  0  0  0  0  0  0  0  0  0
   11.4942  -18.8044   20.2199 C   0  0  0  0  0  0  0  0  0  0  0  0
   10.4473  -19.7090   21.3905 S   0  0  0  0  0  0  0  0  0  0  0  0
   10.6989  -16.6167   20.9336 C   0  0  0  0  0  0  0  0  0  0  0  0
   11.6549  -15.9185   21.3510 O   0  0  0  0  0  0  0  0  0  0  0  0
    5.8046  -12.2110   27.0265 O   0  0  0  0  0  0  0  0  0  0  0  0
    6.2915  -12.9465   25.9553 C   0  0  0  0  0  0  0  0  0  0  0  0
    6.0392  -14.2883   25.8176 C   0  0  0  0  0  0  0  0  0  0  0  0
    6.5351  -14.9943   24.7441 C   0  0  0  0  0  0  0  0  0  0  0  0
    7.3128  -14.3950   23.7466 C   0  0  0  0  0  0  0  0  0  0  0  0
    7.8178  -15.2358   22.6731 C   0  0  0  0  0  0  0  0  0  0  0  0
    9.2836  -15.5521   22.7306 C   0  0  2  0  0  0  0  0  0  0  0  0
    9.4693  -16.5227   21.6132 N   0  0  0  0  0  0  0  0  0  0  0  0
    9.6067  -16.2790   23.9698 C   0  0  0  0  0  0  0  0  0  0  0  0
    9.3144  -17.5329   23.9914 O   0  0  0  0  0  0  0  0  0  0  0  0
    7.5455  -13.0547   23.9145 C   0  0  0  0  0  0  0  0  0  0  0  0
    7.0554  -12.3460   24.9801 C   0  0  0  0  0  0  0  0  0  0  0  0
    9.3720  -14.6119   29.5227 C   0  0  0  0  0  0  0  0  0  0  0  0
   10.9238  -13.8902   28.9186 S   0  0  0  0  0  0  0  0  0  0  0  0
   11.1481  -14.4719   27.2031 C   0  0  0  0  0  0  0  0  0  0  0  0
   11.5392  -15.9065   27.1540 C   0  0  0  0  0  0  0  0  0  0  0  0
   10.6696  -16.6651   26.1646 C   0  0  2  0  0  0  0  0  0  0  0  0
   10.2095  -15.7397   25.1285 N   0  0  0  0  0  0  0  0  0  0  0  0
    9.5467  -17.3296   26.8504 C   0  0  0  0  0  0  0  0  0  0  0  0
    8.2044  -17.0895   26.5213 O   0  0  0  0  0  0  0  0  0  0  0  0
    9.6940  -18.1682   27.7907 O   0  0  0  0  0  0  0  0  0  0  0  0
  2  1  1  6
  2  3  1  0
  4  3  1  0
  5  2  1  0
  6  5  2  0
  8  7  1  0
  8  9  2  0
 10  9  1  0
 11 10  2  0
 13 12  1  1
 12 11  1  0
 13 14  1  0
 14  5  1  0
 15 24  1  0
 15 13  1  0
 16 15  2  0
 17 18  2  0
 17 11  1  0
 18  8  1  0
 20 19  1  0
 21 20  1  0
 22 21  1  0
 23 22  1  1
 23 24  1  0
 25 23  1  0
 25 26  1  0
 27 25  2  0
M  END
$$$$
