CYM.pdb
     RDKit          3D

 27 27  0  0  1  0  0  0  0  0999 V2000
   10.8356  -18.9131   20.1671 N   0  0  0  0  0  0  0  0  0  0  0  0
   11.8073  -17.8553   20.1060 C   0  0  1  0  0  0  0  0  0  0  0  0
   11.8665  -17.3288   18.6894 C   0  0  0  0  0  0  0  0  0  0  0  0
   12.4671  -18.5883   17.5328 S   0  0  0  0  0  0  0  0  0  0  0  0
   11.4322  -16.7342   21.0100 C   0  0  0  0  0  0  0  0  0  0  0  0
   12.1723  -15.7329   21.1694 O   0  0  0  0  0  0  0  0  0  0  0  0
    6.9341  -13.0898   17.3610 O   0  0  0  0  0  0  0  0  0  0  0  0
    7.2898  -13.6732   18.5687 C   0  0  0  0  0  0  0  0  0  0  0  0
    7.0416  -14.9952   18.8409 C   0  0  0  0  0  0  0  0  0  0  0  0
    7.4053  -15.5487   20.0484 C   0  0  0  0  0  0  0  0  0  0  0  0
    8.0390  -14.8081   21.0528 C   0  0  0  0  0  0  0  0  0  0  0  0
    8.3500  -15.4775   22.3056 C   0  0  0  0  0  0  0  0  0  0  0  0
    9.8103  -15.6458   22.6071 C   0  0  2  0  0  0  0  0  0  0  0  0
   10.2163  -16.7735   21.7190 N   0  0  0  0  0  0  0  0  0  0  0  0
   10.0013  -16.1164   23.9892 C   0  0  0  0  0  0  0  0  0  0  0  0
   10.6475  -17.2207   24.1344 O   0  0  0  0  0  0  0  0  0  0  0  0
    8.2721  -13.4920   20.7485 C   0  0  0  0  0  0  0  0  0  0  0  0
    7.9129  -12.9347   19.5492 C   0  0  0  0  0  0  0  0  0  0  0  0
   10.2182  -14.6823   31.6589 C   0  0  0  0  0  0  0  0  0  0  0  0
    9.9742  -13.8624   30.0582 S   0  0  0  0  0  0  0  0  0  0  0  0
   10.4905  -15.0477   28.7697 C   0  0  0  0  0  0  0  0  0  0  0  0
    9.9056  -14.7104   27.4440 C   0  0  0  0  0  0  0  0  0  0  0  0
   10.2225  -15.7949   26.4272 C   0  0  2  0  0  0  0  0  0  0  0  0
    9.5533  -15.4747   25.1658 N   0  0  0  0  0  0  0  0  0  0  0  0
    9.8369  -17.1237   26.9355 C   0  0  0  0  0  0  0  0  0  0  0  0
   10.7214  -17.9566   27.6367 O   0  0  0  0  0  0  0  0  0  0  0  0
    8.6823  -17.6270   26.7837 O   0  0  0  0  0  0  0  0  0  0  0  0
  2  1  1  6
  2  3  1  0
  4  3  1  0
  5  2  1  0
  6  5  2  0
  8  7  1  0
  8  9  2  0
 10  9  1  0
 11 10  2  0
 13 12  1  1
 12 11  1  0
 13 14  1  0
 14  5  1  0
 15 24  1  0
 15 13  1  0
 16 15  2  0
 17 18  2  0
 17 11  1  0
 18  8  1  0
 20 19  1  0
 21 20  1  0
 22 21  1  0
 23 22  1  1
 23 24  1  0
 25 23  1  0
 25 26  1  0
 27 25  2  0
M  END
$$$$
