CYM.pdb
     RDKit          3D

 27 27  0  0  1  0  0  0  0  0999 V2000
    5.6700  -19.2137   21.6179 N   0  0  0  0  0  0  0  0  0  0  0  0
    5.7812  -17.9271   22.2496 C   0  0  1  0  0  0  0  0  0  0  0  0
    5.4446  -18.0736   23.7169 C   0  0  0  0  0  0  0  0  0  0  0  0
    6.8079  -18.8271   24.6434 S   0  0  0  0  0  0  0  0  0  0  0  0
    7.1663  -17.3949   22.1348 C   0  0  0  0  0  0  0  0  0  0  0  0
    8.1348  -18.1262   21.8137 O   0  0  0  0  0  0  0  0  0  0  0  0
    7.3762  -13.5136   16.2750 O   0  0  0  0  0  0  0  0  0  0  0  0
    7.6597  -13.6358   17.6279 C   0  0  0  0  0  0  0  0  0  0  0  0
    8.8540  -14.1383   18.0800 C   0  0  0  0  0  0  0  0  0  0  0  0
    9.1092  -14.2487   19.4288 C   0  0  0  0  0  0  0  0  0  0  0  0
    8.1811  -13.8615   20.4023 C   0  0  0  0  0  0  0  0  0  0  0  0
    8.5337  -14.0517   21.8000 C   0  0  0  0  0  0  0  0  0  0  0  0
    8.7947  -15.4695   22.2169 C   0  0  2  0  0  0  0  0  0  0  0  0
    7.4248  -16.0343   22.3887 N   0  0  0  0  0  0  0  0  0  0  0  0
    9.4293  -15.5086   23.5450 C   0  0  0  0  0  0  0  0  0  0  0  0
    9.6807  -14.3711   24.0937 O   0  0  0  0  0  0  0  0  0  0  0  0
    6.9996  -13.3641   19.9168 C   0  0  0  0  0  0  0  0  0  0  0  0
    6.7389  -13.2515   18.5762 C   0  0  0  0  0  0  0  0  0  0  0  0
   10.5380  -12.5493   28.2845 C   0  0  0  0  0  0  0  0  0  0  0  0
    9.5872  -14.0317   28.7234 S   0  0  0  0  0  0  0  0  0  0  0  0
   10.2954  -15.4186   27.7712 C   0  0  0  0  0  0  0  0  0  0  0  0
    9.6893  -15.5239   26.4167 C   0  0  0  0  0  0  0  0  0  0  0  0
   10.4762  -16.4951   25.5518 C   0  0  2  0  0  0  0  0  0  0  0  0
    9.7812  -16.6661   24.2753 N   0  0  0  0  0  0  0  0  0  0  0  0
   10.6767  -17.7787   26.2481 C   0  0  0  0  0  0  0  0  0  0  0  0
   11.4546  -17.9017   27.4089 O   0  0  0  0  0  0  0  0  0  0  0  0
   10.1691  -18.8752   25.8618 O   0  0  0  0  0  0  0  0  0  0  0  0
  2  1  1  6
  2  3  1  0
  4  3  1  0
  5  2  1  0
  6  5  2  0
  8  7  1  0
  8  9  2  0
 10  9  1  0
 11 10  2  0
 13 12  1  1
 12 11  1  0
 13 14  1  0
 14  5  1  0
 15 24  1  0
 15 13  1  0
 16 15  2  0
 17 18  2  0
 17 11  1  0
 18  8  1  0
 20 19  1  0
 21 20  1  0
 22 21  1  0
 23 22  1  1
 23 24  1  0
 25 23  1  0
 25 26  1  0
 27 25  2  0
M  END
$$$$
