CYM.pdb
     RDKit          3D

 27 27  0  0  1  0  0  0  0  0999 V2000
   11.9970  -16.7100   19.0690 N   0  0  0  0  0  0  0  0  0  0  0  0
   11.2069  -17.4408   20.0221 C   0  0  1  0  0  0  0  0  0  0  0  0
   11.9676  -18.6802   20.4378 C   0  0  0  0  0  0  0  0  0  0  0  0
   11.0410  -19.6579   21.6504 S   0  0  0  0  0  0  0  0  0  0  0  0
   10.9428  -16.6209   21.2357 C   0  0  0  0  0  0  0  0  0  0  0  0
   11.8076  -15.8493   21.7177 O   0  0  0  0  0  0  0  0  0  0  0  0
    5.5341  -11.9626   26.5615 O   0  0  0  0  0  0  0  0  0  0  0  0
    6.1175  -12.8392   25.6578 C   0  0  0  0  0  0  0  0  0  0  0  0
    6.9307  -12.4044   24.6415 C   0  0  0  0  0  0  0  0  0  0  0  0
    7.4969  -13.2965   23.7583 C   0  0  0  0  0  0  0  0  0  0  0  0
    7.2802  -14.6767   23.8435 C   0  0  0  0  0  0  0  0  0  0  0  0
    7.8959  -15.5306   22.8404 C   0  0  0  0  0  0  0  0  0  0  0  0
    9.3637  -15.7870   23.0181 C   0  0  2  0  0  0  0  0  0  0  0  0
    9.6936  -16.6947   21.8812 N   0  0  0  0  0  0  0  0  0  0  0  0
    9.6079  -16.5576   24.2488 C   0  0  0  0  0  0  0  0  0  0  0  0
    9.5262  -17.8388   24.1485 O   0  0  0  0  0  0  0  0  0  0  0  0
    6.4640  -15.0769   24.8694 C   0  0  0  0  0  0  0  0  0  0  0  0
    5.8972  -14.1948   25.7517 C   0  0  0  0  0  0  0  0  0  0  0  0
   10.2999  -12.8816   29.0211 C   0  0  0  0  0  0  0  0  0  0  0  0
   11.7639  -13.9478   28.9031 S   0  0  0  0  0  0  0  0  0  0  0  0
   11.4852  -15.0800   27.4988 C   0  0  0  0  0  0  0  0  0  0  0  0
   10.5624  -16.1897   27.8599 C   0  0  0  0  0  0  0  0  0  0  0  0
   10.1526  -16.9699   26.6215 C   0  0  2  0  0  0  0  0  0  0  0  0
    9.9285  -16.0320   25.5208 N   0  0  0  0  0  0  0  0  0  0  0  0
    8.9648  -17.8005   26.8902 C   0  0  0  0  0  0  0  0  0  0  0  0
    9.0237  -19.0029   27.6102 O   0  0  0  0  0  0  0  0  0  0  0  0
    7.7958  -17.5043   26.4964 O   0  0  0  0  0  0  0  0  0  0  0  0
  2  1  1  6
  2  3  1  0
  4  3  1  0
  5  2  1  0
  6  5  2  0
  8  7  1  0
  8  9  2  0
 10  9  1  0
 11 10  2  0
 13 12  1  6
 12 11  1  0
 13 14  1  0
 14  5  1  0
 15 24  1  0
 15 13  1  0
 16 15  2  0
 17 18  2  0
 17 11  1  0
 18  8  1  0
 20 19  1  0
 21 20  1  0
 22 21  1  0
 23 22  1  1
 23 24  1  0
 25 23  1  0
 25 26  1  0
 27 25  2  0
M  END
$$$$
