CYM.pdb
     RDKit          3D

 27 27  0  0  1  0  0  0  0  0999 V2000
    3.7817  -21.1204   21.0865 N   0  0  0  0  0  0  0  0  0  0  0  0
    5.0395  -20.4243   21.1001 C   0  0  1  0  0  0  0  0  0  0  0  0
    5.0393  -19.3953   19.9918 C   0  0  0  0  0  0  0  0  0  0  0  0
    5.5039  -20.1271   18.4001 S   0  0  0  0  0  0  0  0  0  0  0  0
    5.2456  -19.7214   22.3956 C   0  0  0  0  0  0  0  0  0  0  0  0
    4.3023  -19.1606   23.0049 O   0  0  0  0  0  0  0  0  0  0  0  0
    9.3556  -18.5798   30.2055 O   0  0  0  0  0  0  0  0  0  0  0  0
    8.9130  -18.9416   28.9411 C   0  0  0  0  0  0  0  0  0  0  0  0
    7.5813  -19.1081   28.6549 C   0  0  0  0  0  0  0  0  0  0  0  0
    7.1695  -19.4678   27.3909 C   0  0  0  0  0  0  0  0  0  0  0  0
    8.0699  -19.6814   26.3408 C   0  0  0  0  0  0  0  0  0  0  0  0
    7.5357  -20.0929   25.0526 C   0  0  0  0  0  0  0  0  0  0  0  0
    6.7356  -19.0562   24.3200 C   0  0  2  0  0  0  0  0  0  0  0  0
    6.5273  -19.6697   22.9763 N   0  0  0  0  0  0  0  0  0  0  0  0
    7.5400  -17.8422   24.1018 C   0  0  0  0  0  0  0  0  0  0  0  0
    8.5131  -17.9424   23.2644 O   0  0  0  0  0  0  0  0  0  0  0  0
    9.3913  -19.5067   26.6606 C   0  0  0  0  0  0  0  0  0  0  0  0
    9.8081  -19.1489   27.9161 C   0  0  0  0  0  0  0  0  0  0  0  0
    6.1254  -12.1370   27.8853 C   0  0  0  0  0  0  0  0  0  0  0  0
    6.7463  -12.2219   26.1820 S   0  0  0  0  0  0  0  0  0  0  0  0
    6.8220  -13.9891   25.7312 C   0  0  0  0  0  0  0  0  0  0  0  0
    7.3177  -14.1830   24.3420 C   0  0  0  0  0  0  0  0  0  0  0  0
    8.1469  -15.4530   24.2417 C   0  0  2  0  0  0  0  0  0  0  0  0
    7.3452  -16.5830   24.7129 N   0  0  0  0  0  0  0  0  0  0  0  0
    9.4088  -15.3200   24.9917 C   0  0  0  0  0  0  0  0  0  0  0  0
    9.6946  -16.0724   26.1406 O   0  0  0  0  0  0  0  0  0  0  0  0
   10.3384  -14.5197   24.6679 O   0  0  0  0  0  0  0  0  0  0  0  0
  2  1  1  1
  2  3  1  0
  4  3  1  0
  5  2  1  0
  6  5  2  0
  8  7  1  0
  8  9  2  0
 10  9  1  0
 11 10  2  0
 13 12  1  1
 12 11  1  0
 13 14  1  0
 14  5  1  0
 15 24  1  0
 15 13  1  0
 16 15  2  0
 17 18  2  0
 17 11  1  0
 18  8  1  0
 20 19  1  0
 21 20  1  0
 22 21  1  0
 23 22  1  1
 23 24  1  0
 25 23  1  0
 25 26  1  0
 27 25  2  0
M  END
$$$$
