CYM.pdb
     RDKit          3D

 27 27  0  0  1  0  0  0  0  0999 V2000
    6.6095  -19.0439   18.7039 N   0  0  0  0  0  0  0  0  0  0  0  0
    7.4598  -18.1623   19.4566 C   0  0  1  0  0  0  0  0  0  0  0  0
    7.3186  -16.7608   18.9059 C   0  0  0  0  0  0  0  0  0  0  0  0
    8.3611  -16.5084   17.4450 S   0  0  0  0  0  0  0  0  0  0  0  0
    7.0716  -18.1454   20.8932 C   0  0  0  0  0  0  0  0  0  0  0  0
    5.8731  -18.0623   21.2569 O   0  0  0  0  0  0  0  0  0  0  0  0
    8.0397  -19.9196   29.5489 O   0  0  0  0  0  0  0  0  0  0  0  0
    8.1729  -19.7427   28.1790 C   0  0  0  0  0  0  0  0  0  0  0  0
    7.1391  -19.9823   27.3090 C   0  0  0  0  0  0  0  0  0  0  0  0
    7.2989  -19.7986   25.9536 C   0  0  0  0  0  0  0  0  0  0  0  0
    8.5051  -19.3638   25.3923 C   0  0  0  0  0  0  0  0  0  0  0  0
    8.5814  -19.2352   23.9460 C   0  0  0  0  0  0  0  0  0  0  0  0
    7.6901  -18.1916   23.3389 C   0  0  2  0  0  0  0  0  0  0  0  0
    8.0592  -18.2237   21.8939 N   0  0  0  0  0  0  0  0  0  0  0  0
    8.0541  -16.8523   23.8306 C   0  0  0  0  0  0  0  0  0  0  0  0
    9.2242  -16.4219   23.5083 O   0  0  0  0  0  0  0  0  0  0  0  0
    9.5163  -19.1338   26.2887 C   0  0  0  0  0  0  0  0  0  0  0  0
    9.3644  -19.3146   27.6386 C   0  0  0  0  0  0  0  0  0  0  0  0
    6.6654   -9.9766   27.3691 C   0  0  0  0  0  0  0  0  0  0  0  0
    5.8733  -11.4926   26.7622 S   0  0  0  0  0  0  0  0  0  0  0  0
    7.2000  -12.5567   26.0994 C   0  0  0  0  0  0  0  0  0  0  0  0
    6.6662  -13.8446   25.5800 C   0  0  0  0  0  0  0  0  0  0  0  0
    7.7820  -14.6830   24.9779 C   0  0  2  0  0  0  0  0  0  0  0  0
    7.2466  -15.9947   24.6113 N   0  0  0  0  0  0  0  0  0  0  0  0
    8.9211  -14.7911   25.9072 C   0  0  0  0  0  0  0  0  0  0  0  0
    9.0390  -15.8229   26.8501 O   0  0  0  0  0  0  0  0  0  0  0  0
    9.8854  -13.9674   25.9366 O   0  0  0  0  0  0  0  0  0  0  0  0
  2  1  1  6
  2  3  1  0
  4  3  1  0
  5  2  1  0
  6  5  2  0
  8  7  1  0
  8  9  2  0
 10  9  1  0
 11 10  2  0
 13 12  1  1
 12 11  1  0
 13 14  1  0
 14  5  1  0
 15 24  1  0
 15 13  1  0
 16 15  2  0
 17 18  2  0
 17 11  1  0
 18  8  1  0
 20 19  1  0
 21 20  1  0
 22 21  1  0
 23 22  1  1
 23 24  1  0
 25 23  1  0
 25 26  1  0
 27 25  2  0
M  END
$$$$
