CYM.pdb
     RDKit          3D

 27 27  0  0  1  0  0  0  0  0999 V2000
    2.8382  -20.2650   21.4014 N   0  0  0  0  0  0  0  0  0  0  0  0
    4.0878  -19.5560   21.3494 C   0  0  1  0  0  0  0  0  0  0  0  0
    3.9245  -18.3448   20.4585 C   0  0  0  0  0  0  0  0  0  0  0  0
    4.0101  -18.7893   18.7036 S   0  0  0  0  0  0  0  0  0  0  0  0
    4.4948  -19.0932   22.7040 C   0  0  0  0  0  0  0  0  0  0  0  0
    3.6609  -18.6630   23.5378 O   0  0  0  0  0  0  0  0  0  0  0  0
    9.7247  -19.0807   29.8998 O   0  0  0  0  0  0  0  0  0  0  0  0
    9.0634  -19.2827   28.6967 C   0  0  0  0  0  0  0  0  0  0  0  0
    9.7375  -19.4451   27.5125 C   0  0  0  0  0  0  0  0  0  0  0  0
    9.0557  -19.6439   26.3325 C   0  0  0  0  0  0  0  0  0  0  0  0
    7.6582  -19.6914   26.2722 C   0  0  0  0  0  0  0  0  0  0  0  0
    7.0338  -19.8710   24.9714 C   0  0  0  0  0  0  0  0  0  0  0  0
    6.2734  -18.6883   24.4471 C   0  0  2  0  0  0  0  0  0  0  0  0
    5.8495  -19.1286   23.0864 N   0  0  0  0  0  0  0  0  0  0  0  0
    7.1750  -17.5409   24.2499 C   0  0  0  0  0  0  0  0  0  0  0  0
    7.8701  -17.5380   23.1659 O   0  0  0  0  0  0  0  0  0  0  0  0
    7.0164  -19.5260   27.4720 C   0  0  0  0  0  0  0  0  0  0  0  0
    7.6883  -19.3276   28.6498 C   0  0  0  0  0  0  0  0  0  0  0  0
    6.9641  -11.5335   27.0549 C   0  0  0  0  0  0  0  0  0  0  0  0
    5.7755  -12.4447   26.0298 S   0  0  0  0  0  0  0  0  0  0  0  0
    6.7461  -13.4209   24.8311 C   0  0  0  0  0  0  0  0  0  0  0  0
    7.8957  -14.1063   25.4805 C   0  0  0  0  0  0  0  0  0  0  0  0
    8.2594  -15.3743   24.7252 C   0  0  2  0  0  0  0  0  0  0  0  0
    7.3459  -16.4451   25.1257 N   0  0  0  0  0  0  0  0  0  0  0  0
    9.6699  -15.7374   24.9521 C   0  0  0  0  0  0  0  0  0  0  0  0
   10.7397  -15.0170   24.4006 O   0  0  0  0  0  0  0  0  0  0  0  0
   10.0369  -16.7252   25.6584 O   0  0  0  0  0  0  0  0  0  0  0  0
  2  1  1  1
  2  3  1  0
  4  3  1  0
  5  2  1  0
  6  5  2  0
  8  7  1  0
  8  9  2  0
 10  9  1  0
 11 10  2  0
 13 12  1  6
 12 11  1  0
 13 14  1  0
 14  5  1  0
 15 24  1  0
 15 13  1  0
 16 15  2  0
 17 18  2  0
 17 11  1  0
 18  8  1  0
 20 19  1  0
 21 20  1  0
 22 21  1  0
 23 22  1  1
 23 24  1  0
 25 23  1  0
 25 26  1  0
 27 25  2  0
M  END
$$$$
