CYM.pdb
     RDKit          3D

 27 27  0  0  1  0  0  0  0  0999 V2000
   11.1737  -17.0716   18.4763 N   0  0  0  0  0  0  0  0  0  0  0  0
   10.2679  -17.5557   19.4822 C   0  0  1  0  0  0  0  0  0  0  0  0
   10.7290  -18.9227   19.9365 C   0  0  0  0  0  0  0  0  0  0  0  0
    9.8232  -20.2476   19.0946 S   0  0  0  0  0  0  0  0  0  0  0  0
   10.2478  -16.6490   20.6622 C   0  0  0  0  0  0  0  0  0  0  0  0
   11.2651  -16.0107   21.0273 O   0  0  0  0  0  0  0  0  0  0  0  0
    6.1524  -11.8406   27.0234 O   0  0  0  0  0  0  0  0  0  0  0  0
    6.5013  -12.6900   25.9831 C   0  0  0  0  0  0  0  0  0  0  0  0
    7.1075  -12.2322   24.8402 C   0  0  0  0  0  0  0  0  0  0  0  0
    7.4431  -13.0976   23.8228 C   0  0  0  0  0  0  0  0  0  0  0  0
    7.1899  -14.4724   23.8929 C   0  0  0  0  0  0  0  0  0  0  0  0
    7.5510  -15.2952   22.7497 C   0  0  0  0  0  0  0  0  0  0  0  0
    9.0182  -15.5583   22.5764 C   0  0  2  0  0  0  0  0  0  0  0  0
    9.0649  -16.4848   21.4082 N   0  0  0  0  0  0  0  0  0  0  0  0
    9.5467  -16.3123   23.7255 C   0  0  0  0  0  0  0  0  0  0  0  0
    9.4066  -17.5917   23.6848 O   0  0  0  0  0  0  0  0  0  0  0  0
    6.5841  -14.8960   25.0472 C   0  0  0  0  0  0  0  0  0  0  0  0
    6.2473  -14.0406   26.0635 C   0  0  0  0  0  0  0  0  0  0  0  0
    9.6958  -13.3837   29.9658 C   0  0  0  0  0  0  0  0  0  0  0  0
   11.0667  -14.2342   29.1343 S   0  0  0  0  0  0  0  0  0  0  0  0
   10.3500  -15.1455   27.7245 C   0  0  0  0  0  0  0  0  0  0  0  0
   11.3873  -15.9004   26.9712 C   0  0  0  0  0  0  0  0  0  0  0  0
   10.7549  -16.6997   25.8436 C   0  0  2  0  0  0  0  0  0  0  0  0
   10.1955  -15.7727   24.8590 N   0  0  0  0  0  0  0  0  0  0  0  0
    9.7393  -17.6329   26.3634 C   0  0  0  0  0  0  0  0  0  0  0  0
    8.3655  -17.4692   26.1319 O   0  0  0  0  0  0  0  0  0  0  0  0
   10.0155  -18.6562   27.0606 O   0  0  0  0  0  0  0  0  0  0  0  0
  2  1  1  6
  2  3  1  0
  4  3  1  0
  5  2  1  0
  6  5  2  0
  8  7  1  0
  8  9  2  0
 10  9  1  0
 11 10  2  0
 13 12  1  1
 12 11  1  0
 13 14  1  0
 14  5  1  0
 15 24  1  0
 15 13  1  0
 16 15  2  0
 17 18  2  0
 17 11  1  0
 18  8  1  0
 20 19  1  0
 21 20  1  0
 22 21  1  0
 23 22  1  1
 23 24  1  0
 25 23  1  0
 25 26  1  0
 27 25  2  0
M  END
$$$$
