CYM.pdb
     RDKit          3D

 27 27  0  0  1  0  0  0  0  0999 V2000
    7.4719  -18.9132   22.0639 N   0  0  0  0  0  0  0  0  0  0  0  0
    8.5334  -19.0778   21.1086 C   0  0  1  0  0  0  0  0  0  0  0  0
    7.9522  -18.9951   19.7147 C   0  0  0  0  0  0  0  0  0  0  0  0
    6.8012  -20.3566   19.3885 S   0  0  0  0  0  0  0  0  0  0  0  0
    9.5552  -18.0061   21.2573 C   0  0  0  0  0  0  0  0  0  0  0  0
   10.5825  -17.9626   20.5372 O   0  0  0  0  0  0  0  0  0  0  0  0
    7.0405  -13.0940   17.6396 O   0  0  0  0  0  0  0  0  0  0  0  0
    7.6405  -13.4718   18.8325 C   0  0  0  0  0  0  0  0  0  0  0  0
    9.0032  -13.5616   18.9666 C   0  0  0  0  0  0  0  0  0  0  0  0
    9.5724  -13.9392   20.1625 C   0  0  0  0  0  0  0  0  0  0  0  0
    8.8075  -14.2487   21.2930 C   0  0  0  0  0  0  0  0  0  0  0  0
    9.5040  -14.6710   22.4975 C   0  0  0  0  0  0  0  0  0  0  0  0
   10.3731  -15.8857   22.3532 C   0  0  2  0  0  0  0  0  0  0  0  0
    9.3884  -16.9992   22.2273 N   0  0  0  0  0  0  0  0  0  0  0  0
   11.1237  -16.1340   23.5954 C   0  0  0  0  0  0  0  0  0  0  0  0
   12.0633  -15.2987   23.8739 O   0  0  0  0  0  0  0  0  0  0  0  0
    7.4508  -14.1487   21.1248 C   0  0  0  0  0  0  0  0  0  0  0  0
    6.8776  -13.7737   19.9379 C   0  0  0  0  0  0  0  0  0  0  0  0
    9.4599  -13.3834   29.5499 C   0  0  0  0  0  0  0  0  0  0  0  0
    9.8304  -13.7264   27.8066 S   0  0  0  0  0  0  0  0  0  0  0  0
    9.4598  -15.4909   27.5217 C   0  0  0  0  0  0  0  0  0  0  0  0
    9.6278  -15.8657   26.0918 C   0  0  0  0  0  0  0  0  0  0  0  0
   10.7672  -16.8585   25.9287 C   0  0  2  0  0  0  0  0  0  0  0  0
   10.9104  -17.1896   24.5104 N   0  0  0  0  0  0  0  0  0  0  0  0
   10.5446  -18.0578   26.7564 C   0  0  0  0  0  0  0  0  0  0  0  0
   11.0369  -18.1824   28.0640 O   0  0  0  0  0  0  0  0  0  0  0  0
    9.8954  -19.0738   26.3621 O   0  0  0  0  0  0  0  0  0  0  0  0
  2  1  1  1
  2  3  1  0
  4  3  1  0
  5  2  1  0
  6  5  2  0
  8  7  1  0
  8  9  2  0
 10  9  1  0
 11 10  2  0
 13 12  1  1
 12 11  1  0
 13 14  1  0
 14  5  1  0
 15 24  1  0
 15 13  1  0
 16 15  2  0
 17 18  2  0
 17 11  1  0
 18  8  1  0
 20 19  1  0
 21 20  1  0
 22 21  1  0
 23 22  1  6
 23 24  1  0
 25 23  1  0
 25 26  1  0
 27 25  2  0
M  END
$$$$
