CYM.pdb
     RDKit          3D

 27 27  0  0  1  0  0  0  0  0999 V2000
    5.0416  -19.1740   19.5574 N   0  0  0  0  0  0  0  0  0  0  0  0
    6.2934  -18.6743   20.0575 C   0  0  1  0  0  0  0  0  0  0  0  0
    6.6652  -17.4289   19.2841 C   0  0  0  0  0  0  0  0  0  0  0  0
    8.1490  -16.6392   19.9619 S   0  0  0  0  0  0  0  0  0  0  0  0
    6.1880  -18.3198   21.4991 C   0  0  0  0  0  0  0  0  0  0  0  0
    5.2065  -17.6857   21.9575 O   0  0  0  0  0  0  0  0  0  0  0  0
    8.7677  -18.9474   30.0665 O   0  0  0  0  0  0  0  0  0  0  0  0
    8.5072  -19.1008   28.7122 C   0  0  0  0  0  0  0  0  0  0  0  0
    9.5123  -19.2130   27.7846 C   0  0  0  0  0  0  0  0  0  0  0  0
    9.2253  -19.3643   26.4462 C   0  0  0  0  0  0  0  0  0  0  0  0
    7.9134  -19.4118   25.9607 C   0  0  0  0  0  0  0  0  0  0  0  0
    7.7176  -19.5386   24.5256 C   0  0  0  0  0  0  0  0  0  0  0  0
    7.1210  -18.3427   23.8432 C   0  0  2  0  0  0  0  0  0  0  0  0
    7.2062  -18.6953   22.3962 N   0  0  0  0  0  0  0  0  0  0  0  0
    7.9767  -17.1596   24.0332 C   0  0  0  0  0  0  0  0  0  0  0  0
    9.0465  -17.1054   23.3186 O   0  0  0  0  0  0  0  0  0  0  0  0
    6.9343  -19.2971   26.9132 C   0  0  0  0  0  0  0  0  0  0  0  0
    7.2126  -19.1462   28.2465 C   0  0  0  0  0  0  0  0  0  0  0  0
    5.7252  -11.9370   28.2535 C   0  0  0  0  0  0  0  0  0  0  0  0
    6.4641  -11.9390   26.5957 S   0  0  0  0  0  0  0  0  0  0  0  0
    7.2803  -13.5573   26.3794 C   0  0  0  0  0  0  0  0  0  0  0  0
    7.9486  -13.6651   25.0547 C   0  0  0  0  0  0  0  0  0  0  0  0
    8.7015  -14.9805   24.9401 C   0  0  2  0  0  0  0  0  0  0  0  0
    7.7364  -16.0803   24.9132 N   0  0  0  0  0  0  0  0  0  0  0  0
    9.6765  -15.1277   26.0358 C   0  0  0  0  0  0  0  0  0  0  0  0
    9.5247  -16.0638   27.0694 O   0  0  0  0  0  0  0  0  0  0  0  0
   10.7283  -14.4262   26.1402 O   0  0  0  0  0  0  0  0  0  0  0  0
  2  1  1  6
  2  3  1  0
  4  3  1  0
  5  2  1  0
  6  5  2  0
  8  7  1  0
  8  9  2  0
 10  9  1  0
 11 10  2  0
 13 12  1  1
 12 11  1  0
 13 14  1  0
 14  5  1  0
 15 24  1  0
 15 13  1  0
 16 15  2  0
 17 18  2  0
 17 11  1  0
 18  8  1  0
 20 19  1  0
 21 20  1  0
 22 21  1  0
 23 22  1  1
 23 24  1  0
 25 23  1  0
 25 26  1  0
 27 25  2  0
M  END
$$$$
