CYM.pdb
     RDKit          3D

 27 27  0  0  1  0  0  0  0  0999 V2000
    7.8929  -17.6009   17.5886 N   0  0  0  0  0  0  0  0  0  0  0  0
    8.4068  -16.7161   18.5984 C   0  0  1  0  0  0  0  0  0  0  0  0
    8.0407  -15.2947   18.2334 C   0  0  0  0  0  0  0  0  0  0  0  0
    8.3871  -14.1455   19.5914 S   0  0  0  0  0  0  0  0  0  0  0  0
    7.8182  -17.0273   19.9294 C   0  0  0  0  0  0  0  0  0  0  0  0
    6.5773  -17.0654   20.1149 O   0  0  0  0  0  0  0  0  0  0  0  0
    7.9950  -20.5189   28.1541 O   0  0  0  0  0  0  0  0  0  0  0  0
    8.2048  -20.1040   26.8467 C   0  0  0  0  0  0  0  0  0  0  0  0
    9.4573  -19.8174   26.3648 C   0  0  0  0  0  0  0  0  0  0  0  0
    9.6370  -19.4074   25.0624 C   0  0  0  0  0  0  0  0  0  0  0  0
    8.5705  -19.2612   24.1679 C   0  0  0  0  0  0  0  0  0  0  0  0
    8.8625  -18.7885   22.8242 C   0  0  0  0  0  0  0  0  0  0  0  0
    8.0847  -17.5862   22.3753 C   0  0  2  0  0  0  0  0  0  0  0  0
    8.6565  -17.2905   21.0296 N   0  0  0  0  0  0  0  0  0  0  0  0
    8.3964  -16.4235   23.2233 C   0  0  0  0  0  0  0  0  0  0  0  0
    9.5768  -15.9240   23.0997 O   0  0  0  0  0  0  0  0  0  0  0  0
    7.3340  -19.5556   24.6811 C   0  0  0  0  0  0  0  0  0  0  0  0
    7.1479  -19.9640   25.9759 C   0  0  0  0  0  0  0  0  0  0  0  0
    6.6213  -10.3733   27.8754 C   0  0  0  0  0  0  0  0  0  0  0  0
    5.9141  -11.8105   27.0219 S   0  0  0  0  0  0  0  0  0  0  0  0
    7.3110  -12.7510   26.3178 C   0  0  0  0  0  0  0  0  0  0  0  0
    6.8439  -13.9038   25.5017 C   0  0  0  0  0  0  0  0  0  0  0  0
    8.0246  -14.6407   24.8906 C   0  0  2  0  0  0  0  0  0  0  0  0
    7.5291  -15.8013   24.1494 N   0  0  0  0  0  0  0  0  0  0  0  0
    9.0017  -15.0224   25.9260 C   0  0  0  0  0  0  0  0  0  0  0  0
   10.1751  -14.2937   26.1710 O   0  0  0  0  0  0  0  0  0  0  0  0
    8.8694  -16.0348   26.6789 O   0  0  0  0  0  0  0  0  0  0  0  0
  2  1  1  6
  2  3  1  0
  4  3  1  0
  5  2  1  0
  6  5  2  0
  8  7  1  0
  8  9  2  0
 10  9  1  0
 11 10  2  0
 13 12  1  1
 12 11  1  0
 13 14  1  0
 14  5  1  0
 15 24  1  0
 15 13  1  0
 16 15  2  0
 17 18  2  0
 17 11  1  0
 18  8  1  0
 20 19  1  0
 21 20  1  0
 22 21  1  0
 23 22  1  1
 23 24  1  0
 25 23  1  0
 25 26  1  0
 27 25  2  0
M  END
$$$$
