CYM.pdb
     RDKit          3D

 27 27  0  0  1  0  0  0  0  0999 V2000
    7.9294  -13.7328   17.6609 N   0  0  0  0  0  0  0  0  0  0  0  0
    8.4664  -14.8839   18.3341 C   0  0  1  0  0  0  0  0  0  0  0  0
    9.7410  -15.3057   17.6378 C   0  0  0  0  0  0  0  0  0  0  0  0
   10.4199  -16.8275   18.3504 S   0  0  0  0  0  0  0  0  0  0  0  0
    8.7864  -14.5702   19.7533 C   0  0  0  0  0  0  0  0  0  0  0  0
    9.3853  -13.5173   20.0825 O   0  0  0  0  0  0  0  0  0  0  0  0
    6.2804  -12.3198   27.5507 O   0  0  0  0  0  0  0  0  0  0  0  0
    6.5155  -13.0368   26.3862 C   0  0  0  0  0  0  0  0  0  0  0  0
    6.9402  -12.4313   25.2303 C   0  0  0  0  0  0  0  0  0  0  0  0
    7.1659  -13.1673   24.0884 C   0  0  0  0  0  0  0  0  0  0  0  0
    6.9785  -14.5535   24.0399 C   0  0  0  0  0  0  0  0  0  0  0  0
    7.2105  -15.2329   22.7754 C   0  0  0  0  0  0  0  0  0  0  0  0
    8.5952  -15.1021   22.2122 C   0  0  2  0  0  0  0  0  0  0  0  0
    8.4173  -15.4646   20.7762 N   0  0  0  0  0  0  0  0  0  0  0  0
    9.4862  -16.1219   22.7904 C   0  0  0  0  0  0  0  0  0  0  0  0
   10.6766  -16.1854   22.3035 O   0  0  0  0  0  0  0  0  0  0  0  0
    6.5544  -15.1263   25.2107 C   0  0  0  0  0  0  0  0  0  0  0  0
    6.3278  -14.4001   26.3506 C   0  0  0  0  0  0  0  0  0  0  0  0
   10.7061  -13.9064   29.4731 C   0  0  0  0  0  0  0  0  0  0  0  0
    9.9539  -13.8361   27.8229 S   0  0  0  0  0  0  0  0  0  0  0  0
   10.3668  -15.4033   26.9832 C   0  0  0  0  0  0  0  0  0  0  0  0
    9.5550  -15.5999   25.7522 C   0  0  0  0  0  0  0  0  0  0  0  0
    9.8997  -16.9233   25.0889 C   0  0  2  0  0  0  0  0  0  0  0  0
    9.1667  -17.0281   23.8266 N   0  0  0  0  0  0  0  0  0  0  0  0
    9.6143  -18.0550   25.9892 C   0  0  0  0  0  0  0  0  0  0  0  0
    8.4387  -18.8158   25.9066 O   0  0  0  0  0  0  0  0  0  0  0  0
   10.3988  -18.4361   26.9104 O   0  0  0  0  0  0  0  0  0  0  0  0
  2  1  1  6
  2  3  1  0
  4  3  1  0
  5  2  1  0
  6  5  2  0
  8  7  1  0
  8  9  2  0
 10  9  1  0
 11 10  2  0
 13 12  1  1
 12 11  1  0
 13 14  1  0
 14  5  1  0
 15 24  1  0
 15 13  1  0
 16 15  2  0
 17 18  2  0
 17 11  1  0
 18  8  1  0
 20 19  1  0
 21 20  1  0
 22 21  1  0
 23 22  1  1
 23 24  1  0
 25 23  1  0
 25 26  1  0
 27 25  2  0
M  END
$$$$
