CYM.pdb
     RDKit          3D

 27 27  0  0  1  0  0  0  0  0999 V2000
    5.1353  -19.7916   19.2262 N   0  0  0  0  0  0  0  0  0  0  0  0
    6.2443  -18.9717   19.6319 C   0  0  1  0  0  0  0  0  0  0  0  0
    6.2123  -17.6825   18.8417 C   0  0  0  0  0  0  0  0  0  0  0  0
    6.6841  -17.9468   17.1119 S   0  0  0  0  0  0  0  0  0  0  0  0
    6.1595  -18.6390   21.0800 C   0  0  0  0  0  0  0  0  0  0  0  0
    5.0593  -18.4637   21.6583 O   0  0  0  0  0  0  0  0  0  0  0  0
    8.0314  -19.5284   29.6020 O   0  0  0  0  0  0  0  0  0  0  0  0
    7.9685  -19.5081   28.2159 C   0  0  0  0  0  0  0  0  0  0  0  0
    6.7936  -19.7102   27.5364 C   0  0  0  0  0  0  0  0  0  0  0  0
    6.7597  -19.6849   26.1598 C   0  0  0  0  0  0  0  0  0  0  0  0
    7.9027  -19.4554   25.3852 C   0  0  0  0  0  0  0  0  0  0  0  0
    7.7671  -19.4837   23.9378 C   0  0  0  0  0  0  0  0  0  0  0  0
    7.2669  -18.2171   23.3074 C   0  0  2  0  0  0  0  0  0  0  0  0
    7.3337  -18.5113   21.8465 N   0  0  0  0  0  0  0  0  0  0  0  0
    8.2087  -17.1119   23.5517 C   0  0  0  0  0  0  0  0  0  0  0  0
    8.5415  -16.4056   22.5277 O   0  0  0  0  0  0  0  0  0  0  0  0
    9.0585  -19.2574   26.0951 C   0  0  0  0  0  0  0  0  0  0  0  0
    9.0995  -19.2813   27.4646 C   0  0  0  0  0  0  0  0  0  0  0  0
    6.4833  -11.3594   27.5913 C   0  0  0  0  0  0  0  0  0  0  0  0
    6.2461  -13.0611   27.0065 S   0  0  0  0  0  0  0  0  0  0  0  0
    7.4817  -13.3493   25.6943 C   0  0  0  0  0  0  0  0  0  0  0  0
    7.4504  -14.7544   25.2064 C   0  0  0  0  0  0  0  0  0  0  0  0
    8.8568  -15.3257   25.1283 C   0  0  2  0  0  0  0  0  0  0  0  0
    8.7746  -16.7482   24.7944 N   0  0  0  0  0  0  0  0  0  0  0  0
    9.5908  -15.0946   26.3855 C   0  0  0  0  0  0  0  0  0  0  0  0
   10.6262  -14.1553   26.5009 O   0  0  0  0  0  0  0  0  0  0  0  0
    9.3538  -15.7201   27.4634 O   0  0  0  0  0  0  0  0  0  0  0  0
  2  1  1  6
  2  3  1  0
  4  3  1  0
  5  2  1  0
  6  5  2  0
  8  7  1  0
  8  9  2  0
 10  9  1  0
 11 10  2  0
 13 12  1  1
 12 11  1  0
 13 14  1  0
 14  5  1  0
 15 24  1  0
 15 13  1  0
 16 15  2  0
 17 18  2  0
 17 11  1  0
 18  8  1  0
 20 19  1  0
 21 20  1  0
 22 21  1  0
 23 22  1  1
 23 24  1  0
 25 23  1  0
 25 26  1  0
 27 25  2  0
M  END
$$$$
