CYM.pdb
     RDKit          3D

 27 27  0  0  1  0  0  0  0  0999 V2000
    8.0209  -16.2899   17.3966 N   0  0  0  0  0  0  0  0  0  0  0  0
    8.4842  -15.5391   18.5318 C   0  0  1  0  0  0  0  0  0  0  0  0
    8.0511  -14.0987   18.3734 C   0  0  0  0  0  0  0  0  0  0  0  0
    8.3966  -13.1290   19.8651 S   0  0  0  0  0  0  0  0  0  0  0  0
    7.9029  -16.0697   19.7949 C   0  0  0  0  0  0  0  0  0  0  0  0
    6.6737  -16.2916   19.9192 O   0  0  0  0  0  0  0  0  0  0  0  0
    7.9061  -20.3821   27.5659 O   0  0  0  0  0  0  0  0  0  0  0  0
    8.1332  -19.8271   26.3145 C   0  0  0  0  0  0  0  0  0  0  0  0
    9.3754  -19.3944   25.9235 C   0  0  0  0  0  0  0  0  0  0  0  0
    9.5727  -18.8471   24.6752 C   0  0  0  0  0  0  0  0  0  0  0  0
    8.5352  -18.7022   23.7469 C   0  0  0  0  0  0  0  0  0  0  0  0
    8.8407  -18.0796   22.4689 C   0  0  0  0  0  0  0  0  0  0  0  0
    8.1593  -16.7688   22.2056 C   0  0  2  0  0  0  0  0  0  0  0  0
    8.7351  -16.3392   20.8982 N   0  0  0  0  0  0  0  0  0  0  0  0
    8.5780  -15.7614   23.1946 C   0  0  0  0  0  0  0  0  0  0  0  0
    9.8183  -15.4159   23.1708 O   0  0  0  0  0  0  0  0  0  0  0  0
    7.3084  -19.1443   24.1692 C   0  0  0  0  0  0  0  0  0  0  0  0
    7.1049  -19.6898   25.4097 C   0  0  0  0  0  0  0  0  0  0  0  0
    5.0279  -11.4658   26.8500 C   0  0  0  0  0  0  0  0  0  0  0  0
    6.6517  -10.7001   26.5835 S   0  0  0  0  0  0  0  0  0  0  0  0
    7.8383  -12.0568   26.2958 C   0  0  0  0  0  0  0  0  0  0  0  0
    7.2859  -13.0867   25.3752 C   0  0  0  0  0  0  0  0  0  0  0  0
    8.3502  -14.1110   25.0168 C   0  0  2  0  0  0  0  0  0  0  0  0
    7.7548  -15.1349   24.1573 N   0  0  0  0  0  0  0  0  0  0  0  0
    8.9544  -14.6908   26.2299 C   0  0  0  0  0  0  0  0  0  0  0  0
   10.0793  -14.1374   26.8592 O   0  0  0  0  0  0  0  0  0  0  0  0
    8.5149  -15.7324   26.8055 O   0  0  0  0  0  0  0  0  0  0  0  0
  2  1  1  6
  2  3  1  0
  4  3  1  0
  5  2  1  0
  6  5  2  0
  8  7  1  0
  8  9  2  0
 10  9  1  0
 11 10  2  0
 13 12  1  1
 12 11  1  0
 13 14  1  0
 14  5  1  0
 15 24  1  0
 15 13  1  0
 16 15  2  0
 17 18  2  0
 17 11  1  0
 18  8  1  0
 20 19  1  0
 21 20  1  0
 22 21  1  0
 23 22  1  1
 23 24  1  0
 25 23  1  0
 25 26  1  0
 27 25  2  0
M  END
$$$$
