CYM.pdb
     RDKit          3D

 27 27  0  0  1  0  0  0  0  0999 V2000
    7.6352  -15.0217   17.8864 N   0  0  0  0  0  0  0  0  0  0  0  0
    8.3420  -14.5513   19.0466 C   0  0  1  0  0  0  0  0  0  0  0  0
    7.5235  -13.4660   19.7095 C   0  0  0  0  0  0  0  0  0  0  0  0
    8.1971  -13.0170   21.3310 S   0  0  0  0  0  0  0  0  0  0  0  0
    8.5483  -15.6514   20.0274 C   0  0  0  0  0  0  0  0  0  0  0  0
    7.6900  -16.5492   20.2094 O   0  0  0  0  0  0  0  0  0  0  0  0
   10.7797  -21.6888   17.6677 O   0  0  0  0  0  0  0  0  0  0  0  0
   10.9046  -20.6386   18.5661 C   0  0  0  0  0  0  0  0  0  0  0  0
   10.9803  -20.8433   19.9209 C   0  0  0  0  0  0  0  0  0  0  0  0
   11.1039  -19.7824   20.7903 C   0  0  0  0  0  0  0  0  0  0  0  0
   11.1587  -18.4546   20.3509 C   0  0  0  0  0  0  0  0  0  0  0  0
   11.2543  -17.4045   21.3521 C   0  0  0  0  0  0  0  0  0  0  0  0
    9.9514  -16.7976   21.7833 C   0  0  2  0  0  0  0  0  0  0  0  0
    9.7329  -15.7098   20.7863 N   0  0  0  0  0  0  0  0  0  0  0  0
   10.0970  -16.1383   23.0918 C   0  0  0  0  0  0  0  0  0  0  0  0
   10.5968  -14.9515   23.0831 O   0  0  0  0  0  0  0  0  0  0  0  0
   11.0808  -18.2858   18.9928 C   0  0  0  0  0  0  0  0  0  0  0  0
   10.9577  -19.3367   18.1220 C   0  0  0  0  0  0  0  0  0  0  0  0
    6.6330  -11.5915   27.2953 C   0  0  0  0  0  0  0  0  0  0  0  0
    6.7065  -12.7915   25.9357 S   0  0  0  0  0  0  0  0  0  0  0  0
    8.1227  -13.8922   26.2743 C   0  0  0  0  0  0  0  0  0  0  0  0
    8.3707  -14.8335   25.1493 C   0  0  0  0  0  0  0  0  0  0  0  0
    9.5412  -15.7501   25.4660 C   0  0  2  0  0  0  0  0  0  0  0  0
    9.7373  -16.6747   24.3487 N   0  0  0  0  0  0  0  0  0  0  0  0
    9.3258  -16.4601   26.7396 C   0  0  0  0  0  0  0  0  0  0  0  0
    9.7950  -15.9762   27.9698 O   0  0  0  0  0  0  0  0  0  0  0  0
    8.7040  -17.5619   26.8342 O   0  0  0  0  0  0  0  0  0  0  0  0
  2  1  1  6
  2  3  1  0
  4  3  1  0
  5  2  1  0
  6  5  2  0
  8  7  1  0
  8  9  2  0
 10  9  1  0
 11 10  2  0
 13 12  1  6
 12 11  1  0
 13 14  1  0
 14  5  1  0
 15 24  1  0
 15 13  1  0
 16 15  2  0
 17 18  2  0
 17 11  1  0
 18  8  1  0
 20 19  1  0
 21 20  1  0
 22 21  1  0
 23 22  1  6
 23 24  1  0
 25 23  1  0
 25 26  1  0
 27 25  2  0
M  END
$$$$
