FPN.pdb
     RDKit          3D

 27 28  0  0  1  0  0  0  0  0999 V2000
    7.2372  -15.9515   25.5578 N   0  0  0  0  0  0  0  0  0  0  0  0
    7.0657  -15.1422   24.3890 C   0  0  1  0  0  0  0  0  0  0  0  0
    7.7280  -13.7783   24.5440 C   0  0  0  0  0  0  0  0  0  0  0  0
    7.2791  -13.1135   25.7715 C   0  0  0  0  0  0  0  0  0  0  0  0
    6.0881  -12.3879   25.8370 C   0  0  0  0  0  0  0  0  0  0  0  0
    5.6725  -11.7663   26.9772 C   0  0  0  0  0  0  0  0  0  0  0  0
    6.4140  -11.8241   28.1315 C   0  0  0  0  0  0  0  0  0  0  0  0
    7.5947  -12.5291   28.1100 C   0  0  0  0  0  0  0  0  0  0  0  0
    8.0068  -13.1537   26.9538 C   0  0  0  0  0  0  0  0  0  0  0  0
    7.5975  -15.7955   23.1814 C   0  0  0  0  0  0  0  0  0  0  0  0
    7.9390  -17.0222   23.3624 O   0  0  0  0  0  0  0  0  0  0  0  0
    7.7447  -15.1880   21.9154 N   0  0  0  0  0  0  0  0  0  0  0  0
    7.3165  -13.8818   21.5063 C   0  0  0  0  0  0  0  0  0  0  0  0
    7.2233  -14.0416   19.9783 C   0  0  0  0  0  0  0  0  0  0  0  0
    8.4785  -14.8323   19.6967 C   0  0  0  0  0  0  0  0  0  0  0  0
    8.4146  -15.8666   20.7999 C   0  0  1  0  0  0  0  0  0  0  0  0
    9.7846  -16.2981   21.2041 C   0  0  0  0  0  0  0  0  0  0  0  0
   10.2253  -16.0254   22.3302 O   0  0  0  0  0  0  0  0  0  0  0  0
   13.2504  -20.5066   22.1835 N   0  0  0  0  0  0  0  0  0  0  0  0
   13.1748  -19.0945   22.1069 C   0  0  0  0  0  0  0  0  0  0  0  0
   14.2060  -18.4010   22.2577 O   0  0  0  0  0  0  0  0  0  0  0  0
   11.8898  -18.4412   21.8509 C   0  0  0  0  0  0  0  0  0  0  0  0
   11.8587  -17.6366   20.5983 C   0  0  2  0  0  0  0  0  0  0  0  0
   10.5934  -17.0282   20.2922 N   0  0  0  0  0  0  0  0  0  0  0  0
   12.4878  -18.3648   19.4590 C   0  0  0  0  0  0  0  0  0  0  0  0
   11.7457  -19.2051   18.8769 O   0  0  0  0  0  0  0  0  0  0  0  0
   13.7736  -18.1649   19.0496 O   0  0  0  0  0  0  0  0  0  0  0  0
  2  1  1  1
  3  2  1  0
  4  5  2  0
  4  3  1  0
  6  5  1  0
  7  6  2  0
  8  7  1  0
  8  9  2  0
  9  4  1  0
 10 11  2  0
 10  2  1  0
 12 10  1  0
 13 12  1  0
 14 13  1  0
 15 14  1  0
 15 16  1  0
 16 12  1  0
 16 17  1  1
 17 18  2  0
 20 21  2  0
 20 19  1  0
 22 20  1  0
 23 24  1  0
 23 22  1  1
 24 17  1  0
 25 23  1  0
 26 25  2  0
 27 25  1  0
M  END
$$$$
