FPN.pdb
     RDKit          3D

 27 28  0  0  1  0  0  0  0  0999 V2000
    6.3772  -17.5522   25.7764 N   0  0  0  0  0  0  0  0  0  0  0  0
    6.9113  -16.3146   25.2931 C   0  0  1  0  0  0  0  0  0  0  0  0
    7.8237  -15.6538   26.3196 C   0  0  0  0  0  0  0  0  0  0  0  0
    7.4116  -14.2697   26.5741 C   0  0  0  0  0  0  0  0  0  0  0  0
    8.2479  -13.3426   27.1988 C   0  0  0  0  0  0  0  0  0  0  0  0
    7.8633  -12.0567   27.4390 C   0  0  0  0  0  0  0  0  0  0  0  0
    6.6192  -11.6046   27.0738 C   0  0  0  0  0  0  0  0  0  0  0  0
    5.7638  -12.4863   26.4554 C   0  0  0  0  0  0  0  0  0  0  0  0
    6.1607  -13.7834   26.2168 C   0  0  0  0  0  0  0  0  0  0  0  0
    7.6564  -16.4878   24.0350 C   0  0  0  0  0  0  0  0  0  0  0  0
    8.3831  -17.5485   24.0038 O   0  0  0  0  0  0  0  0  0  0  0  0
    7.6201  -15.6089   22.9307 N   0  0  0  0  0  0  0  0  0  0  0  0
    6.6810  -14.5573   22.6680 C   0  0  0  0  0  0  0  0  0  0  0  0
    6.8045  -14.3941   21.1425 C   0  0  0  0  0  0  0  0  0  0  0  0
    8.3013  -14.4852   20.9657 C   0  0  0  0  0  0  0  0  0  0  0  0
    8.6201  -15.6655   21.8581 C   0  0  1  0  0  0  0  0  0  0  0  0
    9.9951  -15.5469   22.4254 C   0  0  0  0  0  0  0  0  0  0  0  0
   10.1752  -15.0389   23.5417 O   0  0  0  0  0  0  0  0  0  0  0  0
   13.6539  -19.1342   24.3891 N   0  0  0  0  0  0  0  0  0  0  0  0
   13.5101  -17.7806   23.9979 C   0  0  0  0  0  0  0  0  0  0  0  0
   14.4764  -16.9914   24.0992 O   0  0  0  0  0  0  0  0  0  0  0  0
   12.2303  -17.3004   23.4735 C   0  0  0  0  0  0  0  0  0  0  0  0
   12.3527  -16.4782   22.2380 C   0  0  2  0  0  0  0  0  0  0  0  0
   11.1097  -16.0196   21.6817 N   0  0  0  0  0  0  0  0  0  0  0  0
   13.2812  -17.1004   21.2508 C   0  0  0  0  0  0  0  0  0  0  0  0
   14.3208  -16.4323   20.9888 O   0  0  0  0  0  0  0  0  0  0  0  0
   13.0532  -18.3039   20.6506 O   0  0  0  0  0  0  0  0  0  0  0  0
  2  1  1  1
  3  2  1  0
  4  5  2  0
  4  3  1  0
  6  5  1  0
  7  6  2  0
  8  7  1  0
  8  9  2  0
  9  4  1  0
 10 11  2  0
 10  2  1  0
 12 10  1  0
 13 12  1  0
 14 13  1  0
 15 14  1  0
 15 16  1  0
 16 12  1  0
 16 17  1  1
 17 18  2  0
 20 21  2  0
 20 19  1  0
 22 20  1  0
 23 24  1  0
 23 22  1  1
 24 17  1  0
 25 23  1  0
 26 25  2  0
 27 25  1  0
M  END
$$$$
