FPN.pdb
     RDKit          3D

 27 28  0  0  1  0  0  0  0  0999 V2000
    6.2270  -17.7007   25.5951 N   0  0  0  0  0  0  0  0  0  0  0  0
    6.7764  -16.4109   25.3029 C   0  0  1  0  0  0  0  0  0  0  0  0
    7.4716  -15.8049   26.5162 C   0  0  0  0  0  0  0  0  0  0  0  0
    7.1793  -14.3723   26.6273 C   0  0  0  0  0  0  0  0  0  0  0  0
    8.1831  -13.4019   26.6342 C   0  0  0  0  0  0  0  0  0  0  0  0
    7.9115  -12.0700   26.7415 C   0  0  0  0  0  0  0  0  0  0  0  0
    6.6216  -11.6118   26.8493 C   0  0  0  0  0  0  0  0  0  0  0  0
    5.6023  -12.5352   26.8466 C   0  0  0  0  0  0  0  0  0  0  0  0
    5.8858  -13.8785   26.7379 C   0  0  0  0  0  0  0  0  0  0  0  0
    7.7293  -16.4572   24.1815 C   0  0  0  0  0  0  0  0  0  0  0  0
    8.5208  -17.4704   24.2141 O   0  0  0  0  0  0  0  0  0  0  0  0
    7.8174  -15.5100   23.1381 N   0  0  0  0  0  0  0  0  0  0  0  0
    6.9906  -14.3594   22.9164 C   0  0  0  0  0  0  0  0  0  0  0  0
    7.1876  -14.1115   21.4101 C   0  0  0  0  0  0  0  0  0  0  0  0
    8.6753  -14.3328   21.2764 C   0  0  0  0  0  0  0  0  0  0  0  0
    8.8487  -15.5927   22.0973 C   0  0  1  0  0  0  0  0  0  0  0  0
   10.2057  -15.6417   22.7157 C   0  0  0  0  0  0  0  0  0  0  0  0
   10.4275  -15.0752   23.7958 O   0  0  0  0  0  0  0  0  0  0  0  0
   11.6869  -19.0485   22.7252 N   0  0  0  0  0  0  0  0  0  0  0  0
   12.2917  -18.4827   23.8741 C   0  0  0  0  0  0  0  0  0  0  0  0
   12.3966  -19.1554   24.9245 O   0  0  0  0  0  0  0  0  0  0  0  0
   12.7962  -17.1088   23.8366 C   0  0  0  0  0  0  0  0  0  0  0  0
   12.6135  -16.4327   22.5225 C   0  0  2  0  0  0  0  0  0  0  0  0
   11.2549  -16.3432   22.0631 N   0  0  0  0  0  0  0  0  0  0  0  0
   13.5800  -16.9355   21.5042 C   0  0  0  0  0  0  0  0  0  0  0  0
   14.7995  -16.8318   21.8168 O   0  0  0  0  0  0  0  0  0  0  0  0
   13.2079  -17.4724   20.3067 O   0  0  0  0  0  0  0  0  0  0  0  0
  2  1  1  1
  3  2  1  0
  4  5  2  0
  4  3  1  0
  6  5  1  0
  7  6  2  0
  8  7  1  0
  8  9  2  0
  9  4  1  0
 10 11  2  0
 10  2  1  0
 12 10  1  0
 13 12  1  0
 14 13  1  0
 15 14  1  0
 15 16  1  0
 16 12  1  0
 16 17  1  1
 17 18  2  0
 20 21  2  0
 20 19  1  0
 22 20  1  0
 23 24  1  0
 23 22  1  1
 24 17  1  0
 25 23  1  0
 26 25  2  0
 27 25  1  0
M  END
$$$$
