FPN.pdb
     RDKit          3D

 27 28  0  0  1  0  0  0  0  0999 V2000
    8.1915  -18.2593   20.5265 N   0  0  0  0  0  0  0  0  0  0  0  0
    8.4705  -16.8560   20.4666 C   0  0  1  0  0  0  0  0  0  0  0  0
    7.2062  -16.0382   20.2314 C   0  0  0  0  0  0  0  0  0  0  0  0
    7.5257  -14.6184   20.0508 C   0  0  0  0  0  0  0  0  0  0  0  0
    8.3110  -14.1566   18.9929 C   0  0  0  0  0  0  0  0  0  0  0  0
    8.6113  -12.8370   18.8272 C   0  0  0  0  0  0  0  0  0  0  0  0
    8.1505  -11.8855   19.7034 C   0  0  0  0  0  0  0  0  0  0  0  0
    7.3731  -12.2982   20.7601 C   0  0  0  0  0  0  0  0  0  0  0  0
    7.0747  -13.6332   20.9197 C   0  0  0  0  0  0  0  0  0  0  0  0
    9.1309  -16.3710   21.6899 C   0  0  0  0  0  0  0  0  0  0  0  0
   10.3965  -16.1843   21.5575 O   0  0  0  0  0  0  0  0  0  0  0  0
    8.4922  -16.1163   22.9230 N   0  0  0  0  0  0  0  0  0  0  0  0
    7.0853  -16.0490   23.1927 C   0  0  0  0  0  0  0  0  0  0  0  0
    7.0476  -15.2017   24.4771 C   0  0  0  0  0  0  0  0  0  0  0  0
    8.2008  -15.7991   25.2473 C   0  0  0  0  0  0  0  0  0  0  0  0
    9.2496  -15.8915   24.1597 C   0  0  1  0  0  0  0  0  0  0  0  0
   10.1785  -17.0314   24.4125 C   0  0  0  0  0  0  0  0  0  0  0  0
    9.9155  -18.1657   23.9872 O   0  0  0  0  0  0  0  0  0  0  0  0
   13.5853  -17.2073   22.9468 N   0  0  0  0  0  0  0  0  0  0  0  0
   14.0288  -16.7553   24.2136 C   0  0  0  0  0  0  0  0  0  0  0  0
   14.6805  -15.6907   24.3079 O   0  0  0  0  0  0  0  0  0  0  0  0
   13.7263  -17.5322   25.4171 C   0  0  0  0  0  0  0  0  0  0  0  0
   12.2802  -17.8434   25.5890 C   0  0  2  0  0  0  0  0  0  0  0  0
   11.3761  -16.8179   25.1468 N   0  0  0  0  0  0  0  0  0  0  0  0
   11.9895  -18.3813   26.9492 C   0  0  0  0  0  0  0  0  0  0  0  0
   11.1045  -17.7583   27.6006 O   0  0  0  0  0  0  0  0  0  0  0  0
   12.6190  -19.4662   27.4853 O   0  0  0  0  0  0  0  0  0  0  0  0
  2  1  1  1
  3  2  1  0
  4  5  2  0
  4  3  1  0
  6  5  1  0
  7  6  2  0
  8  7  1  0
  8  9  2  0
  9  4  1  0
 10 11  2  0
 10  2  1  0
 12 10  1  0
 13 12  1  0
 14 13  1  0
 15 14  1  0
 15 16  1  0
 16 12  1  0
 16 17  1  1
 17 18  2  0
 20 21  2  0
 20 19  1  0
 22 20  1  0
 23 24  1  0
 23 22  1  1
 24 17  1  0
 25 23  1  0
 26 25  2  0
 27 25  1  0
M  END
$$$$
