FPN.pdb
     RDKit          3D

 27 28  0  0  1  0  0  0  0  0999 V2000
    6.8466  -16.3286   25.9290 N   0  0  0  0  0  0  0  0  0  0  0  0
    7.1175  -15.4201   24.8557 C   0  0  1  0  0  0  0  0  0  0  0  0
    8.0350  -14.2850   25.2944 C   0  0  0  0  0  0  0  0  0  0  0  0
    7.3218  -13.3371   26.1565 C   0  0  0  0  0  0  0  0  0  0  0  0
    7.7692  -13.0075   27.4372 C   0  0  0  0  0  0  0  0  0  0  0  0
    7.1040  -12.1291   28.2404 C   0  0  0  0  0  0  0  0  0  0  0  0
    5.9469  -11.5180   27.8240 C   0  0  0  0  0  0  0  0  0  0  0  0
    5.4714  -11.8151   26.5682 C   0  0  0  0  0  0  0  0  0  0  0  0
    6.1498  -12.7036   25.7638 C   0  0  0  0  0  0  0  0  0  0  0  0
    7.7197  -16.0984   23.6960 C   0  0  0  0  0  0  0  0  0  0  0  0
    8.1878  -17.2662   23.9629 O   0  0  0  0  0  0  0  0  0  0  0  0
    7.8071  -15.5708   22.3893 N   0  0  0  0  0  0  0  0  0  0  0  0
    7.0872  -14.4619   21.8336 C   0  0  0  0  0  0  0  0  0  0  0  0
    7.1661  -14.7553   20.3247 C   0  0  0  0  0  0  0  0  0  0  0  0
    8.6035  -15.1995   20.1948 C   0  0  0  0  0  0  0  0  0  0  0  0
    8.7215  -16.1270   21.3852 C   0  0  1  0  0  0  0  0  0  0  0  0
   10.1182  -16.1437   21.9096 C   0  0  0  0  0  0  0  0  0  0  0  0
   10.4709  -15.3459   22.7906 O   0  0  0  0  0  0  0  0  0  0  0  0
   12.7010  -19.9497   24.3876 N   0  0  0  0  0  0  0  0  0  0  0  0
   12.0003  -19.0679   23.5290 C   0  0  0  0  0  0  0  0  0  0  0  0
   10.9428  -19.4410   22.9727 O   0  0  0  0  0  0  0  0  0  0  0  0
   12.5109  -17.7169   23.2893 C   0  0  0  0  0  0  0  0  0  0  0  0
   12.3970  -17.2691   21.8738 C   0  0  2  0  0  0  0  0  0  0  0  0
   11.0546  -17.0812   21.3968 N   0  0  0  0  0  0  0  0  0  0  0  0
   13.2693  -18.0720   20.9691 C   0  0  0  0  0  0  0  0  0  0  0  0
   14.5025  -18.0456   21.2415 O   0  0  0  0  0  0  0  0  0  0  0  0
   12.8020  -18.7933   19.9098 O   0  0  0  0  0  0  0  0  0  0  0  0
  2  1  1  1
  3  2  1  0
  4  5  2  0
  4  3  1  0
  6  5  1  0
  7  6  2  0
  8  7  1  0
  8  9  2  0
  9  4  1  0
 10 11  2  0
 10  2  1  0
 12 10  1  0
 13 12  1  0
 14 13  1  0
 15 14  1  0
 15 16  1  0
 16 12  1  0
 16 17  1  1
 17 18  2  0
 20 21  2  0
 20 19  1  0
 22 20  1  0
 23 24  1  0
 23 22  1  1
 24 17  1  0
 25 23  1  0
 26 25  2  0
 27 25  1  0
M  END
$$$$
