FPN.pdb
     RDKit          3D

 27 28  0  0  1  0  0  0  0  0999 V2000
    5.6933  -17.8383   25.0718 N   0  0  0  0  0  0  0  0  0  0  0  0
    6.3397  -16.5605   25.0808 C   0  0  1  0  0  0  0  0  0  0  0  0
    6.8143  -16.1773   26.4774 C   0  0  0  0  0  0  0  0  0  0  0  0
    7.0492  -14.7330   26.5739 C   0  0  0  0  0  0  0  0  0  0  0  0
    8.3316  -14.1871   26.6544 C   0  0  0  0  0  0  0  0  0  0  0  0
    8.5499  -12.8444   26.7482 C   0  0  0  0  0  0  0  0  0  0  0  0
    7.5064  -11.9521   26.7682 C   0  0  0  0  0  0  0  0  0  0  0  0
    6.2262  -12.4486   26.6910 C   0  0  0  0  0  0  0  0  0  0  0  0
    6.0150  -13.8063   26.5966 C   0  0  0  0  0  0  0  0  0  0  0  0
    7.4866  -16.5148   24.1586 C   0  0  0  0  0  0  0  0  0  0  0  0
    8.3016  -17.5004   24.2943 O   0  0  0  0  0  0  0  0  0  0  0  0
    7.7266  -15.5115   23.1946 N   0  0  0  0  0  0  0  0  0  0  0  0
    6.9611  -14.3250   22.9438 C   0  0  0  0  0  0  0  0  0  0  0  0
    7.3508  -13.9958   21.4917 C   0  0  0  0  0  0  0  0  0  0  0  0
    8.8379  -14.2546   21.5293 C   0  0  0  0  0  0  0  0  0  0  0  0
    8.8778  -15.5650   22.2860 C   0  0  1  0  0  0  0  0  0  0  0  0
   10.1452  -15.6918   23.0630 C   0  0  0  0  0  0  0  0  0  0  0  0
   10.3106  -15.0481   24.1095 O   0  0  0  0  0  0  0  0  0  0  0  0
   11.1766  -17.9942   25.2497 N   0  0  0  0  0  0  0  0  0  0  0  0
   12.0851  -18.7322   24.4523 C   0  0  0  0  0  0  0  0  0  0  0  0
   12.1595  -19.9760   24.5725 O   0  0  0  0  0  0  0  0  0  0  0  0
   12.9402  -18.0424   23.4847 C   0  0  0  0  0  0  0  0  0  0  0  0
   12.4936  -16.6594   23.1602 C   0  0  2  0  0  0  0  0  0  0  0  0
   11.1735  -16.5571   22.6019 N   0  0  0  0  0  0  0  0  0  0  0  0
   13.5410  -15.9014   22.4170 C   0  0  0  0  0  0  0  0  0  0  0  0
   13.2867  -15.6767   21.2002 O   0  0  0  0  0  0  0  0  0  0  0  0
   14.7059  -15.4688   22.9798 O   0  0  0  0  0  0  0  0  0  0  0  0
  2  1  1  1
  3  2  1  0
  4  5  2  0
  4  3  1  0
  6  5  1  0
  7  6  2  0
  8  7  1  0
  8  9  2  0
  9  4  1  0
 10 11  2  0
 10  2  1  0
 12 10  1  0
 13 12  1  0
 14 13  1  0
 15 14  1  0
 15 16  1  0
 16 12  1  0
 16 17  1  1
 17 18  2  0
 20 21  2  0
 20 19  1  0
 22 20  1  0
 23 24  1  0
 23 22  1  6
 24 17  1  0
 25 23  1  0
 26 25  2  0
 27 25  1  0
M  END
$$$$
