FPN.pdb
     RDKit          3D

 27 28  0  0  1  0  0  0  0  0999 V2000
    6.6345  -16.4347   25.8784 N   0  0  0  0  0  0  0  0  0  0  0  0
    7.0555  -15.4457   24.9321 C   0  0  1  0  0  0  0  0  0  0  0  0
    8.1158  -14.5200   25.5164 C   0  0  0  0  0  0  0  0  0  0  0  0
    7.5056  -13.4966   26.3711 C   0  0  0  0  0  0  0  0  0  0  0  0
    8.1432  -12.9918   27.5060 C   0  0  0  0  0  0  0  0  0  0  0  0
    7.5743  -12.0430   28.3029 C   0  0  0  0  0  0  0  0  0  0  0  0
    6.3308  -11.5309   28.0253 C   0  0  0  0  0  0  0  0  0  0  0  0
    5.6679  -12.0013   26.9158 C   0  0  0  0  0  0  0  0  0  0  0  0
    6.2502  -12.9598   26.1165 C   0  0  0  0  0  0  0  0  0  0  0  0
    7.5797  -16.0507   23.6965 C   0  0  0  0  0  0  0  0  0  0  0  0
    7.9240  -17.2830   23.8272 O   0  0  0  0  0  0  0  0  0  0  0  0
    7.7176  -15.3941   22.4542 N   0  0  0  0  0  0  0  0  0  0  0  0
    7.1100  -14.1659   22.0310 C   0  0  0  0  0  0  0  0  0  0  0  0
    7.1584  -14.2985   20.4983 C   0  0  0  0  0  0  0  0  0  0  0  0
    8.5449  -14.8642   20.3042 C   0  0  0  0  0  0  0  0  0  0  0  0
    8.5719  -15.9237   21.3849 C   0  0  1  0  0  0  0  0  0  0  0  0
    9.9606  -16.1344   21.8881 C   0  0  0  0  0  0  0  0  0  0  0  0
   10.2813  -15.7663   23.0276 O   0  0  0  0  0  0  0  0  0  0  0  0
   14.6812  -16.7931   24.1022 N   0  0  0  0  0  0  0  0  0  0  0  0
   14.2335  -16.3741   22.8256 C   0  0  0  0  0  0  0  0  0  0  0  0
   15.0604  -16.1433   21.9146 O   0  0  0  0  0  0  0  0  0  0  0  0
   12.8018  -16.2097   22.5675 C   0  0  0  0  0  0  0  0  0  0  0  0
   12.3061  -16.9798   21.3933 C   0  0  2  0  0  0  0  0  0  0  0  0
   10.9263  -16.7623   21.0562 N   0  0  0  0  0  0  0  0  0  0  0  0
   12.7077  -18.4143   21.4648 C   0  0  0  0  0  0  0  0  0  0  0  0
   13.6974  -18.7363   20.7490 O   0  0  0  0  0  0  0  0  0  0  0  0
   12.0707  -19.3418   22.2359 O   0  0  0  0  0  0  0  0  0  0  0  0
  2  1  1  1
  3  2  1  0
  4  5  2  0
  4  3  1  0
  6  5  1  0
  7  6  2  0
  8  7  1  0
  8  9  2  0
  9  4  1  0
 10 11  2  0
 10  2  1  0
 12 10  1  0
 13 12  1  0
 14 13  1  0
 15 14  1  0
 15 16  1  0
 16 12  1  0
 16 17  1  1
 17 18  2  0
 20 21  2  0
 20 19  1  0
 22 20  1  0
 23 24  1  0
 23 22  1  1
 24 17  1  0
 25 23  1  0
 26 25  2  0
 27 25  1  0
M  END
$$$$
