FPN.pdb
     RDKit          3D

 27 28  0  0  1  0  0  0  0  0999 V2000
    6.4599  -17.4583   25.8623 N   0  0  0  0  0  0  0  0  0  0  0  0
    6.9157  -16.2471   25.2494 C   0  0  1  0  0  0  0  0  0  0  0  0
    7.8183  -15.4472   26.1812 C   0  0  0  0  0  0  0  0  0  0  0  0
    7.2864  -14.0977   26.3963 C   0  0  0  0  0  0  0  0  0  0  0  0
    6.0173  -13.7148   25.9582 C   0  0  0  0  0  0  0  0  0  0  0  0
    5.5243  -12.4589   26.1547 C   0  0  0  0  0  0  0  0  0  0  0  0
    6.2607  -11.4969   26.8011 C   0  0  0  0  0  0  0  0  0  0  0  0
    7.5169  -11.8329   27.2490 C   0  0  0  0  0  0  0  0  0  0  0  0
    8.0069  -13.1039   27.0461 C   0  0  0  0  0  0  0  0  0  0  0  0
    7.6362  -16.5016   23.9908 C   0  0  0  0  0  0  0  0  0  0  0  0
    8.2086  -17.6523   23.9437 O   0  0  0  0  0  0  0  0  0  0  0  0
    7.7282  -15.6082   22.9014 N   0  0  0  0  0  0  0  0  0  0  0  0
    6.9631  -14.4181   22.6667 C   0  0  0  0  0  0  0  0  0  0  0  0
    7.0971  -14.2490   21.1427 C   0  0  0  0  0  0  0  0  0  0  0  0
    8.5596  -14.5700   20.9472 C   0  0  0  0  0  0  0  0  0  0  0  0
    8.6975  -15.8014   21.8166 C   0  0  1  0  0  0  0  0  0  0  0  0
   10.0790  -15.9095   22.3698 C   0  0  0  0  0  0  0  0  0  0  0  0
   10.4539  -15.1583   23.2818 O   0  0  0  0  0  0  0  0  0  0  0  0
   10.9712  -19.8477   24.1834 N   0  0  0  0  0  0  0  0  0  0  0  0
   11.8147  -19.3287   23.1710 C   0  0  0  0  0  0  0  0  0  0  0  0
   11.9628  -19.9526   22.0959 O   0  0  0  0  0  0  0  0  0  0  0  0
   12.5160  -18.0605   23.3788 C   0  0  0  0  0  0  0  0  0  0  0  0
   12.3334  -17.0796   22.2734 C   0  0  2  0  0  0  0  0  0  0  0  0
   10.9751  -16.8812   21.8486 N   0  0  0  0  0  0  0  0  0  0  0  0
   13.3019  -17.3123   21.1635 C   0  0  0  0  0  0  0  0  0  0  0  0
   14.5215  -17.2502   21.4867 O   0  0  0  0  0  0  0  0  0  0  0  0
   12.9314  -17.5728   19.8768 O   0  0  0  0  0  0  0  0  0  0  0  0
  2  1  1  1
  3  2  1  0
  4  5  2  0
  4  3  1  0
  6  5  1  0
  7  6  2  0
  8  7  1  0
  8  9  2  0
  9  4  1  0
 10 11  2  0
 10  2  1  0
 12 10  1  0
 13 12  1  0
 14 13  1  0
 15 14  1  0
 15 16  1  0
 16 12  1  0
 16 17  1  1
 17 18  2  0
 20 21  2  0
 20 19  1  0
 22 20  1  0
 23 24  1  0
 23 22  1  1
 24 17  1  0
 25 23  1  0
 26 25  2  0
 27 25  1  0
M  END
$$$$
