FPN.pdb
     RDKit          3D

 27 28  0  0  1  0  0  0  0  0999 V2000
    6.1531  -17.4782   25.6909 N   0  0  0  0  0  0  0  0  0  0  0  0
    6.7220  -16.2495   25.2246 C   0  0  1  0  0  0  0  0  0  0  0  0
    7.5943  -15.5917   26.2872 C   0  0  0  0  0  0  0  0  0  0  0  0
    7.2078  -14.1919   26.4906 C   0  0  0  0  0  0  0  0  0  0  0  0
    5.8876  -13.7546   26.3679 C   0  0  0  0  0  0  0  0  0  0  0  0
    5.5287  -12.4523   26.5532 C   0  0  0  0  0  0  0  0  0  0  0  0
    6.4595  -11.4949   26.8736 C   0  0  0  0  0  0  0  0  0  0  0  0
    7.7722  -11.8838   27.0041 C   0  0  0  0  0  0  0  0  0  0  0  0
    8.1257  -13.2014   26.8151 C   0  0  0  0  0  0  0  0  0  0  0  0
    7.5210  -16.4390   24.0026 C   0  0  0  0  0  0  0  0  0  0  0  0
    8.1750  -17.5461   23.9763 O   0  0  0  0  0  0  0  0  0  0  0  0
    7.6044  -15.5295   22.9259 N   0  0  0  0  0  0  0  0  0  0  0  0
    6.8310  -14.3412   22.7102 C   0  0  0  0  0  0  0  0  0  0  0  0
    6.9599  -14.1494   21.1885 C   0  0  0  0  0  0  0  0  0  0  0  0
    8.4238  -14.4580   20.9847 C   0  0  0  0  0  0  0  0  0  0  0  0
    8.5721  -15.7008   21.8359 C   0  0  1  0  0  0  0  0  0  0  0  0
    9.9557  -15.8079   22.3839 C   0  0  0  0  0  0  0  0  0  0  0  0
   10.2001  -15.4677   23.5507 O   0  0  0  0  0  0  0  0  0  0  0  0
   14.8217  -17.5779   22.8248 N   0  0  0  0  0  0  0  0  0  0  0  0
   13.6993  -18.0233   23.5647 C   0  0  0  0  0  0  0  0  0  0  0  0
   13.8567  -18.7737   24.5543 O   0  0  0  0  0  0  0  0  0  0  0  0
   12.3510  -17.6072   23.1744 C   0  0  0  0  0  0  0  0  0  0  0  0
   12.3176  -16.6720   22.0162 C   0  0  2  0  0  0  0  0  0  0  0  0
   11.0044  -16.3039   21.5636 N   0  0  0  0  0  0  0  0  0  0  0  0
   13.2484  -17.1016   20.9331 C   0  0  0  0  0  0  0  0  0  0  0  0
   12.9331  -18.1716   20.3403 O   0  0  0  0  0  0  0  0  0  0  0  0
   14.3729  -16.4131   20.5833 O   0  0  0  0  0  0  0  0  0  0  0  0
  2  1  1  1
  3  2  1  0
  4  5  2  0
  4  3  1  0
  6  5  1  0
  7  6  2  0
  8  7  1  0
  8  9  2  0
  9  4  1  0
 10 11  2  0
 10  2  1  0
 12 10  1  0
 13 12  1  0
 14 13  1  0
 15 14  1  0
 15 16  1  0
 16 12  1  0
 16 17  1  1
 17 18  2  0
 20 21  2  0
 20 19  1  0
 22 20  1  0
 23 24  1  0
 23 22  1  1
 24 17  1  0
 25 23  1  0
 26 25  2  0
 27 25  1  0
M  END
$$$$
