FPN.pdb
     RDKit          3D

 27 28  0  0  1  0  0  0  0  0999 V2000
    7.3212  -17.5854   26.7024 N   0  0  0  0  0  0  0  0  0  0  0  0
    7.0145  -16.6009   25.7086 C   0  0  1  0  0  0  0  0  0  0  0  0
    6.8776  -15.2095   26.3151 C   0  0  0  0  0  0  0  0  0  0  0  0
    8.0210  -14.8988   27.1791 C   0  0  0  0  0  0  0  0  0  0  0  0
    8.4706  -13.5931   27.3848 C   0  0  0  0  0  0  0  0  0  0  0  0
    9.5362  -13.3045   28.1850 C   0  0  0  0  0  0  0  0  0  0  0  0
   10.2283  -14.2960   28.8359 C   0  0  0  0  0  0  0  0  0  0  0  0
    9.8180  -15.5969   28.6601 C   0  0  0  0  0  0  0  0  0  0  0  0
    8.7406  -15.8792   27.8500 C   0  0  0  0  0  0  0  0  0  0  0  0
    8.0282  -16.5580   24.6417 C   0  0  0  0  0  0  0  0  0  0  0  0
    8.8962  -17.5045   24.7118 O   0  0  0  0  0  0  0  0  0  0  0  0
    8.0965  -15.5954   23.6111 N   0  0  0  0  0  0  0  0  0  0  0  0
    7.2873  -14.4237   23.4406 C   0  0  0  0  0  0  0  0  0  0  0  0
    7.4309  -14.1547   21.9319 C   0  0  0  0  0  0  0  0  0  0  0  0
    8.9069  -14.4056   21.7362 C   0  0  0  0  0  0  0  0  0  0  0  0
    9.0843  -15.6826   22.5292 C   0  0  1  0  0  0  0  0  0  0  0  0
   10.4629  -15.7712   23.0929 C   0  0  0  0  0  0  0  0  0  0  0  0
   10.7749  -15.1220   24.1018 O   0  0  0  0  0  0  0  0  0  0  0  0
   11.8450  -17.9407   25.0920 N   0  0  0  0  0  0  0  0  0  0  0  0
   12.8096  -18.6376   24.3241 C   0  0  0  0  0  0  0  0  0  0  0  0
   13.2112  -19.7645   24.6928 O   0  0  0  0  0  0  0  0  0  0  0  0
   13.3401  -18.0420   23.0964 C   0  0  0  0  0  0  0  0  0  0  0  0
   12.8223  -16.6747   22.8142 C   0  0  2  0  0  0  0  0  0  0  0  0
   11.4289  -16.6063   22.4697 N   0  0  0  0  0  0  0  0  0  0  0  0
   13.7250  -15.9212   21.8969 C   0  0  0  0  0  0  0  0  0  0  0  0
   13.4357  -15.9962   20.6696 O   0  0  0  0  0  0  0  0  0  0  0  0
   14.7994  -15.1945   22.3194 O   0  0  0  0  0  0  0  0  0  0  0  0
  2  1  1  1
  3  2  1  0
  4  5  2  0
  4  3  1  0
  6  5  1  0
  7  6  2  0
  8  7  1  0
  8  9  2  0
  9  4  1  0
 10 11  2  0
 10  2  1  0
 12 10  1  0
 13 12  1  0
 14 13  1  0
 15 14  1  0
 15 16  1  0
 16 12  1  0
 16 17  1  1
 17 18  2  0
 20 21  2  0
 20 19  1  0
 22 20  1  0
 23 24  1  0
 23 22  1  6
 24 17  1  0
 25 23  1  0
 26 25  2  0
 27 25  1  0
M  END
$$$$
