FPN.pdb
     RDKit          3D

 27 28  0  0  1  0  0  0  0  0999 V2000
    6.1738  -17.5080   25.6882 N   0  0  0  0  0  0  0  0  0  0  0  0
    6.7504  -16.2626   25.2794 C   0  0  1  0  0  0  0  0  0  0  0  0
    7.5657  -15.6236   26.3972 C   0  0  0  0  0  0  0  0  0  0  0  0
    7.1377  -14.2412   26.6346 C   0  0  0  0  0  0  0  0  0  0  0  0
    8.0420  -13.1801   26.7091 C   0  0  0  0  0  0  0  0  0  0  0  0
    7.6444  -11.8954   26.9337 C   0  0  0  0  0  0  0  0  0  0  0  0
    6.3188  -11.5779   27.0997 C   0  0  0  0  0  0  0  0  0  0  0  0
    5.3947  -12.5943   27.0335 C   0  0  0  0  0  0  0  0  0  0  0  0
    5.8052  -13.8891   26.8063 C   0  0  0  0  0  0  0  0  0  0  0  0
    7.6070  -16.4136   24.0914 C   0  0  0  0  0  0  0  0  0  0  0  0
    8.2565  -17.5232   24.0572 O   0  0  0  0  0  0  0  0  0  0  0  0
    7.7468  -15.4670   23.0533 N   0  0  0  0  0  0  0  0  0  0  0  0
    7.0662  -14.2137   22.9018 C   0  0  0  0  0  0  0  0  0  0  0  0
    7.1888  -13.9659   21.3877 C   0  0  0  0  0  0  0  0  0  0  0  0
    8.6211  -14.3783   21.1459 C   0  0  0  0  0  0  0  0  0  0  0  0
    8.6830  -15.6651   21.9406 C   0  0  1  0  0  0  0  0  0  0  0  0
   10.0613  -15.9035   22.4598 C   0  0  0  0  0  0  0  0  0  0  0  0
   10.4260  -15.4037   23.5340 O   0  0  0  0  0  0  0  0  0  0  0  0
   15.5130  -16.3841   21.2795 N   0  0  0  0  0  0  0  0  0  0  0  0
   14.6071  -15.8764   22.2426 C   0  0  0  0  0  0  0  0  0  0  0  0
   15.0059  -15.6026   23.3972 O   0  0  0  0  0  0  0  0  0  0  0  0
   13.2011  -15.6700   21.8905 C   0  0  0  0  0  0  0  0  0  0  0  0
   12.3602  -16.8926   22.0154 C   0  0  2  0  0  0  0  0  0  0  0  0
   10.9661  -16.7102   21.7186 N   0  0  0  0  0  0  0  0  0  0  0  0
   12.6326  -17.6221   23.2873 C   0  0  0  0  0  0  0  0  0  0  0  0
   11.6443  -17.7434   24.0647 O   0  0  0  0  0  0  0  0  0  0  0  0
   13.8526  -18.1325   23.6216 O   0  0  0  0  0  0  0  0  0  0  0  0
  2  1  1  1
  3  2  1  0
  4  5  2  0
  4  3  1  0
  6  5  1  0
  7  6  2  0
  8  7  1  0
  8  9  2  0
  9  4  1  0
 10 11  2  0
 10  2  1  0
 12 10  1  0
 13 12  1  0
 14 13  1  0
 15 14  1  0
 15 16  1  0
 16 12  1  0
 16 17  1  1
 17 18  2  0
 20 21  2  0
 20 19  1  0
 22 20  1  0
 23 24  1  0
 23 22  1  1
 24 17  1  0
 25 23  1  0
 26 25  2  0
 27 25  1  0
M  END
$$$$
