FPN.pdb
     RDKit          3D

 27 28  0  0  1  0  0  0  0  0999 V2000
    5.7176  -17.8446   24.9822 N   0  0  0  0  0  0  0  0  0  0  0  0
    6.3454  -16.5582   25.0216 C   0  0  1  0  0  0  0  0  0  0  0  0
    6.7959  -16.1924   26.4309 C   0  0  0  0  0  0  0  0  0  0  0  0
    6.9381  -14.7401   26.5759 C   0  0  0  0  0  0  0  0  0  0  0  0
    8.1794  -14.1223   26.7395 C   0  0  0  0  0  0  0  0  0  0  0  0
    8.3113  -12.7723   26.8783 C   0  0  0  0  0  0  0  0  0  0  0  0
    7.2165  -11.9437   26.8639 C   0  0  0  0  0  0  0  0  0  0  0  0
    5.9742  -12.5121   26.7050 C   0  0  0  0  0  0  0  0  0  0  0  0
    5.8503  -13.8766   26.5655 C   0  0  0  0  0  0  0  0  0  0  0  0
    7.5036  -16.4804   24.1159 C   0  0  0  0  0  0  0  0  0  0  0  0
    8.2876  -17.4975   24.1869 O   0  0  0  0  0  0  0  0  0  0  0  0
    7.7842  -15.4175   23.2300 N   0  0  0  0  0  0  0  0  0  0  0  0
    7.1147  -14.1536   23.1252 C   0  0  0  0  0  0  0  0  0  0  0  0
    7.4616  -13.7279   21.6873 C   0  0  0  0  0  0  0  0  0  0  0  0
    8.9203  -14.1120   21.6197 C   0  0  0  0  0  0  0  0  0  0  0  0
    8.8813  -15.4842   22.2575 C   0  0  1  0  0  0  0  0  0  0  0  0
   10.1685  -15.7858   22.9490 C   0  0  0  0  0  0  0  0  0  0  0  0
   10.4127  -15.3051   24.0653 O   0  0  0  0  0  0  0  0  0  0  0  0
   14.2750  -19.1735   24.5805 N   0  0  0  0  0  0  0  0  0  0  0  0
   14.1087  -18.7493   23.2395 C   0  0  0  0  0  0  0  0  0  0  0  0
   15.1022  -18.6494   22.4845 O   0  0  0  0  0  0  0  0  0  0  0  0
   12.7740  -18.4262   22.7321 C   0  0  0  0  0  0  0  0  0  0  0  0
   12.4056  -16.9899   22.8691 C   0  0  2  0  0  0  0  0  0  0  0  0
   11.1249  -16.6313   22.3250 N   0  0  0  0  0  0  0  0  0  0  0  0
   13.5249  -16.0920   22.4628 C   0  0  0  0  0  0  0  0  0  0  0  0
   14.3349  -15.7855   23.3824 O   0  0  0  0  0  0  0  0  0  0  0  0
   13.6906  -15.6135   21.1962 O   0  0  0  0  0  0  0  0  0  0  0  0
  2  1  1  1
  3  2  1  0
  4  5  2  0
  4  3  1  0
  6  5  1  0
  7  6  2  0
  8  7  1  0
  8  9  2  0
  9  4  1  0
 10 11  2  0
 10  2  1  0
 12 10  1  0
 13 12  1  0
 14 13  1  0
 15 14  1  0
 15 16  1  0
 16 12  1  0
 16 17  1  1
 17 18  2  0
 20 21  2  0
 20 19  1  0
 22 20  1  0
 23 24  1  0
 23 22  1  6
 24 17  1  0
 25 23  1  0
 26 25  2  0
 27 25  1  0
M  END
$$$$
