FPN.pdb
     RDKit          3D

 27 28  0  0  1  0  0  0  0  0999 V2000
    5.6585  -17.7523   25.0285 N   0  0  0  0  0  0  0  0  0  0  0  0
    6.3518  -16.4998   24.9953 C   0  0  1  0  0  0  0  0  0  0  0  0
    6.8937  -16.1174   26.3675 C   0  0  0  0  0  0  0  0  0  0  0  0
    6.9150  -14.6609   26.5361 C   0  0  0  0  0  0  0  0  0  0  0  0
    5.7485  -13.8945   26.5722 C   0  0  0  0  0  0  0  0  0  0  0  0
    5.7684  -12.5398   26.7250 C   0  0  0  0  0  0  0  0  0  0  0  0
    6.9512  -11.8540   26.8525 C   0  0  0  0  0  0  0  0  0  0  0  0
    8.1241  -12.5715   26.8221 C   0  0  0  0  0  0  0  0  0  0  0  0
    8.0946  -13.9396   26.6673 C   0  0  0  0  0  0  0  0  0  0  0  0
    7.4632  -16.5086   24.0297 C   0  0  0  0  0  0  0  0  0  0  0  0
    8.2332  -17.5335   24.1335 O   0  0  0  0  0  0  0  0  0  0  0  0
    7.7153  -15.5162   23.0575 N   0  0  0  0  0  0  0  0  0  0  0  0
    7.0231  -14.2758   22.8601 C   0  0  0  0  0  0  0  0  0  0  0  0
    7.3459  -13.9619   21.3883 C   0  0  0  0  0  0  0  0  0  0  0  0
    8.8101  -14.3267   21.3330 C   0  0  0  0  0  0  0  0  0  0  0  0
    8.8020  -15.6434   22.0794 C   0  0  1  0  0  0  0  0  0  0  0  0
   10.1021  -15.8675   22.7763 C   0  0  0  0  0  0  0  0  0  0  0  0
   10.3809  -15.2404   23.8086 O   0  0  0  0  0  0  0  0  0  0  0  0
   11.2914  -18.8840   24.8131 N   0  0  0  0  0  0  0  0  0  0  0  0
   11.8079  -19.2824   23.5559 C   0  0  0  0  0  0  0  0  0  0  0  0
   11.4313  -20.3561   23.0338 O   0  0  0  0  0  0  0  0  0  0  0  0
   12.7840  -18.4395   22.8630 C   0  0  0  0  0  0  0  0  0  0  0  0
   12.3697  -17.0151   22.7334 C   0  0  2  0  0  0  0  0  0  0  0  0
   11.0310  -16.8076   22.2543 N   0  0  0  0  0  0  0  0  0  0  0  0
   13.4088  -16.1990   22.0418 C   0  0  0  0  0  0  0  0  0  0  0  0
   14.4705  -16.0044   22.6980 O   0  0  0  0  0  0  0  0  0  0  0  0
   13.2551  -15.6802   20.7896 O   0  0  0  0  0  0  0  0  0  0  0  0
  2  1  1  1
  3  2  1  0
  4  5  2  0
  4  3  1  0
  6  5  1  0
  7  6  2  0
  8  7  1  0
  8  9  2  0
  9  4  1  0
 10 11  2  0
 10  2  1  0
 12 10  1  0
 13 12  1  0
 14 13  1  0
 15 14  1  0
 15 16  1  0
 16 12  1  0
 16 17  1  1
 17 18  2  0
 20 21  2  0
 20 19  1  0
 22 20  1  0
 23 24  1  0
 23 22  1  6
 24 17  1  0
 25 23  1  0
 26 25  2  0
 27 25  1  0
M  END
$$$$
