FPN.pdb
     RDKit          3D

 27 28  0  0  1  0  0  0  0  0999 V2000
    5.9370  -17.8640   25.3747 N   0  0  0  0  0  0  0  0  0  0  0  0
    6.5281  -16.5646   25.2612 C   0  0  1  0  0  0  0  0  0  0  0  0
    7.1481  -16.1091   26.5768 C   0  0  0  0  0  0  0  0  0  0  0  0
    7.3159  -14.6526   26.6014 C   0  0  0  0  0  0  0  0  0  0  0  0
    8.5637  -14.0406   26.4687 C   0  0  0  0  0  0  0  0  0  0  0  0
    8.7203  -12.6864   26.4955 C   0  0  0  0  0  0  0  0  0  0  0  0
    7.6451  -11.8475   26.6562 C   0  0  0  0  0  0  0  0  0  0  0  0
    6.3973  -12.4098   26.7906 C   0  0  0  0  0  0  0  0  0  0  0  0
    6.2485  -13.7787   26.7624 C   0  0  0  0  0  0  0  0  0  0  0  0
    7.5556  -16.5149   24.2079 C   0  0  0  0  0  0  0  0  0  0  0  0
    8.5015  -17.3723   24.3643 O   0  0  0  0  0  0  0  0  0  0  0  0
    7.5603  -15.6332   23.1052 N   0  0  0  0  0  0  0  0  0  0  0  0
    6.5612  -14.6724   22.7371 C   0  0  0  0  0  0  0  0  0  0  0  0
    6.8389  -14.4842   21.2349 C   0  0  0  0  0  0  0  0  0  0  0  0
    8.3480  -14.4321   21.2277 C   0  0  0  0  0  0  0  0  0  0  0  0
    8.6751  -15.5853   22.1520 C   0  0  1  0  0  0  0  0  0  0  0  0
    9.9603  -15.3429   22.8701 C   0  0  0  0  0  0  0  0  0  0  0  0
    9.9666  -14.8124   23.9905 O   0  0  0  0  0  0  0  0  0  0  0  0
   14.8600  -16.0478   24.3264 N   0  0  0  0  0  0  0  0  0  0  0  0
   13.7321  -16.7068   24.8735 C   0  0  0  0  0  0  0  0  0  0  0  0
   13.8500  -17.3970   25.9112 O   0  0  0  0  0  0  0  0  0  0  0  0
   12.4244  -16.5826   24.2270 C   0  0  0  0  0  0  0  0  0  0  0  0
   12.4536  -15.8318   22.9414 C   0  0  2  0  0  0  0  0  0  0  0  0
   11.1895  -15.7224   22.2669 N   0  0  0  0  0  0  0  0  0  0  0  0
   13.5838  -16.2694   22.0724 C   0  0  0  0  0  0  0  0  0  0  0  0
   14.5676  -15.4786   22.0236 O   0  0  0  0  0  0  0  0  0  0  0  0
   13.5866  -17.4344   21.3627 O   0  0  0  0  0  0  0  0  0  0  0  0
  2  1  1  1
  3  2  1  0
  4  5  2  0
  4  3  1  0
  6  5  1  0
  7  6  2  0
  8  7  1  0
  8  9  2  0
  9  4  1  0
 10 11  2  0
 10  2  1  0
 12 10  1  0
 13 12  1  0
 14 13  1  0
 15 14  1  0
 15 16  1  0
 16 12  1  0
 16 17  1  1
 17 18  2  0
 20 21  2  0
 20 19  1  0
 22 20  1  0
 23 24  1  0
 23 22  1  1
 24 17  1  0
 25 23  1  0
 26 25  2  0
 27 25  1  0
M  END
$$$$
