FPN.pdb
     RDKit          3D

 27 28  0  0  1  0  0  0  0  0999 V2000
    6.7099  -17.3117   26.1053 N   0  0  0  0  0  0  0  0  0  0  0  0
    6.3204  -16.5800   24.9376 C   0  0  1  0  0  0  0  0  0  0  0  0
    5.9203  -15.1487   25.2751 C   0  0  0  0  0  0  0  0  0  0  0  0
    7.0401  -14.4192   25.8786 C   0  0  0  0  0  0  0  0  0  0  0  0
    7.5763  -14.7651   27.1204 C   0  0  0  0  0  0  0  0  0  0  0  0
    8.6149  -14.0844   27.6834 C   0  0  0  0  0  0  0  0  0  0  0  0
    9.1918  -13.0119   27.0490 C   0  0  0  0  0  0  0  0  0  0  0  0
    8.6933  -12.6378   25.8230 C   0  0  0  0  0  0  0  0  0  0  0  0
    7.6440  -13.3311   25.2619 C   0  0  0  0  0  0  0  0  0  0  0  0
    7.3869  -16.5499   23.9228 C   0  0  0  0  0  0  0  0  0  0  0  0
    8.3069  -17.4288   24.1102 O   0  0  0  0  0  0  0  0  0  0  0  0
    7.4518  -15.6647   22.8248 N   0  0  0  0  0  0  0  0  0  0  0  0
    6.4911  -14.6768   22.4274 C   0  0  0  0  0  0  0  0  0  0  0  0
    6.8242  -14.4907   20.9363 C   0  0  0  0  0  0  0  0  0  0  0  0
    8.3335  -14.4782   20.9802 C   0  0  0  0  0  0  0  0  0  0  0  0
    8.5990  -15.6428   21.9099 C   0  0  1  0  0  0  0  0  0  0  0  0
    9.8651  -15.4367   22.6719 C   0  0  0  0  0  0  0  0  0  0  0  0
    9.8506  -14.8853   23.7821 O   0  0  0  0  0  0  0  0  0  0  0  0
   14.3118  -15.7350   25.2509 N   0  0  0  0  0  0  0  0  0  0  0  0
   13.6032  -16.8605   24.7641 C   0  0  0  0  0  0  0  0  0  0  0  0
   14.0919  -18.0074   24.8770 O   0  0  0  0  0  0  0  0  0  0  0  0
   12.2966  -16.6858   24.1272 C   0  0  0  0  0  0  0  0  0  0  0  0
   12.3482  -15.9564   22.8301 C   0  0  2  0  0  0  0  0  0  0  0  0
   11.1000  -15.8752   22.1227 N   0  0  0  0  0  0  0  0  0  0  0  0
   13.5052  -16.3934   21.9968 C   0  0  0  0  0  0  0  0  0  0  0  0
   14.4509  -15.5612   21.9036 O   0  0  0  0  0  0  0  0  0  0  0  0
   13.5693  -17.5993   21.3624 O   0  0  0  0  0  0  0  0  0  0  0  0
  2  1  1  1
  3  2  1  0
  4  5  2  0
  4  3  1  0
  6  5  1  0
  7  6  2  0
  8  7  1  0
  8  9  2  0
  9  4  1  0
 10 11  2  0
 10  2  1  0
 12 10  1  0
 13 12  1  0
 14 13  1  0
 15 14  1  0
 15 16  1  0
 16 12  1  0
 16 17  1  1
 17 18  2  0
 20 21  2  0
 20 19  1  0
 22 20  1  0
 23 24  1  0
 23 22  1  1
 24 17  1  0
 25 23  1  0
 26 25  2  0
 27 25  1  0
M  END
$$$$
