MIY.pdb
     RDKit          3D

 29 29  0  0  1  0  0  0  0  0999 V2000
    6.6445  -10.8205   26.5187 C   0  0  0  0  0  0  0  0  0  0  0  0
    6.1061  -12.2083   27.5314 S   0  0  0  0  0  0  0  0  0  0  0  0
    5.5911  -13.6339   26.4954 C   0  0  0  0  0  0  0  0  0  0  0  0
    6.7370  -14.1117   25.6567 C   0  0  0  0  0  0  0  0  0  0  0  0
    6.3147  -15.2097   24.7462 C   0  0  2  0  0  0  0  0  0  0  0  0
    5.8046  -16.3728   25.4466 N   0  0  0  0  0  0  0  0  0  0  0  0
    7.3495  -15.6048   23.7442 C   0  0  0  0  0  0  0  0  0  0  0  0
    7.8969  -16.7545   23.7910 O   0  0  0  0  0  0  0  0  0  0  0  0
    7.3749  -12.5661   19.4358 C   0  0  0  0  0  0  0  0  0  0  0  0
    7.4256  -13.9791   19.9757 C   0  0  0  0  0  0  0  0  0  0  0  0
    8.8156  -14.3103   20.5056 C   0  0  2  0  0  0  0  0  0  0  0  0
    9.6822  -14.9136   19.4255 C   0  0  0  0  0  0  0  0  0  0  0  0
    8.7479  -15.2112   21.7066 C   0  0  2  0  0  0  0  0  0  0  0  0
    7.7970  -14.7634   22.6920 N   0  0  0  0  0  0  0  0  0  0  0  0
   10.0974  -15.3128   22.3206 C   0  0  0  0  0  0  0  0  0  0  0  0
   10.8383  -14.2938   22.2530 O   0  0  0  0  0  0  0  0  0  0  0  0
   11.7354  -15.5216   30.6689 O   0  0  0  0  0  0  0  0  0  0  0  0
   11.3306  -15.5874   29.3535 C   0  0  0  0  0  0  0  0  0  0  0  0
   11.2461  -14.4787   28.5372 C   0  0  0  0  0  0  0  0  0  0  0  0
   10.8377  -14.5872   27.2298 C   0  0  0  0  0  0  0  0  0  0  0  0
   10.4927  -15.8158   26.6746 C   0  0  0  0  0  0  0  0  0  0  0  0
   10.0370  -15.9229   25.2755 C   0  0  0  0  0  0  0  0  0  0  0  0
   11.1202  -16.4014   24.3436 C   0  0  2  0  0  0  0  0  0  0  0  0
   10.6005  -16.4620   22.9678 N   0  0  0  0  0  0  0  0  0  0  0  0
   11.6036  -17.7361   24.7236 C   0  0  0  0  0  0  0  0  0  0  0  0
   12.4451  -17.8808   25.6453 O   0  0  0  0  0  0  0  0  0  0  0  0
   10.5754  -16.9218   27.4845 C   0  0  0  0  0  0  0  0  0  0  0  0
   10.9853  -16.8108   28.7946 C   0  0  0  0  0  0  0  0  0  0  0  0
   11.1484  -18.8725   24.0834 O   0  0  0  0  0  0  0  0  0  0  0  0
  1  2  1  0
  3  4  1  0
  3  2  1  0
  5  4  1  0
  5  6  1  1
  7  5  1  0
  8  7  2  0
  9 10  1  0
 10 11  1  0
 11 12  1  6
 11 13  1  0
 13 14  1  1
 14  7  1  0
 15 24  1  0
 15 13  1  0
 16 15  2  0
 18 17  1  0
 19 18  2  0
 20 19  1  0
 21 27  1  0
 21 20  2  0
 23 22  1  1
 22 21  1  0
 23 24  1  0
 23 25  1  0
 25 29  1  0
 26 25  2  0
 27 28  2  0
 28 18  1  0
M  END
$$$$
