MIY.pdb
     RDKit          3D

 29 29  0  0  1  0  0  0  0  0999 V2000
    6.4629  -14.6822   27.0234 C   0  0  0  0  0  0  0  0  0  0  0  0
    5.0458  -15.7927   27.0172 S   0  0  0  0  0  0  0  0  0  0  0  0
    4.9659  -16.7685   25.4640 C   0  0  0  0  0  0  0  0  0  0  0  0
    6.2680  -16.6864   24.7274 C   0  0  0  0  0  0  0  0  0  0  0  0
    6.1452  -17.2484   23.3556 C   0  0  2  0  0  0  0  0  0  0  0  0
    5.9623  -18.6871   23.3384 N   0  0  0  0  0  0  0  0  0  0  0  0
    7.2428  -16.8417   22.4279 C   0  0  0  0  0  0  0  0  0  0  0  0
    8.1873  -17.6480   22.1421 O   0  0  0  0  0  0  0  0  0  0  0  0
    6.7987  -12.3360   19.1597 C   0  0  0  0  0  0  0  0  0  0  0  0
    7.1495  -13.7536   19.5574 C   0  0  0  0  0  0  0  0  0  0  0  0
    8.3580  -13.7759   20.4855 C   0  0  2  0  0  0  0  0  0  0  0  0
    9.6167  -13.3754   19.7526 C   0  0  0  0  0  0  0  0  0  0  0  0
    8.5229  -15.1164   21.1445 C   0  0  2  0  0  0  0  0  0  0  0  0
    7.3261  -15.5674   21.8078 N   0  0  0  0  0  0  0  0  0  0  0  0
    9.6428  -15.0498   22.1192 C   0  0  0  0  0  0  0  0  0  0  0  0
   10.1352  -13.9118   22.3525 O   0  0  0  0  0  0  0  0  0  0  0  0
   11.7138  -15.0301   30.3991 O   0  0  0  0  0  0  0  0  0  0  0  0
   11.2727  -15.0816   29.0947 C   0  0  0  0  0  0  0  0  0  0  0  0
   11.5167  -14.0792   28.1791 C   0  0  0  0  0  0  0  0  0  0  0  0
   11.0589  -14.1692   26.8867 C   0  0  0  0  0  0  0  0  0  0  0  0
   10.3319  -15.2715   26.4472 C   0  0  0  0  0  0  0  0  0  0  0  0
    9.8272  -15.3535   25.0633 C   0  0  0  0  0  0  0  0  0  0  0  0
   10.7957  -16.0296   24.1277 C   0  0  2  0  0  0  0  0  0  0  0  0
   10.1867  -16.1636   22.7943 N   0  0  0  0  0  0  0  0  0  0  0  0
   11.1658  -17.3665   24.6130 C   0  0  0  0  0  0  0  0  0  0  0  0
   12.1825  -17.5350   25.3315 O   0  0  0  0  0  0  0  0  0  0  0  0
   10.0869  -16.2713   27.3563 C   0  0  0  0  0  0  0  0  0  0  0  0
   10.5468  -16.1792   28.6511 C   0  0  0  0  0  0  0  0  0  0  0  0
   10.4088  -18.4783   24.2978 O   0  0  0  0  0  0  0  0  0  0  0  0
  1  2  1  0
  3  4  1  0
  3  2  1  0
  5  4  1  0
  5  6  1  1
  7  5  1  0
  8  7  2  0
  9 10  1  0
 10 11  1  0
 11 12  1  6
 11 13  1  0
 13 14  1  1
 14  7  1  0
 15 24  1  0
 15 13  1  0
 16 15  2  0
 18 17  1  0
 19 18  2  0
 20 19  1  0
 21 27  1  0
 21 20  2  0
 23 22  1  1
 22 21  1  0
 23 24  1  0
 23 25  1  0
 25 29  1  0
 26 25  2  0
 27 28  2  0
 28 18  1  0
M  END
$$$$
