MIY.pdb
     RDKit          3D

 29 29  0  0  1  0  0  0  0  0999 V2000
    7.1294  -11.9948   26.8448 C   0  0  0  0  0  0  0  0  0  0  0  0
    6.5596  -13.3284   27.9115 S   0  0  0  0  0  0  0  0  0  0  0  0
    5.9908  -14.7735   26.9321 C   0  0  0  0  0  0  0  0  0  0  0  0
    6.9820  -15.0992   25.8568 C   0  0  0  0  0  0  0  0  0  0  0  0
    6.4419  -16.1211   24.9204 C   0  0  2  0  0  0  0  0  0  0  0  0
    6.0671  -17.3596   25.5755 N   0  0  0  0  0  0  0  0  0  0  0  0
    7.3147  -16.3888   23.7383 C   0  0  0  0  0  0  0  0  0  0  0  0
    7.5686  -17.5827   23.3723 O   0  0  0  0  0  0  0  0  0  0  0  0
    7.4741  -12.6335   19.8632 C   0  0  0  0  0  0  0  0  0  0  0  0
    7.3888  -14.0015   20.5052 C   0  0  0  0  0  0  0  0  0  0  0  0
    8.7786  -14.5504   20.8044 C   0  0  2  0  0  0  0  0  0  0  0  0
    9.4808  -14.9790   19.5376 C   0  0  0  0  0  0  0  0  0  0  0  0
    8.7246  -15.6776   21.7970 C   0  0  2  0  0  0  0  0  0  0  0  0
    7.9159  -15.3729   22.9497 N   0  0  0  0  0  0  0  0  0  0  0  0
   10.1053  -16.0187   22.2280 C   0  0  0  0  0  0  0  0  0  0  0  0
   11.0547  -15.4655   21.6077 O   0  0  0  0  0  0  0  0  0  0  0  0
    9.0339  -14.5590   29.2940 O   0  0  0  0  0  0  0  0  0  0  0  0
    9.7333  -14.7493   28.1221 C   0  0  0  0  0  0  0  0  0  0  0  0
    9.7080  -13.8488   27.0776 C   0  0  0  0  0  0  0  0  0  0  0  0
   10.4203  -14.0761   25.9248 C   0  0  0  0  0  0  0  0  0  0  0  0
   11.1952  -15.2206   25.7618 C   0  0  0  0  0  0  0  0  0  0  0  0
   11.9428  -15.4676   24.5142 C   0  0  0  0  0  0  0  0  0  0  0  0
   11.7208  -16.8532   23.9650 C   0  0  2  0  0  0  0  0  0  0  0  0
   10.4222  -16.9114   23.2744 N   0  0  0  0  0  0  0  0  0  0  0  0
   11.7315  -17.8618   25.0338 C   0  0  0  0  0  0  0  0  0  0  0  0
   12.7308  -17.9998   25.7826 O   0  0  0  0  0  0  0  0  0  0  0  0
   11.2224  -16.1194   26.7997 C   0  0  0  0  0  0  0  0  0  0  0  0
   10.5079  -15.8895   27.9543 C   0  0  0  0  0  0  0  0  0  0  0  0
   10.6454  -18.6874   25.2511 O   0  0  0  0  0  0  0  0  0  0  0  0
  1  2  1  0
  3  4  1  0
  3  2  1  0
  5  4  1  0
  5  6  1  1
  7  5  1  0
  8  7  2  0
  9 10  1  0
 10 11  1  0
 11 12  1  6
 11 13  1  0
 13 14  1  1
 14  7  1  0
 15 24  1  0
 15 13  1  0
 16 15  2  0
 18 17  1  0
 19 18  2  0
 20 19  1  0
 21 27  1  0
 21 20  2  0
 23 22  1  1
 22 21  1  0
 23 24  1  0
 23 25  1  0
 25 29  1  0
 26 25  2  0
 27 28  2  0
 28 18  1  0
M  END
$$$$
