MIY.pdb
     RDKit          3D

 29 29  0  0  1  0  0  0  0  0999 V2000
    4.4956  -20.8726   23.7957 C   0  0  0  0  0  0  0  0  0  0  0  0
    5.4034  -21.9758   22.7002 S   0  0  0  0  0  0  0  0  0  0  0  0
    6.3081  -21.0395   21.4056 C   0  0  0  0  0  0  0  0  0  0  0  0
    5.7188  -19.6717   21.2415 C   0  0  0  0  0  0  0  0  0  0  0  0
    6.4635  -18.8851   20.2220 C   0  0  2  0  0  0  0  0  0  0  0  0
    7.1638  -19.7115   19.2575 N   0  0  0  0  0  0  0  0  0  0  0  0
    7.3749  -17.8497   20.7948 C   0  0  0  0  0  0  0  0  0  0  0  0
    8.5921  -18.1237   21.0536 O   0  0  0  0  0  0  0  0  0  0  0  0
    7.2280  -12.4281   19.6668 C   0  0  0  0  0  0  0  0  0  0  0  0
    7.7170  -13.8256   19.9806 C   0  0  0  0  0  0  0  0  0  0  0  0
    7.5192  -14.1536   21.4557 C   0  0  2  0  0  0  0  0  0  0  0  0
    8.3164  -13.2187   22.3345 C   0  0  0  0  0  0  0  0  0  0  0  0
    7.8559  -15.5880   21.7518 C   0  0  2  0  0  0  0  0  0  0  0  0
    6.9776  -16.5193   21.0908 N   0  0  0  0  0  0  0  0  0  0  0  0
    7.8097  -15.8098   23.2206 C   0  0  0  0  0  0  0  0  0  0  0  0
    6.6820  -16.0571   23.7297 O   0  0  0  0  0  0  0  0  0  0  0  0
    9.0234  -21.0306   29.8585 O   0  0  0  0  0  0  0  0  0  0  0  0
    8.9870  -20.2896   28.6974 C   0  0  0  0  0  0  0  0  0  0  0  0
   10.1229  -19.9061   28.0151 C   0  0  0  0  0  0  0  0  0  0  0  0
   10.0433  -19.1668   26.8597 C   0  0  0  0  0  0  0  0  0  0  0  0
    8.8177  -18.7745   26.3297 C   0  0  0  0  0  0  0  0  0  0  0  0
    8.7399  -17.9649   25.0987 C   0  0  0  0  0  0  0  0  0  0  0  0
    8.9548  -16.4951   25.3520 C   0  0  2  0  0  0  0  0  0  0  0  0
    8.9320  -15.7627   24.0753 N   0  0  0  0  0  0  0  0  0  0  0  0
   10.2432  -16.2477   26.0139 C   0  0  0  0  0  0  0  0  0  0  0  0
   10.3097  -16.0798   27.2573 O   0  0  0  0  0  0  0  0  0  0  0  0
    7.6848  -19.1544   27.0065 C   0  0  0  0  0  0  0  0  0  0  0  0
    7.7669  -19.8955   28.1643 C   0  0  0  0  0  0  0  0  0  0  0  0
   11.4206  -16.1938   25.2933 O   0  0  0  0  0  0  0  0  0  0  0  0
  1  2  1  0
  3  4  1  0
  3  2  1  0
  5  4  1  0
  5  6  1  1
  7  5  1  0
  8  7  2  0
  9 10  1  0
 10 11  1  0
 11 12  1  1
 11 13  1  0
 13 14  1  6
 14  7  1  0
 15 24  1  0
 15 13  1  0
 16 15  2  0
 18 17  1  0
 19 18  2  0
 20 19  1  0
 21 27  1  0
 21 20  2  0
 23 22  1  6
 22 21  1  0
 23 24  1  0
 23 25  1  0
 25 29  1  0
 26 25  2  0
 27 28  2  0
 28 18  1  0
M  END
$$$$
