MIY.pdb
     RDKit          3D

 29 29  0  0  1  0  0  0  0  0999 V2000
    6.5661  -12.2133   26.8709 C   0  0  0  0  0  0  0  0  0  0  0  0
    5.9154  -13.6143   27.7955 S   0  0  0  0  0  0  0  0  0  0  0  0
    5.7018  -15.0865   26.7193 C   0  0  0  0  0  0  0  0  0  0  0  0
    6.5989  -14.9941   25.5229 C   0  0  0  0  0  0  0  0  0  0  0  0
    6.3044  -16.0768   24.5462 C   0  0  2  0  0  0  0  0  0  0  0  0
    6.0817  -17.3676   25.1691 N   0  0  0  0  0  0  0  0  0  0  0  0
    7.2992  -16.1870   23.4375 C   0  0  0  0  0  0  0  0  0  0  0  0
    7.6728  -17.3269   23.0077 O   0  0  0  0  0  0  0  0  0  0  0  0
    7.5514  -11.9145   20.0522 C   0  0  0  0  0  0  0  0  0  0  0  0
    7.4607  -13.3841   20.4028 C   0  0  0  0  0  0  0  0  0  0  0  0
    8.8196  -13.9278   20.8273 C   0  0  2  0  0  0  0  0  0  0  0  0
    9.7334  -14.1031   19.6374 C   0  0  0  0  0  0  0  0  0  0  0  0
    8.6843  -15.2125   21.5952 C   0  0  2  0  0  0  0  0  0  0  0  0
    7.8937  -15.0715   22.7913 N   0  0  0  0  0  0  0  0  0  0  0  0
   10.0366  -15.7206   21.9440 C   0  0  0  0  0  0  0  0  0  0  0  0
   11.0154  -15.2265   21.3196 O   0  0  0  0  0  0  0  0  0  0  0  0
   11.4089  -14.9124   30.4141 O   0  0  0  0  0  0  0  0  0  0  0  0
   11.0870  -15.0432   29.0807 C   0  0  0  0  0  0  0  0  0  0  0  0
   10.8037  -16.2581   28.4921 C   0  0  0  0  0  0  0  0  0  0  0  0
   10.4869  -16.3457   27.1580 C   0  0  0  0  0  0  0  0  0  0  0  0
   10.4383  -15.2166   26.3458 C   0  0  0  0  0  0  0  0  0  0  0  0
   10.1157  -15.3197   24.9098 C   0  0  0  0  0  0  0  0  0  0  0  0
   10.9297  -16.3722   24.2026 C   0  0  2  0  0  0  0  0  0  0  0  0
   10.2964  -16.7093   22.9173 N   0  0  0  0  0  0  0  0  0  0  0  0
   11.0403  -17.5961   25.0085 C   0  0  0  0  0  0  0  0  0  0  0  0
   10.1774  -18.5054   24.9251 O   0  0  0  0  0  0  0  0  0  0  0  0
   10.7201  -14.0054   26.9285 C   0  0  0  0  0  0  0  0  0  0  0  0
   11.0372  -13.9199   28.2659 C   0  0  0  0  0  0  0  0  0  0  0  0
   12.0948  -17.7874   25.8802 O   0  0  0  0  0  0  0  0  0  0  0  0
  1  2  1  0
  3  4  1  0
  3  2  1  0
  5  4  1  0
  5  6  1  1
  7  5  1  0
  8  7  2  0
  9 10  1  0
 10 11  1  0
 11 12  1  6
 11 13  1  0
 13 14  1  1
 14  7  1  0
 15 24  1  0
 15 13  1  0
 16 15  2  0
 18 17  1  0
 19 18  2  0
 20 19  1  0
 21 27  1  0
 21 20  2  0
 23 22  1  1
 22 21  1  0
 23 24  1  0
 23 25  1  0
 25 29  1  0
 26 25  2  0
 27 28  2  0
 28 18  1  0
M  END
$$$$
