MIY.pdb
     RDKit          3D

 29 29  0  0  1  0  0  0  0  0999 V2000
    4.6216  -21.5773   25.4236 C   0  0  0  0  0  0  0  0  0  0  0  0
    3.8263  -21.3120   23.8303 S   0  0  0  0  0  0  0  0  0  0  0  0
    4.9695  -20.5149   22.6351 C   0  0  0  0  0  0  0  0  0  0  0  0
    5.0692  -19.0450   22.9076 C   0  0  0  0  0  0  0  0  0  0  0  0
    6.4345  -18.6758   23.3686 C   0  0  2  0  0  0  0  0  0  0  0  0
    6.7413  -19.1594   24.7012 N   0  0  0  0  0  0  0  0  0  0  0  0
    6.7481  -17.2206   23.2467 C   0  0  0  0  0  0  0  0  0  0  0  0
    6.6913  -16.6338   22.1171 O   0  0  0  0  0  0  0  0  0  0  0  0
    5.2409  -13.5772   26.6468 C   0  0  0  0  0  0  0  0  0  0  0  0
    5.6884  -14.0467   25.2793 C   0  0  0  0  0  0  0  0  0  0  0  0
    7.2090  -14.0957   25.1907 C   0  0  2  0  0  0  0  0  0  0  0  0
    7.7854  -12.7233   24.9339 C   0  0  0  0  0  0  0  0  0  0  0  0
    7.6696  -15.0760   24.1489 C   0  0  2  0  0  0  0  0  0  0  0  0
    7.1242  -16.3958   24.3393 N   0  0  0  0  0  0  0  0  0  0  0  0
    9.1543  -15.1400   24.1575 C   0  0  0  0  0  0  0  0  0  0  0  0
    9.7762  -14.1240   23.7418 O   0  0  0  0  0  0  0  0  0  0  0  0
    9.6766  -14.2152   30.5560 O   0  0  0  0  0  0  0  0  0  0  0  0
   10.2062  -14.8206   29.4372 C   0  0  0  0  0  0  0  0  0  0  0  0
   10.7155  -14.1113   28.3694 C   0  0  0  0  0  0  0  0  0  0  0  0
   11.2352  -14.7537   27.2716 C   0  0  0  0  0  0  0  0  0  0  0  0
   11.2701  -16.1425   27.1898 C   0  0  0  0  0  0  0  0  0  0  0  0
   11.8125  -16.8260   26.0001 C   0  0  0  0  0  0  0  0  0  0  0  0
   11.3736  -16.1863   24.7083 C   0  0  2  0  0  0  0  0  0  0  0  0
    9.9075  -16.2506   24.5954 N   0  0  0  0  0  0  0  0  0  0  0  0
   11.9657  -16.8633   23.5462 C   0  0  0  0  0  0  0  0  0  0  0  0
   13.2103  -16.8860   23.3759 O   0  0  0  0  0  0  0  0  0  0  0  0
   10.7637  -16.8518   28.2511 C   0  0  0  0  0  0  0  0  0  0  0  0
   10.2434  -16.2060   29.3505 C   0  0  0  0  0  0  0  0  0  0  0  0
   11.1758  -17.4971   22.6067 O   0  0  0  0  0  0  0  0  0  0  0  0
  1  2  1  0
  3  4  1  0
  3  2  1  0
  5  4  1  0
  5  6  1  1
  7  5  1  0
  8  7  2  0
  9 10  1  0
 10 11  1  0
 11 12  1  6
 11 13  1  0
 13 14  1  1
 14  7  1  0
 15 24  1  0
 15 13  1  0
 16 15  2  0
 18 17  1  0
 19 18  2  0
 20 19  1  0
 21 27  1  0
 21 20  2  0
 23 22  1  1
 22 21  1  0
 23 24  1  0
 23 25  1  0
 25 29  1  0
 26 25  2  0
 27 28  2  0
 28 18  1  0
M  END
$$$$
