MIY.pdb
     RDKit          3D

 29 29  0  0  1  0  0  0  0  0999 V2000
    6.6692  -12.6665   26.9800 C   0  0  0  0  0  0  0  0  0  0  0  0
    6.0945  -14.1619   27.8013 S   0  0  0  0  0  0  0  0  0  0  0  0
    5.6967  -15.4818   26.5886 C   0  0  0  0  0  0  0  0  0  0  0  0
    6.7563  -15.5577   25.5321 C   0  0  0  0  0  0  0  0  0  0  0  0
    6.2904  -16.3467   24.3602 C   0  0  2  0  0  0  0  0  0  0  0  0
    5.8560  -17.6867   24.7056 N   0  0  0  0  0  0  0  0  0  0  0  0
    7.2568  -16.3788   23.2218 C   0  0  0  0  0  0  0  0  0  0  0  0
    7.5386  -17.4750   22.6366 O   0  0  0  0  0  0  0  0  0  0  0  0
    7.6738  -11.9961   19.8652 C   0  0  0  0  0  0  0  0  0  0  0  0
    7.5678  -13.4453   20.2887 C   0  0  0  0  0  0  0  0  0  0  0  0
    8.8890  -13.9434   20.8620 C   0  0  2  0  0  0  0  0  0  0  0  0
    9.9631  -13.9862   19.8007 C   0  0  0  0  0  0  0  0  0  0  0  0
    8.7329  -15.2838   21.5235 C   0  0  2  0  0  0  0  0  0  0  0  0
    7.9215  -15.2323   22.7128 N   0  0  0  0  0  0  0  0  0  0  0  0
   10.0760  -15.8270   21.8548 C   0  0  0  0  0  0  0  0  0  0  0  0
   11.0456  -15.4329   21.1502 O   0  0  0  0  0  0  0  0  0  0  0  0
   11.5060  -14.5883   30.2659 O   0  0  0  0  0  0  0  0  0  0  0  0
   11.1882  -14.7607   28.9363 C   0  0  0  0  0  0  0  0  0  0  0  0
   10.5347  -15.8777   28.4589 C   0  0  0  0  0  0  0  0  0  0  0  0
   10.2358  -16.0112   27.1244 C   0  0  0  0  0  0  0  0  0  0  0  0
   10.5784  -15.0288   26.2001 C   0  0  0  0  0  0  0  0  0  0  0  0
   10.2712  -15.1867   24.7657 C   0  0  0  0  0  0  0  0  0  0  0  0
   11.0194  -16.3303   24.1308 C   0  0  2  0  0  0  0  0  0  0  0  0
   10.3364  -16.7452   22.8947 N   0  0  0  0  0  0  0  0  0  0  0  0
   11.1005  -17.4859   25.0349 C   0  0  0  0  0  0  0  0  0  0  0  0
   10.1331  -18.2777   25.1606 O   0  0  0  0  0  0  0  0  0  0  0  0
   11.2293  -13.9154   26.6718 C   0  0  0  0  0  0  0  0  0  0  0  0
   11.5277  -13.7836   28.0098 C   0  0  0  0  0  0  0  0  0  0  0  0
   12.2404  -17.7403   25.7726 O   0  0  0  0  0  0  0  0  0  0  0  0
  1  2  1  0
  3  4  1  0
  3  2  1  0
  5  4  1  0
  5  6  1  1
  7  5  1  0
  8  7  2  0
  9 10  1  0
 10 11  1  0
 11 12  1  6
 11 13  1  0
 13 14  1  1
 14  7  1  0
 15 24  1  0
 15 13  1  0
 16 15  2  0
 18 17  1  0
 19 18  2  0
 20 19  1  0
 21 27  1  0
 21 20  2  0
 23 22  1  1
 22 21  1  0
 23 24  1  0
 23 25  1  0
 25 29  1  0
 26 25  2  0
 27 28  2  0
 28 18  1  0
M  END
$$$$
