MIY.pdb
     RDKit          3D

 29 29  0  0  1  0  0  0  0  0999 V2000
    7.8950  -11.6175   21.7312 C   0  0  0  0  0  0  0  0  0  0  0  0
    7.8594  -12.2622   20.0505 S   0  0  0  0  0  0  0  0  0  0  0  0
    7.1731  -13.9644   20.0001 C   0  0  0  0  0  0  0  0  0  0  0  0
    7.4553  -14.6802   21.2857 C   0  0  0  0  0  0  0  0  0  0  0  0
    8.0782  -16.0077   21.0355 C   0  0  2  0  0  0  0  0  0  0  0  0
    7.2859  -16.8602   20.1700 N   0  0  0  0  0  0  0  0  0  0  0  0
    8.4809  -16.7373   22.2750 C   0  0  0  0  0  0  0  0  0  0  0  0
    7.6374  -17.4413   22.9203 O   0  0  0  0  0  0  0  0  0  0  0  0
   12.3729  -20.1411   22.2507 C   0  0  0  0  0  0  0  0  0  0  0  0
   11.1219  -19.3476   22.5606 C   0  0  0  0  0  0  0  0  0  0  0  0
   11.3655  -18.3713   23.7051 C   0  0  2  0  0  0  0  0  0  0  0  0
   11.7880  -19.0966   24.9609 C   0  0  0  0  0  0  0  0  0  0  0  0
   10.1611  -17.5097   23.9611 C   0  0  2  0  0  0  0  0  0  0  0  0
    9.7906  -16.7091   22.8220 N   0  0  0  0  0  0  0  0  0  0  0  0
   10.4264  -16.6295   25.1287 C   0  0  0  0  0  0  0  0  0  0  0  0
   11.2385  -15.6788   24.9596 O   0  0  0  0  0  0  0  0  0  0  0  0
    6.4131  -11.7230   24.6989 O   0  0  0  0  0  0  0  0  0  0  0  0
    7.0715  -12.5738   25.5598 C   0  0  0  0  0  0  0  0  0  0  0  0
    8.1271  -12.1720   26.3517 C   0  0  0  0  0  0  0  0  0  0  0  0
    8.7571  -13.0524   27.1978 C   0  0  0  0  0  0  0  0  0  0  0  0
    8.3591  -14.3826   27.2921 C   0  0  0  0  0  0  0  0  0  0  0  0
    9.0519  -15.3274   28.1888 C   0  0  0  0  0  0  0  0  0  0  0  0
   10.2583  -15.9632   27.5477 C   0  0  2  0  0  0  0  0  0  0  0  0
    9.8364  -16.7848   26.4016 N   0  0  0  0  0  0  0  0  0  0  0  0
   10.9831  -16.8177   28.4984 C   0  0  0  0  0  0  0  0  0  0  0  0
   10.9885  -18.0676   28.3704 O   0  0  0  0  0  0  0  0  0  0  0  0
    7.3086  -14.7861   26.5049 C   0  0  0  0  0  0  0  0  0  0  0  0
    6.6784  -13.9020   25.6577 C   0  0  0  0  0  0  0  0  0  0  0  0
   11.6820  -16.2764   29.5600 O   0  0  0  0  0  0  0  0  0  0  0  0
  1  2  1  0
  3  4  1  0
  3  2  1  0
  5  4  1  0
  5  6  1  1
  7  5  1  0
  8  7  2  0
  9 10  1  0
 10 11  1  0
 11 12  1  1
 11 13  1  0
 13 14  1  6
 14  7  1  0
 15 24  1  0
 15 13  1  0
 16 15  2  0
 18 17  1  0
 19 18  2  0
 20 19  1  0
 21 27  1  0
 21 20  2  0
 23 22  1  1
 22 21  1  0
 23 24  1  0
 23 25  1  0
 25 29  1  0
 26 25  2  0
 27 28  2  0
 28 18  1  0
M  END
$$$$
