MIY.pdb
     RDKit          3D

 29 29  0  0  1  0  0  0  0  0999 V2000
    4.7979  -20.1930   22.4836 C   0  0  0  0  0  0  0  0  0  0  0  0
    3.8247  -19.0745   21.4624 S   0  0  0  0  0  0  0  0  0  0  0  0
    4.7636  -17.5501   21.0556 C   0  0  0  0  0  0  0  0  0  0  0  0
    5.7331  -17.2252   22.1508 C   0  0  0  0  0  0  0  0  0  0  0  0
    6.4836  -15.9765   21.8505 C   0  0  2  0  0  0  0  0  0  0  0  0
    7.2305  -16.0396   20.6088 N   0  0  0  0  0  0  0  0  0  0  0  0
    7.3522  -15.5015   22.9689 C   0  0  0  0  0  0  0  0  0  0  0  0
    8.5514  -15.9166   23.0847 O   0  0  0  0  0  0  0  0  0  0  0  0
    6.2894  -10.8825   25.9288 C   0  0  0  0  0  0  0  0  0  0  0  0
    7.0668  -11.9464   25.1841 C   0  0  0  0  0  0  0  0  0  0  0  0
    7.1534  -13.2299   26.0011 C   0  0  2  0  0  0  0  0  0  0  0  0
    7.9879  -13.0307   27.2443 C   0  0  0  0  0  0  0  0  0  0  0  0
    7.6782  -14.3730   25.1786 C   0  0  2  0  0  0  0  0  0  0  0  0
    6.9314  -14.5807   23.9642 N   0  0  0  0  0  0  0  0  0  0  0  0
    7.6627  -15.6138   25.9963 C   0  0  0  0  0  0  0  0  0  0  0  0
    6.5431  -16.1641   26.1854 O   0  0  0  0  0  0  0  0  0  0  0  0
    7.9214  -23.6770   28.7350 O   0  0  0  0  0  0  0  0  0  0  0  0
    8.0097  -22.4407   28.1331 C   0  0  0  0  0  0  0  0  0  0  0  0
    9.0839  -22.0581   27.3569 C   0  0  0  0  0  0  0  0  0  0  0  0
    9.1333  -20.8150   26.7737 C   0  0  0  0  0  0  0  0  0  0  0  0
    8.1056  -19.8916   26.9402 C   0  0  0  0  0  0  0  0  0  0  0  0
    8.1735  -18.5516   26.3265 C   0  0  0  0  0  0  0  0  0  0  0  0
    8.7268  -17.5081   27.2623 C   0  0  2  0  0  0  0  0  0  0  0  0
    8.8055  -16.2117   26.5697 N   0  0  0  0  0  0  0  0  0  0  0  0
   10.0695  -17.8711   27.7367 C   0  0  0  0  0  0  0  0  0  0  0  0
   10.2310  -18.4488   28.8406 O   0  0  0  0  0  0  0  0  0  0  0  0
    7.0347  -20.2691   27.7125 C   0  0  0  0  0  0  0  0  0  0  0  0
    6.9870  -21.5156   28.2960 C   0  0  0  0  0  0  0  0  0  0  0  0
   11.1948  -17.5916   26.9857 O   0  0  0  0  0  0  0  0  0  0  0  0
  1  2  1  0
  3  4  1  0
  3  2  1  0
  5  4  1  0
  5  6  1  6
  7  5  1  0
  8  7  2  0
  9 10  1  0
 10 11  1  0
 11 12  1  1
 11 13  1  0
 13 14  1  6
 14  7  1  0
 15 24  1  0
 15 13  1  0
 16 15  2  0
 18 17  1  0
 19 18  2  0
 20 19  1  0
 21 27  1  0
 21 20  2  0
 23 22  1  6
 22 21  1  0
 23 24  1  0
 23 25  1  0
 25 29  1  0
 26 25  2  0
 27 28  2  0
 28 18  1  0
M  END
$$$$
