MIY.pdb
     RDKit          3D

 29 29  0  0  1  0  0  0  0  0999 V2000
    7.7356  -19.0212   29.1157 C   0  0  0  0  0  0  0  0  0  0  0  0
    7.8045  -20.2983   27.8486 S   0  0  0  0  0  0  0  0  0  0  0  0
    7.4326  -19.6137   26.1861 C   0  0  0  0  0  0  0  0  0  0  0  0
    6.1360  -18.8633   26.2078 C   0  0  0  0  0  0  0  0  0  0  0  0
    5.8800  -18.1960   24.9032 C   0  0  2  0  0  0  0  0  0  0  0  0
    5.9064  -19.1084   23.7761 N   0  0  0  0  0  0  0  0  0  0  0  0
    6.7465  -17.0072   24.6443 C   0  0  0  0  0  0  0  0  0  0  0  0
    7.6294  -17.0316   23.7259 O   0  0  0  0  0  0  0  0  0  0  0  0
    5.4259  -12.2858   27.2122 C   0  0  0  0  0  0  0  0  0  0  0  0
    5.7284  -13.2602   26.0943 C   0  0  0  0  0  0  0  0  0  0  0  0
    7.2303  -13.4745   25.9499 C   0  0  2  0  0  0  0  0  0  0  0  0
    7.9076  -12.2408   25.4013 C   0  0  0  0  0  0  0  0  0  0  0  0
    7.5370  -14.6777   25.1034 C   0  0  2  0  0  0  0  0  0  0  0  0
    6.6648  -15.7921   25.3737 N   0  0  0  0  0  0  0  0  0  0  0  0
    8.9506  -15.0824   25.3193 C   0  0  0  0  0  0  0  0  0  0  0  0
    9.3945  -15.0149   26.4985 O   0  0  0  0  0  0  0  0  0  0  0  0
   11.3407  -14.8243   30.9173 O   0  0  0  0  0  0  0  0  0  0  0  0
   11.3032  -15.3176   29.6313 C   0  0  0  0  0  0  0  0  0  0  0  0
   10.7906  -14.6042   28.5678 C   0  0  0  0  0  0  0  0  0  0  0  0
   10.7718  -15.1326   27.2996 C   0  0  0  0  0  0  0  0  0  0  0  0
   11.2671  -16.4058   27.0342 C   0  0  0  0  0  0  0  0  0  0  0  0
   11.2269  -16.9746   25.6735 C   0  0  0  0  0  0  0  0  0  0  0  0
   11.2103  -15.9181   24.5991 C   0  0  2  0  0  0  0  0  0  0  0  0
    9.8209  -15.5325   24.3033 N   0  0  0  0  0  0  0  0  0  0  0  0
   11.8386  -16.4016   23.3618 C   0  0  0  0  0  0  0  0  0  0  0  0
   11.1649  -16.5585   22.3130 O   0  0  0  0  0  0  0  0  0  0  0  0
   11.7781  -17.1189   28.0907 C   0  0  0  0  0  0  0  0  0  0  0  0
   11.7962  -16.5873   29.3610 C   0  0  0  0  0  0  0  0  0  0  0  0
   13.1873  -16.6966   23.3106 O   0  0  0  0  0  0  0  0  0  0  0  0
  1  2  1  0
  3  4  1  0
  3  2  1  0
  5  4  1  0
  5  6  1  6
  7  5  1  0
  8  7  2  0
  9 10  1  0
 10 11  1  0
 11 12  1  6
 11 13  1  0
 13 14  1  1
 14  7  1  0
 15 24  1  0
 15 13  1  0
 16 15  2  0
 18 17  1  0
 19 18  2  0
 20 19  1  0
 21 27  1  0
 21 20  2  0
 23 22  1  1
 22 21  1  0
 23 24  1  0
 23 25  1  0
 25 29  1  0
 26 25  2  0
 27 28  2  0
 28 18  1  0
M  END
$$$$
