MIY.pdb
     RDKit          3D

 29 29  0  0  1  0  0  0  0  0999 V2000
    8.2064  -18.7594   27.7879 C   0  0  0  0  0  0  0  0  0  0  0  0
    7.2179  -20.2282   27.4608 S   0  0  0  0  0  0  0  0  0  0  0  0
    6.4259  -20.1482   25.8063 C   0  0  0  0  0  0  0  0  0  0  0  0
    7.1993  -19.2399   24.8998 C   0  0  0  0  0  0  0  0  0  0  0  0
    6.5433  -19.1231   23.5699 C   0  0  2  0  0  0  0  0  0  0  0  0
    6.3847  -20.3963   22.8935 N   0  0  0  0  0  0  0  0  0  0  0  0
    7.1727  -18.1157   22.6643 C   0  0  0  0  0  0  0  0  0  0  0  0
    8.1996  -18.4135   21.9713 O   0  0  0  0  0  0  0  0  0  0  0  0
    6.8563  -12.4632   20.1063 C   0  0  0  0  0  0  0  0  0  0  0  0
    7.6665  -13.5613   20.7609 C   0  0  0  0  0  0  0  0  0  0  0  0
    6.7579  -14.5709   21.4519 C   0  0  2  0  0  0  0  0  0  0  0  0
    5.9335  -13.9129   22.5332 C   0  0  0  0  0  0  0  0  0  0  0  0
    7.5395  -15.7305   22.0022 C   0  0  2  0  0  0  0  0  0  0  0  0
    6.6987  -16.7871   22.5044 N   0  0  0  0  0  0  0  0  0  0  0  0
    8.4388  -15.2478   23.0825 C   0  0  0  0  0  0  0  0  0  0  0  0
    7.9958  -14.3376   23.8357 O   0  0  0  0  0  0  0  0  0  0  0  0
    5.8387  -11.6194   26.8532 O   0  0  0  0  0  0  0  0  0  0  0  0
    6.7794  -12.5894   26.5835 C   0  0  0  0  0  0  0  0  0  0  0  0
    6.4897  -13.9381   26.5860 C   0  0  0  0  0  0  0  0  0  0  0  0
    7.4573  -14.8741   26.3115 C   0  0  0  0  0  0  0  0  0  0  0  0
    8.7667  -14.5034   26.0202 C   0  0  0  0  0  0  0  0  0  0  0  0
    9.8053  -15.5144   25.7446 C   0  0  0  0  0  0  0  0  0  0  0  0
   10.5445  -15.2563   24.4571 C   0  0  2  0  0  0  0  0  0  0  0  0
    9.7422  -15.7348   23.3195 N   0  0  0  0  0  0  0  0  0  0  0  0
   11.8443  -15.9417   24.4382 C   0  0  0  0  0  0  0  0  0  0  0  0
   12.9156  -15.3003   24.5776 O   0  0  0  0  0  0  0  0  0  0  0  0
    9.0587  -13.1616   26.0171 C   0  0  0  0  0  0  0  0  0  0  0  0
    8.0873  -12.2250   26.2923 C   0  0  0  0  0  0  0  0  0  0  0  0
   11.9307  -17.3100   24.2690 O   0  0  0  0  0  0  0  0  0  0  0  0
  1  2  1  0
  3  4  1  0
  3  2  1  0
  5  4  1  0
  5  6  1  6
  7  5  1  0
  8  7  2  0
  9 10  1  0
 10 11  1  0
 11 12  1  1
 11 13  1  0
 13 14  1  1
 14  7  1  0
 15 24  1  0
 15 13  1  0
 16 15  2  0
 18 17  1  0
 19 18  2  0
 20 19  1  0
 21 27  1  0
 21 20  2  0
 23 22  1  1
 22 21  1  0
 23 24  1  0
 23 25  1  0
 25 29  1  0
 26 25  2  0
 27 28  2  0
 28 18  1  0
M  END
$$$$
