MIY.pdb
     RDKit          3D

 29 29  0  0  1  0  0  0  0  0999 V2000
    6.5614  -11.7765   26.5937 C   0  0  0  0  0  0  0  0  0  0  0  0
    6.3110  -13.2490   27.5989 S   0  0  0  0  0  0  0  0  0  0  0  0
    5.9034  -14.7076   26.5611 C   0  0  0  0  0  0  0  0  0  0  0  0
    6.9889  -14.9559   25.5587 C   0  0  0  0  0  0  0  0  0  0  0  0
    6.5537  -15.9358   24.5276 C   0  0  2  0  0  0  0  0  0  0  0  0
    6.2094  -17.2332   25.0770 N   0  0  0  0  0  0  0  0  0  0  0  0
    7.5012  -16.0789   23.3819 C   0  0  0  0  0  0  0  0  0  0  0  0
    7.9488  -17.2234   23.0451 O   0  0  0  0  0  0  0  0  0  0  0  0
    7.4558  -12.3347   19.3681 C   0  0  0  0  0  0  0  0  0  0  0  0
    7.4962  -13.7013   20.0172 C   0  0  0  0  0  0  0  0  0  0  0  0
    8.8913  -14.0123   20.5458 C   0  0  2  0  0  0  0  0  0  0  0  0
    9.8635  -14.2496   19.4143 C   0  0  0  0  0  0  0  0  0  0  0  0
    8.8748  -15.1782   21.4940 C   0  0  2  0  0  0  0  0  0  0  0  0
    7.9688  -14.9913   22.5985 N   0  0  0  0  0  0  0  0  0  0  0  0
   10.2498  -15.4136   22.0065 C   0  0  0  0  0  0  0  0  0  0  0  0
   11.1441  -14.5982   21.6496 O   0  0  0  0  0  0  0  0  0  0  0  0
   10.8007  -15.0550   30.5580 O   0  0  0  0  0  0  0  0  0  0  0  0
   10.5951  -15.1409   29.1983 C   0  0  0  0  0  0  0  0  0  0  0  0
   10.8310  -14.0911   28.3351 C   0  0  0  0  0  0  0  0  0  0  0  0
   10.6131  -14.2177   26.9845 C   0  0  0  0  0  0  0  0  0  0  0  0
   10.1465  -15.4063   26.4308 C   0  0  0  0  0  0  0  0  0  0  0  0
    9.8969  -15.5298   24.9820 C   0  0  0  0  0  0  0  0  0  0  0  0
   11.0096  -16.2410   24.2562 C   0  0  2  0  0  0  0  0  0  0  0  0
   10.6182  -16.4779   22.8572 N   0  0  0  0  0  0  0  0  0  0  0  0
   11.3195  -17.5331   24.8840 C   0  0  0  0  0  0  0  0  0  0  0  0
   12.3404  -17.6747   25.6024 O   0  0  0  0  0  0  0  0  0  0  0  0
    9.9104  -16.4535   27.2872 C   0  0  0  0  0  0  0  0  0  0  0  0
   10.1296  -16.3244   28.6407 C   0  0  0  0  0  0  0  0  0  0  0  0
   10.4996  -18.6308   24.7070 O   0  0  0  0  0  0  0  0  0  0  0  0
  1  2  1  0
  3  4  1  0
  3  2  1  0
  5  4  1  0
  5  6  1  1
  7  5  1  0
  8  7  2  0
  9 10  1  0
 10 11  1  0
 11 12  1  6
 11 13  1  0
 13 14  1  1
 14  7  1  0
 15 24  1  0
 15 13  1  0
 16 15  2  0
 18 17  1  0
 19 18  2  0
 20 19  1  0
 21 27  1  0
 21 20  2  0
 23 22  1  1
 22 21  1  0
 23 24  1  0
 23 25  1  0
 25 29  1  0
 26 25  2  0
 27 28  2  0
 28 18  1  0
M  END
$$$$
