MIY.pdb
     RDKit          3D

 29 29  0  0  1  0  0  0  0  0999 V2000
    8.1186  -11.4904   18.9811 C   0  0  0  0  0  0  0  0  0  0  0  0
    7.9073  -13.0461   18.1000 S   0  0  0  0  0  0  0  0  0  0  0  0
    7.6022  -14.4368   19.2593 C   0  0  0  0  0  0  0  0  0  0  0  0
    8.1025  -14.0946   20.6295 C   0  0  0  0  0  0  0  0  0  0  0  0
    7.8693  -15.2139   21.5812 C   0  0  2  0  0  0  0  0  0  0  0  0
    6.4838  -15.6389   21.6399 N   0  0  0  0  0  0  0  0  0  0  0  0
    8.4090  -14.9724   22.9528 C   0  0  0  0  0  0  0  0  0  0  0  0
    9.6431  -14.7099   23.1309 O   0  0  0  0  0  0  0  0  0  0  0  0
    5.3432  -12.2547   26.4512 C   0  0  0  0  0  0  0  0  0  0  0  0
    6.4353  -12.8464   25.5863 C   0  0  0  0  0  0  0  0  0  0  0  0
    7.1471  -13.9833   26.3095 C   0  0  2  0  0  0  0  0  0  0  0  0
    7.7883  -13.4999   27.5890 C   0  0  0  0  0  0  0  0  0  0  0  0
    8.1572  -14.6548   25.4222 C   0  0  2  0  0  0  0  0  0  0  0  0
    7.6222  -15.0142   24.1337 N   0  0  0  0  0  0  0  0  0  0  0  0
    8.6811  -15.8667   26.1044 C   0  0  0  0  0  0  0  0  0  0  0  0
    7.8527  -16.7803   26.3706 O   0  0  0  0  0  0  0  0  0  0  0  0
   10.7720  -18.6796   20.8113 O   0  0  0  0  0  0  0  0  0  0  0  0
   11.0097  -18.4437   22.1479 C   0  0  0  0  0  0  0  0  0  0  0  0
   11.7152  -17.3495   22.6037 C   0  0  0  0  0  0  0  0  0  0  0  0
   11.9305  -17.1505   23.9460 C   0  0  0  0  0  0  0  0  0  0  0  0
   11.4480  -18.0412   24.9004 C   0  0  0  0  0  0  0  0  0  0  0  0
   11.6987  -17.8316   26.3391 C   0  0  0  0  0  0  0  0  0  0  0  0
   10.4859  -17.3239   27.0753 C   0  0  2  0  0  0  0  0  0  0  0  0
   10.0303  -16.0617   26.4706 N   0  0  0  0  0  0  0  0  0  0  0  0
   10.7808  -17.0865   28.4952 C   0  0  0  0  0  0  0  0  0  0  0  0
   10.7191  -15.9307   28.9840 O   0  0  0  0  0  0  0  0  0  0  0  0
   10.7454  -19.1318   24.4501 C   0  0  0  0  0  0  0  0  0  0  0  0
   10.5306  -19.3292   23.1042 C   0  0  0  0  0  0  0  0  0  0  0  0
   11.1326  -18.1235   29.3374 O   0  0  0  0  0  0  0  0  0  0  0  0
  1  2  1  0
  3  4  1  0
  3  2  1  0
  5  4  1  0
  5  6  1  1
  7  5  1  0
  8  7  2  0
  9 10  1  0
 10 11  1  0
 11 12  1  1
 11 13  1  0
 13 14  1  6
 14  7  1  0
 15 24  1  0
 15 13  1  0
 16 15  2  0
 18 17  1  0
 19 18  2  0
 20 19  1  0
 21 27  1  0
 21 20  2  0
 23 22  1  6
 22 21  1  0
 23 24  1  0
 23 25  1  0
 25 29  1  0
 26 25  2  0
 27 28  2  0
 28 18  1  0
M  END
$$$$
