PTF.pdb
     RDKit          3D

 26 27  0  0  1  0  0  0  0  0999 V2000
    8.9545  -14.4375   19.2788 N   0  0  0  0  0  0  0  0  0  0  0  0
    9.0375  -13.4671   18.1887 C   0  0  0  0  0  0  0  0  0  0  0  0
    7.8097  -12.6194   18.2951 C   0  0  0  0  0  0  0  0  0  0  0  0
    7.1861  -13.0082   19.6272 C   0  0  0  0  0  0  0  0  0  0  0  0
    8.3587  -13.6555   20.3353 C   0  0  1  0  0  0  0  0  0  0  0  0
    7.9335  -14.4671   21.4850 C   0  0  0  0  0  0  0  0  0  0  0  0
    7.2982  -13.9297   22.4052 O   0  0  0  0  0  0  0  0  0  0  0  0
    7.4466  -19.0333   23.4251 C   0  0  0  0  0  0  0  0  0  0  0  0
    7.9840  -18.1197   22.3462 C   0  0  1  0  0  0  0  0  0  0  0  0
    7.4930  -18.4397   21.0863 O   0  0  0  0  0  0  0  0  0  0  0  0
    7.7709  -16.6655   22.7044 C   0  0  2  0  0  0  0  0  0  0  0  0
    8.2228  -15.8589   21.5887 N   0  0  0  0  0  0  0  0  0  0  0  0
    8.5586  -16.2700   23.8964 C   0  0  0  0  0  0  0  0  0  0  0  0
    9.7672  -15.8886   23.7768 O   0  0  0  0  0  0  0  0  0  0  0  0
    8.0284  -16.2909   25.2139 N   0  0  0  0  0  0  0  0  0  0  0  0
    8.8636  -15.9442   26.3198 C   0  0  1  0  0  0  0  0  0  0  0  0
    8.1812  -15.0494   27.3234 C   0  0  0  0  0  0  0  0  0  0  0  0
    7.6580  -13.8123   26.7576 C   0  0  0  0  0  0  0  0  0  0  0  0
    8.4726  -12.7115   26.6001 C   0  0  0  0  0  0  0  0  0  0  0  0
    7.9693  -11.5228   26.0562 C   0  0  0  0  0  0  0  0  0  0  0  0
    6.6564  -11.4201   25.6661 C   0  0  0  0  0  0  0  0  0  0  0  0
    5.8440  -12.5155   25.8223 C   0  0  0  0  0  0  0  0  0  0  0  0
    6.3483  -13.6810   26.3585 C   0  0  0  0  0  0  0  0  0  0  0  0
    9.3757  -17.1923   26.9460 C   0  0  0  0  0  0  0  0  0  0  0  0
   10.2600  -17.1630   27.8254 O   0  0  0  0  0  0  0  0  0  0  0  0
    8.8804  -18.4339   26.5668 O   0  0  0  0  0  0  0  0  0  0  0  0
  1  2  1  0
  1  5  1  0
  2  3  1  0
  3  4  1  0
  5  4  1  0
  5  6  1  1
  6  7  2  0
  9  8  1  1
 10  9  1  0
 11  9  1  0
 12  6  1  0
 11 12  1  6
 13 11  1  0
 13 14  2  0
 15 13  1  0
 16 15  1  0
 16 17  1  1
 18 23  1  0
 18 17  1  0
 19 18  2  0
 20 21  2  0
 20 19  1  0
 21 22  1  0
 22 23  2  0
 24 26  1  0
 24 16  1  0
 25 24  2  0
M  END
$$$$
