PTF.pdb
     RDKit          3D

 26 27  0  0  1  0  0  0  0  0999 V2000
    8.7165  -14.9018   18.3476 N   0  0  0  0  0  0  0  0  0  0  0  0
    8.8204  -14.0761   17.1459 C   0  0  0  0  0  0  0  0  0  0  0  0
    7.9122  -12.9084   17.3664 C   0  0  0  0  0  0  0  0  0  0  0  0
    7.5047  -13.0066   18.8289 C   0  0  0  0  0  0  0  0  0  0  0  0
    8.5867  -13.9087   19.3867 C   0  0  1  0  0  0  0  0  0  0  0  0
    8.2154  -14.4808   20.6890 C   0  0  0  0  0  0  0  0  0  0  0  0
    8.0504  -13.7249   21.6590 O   0  0  0  0  0  0  0  0  0  0  0  0
    6.1962  -18.1259   20.9065 C   0  0  0  0  0  0  0  0  0  0  0  0
    7.2912  -17.9076   21.9267 C   0  0  1  0  0  0  0  0  0  0  0  0
    8.4447  -18.6228   21.6290 O   0  0  0  0  0  0  0  0  0  0  0  0
    7.5559  -16.4332   22.1380 C   0  0  2  0  0  0  0  0  0  0  0  0
    8.0350  -15.8808   20.8871 N   0  0  0  0  0  0  0  0  0  0  0  0
    8.6009  -16.2020   23.1639 C   0  0  0  0  0  0  0  0  0  0  0  0
    9.8330  -16.1975   22.8440 O   0  0  0  0  0  0  0  0  0  0  0  0
    8.3014  -15.9767   24.5339 N   0  0  0  0  0  0  0  0  0  0  0  0
    9.3642  -15.8057   25.4731 C   0  0  1  0  0  0  0  0  0  0  0  0
    9.7004  -14.3593   25.7345 C   0  0  0  0  0  0  0  0  0  0  0  0
    8.5378  -13.5112   25.9654 C   0  0  0  0  0  0  0  0  0  0  0  0
    7.8770  -12.9213   24.9093 C   0  0  0  0  0  0  0  0  0  0  0  0
    6.7596  -12.1063   25.1318 C   0  0  0  0  0  0  0  0  0  0  0  0
    6.2925  -11.8726   26.4021 C   0  0  0  0  0  0  0  0  0  0  0  0
    6.9496  -12.4593   27.4547 C   0  0  0  0  0  0  0  0  0  0  0  0
    8.0483  -13.2598   27.2260 C   0  0  0  0  0  0  0  0  0  0  0  0
    9.0212  -16.5315   26.7252 C   0  0  0  0  0  0  0  0  0  0  0  0
    7.8941  -17.0388   26.8947 O   0  0  0  0  0  0  0  0  0  0  0  0
    9.9521  -16.6659   27.7479 O   0  0  0  0  0  0  0  0  0  0  0  0
  1  2  1  0
  1  5  1  0
  2  3  1  0
  3  4  1  0
  5  4  1  0
  5  6  1  1
  6  7  2  0
  9  8  1  6
 10  9  1  0
 11  9  1  0
 12  6  1  0
 11 12  1  6
 13 11  1  0
 13 14  2  0
 15 13  1  0
 16 15  1  0
 16 17  1  1
 18 23  1  0
 18 17  1  0
 19 18  2  0
 20 21  2  0
 20 19  1  0
 21 22  1  0
 22 23  2  0
 24 26  1  0
 24 16  1  0
 25 24  2  0
M  END
$$$$
