PTF.pdb
     RDKit          3D

 26 27  0  0  1  0  0  0  0  0999 V2000
    9.0601  -14.9521   18.0663 N   0  0  0  0  0  0  0  0  0  0  0  0
    9.2635  -14.0665   16.9213 C   0  0  0  0  0  0  0  0  0  0  0  0
    8.2656  -12.9623   17.0698 C   0  0  0  0  0  0  0  0  0  0  0  0
    7.6848  -13.1514   18.4633 C   0  0  0  0  0  0  0  0  0  0  0  0
    8.7411  -14.0175   19.1187 C   0  0  1  0  0  0  0  0  0  0  0  0
    8.2450  -14.6695   20.3393 C   0  0  0  0  0  0  0  0  0  0  0  0
    7.9265  -13.9710   21.3139 O   0  0  0  0  0  0  0  0  0  0  0  0
    6.5358  -18.4517   20.3035 C   0  0  0  0  0  0  0  0  0  0  0  0
    7.5451  -18.2091   21.4034 C   0  0  1  0  0  0  0  0  0  0  0  0
    8.7572  -18.8438   21.1614 O   0  0  0  0  0  0  0  0  0  0  0  0
    7.7050  -16.7310   21.6830 C   0  0  2  0  0  0  0  0  0  0  0  0
    8.1130  -16.0843   20.4522 N   0  0  0  0  0  0  0  0  0  0  0  0
    8.7535  -16.4721   22.6986 C   0  0  0  0  0  0  0  0  0  0  0  0
    9.8396  -15.8924   22.3752 O   0  0  0  0  0  0  0  0  0  0  0  0
    8.6162  -16.8448   24.0623 N   0  0  0  0  0  0  0  0  0  0  0  0
    8.5081  -15.8341   25.0662 C   0  0  1  0  0  0  0  0  0  0  0  0
    7.5752  -14.7129   24.6837 C   0  0  0  0  0  0  0  0  0  0  0  0
    7.3706  -13.7250   25.7355 C   0  0  0  0  0  0  0  0  0  0  0  0
    6.0985  -13.3396   26.1003 C   0  0  0  0  0  0  0  0  0  0  0  0
    5.9025  -12.3900   27.1113 C   0  0  0  0  0  0  0  0  0  0  0  0
    6.9667  -11.8185   27.7650 C   0  0  0  0  0  0  0  0  0  0  0  0
    8.2341  -12.2013   27.4027 C   0  0  0  0  0  0  0  0  0  0  0  0
    8.4171  -13.1365   26.4066 C   0  0  0  0  0  0  0  0  0  0  0  0
    8.1132  -16.4719   26.3505 C   0  0  0  0  0  0  0  0  0  0  0  0
    8.7771  -16.3002   27.3926 O   0  0  0  0  0  0  0  0  0  0  0  0
    6.9868  -17.2817   26.4263 O   0  0  0  0  0  0  0  0  0  0  0  0
  1  2  1  0
  1  5  1  0
  2  3  1  0
  3  4  1  0
  5  4  1  0
  5  6  1  1
  6  7  2  0
  9  8  1  6
 10  9  1  0
 11  9  1  0
 12  6  1  0
 11 12  1  6
 13 11  1  0
 13 14  2  0
 15 13  1  0
 16 15  1  0
 16 17  1  6
 18 23  1  0
 18 17  1  0
 19 18  2  0
 20 21  2  0
 20 19  1  0
 21 22  1  0
 22 23  2  0
 24 26  1  0
 24 16  1  0
 25 24  2  0
M  END
$$$$
