PTF.pdb
     RDKit          3D

 26 27  0  0  1  0  0  0  0  0999 V2000
    9.1840  -14.5438   19.2374 N   0  0  0  0  0  0  0  0  0  0  0  0
    9.3967  -13.6547   18.0968 C   0  0  0  0  0  0  0  0  0  0  0  0
    8.1523  -12.8339   17.9742 C   0  0  0  0  0  0  0  0  0  0  0  0
    7.3619  -13.1396   19.2378 C   0  0  0  0  0  0  0  0  0  0  0  0
    8.4392  -13.7019   20.1426 C   0  0  1  0  0  0  0  0  0  0  0  0
    7.8768  -14.4372   21.2845 C   0  0  0  0  0  0  0  0  0  0  0  0
    7.0700  -13.8674   22.0353 O   0  0  0  0  0  0  0  0  0  0  0  0
    6.6210  -18.2323   21.0522 C   0  0  0  0  0  0  0  0  0  0  0  0
    7.5672  -18.0046   22.2100 C   0  0  1  0  0  0  0  0  0  0  0  0
    8.8390  -18.5069   21.9631 O   0  0  0  0  0  0  0  0  0  0  0  0
    7.5838  -16.5500   22.6250 C   0  0  2  0  0  0  0  0  0  0  0  0
    8.2222  -15.7906   21.5690 N   0  0  0  0  0  0  0  0  0  0  0  0
    8.3641  -16.3400   23.8679 C   0  0  0  0  0  0  0  0  0  0  0  0
    9.5817  -15.9727   23.8141 O   0  0  0  0  0  0  0  0  0  0  0  0
    7.8167  -16.5304   25.1647 N   0  0  0  0  0  0  0  0  0  0  0  0
    8.5904  -16.1935   26.3174 C   0  0  1  0  0  0  0  0  0  0  0  0
    7.8242  -15.3836   27.3325 C   0  0  0  0  0  0  0  0  0  0  0  0
    7.3941  -14.0777   26.8488 C   0  0  0  0  0  0  0  0  0  0  0  0
    8.2874  -13.0318   26.7600 C   0  0  0  0  0  0  0  0  0  0  0  0
    7.8735  -11.7769   26.2951 C   0  0  0  0  0  0  0  0  0  0  0  0
    6.5724  -11.5535   25.9162 C   0  0  0  0  0  0  0  0  0  0  0  0
    5.6817  -12.5942   26.0041 C   0  0  0  0  0  0  0  0  0  0  0  0
    6.0983  -13.8256   26.4628 C   0  0  0  0  0  0  0  0  0  0  0  0
    9.1450  -17.4416   26.9063 C   0  0  0  0  0  0  0  0  0  0  0  0
    8.7665  -18.5662   26.5212 O   0  0  0  0  0  0  0  0  0  0  0  0
   10.1062  -17.3900   27.9082 O   0  0  0  0  0  0  0  0  0  0  0  0
  1  2  1  0
  1  5  1  0
  2  3  1  0
  3  4  1  0
  5  4  1  0
  5  6  1  1
  6  7  2  0
  9  8  1  6
 10  9  1  0
 11  9  1  0
 12  6  1  0
 11 12  1  6
 13 11  1  0
 13 14  2  0
 15 13  1  0
 16 15  1  0
 16 17  1  1
 18 23  1  0
 18 17  1  0
 19 18  2  0
 20 21  2  0
 20 19  1  0
 21 22  1  0
 22 23  2  0
 24 26  1  0
 24 16  1  0
 25 24  2  0
M  END
$$$$
