PTF.pdb
     RDKit          3D

 26 27  0  0  1  0  0  0  0  0999 V2000
    8.7307  -15.1701   18.3100 N   0  0  0  0  0  0  0  0  0  0  0  0
    8.8982  -14.5102   17.0166 C   0  0  0  0  0  0  0  0  0  0  0  0
    8.0904  -13.2532   17.0857 C   0  0  0  0  0  0  0  0  0  0  0  0
    7.6815  -13.1367   18.5466 C   0  0  0  0  0  0  0  0  0  0  0  0
    8.6872  -14.0494   19.2182 C   0  0  1  0  0  0  0  0  0  0  0  0
    8.2746  -14.4241   20.5785 C   0  0  0  0  0  0  0  0  0  0  0  0
    8.1265  -13.5375   21.4336 O   0  0  0  0  0  0  0  0  0  0  0  0
    5.6514  -17.5048   21.0488 C   0  0  0  0  0  0  0  0  0  0  0  0
    6.7871  -17.5094   22.0476 C   0  0  1  0  0  0  0  0  0  0  0  0
    7.7432  -18.4758   21.7600 O   0  0  0  0  0  0  0  0  0  0  0  0
    7.3821  -16.1276   22.2059 C   0  0  2  0  0  0  0  0  0  0  0  0
    8.0350  -15.7762   20.9610 N   0  0  0  0  0  0  0  0  0  0  0  0
    8.4037  -16.0866   23.2794 C   0  0  0  0  0  0  0  0  0  0  0  0
    9.6350  -16.2634   23.0089 O   0  0  0  0  0  0  0  0  0  0  0  0
    8.0819  -15.8535   24.6430 N   0  0  0  0  0  0  0  0  0  0  0  0
    9.1253  -15.7884   25.6166 C   0  0  1  0  0  0  0  0  0  0  0  0
    9.4441  -14.3810   26.0539 C   0  0  0  0  0  0  0  0  0  0  0  0
    8.2692  -13.5524   26.2930 C   0  0  0  0  0  0  0  0  0  0  0  0
    7.5550  -13.0243   25.2389 C   0  0  0  0  0  0  0  0  0  0  0  0
    6.4258  -12.2280   25.4692 C   0  0  0  0  0  0  0  0  0  0  0  0
    5.9998  -11.9517   26.7453 C   0  0  0  0  0  0  0  0  0  0  0  0
    6.7100  -12.4769   27.7960 C   0  0  0  0  0  0  0  0  0  0  0  0
    7.8199  -13.2595   27.5595 C   0  0  0  0  0  0  0  0  0  0  0  0
    8.7650  -16.6596   26.7670 C   0  0  0  0  0  0  0  0  0  0  0  0
    7.6622  -17.2401   26.8225 O   0  0  0  0  0  0  0  0  0  0  0  0
    9.6521  -16.8528   27.8188 O   0  0  0  0  0  0  0  0  0  0  0  0
  1  2  1  0
  1  5  1  0
  2  3  1  0
  3  4  1  0
  5  4  1  0
  5  6  1  1
  6  7  2  0
  9  8  1  6
 10  9  1  0
 11  9  1  0
 12  6  1  0
 11 12  1  6
 13 11  1  0
 13 14  2  0
 15 13  1  0
 16 15  1  0
 16 17  1  1
 18 23  1  0
 18 17  1  0
 19 18  2  0
 20 21  2  0
 20 19  1  0
 21 22  1  0
 22 23  2  0
 24 26  1  0
 24 16  1  0
 25 24  2  0
M  END
$$$$
