PTF.pdb
     RDKit          3D

 26 27  0  0  1  0  0  0  0  0999 V2000
    8.7949  -14.6875   19.2768 N   0  0  0  0  0  0  0  0  0  0  0  0
    9.1127  -13.7712   18.1831 C   0  0  0  0  0  0  0  0  0  0  0  0
    8.1153  -12.6600   18.2712 C   0  0  0  0  0  0  0  0  0  0  0  0
    7.4048  -12.8830   19.5980 C   0  0  0  0  0  0  0  0  0  0  0  0
    8.3871  -13.7805   20.3226 C   0  0  1  0  0  0  0  0  0  0  0  0
    7.7729  -14.4621   21.4712 C   0  0  0  0  0  0  0  0  0  0  0  0
    7.2817  -13.7847   22.3872 O   0  0  0  0  0  0  0  0  0  0  0  0
    5.8895  -18.1082   21.0413 C   0  0  0  0  0  0  0  0  0  0  0  0
    6.8052  -17.9973   22.2400 C   0  0  1  0  0  0  0  0  0  0  0  0
    8.0058  -18.6721   22.0552 O   0  0  0  0  0  0  0  0  0  0  0  0
    7.0028  -16.5535   22.6458 C   0  0  2  0  0  0  0  0  0  0  0  0
    7.7171  -15.8824   21.5786 N   0  0  0  0  0  0  0  0  0  0  0  0
    7.8163  -16.4337   23.8794 C   0  0  0  0  0  0  0  0  0  0  0  0
    9.0506  -16.1295   23.8143 O   0  0  0  0  0  0  0  0  0  0  0  0
    7.2838  -16.6455   25.1790 N   0  0  0  0  0  0  0  0  0  0  0  0
    8.1252  -16.4932   26.3234 C   0  0  1  0  0  0  0  0  0  0  0  0
    7.5164  -15.6295   27.3990 C   0  0  0  0  0  0  0  0  0  0  0  0
    7.3248  -14.2389   27.0071 C   0  0  0  0  0  0  0  0  0  0  0  0
    6.0694  -13.7628   26.6955 C   0  0  0  0  0  0  0  0  0  0  0  0
    5.8859  -12.4261   26.3189 C   0  0  0  0  0  0  0  0  0  0  0  0
    6.9460  -11.5557   26.2495 C   0  0  0  0  0  0  0  0  0  0  0  0
    8.1969  -12.0284   26.5594 C   0  0  0  0  0  0  0  0  0  0  0  0
    8.3677  -13.3455   26.9290 C   0  0  0  0  0  0  0  0  0  0  0  0
    8.4914  -17.8413   26.8342 C   0  0  0  0  0  0  0  0  0  0  0  0
    7.9280  -18.8714   26.4124 O   0  0  0  0  0  0  0  0  0  0  0  0
    9.4773  -17.9923   27.8014 O   0  0  0  0  0  0  0  0  0  0  0  0
  1  2  1  0
  1  5  1  0
  2  3  1  0
  3  4  1  0
  5  4  1  0
  5  6  1  1
  6  7  2  0
  9  8  1  6
 10  9  1  0
 11  9  1  0
 12  6  1  0
 11 12  1  6
 13 11  1  0
 13 14  2  0
 15 13  1  0
 16 15  1  0
 16 17  1  1
 18 23  1  0
 18 17  1  0
 19 18  2  0
 20 21  2  0
 20 19  1  0
 21 22  1  0
 22 23  2  0
 24 26  1  0
 24 16  1  0
 25 24  2  0
M  END
$$$$
