PTF.pdb
     RDKit          3D

 26 27  0  0  1  0  0  0  0  0999 V2000
    9.2533  -14.5078   19.3768 N   0  0  0  0  0  0  0  0  0  0  0  0
    9.3493  -13.5827   18.2492 C   0  0  0  0  0  0  0  0  0  0  0  0
    8.0196  -12.9039   18.1566 C   0  0  0  0  0  0  0  0  0  0  0  0
    7.2866  -13.3156   19.4247 C   0  0  0  0  0  0  0  0  0  0  0  0
    8.4329  -13.7685   20.3058 C   0  0  1  0  0  0  0  0  0  0  0  0
    7.9724  -14.5798   21.4419 C   0  0  0  0  0  0  0  0  0  0  0  0
    7.0727  -14.1418   22.1753 O   0  0  0  0  0  0  0  0  0  0  0  0
    7.3994  -18.5866   21.3322 C   0  0  0  0  0  0  0  0  0  0  0  0
    8.2884  -18.1323   22.4683 C   0  0  1  0  0  0  0  0  0  0  0  0
    9.6323  -18.3900   22.2266 O   0  0  0  0  0  0  0  0  0  0  0  0
    8.0255  -16.6856   22.8238 C   0  0  2  0  0  0  0  0  0  0  0  0
    8.5209  -15.8613   21.7400 N   0  0  0  0  0  0  0  0  0  0  0  0
    8.7382  -16.2832   24.0599 C   0  0  0  0  0  0  0  0  0  0  0  0
    9.8578  -15.6811   23.9953 O   0  0  0  0  0  0  0  0  0  0  0  0
    8.2299  -16.5374   25.3616 N   0  0  0  0  0  0  0  0  0  0  0  0
    8.9257  -16.0370   26.5046 C   0  0  1  0  0  0  0  0  0  0  0  0
    8.0413  -15.2595   27.4464 C   0  0  0  0  0  0  0  0  0  0  0  0
    7.4378  -14.0734   26.8521 C   0  0  0  0  0  0  0  0  0  0  0  0
    8.1419  -12.8911   26.7726 C   0  0  0  0  0  0  0  0  0  0  0  0
    7.5614  -11.7514   26.2013 C   0  0  0  0  0  0  0  0  0  0  0  0
    6.2806  -11.7789   25.7063 C   0  0  0  0  0  0  0  0  0  0  0  0
    5.5782  -12.9556   25.7847 C   0  0  0  0  0  0  0  0  0  0  0  0
    6.1578  -14.0720   26.3487 C   0  0  0  0  0  0  0  0  0  0  0  0
    9.6052  -17.1698   27.1882 C   0  0  0  0  0  0  0  0  0  0  0  0
   10.3682  -16.9810   28.1570 O   0  0  0  0  0  0  0  0  0  0  0  0
    9.4083  -18.4783   26.7644 O   0  0  0  0  0  0  0  0  0  0  0  0
  1  2  1  0
  1  5  1  0
  2  3  1  0
  3  4  1  0
  5  4  1  0
  5  6  1  1
  6  7  2  0
  9  8  1  6
 10  9  1  0
 11  9  1  0
 12  6  1  0
 11 12  1  6
 13 11  1  0
 13 14  2  0
 15 13  1  0
 16 15  1  0
 16 17  1  1
 18 23  1  0
 18 17  1  0
 19 18  2  0
 20 21  2  0
 20 19  1  0
 21 22  1  0
 22 23  2  0
 24 26  1  0
 24 16  1  0
 25 24  2  0
M  END
$$$$
