PTF.pdb
     RDKit          3D

 26 27  0  0  1  0  0  0  0  0999 V2000
    7.8801  -14.7219   18.0703 N   0  0  0  0  0  0  0  0  0  0  0  0
    7.9379  -13.4550   17.3433 C   0  0  0  0  0  0  0  0  0  0  0  0
    7.8563  -12.3794   18.3795 C   0  0  0  0  0  0  0  0  0  0  0  0
    8.0010  -13.1094   19.7064 C   0  0  0  0  0  0  0  0  0  0  0  0
    8.6260  -14.4180   19.2677 C   0  0  1  0  0  0  0  0  0  0  0  0
    8.5131  -15.4600   20.2985 C   0  0  0  0  0  0  0  0  0  0  0  0
    7.3885  -15.8636   20.6328 O   0  0  0  0  0  0  0  0  0  0  0  0
    9.4793  -18.8043   20.1478 C   0  0  0  0  0  0  0  0  0  0  0  0
   10.1871  -18.3227   21.3946 C   0  0  1  0  0  0  0  0  0  0  0  0
   11.5566  -18.1809   21.2066 O   0  0  0  0  0  0  0  0  0  0  0  0
    9.5397  -17.0699   21.9420 C   0  0  2  0  0  0  0  0  0  0  0  0
    9.6519  -16.0323   20.9369 N   0  0  0  0  0  0  0  0  0  0  0  0
   10.2205  -16.5875   23.1675 C   0  0  0  0  0  0  0  0  0  0  0  0
   10.8631  -15.4887   23.1616 O   0  0  0  0  0  0  0  0  0  0  0  0
   10.1995  -17.3025   24.3946 N   0  0  0  0  0  0  0  0  0  0  0  0
   10.5609  -16.6399   25.6075 C   0  0  1  0  0  0  0  0  0  0  0  0
    9.4701  -15.7496   26.1471 C   0  0  0  0  0  0  0  0  0  0  0  0
    9.7709  -15.1620   27.4464 C   0  0  0  0  0  0  0  0  0  0  0  0
    9.6820  -13.8001   27.6397 C   0  0  0  0  0  0  0  0  0  0  0  0
    9.9712  -13.2358   28.8888 C   0  0  0  0  0  0  0  0  0  0  0  0
   10.3499  -14.0191   29.9515 C   0  0  0  0  0  0  0  0  0  0  0  0
   10.4389  -15.3755   29.7606 C   0  0  0  0  0  0  0  0  0  0  0  0
   10.1523  -15.9217   28.5277 C   0  0  0  0  0  0  0  0  0  0  0  0
   10.9902  -17.6584   26.6027 C   0  0  0  0  0  0  0  0  0  0  0  0
   10.3835  -18.7412   26.7278 O   0  0  0  0  0  0  0  0  0  0  0  0
   12.0859  -17.4311   27.4264 O   0  0  0  0  0  0  0  0  0  0  0  0
  1  2  1  0
  1  5  1  0
  2  3  1  0
  3  4  1  0
  5  4  1  0
  5  6  1  1
  6  7  2  0
  9  8  1  6
 10  9  1  0
 11  9  1  0
 12  6  1  0
 11 12  1  6
 13 11  1  0
 13 14  2  0
 15 13  1  0
 16 15  1  0
 16 17  1  1
 18 23  1  0
 18 17  1  0
 19 18  2  0
 20 21  2  0
 20 19  1  0
 21 22  1  0
 22 23  2  0
 24 26  1  0
 24 16  1  0
 25 24  2  0
M  END
$$$$
