PTF.pdb
     RDKit          3D

 26 27  0  0  1  0  0  0  0  0999 V2000
    8.6023  -14.9014   18.3371 N   0  0  0  0  0  0  0  0  0  0  0  0
    8.7179  -14.0764   17.1360 C   0  0  0  0  0  0  0  0  0  0  0  0
    7.9588  -12.8199   17.4224 C   0  0  0  0  0  0  0  0  0  0  0  0
    7.6384  -12.8923   18.9079 C   0  0  0  0  0  0  0  0  0  0  0  0
    8.6490  -13.9137   19.3882 C   0  0  1  0  0  0  0  0  0  0  0  0
    8.3024  -14.4588   20.7088 C   0  0  0  0  0  0  0  0  0  0  0  0
    8.2567  -13.6968   21.6868 O   0  0  0  0  0  0  0  0  0  0  0  0
    6.0204  -17.9000   20.8999 C   0  0  0  0  0  0  0  0  0  0  0  0
    7.0902  -17.7866   21.9630 C   0  0  1  0  0  0  0  0  0  0  0  0
    8.1717  -18.6243   21.7195 O   0  0  0  0  0  0  0  0  0  0  0  0
    7.5022  -16.3462   22.1730 C   0  0  2  0  0  0  0  0  0  0  0  0
    8.0136  -15.8392   20.9156 N   0  0  0  0  0  0  0  0  0  0  0  0
    8.5810  -16.2227   23.1824 C   0  0  0  0  0  0  0  0  0  0  0  0
    9.7807  -15.9943   22.8236 O   0  0  0  0  0  0  0  0  0  0  0  0
    8.3502  -16.3483   24.5782 N   0  0  0  0  0  0  0  0  0  0  0  0
    9.3694  -15.9642   25.5027 C   0  0  1  0  0  0  0  0  0  0  0  0
    9.6022  -14.4750   25.5469 C   0  0  0  0  0  0  0  0  0  0  0  0
    8.4493  -13.7065   25.9990 C   0  0  0  0  0  0  0  0  0  0  0  0
    8.4006  -13.1996   27.2798 C   0  0  0  0  0  0  0  0  0  0  0  0
    7.2923  -12.4609   27.7138 C   0  0  0  0  0  0  0  0  0  0  0  0
    6.2275  -12.2217   26.8799 C   0  0  0  0  0  0  0  0  0  0  0  0
    6.2746  -12.7259   25.6041 C   0  0  0  0  0  0  0  0  0  0  0  0
    7.3695  -13.4516   25.1860 C   0  0  0  0  0  0  0  0  0  0  0  0
    9.0352  -16.5145   26.8434 C   0  0  0  0  0  0  0  0  0  0  0  0
    7.9453  -17.0815   27.0601 O   0  0  0  0  0  0  0  0  0  0  0  0
    9.9329  -16.4119   27.8989 O   0  0  0  0  0  0  0  0  0  0  0  0
  1  2  1  0
  1  5  1  0
  2  3  1  0
  3  4  1  0
  5  4  1  0
  5  6  1  1
  6  7  2  0
  9  8  1  6
 10  9  1  0
 11  9  1  0
 12  6  1  0
 11 12  1  6
 13 11  1  0
 13 14  2  0
 15 13  1  0
 16 15  1  0
 16 17  1  1
 18 23  1  0
 18 17  1  0
 19 18  2  0
 20 21  2  0
 20 19  1  0
 21 22  1  0
 22 23  2  0
 24 26  1  0
 24 16  1  0
 25 24  2  0
M  END
$$$$
