PTF.pdb
     RDKit          3D

 26 27  0  0  1  0  0  0  0  0999 V2000
    8.6109  -14.4124   19.2407 N   0  0  0  0  0  0  0  0  0  0  0  0
    8.7771  -13.4621   18.1426 C   0  0  0  0  0  0  0  0  0  0  0  0
    7.7197  -12.4214   18.3325 C   0  0  0  0  0  0  0  0  0  0  0  0
    7.1367  -12.7095   19.7079 C   0  0  0  0  0  0  0  0  0  0  0  0
    8.2319  -13.5491   20.3333 C   0  0  1  0  0  0  0  0  0  0  0  0
    7.7601  -14.2860   21.5146 C   0  0  0  0  0  0  0  0  0  0  0  0
    7.2634  -13.6586   22.4627 O   0  0  0  0  0  0  0  0  0  0  0  0
    6.1735  -18.0597   21.1320 C   0  0  0  0  0  0  0  0  0  0  0  0
    7.1378  -17.8935   22.2853 C   0  0  1  0  0  0  0  0  0  0  0  0
    8.3764  -18.4686   22.0290 O   0  0  0  0  0  0  0  0  0  0  0  0
    7.2423  -16.4443   22.7064 C   0  0  2  0  0  0  0  0  0  0  0  0
    7.8498  -15.7048   21.6184 N   0  0  0  0  0  0  0  0  0  0  0  0
    8.1031  -16.2781   23.9019 C   0  0  0  0  0  0  0  0  0  0  0  0
    9.3260  -15.9468   23.7786 O   0  0  0  0  0  0  0  0  0  0  0  0
    7.6301  -16.4729   25.2269 N   0  0  0  0  0  0  0  0  0  0  0  0
    8.5079  -16.2536   26.3325 C   0  0  1  0  0  0  0  0  0  0  0  0
    7.9187  -15.3558   27.3911 C   0  0  0  0  0  0  0  0  0  0  0  0
    7.5534  -14.0296   26.9095 C   0  0  0  0  0  0  0  0  0  0  0  0
    8.5132  -13.0557   26.7356 C   0  0  0  0  0  0  0  0  0  0  0  0
    8.1615  -11.7812   26.2727 C   0  0  0  0  0  0  0  0  0  0  0  0
    6.8569  -11.4667   25.9803 C   0  0  0  0  0  0  0  0  0  0  0  0
    5.9000  -12.4355   26.1531 C   0  0  0  0  0  0  0  0  0  0  0  0
    6.2557  -13.6869   26.6090 C   0  0  0  0  0  0  0  0  0  0  0  0
    8.9210  -17.5702   26.8875 C   0  0  0  0  0  0  0  0  0  0  0  0
    9.7683  -17.6544   27.7993 O   0  0  0  0  0  0  0  0  0  0  0  0
    8.3714  -18.7508   26.4032 O   0  0  0  0  0  0  0  0  0  0  0  0
  1  2  1  0
  1  5  1  0
  2  3  1  0
  3  4  1  0
  5  4  1  0
  5  6  1  1
  6  7  2  0
  9  8  1  6
 10  9  1  0
 11  9  1  0
 12  6  1  0
 11 12  1  6
 13 11  1  0
 13 14  2  0
 15 13  1  0
 16 15  1  0
 16 17  1  1
 18 23  1  0
 18 17  1  0
 19 18  2  0
 20 21  2  0
 20 19  1  0
 21 22  1  0
 22 23  2  0
 24 26  1  0
 24 16  1  0
 25 24  2  0
M  END
$$$$
