PTF.pdb
     RDKit          3D

 26 27  0  0  1  0  0  0  0  0999 V2000
    8.8070  -14.6840   18.5012 N   0  0  0  0  0  0  0  0  0  0  0  0
    8.9621  -13.8033   17.3449 C   0  0  0  0  0  0  0  0  0  0  0  0
    8.0316  -12.6544   17.5722 C   0  0  0  0  0  0  0  0  0  0  0  0
    7.5528  -12.8230   19.0064 C   0  0  0  0  0  0  0  0  0  0  0  0
    8.6150  -13.7407   19.5764 C   0  0  1  0  0  0  0  0  0  0  0  0
    8.1853  -14.3748   20.8311 C   0  0  0  0  0  0  0  0  0  0  0  0
    7.9587  -13.6651   21.8232 O   0  0  0  0  0  0  0  0  0  0  0  0
    6.1664  -18.0056   20.8706 C   0  0  0  0  0  0  0  0  0  0  0  0
    7.2712  -17.8611   21.8933 C   0  0  1  0  0  0  0  0  0  0  0  0
    8.4119  -18.5753   21.5473 O   0  0  0  0  0  0  0  0  0  0  0  0
    7.5596  -16.4050   22.1852 C   0  0  2  0  0  0  0  0  0  0  0  0
    8.0161  -15.7845   20.9580 N   0  0  0  0  0  0  0  0  0  0  0  0
    8.6313  -16.2471   23.1973 C   0  0  0  0  0  0  0  0  0  0  0  0
    9.8178  -15.9513   22.8436 O   0  0  0  0  0  0  0  0  0  0  0  0
    8.4081  -16.4118   24.5903 N   0  0  0  0  0  0  0  0  0  0  0  0
    9.4597  -16.1296   25.5151 C   0  0  1  0  0  0  0  0  0  0  0  0
    9.7305  -14.6551   25.6765 C   0  0  0  0  0  0  0  0  0  0  0  0
    8.5678  -13.8789   26.0887 C   0  0  0  0  0  0  0  0  0  0  0  0
    8.6903  -12.8693   27.0190 C   0  0  0  0  0  0  0  0  0  0  0  0
    7.5724  -12.1236   27.4148 C   0  0  0  0  0  0  0  0  0  0  0  0
    6.3284  -12.3756   26.8900 C   0  0  0  0  0  0  0  0  0  0  0  0
    6.2049  -13.3808   25.9635 C   0  0  0  0  0  0  0  0  0  0  0  0
    7.3107  -14.1092   25.5802 C   0  0  0  0  0  0  0  0  0  0  0  0
    9.1462  -16.7825   26.8142 C   0  0  0  0  0  0  0  0  0  0  0  0
    9.9361  -16.7251   27.7780 O   0  0  0  0  0  0  0  0  0  0  0  0
    7.9573  -17.4792   26.9920 O   0  0  0  0  0  0  0  0  0  0  0  0
  1  2  1  0
  1  5  1  0
  2  3  1  0
  3  4  1  0
  5  4  1  0
  5  6  1  1
  6  7  2  0
  9  8  1  6
 10  9  1  0
 11  9  1  0
 12  6  1  0
 11 12  1  6
 13 11  1  0
 13 14  2  0
 15 13  1  0
 16 15  1  0
 16 17  1  1
 18 23  1  0
 18 17  1  0
 19 18  2  0
 20 21  2  0
 20 19  1  0
 21 22  1  0
 22 23  2  0
 24 26  1  0
 24 16  1  0
 25 24  2  0
M  END
$$$$
