PTF.pdb
     RDKit          3D

 26 27  0  0  1  0  0  0  0  0999 V2000
    9.0960  -14.5469   19.2864 N   0  0  0  0  0  0  0  0  0  0  0  0
    9.3663  -13.5963   18.2093 C   0  0  0  0  0  0  0  0  0  0  0  0
    8.1952  -12.6666   18.1745 C   0  0  0  0  0  0  0  0  0  0  0  0
    7.4015  -12.9978   19.4296 C   0  0  0  0  0  0  0  0  0  0  0  0
    8.4407  -13.7150   20.2668 C   0  0  1  0  0  0  0  0  0  0  0  0
    7.8354  -14.4833   21.3642 C   0  0  0  0  0  0  0  0  0  0  0  0
    7.1021  -13.9026   22.1792 O   0  0  0  0  0  0  0  0  0  0  0  0
    6.3701  -18.2509   20.9464 C   0  0  0  0  0  0  0  0  0  0  0  0
    7.3301  -18.0920   22.1043 C   0  0  1  0  0  0  0  0  0  0  0  0
    8.5834  -18.6266   21.8322 O   0  0  0  0  0  0  0  0  0  0  0  0
    7.3963  -16.6532   22.5666 C   0  0  2  0  0  0  0  0  0  0  0  0
    8.0570  -15.8812   21.5337 N   0  0  0  0  0  0  0  0  0  0  0  0
    8.1864  -16.5101   23.8129 C   0  0  0  0  0  0  0  0  0  0  0  0
    9.4247  -16.2192   23.7650 O   0  0  0  0  0  0  0  0  0  0  0  0
    7.6261  -16.6840   25.1064 N   0  0  0  0  0  0  0  0  0  0  0  0
    8.4145  -16.4029   26.2642 C   0  0  1  0  0  0  0  0  0  0  0  0
    7.6845  -15.5802   27.2957 C   0  0  0  0  0  0  0  0  0  0  0  0
    7.3556  -14.2304   26.8552 C   0  0  0  0  0  0  0  0  0  0  0  0
    8.3278  -13.2555   26.7904 C   0  0  0  0  0  0  0  0  0  0  0  0
    8.0111  -11.9583   26.3669 C   0  0  0  0  0  0  0  0  0  0  0  0
    6.7294  -11.6221   26.0059 C   0  0  0  0  0  0  0  0  0  0  0  0
    5.7601  -12.5919   26.0699 C   0  0  0  0  0  0  0  0  0  0  0  0
    6.0813  -13.8656   26.4878 C   0  0  0  0  0  0  0  0  0  0  0  0
    8.9150  -17.6848   26.8284 C   0  0  0  0  0  0  0  0  0  0  0  0
    8.4494  -18.7824   26.4614 O   0  0  0  0  0  0  0  0  0  0  0  0
    9.9215  -17.6960   27.7862 O   0  0  0  0  0  0  0  0  0  0  0  0
  1  2  1  0
  1  5  1  0
  2  3  1  0
  3  4  1  0
  5  4  1  0
  5  6  1  1
  6  7  2  0
  9  8  1  6
 10  9  1  0
 11  9  1  0
 12  6  1  0
 11 12  1  6
 13 11  1  0
 13 14  2  0
 15 13  1  0
 16 15  1  0
 16 17  1  1
 18 23  1  0
 18 17  1  0
 19 18  2  0
 20 21  2  0
 20 19  1  0
 21 22  1  0
 22 23  2  0
 24 26  1  0
 24 16  1  0
 25 24  2  0
M  END
$$$$
