PTF.pdb
     RDKit          3D

 26 27  0  0  1  0  0  0  0  0999 V2000
    8.7383  -14.7755   19.0832 N   0  0  0  0  0  0  0  0  0  0  0  0
    9.0413  -13.8852   17.9641 C   0  0  0  0  0  0  0  0  0  0  0  0
    8.0831  -12.7419   18.0738 C   0  0  0  0  0  0  0  0  0  0  0  0
    7.4186  -12.9236   19.4304 C   0  0  0  0  0  0  0  0  0  0  0  0
    8.4002  -13.8414   20.1300 C   0  0  1  0  0  0  0  0  0  0  0  0
    7.8107  -14.4870   21.3118 C   0  0  0  0  0  0  0  0  0  0  0  0
    7.3934  -13.7821   22.2436 O   0  0  0  0  0  0  0  0  0  0  0  0
    7.8773  -18.7021   21.6953 C   0  0  0  0  0  0  0  0  0  0  0  0
    6.6206  -17.9476   22.0680 C   0  0  1  0  0  0  0  0  0  0  0  0
    5.8484  -18.6299   23.0002 O   0  0  0  0  0  0  0  0  0  0  0  0
    6.9391  -16.5323   22.4968 C   0  0  2  0  0  0  0  0  0  0  0  0
    7.6969  -15.9026   21.4343 N   0  0  0  0  0  0  0  0  0  0  0  0
    7.7701  -16.5015   23.7241 C   0  0  0  0  0  0  0  0  0  0  0  0
    9.0397  -16.4553   23.6457 O   0  0  0  0  0  0  0  0  0  0  0  0
    7.2165  -16.5211   25.0320 N   0  0  0  0  0  0  0  0  0  0  0  0
    8.0693  -16.3514   26.1654 C   0  0  1  0  0  0  0  0  0  0  0  0
    7.4668  -15.4799   27.2383 C   0  0  0  0  0  0  0  0  0  0  0  0
    7.1919  -14.1142   26.8099 C   0  0  0  0  0  0  0  0  0  0  0  0
    5.8974  -13.6454   26.7432 C   0  0  0  0  0  0  0  0  0  0  0  0
    5.6338  -12.3327   26.3314 C   0  0  0  0  0  0  0  0  0  0  0  0
    6.6522  -11.4792   25.9839 C   0  0  0  0  0  0  0  0  0  0  0  0
    7.9418  -11.9447   26.0498 C   0  0  0  0  0  0  0  0  0  0  0  0
    8.1914  -13.2381   26.4562 C   0  0  0  0  0  0  0  0  0  0  0  0
    8.4495  -17.6916   26.6866 C   0  0  0  0  0  0  0  0  0  0  0  0
    7.8509  -18.7241   26.3233 O   0  0  0  0  0  0  0  0  0  0  0  0
    9.4885  -17.8323   27.5982 O   0  0  0  0  0  0  0  0  0  0  0  0
  1  2  1  0
  1  5  1  0
  2  3  1  0
  3  4  1  0
  5  4  1  0
  5  6  1  1
  6  7  2  0
  9  8  1  1
 10  9  1  0
 11  9  1  0
 12  6  1  0
 11 12  1  6
 13 11  1  0
 13 14  2  0
 15 13  1  0
 16 15  1  0
 16 17  1  1
 18 23  1  0
 18 17  1  0
 19 18  2  0
 20 21  2  0
 20 19  1  0
 21 22  1  0
 22 23  2  0
 24 26  1  0
 24 16  1  0
 25 24  2  0
M  END
$$$$
