PTF.pdb
     RDKit          3D

 26 27  0  0  1  0  0  0  0  0999 V2000
    8.7599  -14.8432   18.3710 N   0  0  0  0  0  0  0  0  0  0  0  0
    8.8684  -14.0132   17.1726 C   0  0  0  0  0  0  0  0  0  0  0  0
    7.9813  -12.8317   17.4058 C   0  0  0  0  0  0  0  0  0  0  0  0
    7.5833  -12.9308   18.8710 C   0  0  0  0  0  0  0  0  0  0  0  0
    8.6544  -13.8534   19.4160 C   0  0  1  0  0  0  0  0  0  0  0  0
    8.2835  -14.4259   20.7182 C   0  0  0  0  0  0  0  0  0  0  0  0
    8.1252  -13.6710   21.6900 O   0  0  0  0  0  0  0  0  0  0  0  0
    6.2037  -18.0370   20.9688 C   0  0  0  0  0  0  0  0  0  0  0  0
    7.3362  -17.8465   21.9530 C   0  0  1  0  0  0  0  0  0  0  0  0
    8.4674  -18.5763   21.6087 O   0  0  0  0  0  0  0  0  0  0  0  0
    7.6314  -16.3788   22.1700 C   0  0  2  0  0  0  0  0  0  0  0  0
    8.0962  -15.8253   20.9142 N   0  0  0  0  0  0  0  0  0  0  0  0
    8.6999  -16.1741   23.1771 C   0  0  0  0  0  0  0  0  0  0  0  0
    9.9018  -15.9659   22.8132 O   0  0  0  0  0  0  0  0  0  0  0  0
    8.4566  -16.1967   24.5763 N   0  0  0  0  0  0  0  0  0  0  0  0
    9.5088  -15.8660   25.4843 C   0  0  1  0  0  0  0  0  0  0  0  0
    9.7055  -14.3805   25.6515 C   0  0  0  0  0  0  0  0  0  0  0  0
    8.5030  -13.6635   26.0564 C   0  0  0  0  0  0  0  0  0  0  0  0
    7.3576  -13.7236   25.2919 C   0  0  0  0  0  0  0  0  0  0  0  0
    6.2021  -13.0343   25.6815 C   0  0  0  0  0  0  0  0  0  0  0  0
    6.1769  -12.2825   26.8307 C   0  0  0  0  0  0  0  0  0  0  0  0
    7.3168  -12.2218   27.5931 C   0  0  0  0  0  0  0  0  0  0  0  0
    8.4492  -12.9035   27.2015 C   0  0  0  0  0  0  0  0  0  0  0  0
    9.2531  -16.5425   26.7840 C   0  0  0  0  0  0  0  0  0  0  0  0
   10.0287  -16.4061   27.7515 O   0  0  0  0  0  0  0  0  0  0  0  0
    8.1362  -17.3503   26.9583 O   0  0  0  0  0  0  0  0  0  0  0  0
  1  2  1  0
  1  5  1  0
  2  3  1  0
  3  4  1  0
  5  4  1  0
  5  6  1  1
  6  7  2  0
  9  8  1  6
 10  9  1  0
 11  9  1  0
 12  6  1  0
 11 12  1  6
 13 11  1  0
 13 14  2  0
 15 13  1  0
 16 15  1  0
 16 17  1  1
 18 23  1  0
 18 17  1  0
 19 18  2  0
 20 21  2  0
 20 19  1  0
 21 22  1  0
 22 23  2  0
 24 26  1  0
 24 16  1  0
 25 24  2  0
M  END
$$$$
