PTF.pdb
     RDKit          3D

 26 27  0  0  1  0  0  0  0  0999 V2000
    8.9346  -14.6286   19.1807 N   0  0  0  0  0  0  0  0  0  0  0  0
    9.1306  -13.7148   18.0568 C   0  0  0  0  0  0  0  0  0  0  0  0
    7.9993  -12.7381   18.1154 C   0  0  0  0  0  0  0  0  0  0  0  0
    7.3254  -13.0074   19.4525 C   0  0  0  0  0  0  0  0  0  0  0  0
    8.4157  -13.7481   20.1996 C   0  0  1  0  0  0  0  0  0  0  0  0
    7.8957  -14.4654   21.3727 C   0  0  0  0  0  0  0  0  0  0  0  0
    7.2883  -13.8332   22.2506 O   0  0  0  0  0  0  0  0  0  0  0  0
    6.5187  -18.3032   21.1382 C   0  0  0  0  0  0  0  0  0  0  0  0
    7.4426  -18.0560   22.3099 C   0  0  1  0  0  0  0  0  0  0  0  0
    8.7054  -18.6020   22.1147 O   0  0  0  0  0  0  0  0  0  0  0  0
    7.4901  -16.5873   22.6688 C   0  0  2  0  0  0  0  0  0  0  0  0
    8.0611  -15.8705   21.5465 N   0  0  0  0  0  0  0  0  0  0  0  0
    8.3497  -16.3358   23.8502 C   0  0  0  0  0  0  0  0  0  0  0  0
    9.5566  -15.9582   23.7046 O   0  0  0  0  0  0  0  0  0  0  0  0
    7.8928  -16.4960   25.1855 N   0  0  0  0  0  0  0  0  0  0  0  0
    8.7401  -16.1247   26.2741 C   0  0  1  0  0  0  0  0  0  0  0  0
    8.0679  -15.2096   27.2662 C   0  0  0  0  0  0  0  0  0  0  0  0
    7.6623  -13.9250   26.7099 C   0  0  0  0  0  0  0  0  0  0  0  0
    6.3633  -13.7152   26.2995 C   0  0  0  0  0  0  0  0  0  0  0  0
    5.9741  -12.4803   25.7649 C   0  0  0  0  0  0  0  0  0  0  0  0
    6.8709  -11.4482   25.6347 C   0  0  0  0  0  0  0  0  0  0  0  0
    8.1649  -11.6557   26.0430 C   0  0  0  0  0  0  0  0  0  0  0  0
    8.5386  -12.8744   26.5679 C   0  0  0  0  0  0  0  0  0  0  0  0
    9.2613  -17.3586   26.9208 C   0  0  0  0  0  0  0  0  0  0  0  0
    8.8242  -18.4866   26.6161 O   0  0  0  0  0  0  0  0  0  0  0  0
   10.2560  -17.2893   27.8885 O   0  0  0  0  0  0  0  0  0  0  0  0
  1  2  1  0
  1  5  1  0
  2  3  1  0
  3  4  1  0
  5  4  1  0
  5  6  1  1
  6  7  2  0
  9  8  1  6
 10  9  1  0
 11  9  1  0
 12  6  1  0
 11 12  1  6
 13 11  1  0
 13 14  2  0
 15 13  1  0
 16 15  1  0
 16 17  1  1
 18 23  1  0
 18 17  1  0
 19 18  2  0
 20 21  2  0
 20 19  1  0
 21 22  1  0
 22 23  2  0
 24 26  1  0
 24 16  1  0
 25 24  2  0
M  END
$$$$
