IWP.pdb
     RDKit          3D

 30 32  0  0  1  0  0  0  0  0999 V2000
   14.7167  -18.2519   19.2223 C   0  0  0  0  0  0  0  0  0  0  0  0
   13.2431  -18.0864   19.3932 C   0  0  0  0  0  0  0  0  0  0  0  0
   12.8975  -17.2798   20.6386 C   0  0  2  0  0  0  0  0  0  0  0  0
   13.3250  -18.0970   21.8310 C   0  0  0  0  0  0  0  0  0  0  0  0
   11.4009  -17.0118   20.6497 C   0  0  2  0  0  0  0  0  0  0  0  0
   11.0602  -16.2250   19.4483 N   0  0  0  0  0  0  0  0  0  0  0  0
   10.9508  -16.2097   21.8024 C   0  0  0  0  0  0  0  0  0  0  0  0
   11.4123  -15.0346   21.9605 O   0  0  0  0  0  0  0  0  0  0  0  0
   10.0344  -16.6602   22.7473 N   0  0  0  0  0  0  0  0  0  0  0  0
    9.6227  -15.7798   23.8775 C   0  0  1  0  0  0  0  0  0  0  0  0
    8.1434  -15.6120   23.7231 C   0  0  0  0  0  0  0  0  0  0  0  0
    7.3979  -15.0383   24.8379 C   0  0  0  0  0  0  0  0  0  0  0  0
    6.7117  -15.7120   25.8440 C   0  0  0  0  0  0  0  0  0  0  0  0
    6.1358  -14.8183   26.6661 N   0  0  0  0  0  0  0  0  0  0  0  0
    6.4172  -13.5656   26.2381 C   0  0  0  0  0  0  0  0  0  0  0  0
    6.0973  -12.2992   26.6834 C   0  0  0  0  0  0  0  0  0  0  0  0
    6.5331  -11.1655   26.0348 C   0  0  0  0  0  0  0  0  0  0  0  0
    7.3129  -11.2997   24.9056 C   0  0  0  0  0  0  0  0  0  0  0  0
    7.6433  -12.5543   24.4441 C   0  0  0  0  0  0  0  0  0  0  0  0
    7.1910  -13.6915   25.1166 C   0  0  0  0  0  0  0  0  0  0  0  0
   10.0859  -16.3544   25.1358 C   0  0  0  0  0  0  0  0  0  0  0  0
   10.6145  -17.5269   25.0618 O   0  0  0  0  0  0  0  0  0  0  0  0
   10.0449  -15.8040   26.4266 N   0  0  0  0  0  0  0  0  0  0  0  0
    9.2992  -14.6639   26.8982 C   0  0  0  0  0  0  0  0  0  0  0  0
   10.1748  -14.0080   27.9549 C   0  0  0  0  0  0  0  0  0  0  0  0
   11.3425  -14.9321   28.0828 C   0  0  0  0  0  0  0  0  0  0  0  0
   10.8183  -16.2618   27.6053 C   0  0  1  0  0  0  0  0  0  0  0  0
    9.9365  -16.8287   28.6435 C   0  0  0  0  0  0  0  0  0  0  0  0
    8.7088  -16.8910   28.3598 O   0  0  0  0  0  0  0  0  0  0  0  0
   10.3346  -17.2879   29.8768 O   0  0  0  0  0  0  0  0  0  0  0  0
  2  1  1  0
  3  2  1  0
  3  4  1  1
  5  6  1  6
  5  3  1  0
  7  5  1  0
  8  7  2  0
  9  7  1  0
 10 21  1  0
 10  9  1  0
 10 11  1  1
 12 11  1  0
 13 12  2  0
 14 13  1  0
 15 14  1  0
 15 20  2  0
 16 15  1  0
 17 16  2  0
 17 18  1  0
 18 19  2  0
 19 20  1  0
 20 12  1  0
 21 22  2  0
 23 27  1  0
 23 21  1  0
 24 25  1  0
 24 23  1  0
 25 26  1  0
 27 26  1  0
 28 30  1  0
 27 28  1  1
 29 28  2  0
M  END
$$$$
