IWP.pdb
     RDKit          3D

 30 32  0  0  1  0  0  0  0  0999 V2000
    8.4429  -13.1416   17.8509 C   0  0  0  0  0  0  0  0  0  0  0  0
    8.7652  -14.3082   18.7245 C   0  0  0  0  0  0  0  0  0  0  0  0
    8.6922  -13.9538   20.2044 C   0  0  2  0  0  0  0  0  0  0  0  0
   10.0025  -13.3054   20.5719 C   0  0  0  0  0  0  0  0  0  0  0  0
    8.4525  -15.2257   21.0021 C   0  0  2  0  0  0  0  0  0  0  0  0
    7.1550  -15.7959   20.5899 N   0  0  0  0  0  0  0  0  0  0  0  0
    8.3555  -15.0038   22.4568 C   0  0  0  0  0  0  0  0  0  0  0  0
    7.7183  -13.9914   22.8903 O   0  0  0  0  0  0  0  0  0  0  0  0
    8.9239  -15.8459   23.4071 N   0  0  0  0  0  0  0  0  0  0  0  0
    8.9614  -15.4460   24.8426 C   0  0  1  0  0  0  0  0  0  0  0  0
    7.6729  -15.9425   25.4202 C   0  0  0  0  0  0  0  0  0  0  0  0
    6.5961  -14.9798   25.6239 C   0  0  0  0  0  0  0  0  0  0  0  0
    5.2243  -15.2081   25.5714 C   0  0  0  0  0  0  0  0  0  0  0  0
    4.5717  -14.0539   25.7906 N   0  0  0  0  0  0  0  0  0  0  0  0
    5.4684  -13.0597   25.9881 C   0  0  0  0  0  0  0  0  0  0  0  0
    5.3689  -11.7083   26.2492 C   0  0  0  0  0  0  0  0  0  0  0  0
    6.4805  -10.9120   26.4107 C   0  0  0  0  0  0  0  0  0  0  0  0
    7.7316  -11.4824   26.3082 C   0  0  0  0  0  0  0  0  0  0  0  0
    7.8533  -12.8291   26.0478 C   0  0  0  0  0  0  0  0  0  0  0  0
    6.7131  -13.6191   25.8873 C   0  0  0  0  0  0  0  0  0  0  0  0
   10.1866  -15.9469   25.4556 C   0  0  0  0  0  0  0  0  0  0  0  0
   11.0652  -16.4333   24.6488 O   0  0  0  0  0  0  0  0  0  0  0  0
   10.5520  -15.9676   26.8110 N   0  0  0  0  0  0  0  0  0  0  0  0
    9.7967  -15.5243   27.9561 C   0  0  0  0  0  0  0  0  0  0  0  0
   10.8206  -14.9700   28.9348 C   0  0  0  0  0  0  0  0  0  0  0  0
   12.1357  -15.2607   28.2870 C   0  0  0  0  0  0  0  0  0  0  0  0
   11.8492  -16.4198   27.3676 C   0  0  1  0  0  0  0  0  0  0  0  0
   11.6933  -17.6440   28.1762 C   0  0  0  0  0  0  0  0  0  0  0  0
   12.7373  -18.0817   28.7330 O   0  0  0  0  0  0  0  0  0  0  0  0
   10.5226  -18.3384   28.3706 O   0  0  0  0  0  0  0  0  0  0  0  0
  2  1  1  0
  3  2  1  0
  3  4  1  1
  5  6  1  6
  5  3  1  0
  7  5  1  0
  8  7  2  0
  9  7  1  0
 10 21  1  0
 10  9  1  0
 10 11  1  1
 12 11  1  0
 13 12  2  0
 14 13  1  0
 15 14  1  0
 15 20  2  0
 16 15  1  0
 17 16  2  0
 17 18  1  0
 18 19  2  0
 19 20  1  0
 20 12  1  0
 21 22  2  0
 23 27  1  0
 23 21  1  0
 24 25  1  0
 24 23  1  0
 25 26  1  0
 27 26  1  0
 28 30  1  0
 27 28  1  1
 29 28  2  0
M  END
$$$$
