IWP.pdb
     RDKit          3D

 30 32  0  0  1  0  0  0  0  0999 V2000
    8.3913  -12.5192   18.8358 C   0  0  0  0  0  0  0  0  0  0  0  0
    8.5619  -13.9820   19.0796 C   0  0  0  0  0  0  0  0  0  0  0  0
    9.2238  -14.2660   20.4221 C   0  0  2  0  0  0  0  0  0  0  0  0
   10.6675  -14.5993   20.1449 C   0  0  0  0  0  0  0  0  0  0  0  0
    8.4993  -15.4234   21.0910 C   0  0  2  0  0  0  0  0  0  0  0  0
    7.1484  -15.5273   20.5055 N   0  0  0  0  0  0  0  0  0  0  0  0
    8.3013  -15.2403   22.5408 C   0  0  0  0  0  0  0  0  0  0  0  0
    7.4846  -14.3546   22.9500 O   0  0  0  0  0  0  0  0  0  0  0  0
    8.9597  -15.9882   23.5117 N   0  0  0  0  0  0  0  0  0  0  0  0
    8.9807  -15.5304   24.9301 C   0  0  1  0  0  0  0  0  0  0  0  0
    7.6927  -16.0174   25.5169 C   0  0  0  0  0  0  0  0  0  0  0  0
    6.6108  -15.0547   25.6914 C   0  0  0  0  0  0  0  0  0  0  0  0
    5.2434  -15.2705   25.5482 C   0  0  0  0  0  0  0  0  0  0  0  0
    4.5850  -14.1202   25.7707 N   0  0  0  0  0  0  0  0  0  0  0  0
    5.4735  -13.1409   26.0587 C   0  0  0  0  0  0  0  0  0  0  0  0
    5.3657  -11.7992   26.3636 C   0  0  0  0  0  0  0  0  0  0  0  0
    6.4699  -11.0180   26.6212 C   0  0  0  0  0  0  0  0  0  0  0  0
    7.7217  -11.5938   26.5728 C   0  0  0  0  0  0  0  0  0  0  0  0
    7.8517  -12.9308   26.2700 C   0  0  0  0  0  0  0  0  0  0  0  0
    6.7190  -13.7056   26.0120 C   0  0  0  0  0  0  0  0  0  0  0  0
   10.2059  -15.9928   25.5728 C   0  0  0  0  0  0  0  0  0  0  0  0
   11.0948  -16.5053   24.7938 O   0  0  0  0  0  0  0  0  0  0  0  0
   10.5615  -15.9516   26.9302 N   0  0  0  0  0  0  0  0  0  0  0  0
    9.8140  -15.4216   28.0432 C   0  0  0  0  0  0  0  0  0  0  0  0
   10.8496  -14.8489   28.9989 C   0  0  0  0  0  0  0  0  0  0  0  0
   12.1584  -15.2180   28.3788 C   0  0  0  0  0  0  0  0  0  0  0  0
   11.8391  -16.4154   27.5215 C   0  0  1  0  0  0  0  0  0  0  0  0
   11.6370  -17.5878   28.3941 C   0  0  0  0  0  0  0  0  0  0  0  0
   12.6743  -18.0795   28.9173 O   0  0  0  0  0  0  0  0  0  0  0  0
   10.4303  -18.1814   28.6804 O   0  0  0  0  0  0  0  0  0  0  0  0
  2  1  1  0
  3  2  1  0
  3  4  1  6
  5  6  1  6
  5  3  1  0
  7  5  1  0
  8  7  2  0
  9  7  1  0
 10 21  1  0
 10  9  1  0
 10 11  1  1
 12 11  1  0
 13 12  2  0
 14 13  1  0
 15 14  1  0
 15 20  2  0
 16 15  1  0
 17 16  2  0
 17 18  1  0
 18 19  2  0
 19 20  1  0
 20 12  1  0
 21 22  2  0
 23 27  1  0
 23 21  1  0
 24 25  1  0
 24 23  1  0
 25 26  1  0
 27 26  1  0
 28 30  1  0
 27 28  1  1
 29 28  2  0
M  END
$$$$
