IWP.pdb
     RDKit          3D

 30 32  0  0  1  0  0  0  0  0999 V2000
   12.6945  -17.7777   18.9679 C   0  0  0  0  0  0  0  0  0  0  0  0
   11.2790  -17.5899   19.4029 C   0  0  0  0  0  0  0  0  0  0  0  0
   11.1792  -16.8127   20.7095 C   0  0  2  0  0  0  0  0  0  0  0  0
   11.9694  -17.5752   21.7423 C   0  0  0  0  0  0  0  0  0  0  0  0
    9.7143  -16.6942   21.0990 C   0  0  2  0  0  0  0  0  0  0  0  0
    9.0287  -15.8690   20.0854 N   0  0  0  0  0  0  0  0  0  0  0  0
    9.4972  -16.0159   22.3903 C   0  0  0  0  0  0  0  0  0  0  0  0
    9.7830  -14.7809   22.4999 O   0  0  0  0  0  0  0  0  0  0  0  0
    8.9881  -16.6484   23.5201 N   0  0  0  0  0  0  0  0  0  0  0  0
    8.9351  -15.9313   24.8258 C   0  0  1  0  0  0  0  0  0  0  0  0
    7.5978  -16.2726   25.4049 C   0  0  0  0  0  0  0  0  0  0  0  0
    6.6172  -15.2018   25.5451 C   0  0  0  0  0  0  0  0  0  0  0  0
    5.2438  -15.3203   25.7360 C   0  0  0  0  0  0  0  0  0  0  0  0
    4.6941  -14.0951   25.7904 N   0  0  0  0  0  0  0  0  0  0  0  0
    5.6612  -13.1603   25.6410 C   0  0  0  0  0  0  0  0  0  0  0  0
    5.6739  -11.7805   25.6158 C   0  0  0  0  0  0  0  0  0  0  0  0
    6.8372  -11.0641   25.4441 C   0  0  0  0  0  0  0  0  0  0  0  0
    8.0258  -11.7462   25.2928 C   0  0  0  0  0  0  0  0  0  0  0  0
    8.0353  -13.1230   25.3145 C   0  0  0  0  0  0  0  0  0  0  0  0
    6.8444  -13.8308   25.4898 C   0  0  0  0  0  0  0  0  0  0  0  0
   10.1020  -16.2886   25.6250 C   0  0  0  0  0  0  0  0  0  0  0  0
   11.0122  -16.9732   25.0229 O   0  0  0  0  0  0  0  0  0  0  0  0
   10.3814  -15.9833   26.9665 N   0  0  0  0  0  0  0  0  0  0  0  0
    9.5965  -15.2135   27.8991 C   0  0  0  0  0  0  0  0  0  0  0  0
   10.6009  -14.4923   28.7850 C   0  0  0  0  0  0  0  0  0  0  0  0
   11.9248  -15.0227   28.3382 C   0  0  0  0  0  0  0  0  0  0  0  0
   11.6010  -16.3585   27.7206 C   0  0  1  0  0  0  0  0  0  0  0  0
   11.2966  -17.3213   28.7964 C   0  0  0  0  0  0  0  0  0  0  0  0
   10.0763  -17.5792   28.9857 O   0  0  0  0  0  0  0  0  0  0  0  0
   12.2181  -17.9517   29.5988 O   0  0  0  0  0  0  0  0  0  0  0  0
  2  1  1  0
  3  2  1  0
  3  4  1  1
  5  6  1  6
  5  3  1  0
  7  5  1  0
  8  7  2  0
  9  7  1  0
 10 21  1  0
 10  9  1  0
 10 11  1  1
 12 11  1  0
 13 12  2  0
 14 13  1  0
 15 14  1  0
 15 20  2  0
 16 15  1  0
 17 16  2  0
 17 18  1  0
 18 19  2  0
 19 20  1  0
 20 12  1  0
 21 22  2  0
 23 27  1  0
 23 21  1  0
 24 25  1  0
 24 23  1  0
 25 26  1  0
 27 26  1  0
 28 30  1  0
 27 28  1  1
 29 28  2  0
M  END
$$$$
