IWP.pdb
     RDKit          3D

 30 32  0  0  1  0  0  0  0  0999 V2000
   14.2396  -17.8081   19.1635 C   0  0  0  0  0  0  0  0  0  0  0  0
   12.7724  -17.9347   19.4069 C   0  0  0  0  0  0  0  0  0  0  0  0
   12.3031  -17.0486   20.5540 C   0  0  2  0  0  0  0  0  0  0  0  0
   13.0365  -17.4977   21.7921 C   0  0  0  0  0  0  0  0  0  0  0  0
   10.7981  -17.2010   20.7073 C   0  0  2  0  0  0  0  0  0  0  0  0
   10.1545  -16.7397   19.4617 N   0  0  0  0  0  0  0  0  0  0  0  0
   10.2261  -16.3783   21.7894 C   0  0  0  0  0  0  0  0  0  0  0  0
   10.2903  -15.1103   21.7069 O   0  0  0  0  0  0  0  0  0  0  0  0
    9.6061  -16.9067   22.9172 N   0  0  0  0  0  0  0  0  0  0  0  0
    9.2034  -16.0163   24.0427 C   0  0  1  0  0  0  0  0  0  0  0  0
    7.7999  -16.4166   24.3746 C   0  0  0  0  0  0  0  0  0  0  0  0
    6.9743  -15.4712   25.1179 C   0  0  0  0  0  0  0  0  0  0  0  0
    5.7867  -15.7243   25.7979 C   0  0  0  0  0  0  0  0  0  0  0  0
    5.3255  -14.5799   26.3305 N   0  0  0  0  0  0  0  0  0  0  0  0
    6.1711  -13.5681   26.0257 C   0  0  0  0  0  0  0  0  0  0  0  0
    6.1975  -12.2162   26.3018 C   0  0  0  0  0  0  0  0  0  0  0  0
    7.2104  -11.3989   25.8525 C   0  0  0  0  0  0  0  0  0  0  0  0
    8.2296  -11.9480   25.1037 C   0  0  0  0  0  0  0  0  0  0  0  0
    8.2223  -13.2947   24.8164 C   0  0  0  0  0  0  0  0  0  0  0  0
    7.1855  -14.1063   25.2816 C   0  0  0  0  0  0  0  0  0  0  0  0
   10.1826  -16.1193   25.1192 C   0  0  0  0  0  0  0  0  0  0  0  0
   11.2423  -16.8032   24.8567 O   0  0  0  0  0  0  0  0  0  0  0  0
   10.1386  -15.5679   26.4095 N   0  0  0  0  0  0  0  0  0  0  0  0
    9.1789  -14.6465   26.9648 C   0  0  0  0  0  0  0  0  0  0  0  0
    9.9632  -13.7635   27.9233 C   0  0  0  0  0  0  0  0  0  0  0  0
   11.3361  -14.3541   27.9192 C   0  0  0  0  0  0  0  0  0  0  0  0
   11.1244  -15.7844   27.4950 C   0  0  1  0  0  0  0  0  0  0  0  0
   10.5337  -16.5342   28.6201 C   0  0  0  0  0  0  0  0  0  0  0  0
   11.2962  -16.7652   29.5982 O   0  0  0  0  0  0  0  0  0  0  0  0
    9.2406  -16.9961   28.6908 O   0  0  0  0  0  0  0  0  0  0  0  0
  2  1  1  0
  3  2  1  0
  3  4  1  1
  5  6  1  6
  5  3  1  0
  7  5  1  0
  8  7  2  0
  9  7  1  0
 10 21  1  0
 10  9  1  0
 10 11  1  1
 12 11  1  0
 13 12  2  0
 14 13  1  0
 15 14  1  0
 15 20  2  0
 16 15  1  0
 17 16  2  0
 17 18  1  0
 18 19  2  0
 19 20  1  0
 20 12  1  0
 21 22  2  0
 23 27  1  0
 23 21  1  0
 24 25  1  0
 24 23  1  0
 25 26  1  0
 27 26  1  0
 28 30  1  0
 27 28  1  1
 29 28  2  0
M  END
$$$$
