IWP.pdb
     RDKit          3D

 30 32  0  0  1  0  0  0  0  0999 V2000
    7.4656  -13.8048   18.2657 C   0  0  0  0  0  0  0  0  0  0  0  0
    8.1458  -14.8511   19.0847 C   0  0  0  0  0  0  0  0  0  0  0  0
    8.5205  -14.3406   20.4704 C   0  0  2  0  0  0  0  0  0  0  0  0
    9.5532  -13.2588   20.2819 C   0  0  0  0  0  0  0  0  0  0  0  0
    9.0656  -15.4999   21.2893 C   0  0  2  0  0  0  0  0  0  0  0  0
    8.0947  -16.6099   21.2279 N   0  0  0  0  0  0  0  0  0  0  0  0
    9.2354  -15.1867   22.7203 C   0  0  0  0  0  0  0  0  0  0  0  0
    9.6093  -14.0194   23.0613 O   0  0  0  0  0  0  0  0  0  0  0  0
    9.0075  -16.1006   23.7442 N   0  0  0  0  0  0  0  0  0  0  0  0
    9.0965  -15.6732   25.1695 C   0  0  1  0  0  0  0  0  0  0  0  0
    7.7852  -16.0629   25.7768 C   0  0  0  0  0  0  0  0  0  0  0  0
    6.6820  -15.1119   25.6962 C   0  0  0  0  0  0  0  0  0  0  0  0
    5.3555  -15.3682   25.3624 C   0  0  0  0  0  0  0  0  0  0  0  0
    4.6617  -14.2173   25.3781 N   0  0  0  0  0  0  0  0  0  0  0  0
    5.4869  -13.1982   25.7129 C   0  0  0  0  0  0  0  0  0  0  0  0
    5.3226  -11.8380   25.8781 C   0  0  0  0  0  0  0  0  0  0  0  0
    6.3670  -11.0143   26.2337 C   0  0  0  0  0  0  0  0  0  0  0  0
    7.6154  -11.5654   26.4308 C   0  0  0  0  0  0  0  0  0  0  0  0
    7.8012  -12.9204   26.2707 C   0  0  0  0  0  0  0  0  0  0  0  0
    6.7286  -13.7384   25.9096 C   0  0  0  0  0  0  0  0  0  0  0  0
   10.2923  -16.2478   25.7761 C   0  0  0  0  0  0  0  0  0  0  0  0
   11.1396  -16.7787   24.9638 O   0  0  0  0  0  0  0  0  0  0  0  0
   10.6591  -16.2982   27.1303 N   0  0  0  0  0  0  0  0  0  0  0  0
    9.9276  -15.8309   28.2813 C   0  0  0  0  0  0  0  0  0  0  0  0
   10.9782  -15.3341   29.2626 C   0  0  0  0  0  0  0  0  0  0  0  0
   12.2771  -15.6797   28.6089 C   0  0  0  0  0  0  0  0  0  0  0  0
   11.9349  -16.8154   27.6795 C   0  0  1  0  0  0  0  0  0  0  0  0
   11.7238  -18.0386   28.4771 C   0  0  0  0  0  0  0  0  0  0  0  0
   12.7435  -18.5176   29.0448 O   0  0  0  0  0  0  0  0  0  0  0  0
   10.5262  -18.6913   28.6508 O   0  0  0  0  0  0  0  0  0  0  0  0
  2  1  1  0
  3  2  1  0
  3  4  1  6
  5  6  1  1
  5  3  1  0
  7  5  1  0
  8  7  2  0
  9  7  1  0
 10 21  1  0
 10  9  1  0
 10 11  1  1
 12 11  1  0
 13 12  2  0
 14 13  1  0
 15 14  1  0
 15 20  2  0
 16 15  1  0
 17 16  2  0
 17 18  1  0
 18 19  2  0
 19 20  1  0
 20 12  1  0
 21 22  2  0
 23 27  1  0
 23 21  1  0
 24 25  1  0
 24 23  1  0
 25 26  1  0
 27 26  1  0
 28 30  1  0
 27 28  1  1
 29 28  2  0
M  END
$$$$
