IWP.pdb
     RDKit          3D

 30 32  0  0  1  0  0  0  0  0999 V2000
    6.0091  -23.1463   22.6838 C   0  0  0  0  0  0  0  0  0  0  0  0
    4.8820  -22.2037   22.4205 C   0  0  0  0  0  0  0  0  0  0  0  0
    5.3594  -20.7634   22.2832 C   0  0  2  0  0  0  0  0  0  0  0  0
    6.4710  -20.7582   21.2651 C   0  0  0  0  0  0  0  0  0  0  0  0
    5.8393  -20.2743   23.6404 C   0  0  2  0  0  0  0  0  0  0  0  0
    4.7008  -20.3147   24.5788 N   0  0  0  0  0  0  0  0  0  0  0  0
    6.3117  -18.8773   23.6339 C   0  0  0  0  0  0  0  0  0  0  0  0
    5.5982  -17.9821   23.0787 O   0  0  0  0  0  0  0  0  0  0  0  0
    7.5094  -18.4634   24.2081 N   0  0  0  0  0  0  0  0  0  0  0  0
    8.0022  -17.0716   24.0032 C   0  0  1  0  0  0  0  0  0  0  0  0
    8.2010  -16.5207   25.3806 C   0  0  0  0  0  0  0  0  0  0  0  0
    7.2010  -15.5946   25.9002 C   0  0  0  0  0  0  0  0  0  0  0  0
    5.9057  -15.8824   26.3196 C   0  0  0  0  0  0  0  0  0  0  0  0
    5.2991  -14.7466   26.7046 N   0  0  0  0  0  0  0  0  0  0  0  0
    6.1523  -13.7069   26.5542 C   0  0  0  0  0  0  0  0  0  0  0  0
    6.0688  -12.3490   26.7858 C   0  0  0  0  0  0  0  0  0  0  0  0
    7.1234  -11.4996   26.5363 C   0  0  0  0  0  0  0  0  0  0  0  0
    8.2989  -12.0218   26.0397 C   0  0  0  0  0  0  0  0  0  0  0  0
    8.4031  -13.3740   25.8011 C   0  0  0  0  0  0  0  0  0  0  0  0
    7.3216  -14.2183   26.0609 C   0  0  0  0  0  0  0  0  0  0  0  0
    9.1737  -17.0930   23.1343 C   0  0  0  0  0  0  0  0  0  0  0  0
    9.7895  -18.2208   23.0422 O   0  0  0  0  0  0  0  0  0  0  0  0
    9.7266  -16.0528   22.3706 N   0  0  0  0  0  0  0  0  0  0  0  0
    9.3745  -14.6548   22.3609 C   0  0  0  0  0  0  0  0  0  0  0  0
    9.5740  -14.1902   20.9264 C   0  0  0  0  0  0  0  0  0  0  0  0
   10.1557  -15.3819   20.2370 C   0  0  0  0  0  0  0  0  0  0  0  0
   10.7903  -16.1802   21.3463 C   0  0  1  0  0  0  0  0  0  0  0  0
   12.0325  -15.5062   21.7701 C   0  0  0  0  0  0  0  0  0  0  0  0
   12.9731  -15.4896   20.9295 O   0  0  0  0  0  0  0  0  0  0  0  0
   12.2481  -14.9035   22.9869 O   0  0  0  0  0  0  0  0  0  0  0  0
  2  1  1  0
  3  2  1  0
  3  4  1  6
  5  6  1  1
  5  3  1  0
  7  5  1  0
  8  7  2  0
  9  7  1  0
 10 21  1  0
 10  9  1  0
 10 11  1  1
 12 11  1  0
 13 12  2  0
 14 13  1  0
 15 14  1  0
 15 20  2  0
 16 15  1  0
 17 16  2  0
 17 18  1  0
 18 19  2  0
 19 20  1  0
 20 12  1  0
 21 22  2  0
 23 27  1  0
 23 21  1  0
 24 25  1  0
 24 23  1  0
 25 26  1  0
 27 26  1  0
 28 30  1  0
 27 28  1  1
 29 28  2  0
M  END
$$$$
