IWP.pdb
     RDKit          3D

 30 32  0  0  1  0  0  0  0  0999 V2000
    7.1334  -21.4493   20.2193 C   0  0  0  0  0  0  0  0  0  0  0  0
    6.3838  -20.6966   21.2679 C   0  0  0  0  0  0  0  0  0  0  0  0
    6.9006  -20.9972   22.6692 C   0  0  2  0  0  0  0  0  0  0  0  0
    6.7384  -22.4788   22.8950 C   0  0  0  0  0  0  0  0  0  0  0  0
    6.0973  -20.1855   23.6729 C   0  0  2  0  0  0  0  0  0  0  0  0
    4.6660  -20.4881   23.4769 N   0  0  0  0  0  0  0  0  0  0  0  0
    6.2321  -18.7272   23.4995 C   0  0  0  0  0  0  0  0  0  0  0  0
    5.3370  -18.0920   22.8561 O   0  0  0  0  0  0  0  0  0  0  0  0
    7.2937  -17.9834   24.0047 N   0  0  0  0  0  0  0  0  0  0  0  0
    7.4229  -16.5351   23.6764 C   0  0  1  0  0  0  0  0  0  0  0  0
    7.8803  -15.8862   24.9453 C   0  0  0  0  0  0  0  0  0  0  0  0
    6.9768  -14.9465   25.5999 C   0  0  0  0  0  0  0  0  0  0  0  0
    5.6238  -15.1149   25.8784 C   0  0  0  0  0  0  0  0  0  0  0  0
    5.1486  -14.0045   26.4678 N   0  0  0  0  0  0  0  0  0  0  0  0
    6.1457  -13.0978   26.5912 C   0  0  0  0  0  0  0  0  0  0  0  0
    6.2301  -11.8205   27.1066 C   0  0  0  0  0  0  0  0  0  0  0  0
    7.4083  -11.1079   27.1027 C   0  0  0  0  0  0  0  0  0  0  0  0
    8.5385  -11.6885   26.5672 C   0  0  0  0  0  0  0  0  0  0  0  0
    8.4760  -12.9620   26.0472 C   0  0  0  0  0  0  0  0  0  0  0  0
    7.2711  -13.6677   26.0609 C   0  0  0  0  0  0  0  0  0  0  0  0
    8.2887  -16.3750   22.5134 C   0  0  0  0  0  0  0  0  0  0  0  0
    8.9456  -17.4214   22.1485 O   0  0  0  0  0  0  0  0  0  0  0  0
    8.5044  -15.2353   21.7225 N   0  0  0  0  0  0  0  0  0  0  0  0
    8.0773  -13.8788   21.9591 C   0  0  0  0  0  0  0  0  0  0  0  0
    7.7845  -13.2942   20.5857 C   0  0  0  0  0  0  0  0  0  0  0  0
    8.1955  -14.3737   19.6371 C   0  0  0  0  0  0  0  0  0  0  0  0
    9.1974  -15.1889   20.4131 C   0  0  1  0  0  0  0  0  0  0  0  0
   10.4634  -14.4359   20.4979 C   0  0  0  0  0  0  0  0  0  0  0  0
   11.1003  -14.2918   19.4184 O   0  0  0  0  0  0  0  0  0  0  0  0
   10.9999  -13.8862   21.6382 O   0  0  0  0  0  0  0  0  0  0  0  0
  2  1  1  0
  3  2  1  0
  3  4  1  1
  5  6  1  6
  5  3  1  0
  7  5  1  0
  8  7  2  0
  9  7  1  0
 10 21  1  0
 10  9  1  0
 10 11  1  1
 12 11  1  0
 13 12  2  0
 14 13  1  0
 15 14  1  0
 15 20  2  0
 16 15  1  0
 17 16  2  0
 17 18  1  0
 18 19  2  0
 19 20  1  0
 20 12  1  0
 21 22  2  0
 23 27  1  0
 23 21  1  0
 24 25  1  0
 24 23  1  0
 25 26  1  0
 27 26  1  0
 28 30  1  0
 27 28  1  1
 29 28  2  0
M  END
$$$$
