IWP.pdb
     RDKit          3D

 30 32  0  0  1  0  0  0  0  0999 V2000
   12.8638  -16.7269   18.0547 C   0  0  0  0  0  0  0  0  0  0  0  0
   11.7779  -17.3386   18.8762 C   0  0  0  0  0  0  0  0  0  0  0  0
   11.3413  -16.4293   20.0179 C   0  0  2  0  0  0  0  0  0  0  0  0
   12.5596  -16.1615   20.8645 C   0  0  0  0  0  0  0  0  0  0  0  0
   10.2493  -17.1285   20.8118 C   0  0  2  0  0  0  0  0  0  0  0  0
    9.0852  -17.3272   19.9264 N   0  0  0  0  0  0  0  0  0  0  0  0
    9.7576  -16.3455   21.9606 C   0  0  0  0  0  0  0  0  0  0  0  0
    9.5927  -15.0903   21.8328 O   0  0  0  0  0  0  0  0  0  0  0  0
    9.4534  -16.8989   23.2002 N   0  0  0  0  0  0  0  0  0  0  0  0
    9.1792  -16.0189   24.3717 C   0  0  1  0  0  0  0  0  0  0  0  0
    7.8216  -16.4235   24.8549 C   0  0  0  0  0  0  0  0  0  0  0  0
    6.9393  -15.3835   25.3725 C   0  0  0  0  0  0  0  0  0  0  0  0
    5.6405  -15.5252   25.8519 C   0  0  0  0  0  0  0  0  0  0  0  0
    5.1644  -14.3210   26.2115 N   0  0  0  0  0  0  0  0  0  0  0  0
    6.1081  -13.3776   25.9859 C   0  0  0  0  0  0  0  0  0  0  0  0
    6.1675  -12.0103   26.1635 C   0  0  0  0  0  0  0  0  0  0  0  0
    7.2888  -11.2800   25.8393 C   0  0  0  0  0  0  0  0  0  0  0  0
    8.3860  -11.9348   25.3213 C   0  0  0  0  0  0  0  0  0  0  0  0
    8.3476  -13.2987   25.1356 C   0  0  0  0  0  0  0  0  0  0  0  0
    7.2004  -14.0210   25.4709 C   0  0  0  0  0  0  0  0  0  0  0  0
   10.2726  -16.1305   25.3308 C   0  0  0  0  0  0  0  0  0  0  0  0
   11.3399  -16.7144   24.9069 O   0  0  0  0  0  0  0  0  0  0  0  0
   10.3318  -15.6813   26.6596 N   0  0  0  0  0  0  0  0  0  0  0  0
    9.4079  -14.8295   27.3662 C   0  0  0  0  0  0  0  0  0  0  0  0
   10.2571  -14.0038   28.3204 C   0  0  0  0  0  0  0  0  0  0  0  0
   11.6348  -14.5580   28.1519 C   0  0  0  0  0  0  0  0  0  0  0  0
   11.4125  -15.9563   27.6360 C   0  0  1  0  0  0  0  0  0  0  0  0
   10.9361  -16.8049   28.7450 C   0  0  0  0  0  0  0  0  0  0  0  0
    9.6858  -16.9348   28.8509 O   0  0  0  0  0  0  0  0  0  0  0  0
   11.7292  -17.4562   29.6600 O   0  0  0  0  0  0  0  0  0  0  0  0
  2  1  1  0
  3  2  1  0
  3  4  1  1
  5  6  1  6
  5  3  1  0
  7  5  1  0
  8  7  2  0
  9  7  1  0
 10 21  1  0
 10  9  1  0
 10 11  1  1
 12 11  1  0
 13 12  2  0
 14 13  1  0
 15 14  1  0
 15 20  2  0
 16 15  1  0
 17 16  2  0
 17 18  1  0
 18 19  2  0
 19 20  1  0
 20 12  1  0
 21 22  2  0
 23 27  1  0
 23 21  1  0
 24 25  1  0
 24 23  1  0
 25 26  1  0
 27 26  1  0
 28 30  1  0
 27 28  1  1
 29 28  2  0
M  END
$$$$
