IWP.pdb
     RDKit          3D

 30 32  0  0  1  0  0  0  0  0999 V2000
   13.8384  -19.9815   19.2660 C   0  0  0  0  0  0  0  0  0  0  0  0
   12.4077  -19.8931   19.6822 C   0  0  0  0  0  0  0  0  0  0  0  0
   12.2060  -18.9224   20.8390 C   0  0  2  0  0  0  0  0  0  0  0  0
   12.5029  -19.6768   22.1099 C   0  0  0  0  0  0  0  0  0  0  0  0
   10.7731  -18.4151   20.8095 C   0  0  2  0  0  0  0  0  0  0  0  0
   10.4692  -17.9590   19.4390 N   0  0  0  0  0  0  0  0  0  0  0  0
   10.5374  -17.2532   21.6865 C   0  0  0  0  0  0  0  0  0  0  0  0
   11.3369  -16.2647   21.6375 O   0  0  0  0  0  0  0  0  0  0  0  0
    9.4758  -17.1624   22.5811 N   0  0  0  0  0  0  0  0  0  0  0  0
    9.4107  -16.0420   23.5622 C   0  0  1  0  0  0  0  0  0  0  0  0
    8.1326  -15.3266   23.2538 C   0  0  0  0  0  0  0  0  0  0  0  0
    7.9315  -14.0018   23.8302 C   0  0  0  0  0  0  0  0  0  0  0  0
    8.4248  -12.7851   23.3687 C   0  0  0  0  0  0  0  0  0  0  0  0
    8.0331  -11.8022   24.1973 N   0  0  0  0  0  0  0  0  0  0  0  0
    7.2918  -12.3272   25.2005 C   0  0  0  0  0  0  0  0  0  0  0  0
    6.6488  -11.8011   26.3024 C   0  0  0  0  0  0  0  0  0  0  0  0
    5.9452  -12.5913   27.1835 C   0  0  0  0  0  0  0  0  0  0  0  0
    5.8814  -13.9501   26.9581 C   0  0  0  0  0  0  0  0  0  0  0  0
    6.5163  -14.4955   25.8647 C   0  0  0  0  0  0  0  0  0  0  0  0
    7.2246  -13.6765   24.9830 C   0  0  0  0  0  0  0  0  0  0  0  0
    9.5522  -16.5704   24.9145 C   0  0  0  0  0  0  0  0  0  0  0  0
    9.3110  -17.8276   25.0590 O   0  0  0  0  0  0  0  0  0  0  0  0
    9.9249  -15.9003   26.0905 N   0  0  0  0  0  0  0  0  0  0  0  0
    9.7212  -14.5176   26.4444 C   0  0  0  0  0  0  0  0  0  0  0  0
   10.9357  -14.1211   27.2700 C   0  0  0  0  0  0  0  0  0  0  0  0
   11.7040  -15.3944   27.4192 C   0  0  0  0  0  0  0  0  0  0  0  0
   10.6710  -16.4758   27.2346 C   0  0  1  0  0  0  0  0  0  0  0  0
    9.8320  -16.5472   28.4462 C   0  0  0  0  0  0  0  0  0  0  0  0
    8.6901  -16.0169   28.3663 O   0  0  0  0  0  0  0  0  0  0  0  0
   10.1852  -17.1345   29.6382 O   0  0  0  0  0  0  0  0  0  0  0  0
  2  1  1  0
  3  2  1  0
  3  4  1  1
  5  6  1  6
  5  3  1  0
  7  5  1  0
  8  7  2  0
  9  7  1  0
 10 21  1  0
 10  9  1  0
 10 11  1  1
 12 11  1  0
 13 12  2  0
 14 13  1  0
 15 14  1  0
 15 20  2  0
 16 15  1  0
 17 16  2  0
 17 18  1  0
 18 19  2  0
 19 20  1  0
 20 12  1  0
 21 22  2  0
 23 27  1  0
 23 21  1  0
 24 25  1  0
 24 23  1  0
 25 26  1  0
 27 26  1  0
 28 30  1  0
 27 28  1  1
 29 28  2  0
M  END
$$$$
