FAC.pdb
     RDKit          3D

 23 23  0  0  1  0  0  0  0  0999 V2000
   28.9546  -26.1652  -18.1064 N   0  0  0  0  0  0  0  0  0  0  0  0
   27.8529  -26.6221  -17.3243 C   0  0  1  0  0  0  0  0  0  0  0  0
   28.4229  -27.2229  -16.0328 C   0  0  0  0  0  0  0  0  0  0  0  0
   29.0575  -28.5140  -16.4042 C   0  0  0  0  0  0  0  0  0  0  0  0
   28.3026  -29.6885  -16.4691 C   0  0  0  0  0  0  0  0  0  0  0  0
   28.8606  -30.8922  -16.8084 C   0  0  0  0  0  0  0  0  0  0  0  0
   30.2024  -30.9698  -17.0979 C   0  0  0  0  0  0  0  0  0  0  0  0
   30.9919  -29.8332  -17.0472 C   0  0  0  0  0  0  0  0  0  0  0  0
   30.4005  -28.6237  -16.6999 C   0  0  0  0  0  0  0  0  0  0  0  0
   26.9191  -25.4945  -16.9686 C   0  0  0  0  0  0  0  0  0  0  0  0
   25.8501  -25.6782  -16.3715 O   0  0  0  0  0  0  0  0  0  0  0  0
   27.2691  -21.9747  -16.4110 C   0  0  0  0  0  0  0  0  0  0  0  0
   26.4378  -23.0628  -17.0691 C   0  0  2  0  0  0  0  0  0  0  0  0
   27.2858  -24.1854  -17.3339 N   0  0  0  0  0  0  0  0  0  0  0  0
   25.8306  -22.4856  -18.2979 C   0  0  0  0  0  0  0  0  0  0  0  0
   25.7787  -21.2630  -18.5370 O   0  0  0  0  0  0  0  0  0  0  0  0
   25.2853  -23.3855  -19.2397 N   0  0  0  0  0  0  0  0  0  0  0  0
   24.6910  -22.9828  -20.4952 C   0  0  1  0  0  0  0  0  0  0  0  0
   25.5616  -23.4787  -21.6305 C   0  0  0  0  0  0  0  0  0  0  0  0
   27.1486  -22.6472  -21.6898 S   0  0  0  0  0  0  0  0  0  0  0  0
   23.3459  -23.5865  -20.5882 C   0  0  0  0  0  0  0  0  0  0  0  0
   22.5267  -23.2915  -21.6578 O   0  0  0  0  0  0  0  0  0  0  0  0
   22.9400  -24.3680  -19.7000 O   0  0  0  0  0  0  0  0  0  0  0  0
  2  1  1  6
  2 10  1  0
  3  2  1  0
  4  3  1  0
  5  4  2  0
  6  5  1  0
  7  8  1  0
  7  6  2  0
  8  9  2  0
  9  4  1  0
 10 14  1  0
 10 11  2  0
 13 12  1  6
 14 13  1  0
 15 13  1  0
 15 17  1  0
 16 15  2  0
 18 17  1  0
 18 21  1  0
 18 19  1  6
 19 20  1  0
 21 22  1  0
 23 21  2  0
M  END
$$$$
