FAC.pdb
     RDKit          3D

 23 23  0  0  1  0  0  0  0  0999 V2000
   10.0949  -20.9068   -0.4507 N   0  0  0  0  0  0  0  0  0  0  0  0
   11.2968  -20.7405   -1.2004 C   0  0  1  0  0  0  0  0  0  0  0  0
   11.7030  -19.2647   -1.0975 C   0  0  0  0  0  0  0  0  0  0  0  0
   10.7124  -18.4911   -1.8900 C   0  0  0  0  0  0  0  0  0  0  0  0
    9.8365  -17.5995   -1.2645 C   0  0  0  0  0  0  0  0  0  0  0  0
    8.9138  -16.8736   -1.9693 C   0  0  0  0  0  0  0  0  0  0  0  0
    8.8296  -17.0110   -3.3347 C   0  0  0  0  0  0  0  0  0  0  0  0
    9.6761  -17.8821   -3.9997 C   0  0  0  0  0  0  0  0  0  0  0  0
   10.6040  -18.6072   -3.2604 C   0  0  0  0  0  0  0  0  0  0  0  0
   12.4129  -21.5940   -0.6566 C   0  0  0  0  0  0  0  0  0  0  0  0
   12.5403  -21.8333    0.5515 O   0  0  0  0  0  0  0  0  0  0  0  0
   15.4268  -23.0665   -2.2888 C   0  0  0  0  0  0  0  0  0  0  0  0
   14.4580  -22.9170   -1.1282 C   0  0  2  0  0  0  0  0  0  0  0  0
   13.3412  -22.1355   -1.5659 N   0  0  0  0  0  0  0  0  0  0  0  0
   15.1995  -22.2961    0.0015 C   0  0  0  0  0  0  0  0  0  0  0  0
   15.4213  -21.0728    0.0961 O   0  0  0  0  0  0  0  0  0  0  0  0
   15.6742  -23.1530    1.0186 N   0  0  0  0  0  0  0  0  0  0  0  0
   16.3514  -22.6963    2.2121 C   0  0  1  0  0  0  0  0  0  0  0  0
   15.4238  -21.7789    2.9808 C   0  0  0  0  0  0  0  0  0  0  0  0
   15.9912  -21.4776    4.6544 S   0  0  0  0  0  0  0  0  0  0  0  0
   16.6920  -23.8756    3.0341 C   0  0  0  0  0  0  0  0  0  0  0  0
   15.8190  -24.9403    3.1132 O   0  0  0  0  0  0  0  0  0  0  0  0
   17.7722  -23.9181    3.6633 O   0  0  0  0  0  0  0  0  0  0  0  0
  2  1  1  1
  2 10  1  0
  3  2  1  0
  4  3  1  0
  5  4  2  0
  6  5  1  0
  7  8  1  0
  7  6  2  0
  8  9  2  0
  9  4  1  0
 10 14  1  0
 10 11  2  0
 13 12  1  6
 14 13  1  0
 15 13  1  0
 15 17  1  0
 16 15  2  0
 18 17  1  0
 18 21  1  0
 18 19  1  1
 19 20  1  0
 21 22  1  0
 23 21  2  0
M  END
$$$$
