FAC.pdb
     RDKit          3D

 23 23  0  0  1  0  0  0  0  0999 V2000
   26.6394  -18.5053   -7.7882 N   0  0  0  0  0  0  0  0  0  0  0  0
   27.2929  -19.5953   -8.4355 C   0  0  1  0  0  0  0  0  0  0  0  0
   27.1556  -20.8215   -7.5237 C   0  0  0  0  0  0  0  0  0  0  0  0
   27.9633  -20.5442   -6.3078 C   0  0  0  0  0  0  0  0  0  0  0  0
   29.3592  -20.5996   -6.3494 C   0  0  0  0  0  0  0  0  0  0  0  0
   30.1288  -20.3489   -5.2448 C   0  0  0  0  0  0  0  0  0  0  0  0
   29.5302  -20.0311   -4.0486 C   0  0  0  0  0  0  0  0  0  0  0  0
   28.1501  -19.9639   -3.9574 C   0  0  0  0  0  0  0  0  0  0  0  0
   27.3920  -20.2229   -5.0939 C   0  0  0  0  0  0  0  0  0  0  0  0
   26.6657  -19.9054   -9.7698 C   0  0  0  0  0  0  0  0  0  0  0  0
   25.4453  -19.8315   -9.9654 O   0  0  0  0  0  0  0  0  0  0  0  0
   28.1542  -20.9610  -13.0366 C   0  0  0  0  0  0  0  0  0  0  0  0
   27.0152  -20.4670  -12.1610 C   0  0  2  0  0  0  0  0  0  0  0  0
   27.5088  -20.2931  -10.8284 N   0  0  0  0  0  0  0  0  0  0  0  0
   25.9128  -21.4610  -12.2513 C   0  0  0  0  0  0  0  0  0  0  0  0
   25.8432  -22.4853  -11.5438 O   0  0  0  0  0  0  0  0  0  0  0  0
   24.8926  -21.2185  -13.1971 N   0  0  0  0  0  0  0  0  0  0  0  0
   23.4938  -21.5088  -12.9725 C   0  0  1  0  0  0  0  0  0  0  0  0
   23.0036  -20.6814  -11.8029 C   0  0  0  0  0  0  0  0  0  0  0  0
   21.3570  -21.1525  -11.2735 S   0  0  0  0  0  0  0  0  0  0  0  0
   22.7426  -21.1532  -14.1939 C   0  0  0  0  0  0  0  0  0  0  0  0
   21.6712  -21.9224  -14.5967 O   0  0  0  0  0  0  0  0  0  0  0  0
   23.0714  -20.1541  -14.8708 O   0  0  0  0  0  0  0  0  0  0  0  0
  2  1  1  1
  2 10  1  0
  3  2  1  0
  4  3  1  0
  5  4  2  0
  6  5  1  0
  7  8  1  0
  7  6  2  0
  8  9  2  0
  9  4  1  0
 10 14  1  0
 10 11  2  0
 13 12  1  6
 14 13  1  0
 15 13  1  0
 15 17  1  0
 16 15  2  0
 18 17  1  0
 18 21  1  0
 18 19  1  1
 19 20  1  0
 21 22  1  0
 23 21  2  0
M  END
$$$$
