FAC.pdb
     RDKit          3D

 23 23  0  0  1  0  0  0  0  0999 V2000
   25.0111  -19.9237   -8.5335 N   0  0  0  0  0  0  0  0  0  0  0  0
   26.3401  -19.9494   -9.0507 C   0  0  1  0  0  0  0  0  0  0  0  0
   27.1022  -21.0538   -8.3069 C   0  0  0  0  0  0  0  0  0  0  0  0
   27.5696  -20.4640   -7.0257 C   0  0  0  0  0  0  0  0  0  0  0  0
   26.9308  -20.7732   -5.8217 C   0  0  0  0  0  0  0  0  0  0  0  0
   27.3398  -20.2447   -4.6264 C   0  0  0  0  0  0  0  0  0  0  0  0
   28.4092  -19.3816   -4.5873 C   0  0  0  0  0  0  0  0  0  0  0  0
   29.0746  -19.0449   -5.7541 C   0  0  0  0  0  0  0  0  0  0  0  0
   28.6391  -19.5955   -6.9543 C   0  0  0  0  0  0  0  0  0  0  0  0
   26.3557  -20.2530  -10.5263 C   0  0  0  0  0  0  0  0  0  0  0  0
   25.3520  -20.6447  -11.1364 O   0  0  0  0  0  0  0  0  0  0  0  0
   29.0362  -19.7456  -13.0884 C   0  0  0  0  0  0  0  0  0  0  0  0
   27.5879  -19.8517  -12.6419 C   0  0  2  0  0  0  0  0  0  0  0  0
   27.5634  -20.0814  -11.2290 N   0  0  0  0  0  0  0  0  0  0  0  0
   26.9538  -20.9465  -13.4236 C   0  0  0  0  0  0  0  0  0  0  0  0
   27.5382  -21.5867  -14.3198 O   0  0  0  0  0  0  0  0  0  0  0  0
   25.6123  -21.2691  -13.1232 N   0  0  0  0  0  0  0  0  0  0  0  0
   24.8402  -22.2653  -13.8324 C   0  0  1  0  0  0  0  0  0  0  0  0
   25.0301  -23.6059  -13.1543 C   0  0  0  0  0  0  0  0  0  0  0  0
   23.8501  -24.8317  -13.7188 S   0  0  0  0  0  0  0  0  0  0  0  0
   23.4171  -21.8717  -13.7853 C   0  0  0  0  0  0  0  0  0  0  0  0
   23.0190  -20.8044  -13.0079 O   0  0  0  0  0  0  0  0  0  0  0  0
   22.5638  -22.5014  -14.4484 O   0  0  0  0  0  0  0  0  0  0  0  0
  2  1  1  1
  2 10  1  0
  3  2  1  0
  4  3  1  0
  5  4  2  0
  6  5  1  0
  7  8  1  0
  7  6  2  0
  8  9  2  0
  9  4  1  0
 10 14  1  0
 10 11  2  0
 13 12  1  6
 14 13  1  0
 15 13  1  0
 15 17  1  0
 16 15  2  0
 18 17  1  0
 18 21  1  0
 18 19  1  1
 19 20  1  0
 21 22  1  0
 23 21  2  0
M  END
$$$$
