FAC.pdb
     RDKit          3D

 23 23  0  0  1  0  0  0  0  0999 V2000
   27.6248  -19.9505  -10.9816 N   0  0  0  0  0  0  0  0  0  0  0  0
   26.6028  -20.9124  -10.7279 C   0  0  1  0  0  0  0  0  0  0  0  0
   25.9894  -20.5826   -9.3609 C   0  0  0  0  0  0  0  0  0  0  0  0
   27.1208  -20.4166   -8.4121 C   0  0  0  0  0  0  0  0  0  0  0  0
   28.1410  -21.3693   -8.3431 C   0  0  0  0  0  0  0  0  0  0  0  0
   29.1955  -21.2424   -7.4787 C   0  0  0  0  0  0  0  0  0  0  0  0
   29.2722  -20.1521   -6.6446 C   0  0  0  0  0  0  0  0  0  0  0  0
   28.2853  -19.1812   -6.6762 C   0  0  0  0  0  0  0  0  0  0  0  0
   27.2255  -19.3342   -7.5631 C   0  0  0  0  0  0  0  0  0  0  0  0
   25.5204  -20.8615  -11.7747 C   0  0  0  0  0  0  0  0  0  0  0  0
   25.0580  -19.7960  -12.2034 O   0  0  0  0  0  0  0  0  0  0  0  0
   23.9981  -23.4825  -13.9266 C   0  0  0  0  0  0  0  0  0  0  0  0
   23.9786  -22.1191  -13.2568 C   0  0  2  0  0  0  0  0  0  0  0  0
   25.0227  -22.0783  -12.2781 N   0  0  0  0  0  0  0  0  0  0  0  0
   22.6241  -21.9212  -12.6757 C   0  0  0  0  0  0  0  0  0  0  0  0
   22.2499  -22.4303  -11.6008 O   0  0  0  0  0  0  0  0  0  0  0  0
   21.7198  -21.1076  -13.3929 N   0  0  0  0  0  0  0  0  0  0  0  0
   20.3323  -20.9229  -13.0291 C   0  0  1  0  0  0  0  0  0  0  0  0
   20.1945  -19.6206  -12.2689 C   0  0  0  0  0  0  0  0  0  0  0  0
   19.8348  -18.2338  -13.3464 S   0  0  0  0  0  0  0  0  0  0  0  0
   19.5290  -20.8730  -14.2680 C   0  0  0  0  0  0  0  0  0  0  0  0
   20.1490  -20.7134  -15.4895 O   0  0  0  0  0  0  0  0  0  0  0  0
   18.2834  -20.9747  -14.2192 O   0  0  0  0  0  0  0  0  0  0  0  0
  2  1  1  6
  2 10  1  0
  3  2  1  0
  4  3  1  0
  5  4  2  0
  6  5  1  0
  7  8  1  0
  7  6  2  0
  8  9  2  0
  9  4  1  0
 10 14  1  0
 10 11  2  0
 13 12  1  1
 14 13  1  0
 15 13  1  0
 15 17  1  0
 16 15  2  0
 18 17  1  0
 18 21  1  0
 18 19  1  6
 19 20  1  0
 21 22  1  0
 23 21  2  0
M  END
$$$$
