FAC.pdb
     RDKit          3D

 23 23  0  0  1  0  0  0  0  0999 V2000
   28.1344  -17.1257   -8.9515 N   0  0  0  0  0  0  0  0  0  0  0  0
   27.8213  -18.3283   -8.2516 C   0  0  1  0  0  0  0  0  0  0  0  0
   27.6038  -17.9601   -6.7782 C   0  0  0  0  0  0  0  0  0  0  0  0
   28.0454  -19.1290   -5.9744 C   0  0  0  0  0  0  0  0  0  0  0  0
   27.1323  -19.8486   -5.1986 C   0  0  0  0  0  0  0  0  0  0  0  0
   27.5108  -20.9297   -4.4481 C   0  0  0  0  0  0  0  0  0  0  0  0
   28.8242  -21.3364   -4.4434 C   0  0  0  0  0  0  0  0  0  0  0  0
   29.7661  -20.6553   -5.1961 C   0  0  0  0  0  0  0  0  0  0  0  0
   29.3554  -19.5610   -5.9492 C   0  0  0  0  0  0  0  0  0  0  0  0
   26.5675  -18.9709   -8.7853 C   0  0  0  0  0  0  0  0  0  0  0  0
   25.4507  -18.4487   -8.6707 O   0  0  0  0  0  0  0  0  0  0  0  0
   26.0359  -21.6810  -11.2177 C   0  0  0  0  0  0  0  0  0  0  0  0
   25.5516  -20.8569  -10.0369 C   0  0  2  0  0  0  0  0  0  0  0  0
   26.6813  -20.2131   -9.4378 N   0  0  0  0  0  0  0  0  0  0  0  0
   24.8405  -21.7745   -9.1075 C   0  0  0  0  0  0  0  0  0  0  0  0
   25.3927  -22.7172   -8.5066 O   0  0  0  0  0  0  0  0  0  0  0  0
   23.4607  -21.5542   -8.9029 N   0  0  0  0  0  0  0  0  0  0  0  0
   22.6125  -22.4128   -8.1062 C   0  0  1  0  0  0  0  0  0  0  0  0
   21.8272  -21.5588   -7.1330 C   0  0  0  0  0  0  0  0  0  0  0  0
   21.0821  -20.1318   -7.9214 S   0  0  0  0  0  0  0  0  0  0  0  0
   21.6892  -23.1258   -9.0126 C   0  0  0  0  0  0  0  0  0  0  0  0
   21.0640  -24.2821   -8.5952 O   0  0  0  0  0  0  0  0  0  0  0  0
   21.4676  -22.6879  -10.1630 O   0  0  0  0  0  0  0  0  0  0  0  0
  2  1  1  6
  2 10  1  0
  3  2  1  0
  4  3  1  0
  5  4  2  0
  6  5  1  0
  7  8  1  0
  7  6  2  0
  8  9  2  0
  9  4  1  0
 10 14  1  0
 10 11  2  0
 13 12  1  6
 14 13  1  0
 15 13  1  0
 15 17  1  0
 16 15  2  0
 18 17  1  0
 18 21  1  0
 18 19  1  1
 19 20  1  0
 21 22  1  0
 23 21  2  0
M  END
$$$$
