FAC.pdb
     RDKit          3D

 23 23  0  0  1  0  0  0  0  0999 V2000
   23.5285  -10.2041  -17.2678 N   0  0  0  0  0  0  0  0  0  0  0  0
   23.8683   -9.6282  -16.0080 C   0  0  1  0  0  0  0  0  0  0  0  0
   25.2761   -9.0325  -16.1390 C   0  0  0  0  0  0  0  0  0  0  0  0
   26.2112  -10.1751  -16.3062 C   0  0  0  0  0  0  0  0  0  0  0  0
   26.6529  -10.5568  -17.5761 C   0  0  0  0  0  0  0  0  0  0  0  0
   27.5143  -11.6053  -17.7602 C   0  0  0  0  0  0  0  0  0  0  0  0
   27.9707  -12.3175  -16.6764 C   0  0  0  0  0  0  0  0  0  0  0  0
   27.5614  -11.9772  -15.3979 C   0  0  0  0  0  0  0  0  0  0  0  0
   26.6864  -10.9085  -15.2387 C   0  0  0  0  0  0  0  0  0  0  0  0
   22.9082   -8.5335  -15.6210 C   0  0  0  0  0  0  0  0  0  0  0  0
   22.5307   -7.6657  -16.4193 O   0  0  0  0  0  0  0  0  0  0  0  0
   21.2556   -7.7118  -12.3655 C   0  0  0  0  0  0  0  0  0  0  0  0
   21.5293   -7.4882  -13.8431 C   0  0  2  0  0  0  0  0  0  0  0  0
   22.4279   -8.5056  -14.2980 N   0  0  0  0  0  0  0  0  0  0  0  0
   22.0753   -6.1136  -13.9979 C   0  0  0  0  0  0  0  0  0  0  0  0
   23.2902   -5.8596  -14.1161 O   0  0  0  0  0  0  0  0  0  0  0  0
   21.1536   -5.0439  -14.0102 N   0  0  0  0  0  0  0  0  0  0  0  0
   21.4845   -3.6938  -14.4093 C   0  0  1  0  0  0  0  0  0  0  0  0
   21.9641   -3.7114  -15.8455 C   0  0  0  0  0  0  0  0  0  0  0  0
   22.1816   -2.0627  -16.5148 S   0  0  0  0  0  0  0  0  0  0  0  0
   20.2689   -2.8626  -14.2921 C   0  0  0  0  0  0  0  0  0  0  0  0
   20.3544   -1.5750  -13.8055 O   0  0  0  0  0  0  0  0  0  0  0  0
   19.1550   -3.3186  -14.6323 O   0  0  0  0  0  0  0  0  0  0  0  0
  2  1  1  6
  2 10  1  0
  3  2  1  0
  4  3  1  0
  5  4  2  0
  6  5  1  0
  7  8  1  0
  7  6  2  0
  8  9  2  0
  9  4  1  0
 10 14  1  0
 10 11  2  0
 13 12  1  1
 14 13  1  0
 15 13  1  0
 15 17  1  0
 16 15  2  0
 18 17  1  0
 18 21  1  0
 18 19  1  6
 19 20  1  0
 21 22  1  0
 23 21  2  0
M  END
$$$$
