FAC.pdb
     RDKit          3D

 23 23  0  0  1  0  0  0  0  0999 V2000
   23.5910  -31.3664  -16.0477 N   0  0  0  0  0  0  0  0  0  0  0  0
   22.5603  -30.8185  -15.2281 C   0  0  1  0  0  0  0  0  0  0  0  0
   21.2918  -31.6473  -15.4682 C   0  0  0  0  0  0  0  0  0  0  0  0
   20.8054  -31.3022  -16.8291 C   0  0  0  0  0  0  0  0  0  0  0  0
   20.0171  -30.1675  -17.0397 C   0  0  0  0  0  0  0  0  0  0  0  0
   19.5549  -29.8251  -18.2824 C   0  0  0  0  0  0  0  0  0  0  0  0
   19.8641  -30.6077  -19.3696 C   0  0  0  0  0  0  0  0  0  0  0  0
   20.6423  -31.7422  -19.2114 C   0  0  0  0  0  0  0  0  0  0  0  0
   21.0987  -32.0673  -17.9389 C   0  0  0  0  0  0  0  0  0  0  0  0
   22.9190  -30.8855  -13.7663 C   0  0  0  0  0  0  0  0  0  0  0  0
   23.6575  -31.7638  -13.3013 O   0  0  0  0  0  0  0  0  0  0  0  0
   22.0533  -28.6674  -10.8821 C   0  0  0  0  0  0  0  0  0  0  0  0
   22.6326  -29.9315  -11.4941 C   0  0  2  0  0  0  0  0  0  0  0  0
   22.3886  -29.9069  -12.9046 N   0  0  0  0  0  0  0  0  0  0  0  0
   22.0025  -31.0929  -10.8117 C   0  0  0  0  0  0  0  0  0  0  0  0
   20.9046  -31.5807  -11.1451 O   0  0  0  0  0  0  0  0  0  0  0  0
   22.6986  -31.6665   -9.7252 N   0  0  0  0  0  0  0  0  0  0  0  0
   22.2159  -32.7932   -8.9577 C   0  0  1  0  0  0  0  0  0  0  0  0
   23.3568  -33.3469   -8.1302 C   0  0  0  0  0  0  0  0  0  0  0  0
   24.0990  -32.1061   -7.0705 S   0  0  0  0  0  0  0  0  0  0  0  0
   21.1308  -32.3228   -8.0725 C   0  0  0  0  0  0  0  0  0  0  0  0
   20.1590  -33.2012   -7.6411 O   0  0  0  0  0  0  0  0  0  0  0  0
   21.0846  -31.1272   -7.7080 O   0  0  0  0  0  0  0  0  0  0  0  0
  2  1  1  6
  2 10  1  0
  3  2  1  0
  4  3  1  0
  5  4  2  0
  6  5  1  0
  7  8  1  0
  7  6  2  0
  8  9  2  0
  9  4  1  0
 10 14  1  0
 10 11  2  0
 13 12  1  1
 14 13  1  0
 15 13  1  0
 15 17  1  0
 16 15  2  0
 18 17  1  0
 18 21  1  0
 18 19  1  1
 19 20  1  0
 21 22  1  0
 23 21  2  0
M  END
$$$$
