FAC.pdb
     RDKit          3D

 23 23  0  0  1  0  0  0  0  0999 V2000
   22.0435  -13.2687  -17.8963 N   0  0  0  0  0  0  0  0  0  0  0  0
   20.8831  -12.8460  -17.1828 C   0  0  1  0  0  0  0  0  0  0  0  0
   20.2545  -14.0925  -16.5465 C   0  0  0  0  0  0  0  0  0  0  0  0
   19.7666  -14.9437  -17.6623 C   0  0  0  0  0  0  0  0  0  0  0  0
   18.5699  -14.6439  -18.3191 C   0  0  0  0  0  0  0  0  0  0  0  0
   18.0960  -15.4103  -19.3503 C   0  0  0  0  0  0  0  0  0  0  0  0
   18.8036  -16.5127  -19.7679 C   0  0  0  0  0  0  0  0  0  0  0  0
   19.9950  -16.8504  -19.1483 C   0  0  0  0  0  0  0  0  0  0  0  0
   20.4538  -16.0555  -18.1038 C   0  0  0  0  0  0  0  0  0  0  0  0
   21.2281  -11.8626  -16.0947 C   0  0  0  0  0  0  0  0  0  0  0  0
   20.3776  -11.3931  -15.3271 O   0  0  0  0  0  0  0  0  0  0  0  0
   24.4737  -10.5042  -14.8618 C   0  0  0  0  0  0  0  0  0  0  0  0
   22.9659  -10.4425  -15.0370 C   0  0  2  0  0  0  0  0  0  0  0  0
   22.5724  -11.4692  -15.9540 N   0  0  0  0  0  0  0  0  0  0  0  0
   22.6219   -9.0745  -15.5079 C   0  0  0  0  0  0  0  0  0  0  0  0
   22.7212   -8.7043  -16.6943 O   0  0  0  0  0  0  0  0  0  0  0  0
   22.1572   -8.1517  -14.5453 N   0  0  0  0  0  0  0  0  0  0  0  0
   21.8534   -6.7668  -14.8309 C   0  0  1  0  0  0  0  0  0  0  0  0
   20.3520   -6.6088  -14.9476 C   0  0  0  0  0  0  0  0  0  0  0  0
   19.8363   -4.8936  -14.8730 S   0  0  0  0  0  0  0  0  0  0  0  0
   22.3643   -5.9394  -13.7188 C   0  0  0  0  0  0  0  0  0  0  0  0
   22.2083   -6.3594  -12.4145 O   0  0  0  0  0  0  0  0  0  0  0  0
   22.9409   -4.8539  -13.9504 O   0  0  0  0  0  0  0  0  0  0  0  0
  2  1  1  1
  2 10  1  0
  3  2  1  0
  4  3  1  0
  5  4  2  0
  6  5  1  0
  7  8  1  0
  7  6  2  0
  8  9  2  0
  9  4  1  0
 10 14  1  0
 10 11  2  0
 13 12  1  6
 14 13  1  0
 15 13  1  0
 15 17  1  0
 16 15  2  0
 18 17  1  0
 18 21  1  0
 18 19  1  1
 19 20  1  0
 21 22  1  0
 23 21  2  0
M  END
$$$$
