FAC.pdb
     RDKit          3D

 23 23  0  0  1  0  0  0  0  0999 V2000
   17.3564  -26.8454  -12.0394 N   0  0  0  0  0  0  0  0  0  0  0  0
   18.2616  -27.1791  -10.9889 C   0  0  1  0  0  0  0  0  0  0  0  0
   19.2721  -26.0309  -10.8699 C   0  0  0  0  0  0  0  0  0  0  0  0
   20.0704  -26.0307  -12.1231 C   0  0  0  0  0  0  0  0  0  0  0  0
   20.9759  -27.0605  -12.3935 C   0  0  0  0  0  0  0  0  0  0  0  0
   21.7247  -27.0863  -13.5397 C   0  0  0  0  0  0  0  0  0  0  0  0
   21.5972  -26.0783  -14.4660 C   0  0  0  0  0  0  0  0  0  0  0  0
   20.7130  -25.0362  -14.2430 C   0  0  0  0  0  0  0  0  0  0  0  0
   19.9647  -25.0340  -13.0710 C   0  0  0  0  0  0  0  0  0  0  0  0
   17.5480  -27.3411   -9.6719 C   0  0  0  0  0  0  0  0  0  0  0  0
   16.8095  -26.4653   -9.2023 O   0  0  0  0  0  0  0  0  0  0  0  0
   17.6925  -30.0675   -7.1119 C   0  0  0  0  0  0  0  0  0  0  0  0
   17.3483  -28.6648   -7.5831 C   0  0  2  0  0  0  0  0  0  0  0  0
   17.7352  -28.5385   -8.9557 N   0  0  0  0  0  0  0  0  0  0  0  0
   18.0461  -27.7041   -6.6878 C   0  0  0  0  0  0  0  0  0  0  0  0
   19.2108  -27.3010   -6.8768 O   0  0  0  0  0  0  0  0  0  0  0  0
   17.3372  -27.2289   -5.5627 N   0  0  0  0  0  0  0  0  0  0  0  0
   17.8788  -26.2976   -4.5979 C   0  0  1  0  0  0  0  0  0  0  0  0
   16.8711  -25.1912   -4.3664 C   0  0  0  0  0  0  0  0  0  0  0  0
   16.7772  -24.0510   -5.7464 S   0  0  0  0  0  0  0  0  0  0  0  0
   18.1288  -27.0260   -3.3373 C   0  0  0  0  0  0  0  0  0  0  0  0
   19.1657  -26.6456   -2.5114 O   0  0  0  0  0  0  0  0  0  0  0  0
   17.4040  -27.9913   -3.0096 O   0  0  0  0  0  0  0  0  0  0  0  0
  2  1  1  6
  2 10  1  0
  3  2  1  0
  4  3  1  0
  5  4  2  0
  6  5  1  0
  7  8  1  0
  7  6  2  0
  8  9  2  0
  9  4  1  0
 10 14  1  0
 10 11  2  0
 13 12  1  1
 14 13  1  0
 15 13  1  0
 15 17  1  0
 16 15  2  0
 18 17  1  0
 18 21  1  0
 18 19  1  1
 19 20  1  0
 21 22  1  0
 23 21  2  0
M  END
$$$$
