FAC.pdb
     RDKit          3D

 23 23  0  0  1  0  0  0  0  0999 V2000
   26.3013  -22.0542  -13.4911 N   0  0  0  0  0  0  0  0  0  0  0  0
   25.8247  -21.4525  -12.2890 C   0  0  1  0  0  0  0  0  0  0  0  0
   26.5719  -20.1244  -12.1114 C   0  0  0  0  0  0  0  0  0  0  0  0
   27.9709  -20.4652  -11.7448 C   0  0  0  0  0  0  0  0  0  0  0  0
   29.0263  -20.1872  -12.6179 C   0  0  0  0  0  0  0  0  0  0  0  0
   30.3249  -20.4900  -12.3066 C   0  0  0  0  0  0  0  0  0  0  0  0
   30.6216  -21.0859  -11.1036 C   0  0  0  0  0  0  0  0  0  0  0  0
   29.6100  -21.3810  -10.2052 C   0  0  0  0  0  0  0  0  0  0  0  0
   28.3000  -21.0631  -10.5459 C   0  0  0  0  0  0  0  0  0  0  0  0
   24.3451  -21.1762  -12.3551 C   0  0  0  0  0  0  0  0  0  0  0  0
   23.7193  -21.1515  -13.4232 O   0  0  0  0  0  0  0  0  0  0  0  0
   21.8573  -20.2407   -9.7316 C   0  0  0  0  0  0  0  0  0  0  0  0
   22.2417  -20.7264  -11.1188 C   0  0  2  0  0  0  0  0  0  0  0  0
   23.6573  -20.9384  -11.1502 N   0  0  0  0  0  0  0  0  0  0  0  0
   21.7813  -19.7060  -12.0978 C   0  0  0  0  0  0  0  0  0  0  0  0
   22.2523  -18.5539  -12.1715 O   0  0  0  0  0  0  0  0  0  0  0  0
   20.7508  -20.0767  -12.9893 N   0  0  0  0  0  0  0  0  0  0  0  0
   20.2477  -19.2257  -14.0449 C   0  0  1  0  0  0  0  0  0  0  0  0
   21.2350  -19.2340  -15.1930 C   0  0  0  0  0  0  0  0  0  0  0  0
   20.7009  -18.2080  -16.5625 S   0  0  0  0  0  0  0  0  0  0  0  0
   18.9458  -19.7608  -14.4933 C   0  0  0  0  0  0  0  0  0  0  0  0
   18.0386  -18.9363  -15.1253 O   0  0  0  0  0  0  0  0  0  0  0  0
   18.6563  -20.9628  -14.3040 O   0  0  0  0  0  0  0  0  0  0  0  0
  2  1  1  6
  2 10  1  0
  3  2  1  0
  4  3  1  0
  5  4  2  0
  6  5  1  0
  7  8  1  0
  7  6  2  0
  8  9  2  0
  9  4  1  0
 10 14  1  0
 10 11  2  0
 13 12  1  1
 14 13  1  0
 15 13  1  0
 15 17  1  0
 16 15  2  0
 18 17  1  0
 18 21  1  0
 18 19  1  6
 19 20  1  0
 21 22  1  0
 23 21  2  0
M  END
$$$$
