FAC.pdb
     RDKit          3D

 23 23  0  0  1  0  0  0  0  0999 V2000
   24.5990  -11.3764  -17.4084 N   0  0  0  0  0  0  0  0  0  0  0  0
   23.2670  -11.1694  -16.9423 C   0  0  1  0  0  0  0  0  0  0  0  0
   23.2075  -11.6550  -15.4882 C   0  0  0  0  0  0  0  0  0  0  0  0
   23.3730  -13.1312  -15.5220 C   0  0  0  0  0  0  0  0  0  0  0  0
   24.4599  -13.7429  -14.8913 C   0  0  0  0  0  0  0  0  0  0  0  0
   24.6378  -15.1006  -14.9062 C   0  0  0  0  0  0  0  0  0  0  0  0
   23.7313  -15.9048  -15.5556 C   0  0  0  0  0  0  0  0  0  0  0  0
   22.6380  -15.3453  -16.1952 C   0  0  0  0  0  0  0  0  0  0  0  0
   22.4808  -13.9641  -16.1650 C   0  0  0  0  0  0  0  0  0  0  0  0
   22.8830   -9.7132  -16.9877 C   0  0  0  0  0  0  0  0  0  0  0  0
   23.6330   -8.8138  -16.5859 O   0  0  0  0  0  0  0  0  0  0  0  0
   19.9551   -7.9430  -18.4685 C   0  0  0  0  0  0  0  0  0  0  0  0
   21.1592   -8.0183  -17.5453 C   0  0  2  0  0  0  0  0  0  0  0  0
   21.6204   -9.3731  -17.5091 N   0  0  0  0  0  0  0  0  0  0  0  0
   20.7392   -7.5076  -16.2132 C   0  0  0  0  0  0  0  0  0  0  0  0
   20.2184   -8.2185  -15.3311 O   0  0  0  0  0  0  0  0  0  0  0  0
   20.9480   -6.1370  -15.9453 N   0  0  0  0  0  0  0  0  0  0  0  0
   20.6237   -5.4984  -14.6888 C   0  0  1  0  0  0  0  0  0  0  0  0
   21.4305   -4.2230  -14.5651 C   0  0  0  0  0  0  0  0  0  0  0  0
   23.1927   -4.5351  -14.4612 S   0  0  0  0  0  0  0  0  0  0  0  0
   19.1798   -5.1861  -14.6845 C   0  0  0  0  0  0  0  0  0  0  0  0
   18.5047   -5.0475  -13.4899 O   0  0  0  0  0  0  0  0  0  0  0  0
   18.5594   -5.0452  -15.7613 O   0  0  0  0  0  0  0  0  0  0  0  0
  2  1  1  1
  2 10  1  0
  3  2  1  0
  4  3  1  0
  5  4  2  0
  6  5  1  0
  7  8  1  0
  7  6  2  0
  8  9  2  0
  9  4  1  0
 10 14  1  0
 10 11  2  0
 13 12  1  6
 14 13  1  0
 15 13  1  0
 15 17  1  0
 16 15  2  0
 18 17  1  0
 18 21  1  0
 18 19  1  6
 19 20  1  0
 21 22  1  0
 23 21  2  0
M  END
$$$$
