EGV.pdb
     RDKit          3D

 21 20  0  0  1  0  0  0  0  0999 V2000
    7.4841  -19.6447   21.7516 N   0  0  0  0  0  0  0  0  0  0  0  0
    8.7498  -18.9463   21.7854 C   0  0  1  0  0  0  0  0  0  0  0  0
    9.3406  -18.7270   20.4362 C   0  0  0  0  0  0  0  0  0  0  0  0
    8.3654  -18.6994   19.3143 C   0  0  0  0  0  0  0  0  0  0  0  0
    8.9632  -18.5075   17.9725 C   0  0  0  0  0  0  0  0  0  0  0  0
   10.2188  -18.3573   17.8382 O   0  0  0  0  0  0  0  0  0  0  0  0
    8.4992  -17.5998   22.4058 C   0  0  0  0  0  0  0  0  0  0  0  0
    9.4491  -16.8711   22.7876 O   0  0  0  0  0  0  0  0  0  0  0  0
    8.2467  -18.4750   16.7859 O   0  0  0  0  0  0  0  0  0  0  0  0
    7.1781  -17.1063   22.5810 N   0  0  0  0  0  0  0  0  0  0  0  0
    6.6966  -16.6254   23.8721 C   0  0  0  0  0  0  0  0  0  0  0  0
    7.5702  -15.5230   24.3575 C   0  0  0  0  0  0  0  0  0  0  0  0
    8.7729  -15.4564   23.9324 O   0  0  0  0  0  0  0  0  0  0  0  0
    6.8136  -11.5523   25.1546 C   0  0  0  0  0  0  0  0  0  0  0  0
    7.2806  -12.3703   26.3334 C   0  0  1  0  0  0  0  0  0  0  0  0
    6.1848  -12.6889   27.3065 C   0  0  0  0  0  0  0  0  0  0  0  0
    8.0183  -13.5988   25.8473 C   0  0  2  0  0  0  0  0  0  0  0  0
    7.0882  -14.5649   25.2701 N   0  0  0  0  0  0  0  0  0  0  0  0
    8.7271  -14.1853   26.9953 C   0  0  0  0  0  0  0  0  0  0  0  0
    8.2967  -15.2465   27.5035 O   0  0  0  0  0  0  0  0  0  0  0  0
    9.8519  -13.5833   27.5138 O   0  0  0  0  0  0  0  0  0  0  0  0
  2  1  1  6
  3  2  1  0
  4  5  1  0
  4  3  1  0
  5  6  2  0
  7  2  1  0
  8  7  2  0
  9  5  1  0
 10  7  1  0
 11 12  1  0
 11 10  1  0
 12 18  1  0
 13 12  2  0
 15 14  1  6
 15 16  1  0
 17 18  1  1
 17 15  1  0
 19 17  1  0
 20 19  2  0
 21 19  1  0
M  END
$$$$
