EGV.pdb
     RDKit          3D

 21 20  0  0  1  0  0  0  0  0999 V2000
    8.3585  -17.9941   18.6342 N   0  0  0  0  0  0  0  0  0  0  0  0
    8.7364  -17.7949   20.0156 C   0  0  1  0  0  0  0  0  0  0  0  0
   10.1863  -17.5078   20.1966 C   0  0  0  0  0  0  0  0  0  0  0  0
   11.0742  -18.0286   19.1238 C   0  0  0  0  0  0  0  0  0  0  0  0
   12.5246  -17.8912   19.3927 C   0  0  0  0  0  0  0  0  0  0  0  0
   12.9583  -17.8214   20.5861 O   0  0  0  0  0  0  0  0  0  0  0  0
    7.9626  -16.6096   20.5227 C   0  0  0  0  0  0  0  0  0  0  0  0
    7.0111  -16.1216   19.8626 O   0  0  0  0  0  0  0  0  0  0  0  0
   13.5065  -17.8287   18.4158 O   0  0  0  0  0  0  0  0  0  0  0  0
    8.2821  -16.0017   21.7668 N   0  0  0  0  0  0  0  0  0  0  0  0
    7.2965  -15.2483   22.5356 C   0  0  0  0  0  0  0  0  0  0  0  0
    7.9367  -14.6712   23.7485 C   0  0  0  0  0  0  0  0  0  0  0  0
    9.1451  -14.9864   24.0172 O   0  0  0  0  0  0  0  0  0  0  0  0
    7.0254  -10.9686   25.4489 C   0  0  0  0  0  0  0  0  0  0  0  0
    7.0731  -12.1445   26.3932 C   0  0  1  0  0  0  0  0  0  0  0  0
    5.7177  -12.5907   26.8549 C   0  0  0  0  0  0  0  0  0  0  0  0
    7.8896  -13.2623   25.7821 C   0  0  2  0  0  0  0  0  0  0  0  0
    7.2305  -13.7919   24.5918 N   0  0  0  0  0  0  0  0  0  0  0  0
    8.0475  -14.3152   26.7975 C   0  0  0  0  0  0  0  0  0  0  0  0
    7.3004  -15.3201   26.7589 O   0  0  0  0  0  0  0  0  0  0  0  0
    9.0024  -14.2078   27.7839 O   0  0  0  0  0  0  0  0  0  0  0  0
  2  1  1  6
  3  2  1  0
  4  5  1  0
  4  3  1  0
  5  6  2  0
  7  2  1  0
  8  7  2  0
  9  5  1  0
 10  7  1  0
 11 12  1  0
 11 10  1  0
 12 18  1  0
 13 12  2  0
 15 14  1  6
 15 16  1  0
 17 18  1  6
 17 15  1  0
 19 17  1  0
 20 19  2  0
 21 19  1  0
M  END
$$$$
