EGV.pdb
     RDKit          3D

 21 20  0  0  1  0  0  0  0  0999 V2000
    7.1240  -17.8479   22.7154 N   0  0  0  0  0  0  0  0  0  0  0  0
    8.3745  -17.5320   22.0618 C   0  0  1  0  0  0  0  0  0  0  0  0
    8.4983  -18.1271   20.7024 C   0  0  0  0  0  0  0  0  0  0  0  0
    7.6620  -19.3322   20.4597 C   0  0  0  0  0  0  0  0  0  0  0  0
    8.2354  -20.3072   19.5029 C   0  0  0  0  0  0  0  0  0  0  0  0
    9.3752  -20.1047   18.9766 O   0  0  0  0  0  0  0  0  0  0  0  0
    8.4379  -16.0364   21.9203 C   0  0  0  0  0  0  0  0  0  0  0  0
    9.3967  -15.4775   21.3307 O   0  0  0  0  0  0  0  0  0  0  0  0
    7.6155  -21.4821   19.1058 O   0  0  0  0  0  0  0  0  0  0  0  0
    7.4142  -15.2046   22.4492 N   0  0  0  0  0  0  0  0  0  0  0  0
    7.4458  -13.7526   22.3058 C   0  0  0  0  0  0  0  0  0  0  0  0
    7.9050  -13.1300   23.5769 C   0  0  0  0  0  0  0  0  0  0  0  0
    8.0866  -11.8662   23.6143 O   0  0  0  0  0  0  0  0  0  0  0  0
    6.9672  -11.3491   25.3830 C   0  0  0  0  0  0  0  0  0  0  0  0
    7.2579  -12.3962   26.4299 C   0  0  1  0  0  0  0  0  0  0  0  0
    6.0529  -13.2021   26.8144 C   0  0  0  0  0  0  0  0  0  0  0  0
    8.4280  -13.2500   25.9924 C   0  0  2  0  0  0  0  0  0  0  0  0
    8.1381  -13.9126   24.7242 N   0  0  0  0  0  0  0  0  0  0  0  0
    8.6840  -14.2425   27.0479 C   0  0  0  0  0  0  0  0  0  0  0  0
    9.0981  -13.8552   28.1651 O   0  0  0  0  0  0  0  0  0  0  0  0
    8.4745  -15.5846   26.8214 O   0  0  0  0  0  0  0  0  0  0  0  0
  2  1  1  6
  3  2  1  0
  4  5  1  0
  4  3  1  0
  5  6  2  0
  7  2  1  0
  8  7  2  0
  9  5  1  0
 10  7  1  0
 11 12  1  0
 11 10  1  0
 12 18  1  0
 13 12  2  0
 15 14  1  6
 15 16  1  0
 17 18  1  6
 17 15  1  0
 19 17  1  0
 20 19  2  0
 21 19  1  0
M  END
$$$$
