EGV.pdb
     RDKit          3D

 21 20  0  0  1  0  0  0  0  0999 V2000
    9.5778  -17.9665   20.7050 N   0  0  0  0  0  0  0  0  0  0  0  0
    9.0376  -16.8356   19.9840 C   0  0  1  0  0  0  0  0  0  0  0  0
    8.2764  -17.2211   18.7636 C   0  0  0  0  0  0  0  0  0  0  0  0
    8.5749  -18.5773   18.2326 C   0  0  0  0  0  0  0  0  0  0  0  0
    7.7344  -18.9980   17.0874 C   0  0  0  0  0  0  0  0  0  0  0  0
    6.5478  -19.4156   17.2738 O   0  0  0  0  0  0  0  0  0  0  0  0
    8.0935  -16.1244   20.9134 C   0  0  0  0  0  0  0  0  0  0  0  0
    7.4747  -15.0928   20.5500 O   0  0  0  0  0  0  0  0  0  0  0  0
    8.1392  -18.9783   15.7614 O   0  0  0  0  0  0  0  0  0  0  0  0
    7.8697  -16.5961   22.2351 N   0  0  0  0  0  0  0  0  0  0  0  0
    6.9659  -15.9154   23.1570 C   0  0  0  0  0  0  0  0  0  0  0  0
    7.7505  -15.0931   24.1175 C   0  0  0  0  0  0  0  0  0  0  0  0
    9.0246  -15.0862   24.0264 O   0  0  0  0  0  0  0  0  0  0  0  0
    6.9038  -11.3715   25.1814 C   0  0  0  0  0  0  0  0  0  0  0  0
    7.1350  -12.2456   26.3894 C   0  0  1  0  0  0  0  0  0  0  0  0
    5.8781  -12.5579   27.1456 C   0  0  0  0  0  0  0  0  0  0  0  0
    7.9095  -13.4823   25.9890 C   0  0  2  0  0  0  0  0  0  0  0  0
    7.1081  -14.3324   25.1133 N   0  0  0  0  0  0  0  0  0  0  0  0
    8.2760  -14.2045   27.2172 C   0  0  0  0  0  0  0  0  0  0  0  0
    7.6987  -15.2828   27.4888 O   0  0  0  0  0  0  0  0  0  0  0  0
    9.2412  -13.7103   28.0661 O   0  0  0  0  0  0  0  0  0  0  0  0
  2  1  1  1
  3  2  1  0
  4  5  1  0
  4  3  1  0
  5  6  2  0
  7  2  1  0
  8  7  2  0
  9  5  1  0
 10  7  1  0
 11 12  1  0
 11 10  1  0
 12 18  1  0
 13 12  2  0
 15 14  1  6
 15 16  1  0
 17 18  1  6
 17 15  1  0
 19 17  1  0
 20 19  2  0
 21 19  1  0
M  END
$$$$
