EGV.pdb
     RDKit          3D

 21 20  0  0  1  0  0  0  0  0999 V2000
    9.4635  -17.9497   20.2788 N   0  0  0  0  0  0  0  0  0  0  0  0
    8.6797  -16.8698   19.7218 C   0  0  1  0  0  0  0  0  0  0  0  0
    7.8303  -17.2872   18.5722 C   0  0  0  0  0  0  0  0  0  0  0  0
    8.1369  -18.6300   18.0124 C   0  0  0  0  0  0  0  0  0  0  0  0
    8.6072  -18.6277   16.6076 C   0  0  0  0  0  0  0  0  0  0  0  0
    7.9175  -19.1796   15.6927 O   0  0  0  0  0  0  0  0  0  0  0  0
    7.7719  -16.3703   20.8114 C   0  0  0  0  0  0  0  0  0  0  0  0
    6.9708  -15.4234   20.6092 O   0  0  0  0  0  0  0  0  0  0  0  0
    9.7900  -18.0503   16.1716 O   0  0  0  0  0  0  0  0  0  0  0  0
    7.7899  -16.9533   22.1072 N   0  0  0  0  0  0  0  0  0  0  0  0
    6.8866  -16.5139   23.1661 C   0  0  0  0  0  0  0  0  0  0  0  0
    7.5877  -15.5539   24.0610 C   0  0  0  0  0  0  0  0  0  0  0  0
    8.8637  -15.5029   24.0322 O   0  0  0  0  0  0  0  0  0  0  0  0
    7.4068  -11.9475   27.4349 C   0  0  0  0  0  0  0  0  0  0  0  0
    6.6348  -12.8967   26.5518 C   0  0  1  0  0  0  0  0  0  0  0  0
    5.6581  -12.2052   25.6478 C   0  0  0  0  0  0  0  0  0  0  0  0
    7.5926  -13.8023   25.8087 C   0  0  2  0  0  0  0  0  0  0  0  0
    6.8652  -14.7120   24.9284 N   0  0  0  0  0  0  0  0  0  0  0  0
    8.3681  -14.5568   26.8056 C   0  0  0  0  0  0  0  0  0  0  0  0
    7.8936  -15.6165   27.2763 O   0  0  0  0  0  0  0  0  0  0  0  0
    9.6027  -14.1127   27.2240 O   0  0  0  0  0  0  0  0  0  0  0  0
  2  1  1  1
  3  2  1  0
  4  5  1  0
  4  3  1  0
  5  6  2  0
  7  2  1  0
  8  7  2  0
  9  5  1  0
 10  7  1  0
 11 12  1  0
 11 10  1  0
 12 18  1  0
 13 12  2  0
 15 14  1  6
 15 16  1  0
 17 18  1  6
 17 15  1  0
 19 17  1  0
 20 19  2  0
 21 19  1  0
M  END
$$$$
