EGV.pdb
     RDKit          3D

 21 20  0  0  1  0  0  0  0  0999 V2000
    6.9675  -19.5961   22.3706 N   0  0  0  0  0  0  0  0  0  0  0  0
    6.7207  -18.3175   21.7421 C   0  0  1  0  0  0  0  0  0  0  0  0
    5.4018  -18.2410   21.0550 C   0  0  0  0  0  0  0  0  0  0  0  0
    4.3468  -19.1311   21.6075 C   0  0  0  0  0  0  0  0  0  0  0  0
    3.0486  -19.0764   20.8959 C   0  0  0  0  0  0  0  0  0  0  0  0
    1.9540  -19.1570   21.5382 O   0  0  0  0  0  0  0  0  0  0  0  0
    6.7389  -17.2768   22.8271 C   0  0  0  0  0  0  0  0  0  0  0  0
    6.6054  -16.0558   22.5615 O   0  0  0  0  0  0  0  0  0  0  0  0
    2.9052  -18.9377   19.5238 O   0  0  0  0  0  0  0  0  0  0  0  0
    6.9077  -17.6402   24.1906 N   0  0  0  0  0  0  0  0  0  0  0  0
    6.9322  -16.6463   25.2590 C   0  0  0  0  0  0  0  0  0  0  0  0
    8.3339  -16.4178   25.7033 C   0  0  0  0  0  0  0  0  0  0  0  0
    9.2782  -17.0406   25.1101 O   0  0  0  0  0  0  0  0  0  0  0  0
    9.5907  -12.8506   27.1126 C   0  0  0  0  0  0  0  0  0  0  0  0
   10.1463  -14.0034   27.9120 C   0  0  1  0  0  0  0  0  0  0  0  0
    9.5684  -14.1017   29.2925 C   0  0  0  0  0  0  0  0  0  0  0  0
   10.0169  -15.2873   27.1217 C   0  0  2  0  0  0  0  0  0  0  0  0
    8.6240  -15.5322   26.7590 N   0  0  0  0  0  0  0  0  0  0  0  0
   10.5356  -16.3849   27.9528 C   0  0  0  0  0  0  0  0  0  0  0  0
    9.7300  -17.1829   28.4856 O   0  0  0  0  0  0  0  0  0  0  0  0
   11.8894  -16.5430   28.1497 O   0  0  0  0  0  0  0  0  0  0  0  0
  2  1  1  1
  3  2  1  0
  4  5  1  0
  4  3  1  0
  5  6  2  0
  7  2  1  0
  8  7  2  0
  9  5  1  0
 10  7  1  0
 11 12  1  0
 11 10  1  0
 12 18  1  0
 13 12  2  0
 15 14  1  6
 15 16  1  0
 17 18  1  1
 17 15  1  0
 19 17  1  0
 20 19  2  0
 21 19  1  0
M  END
$$$$
