EGV.pdb
     RDKit          3D

 21 20  0  0  1  0  0  0  0  0999 V2000
   12.0406  -19.4753   21.7963 N   0  0  0  0  0  0  0  0  0  0  0  0
   12.1325  -18.1067   21.3389 C   0  0  1  0  0  0  0  0  0  0  0  0
   11.6540  -17.9166   19.9417 C   0  0  0  0  0  0  0  0  0  0  0  0
   11.7072  -19.1293   19.0832 C   0  0  0  0  0  0  0  0  0  0  0  0
   12.0528  -18.8753   17.6652 C   0  0  0  0  0  0  0  0  0  0  0  0
   11.1452  -18.8287   16.7756 O   0  0  0  0  0  0  0  0  0  0  0  0
   11.2647  -17.2756   22.2429 C   0  0  0  0  0  0  0  0  0  0  0  0
   11.2557  -16.0214   22.1653 O   0  0  0  0  0  0  0  0  0  0  0  0
   13.3394  -18.6721   17.1900 O   0  0  0  0  0  0  0  0  0  0  0  0
   10.4250  -17.8820   23.2159 N   0  0  0  0  0  0  0  0  0  0  0  0
    9.5273  -17.0990   24.0592 C   0  0  0  0  0  0  0  0  0  0  0  0
   10.2521  -16.6351   25.2731 C   0  0  0  0  0  0  0  0  0  0  0  0
   11.4965  -16.9000   25.3873 O   0  0  0  0  0  0  0  0  0  0  0  0
   10.4791  -13.4665   29.0077 C   0  0  0  0  0  0  0  0  0  0  0  0
    9.6315  -14.1195   27.9438 C   0  0  1  0  0  0  0  0  0  0  0  0
    9.1394  -13.1578   26.9035 C   0  0  0  0  0  0  0  0  0  0  0  0
   10.3661  -15.3046   27.3562 C   0  0  2  0  0  0  0  0  0  0  0  0
    9.5861  -15.9159   26.2840 N   0  0  0  0  0  0  0  0  0  0  0  0
   10.6042  -16.2720   28.4388 C   0  0  0  0  0  0  0  0  0  0  0  0
    9.7721  -17.1878   28.6355 O   0  0  0  0  0  0  0  0  0  0  0  0
   11.7254  -16.1816   29.2332 O   0  0  0  0  0  0  0  0  0  0  0  0
  2  1  1  1
  3  2  1  0
  4  5  1  0
  4  3  1  0
  5  6  2  0
  7  2  1  0
  8  7  2  0
  9  5  1  0
 10  7  1  0
 11 12  1  0
 11 10  1  0
 12 18  1  0
 13 12  2  0
 15 14  1  1
 15 16  1  0
 17 18  1  6
 17 15  1  0
 19 17  1  0
 20 19  2  0
 21 19  1  0
M  END
$$$$
