EGV.pdb
     RDKit          3D

 21 20  0  0  1  0  0  0  0  0999 V2000
    6.2686  -19.0310   21.2798 N   0  0  0  0  0  0  0  0  0  0  0  0
    7.0718  -19.6918   22.2842 C   0  0  1  0  0  0  0  0  0  0  0  0
    8.5079  -19.8111   21.9087 C   0  0  0  0  0  0  0  0  0  0  0  0
    8.9002  -19.0923   20.6678 C   0  0  0  0  0  0  0  0  0  0  0  0
   10.3469  -19.1369   20.3517 C   0  0  0  0  0  0  0  0  0  0  0  0
   11.1588  -19.7462   21.1178 O   0  0  0  0  0  0  0  0  0  0  0  0
    6.9877  -18.8647   23.5370 C   0  0  0  0  0  0  0  0  0  0  0  0
    7.6962  -19.1283   24.5409 O   0  0  0  0  0  0  0  0  0  0  0  0
   10.9313  -18.5471   19.2413 O   0  0  0  0  0  0  0  0  0  0  0  0
    6.1032  -17.7560   23.6271 N   0  0  0  0  0  0  0  0  0  0  0  0
    5.9179  -17.0130   24.8695 C   0  0  0  0  0  0  0  0  0  0  0  0
    6.9166  -15.9131   24.9533 C   0  0  0  0  0  0  0  0  0  0  0  0
    7.9495  -15.9594   24.2030 O   0  0  0  0  0  0  0  0  0  0  0  0
    5.9254  -12.1211   25.2153 C   0  0  0  0  0  0  0  0  0  0  0  0
    7.0198  -12.4335   26.2061 C   0  0  1  0  0  0  0  0  0  0  0  0
    6.5574  -12.3979   27.6324 C   0  0  0  0  0  0  0  0  0  0  0  0
    7.6948  -13.7355   25.8335 C   0  0  2  0  0  0  0  0  0  0  0  0
    6.7350  -14.8356   25.8415 N   0  0  0  0  0  0  0  0  0  0  0  0
    8.7717  -13.9816   26.8053 C   0  0  0  0  0  0  0  0  0  0  0  0
    8.6093  -14.8519   27.6918 O   0  0  0  0  0  0  0  0  0  0  0  0
    9.9490  -13.2693   26.7507 O   0  0  0  0  0  0  0  0  0  0  0  0
  2  1  1  6
  3  2  1  0
  4  5  1  0
  4  3  1  0
  5  6  2  0
  7  2  1  0
  8  7  2  0
  9  5  1  0
 10  7  1  0
 11 12  1  0
 11 10  1  0
 12 18  1  0
 13 12  2  0
 15 14  1  6
 15 16  1  0
 17 18  1  1
 17 15  1  0
 19 17  1  0
 20 19  2  0
 21 19  1  0
M  END
$$$$
