EGV.pdb
     RDKit          3D

 21 20  0  0  1  0  0  0  0  0999 V2000
    9.8353  -17.0298   19.9714 N   0  0  0  0  0  0  0  0  0  0  0  0
    9.3913  -17.9444   20.9996 C   0  0  1  0  0  0  0  0  0  0  0  0
   10.4889  -18.4082   21.8927 C   0  0  0  0  0  0  0  0  0  0  0  0
   11.8298  -18.4949   21.2564 C   0  0  0  0  0  0  0  0  0  0  0  0
   12.8281  -17.5284   21.7703 C   0  0  0  0  0  0  0  0  0  0  0  0
   13.1105  -17.4862   23.0095 O   0  0  0  0  0  0  0  0  0  0  0  0
    8.3856  -17.2117   21.8437 C   0  0  0  0  0  0  0  0  0  0  0  0
    7.6915  -17.8141   22.7006 O   0  0  0  0  0  0  0  0  0  0  0  0
   13.5212  -16.6176   20.9878 O   0  0  0  0  0  0  0  0  0  0  0  0
    8.1868  -15.8119   21.6999 N   0  0  0  0  0  0  0  0  0  0  0  0
    7.2507  -15.0729   22.5411 C   0  0  0  0  0  0  0  0  0  0  0  0
    7.9607  -14.5327   23.7320 C   0  0  0  0  0  0  0  0  0  0  0  0
    9.2311  -14.6491   23.7980 O   0  0  0  0  0  0  0  0  0  0  0  0
    7.3303  -10.9951   25.4662 C   0  0  0  0  0  0  0  0  0  0  0  0
    7.2752  -12.1299   26.4591 C   0  0  1  0  0  0  0  0  0  0  0  0
    5.8859  -12.4374   26.9329 C   0  0  0  0  0  0  0  0  0  0  0  0
    7.9925  -13.3388   25.8991 C   0  0  2  0  0  0  0  0  0  0  0  0
    7.2529  -13.9025   24.7735 N   0  0  0  0  0  0  0  0  0  0  0  0
    8.1233  -14.3287   26.9796 C   0  0  0  0  0  0  0  0  0  0  0  0
    7.3401  -15.3059   27.0129 O   0  0  0  0  0  0  0  0  0  0  0  0
    9.0920  -14.1925   27.9490 O   0  0  0  0  0  0  0  0  0  0  0  0
  2  1  1  6
  3  2  1  0
  4  5  1  0
  4  3  1  0
  5  6  2  0
  7  2  1  0
  8  7  2  0
  9  5  1  0
 10  7  1  0
 11 12  1  0
 11 10  1  0
 12 18  1  0
 13 12  2  0
 15 14  1  6
 15 16  1  0
 17 18  1  6
 17 15  1  0
 19 17  1  0
 20 19  2  0
 21 19  1  0
M  END
$$$$
