EGV.pdb
     RDKit          3D

 21 20  0  0  1  0  0  0  0  0999 V2000
    9.5333  -16.5722   19.3986 N   0  0  0  0  0  0  0  0  0  0  0  0
    9.1598  -17.4857   20.4554 C   0  0  1  0  0  0  0  0  0  0  0  0
   10.3232  -18.0087   21.2238 C   0  0  0  0  0  0  0  0  0  0  0  0
   11.3152  -16.9851   21.6465 C   0  0  0  0  0  0  0  0  0  0  0  0
   12.4777  -17.5151   22.3964 C   0  0  0  0  0  0  0  0  0  0  0  0
   12.3403  -17.9448   23.5854 O   0  0  0  0  0  0  0  0  0  0  0  0
    8.2781  -16.7275   21.4087 C   0  0  0  0  0  0  0  0  0  0  0  0
    7.6343  -17.3188   22.3116 O   0  0  0  0  0  0  0  0  0  0  0  0
   13.7698  -17.5922   21.8993 O   0  0  0  0  0  0  0  0  0  0  0  0
    8.1437  -15.3156   21.3199 N   0  0  0  0  0  0  0  0  0  0  0  0
    7.2526  -14.5663   22.2000 C   0  0  0  0  0  0  0  0  0  0  0  0
    7.9189  -14.3291   23.5092 C   0  0  0  0  0  0  0  0  0  0  0  0
    9.1611  -14.6024   23.6275 O   0  0  0  0  0  0  0  0  0  0  0  0
    7.5110  -11.0833   25.8329 C   0  0  0  0  0  0  0  0  0  0  0  0
    7.2576  -12.3699   26.5793 C   0  0  1  0  0  0  0  0  0  0  0  0
    5.8075  -12.6059   26.8806 C   0  0  0  0  0  0  0  0  0  0  0  0
    7.9077  -13.5249   25.8492 C   0  0  2  0  0  0  0  0  0  0  0  0
    7.2005  -13.8127   24.6047 N   0  0  0  0  0  0  0  0  0  0  0  0
    7.8835  -14.6952   26.7404 C   0  0  0  0  0  0  0  0  0  0  0  0
    7.0254  -15.5889   26.5544 O   0  0  0  0  0  0  0  0  0  0  0  0
    8.7890  -14.8174   27.7708 O   0  0  0  0  0  0  0  0  0  0  0  0
  2  1  1  6
  3  2  1  0
  4  5  1  0
  4  3  1  0
  5  6  2  0
  7  2  1  0
  8  7  2  0
  9  5  1  0
 10  7  1  0
 11 12  1  0
 11 10  1  0
 12 18  1  0
 13 12  2  0
 15 14  1  6
 15 16  1  0
 17 18  1  6
 17 15  1  0
 19 17  1  0
 20 19  2  0
 21 19  1  0
M  END
$$$$
