NNC.pdb
     RDKit          3D

 23 22  0  0  1  0  0  0  0  0999 V2000
    8.5936  -13.0713   17.2226 N   0  0  0  0  0  0  0  0  0  0  0  0
    7.4297  -13.8363   17.4871 C   0  0  0  0  0  0  0  0  0  0  0  0
    6.6014  -13.9314   16.5532 O   0  0  0  0  0  0  0  0  0  0  0  0
    7.3074  -14.4381   18.8189 C   0  0  0  0  0  0  0  0  0  0  0  0
    8.3944  -14.0843   19.7929 C   0  0  2  0  0  0  0  0  0  0  0  0
    9.6101  -14.6648   19.2257 N   0  0  0  0  0  0  0  0  0  0  0  0
    8.1592  -14.6205   21.1669 C   0  0  0  0  0  0  0  0  0  0  0  0
    7.1849  -14.1476   21.7878 O   0  0  0  0  0  0  0  0  0  0  0  0
   11.0651  -18.0528   21.3374 N   0  0  0  0  0  0  0  0  0  0  0  0
   10.6983  -17.8142   22.6805 C   0  0  0  0  0  0  0  0  0  0  0  0
   11.6081  -17.7477   23.5716 O   0  0  0  0  0  0  0  0  0  0  0  0
    9.2712  -17.6456   23.0415 C   0  0  0  0  0  0  0  0  0  0  0  0
    8.9771  -16.1335   23.0667 C   0  0  2  0  0  0  0  0  0  0  0  0
    8.9588  -15.5944   21.7551 N   0  0  0  0  0  0  0  0  0  0  0  0
    9.7679  -15.4275   24.0554 C   0  0  0  0  0  0  0  0  0  0  0  0
   10.6043  -14.5653   23.7196 O   0  0  0  0  0  0  0  0  0  0  0  0
    9.6093  -15.6963   25.4407 N   0  0  0  0  0  0  0  0  0  0  0  0
    9.3552  -14.6555   26.4246 C   0  0  1  0  0  0  0  0  0  0  0  0
    8.0432  -13.9453   26.1129 C   0  0  0  0  0  0  0  0  0  0  0  0
    7.7322  -12.7075   27.3922 S   0  0  0  0  0  0  0  0  0  0  0  0
    9.3293  -15.1461   27.8054 C   0  0  0  0  0  0  0  0  0  0  0  0
    9.7054  -14.2920   28.8249 O   0  0  0  0  0  0  0  0  0  0  0  0
    8.9686  -16.3220   28.0260 O   0  0  0  0  0  0  0  0  0  0  0  0
  2  3  2  0
  2  1  1  0
  4  2  1  0
  5  4  1  0
  5  6  1  6
  7  5  1  0
  8  7  2  0
  9 10  1  0
 10 12  1  0
 10 11  2  0
 13 12  1  6
 13 14  1  0
 14  7  1  0
 15 13  1  0
 15 17  1  0
 16 15  2  0
 18 17  1  0
 18 19  1  6
 18 21  1  0
 20 19  1  0
 21 23  2  0
 21 22  1  0
M  END
$$$$
