NNC.pdb
     RDKit          3D

 23 22  0  0  1  0  0  0  0  0999 V2000
    4.1922  -19.4154   15.2802 N   0  0  0  0  0  0  0  0  0  0  0  0
    5.0708  -18.8151   16.2170 C   0  0  0  0  0  0  0  0  0  0  0  0
    5.8446  -17.9373   15.7719 O   0  0  0  0  0  0  0  0  0  0  0  0
    4.9907  -19.2762   17.6070 C   0  0  0  0  0  0  0  0  0  0  0  0
    6.2588  -19.1603   18.4030 C   0  0  2  0  0  0  0  0  0  0  0  0
    7.2202  -20.0102   17.7031 N   0  0  0  0  0  0  0  0  0  0  0  0
    6.1133  -19.6054   19.8212 C   0  0  0  0  0  0  0  0  0  0  0  0
    5.1843  -19.0859   20.4733 O   0  0  0  0  0  0  0  0  0  0  0  0
    6.1524  -24.0405   19.9831 N   0  0  0  0  0  0  0  0  0  0  0  0
    6.0148  -23.2037   21.1129 C   0  0  0  0  0  0  0  0  0  0  0  0
    4.8519  -22.9881   21.5897 O   0  0  0  0  0  0  0  0  0  0  0  0
    7.2124  -22.5869   21.7299 C   0  0  0  0  0  0  0  0  0  0  0  0
    6.9940  -21.0618   21.7371 C   0  0  2  0  0  0  0  0  0  0  0  0
    6.9465  -20.5461   20.4169 N   0  0  0  0  0  0  0  0  0  0  0  0
    7.8596  -20.3784   22.6779 C   0  0  0  0  0  0  0  0  0  0  0  0
    9.0420  -20.1059   22.3891 O   0  0  0  0  0  0  0  0  0  0  0  0
    7.3826  -19.9952   23.9592 N   0  0  0  0  0  0  0  0  0  0  0  0
    8.2176  -19.3316   24.9483 C   0  0  1  0  0  0  0  0  0  0  0  0
    7.3700  -18.4175   25.8251 C   0  0  0  0  0  0  0  0  0  0  0  0
    8.4283  -17.6756   27.0881 S   0  0  0  0  0  0  0  0  0  0  0  0
    8.9735  -20.2582   25.7957 C   0  0  0  0  0  0  0  0  0  0  0  0
   10.2686  -19.9324   26.1521 O   0  0  0  0  0  0  0  0  0  0  0  0
    8.4293  -21.3176   26.1740 O   0  0  0  0  0  0  0  0  0  0  0  0
  2  3  2  0
  2  1  1  0
  4  2  1  0
  5  4  1  0
  5  6  1  6
  7  5  1  0
  8  7  2  0
  9 10  1  0
 10 12  1  0
 10 11  2  0
 13 12  1  6
 13 14  1  0
 14  7  1  0
 15 13  1  0
 15 17  1  0
 16 15  2  0
 18 17  1  0
 18 19  1  1
 18 21  1  0
 20 19  1  0
 21 23  2  0
 21 22  1  0
M  END
$$$$
