NNC.pdb
     RDKit          3D

 23 22  0  0  1  0  0  0  0  0999 V2000
   12.3046  -19.7307   14.1245 N   0  0  0  0  0  0  0  0  0  0  0  0
   12.3767  -18.3326   14.3482 C   0  0  0  0  0  0  0  0  0  0  0  0
   12.9524  -17.6562   13.4659 O   0  0  0  0  0  0  0  0  0  0  0  0
   11.7752  -17.8159   15.5820 C   0  0  0  0  0  0  0  0  0  0  0  0
   11.1383  -18.8434   16.4729 C   0  0  2  0  0  0  0  0  0  0  0  0
    9.7850  -19.0099   15.9460 N   0  0  0  0  0  0  0  0  0  0  0  0
   11.0862  -18.4352   17.9086 C   0  0  0  0  0  0  0  0  0  0  0  0
   11.1495  -17.2101   18.1398 O   0  0  0  0  0  0  0  0  0  0  0  0
    8.2479  -19.0215   20.2259 N   0  0  0  0  0  0  0  0  0  0  0  0
    8.7517  -20.1789   20.8598 C   0  0  0  0  0  0  0  0  0  0  0  0
    7.9360  -21.0713   21.2653 O   0  0  0  0  0  0  0  0  0  0  0  0
   10.2118  -20.3460   21.0485 C   0  0  0  0  0  0  0  0  0  0  0  0
   10.9052  -19.1538   20.3619 C   0  0  2  0  0  0  0  0  0  0  0  0
   10.9721  -19.3410   18.9576 N   0  0  0  0  0  0  0  0  0  0  0  0
   12.1294  -18.7595   21.0304 C   0  0  0  0  0  0  0  0  0  0  0  0
   13.1870  -19.4025   20.8763 O   0  0  0  0  0  0  0  0  0  0  0  0
   12.1601  -17.6227   21.8808 N   0  0  0  0  0  0  0  0  0  0  0  0
   13.3507  -17.2106   22.6079 C   0  0  1  0  0  0  0  0  0  0  0  0
   13.6755  -15.7530   22.3033 C   0  0  0  0  0  0  0  0  0  0  0  0
   15.2269  -15.3182   23.1217 S   0  0  0  0  0  0  0  0  0  0  0  0
   13.2466  -17.3953   24.0581 C   0  0  0  0  0  0  0  0  0  0  0  0
   14.4040  -17.4168   24.8135 O   0  0  0  0  0  0  0  0  0  0  0  0
   12.1165  -17.5285   24.5744 O   0  0  0  0  0  0  0  0  0  0  0  0
  2  3  2  0
  2  1  1  0
  4  2  1  0
  5  4  1  0
  5  6  1  6
  7  5  1  0
  8  7  2  0
  9 10  1  0
 10 12  1  0
 10 11  2  0
 13 12  1  1
 13 14  1  0
 14  7  1  0
 15 13  1  0
 15 17  1  0
 16 15  2  0
 18 17  1  0
 18 19  1  1
 18 21  1  0
 20 19  1  0
 21 23  2  0
 21 22  1  0
M  END
$$$$
