NNC.pdb
     RDKit          3D

 23 22  0  0  1  0  0  0  0  0999 V2000
    7.6272  -12.6013   17.2521 N   0  0  0  0  0  0  0  0  0  0  0  0
    8.0083  -13.7226   18.0314 C   0  0  0  0  0  0  0  0  0  0  0  0
    8.5113  -14.6870   17.4114 O   0  0  0  0  0  0  0  0  0  0  0  0
    7.7785  -13.6471   19.4780 C   0  0  0  0  0  0  0  0  0  0  0  0
    8.7271  -14.4427   20.3279 C   0  0  2  0  0  0  0  0  0  0  0  0
    8.8071  -15.7497   19.6782 N   0  0  0  0  0  0  0  0  0  0  0  0
    8.2722  -14.5966   21.7421 C   0  0  0  0  0  0  0  0  0  0  0  0
    7.9659  -13.5466   22.3438 O   0  0  0  0  0  0  0  0  0  0  0  0
    6.6186  -18.8097   21.8214 N   0  0  0  0  0  0  0  0  0  0  0  0
    6.4190  -17.9861   22.9516 C   0  0  0  0  0  0  0  0  0  0  0  0
    5.2556  -17.5176   23.1825 O   0  0  0  0  0  0  0  0  0  0  0  0
    7.5533  -17.6743   23.8524 C   0  0  0  0  0  0  0  0  0  0  0  0
    7.8455  -16.1672   23.7216 C   0  0  2  0  0  0  0  0  0  0  0  0
    8.1802  -15.8255   22.3865 N   0  0  0  0  0  0  0  0  0  0  0  0
    8.7244  -15.6765   24.7647 C   0  0  0  0  0  0  0  0  0  0  0  0
    9.9530  -15.8890   24.7288 O   0  0  0  0  0  0  0  0  0  0  0  0
    8.2096  -14.9337   25.8599 N   0  0  0  0  0  0  0  0  0  0  0  0
    9.0556  -14.3653   26.8978 C   0  0  1  0  0  0  0  0  0  0  0  0
    8.3755  -13.1555   27.5276 C   0  0  0  0  0  0  0  0  0  0  0  0
    7.6824  -12.1267   26.2136 S   0  0  0  0  0  0  0  0  0  0  0  0
    9.4212  -15.3214   27.9467 C   0  0  0  0  0  0  0  0  0  0  0  0
   10.3389  -14.9403   28.9075 O   0  0  0  0  0  0  0  0  0  0  0  0
    8.8953  -16.4549   27.9462 O   0  0  0  0  0  0  0  0  0  0  0  0
  2  3  2  0
  2  1  1  0
  4  2  1  0
  5  4  1  0
  5  6  1  6
  7  5  1  0
  8  7  2  0
  9 10  1  0
 10 12  1  0
 10 11  2  0
 13 12  1  6
 13 14  1  0
 14  7  1  0
 15 13  1  0
 15 17  1  0
 16 15  2  0
 18 17  1  0
 18 19  1  1
 18 21  1  0
 20 19  1  0
 21 23  2  0
 21 22  1  0
M  END
$$$$
