NNC.pdb
     RDKit          3D

 23 22  0  0  1  0  0  0  0  0999 V2000
    7.6372  -12.7943   14.9622 N   0  0  0  0  0  0  0  0  0  0  0  0
    7.8657  -14.1933   14.9367 C   0  0  0  0  0  0  0  0  0  0  0  0
    8.2054  -14.6823   13.8354 O   0  0  0  0  0  0  0  0  0  0  0  0
    7.6832  -14.9286   16.1925 C   0  0  0  0  0  0  0  0  0  0  0  0
    8.7173  -14.6717   17.2508 C   0  0  2  0  0  0  0  0  0  0  0  0
    9.9735  -15.1419   16.6699 N   0  0  0  0  0  0  0  0  0  0  0  0
    8.4440  -15.3843   18.5345 C   0  0  0  0  0  0  0  0  0  0  0  0
    7.3537  -15.1321   19.0879 O   0  0  0  0  0  0  0  0  0  0  0  0
    7.9824  -19.7241   19.7249 N   0  0  0  0  0  0  0  0  0  0  0  0
    9.2042  -19.1429   19.3190 C   0  0  0  0  0  0  0  0  0  0  0  0
    9.6157  -19.3287   18.1263 O   0  0  0  0  0  0  0  0  0  0  0  0
    9.9927  -18.3295   20.2739 C   0  0  0  0  0  0  0  0  0  0  0  0
    9.3199  -16.9466   20.3674 C   0  0  2  0  0  0  0  0  0  0  0  0
    9.3300  -16.2873   19.1118 N   0  0  0  0  0  0  0  0  0  0  0  0
    9.7714  -16.1826   21.5135 C   0  0  0  0  0  0  0  0  0  0  0  0
   10.9365  -15.7423   21.5795 O   0  0  0  0  0  0  0  0  0  0  0  0
    8.8949  -15.9097   22.5969 N   0  0  0  0  0  0  0  0  0  0  0  0
    9.3371  -15.2860   23.8344 C   0  0  1  0  0  0  0  0  0  0  0  0
    8.1410  -14.7414   24.6062 C   0  0  0  0  0  0  0  0  0  0  0  0
    7.4363  -13.3546   23.6867 S   0  0  0  0  0  0  0  0  0  0  0  0
   10.1104  -16.1812   24.6996 C   0  0  0  0  0  0  0  0  0  0  0  0
   10.7015  -15.6646   25.8373 O   0  0  0  0  0  0  0  0  0  0  0  0
   10.2160  -17.3866   24.3878 O   0  0  0  0  0  0  0  0  0  0  0  0
  2  3  2  0
  2  1  1  0
  4  2  1  0
  5  4  1  0
  5  6  1  6
  7  5  1  0
  8  7  2  0
  9 10  1  0
 10 12  1  0
 10 11  2  0
 13 12  1  6
 13 14  1  0
 14  7  1  0
 15 13  1  0
 15 17  1  0
 16 15  2  0
 18 17  1  0
 18 19  1  1
 18 21  1  0
 20 19  1  0
 21 23  2  0
 21 22  1  0
M  END
$$$$
