NNC.pdb
     RDKit          3D

 23 22  0  0  1  0  0  0  0  0999 V2000
    8.6402  -22.0314   17.7532 N   0  0  0  0  0  0  0  0  0  0  0  0
    8.8631  -20.7528   17.1828 C   0  0  0  0  0  0  0  0  0  0  0  0
    7.9104  -20.2555   16.5404 O   0  0  0  0  0  0  0  0  0  0  0  0
   10.1779  -20.1393   17.3974 C   0  0  0  0  0  0  0  0  0  0  0  0
   10.3733  -19.4732   18.7290 C   0  0  2  0  0  0  0  0  0  0  0  0
    9.2092  -18.6036   18.8881 N   0  0  0  0  0  0  0  0  0  0  0  0
   11.6310  -18.6723   18.8143 C   0  0  0  0  0  0  0  0  0  0  0  0
   12.6989  -19.2964   18.6454 O   0  0  0  0  0  0  0  0  0  0  0  0
   14.4154  -13.6093   19.2393 N   0  0  0  0  0  0  0  0  0  0  0  0
   14.0365  -14.6198   18.3279 C   0  0  0  0  0  0  0  0  0  0  0  0
   14.8810  -15.0266   17.4633 O   0  0  0  0  0  0  0  0  0  0  0  0
   12.6718  -15.1944   18.3819 C   0  0  0  0  0  0  0  0  0  0  0  0
   12.7198  -16.4098   19.3274 C   0  0  2  0  0  0  0  0  0  0  0  0
   11.6513  -17.3044   19.0644 N   0  0  0  0  0  0  0  0  0  0  0  0
   12.9349  -16.0328   20.7105 C   0  0  0  0  0  0  0  0  0  0  0  0
   13.9304  -15.3630   21.0514 O   0  0  0  0  0  0  0  0  0  0  0  0
   12.0123  -16.4143   21.7203 N   0  0  0  0  0  0  0  0  0  0  0  0
   12.2676  -16.2205   23.1392 C   0  0  1  0  0  0  0  0  0  0  0  0
   10.9529  -16.0659   23.8944 C   0  0  0  0  0  0  0  0  0  0  0  0
    9.9666  -14.7823   23.0913 S   0  0  0  0  0  0  0  0  0  0  0  0
   13.0564  -17.2962   23.7464 C   0  0  0  0  0  0  0  0  0  0  0  0
   13.5586  -17.1181   25.0218 O   0  0  0  0  0  0  0  0  0  0  0  0
   13.2550  -18.3453   23.0972 O   0  0  0  0  0  0  0  0  0  0  0  0
  2  3  2  0
  2  1  1  0
  4  2  1  0
  5  4  1  0
  5  6  1  6
  7  5  1  0
  8  7  2  0
  9 10  1  0
 10 12  1  0
 10 11  2  0
 13 12  1  6
 13 14  1  0
 14  7  1  0
 15 13  1  0
 15 17  1  0
 16 15  2  0
 18 17  1  0
 18 19  1  1
 18 21  1  0
 20 19  1  0
 21 23  2  0
 21 22  1  0
M  END
$$$$
