NNC.pdb
     RDKit          3D

 23 22  0  0  1  0  0  0  0  0999 V2000
    6.5799  -17.6006   11.3037 N   0  0  0  0  0  0  0  0  0  0  0  0
    7.6376  -17.1859   12.1517 C   0  0  0  0  0  0  0  0  0  0  0  0
    8.6694  -16.7575   11.5866 O   0  0  0  0  0  0  0  0  0  0  0  0
    7.4245  -17.2977   13.5984 C   0  0  0  0  0  0  0  0  0  0  0  0
    8.4366  -16.5979   14.4593 C   0  0  2  0  0  0  0  0  0  0  0  0
    9.7089  -17.2450   14.1442 N   0  0  0  0  0  0  0  0  0  0  0  0
    8.1506  -16.7067   15.9211 C   0  0  0  0  0  0  0  0  0  0  0  0
    7.0997  -16.1657   16.3227 O   0  0  0  0  0  0  0  0  0  0  0  0
    7.5554  -20.3449   19.2841 N   0  0  0  0  0  0  0  0  0  0  0  0
    8.5049  -19.9477   18.3166 C   0  0  0  0  0  0  0  0  0  0  0  0
    8.4898  -20.4991   17.1668 O   0  0  0  0  0  0  0  0  0  0  0  0
    9.5039  -18.9030   18.6421 C   0  0  0  0  0  0  0  0  0  0  0  0
    8.9068  -17.5465   18.2212 C   0  0  2  0  0  0  0  0  0  0  0  0
    8.9845  -17.3677   16.8165 N   0  0  0  0  0  0  0  0  0  0  0  0
    9.3717  -16.4511   19.0489 C   0  0  0  0  0  0  0  0  0  0  0  0
   10.5804  -16.1475   19.1016 O   0  0  0  0  0  0  0  0  0  0  0  0
    8.4597  -15.6870   19.8240 N   0  0  0  0  0  0  0  0  0  0  0  0
    8.8832  -14.6337   20.7335 C   0  0  1  0  0  0  0  0  0  0  0  0
    7.7674  -13.6107   20.9103 C   0  0  0  0  0  0  0  0  0  0  0  0
    7.2060  -13.0725   19.2792 S   0  0  0  0  0  0  0  0  0  0  0  0
    9.3066  -15.1270   22.0470 C   0  0  0  0  0  0  0  0  0  0  0  0
    9.8657  -14.2381   22.9459 O   0  0  0  0  0  0  0  0  0  0  0  0
    9.1520  -16.3363   22.3210 O   0  0  0  0  0  0  0  0  0  0  0  0
  2  3  2  0
  2  1  1  0
  4  2  1  0
  5  4  1  0
  5  6  1  1
  7  5  1  0
  8  7  2  0
  9 10  1  0
 10 12  1  0
 10 11  2  0
 13 12  1  1
 13 14  1  0
 14  7  1  0
 15 13  1  0
 15 17  1  0
 16 15  2  0
 18 17  1  0
 18 19  1  1
 18 21  1  0
 20 19  1  0
 21 23  2  0
 21 22  1  0
M  END
$$$$
