NNC.pdb
     RDKit          3D

 23 22  0  0  1  0  0  0  0  0999 V2000
    7.0861  -12.4804   18.1484 N   0  0  0  0  0  0  0  0  0  0  0  0
    7.7322  -13.6125   18.7057 C   0  0  0  0  0  0  0  0  0  0  0  0
    8.4733  -14.2658   17.9366 O   0  0  0  0  0  0  0  0  0  0  0  0
    7.4727  -13.9087   20.1185 C   0  0  0  0  0  0  0  0  0  0  0  0
    8.5520  -14.6730   20.8299 C   0  0  2  0  0  0  0  0  0  0  0  0
    8.6607  -15.9353   20.1010 N   0  0  0  0  0  0  0  0  0  0  0  0
    8.2469  -14.9328   22.2686 C   0  0  0  0  0  0  0  0  0  0  0  0
    7.9655  -13.9357   22.9650 O   0  0  0  0  0  0  0  0  0  0  0  0
    5.8806  -17.3506   22.8952 N   0  0  0  0  0  0  0  0  0  0  0  0
    6.5946  -18.4196   23.4806 C   0  0  0  0  0  0  0  0  0  0  0  0
    6.1547  -19.6091   23.3465 O   0  0  0  0  0  0  0  0  0  0  0  0
    7.8383  -18.1535   24.2406 C   0  0  0  0  0  0  0  0  0  0  0  0
    8.1024  -16.6370   24.1772 C   0  0  2  0  0  0  0  0  0  0  0  0
    8.2635  -16.2019   22.8370 N   0  0  0  0  0  0  0  0  0  0  0  0
    9.1031  -16.2042   25.1324 C   0  0  0  0  0  0  0  0  0  0  0  0
   10.3194  -16.3825   24.9211 O   0  0  0  0  0  0  0  0  0  0  0  0
    8.7253  -15.5590   26.3396 N   0  0  0  0  0  0  0  0  0  0  0  0
    9.6899  -15.1042   27.3289 C   0  0  1  0  0  0  0  0  0  0  0  0
    9.1204  -13.9324   28.1198 C   0  0  0  0  0  0  0  0  0  0  0  0
   10.3857  -13.3286   29.2599 S   0  0  0  0  0  0  0  0  0  0  0  0
   10.1213  -16.1550   28.2550 C   0  0  0  0  0  0  0  0  0  0  0  0
   11.4562  -16.2295   28.6057 O   0  0  0  0  0  0  0  0  0  0  0  0
    9.2733  -16.9557   28.7035 O   0  0  0  0  0  0  0  0  0  0  0  0
  2  3  2  0
  2  1  1  0
  4  2  1  0
  5  4  1  0
  5  6  1  6
  7  5  1  0
  8  7  2  0
  9 10  1  0
 10 12  1  0
 10 11  2  0
 13 12  1  6
 13 14  1  0
 14  7  1  0
 15 13  1  0
 15 17  1  0
 16 15  2  0
 18 17  1  0
 18 19  1  1
 18 21  1  0
 20 19  1  0
 21 23  2  0
 21 22  1  0
M  END
$$$$
