NNC.pdb
     RDKit          3D

 23 22  0  0  1  0  0  0  0  0999 V2000
    7.9210  -12.4195   16.9183 N   0  0  0  0  0  0  0  0  0  0  0  0
    7.7858  -13.7981   16.6165 C   0  0  0  0  0  0  0  0  0  0  0  0
    7.1854  -14.0798   15.5547 O   0  0  0  0  0  0  0  0  0  0  0  0
    8.3572  -14.7555   17.5695 C   0  0  0  0  0  0  0  0  0  0  0  0
    8.7966  -14.1782   18.8844 C   0  0  2  0  0  0  0  0  0  0  0  0
    9.6757  -13.0653   18.5306 N   0  0  0  0  0  0  0  0  0  0  0  0
    9.5234  -15.1550   19.7493 C   0  0  0  0  0  0  0  0  0  0  0  0
    8.8871  -16.1723   20.0933 O   0  0  0  0  0  0  0  0  0  0  0  0
   13.7158  -14.8267   18.4092 N   0  0  0  0  0  0  0  0  0  0  0  0
   13.3118  -15.8441   19.3020 C   0  0  0  0  0  0  0  0  0  0  0  0
   13.0965  -17.0177   18.8517 O   0  0  0  0  0  0  0  0  0  0  0  0
   13.1415  -15.5429   20.7427 C   0  0  0  0  0  0  0  0  0  0  0  0
   11.6461  -15.7072   21.0748 C   0  0  2  0  0  0  0  0  0  0  0  0
   10.8377  -14.9763   20.1673 N   0  0  0  0  0  0  0  0  0  0  0  0
   11.3660  -15.5372   22.4869 C   0  0  0  0  0  0  0  0  0  0  0  0
   12.1655  -14.9441   23.2384 O   0  0  0  0  0  0  0  0  0  0  0  0
   10.1665  -16.0405   23.0562 N   0  0  0  0  0  0  0  0  0  0  0  0
    9.8597  -15.9370   24.4744 C   0  0  1  0  0  0  0  0  0  0  0  0
    8.3718  -15.6736   24.6734 C   0  0  0  0  0  0  0  0  0  0  0  0
    7.9236  -14.1633   23.7882 S   0  0  0  0  0  0  0  0  0  0  0  0
   10.2548  -17.1170   25.2485 C   0  0  0  0  0  0  0  0  0  0  0  0
   10.1609  -17.0739   26.6268 O   0  0  0  0  0  0  0  0  0  0  0  0
   10.6661  -18.1306   24.6444 O   0  0  0  0  0  0  0  0  0  0  0  0
  2  3  2  0
  2  1  1  0
  4  2  1  0
  5  4  1  0
  5  6  1  6
  7  5  1  0
  8  7  2  0
  9 10  1  0
 10 12  1  0
 10 11  2  0
 13 12  1  1
 13 14  1  0
 14  7  1  0
 15 13  1  0
 15 17  1  0
 16 15  2  0
 18 17  1  0
 18 19  1  6
 18 21  1  0
 20 19  1  0
 21 23  2  0
 21 22  1  0
M  END
$$$$
