NNC.pdb
     RDKit          3D

 23 22  0  0  1  0  0  0  0  0999 V2000
   13.7978  -16.3737   15.9353 N   0  0  0  0  0  0  0  0  0  0  0  0
   12.6704  -15.6355   15.4949 C   0  0  0  0  0  0  0  0  0  0  0  0
   12.6348  -15.3464   14.2773 O   0  0  0  0  0  0  0  0  0  0  0  0
   11.6616  -15.2833   16.4995 C   0  0  0  0  0  0  0  0  0  0  0  0
   11.9545  -15.7385   17.9003 C   0  0  2  0  0  0  0  0  0  0  0  0
   11.2595  -17.0177   18.0322 N   0  0  0  0  0  0  0  0  0  0  0  0
   11.4811  -14.7839   18.9469 C   0  0  0  0  0  0  0  0  0  0  0  0
   12.3303  -13.9865   19.3955 O   0  0  0  0  0  0  0  0  0  0  0  0
    7.9126  -12.1081   18.3981 N   0  0  0  0  0  0  0  0  0  0  0  0
    7.8874  -13.4655   18.7883 C   0  0  0  0  0  0  0  0  0  0  0  0
    7.7163  -14.3650   17.9007 O   0  0  0  0  0  0  0  0  0  0  0  0
    8.0575  -13.8314   20.2140 C   0  0  0  0  0  0  0  0  0  0  0  0
    9.5662  -14.0147   20.4665 C   0  0  2  0  0  0  0  0  0  0  0  0
   10.1735  -14.7538   19.4195 N   0  0  0  0  0  0  0  0  0  0  0  0
    9.8580  -14.4364   21.8223 C   0  0  0  0  0  0  0  0  0  0  0  0
    9.3406  -13.8653   22.8031 O   0  0  0  0  0  0  0  0  0  0  0  0
   10.7425  -15.5186   22.0731 N   0  0  0  0  0  0  0  0  0  0  0  0
   11.0158  -16.0235   23.4097 C   0  0  1  0  0  0  0  0  0  0  0  0
    9.7322  -16.5368   24.0513 C   0  0  0  0  0  0  0  0  0  0  0  0
   10.1252  -17.2150   25.6796 S   0  0  0  0  0  0  0  0  0  0  0  0
   12.0339  -17.0772   23.4427 C   0  0  0  0  0  0  0  0  0  0  0  0
   12.7878  -17.2419   24.5894 O   0  0  0  0  0  0  0  0  0  0  0  0
   12.1948  -17.7988   22.4353 O   0  0  0  0  0  0  0  0  0  0  0  0
  2  3  2  0
  2  1  1  0
  4  2  1  0
  5  4  1  0
  5  6  1  1
  7  5  1  0
  8  7  2  0
  9 10  1  0
 10 12  1  0
 10 11  2  0
 13 12  1  6
 13 14  1  0
 14  7  1  0
 15 13  1  0
 15 17  1  0
 16 15  2  0
 18 17  1  0
 18 19  1  6
 18 21  1  0
 20 19  1  0
 21 23  2  0
 21 22  1  0
M  END
$$$$
