NNC.pdb
     RDKit          3D

 23 22  0  0  1  0  0  0  0  0999 V2000
    7.6872  -12.1963   18.4400 N   0  0  0  0  0  0  0  0  0  0  0  0
    8.2066  -13.3664   19.0491 C   0  0  0  0  0  0  0  0  0  0  0  0
    9.0013  -14.0467   18.3613 O   0  0  0  0  0  0  0  0  0  0  0  0
    7.7667  -13.6665   20.4156 C   0  0  0  0  0  0  0  0  0  0  0  0
    8.3935  -14.8757   21.0481 C   0  0  2  0  0  0  0  0  0  0  0  0
    7.9095  -16.0061   20.2577 N   0  0  0  0  0  0  0  0  0  0  0  0
    8.0240  -15.0546   22.4841 C   0  0  0  0  0  0  0  0  0  0  0  0
    7.2610  -14.1954   22.9718 O   0  0  0  0  0  0  0  0  0  0  0  0
    5.9043  -18.1584   22.8766 N   0  0  0  0  0  0  0  0  0  0  0  0
    6.1719  -17.5561   24.1260 C   0  0  0  0  0  0  0  0  0  0  0  0
    5.2687  -16.8475   24.6814 O   0  0  0  0  0  0  0  0  0  0  0  0
    7.4891  -17.7492   24.7763 C   0  0  0  0  0  0  0  0  0  0  0  0
    8.2730  -16.4308   24.6315 C   0  0  2  0  0  0  0  0  0  0  0  0
    8.4832  -16.1085   23.2665 N   0  0  0  0  0  0  0  0  0  0  0  0
    9.4275  -16.3690   25.5058 C   0  0  0  0  0  0  0  0  0  0  0  0
   10.0224  -17.4043   25.8664 O   0  0  0  0  0  0  0  0  0  0  0  0
    9.9181  -15.1221   25.9758 N   0  0  0  0  0  0  0  0  0  0  0  0
   10.3572  -14.9105   27.3463 C   0  0  1  0  0  0  0  0  0  0  0  0
    9.4667  -13.8808   28.0315 C   0  0  0  0  0  0  0  0  0  0  0  0
   10.0506  -13.6396   29.7245 S   0  0  0  0  0  0  0  0  0  0  0  0
   10.3922  -16.1369   28.1479 C   0  0  0  0  0  0  0  0  0  0  0  0
   11.5177  -16.4098   28.9025 O   0  0  0  0  0  0  0  0  0  0  0  0
    9.4058  -16.9037   28.1291 O   0  0  0  0  0  0  0  0  0  0  0  0
  2  3  2  0
  2  1  1  0
  4  2  1  0
  5  4  1  0
  5  6  1  6
  7  5  1  0
  8  7  2  0
  9 10  1  0
 10 12  1  0
 10 11  2  0
 13 12  1  6
 13 14  1  0
 14  7  1  0
 15 13  1  0
 15 17  1  0
 16 15  2  0
 18 17  1  0
 18 19  1  1
 18 21  1  0
 20 19  1  0
 21 23  2  0
 21 22  1  0
M  END
$$$$
