TPP.pdb
     RDKit          3D

 22 23  0  0  1  0  0  0  0  0999 V2000
    8.9245  -19.2055   21.7777 C   0  0  0  0  0  0  0  0  0  0  0  0
   10.2201  -18.5799   21.3311 C   0  0  1  0  0  0  0  0  0  0  0  0
   10.7023  -19.4600   20.3275 O   0  0  0  0  0  0  0  0  0  0  0  0
   10.0487  -17.2374   20.6475 C   0  0  2  0  0  0  0  0  0  0  0  0
   11.3863  -17.0241   20.0320 N   0  0  0  0  0  0  0  0  0  0  0  0
    9.8000  -16.1259   21.5649 C   0  0  0  0  0  0  0  0  0  0  0  0
   10.8297  -15.5598   22.0787 O   0  0  0  0  0  0  0  0  0  0  0  0
    8.5460  -15.5980   21.9524 N   0  0  0  0  0  0  0  0  0  0  0  0
    7.1943  -15.9404   21.5679 C   0  0  0  0  0  0  0  0  0  0  0  0
    6.6381  -14.5468   21.2275 C   0  0  0  0  0  0  0  0  0  0  0  0
    7.1363  -13.7595   22.4258 C   0  0  0  0  0  0  0  0  0  0  0  0
    8.3311  -14.5041   22.9156 C   0  0  1  0  0  0  0  0  0  0  0  0
    7.9985  -15.1193   24.2263 C   0  0  0  0  0  0  0  0  0  0  0  0
    8.0268  -16.3801   24.3763 O   0  0  0  0  0  0  0  0  0  0  0  0
    7.6393  -14.3336   25.3544 N   0  0  0  0  0  0  0  0  0  0  0  0
    6.9709  -13.0437   25.3490 C   0  0  0  0  0  0  0  0  0  0  0  0
    7.1666  -12.4861   26.7283 C   0  0  0  0  0  0  0  0  0  0  0  0
    8.2256  -13.3711   27.3846 C   0  0  0  0  0  0  0  0  0  0  0  0
    7.8909  -14.7052   26.7202 C   0  0  1  0  0  0  0  0  0  0  0  0
    6.6548  -15.2494   27.3711 C   0  0  0  0  0  0  0  0  0  0  0  0
    5.5195  -15.0955   26.8617 O   0  0  0  0  0  0  0  0  0  0  0  0
    6.7417  -15.9437   28.5655 O   0  0  0  0  0  0  0  0  0  0  0  0
  2  1  1  6
  2  3  1  0
  4  2  1  0
  4  5  1  1
  6  4  1  0
  6  7  2  0
  8  6  1  0
  9  8  1  0
 10 11  1  0
 10  9  1  0
 11 12  1  0
 12  8  1  0
 12 13  1  1
 13 15  1  0
 14 13  2  0
 15 19  1  0
 15 16  1  0
 16 17  1  0
 18 17  1  0
 19 20  1  1
 19 18  1  0
 20 22  1  0
 21 20  2  0
M  END
$$$$
