TPP.pdb
     RDKit          3D

 22 23  0  0  1  0  0  0  0  0999 V2000
   10.1946  -19.4692   22.3037 C   0  0  0  0  0  0  0  0  0  0  0  0
   11.0962  -18.5453   21.5272 C   0  0  1  0  0  0  0  0  0  0  0  0
   11.2914  -19.2111   20.2890 O   0  0  0  0  0  0  0  0  0  0  0  0
   10.4567  -17.2155   21.1781 C   0  0  2  0  0  0  0  0  0  0  0  0
   11.3837  -16.6819   20.1439 N   0  0  0  0  0  0  0  0  0  0  0  0
   10.4260  -16.2577   22.2830 C   0  0  0  0  0  0  0  0  0  0  0  0
   11.5078  -15.6091   22.5152 O   0  0  0  0  0  0  0  0  0  0  0  0
    9.3327  -15.9605   23.1301 N   0  0  0  0  0  0  0  0  0  0  0  0
    7.9745  -16.4571   23.1631 C   0  0  0  0  0  0  0  0  0  0  0  0
    7.1934  -15.1331   23.2264 C   0  0  0  0  0  0  0  0  0  0  0  0
    7.9867  -14.4048   24.2961 C   0  0  0  0  0  0  0  0  0  0  0  0
    9.3476  -15.0116   24.2569 C   0  0  1  0  0  0  0  0  0  0  0  0
    9.5498  -15.7965   25.5019 C   0  0  0  0  0  0  0  0  0  0  0  0
    9.6627  -17.0608   25.4598 O   0  0  0  0  0  0  0  0  0  0  0  0
    9.6252  -15.1745   26.7773 N   0  0  0  0  0  0  0  0  0  0  0  0
    8.8289  -14.0587   27.2582 C   0  0  0  0  0  0  0  0  0  0  0  0
    9.5412  -13.5561   28.4795 C   0  0  0  0  0  0  0  0  0  0  0  0
   10.9113  -14.2329   28.4657 C   0  0  0  0  0  0  0  0  0  0  0  0
   10.5314  -15.5653   27.8226 C   0  0  1  0  0  0  0  0  0  0  0  0
    9.8382  -16.3985   28.8585 C   0  0  0  0  0  0  0  0  0  0  0  0
   10.4596  -16.8983   29.8261 O   0  0  0  0  0  0  0  0  0  0  0  0
    8.4777  -16.6371   28.7677 O   0  0  0  0  0  0  0  0  0  0  0  0
  2  1  1  1
  2  3  1  0
  4  2  1  0
  4  5  1  6
  6  4  1  0
  6  7  2  0
  8  6  1  0
  9  8  1  0
 10 11  1  0
 10  9  1  0
 11 12  1  0
 12  8  1  0
 12 13  1  1
 13 15  1  0
 14 13  2  0
 15 19  1  0
 15 16  1  0
 16 17  1  0
 18 17  1  0
 19 20  1  1
 19 18  1  0
 20 22  1  0
 21 20  2  0
M  END
$$$$
