TPP.pdb
     RDKit          3D

 22 23  0  0  1  0  0  0  0  0999 V2000
   11.3434  -14.8683   20.3821 C   0  0  0  0  0  0  0  0  0  0  0  0
   10.6996  -13.7321   19.6311 C   0  0  1  0  0  0  0  0  0  0  0  0
   11.2389  -13.8320   18.3221 O   0  0  0  0  0  0  0  0  0  0  0  0
    9.1995  -13.8789   19.4659 C   0  0  2  0  0  0  0  0  0  0  0  0
    8.8652  -12.7269   18.5856 N   0  0  0  0  0  0  0  0  0  0  0  0
    8.4423  -13.7228   20.7074 C   0  0  0  0  0  0  0  0  0  0  0  0
    8.1755  -12.5232   21.0741 O   0  0  0  0  0  0  0  0  0  0  0  0
    7.9655  -14.7495   21.5557 N   0  0  0  0  0  0  0  0  0  0  0  0
    8.1509  -16.1839   21.5334 C   0  0  0  0  0  0  0  0  0  0  0  0
    6.6939  -16.6572   21.6752 C   0  0  0  0  0  0  0  0  0  0  0  0
    6.2282  -15.7563   22.8047 C   0  0  0  0  0  0  0  0  0  0  0  0
    7.1168  -14.5610   22.7451 C   0  0  1  0  0  0  0  0  0  0  0  0
    8.0044  -14.5738   23.9363 C   0  0  0  0  0  0  0  0  0  0  0  0
    9.1695  -15.0752   23.8711 O   0  0  0  0  0  0  0  0  0  0  0  0
    7.5937  -14.0321   25.1841 N   0  0  0  0  0  0  0  0  0  0  0  0
    6.2588  -13.5948   25.5545 C   0  0  0  0  0  0  0  0  0  0  0  0
    6.4371  -12.7773   26.8001 C   0  0  0  0  0  0  0  0  0  0  0  0
    7.9399  -12.5255   26.9168 C   0  0  0  0  0  0  0  0  0  0  0  0
    8.4644  -13.8252   26.3092 C   0  0  1  0  0  0  0  0  0  0  0  0
    8.3010  -14.9120   27.3290 C   0  0  0  0  0  0  0  0  0  0  0  0
    7.3392  -15.7155   27.2874 O   0  0  0  0  0  0  0  0  0  0  0  0
    9.2217  -15.0539   28.3529 O   0  0  0  0  0  0  0  0  0  0  0  0
  2  1  1  1
  2  3  1  0
  4  2  1  0
  4  5  1  6
  6  4  1  0
  6  7  2  0
  8  6  1  0
  9  8  1  0
 10 11  1  0
 10  9  1  0
 11 12  1  0
 12  8  1  0
 12 13  1  1
 13 15  1  0
 14 13  2  0
 15 19  1  0
 15 16  1  0
 16 17  1  0
 18 17  1  0
 19 20  1  1
 19 18  1  0
 20 22  1  0
 21 20  2  0
M  END
$$$$
