TPP.pdb
     RDKit          3D

 22 23  0  0  1  0  0  0  0  0999 V2000
    7.2065  -16.8278   21.8291 C   0  0  0  0  0  0  0  0  0  0  0  0
    7.8964  -15.6649   21.1649 C   0  0  1  0  0  0  0  0  0  0  0  0
    7.4403  -15.7123   19.8217 O   0  0  0  0  0  0  0  0  0  0  0  0
    7.4634  -14.3118   21.6945 C   0  0  2  0  0  0  0  0  0  0  0  0
    7.8822  -13.3959   20.5993 N   0  0  0  0  0  0  0  0  0  0  0  0
    8.1589  -13.8948   22.9117 C   0  0  0  0  0  0  0  0  0  0  0  0
    9.3423  -13.4220   22.7674 O   0  0  0  0  0  0  0  0  0  0  0  0
    7.6731  -13.9517   24.2391 N   0  0  0  0  0  0  0  0  0  0  0  0
    6.4080  -14.3909   24.7858 C   0  0  0  0  0  0  0  0  0  0  0  0
    6.0637  -13.1955   25.6912 C   0  0  0  0  0  0  0  0  0  0  0  0
    7.3998  -12.9886   26.3814 C   0  0  0  0  0  0  0  0  0  0  0  0
    8.4155  -13.5519   25.4472 C   0  0  1  0  0  0  0  0  0  0  0  0
    8.9820  -14.7839   26.0540 C   0  0  0  0  0  0  0  0  0  0  0  0
    8.9916  -15.8783   25.4097 O   0  0  0  0  0  0  0  0  0  0  0  0
    9.5309  -14.7909   27.3646 N   0  0  0  0  0  0  0  0  0  0  0  0
    9.1795  -13.9140   28.4682 C   0  0  0  0  0  0  0  0  0  0  0  0
   10.2816  -14.0752   29.4736 C   0  0  0  0  0  0  0  0  0  0  0  0
   11.3962  -14.8270   28.7470 C   0  0  0  0  0  0  0  0  0  0  0  0
   10.5530  -15.6957   27.8155 C   0  0  1  0  0  0  0  0  0  0  0  0
    9.9692  -16.8132   28.6269 C   0  0  0  0  0  0  0  0  0  0  0  0
    8.7620  -16.8208   28.9655 O   0  0  0  0  0  0  0  0  0  0  0  0
   10.7619  -17.8759   29.0252 O   0  0  0  0  0  0  0  0  0  0  0  0
  2  1  1  1
  2  3  1  0
  4  2  1  0
  4  5  1  6
  6  4  1  0
  6  7  2  0
  8  6  1  0
  9  8  1  0
 10 11  1  0
 10  9  1  0
 11 12  1  0
 12  8  1  0
 12 13  1  1
 13 15  1  0
 14 13  2  0
 15 19  1  0
 15 16  1  0
 16 17  1  0
 18 17  1  0
 19 20  1  1
 19 18  1  0
 20 22  1  0
 21 20  2  0
M  END
$$$$
