TPP.pdb
     RDKit          3D

 22 23  0  0  1  0  0  0  0  0999 V2000
    8.8304  -18.5571   27.8356 C   0  0  0  0  0  0  0  0  0  0  0  0
    8.4462  -17.5700   26.7644 C   0  0  1  0  0  0  0  0  0  0  0  0
    8.7776  -18.2283   25.5515 O   0  0  0  0  0  0  0  0  0  0  0  0
    6.9564  -17.2989   26.6868 C   0  0  2  0  0  0  0  0  0  0  0  0
    6.4068  -18.6459   26.3750 N   0  0  0  0  0  0  0  0  0  0  0  0
    6.5674  -16.3989   25.6015 C   0  0  0  0  0  0  0  0  0  0  0  0
    5.6959  -16.8396   24.7703 O   0  0  0  0  0  0  0  0  0  0  0  0
    7.0436  -15.0886   25.3619 N   0  0  0  0  0  0  0  0  0  0  0  0
    7.8577  -14.1969   26.1584 C   0  0  0  0  0  0  0  0  0  0  0  0
    7.0159  -12.9109   26.0882 C   0  0  0  0  0  0  0  0  0  0  0  0
    6.7052  -12.8748   24.6028 C   0  0  0  0  0  0  0  0  0  0  0  0
    6.8000  -14.2909   24.1475 C   0  0  1  0  0  0  0  0  0  0  0  0
    7.9944  -14.4264   23.2746 C   0  0  0  0  0  0  0  0  0  0  0  0
    9.0020  -15.0994   23.6549 O   0  0  0  0  0  0  0  0  0  0  0  0
    8.0599  -13.8171   21.9926 N   0  0  0  0  0  0  0  0  0  0  0  0
    7.3386  -12.6392   21.5426 C   0  0  0  0  0  0  0  0  0  0  0  0
    7.4625  -12.6414   20.0471 C   0  0  0  0  0  0  0  0  0  0  0  0
    8.0056  -14.0220   19.6803 C   0  0  0  0  0  0  0  0  0  0  0  0
    8.8761  -14.2881   20.9069 C   0  0  1  0  0  0  0  0  0  0  0  0
   10.1261  -13.4711   20.7735 C   0  0  0  0  0  0  0  0  0  0  0  0
   11.0402  -13.7904   19.9768 O   0  0  0  0  0  0  0  0  0  0  0  0
   10.3004  -12.3303   21.5379 O   0  0  0  0  0  0  0  0  0  0  0  0
  2  1  1  1
  2  3  1  0
  4  2  1  0
  4  5  1  6
  6  4  1  0
  6  7  2  0
  8  6  1  0
  9  8  1  0
 10 11  1  0
 10  9  1  0
 11 12  1  0
 12  8  1  0
 12 13  1  6
 13 15  1  0
 14 13  2  0
 15 19  1  0
 15 16  1  0
 16 17  1  0
 18 17  1  0
 19 20  1  6
 19 18  1  0
 20 22  1  0
 21 20  2  0
M  END
$$$$
