TPP.pdb
     RDKit          3D

 22 23  0  0  1  0  0  0  0  0999 V2000
    8.4471  -18.0700   15.4347 C   0  0  0  0  0  0  0  0  0  0  0  0
    8.6137  -17.5029   16.8204 C   0  0  1  0  0  0  0  0  0  0  0  0
    9.4048  -18.4676   17.4970 O   0  0  0  0  0  0  0  0  0  0  0  0
    9.4150  -16.2164   16.8636 C   0  0  2  0  0  0  0  0  0  0  0  0
   10.7488  -16.6592   16.3752 N   0  0  0  0  0  0  0  0  0  0  0  0
    9.5943  -15.6677   18.2075 C   0  0  0  0  0  0  0  0  0  0  0  0
   10.7524  -15.8105   18.7397 O   0  0  0  0  0  0  0  0  0  0  0  0
    8.6317  -14.9914   18.9930 N   0  0  0  0  0  0  0  0  0  0  0  0
    7.2599  -14.6170   18.7277 C   0  0  0  0  0  0  0  0  0  0  0  0
    7.2881  -13.1359   19.1435 C   0  0  0  0  0  0  0  0  0  0  0  0
    8.0267  -13.2427   20.4653 C   0  0  0  0  0  0  0  0  0  0  0  0
    8.8342  -14.4915   20.3640 C   0  0  1  0  0  0  0  0  0  0  0  0
    8.2651  -15.4977   21.2971 C   0  0  0  0  0  0  0  0  0  0  0  0
    7.5928  -16.4816   20.8579 O   0  0  0  0  0  0  0  0  0  0  0  0
    8.4465  -15.4042   22.7033 N   0  0  0  0  0  0  0  0  0  0  0  0
    8.8002  -14.2195   23.4660 C   0  0  0  0  0  0  0  0  0  0  0  0
    9.2301  -14.7240   24.8122 C   0  0  0  0  0  0  0  0  0  0  0  0
    9.3959  -16.2348   24.6528 C   0  0  0  0  0  0  0  0  0  0  0  0
    8.3045  -16.5038   23.6185 C   0  0  1  0  0  0  0  0  0  0  0  0
    6.9804  -16.4584   24.3202 C   0  0  0  0  0  0  0  0  0  0  0  0
    6.6037  -17.3842   25.0773 O   0  0  0  0  0  0  0  0  0  0  0  0
    6.1332  -15.3778   24.1449 O   0  0  0  0  0  0  0  0  0  0  0  0
  2  1  1  6
  2  3  1  0
  4  2  1  0
  4  5  1  1
  6  4  1  0
  6  7  2  0
  8  6  1  0
  9  8  1  0
 10 11  1  0
 10  9  1  0
 11 12  1  0
 12  8  1  0
 12 13  1  1
 13 15  1  0
 14 13  2  0
 15 19  1  0
 15 16  1  0
 16 17  1  0
 18 17  1  0
 19 20  1  1
 19 18  1  0
 20 22  1  0
 21 20  2  0
M  END
$$$$
