TPP.pdb
     RDKit          3D

 22 23  0  0  1  0  0  0  0  0999 V2000
    6.7122  -16.5350   21.9137 C   0  0  0  0  0  0  0  0  0  0  0  0
    7.5661  -15.4679   21.2800 C   0  0  1  0  0  0  0  0  0  0  0  0
    7.1743  -15.4751   19.9159 O   0  0  0  0  0  0  0  0  0  0  0  0
    7.2698  -14.0680   21.7814 C   0  0  2  0  0  0  0  0  0  0  0  0
    7.8507  -13.2188   20.7067 N   0  0  0  0  0  0  0  0  0  0  0  0
    7.9457  -13.7246   23.0322 C   0  0  0  0  0  0  0  0  0  0  0  0
    9.1543  -13.3057   22.9393 O   0  0  0  0  0  0  0  0  0  0  0  0
    7.4161  -13.8000   24.3418 N   0  0  0  0  0  0  0  0  0  0  0  0
    6.1200  -14.2094   24.8366 C   0  0  0  0  0  0  0  0  0  0  0  0
    5.7878  -13.0274   25.7638 C   0  0  0  0  0  0  0  0  0  0  0  0
    7.1075  -12.8857   26.5006 C   0  0  0  0  0  0  0  0  0  0  0  0
    8.1328  -13.4589   25.5829 C   0  0  1  0  0  0  0  0  0  0  0  0
    8.6373  -14.7258   26.1724 C   0  0  0  0  0  0  0  0  0  0  0  0
    8.4430  -15.8357   25.5865 O   0  0  0  0  0  0  0  0  0  0  0  0
    9.3504  -14.7500   27.4012 N   0  0  0  0  0  0  0  0  0  0  0  0
    9.1974  -13.8398   28.5230 C   0  0  0  0  0  0  0  0  0  0  0  0
   10.4094  -14.0554   29.3811 C   0  0  0  0  0  0  0  0  0  0  0  0
   11.3741  -14.8825   28.5321 C   0  0  0  0  0  0  0  0  0  0  0  0
   10.3675  -15.7097   27.7347 C   0  0  1  0  0  0  0  0  0  0  0  0
    9.8294  -16.7795   28.6368 C   0  0  0  0  0  0  0  0  0  0  0  0
    8.6564  -16.7409   29.0781 O   0  0  0  0  0  0  0  0  0  0  0  0
   10.6275  -17.8483   29.0071 O   0  0  0  0  0  0  0  0  0  0  0  0
  2  1  1  1
  2  3  1  0
  4  2  1  0
  4  5  1  6
  6  4  1  0
  6  7  2  0
  8  6  1  0
  9  8  1  0
 10 11  1  0
 10  9  1  0
 11 12  1  0
 12  8  1  0
 12 13  1  1
 13 15  1  0
 14 13  2  0
 15 19  1  0
 15 16  1  0
 16 17  1  0
 18 17  1  0
 19 20  1  1
 19 18  1  0
 20 22  1  0
 21 20  2  0
M  END
$$$$
