TPP.pdb
     RDKit          3D

 22 23  0  0  1  0  0  0  0  0999 V2000
   12.2933  -18.1687   19.5974 C   0  0  0  0  0  0  0  0  0  0  0  0
   11.5670  -16.9557   20.1174 C   0  0  1  0  0  0  0  0  0  0  0  0
   10.5574  -16.7147   19.1493 O   0  0  0  0  0  0  0  0  0  0  0  0
   10.8317  -17.1941   21.4218 C   0  0  2  0  0  0  0  0  0  0  0  0
    9.6991  -18.0578   20.9919 N   0  0  0  0  0  0  0  0  0  0  0  0
   10.2658  -15.9852   22.0196 C   0  0  0  0  0  0  0  0  0  0  0  0
   11.0934  -15.0644   22.3539 O   0  0  0  0  0  0  0  0  0  0  0  0
    8.9010  -15.7116   22.2720 N   0  0  0  0  0  0  0  0  0  0  0  0
    7.6899  -16.3943   21.8727 C   0  0  0  0  0  0  0  0  0  0  0  0
    6.8713  -15.2138   21.3217 C   0  0  0  0  0  0  0  0  0  0  0  0
    7.0925  -14.1958   22.4257 C   0  0  0  0  0  0  0  0  0  0  0  0
    8.3796  -14.5867   23.0679 C   0  0  1  0  0  0  0  0  0  0  0  0
    8.0894  -15.0987   24.4319 C   0  0  0  0  0  0  0  0  0  0  0  0
    8.2820  -16.3204   24.7202 O   0  0  0  0  0  0  0  0  0  0  0  0
    7.5906  -14.2541   25.4601 N   0  0  0  0  0  0  0  0  0  0  0  0
    6.5048  -13.2944   25.3582 C   0  0  0  0  0  0  0  0  0  0  0  0
    6.6288  -12.4200   26.5713 C   0  0  0  0  0  0  0  0  0  0  0  0
    7.9983  -12.7375   27.1705 C   0  0  0  0  0  0  0  0  0  0  0  0
    8.1008  -14.2168   26.8036 C   0  0  1  0  0  0  0  0  0  0  0  0
    7.2200  -14.9882   27.7402 C   0  0  0  0  0  0  0  0  0  0  0  0
    6.0918  -15.4075   27.3888 O   0  0  0  0  0  0  0  0  0  0  0  0
    7.6397  -15.2580   29.0314 O   0  0  0  0  0  0  0  0  0  0  0  0
  2  1  1  6
  2  3  1  0
  4  2  1  0
  4  5  1  6
  6  4  1  0
  6  7  2  0
  8  6  1  0
  9  8  1  0
 10 11  1  0
 10  9  1  0
 11 12  1  0
 12  8  1  0
 12 13  1  1
 13 15  1  0
 14 13  2  0
 15 19  1  0
 15 16  1  0
 16 17  1  0
 18 17  1  0
 19 20  1  1
 19 18  1  0
 20 22  1  0
 21 20  2  0
M  END
$$$$
