TPP.pdb
     RDKit          3D

 22 23  0  0  1  0  0  0  0  0999 V2000
    8.5185  -18.9857   27.4822 C   0  0  0  0  0  0  0  0  0  0  0  0
    8.2275  -17.9208   26.4572 C   0  0  1  0  0  0  0  0  0  0  0  0
    8.6280  -18.5048   25.2272 O   0  0  0  0  0  0  0  0  0  0  0  0
    6.7519  -17.6097   26.2989 C   0  0  2  0  0  0  0  0  0  0  0  0
    6.1995  -18.9186   25.8570 N   0  0  0  0  0  0  0  0  0  0  0  0
    6.4557  -16.6282   25.2558 C   0  0  0  0  0  0  0  0  0  0  0  0
    5.5516  -16.9462   24.4037 O   0  0  0  0  0  0  0  0  0  0  0  0
    7.0542  -15.3588   25.0780 N   0  0  0  0  0  0  0  0  0  0  0  0
    7.9750  -14.6025   25.8980 C   0  0  0  0  0  0  0  0  0  0  0  0
    7.2649  -13.2380   25.9316 C   0  0  0  0  0  0  0  0  0  0  0  0
    6.9190  -13.0797   24.4621 C   0  0  0  0  0  0  0  0  0  0  0  0
    6.8588  -14.4675   23.9213 C   0  0  1  0  0  0  0  0  0  0  0  0
    8.0094  -14.6657   23.0027 C   0  0  0  0  0  0  0  0  0  0  0  0
    8.9478  -15.4670   23.3030 O   0  0  0  0  0  0  0  0  0  0  0  0
    8.1081  -13.9765   21.7640 N   0  0  0  0  0  0  0  0  0  0  0  0
    7.5661  -12.6677   21.4420 C   0  0  0  0  0  0  0  0  0  0  0  0
    7.6120  -12.5731   19.9452 C   0  0  0  0  0  0  0  0  0  0  0  0
    7.9040  -13.9894   19.4510 C   0  0  0  0  0  0  0  0  0  0  0  0
    8.7807  -14.4849   20.5996 C   0  0  1  0  0  0  0  0  0  0  0  0
   10.1386  -13.8685   20.4447 C   0  0  0  0  0  0  0  0  0  0  0  0
   10.4713  -12.8392   21.0790 O   0  0  0  0  0  0  0  0  0  0  0  0
   11.0676  -14.4305   19.5861 O   0  0  0  0  0  0  0  0  0  0  0  0
  2  1  1  1
  2  3  1  0
  4  2  1  0
  4  5  1  6
  6  4  1  0
  6  7  2  0
  8  6  1  0
  9  8  1  0
 10 11  1  0
 10  9  1  0
 11 12  1  0
 12  8  1  0
 12 13  1  6
 13 15  1  0
 14 13  2  0
 15 19  1  0
 15 16  1  0
 16 17  1  0
 18 17  1  0
 19 20  1  6
 19 18  1  0
 20 22  1  0
 21 20  2  0
M  END
$$$$
