TPP.pdb
     RDKit          3D

 22 23  0  0  1  0  0  0  0  0999 V2000
   11.2878  -14.8744   18.0798 C   0  0  0  0  0  0  0  0  0  0  0  0
   10.6309  -14.6070   19.4088 C   0  0  1  0  0  0  0  0  0  0  0  0
   11.4540  -13.6194   20.0101 O   0  0  0  0  0  0  0  0  0  0  0  0
    9.2557  -13.9781   19.2971 C   0  0  2  0  0  0  0  0  0  0  0  0
    9.5519  -12.6933   18.6077 N   0  0  0  0  0  0  0  0  0  0  0  0
    8.6369  -13.6591   20.5833 C   0  0  0  0  0  0  0  0  0  0  0  0
    8.8094  -12.4685   21.0276 O   0  0  0  0  0  0  0  0  0  0  0  0
    7.8633  -14.5177   21.3990 N   0  0  0  0  0  0  0  0  0  0  0  0
    7.5177  -15.9166   21.2726 C   0  0  0  0  0  0  0  0  0  0  0  0
    5.9966  -15.8508   21.4942 C   0  0  0  0  0  0  0  0  0  0  0  0
    5.9419  -14.9436   22.7101 C   0  0  0  0  0  0  0  0  0  0  0  0
    7.1978  -14.1424   22.6587 C   0  0  1  0  0  0  0  0  0  0  0  0
    8.0772  -14.5724   23.7762 C   0  0  0  0  0  0  0  0  0  0  0  0
    9.0718  -15.3327   23.5625 O   0  0  0  0  0  0  0  0  0  0  0  0
    7.8468  -14.1566   25.1152 N   0  0  0  0  0  0  0  0  0  0  0  0
    6.6562  -13.5117   25.6416 C   0  0  0  0  0  0  0  0  0  0  0  0
    7.0601  -12.9529   26.9743 C   0  0  0  0  0  0  0  0  0  0  0  0
    8.5852  -13.0433   27.0145 C   0  0  0  0  0  0  0  0  0  0  0  0
    8.7873  -14.3139   26.1911 C   0  0  1  0  0  0  0  0  0  0  0  0
    8.4326  -15.4868   27.0549 C   0  0  0  0  0  0  0  0  0  0  0  0
    7.3402  -16.0897   26.9314 O   0  0  0  0  0  0  0  0  0  0  0  0
    9.3163  -15.9358   28.0211 O   0  0  0  0  0  0  0  0  0  0  0  0
  2  1  1  6
  2  3  1  0
  4  2  1  0
  4  5  1  6
  6  4  1  0
  6  7  2  0
  8  6  1  0
  9  8  1  0
 10 11  1  0
 10  9  1  0
 11 12  1  0
 12  8  1  0
 12 13  1  1
 13 15  1  0
 14 13  2  0
 15 19  1  0
 15 16  1  0
 16 17  1  0
 18 17  1  0
 19 20  1  1
 19 18  1  0
 20 22  1  0
 21 20  2  0
M  END
$$$$
