TPP.pdb
     RDKit          3D

 22 23  0  0  1  0  0  0  0  0999 V2000
    6.6250  -16.9963   22.4436 C   0  0  0  0  0  0  0  0  0  0  0  0
    7.5216  -16.1003   21.6296 C   0  0  1  0  0  0  0  0  0  0  0  0
    7.0373  -16.2382   20.3027 O   0  0  0  0  0  0  0  0  0  0  0  0
    7.3823  -14.6277   21.9631 C   0  0  2  0  0  0  0  0  0  0  0  0
    7.9976  -13.9761   20.7755 N   0  0  0  0  0  0  0  0  0  0  0  0
    8.1387  -14.2067   23.1419 C   0  0  0  0  0  0  0  0  0  0  0  0
    9.3663  -13.8854   22.9559 O   0  0  0  0  0  0  0  0  0  0  0  0
    7.6690  -14.1105   24.4728 N   0  0  0  0  0  0  0  0  0  0  0  0
    6.3770  -14.3848   25.0625 C   0  0  0  0  0  0  0  0  0  0  0  0
    6.1572  -13.0932   25.8692 C   0  0  0  0  0  0  0  0  0  0  0  0
    7.5165  -12.9559   26.5308 C   0  0  0  0  0  0  0  0  0  0  0  0
    8.4625  -13.6849   25.6389 C   0  0  1  0  0  0  0  0  0  0  0  0
    8.9220  -14.9109   26.3407 C   0  0  0  0  0  0  0  0  0  0  0  0
    8.7378  -16.0584   25.8285 O   0  0  0  0  0  0  0  0  0  0  0  0
    9.5796  -14.8535   27.5990 N   0  0  0  0  0  0  0  0  0  0  0  0
    9.3451  -13.8996   28.6693 C   0  0  0  0  0  0  0  0  0  0  0  0
   10.5240  -14.0318   29.5882 C   0  0  0  0  0  0  0  0  0  0  0  0
   11.5537  -14.8609   28.8215 C   0  0  0  0  0  0  0  0  0  0  0  0
   10.6131  -15.7594   28.0209 C   0  0  1  0  0  0  0  0  0  0  0  0
   10.0721  -16.8061   28.9480 C   0  0  0  0  0  0  0  0  0  0  0  0
   10.7918  -17.7355   29.3845 O   0  0  0  0  0  0  0  0  0  0  0  0
    8.7474  -16.7684   29.3479 O   0  0  0  0  0  0  0  0  0  0  0  0
  2  1  1  1
  2  3  1  0
  4  2  1  0
  4  5  1  6
  6  4  1  0
  6  7  2  0
  8  6  1  0
  9  8  1  0
 10 11  1  0
 10  9  1  0
 11 12  1  0
 12  8  1  0
 12 13  1  1
 13 15  1  0
 14 13  2  0
 15 19  1  0
 15 16  1  0
 16 17  1  0
 18 17  1  0
 19 20  1  1
 19 18  1  0
 20 22  1  0
 21 20  2  0
M  END
$$$$
