TPP.pdb
     RDKit          3D

 22 23  0  0  1  0  0  0  0  0999 V2000
    6.4040  -16.1042   20.5011 C   0  0  0  0  0  0  0  0  0  0  0  0
    7.1179  -15.7595   21.7821 C   0  0  1  0  0  0  0  0  0  0  0  0
    8.4436  -16.2225   21.5755 O   0  0  0  0  0  0  0  0  0  0  0  0
    7.2415  -14.2692   22.0328 C   0  0  2  0  0  0  0  0  0  0  0  0
    7.9947  -13.8095   20.8349 N   0  0  0  0  0  0  0  0  0  0  0  0
    8.0326  -13.9243   23.2136 C   0  0  0  0  0  0  0  0  0  0  0  0
    9.2562  -13.5968   23.0134 O   0  0  0  0  0  0  0  0  0  0  0  0
    7.6005  -13.9086   24.5605 N   0  0  0  0  0  0  0  0  0  0  0  0
    6.3259  -14.2210   25.1689 C   0  0  0  0  0  0  0  0  0  0  0  0
    6.1275  -12.9801   26.0568 C   0  0  0  0  0  0  0  0  0  0  0  0
    7.5047  -12.8784   26.6869 C   0  0  0  0  0  0  0  0  0  0  0  0
    8.4260  -13.5506   25.7270 C   0  0  1  0  0  0  0  0  0  0  0  0
    8.9066  -14.8148   26.3417 C   0  0  0  0  0  0  0  0  0  0  0  0
    8.7070  -15.9306   25.7690 O   0  0  0  0  0  0  0  0  0  0  0  0
    9.6018  -14.8300   27.5808 N   0  0  0  0  0  0  0  0  0  0  0  0
    9.4770  -13.8758   28.6691 C   0  0  0  0  0  0  0  0  0  0  0  0
   10.6664  -14.1177   29.5514 C   0  0  0  0  0  0  0  0  0  0  0  0
   11.6023  -15.0172   28.7448 C   0  0  0  0  0  0  0  0  0  0  0  0
   10.5685  -15.8237   27.9611 C   0  0  1  0  0  0  0  0  0  0  0  0
    9.9694  -16.8360   28.8907 C   0  0  0  0  0  0  0  0  0  0  0  0
    8.8079  -16.7071   29.3453 O   0  0  0  0  0  0  0  0  0  0  0  0
   10.6959  -17.9507   29.2724 O   0  0  0  0  0  0  0  0  0  0  0  0
  2  1  1  6
  2  3  1  0
  4  2  1  0
  4  5  1  6
  6  4  1  0
  6  7  2  0
  8  6  1  0
  9  8  1  0
 10 11  1  0
 10  9  1  0
 11 12  1  0
 12  8  1  0
 12 13  1  1
 13 15  1  0
 14 13  2  0
 15 19  1  0
 15 16  1  0
 16 17  1  0
 18 17  1  0
 19 20  1  1
 19 18  1  0
 20 22  1  0
 21 20  2  0
M  END
$$$$
