QFA.pdb
     RDKit          3D

 26 26  0  0  1  0  0  0  0  0999 V2000
   25.7222  -22.8605  -18.7224 N   0  0  0  0  0  0  0  0  0  0  0  0
   27.0181  -22.3316  -18.8851 C   0  0  0  0  0  0  0  0  0  0  0  0
   27.3570  -21.9413  -20.0283 O   0  0  0  0  0  0  0  0  0  0  0  0
   27.9070  -22.2625  -17.7177 C   0  0  0  0  0  0  0  0  0  0  0  0
   27.2791  -22.8316  -16.4962 C   0  0  0  0  0  0  0  0  0  0  0  0
   26.2829  -21.9657  -15.8043 C   0  0  2  0  0  0  0  0  0  0  0  0
   26.5970  -20.5829  -16.2075 N   0  0  0  0  0  0  0  0  0  0  0  0
   26.3329  -22.0726  -14.3215 C   0  0  0  0  0  0  0  0  0  0  0  0
   26.2331  -23.2096  -13.7953 O   0  0  0  0  0  0  0  0  0  0  0  0
   26.4865  -20.9665  -13.4672 N   0  0  0  0  0  0  0  0  0  0  0  0
   26.4695  -21.0388  -12.0183 C   0  0  1  0  0  0  0  0  0  0  0  0
   27.3296  -19.9101  -11.5078 C   0  0  0  0  0  0  0  0  0  0  0  0
   27.4463  -19.9456  -10.0266 C   0  0  0  0  0  0  0  0  0  0  0  0
   28.3079  -20.8269   -9.4001 C   0  0  0  0  0  0  0  0  0  0  0  0
   28.4350  -20.8798   -8.0271 C   0  0  0  0  0  0  0  0  0  0  0  0
   27.6836  -20.0316   -7.2481 C   0  0  0  0  0  0  0  0  0  0  0  0
   26.8222  -19.1477   -7.8262 C   0  0  0  0  0  0  0  0  0  0  0  0
   26.7110  -19.1119   -9.2036 C   0  0  0  0  0  0  0  0  0  0  0  0
   25.0810  -20.9752  -11.5787 C   0  0  0  0  0  0  0  0  0  0  0  0
   24.1985  -20.3696  -12.2505 O   0  0  0  0  0  0  0  0  0  0  0  0
   23.0381  -22.1453   -8.5612 C   0  0  0  0  0  0  0  0  0  0  0  0
   23.2466  -21.5468   -9.9334 C   0  0  2  0  0  0  0  0  0  0  0  0
   24.6042  -21.5824  -10.3694 N   0  0  0  0  0  0  0  0  0  0  0  0
   22.6758  -20.1753   -9.9423 C   0  0  0  0  0  0  0  0  0  0  0  0
   23.4486  -19.2023  -10.0108 O   0  0  0  0  0  0  0  0  0  0  0  0
   21.3166  -19.9517   -9.8770 O   0  0  0  0  0  0  0  0  0  0  0  0
  2  1  1  0
  3  2  2  0
  4  2  1  0
  5  4  1  0
  6  5  1  0
  6  7  1  1
  8  6  1  0
  8 10  1  0
  9  8  2  0
 11 10  1  0
 11 12  1  1
 12 13  1  0
 13 18  2  0
 13 14  1  0
 14 15  2  0
 15 16  1  0
 17 16  2  0
 18 17  1  0
 19 11  1  0
 20 19  2  0
 22 21  1  1
 22 24  1  0
 22 23  1  0
 23 19  1  0
 24 26  1  0
 25 24  2  0
M  END
$$$$
