QFA.pdb
     RDKit          3D

 26 26  0  0  1  0  0  0  0  0999 V2000
   23.9547  -19.0474  -17.3718 N   0  0  0  0  0  0  0  0  0  0  0  0
   23.0281  -19.5662  -16.4457 C   0  0  0  0  0  0  0  0  0  0  0  0
   22.3242  -18.7548  -15.7975 O   0  0  0  0  0  0  0  0  0  0  0  0
   22.9297  -21.0227  -16.2819 C   0  0  0  0  0  0  0  0  0  0  0  0
   23.4504  -21.4788  -14.9662 C   0  0  0  0  0  0  0  0  0  0  0  0
   24.8355  -21.0498  -14.6224 C   0  0  2  0  0  0  0  0  0  0  0  0
   25.7254  -21.7628  -15.5569 N   0  0  0  0  0  0  0  0  0  0  0  0
   25.2260  -21.3718  -13.2238 C   0  0  0  0  0  0  0  0  0  0  0  0
   25.3894  -22.5767  -12.9057 O   0  0  0  0  0  0  0  0  0  0  0  0
   25.4247  -20.3987  -12.2285 N   0  0  0  0  0  0  0  0  0  0  0  0
   25.8963  -20.6810  -10.8859 C   0  0  1  0  0  0  0  0  0  0  0  0
   26.9037  -19.6146  -10.5362 C   0  0  0  0  0  0  0  0  0  0  0  0
   27.3688  -19.7492   -9.1311 C   0  0  0  0  0  0  0  0  0  0  0  0
   28.4032  -20.6051   -8.8013 C   0  0  0  0  0  0  0  0  0  0  0  0
   28.8540  -20.7483   -7.5050 C   0  0  0  0  0  0  0  0  0  0  0  0
   28.2604  -20.0194   -6.5013 C   0  0  0  0  0  0  0  0  0  0  0  0
   27.2375  -19.1643   -6.7840 C   0  0  0  0  0  0  0  0  0  0  0  0
   26.8021  -19.0367   -8.0898 C   0  0  0  0  0  0  0  0  0  0  0  0
   24.7395  -20.7212   -9.9995 C   0  0  0  0  0  0  0  0  0  0  0  0
   23.8581  -19.8159  -10.0161 O   0  0  0  0  0  0  0  0  0  0  0  0
   23.0880  -23.1978   -7.6377 C   0  0  0  0  0  0  0  0  0  0  0  0
   23.3958  -21.8110   -8.1542 C   0  0  2  0  0  0  0  0  0  0  0  0
   24.5051  -21.7707   -9.0498 N   0  0  0  0  0  0  0  0  0  0  0  0
   23.5616  -20.9002   -6.9924 C   0  0  0  0  0  0  0  0  0  0  0  0
   24.6773  -20.3913   -6.7811 O   0  0  0  0  0  0  0  0  0  0  0  0
   22.5155  -20.6040   -6.1440 O   0  0  0  0  0  0  0  0  0  0  0  0
  2  1  1  0
  3  2  2  0
  4  2  1  0
  5  4  1  0
  6  5  1  0
  6  7  1  6
  8  6  1  0
  8 10  1  0
  9  8  2  0
 11 10  1  0
 11 12  1  1
 12 13  1  0
 13 18  2  0
 13 14  1  0
 14 15  2  0
 15 16  1  0
 17 16  2  0
 18 17  1  0
 19 11  1  0
 20 19  2  0
 22 21  1  1
 22 24  1  0
 22 23  1  0
 23 19  1  0
 24 26  1  0
 25 24  2  0
M  END
$$$$
