QFA.pdb
     RDKit          3D

 26 26  0  0  1  0  0  0  0  0999 V2000
   19.4875   -9.0343  -22.3788 N   0  0  0  0  0  0  0  0  0  0  0  0
   20.0413   -9.4840  -21.1636 C   0  0  0  0  0  0  0  0  0  0  0  0
   21.2258   -9.1647  -20.9011 O   0  0  0  0  0  0  0  0  0  0  0  0
   19.2130  -10.3008  -20.2666 C   0  0  0  0  0  0  0  0  0  0  0  0
   19.0473   -9.6765  -18.9276 C   0  0  0  0  0  0  0  0  0  0  0  0
   20.2028   -9.8036  -17.9951 C   0  0  2  0  0  0  0  0  0  0  0  0
   20.1344  -11.1707  -17.4474 N   0  0  0  0  0  0  0  0  0  0  0  0
   20.1747   -8.8210  -16.8788 C   0  0  0  0  0  0  0  0  0  0  0  0
   19.4629   -9.0709  -15.8734 O   0  0  0  0  0  0  0  0  0  0  0  0
   20.9040   -7.6190  -16.8827 N   0  0  0  0  0  0  0  0  0  0  0  0
   20.8881   -6.6448  -15.8078 C   0  0  1  0  0  0  0  0  0  0  0  0
   22.2900   -6.5688  -15.2571 C   0  0  0  0  0  0  0  0  0  0  0  0
   22.6890   -7.8475  -14.6136 C   0  0  0  0  0  0  0  0  0  0  0  0
   23.6952   -8.6311  -15.1475 C   0  0  0  0  0  0  0  0  0  0  0  0
   24.0845   -9.8221  -14.5696 C   0  0  0  0  0  0  0  0  0  0  0  0
   23.4564  -10.2519  -13.4243 C   0  0  0  0  0  0  0  0  0  0  0  0
   22.4595   -9.5091  -12.8657 C   0  0  0  0  0  0  0  0  0  0  0  0
   22.0857   -8.3191  -13.4617 C   0  0  0  0  0  0  0  0  0  0  0  0
   20.3909   -5.3849  -16.3468 C   0  0  0  0  0  0  0  0  0  0  0  0
   20.9074   -4.8493  -17.3682 O   0  0  0  0  0  0  0  0  0  0  0  0
   17.3496   -3.1544  -15.8131 C   0  0  0  0  0  0  0  0  0  0  0  0
   18.7236   -3.4826  -16.3509 C   0  0  2  0  0  0  0  0  0  0  0  0
   19.2937   -4.6572  -15.7767 N   0  0  0  0  0  0  0  0  0  0  0  0
   19.5907   -2.2867  -16.1934 C   0  0  0  0  0  0  0  0  0  0  0  0
   20.4345   -2.2715  -15.2790 O   0  0  0  0  0  0  0  0  0  0  0  0
   19.4862   -1.1959  -17.0307 O   0  0  0  0  0  0  0  0  0  0  0  0
  2  1  1  0
  3  2  2  0
  4  2  1  0
  5  4  1  0
  6  5  1  0
  6  7  1  1
  8  6  1  0
  8 10  1  0
  9  8  2  0
 11 10  1  0
 11 12  1  6
 12 13  1  0
 13 18  2  0
 13 14  1  0
 14 15  2  0
 15 16  1  0
 17 16  2  0
 18 17  1  0
 19 11  1  0
 20 19  2  0
 22 21  1  1
 22 24  1  0
 22 23  1  0
 23 19  1  0
 24 26  1  0
 25 24  2  0
M  END
$$$$
