QFA.pdb
     RDKit          3D

 26 26  0  0  1  0  0  0  0  0999 V2000
   27.5150  -18.4645  -17.6319 N   0  0  0  0  0  0  0  0  0  0  0  0
   28.3094  -17.5440  -16.9198 C   0  0  0  0  0  0  0  0  0  0  0  0
   28.9892  -16.7192  -17.5768 O   0  0  0  0  0  0  0  0  0  0  0  0
   28.3062  -17.5921  -15.4517 C   0  0  0  0  0  0  0  0  0  0  0  0
   27.4024  -18.6479  -14.9239 C   0  0  0  0  0  0  0  0  0  0  0  0
   27.9317  -19.4624  -13.7938 C   0  0  2  0  0  0  0  0  0  0  0  0
   28.9972  -20.3061  -14.3652 N   0  0  0  0  0  0  0  0  0  0  0  0
   26.9046  -20.3275  -13.1542 C   0  0  0  0  0  0  0  0  0  0  0  0
   26.6865  -21.4654  -13.6415 O   0  0  0  0  0  0  0  0  0  0  0  0
   26.1573  -19.9433  -12.0270 N   0  0  0  0  0  0  0  0  0  0  0  0
   25.1819  -20.7862  -11.3615 C   0  0  1  0  0  0  0  0  0  0  0  0
   25.1197  -20.3414   -9.9219 C   0  0  0  0  0  0  0  0  0  0  0  0
   26.4312  -20.5146   -9.2446 C   0  0  0  0  0  0  0  0  0  0  0  0
   26.7357  -19.8164   -8.0909 C   0  0  0  0  0  0  0  0  0  0  0  0
   27.9456  -19.9592   -7.4429 C   0  0  0  0  0  0  0  0  0  0  0  0
   28.8857  -20.8224   -7.9545 C   0  0  0  0  0  0  0  0  0  0  0  0
   28.6252  -21.5298   -9.0899 C   0  0  0  0  0  0  0  0  0  0  0  0
   27.4064  -21.3711   -9.7227 C   0  0  0  0  0  0  0  0  0  0  0  0
   23.9174  -20.6661  -12.0771 C   0  0  0  0  0  0  0  0  0  0  0  0
   23.3384  -19.5521  -12.2204 O   0  0  0  0  0  0  0  0  0  0  0  0
   21.6138  -22.9258  -14.1192 C   0  0  0  0  0  0  0  0  0  0  0  0
   21.9702  -21.6897  -13.3258 C   0  0  2  0  0  0  0  0  0  0  0  0
   23.2333  -21.7795  -12.6694 N   0  0  0  0  0  0  0  0  0  0  0  0
   20.8559  -21.3915  -12.3897 C   0  0  0  0  0  0  0  0  0  0  0  0
   19.7743  -20.9849  -12.8518 O   0  0  0  0  0  0  0  0  0  0  0  0
   20.9869  -21.5526  -11.0264 O   0  0  0  0  0  0  0  0  0  0  0  0
  2  1  1  0
  3  2  2  0
  4  2  1  0
  5  4  1  0
  6  5  1  0
  6  7  1  6
  8  6  1  0
  8 10  1  0
  9  8  2  0
 11 10  1  0
 11 12  1  1
 12 13  1  0
 13 18  2  0
 13 14  1  0
 14 15  2  0
 15 16  1  0
 17 16  2  0
 18 17  1  0
 19 11  1  0
 20 19  2  0
 22 21  1  1
 22 24  1  0
 22 23  1  0
 23 19  1  0
 24 26  1  0
 25 24  2  0
M  END
$$$$
