QFA.pdb
     RDKit          3D

 26 26  0  0  1  0  0  0  0  0999 V2000
   24.5798  -16.7958  -18.4839 N   0  0  0  0  0  0  0  0  0  0  0  0
   24.7871  -17.1003  -19.8440 C   0  0  0  0  0  0  0  0  0  0  0  0
   24.9675  -16.1483  -20.6410 O   0  0  0  0  0  0  0  0  0  0  0  0
   24.7818  -18.5079  -20.2638 C   0  0  0  0  0  0  0  0  0  0  0  0
   24.5819  -19.4368  -19.1204 C   0  0  0  0  0  0  0  0  0  0  0  0
   25.8084  -19.8329  -18.3725 C   0  0  2  0  0  0  0  0  0  0  0  0
   26.5288  -20.7782  -19.2449 N   0  0  0  0  0  0  0  0  0  0  0  0
   25.5220  -20.4843  -17.0663 C   0  0  0  0  0  0  0  0  0  0  0  0
   25.4095  -21.7356  -17.0285 O   0  0  0  0  0  0  0  0  0  0  0  0
   25.3685  -19.7760  -15.8615 N   0  0  0  0  0  0  0  0  0  0  0  0
   25.0440  -20.3856  -14.5856 C   0  0  1  0  0  0  0  0  0  0  0  0
   25.8631  -19.6786  -13.5351 C   0  0  0  0  0  0  0  0  0  0  0  0
   25.5216  -20.1565  -12.1700 C   0  0  0  0  0  0  0  0  0  0  0  0
   26.1122  -21.2899  -11.6427 C   0  0  0  0  0  0  0  0  0  0  0  0
   25.8127  -21.7545  -10.3783 C   0  0  0  0  0  0  0  0  0  0  0  0
   24.8976  -21.0739   -9.6101 C   0  0  0  0  0  0  0  0  0  0  0  0
   24.2926  -19.9520  -10.0925 C   0  0  0  0  0  0  0  0  0  0  0  0
   24.6077  -19.5045  -11.3619 C   0  0  0  0  0  0  0  0  0  0  0  0
   23.6035  -20.2809  -14.3878 C   0  0  0  0  0  0  0  0  0  0  0  0
   23.0079  -19.1668  -14.4183 O   0  0  0  0  0  0  0  0  0  0  0  0
   20.6355  -22.6562  -14.0764 C   0  0  0  0  0  0  0  0  0  0  0  0
   21.3430  -21.3268  -13.9465 C   0  0  2  0  0  0  0  0  0  0  0  0
   22.7527  -21.4107  -14.1462 N   0  0  0  0  0  0  0  0  0  0  0  0
   20.9826  -20.7259  -12.6366 C   0  0  0  0  0  0  0  0  0  0  0  0
   21.8690  -20.5861  -11.7744 O   0  0  0  0  0  0  0  0  0  0  0  0
   19.6961  -20.3197  -12.3508 O   0  0  0  0  0  0  0  0  0  0  0  0
  2  1  1  0
  3  2  2  0
  4  2  1  0
  5  4  1  0
  6  5  1  0
  6  7  1  6
  8  6  1  0
  8 10  1  0
  9  8  2  0
 11 10  1  0
 11 12  1  1
 12 13  1  0
 13 18  2  0
 13 14  1  0
 14 15  2  0
 15 16  1  0
 17 16  2  0
 18 17  1  0
 19 11  1  0
 20 19  2  0
 22 21  1  1
 22 24  1  0
 22 23  1  0
 23 19  1  0
 24 26  1  0
 25 24  2  0
M  END
$$$$
