QFA.pdb
     RDKit          3D

 26 26  0  0  1  0  0  0  0  0999 V2000
   38.0123  -30.6128    1.0165 N   0  0  0  0  0  0  0  0  0  0  0  0
   37.7585  -31.4578    2.1152 C   0  0  0  0  0  0  0  0  0  0  0  0
   38.1546  -32.6464    2.0494 O   0  0  0  0  0  0  0  0  0  0  0  0
   37.0465  -30.9128    3.2787 C   0  0  0  0  0  0  0  0  0  0  0  0
   36.7184  -29.4720    3.1152 C   0  0  0  0  0  0  0  0  0  0  0  0
   35.3700  -29.0469    3.5862 C   0  0  2  0  0  0  0  0  0  0  0  0
   34.4145  -29.5305    2.5729 N   0  0  0  0  0  0  0  0  0  0  0  0
   35.2310  -27.5734    3.7345 C   0  0  0  0  0  0  0  0  0  0  0  0
   35.0436  -26.8788    2.7038 O   0  0  0  0  0  0  0  0  0  0  0  0
   35.2976  -26.9068    4.9706 N   0  0  0  0  0  0  0  0  0  0  0  0
   35.1778  -25.4706    5.1371 C   0  0  1  0  0  0  0  0  0  0  0  0
   33.8023  -25.2019    5.6941 C   0  0  0  0  0  0  0  0  0  0  0  0
   33.2715  -23.8973    5.2198 C   0  0  0  0  0  0  0  0  0  0  0  0
   32.7265  -23.7661    3.9560 C   0  0  0  0  0  0  0  0  0  0  0  0
   32.2270  -22.5666    3.4917 C   0  0  0  0  0  0  0  0  0  0  0  0
   32.2685  -21.4595    4.3062 C   0  0  0  0  0  0  0  0  0  0  0  0
   32.7975  -21.5460    5.5592 C   0  0  0  0  0  0  0  0  0  0  0  0
   33.2923  -22.7579    6.0037 C   0  0  0  0  0  0  0  0  0  0  0  0
   36.2664  -25.0227    5.9970 C   0  0  0  0  0  0  0  0  0  0  0  0
   36.4340  -25.4949    7.1571 O   0  0  0  0  0  0  0  0  0  0  0  0
   39.3162  -22.7431    5.7215 C   0  0  0  0  0  0  0  0  0  0  0  0
   38.2605  -23.5360    6.4573 C   0  0  2  0  0  0  0  0  0  0  0  0
   37.2237  -24.0268    5.6096 N   0  0  0  0  0  0  0  0  0  0  0  0
   37.7437  -22.7087    7.5777 C   0  0  0  0  0  0  0  0  0  0  0  0
   36.5374  -22.4037    7.5939 O   0  0  0  0  0  0  0  0  0  0  0  0
   38.5621  -22.2708    8.5976 O   0  0  0  0  0  0  0  0  0  0  0  0
  2  1  1  0
  3  2  2  0
  4  2  1  0
  5  4  1  0
  6  5  1  0
  6  7  1  6
  8  6  1  0
  8 10  1  0
  9  8  2  0
 11 10  1  0
 11 12  1  1
 12 13  1  0
 13 18  2  0
 13 14  1  0
 14 15  2  0
 15 16  1  0
 17 16  2  0
 18 17  1  0
 19 11  1  0
 20 19  2  0
 22 21  1  6
 22 24  1  0
 22 23  1  0
 23 19  1  0
 24 26  1  0
 25 24  2  0
M  END
$$$$
