QFA.pdb
     RDKit          3D

 26 26  0  0  1  0  0  0  0  0999 V2000
   25.9768  -41.4389   -7.0071 N   0  0  0  0  0  0  0  0  0  0  0  0
   24.6667  -41.0083   -7.2964 C   0  0  0  0  0  0  0  0  0  0  0  0
   23.8432  -41.8602   -7.7091 O   0  0  0  0  0  0  0  0  0  0  0  0
   24.3273  -39.5922   -7.1037 C   0  0  0  0  0  0  0  0  0  0  0  0
   25.4790  -38.8000   -6.5976 C   0  0  0  0  0  0  0  0  0  0  0  0
   25.4928  -37.3545   -6.9596 C   0  0  2  0  0  0  0  0  0  0  0  0
   25.8688  -37.2960   -8.3840 N   0  0  0  0  0  0  0  0  0  0  0  0
   26.4566  -36.5521   -6.1598 C   0  0  0  0  0  0  0  0  0  0  0  0
   27.6784  -36.6148   -6.4481 O   0  0  0  0  0  0  0  0  0  0  0  0
   26.0774  -35.7207   -5.0913 N   0  0  0  0  0  0  0  0  0  0  0  0
   26.9694  -34.8034   -4.4074 C   0  0  1  0  0  0  0  0  0  0  0  0
   26.3716  -33.4248   -4.5357 C   0  0  0  0  0  0  0  0  0  0  0  0
   26.3665  -32.9663   -5.9493 C   0  0  0  0  0  0  0  0  0  0  0  0
   25.2159  -32.4712   -6.5343 C   0  0  0  0  0  0  0  0  0  0  0  0
   25.1845  -32.0391   -7.8444 C   0  0  0  0  0  0  0  0  0  0  0  0
   26.3312  -32.0993   -8.6009 C   0  0  0  0  0  0  0  0  0  0  0  0
   27.4869  -32.5807   -8.0622 C   0  0  0  0  0  0  0  0  0  0  0  0
   27.4953  -33.0082   -6.7476 C   0  0  0  0  0  0  0  0  0  0  0  0
   27.1207  -35.2612   -3.0316 C   0  0  0  0  0  0  0  0  0  0  0  0
   26.1214  -35.5465   -2.3127 O   0  0  0  0  0  0  0  0  0  0  0  0
   29.9990  -36.1057   -0.6567 C   0  0  0  0  0  0  0  0  0  0  0  0
   28.5579  -35.8530   -1.0359 C   0  0  2  0  0  0  0  0  0  0  0  0
   28.3916  -35.4248   -2.3862 N   0  0  0  0  0  0  0  0  0  0  0  0
   27.9708  -34.9039   -0.0554 C   0  0  0  0  0  0  0  0  0  0  0  0
   27.9900  -35.1989    1.1534 O   0  0  0  0  0  0  0  0  0  0  0  0
   27.4067  -33.7080   -0.4472 O   0  0  0  0  0  0  0  0  0  0  0  0
  2  1  1  0
  3  2  2  0
  4  2  1  0
  5  4  1  0
  6  5  1  0
  6  7  1  6
  8  6  1  0
  8 10  1  0
  9  8  2  0
 11 10  1  0
 11 12  1  1
 12 13  1  0
 13 18  2  0
 13 14  1  0
 14 15  2  0
 15 16  1  0
 17 16  2  0
 18 17  1  0
 19 11  1  0
 20 19  2  0
 22 21  1  1
 22 24  1  0
 22 23  1  0
 23 19  1  0
 24 26  1  0
 25 24  2  0
M  END
$$$$
