QFA.pdb
     RDKit          3D

 26 26  0  0  1  0  0  0  0  0999 V2000
   19.3404   -9.2293  -13.5697 N   0  0  0  0  0  0  0  0  0  0  0  0
   18.8584  -10.1497  -14.5216 C   0  0  0  0  0  0  0  0  0  0  0  0
   19.6728  -10.9630  -15.0210 O   0  0  0  0  0  0  0  0  0  0  0  0
   17.4353  -10.1149  -14.8837 C   0  0  0  0  0  0  0  0  0  0  0  0
   16.6904   -9.0629  -14.1430 C   0  0  0  0  0  0  0  0  0  0  0  0
   16.0908   -9.4739  -12.8421 C   0  0  2  0  0  0  0  0  0  0  0  0
   14.9406  -10.3328  -13.1782 N   0  0  0  0  0  0  0  0  0  0  0  0
   15.6278   -8.3281  -12.0142 C   0  0  0  0  0  0  0  0  0  0  0  0
   14.5011   -7.8261  -12.2558 O   0  0  0  0  0  0  0  0  0  0  0  0
   16.3835   -7.7692  -10.9685 N   0  0  0  0  0  0  0  0  0  0  0  0
   15.9687   -6.6286  -10.1736 C   0  0  1  0  0  0  0  0  0  0  0  0
   15.9612   -7.0716   -8.7322 C   0  0  0  0  0  0  0  0  0  0  0  0
   14.6204   -7.5663   -8.3247 C   0  0  0  0  0  0  0  0  0  0  0  0
   14.2777   -8.8980   -8.4682 C   0  0  0  0  0  0  0  0  0  0  0  0
   13.0400   -9.3827   -8.0977 C   0  0  0  0  0  0  0  0  0  0  0  0
   12.1101   -8.5197   -7.5673 C   0  0  0  0  0  0  0  0  0  0  0  0
   12.4079   -7.1992   -7.4091 C   0  0  0  0  0  0  0  0  0  0  0  0
   13.6541   -6.7354   -7.7870 C   0  0  0  0  0  0  0  0  0  0  0  0
   16.8813   -5.5267  -10.4534 C   0  0  0  0  0  0  0  0  0  0  0  0
   18.0391   -5.7250  -10.9192 O   0  0  0  0  0  0  0  0  0  0  0  0
   16.9211   -3.2284  -12.4774 C   0  0  0  0  0  0  0  0  0  0  0  0
   17.0839   -3.0618  -10.9840 C   0  0  2  0  0  0  0  0  0  0  0  0
   16.5517   -4.1485  -10.2289 N   0  0  0  0  0  0  0  0  0  0  0  0
   16.5075   -1.7508  -10.5893 C   0  0  0  0  0  0  0  0  0  0  0  0
   15.4455   -1.7311   -9.9408 O   0  0  0  0  0  0  0  0  0  0  0  0
   17.1154   -0.5582  -10.9210 O   0  0  0  0  0  0  0  0  0  0  0  0
  2  1  1  0
  3  2  2  0
  4  2  1  0
  5  4  1  0
  6  5  1  0
  6  7  1  6
  8  6  1  0
  8 10  1  0
  9  8  2  0
 11 10  1  0
 11 12  1  1
 12 13  1  0
 13 18  2  0
 13 14  1  0
 14 15  2  0
 15 16  1  0
 17 16  2  0
 18 17  1  0
 19 11  1  0
 20 19  2  0
 22 21  1  6
 22 24  1  0
 22 23  1  0
 23 19  1  0
 24 26  1  0
 25 24  2  0
M  END
$$$$
