QFA.pdb
     RDKit          3D

 26 26  0  0  1  0  0  0  0  0999 V2000
   27.6814  -20.2389  -17.1932 N   0  0  0  0  0  0  0  0  0  0  0  0
   26.3794  -20.5017  -17.6636 C   0  0  0  0  0  0  0  0  0  0  0  0
   25.6702  -19.5274  -18.0126 O   0  0  0  0  0  0  0  0  0  0  0  0
   25.9148  -21.8939  -17.7227 C   0  0  0  0  0  0  0  0  0  0  0  0
   24.8520  -22.1769  -16.7223 C   0  0  0  0  0  0  0  0  0  0  0  0
   25.2353  -22.0138  -15.2915 C   0  0  2  0  0  0  0  0  0  0  0  0
   26.1676  -23.1160  -14.9925 N   0  0  0  0  0  0  0  0  0  0  0  0
   24.0795  -22.0758  -14.3573 C   0  0  0  0  0  0  0  0  0  0  0  0
   23.6411  -23.2028  -14.0145 O   0  0  0  0  0  0  0  0  0  0  0  0
   23.4435  -20.9377  -13.8310 N   0  0  0  0  0  0  0  0  0  0  0  0
   22.4004  -20.9715  -12.8232 C   0  0  1  0  0  0  0  0  0  0  0  0
   22.6498  -19.8153  -11.8876 C   0  0  0  0  0  0  0  0  0  0  0  0
   23.5867  -20.1931  -10.7977 C   0  0  0  0  0  0  0  0  0  0  0  0
   24.9555  -20.1064  -10.9719 C   0  0  0  0  0  0  0  0  0  0  0  0
   25.8466  -20.4509   -9.9762 C   0  0  0  0  0  0  0  0  0  0  0  0
   25.3662  -20.8962   -8.7671 C   0  0  0  0  0  0  0  0  0  0  0  0
   24.0237  -20.9963   -8.5544 C   0  0  0  0  0  0  0  0  0  0  0  0
   23.1492  -20.6458   -9.5661 C   0  0  0  0  0  0  0  0  0  0  0  0
   21.1123  -20.9199  -13.5038 C   0  0  0  0  0  0  0  0  0  0  0  0
   20.8552  -20.0398  -14.3734 O   0  0  0  0  0  0  0  0  0  0  0  0
   18.0250  -23.1129  -13.8433 C   0  0  0  0  0  0  0  0  0  0  0  0
   18.7740  -21.8012  -13.8970 C   0  0  2  0  0  0  0  0  0  0  0  0
   20.0450  -21.8449  -13.2512 N   0  0  0  0  0  0  0  0  0  0  0  0
   17.8932  -20.7318  -13.3608 C   0  0  0  0  0  0  0  0  0  0  0  0
   18.0948  -20.3077  -12.2084 O   0  0  0  0  0  0  0  0  0  0  0  0
   16.8611  -20.1979  -14.1033 O   0  0  0  0  0  0  0  0  0  0  0  0
  2  1  1  0
  3  2  2  0
  4  2  1  0
  5  4  1  0
  6  5  1  0
  6  7  1  1
  8  6  1  0
  8 10  1  0
  9  8  2  0
 11 10  1  0
 11 12  1  1
 12 13  1  0
 13 18  2  0
 13 14  1  0
 14 15  2  0
 15 16  1  0
 17 16  2  0
 18 17  1  0
 19 11  1  0
 20 19  2  0
 22 21  1  1
 22 24  1  0
 22 23  1  0
 23 19  1  0
 24 26  1  0
 25 24  2  0
M  END
$$$$
