QFA.pdb
     RDKit          3D

 26 26  0  0  1  0  0  0  0  0999 V2000
   18.3014  -20.5701  -13.2573 N   0  0  0  0  0  0  0  0  0  0  0  0
   18.3150  -21.7878  -12.5485 C   0  0  0  0  0  0  0  0  0  0  0  0
   17.2584  -22.4636  -12.5162 O   0  0  0  0  0  0  0  0  0  0  0  0
   19.5559  -22.2072  -11.8838 C   0  0  0  0  0  0  0  0  0  0  0  0
   20.6439  -21.2055  -12.0366 C   0  0  0  0  0  0  0  0  0  0  0  0
   21.4414  -21.2870  -13.2928 C   0  0  2  0  0  0  0  0  0  0  0  0
   21.7765  -22.7118  -13.4696 N   0  0  0  0  0  0  0  0  0  0  0  0
   22.6934  -20.4850  -13.2534 C   0  0  0  0  0  0  0  0  0  0  0  0
   22.6258  -19.2783  -12.9084 O   0  0  0  0  0  0  0  0  0  0  0  0
   23.9587  -21.0025  -13.5823 N   0  0  0  0  0  0  0  0  0  0  0  0
   25.1873  -20.2310  -13.5820 C   0  0  1  0  0  0  0  0  0  0  0  0
   26.1660  -20.9557  -12.6925 C   0  0  0  0  0  0  0  0  0  0  0  0
   25.8406  -20.7584  -11.2559 C   0  0  0  0  0  0  0  0  0  0  0  0
   26.2304  -19.6128  -10.5873 C   0  0  0  0  0  0  0  0  0  0  0  0
   25.9409  -19.4052   -9.2541 C   0  0  0  0  0  0  0  0  0  0  0  0
   25.2420  -20.3643   -8.5596 C   0  0  0  0  0  0  0  0  0  0  0  0
   24.8392  -21.5081   -9.1815 C   0  0  0  0  0  0  0  0  0  0  0  0
   25.1401  -21.6951  -10.5177 C   0  0  0  0  0  0  0  0  0  0  0  0
   25.6313  -20.0873  -14.9632 C   0  0  0  0  0  0  0  0  0  0  0  0
   26.1307  -21.0549  -15.6045 O   0  0  0  0  0  0  0  0  0  0  0  0
   24.6666  -18.3049  -17.9286 C   0  0  0  0  0  0  0  0  0  0  0  0
   25.8479  -18.7317  -17.0878 C   0  0  2  0  0  0  0  0  0  0  0  0
   25.5421  -18.8598  -15.7005 N   0  0  0  0  0  0  0  0  0  0  0  0
   26.9730  -17.7963  -17.3444 C   0  0  0  0  0  0  0  0  0  0  0  0
   27.5417  -17.8283  -18.4508 O   0  0  0  0  0  0  0  0  0  0  0  0
   27.4034  -16.8960  -16.3926 O   0  0  0  0  0  0  0  0  0  0  0  0
  2  1  1  0
  3  2  2  0
  4  2  1  0
  5  4  1  0
  6  5  1  0
  6  7  1  1
  8  6  1  0
  8 10  1  0
  9  8  2  0
 11 10  1  0
 11 12  1  1
 12 13  1  0
 13 18  2  0
 13 14  1  0
 14 15  2  0
 15 16  1  0
 17 16  2  0
 18 17  1  0
 19 11  1  0
 20 19  2  0
 22 21  1  6
 22 24  1  0
 22 23  1  0
 23 19  1  0
 24 26  1  0
 25 24  2  0
M  END
$$$$
