QFA.pdb
     RDKit          3D

 26 26  0  0  1  0  0  0  0  0999 V2000
   31.2706  -38.8736   -9.2768 N   0  0  0  0  0  0  0  0  0  0  0  0
   32.2699  -39.8021   -9.6302 C   0  0  0  0  0  0  0  0  0  0  0  0
   32.1709  -40.3826  -10.7380 O   0  0  0  0  0  0  0  0  0  0  0  0
   33.3734  -40.0468   -8.6921 C   0  0  0  0  0  0  0  0  0  0  0  0
   33.2553  -39.2286   -7.4564 C   0  0  0  0  0  0  0  0  0  0  0  0
   33.6080  -37.7866   -7.5862 C   0  0  2  0  0  0  0  0  0  0  0  0
   35.0654  -37.7428   -7.8046 N   0  0  0  0  0  0  0  0  0  0  0  0
   33.2630  -36.9813   -6.3841 C   0  0  0  0  0  0  0  0  0  0  0  0
   34.1708  -36.7136   -5.5570 O   0  0  0  0  0  0  0  0  0  0  0  0
   31.9700  -36.4981   -6.1170 N   0  0  0  0  0  0  0  0  0  0  0  0
   31.6151  -35.6960   -4.9614 C   0  0  1  0  0  0  0  0  0  0  0  0
   31.2718  -34.3173   -5.4669 C   0  0  0  0  0  0  0  0  0  0  0  0
   32.4904  -33.5719   -5.8767 C   0  0  0  0  0  0  0  0  0  0  0  0
   32.7999  -33.3901   -7.2118 C   0  0  0  0  0  0  0  0  0  0  0  0
   33.9247  -32.7021   -7.6187 C   0  0  0  0  0  0  0  0  0  0  0  0
   34.7718  -32.1765   -6.6716 C   0  0  0  0  0  0  0  0  0  0  0  0
   34.5032  -32.3333   -5.3447 C   0  0  0  0  0  0  0  0  0  0  0  0
   33.3705  -33.0261   -4.9598 C   0  0  0  0  0  0  0  0  0  0  0  0
   30.5223  -36.3643   -4.2655 C   0  0  0  0  0  0  0  0  0  0  0  0
   29.5137  -36.8083   -4.8839 O   0  0  0  0  0  0  0  0  0  0  0  0
   29.8379  -37.6960   -0.7622 C   0  0  0  0  0  0  0  0  0  0  0  0
   29.4486  -37.2465   -2.1518 C   0  0  2  0  0  0  0  0  0  0  0  0
   30.4964  -36.5725   -2.8462 N   0  0  0  0  0  0  0  0  0  0  0  0
   28.2079  -36.4352   -2.0557 C   0  0  0  0  0  0  0  0  0  0  0  0
   27.5340  -36.2422   -3.0839 O   0  0  0  0  0  0  0  0  0  0  0  0
   27.7837  -35.8917   -0.8613 O   0  0  0  0  0  0  0  0  0  0  0  0
  2  1  1  0
  3  2  2  0
  4  2  1  0
  5  4  1  0
  6  5  1  0
  6  7  1  1
  8  6  1  0
  8 10  1  0
  9  8  2  0
 11 10  1  0
 11 12  1  6
 12 13  1  0
 13 18  2  0
 13 14  1  0
 14 15  2  0
 15 16  1  0
 17 16  2  0
 18 17  1  0
 19 11  1  0
 20 19  2  0
 22 21  1  1
 22 24  1  0
 22 23  1  0
 23 19  1  0
 24 26  1  0
 25 24  2  0
M  END
$$$$
