QFA.pdb
     RDKit          3D

 26 26  0  0  1  0  0  0  0  0999 V2000
   20.2513  -14.7716  -16.9711 N   0  0  0  0  0  0  0  0  0  0  0  0
   20.4349  -14.6525  -18.3631 C   0  0  0  0  0  0  0  0  0  0  0  0
   20.0791  -15.6116  -19.0895 O   0  0  0  0  0  0  0  0  0  0  0  0
   21.0306  -13.4203  -18.8964 C   0  0  0  0  0  0  0  0  0  0  0  0
   21.2501  -12.3970  -17.8405 C   0  0  0  0  0  0  0  0  0  0  0  0
   22.5360  -11.6468  -17.9087 C   0  0  2  0  0  0  0  0  0  0  0  0
   23.5934  -12.6233  -17.5893 N   0  0  0  0  0  0  0  0  0  0  0  0
   22.6093  -10.5079  -16.9549 C   0  0  0  0  0  0  0  0  0  0  0  0
   22.4130  -10.7307  -15.7335 O   0  0  0  0  0  0  0  0  0  0  0  0
   22.8878   -9.1855  -17.3430 N   0  0  0  0  0  0  0  0  0  0  0  0
   22.9431   -8.0565  -16.4336 C   0  0  1  0  0  0  0  0  0  0  0  0
   24.3230   -7.4597  -16.5508 C   0  0  0  0  0  0  0  0  0  0  0  0
   25.3665   -8.4146  -16.0949 C   0  0  0  0  0  0  0  0  0  0  0  0
   26.4875   -8.6666  -16.8637 C   0  0  0  0  0  0  0  0  0  0  0  0
   27.4706   -9.5483  -16.4634 C   0  0  0  0  0  0  0  0  0  0  0  0
   27.3393  -10.2026  -15.2611 C   0  0  0  0  0  0  0  0  0  0  0  0
   26.2494   -9.9826  -14.4730 C   0  0  0  0  0  0  0  0  0  0  0  0
   25.2767   -9.0950  -14.8939 C   0  0  0  0  0  0  0  0  0  0  0  0
   21.8657   -7.1395  -16.7851 C   0  0  0  0  0  0  0  0  0  0  0  0
   21.8728   -6.4908  -17.8695 O   0  0  0  0  0  0  0  0  0  0  0  0
   18.4384   -6.1398  -15.4673 C   0  0  0  0  0  0  0  0  0  0  0  0
   19.7363   -5.9036  -16.2050 C   0  0  2  0  0  0  0  0  0  0  0  0
   20.7260   -6.8980  -15.9479 N   0  0  0  0  0  0  0  0  0  0  0  0
   20.2097   -4.5290  -15.8999 C   0  0  0  0  0  0  0  0  0  0  0  0
   19.4625   -3.5658  -16.1500 O   0  0  0  0  0  0  0  0  0  0  0  0
   21.4514   -4.2918  -15.3486 O   0  0  0  0  0  0  0  0  0  0  0  0
  2  1  1  0
  3  2  2  0
  4  2  1  0
  5  4  1  0
  6  5  1  0
  6  7  1  1
  8  6  1  0
  8 10  1  0
  9  8  2  0
 11 10  1  0
 11 12  1  6
 12 13  1  0
 13 18  2  0
 13 14  1  0
 14 15  2  0
 15 16  1  0
 17 16  2  0
 18 17  1  0
 19 11  1  0
 20 19  2  0
 22 21  1  1
 22 24  1  0
 22 23  1  0
 23 19  1  0
 24 26  1  0
 25 24  2  0
M  END
$$$$
