LFP.pdb
     RDKit          3D

 27 28  0  0  1  0  0  0  0  0999 V2000
   21.7711  -20.7600  -13.1295 C   0  0  0  0  0  0  0  0  0  0  0  0
   23.2722  -20.5931  -13.2646 C   0  0  1  0  0  0  0  0  0  0  0  0
   23.5322  -19.1197  -13.5285 C   0  0  0  0  0  0  0  0  0  0  0  0
   23.9294  -20.9313  -11.9545 C   0  0  0  0  0  0  0  0  0  0  0  0
   25.4270  -20.7306  -11.9805 C   0  0  2  0  0  0  0  0  0  0  0  0
   26.0729  -21.4309  -13.0401 N   0  0  0  0  0  0  0  0  0  0  0  0
   25.9499  -21.0317  -10.6452 C   0  0  0  0  0  0  0  0  0  0  0  0
   26.0975  -22.2334  -10.3045 O   0  0  0  0  0  0  0  0  0  0  0  0
   26.3065  -20.0411   -9.6959 N   0  0  0  0  0  0  0  0  0  0  0  0
   26.8443  -20.4227   -8.3467 C   0  0  1  0  0  0  0  0  0  0  0  0
   27.6878  -19.2100   -7.9185 C   0  0  0  0  0  0  0  0  0  0  0  0
   28.3615  -19.2674   -6.6601 C   0  0  0  0  0  0  0  0  0  0  0  0
   28.0591  -18.4226   -5.6187 C   0  0  0  0  0  0  0  0  0  0  0  0
   28.6904  -18.5319   -4.3797 C   0  0  0  0  0  0  0  0  0  0  0  0
   29.6388  -19.4967   -4.1701 C   0  0  0  0  0  0  0  0  0  0  0  0
   29.9738  -20.3720   -5.2010 C   0  0  0  0  0  0  0  0  0  0  0  0
   29.3278  -20.2399   -6.4286 C   0  0  0  0  0  0  0  0  0  0  0  0
   25.7125  -20.6058   -7.4179 C   0  0  0  0  0  0  0  0  0  0  0  0
   24.8377  -19.6690   -7.4786 O   0  0  0  0  0  0  0  0  0  0  0  0
   25.5510  -21.6994   -6.5245 N   0  0  0  0  0  0  0  0  0  0  0  0
   26.3484  -22.8950   -6.6039 C   0  0  0  0  0  0  0  0  0  0  0  0
   26.6696  -23.2399   -5.1837 C   0  0  0  0  0  0  0  0  0  0  0  0
   25.7041  -22.3995   -4.3788 C   0  0  0  0  0  0  0  0  0  0  0  0
   24.6870  -21.9546   -5.4516 C   0  0  1  0  0  0  0  0  0  0  0  0
   23.7106  -21.0450   -4.9731 C   0  0  0  0  0  0  0  0  0  0  0  0
   22.5622  -21.5714   -4.7016 O   0  0  0  0  0  0  0  0  0  0  0  0
   23.7178  -19.7017   -4.7302 O   0  0  0  0  0  0  0  0  0  0  0  0
  2  1  1  1
  3  2  1  0
  4  2  1  0
  5  4  1  0
  5  6  1  6
  7  8  2  0
  7  5  1  0
  9  7  1  0
 10  9  1  0
 10 11  1  1
 11 12  1  0
 12 17  1  0
 12 13  2  0
 13 14  1  0
 14 15  2  0
 16 15  1  0
 17 16  2  0
 18 10  1  0
 19 18  2  0
 20 21  1  0
 20 18  1  0
 22 21  1  0
 23 24  1  0
 23 22  1  0
 24 20  1  0
 25 27  1  0
 24 25  1  1
 26 25  2  0
M  END
$$$$
