LFP.pdb
     RDKit          3D

 27 28  0  0  1  0  0  0  0  0999 V2000
   29.9408  -21.1534   -9.9423 C   0  0  0  0  0  0  0  0  0  0  0  0
   29.6268  -20.9431  -11.4109 C   0  0  1  0  0  0  0  0  0  0  0  0
   29.7441  -22.2983  -12.0875 C   0  0  0  0  0  0  0  0  0  0  0  0
   28.1969  -20.4985  -11.5543 C   0  0  0  0  0  0  0  0  0  0  0  0
   27.8280  -20.1601  -12.9801 C   0  0  2  0  0  0  0  0  0  0  0  0
   28.7342  -19.2502  -13.5977 N   0  0  0  0  0  0  0  0  0  0  0  0
   26.4275  -19.7297  -12.9981 C   0  0  0  0  0  0  0  0  0  0  0  0
   26.1442  -18.5595  -12.6344 O   0  0  0  0  0  0  0  0  0  0  0  0
   25.3525  -20.5593  -13.4053 N   0  0  0  0  0  0  0  0  0  0  0  0
   23.9444  -20.0384  -13.4371 C   0  0  1  0  0  0  0  0  0  0  0  0
   23.6831  -19.7437  -14.9238 C   0  0  0  0  0  0  0  0  0  0  0  0
   22.3967  -19.2470  -15.2971 C   0  0  0  0  0  0  0  0  0  0  0  0
   21.3932  -20.0640  -15.7609 C   0  0  0  0  0  0  0  0  0  0  0  0
   20.1265  -19.5667  -16.0672 C   0  0  0  0  0  0  0  0  0  0  0  0
   19.8505  -18.2350  -15.9108 C   0  0  0  0  0  0  0  0  0  0  0  0
   20.8414  -17.3741  -15.4438 C   0  0  0  0  0  0  0  0  0  0  0  0
   22.0980  -17.8976  -15.1458 C   0  0  0  0  0  0  0  0  0  0  0  0
   23.0343  -21.0989  -12.9634 C   0  0  0  0  0  0  0  0  0  0  0  0
   23.0180  -22.1392  -13.7145 O   0  0  0  0  0  0  0  0  0  0  0  0
   22.2340  -21.0320  -11.7907 N   0  0  0  0  0  0  0  0  0  0  0  0
   22.6286  -20.2954  -10.6189 C   0  0  0  0  0  0  0  0  0  0  0  0
   21.3798  -19.6171  -10.1504 C   0  0  0  0  0  0  0  0  0  0  0  0
   20.2767  -20.3296  -10.9000 C   0  0  0  0  0  0  0  0  0  0  0  0
   21.0005  -21.5874  -11.4264 C   0  0  1  0  0  0  0  0  0  0  0  0
   20.2019  -22.3952  -12.2745 C   0  0  0  0  0  0  0  0  0  0  0  0
   20.0907  -21.9669  -13.4886 O   0  0  0  0  0  0  0  0  0  0  0  0
   19.5074  -23.5551  -12.0852 O   0  0  0  0  0  0  0  0  0  0  0  0
  2  1  1  1
  3  2  1  0
  4  2  1  0
  5  4  1  0
  5  6  1  1
  7  8  2  0
  7  5  1  0
  9  7  1  0
 10  9  1  0
 10 11  1  6
 11 12  1  0
 12 17  1  0
 12 13  2  0
 13 14  1  0
 14 15  2  0
 16 15  1  0
 17 16  2  0
 18 10  1  0
 19 18  2  0
 20 21  1  0
 20 18  1  0
 22 21  1  0
 23 24  1  0
 23 22  1  0
 24 20  1  0
 25 27  1  0
 24 25  1  6
 26 25  2  0
M  END
$$$$
