LFP.pdb
     RDKit          3D

 27 28  0  0  1  0  0  0  0  0999 V2000
   24.5067  -10.5656  -14.3097 C   0  0  0  0  0  0  0  0  0  0  0  0
   23.0007  -10.7382  -14.3515 C   0  0  1  0  0  0  0  0  0  0  0  0
   22.4502  -10.1387  -13.0687 C   0  0  0  0  0  0  0  0  0  0  0  0
   22.4401   -9.9342  -15.4926 C   0  0  0  0  0  0  0  0  0  0  0  0
   20.9294   -9.9399  -15.5276 C   0  0  2  0  0  0  0  0  0  0  0  0
   20.3789  -11.1756  -15.9753 N   0  0  0  0  0  0  0  0  0  0  0  0
   20.4872   -8.7670  -16.2865 C   0  0  0  0  0  0  0  0  0  0  0  0
   20.6147   -8.7663  -17.5377 O   0  0  0  0  0  0  0  0  0  0  0  0
   19.9155   -7.6133  -15.6933 N   0  0  0  0  0  0  0  0  0  0  0  0
   19.3095   -6.5302  -16.5386 C   0  0  1  0  0  0  0  0  0  0  0  0
   18.0013   -7.1461  -17.0627 C   0  0  0  0  0  0  0  0  0  0  0  0
   17.2030   -6.3720  -17.9596 C   0  0  0  0  0  0  0  0  0  0  0  0
   15.9614   -5.8906  -17.6188 C   0  0  0  0  0  0  0  0  0  0  0  0
   15.2220   -5.0898  -18.4893 C   0  0  0  0  0  0  0  0  0  0  0  0
   15.7234   -4.7608  -19.7199 C   0  0  0  0  0  0  0  0  0  0  0  0
   16.9783   -5.2299  -20.1028 C   0  0  0  0  0  0  0  0  0  0  0  0
   17.6951   -6.0283  -19.2137 C   0  0  0  0  0  0  0  0  0  0  0  0
   19.0135   -5.3667  -15.6807 C   0  0  0  0  0  0  0  0  0  0  0  0
   18.2415   -5.6371  -14.6920 O   0  0  0  0  0  0  0  0  0  0  0  0
   19.5140   -4.0512  -15.8783 N   0  0  0  0  0  0  0  0  0  0  0  0
   20.6345   -3.7641  -16.7348 C   0  0  0  0  0  0  0  0  0  0  0  0
   20.2513   -2.5165  -17.4668 C   0  0  0  0  0  0  0  0  0  0  0  0
   19.0725   -1.9839  -16.6837 C   0  0  0  0  0  0  0  0  0  0  0  0
   19.1599   -2.7937  -15.3724 C   0  0  1  0  0  0  0  0  0  0  0  0
   18.0814   -2.5609  -14.4823 C   0  0  0  0  0  0  0  0  0  0  0  0
   16.9343   -2.9927  -14.8914 O   0  0  0  0  0  0  0  0  0  0  0  0
   17.9867   -1.9660  -13.2573 O   0  0  0  0  0  0  0  0  0  0  0  0
  2  1  1  1
  3  2  1  0
  4  2  1  0
  5  4  1  0
  5  6  1  6
  7  8  2  0
  7  5  1  0
  9  7  1  0
 10  9  1  0
 10 11  1  1
 11 12  1  0
 12 17  1  0
 12 13  2  0
 13 14  1  0
 14 15  2  0
 16 15  1  0
 17 16  2  0
 18 10  1  0
 19 18  2  0
 20 21  1  0
 20 18  1  0
 22 21  1  0
 23 24  1  0
 23 22  1  0
 24 20  1  0
 25 27  1  0
 24 25  1  6
 26 25  2  0
M  END
$$$$
