LFP.pdb
     RDKit          3D

 27 28  0  0  1  0  0  0  0  0999 V2000
   19.0547  -23.0104    3.2460 C   0  0  0  0  0  0  0  0  0  0  0  0
   17.7545  -22.2522    3.4309 C   0  0  1  0  0  0  0  0  0  0  0  0
   17.0033  -22.9305    4.5639 C   0  0  0  0  0  0  0  0  0  0  0  0
   18.0576  -20.8483    3.8781 C   0  0  0  0  0  0  0  0  0  0  0  0
   16.8140  -20.0590    4.2158 C   0  0  2  0  0  0  0  0  0  0  0  0
   16.0776  -19.6458    3.0679 N   0  0  0  0  0  0  0  0  0  0  0  0
   17.1973  -18.9690    5.1169 C   0  0  0  0  0  0  0  0  0  0  0  0
   17.4413  -17.8341    4.6325 O   0  0  0  0  0  0  0  0  0  0  0  0
   17.3134  -19.1115    6.5225 N   0  0  0  0  0  0  0  0  0  0  0  0
   17.6894  -17.9438    7.3886 C   0  0  1  0  0  0  0  0  0  0  0  0
   16.5399  -17.8407    8.4052 C   0  0  0  0  0  0  0  0  0  0  0  0
   16.6140  -16.8246    9.4066 C   0  0  0  0  0  0  0  0  0  0  0  0
   16.2322  -15.5249    9.1728 C   0  0  0  0  0  0  0  0  0  0  0  0
   16.2601  -14.5607   10.1804 C   0  0  0  0  0  0  0  0  0  0  0  0
   16.6744  -14.8918   11.4425 C   0  0  0  0  0  0  0  0  0  0  0  0
   17.0702  -16.1987   11.7193 C   0  0  0  0  0  0  0  0  0  0  0  0
   17.0327  -17.1416   10.6940 C   0  0  0  0  0  0  0  0  0  0  0  0
   18.9536  -18.2544    8.0833 C   0  0  0  0  0  0  0  0  0  0  0  0
   19.0139  -19.4542    8.5344 O   0  0  0  0  0  0  0  0  0  0  0  0
   20.0380  -17.3525    8.2590 N   0  0  0  0  0  0  0  0  0  0  0  0
   20.0948  -16.0670    7.6143 C   0  0  0  0  0  0  0  0  0  0  0  0
   20.6191  -15.1335    8.6596 C   0  0  0  0  0  0  0  0  0  0  0  0
   21.1718  -16.0542    9.7241 C   0  0  0  0  0  0  0  0  0  0  0  0
   21.2360  -17.4071    8.9833 C   0  0  1  0  0  0  0  0  0  0  0  0
   21.6281  -18.4928    9.8060 C   0  0  0  0  0  0  0  0  0  0  0  0
   22.6332  -19.1751    9.3656 O   0  0  0  0  0  0  0  0  0  0  0  0
   21.1652  -18.9879   10.9910 O   0  0  0  0  0  0  0  0  0  0  0  0
  2  1  1  1
  3  2  1  0
  4  2  1  0
  5  4  1  0
  5  6  1  6
  7  8  2  0
  7  5  1  0
  9  7  1  0
 10  9  1  0
 10 11  1  1
 11 12  1  0
 12 17  1  0
 12 13  2  0
 13 14  1  0
 14 15  2  0
 16 15  1  0
 17 16  2  0
 18 10  1  0
 19 18  2  0
 20 21  1  0
 20 18  1  0
 22 21  1  0
 23 24  1  0
 23 22  1  0
 24 20  1  0
 25 27  1  0
 24 25  1  1
 26 25  2  0
M  END
$$$$
