LFP.pdb
     RDKit          3D

 27 28  0  0  1  0  0  0  0  0999 V2000
   24.6983  -16.7654  -15.5902 C   0  0  0  0  0  0  0  0  0  0  0  0
   26.1203  -16.7089  -15.0666 C   0  0  1  0  0  0  0  0  0  0  0  0
   26.3900  -15.2670  -14.6713 C   0  0  0  0  0  0  0  0  0  0  0  0
   26.2222  -17.5379  -13.8156 C   0  0  0  0  0  0  0  0  0  0  0  0
   27.5992  -17.4956  -13.1946 C   0  0  2  0  0  0  0  0  0  0  0  0
   28.6508  -17.6814  -14.1380 N   0  0  0  0  0  0  0  0  0  0  0  0
   27.6199  -18.4334  -12.0688 C   0  0  0  0  0  0  0  0  0  0  0  0
   27.8483  -19.6499  -12.2922 O   0  0  0  0  0  0  0  0  0  0  0  0
   27.3955  -18.0535  -10.7216 N   0  0  0  0  0  0  0  0  0  0  0  0
   27.4727  -19.0623   -9.6119 C   0  0  1  0  0  0  0  0  0  0  0  0
   27.8295  -18.2306   -8.3683 C   0  0  0  0  0  0  0  0  0  0  0  0
   28.0620  -18.9207   -7.1392 C   0  0  0  0  0  0  0  0  0  0  0  0
   27.2075  -18.8310   -6.0662 C   0  0  0  0  0  0  0  0  0  0  0  0
   27.4238  -19.5568   -4.8949 C   0  0  0  0  0  0  0  0  0  0  0  0
   28.5074  -20.3864   -4.7860 C   0  0  0  0  0  0  0  0  0  0  0  0
   29.3974  -20.5040   -5.8515 C   0  0  0  0  0  0  0  0  0  0  0  0
   29.1574  -19.7671   -7.0096 C   0  0  0  0  0  0  0  0  0  0  0  0
   26.1456  -19.6843   -9.4414 C   0  0  0  0  0  0  0  0  0  0  0  0
   25.2758  -18.9074   -8.9061 O   0  0  0  0  0  0  0  0  0  0  0  0
   25.8043  -21.0105   -9.8224 N   0  0  0  0  0  0  0  0  0  0  0  0
   26.4823  -21.7173  -10.8770 C   0  0  0  0  0  0  0  0  0  0  0  0
   26.6521  -23.1114  -10.3606 C   0  0  0  0  0  0  0  0  0  0  0  0
   25.7135  -23.1767   -9.1769 C   0  0  0  0  0  0  0  0  0  0  0  0
   24.8356  -21.9245   -9.3878 C   0  0  1  0  0  0  0  0  0  0  0  0
   23.9194  -21.6828   -8.3334 C   0  0  0  0  0  0  0  0  0  0  0  0
   24.4186  -21.0799   -7.3052 O   0  0  0  0  0  0  0  0  0  0  0  0
   22.5926  -21.9540   -8.1618 O   0  0  0  0  0  0  0  0  0  0  0  0
  2  1  1  1
  3  2  1  0
  4  2  1  0
  5  4  1  0
  5  6  1  6
  7  8  2  0
  7  5  1  0
  9  7  1  0
 10  9  1  0
 10 11  1  1
 11 12  1  0
 12 17  1  0
 12 13  2  0
 13 14  1  0
 14 15  2  0
 16 15  1  0
 17 16  2  0
 18 10  1  0
 19 18  2  0
 20 21  1  0
 20 18  1  0
 22 21  1  0
 23 24  1  0
 23 22  1  0
 24 20  1  0
 25 27  1  0
 24 25  1  1
 26 25  2  0
M  END
$$$$
