LFP.pdb
     RDKit          3D

 27 28  0  0  1  0  0  0  0  0999 V2000
   28.3702  -20.1078  -21.9850 C   0  0  0  0  0  0  0  0  0  0  0  0
   27.8998  -19.1219  -20.9331 C   0  0  1  0  0  0  0  0  0  0  0  0
   26.5380  -18.6160  -21.3775 C   0  0  0  0  0  0  0  0  0  0  0  0
   27.7002  -19.8446  -19.6291 C   0  0  0  0  0  0  0  0  0  0  0  0
   27.1920  -18.9410  -18.5296 C   0  0  2  0  0  0  0  0  0  0  0  0
   27.9727  -17.7609  -18.3615 N   0  0  0  0  0  0  0  0  0  0  0  0
   27.0367  -19.7453  -17.3147 C   0  0  0  0  0  0  0  0  0  0  0  0
   27.3846  -20.9539  -17.3344 O   0  0  0  0  0  0  0  0  0  0  0  0
   26.5113  -19.2426  -16.0977 N   0  0  0  0  0  0  0  0  0  0  0  0
   26.2941  -20.1468  -14.9186 C   0  0  1  0  0  0  0  0  0  0  0  0
   26.7187  -19.2987  -13.7078 C   0  0  0  0  0  0  0  0  0  0  0  0
   26.4665  -19.8159  -12.4002 C   0  0  0  0  0  0  0  0  0  0  0  0
   25.3480  -19.4815  -11.6744 C   0  0  0  0  0  0  0  0  0  0  0  0
   25.0931  -20.0409  -10.4223 C   0  0  0  0  0  0  0  0  0  0  0  0
   25.9633  -20.9482   -9.8805 C   0  0  0  0  0  0  0  0  0  0  0  0
   27.1089  -21.3126  -10.5849 C   0  0  0  0  0  0  0  0  0  0  0  0
   27.3391  -20.7380  -11.8333 C   0  0  0  0  0  0  0  0  0  0  0  0
   24.8583  -20.4747  -14.8287 C   0  0  0  0  0  0  0  0  0  0  0  0
   24.0936  -19.4445  -14.8052 O   0  0  0  0  0  0  0  0  0  0  0  0
   24.3166  -21.7878  -14.7779 N   0  0  0  0  0  0  0  0  0  0  0  0
   25.0517  -22.9510  -15.2002 C   0  0  0  0  0  0  0  0  0  0  0  0
   24.7406  -23.9970  -14.1765 C   0  0  0  0  0  0  0  0  0  0  0  0
   23.5419  -23.4406  -13.4416 C   0  0  0  0  0  0  0  0  0  0  0  0
   23.0775  -22.3103  -14.3849 C   0  0  1  0  0  0  0  0  0  0  0  0
   22.0073  -21.5370  -13.8690 C   0  0  0  0  0  0  0  0  0  0  0  0
   20.8872  -21.6671  -14.5002 O   0  0  0  0  0  0  0  0  0  0  0  0
   21.8977  -20.6634  -12.8257 O   0  0  0  0  0  0  0  0  0  0  0  0
  2  1  1  6
  3  2  1  0
  4  2  1  0
  5  4  1  0
  5  6  1  1
  7  8  2  0
  7  5  1  0
  9  7  1  0
 10  9  1  0
 10 11  1  1
 11 12  1  0
 12 17  1  0
 12 13  2  0
 13 14  1  0
 14 15  2  0
 16 15  1  0
 17 16  2  0
 18 10  1  0
 19 18  2  0
 20 21  1  0
 20 18  1  0
 22 21  1  0
 23 24  1  0
 23 22  1  0
 24 20  1  0
 25 27  1  0
 24 25  1  1
 26 25  2  0
M  END
$$$$
