LFP.pdb
     RDKit          3D

 27 28  0  0  1  0  0  0  0  0999 V2000
   22.2446  -20.6750  -14.2166 C   0  0  0  0  0  0  0  0  0  0  0  0
   23.7596  -20.6372  -14.1610 C   0  0  1  0  0  0  0  0  0  0  0  0
   24.1725  -19.1837  -14.3193 C   0  0  0  0  0  0  0  0  0  0  0  0
   24.2178  -21.0822  -12.7992 C   0  0  0  0  0  0  0  0  0  0  0  0
   25.7156  -20.9847  -12.6235 C   0  0  2  0  0  0  0  0  0  0  0  0
   26.4466  -21.7837  -13.5497 N   0  0  0  0  0  0  0  0  0  0  0  0
   26.0269  -21.2474  -11.2160 C   0  0  0  0  0  0  0  0  0  0  0  0
   26.0979  -22.4387  -10.8188 O   0  0  0  0  0  0  0  0  0  0  0  0
   26.2572  -20.2300  -10.2560 N   0  0  0  0  0  0  0  0  0  0  0  0
   26.5746  -20.5728   -8.8288 C   0  0  1  0  0  0  0  0  0  0  0  0
   27.4978  -19.4346   -8.3623 C   0  0  0  0  0  0  0  0  0  0  0  0
   27.9907  -19.4722   -7.0220 C   0  0  0  0  0  0  0  0  0  0  0  0
   27.5786  -18.5854   -6.0559 C   0  0  0  0  0  0  0  0  0  0  0  0
   28.0304  -18.6743   -4.7392 C   0  0  0  0  0  0  0  0  0  0  0  0
   28.9070  -19.6605   -4.3745 C   0  0  0  0  0  0  0  0  0  0  0  0
   29.3490  -20.5784   -5.3250 C   0  0  0  0  0  0  0  0  0  0  0  0
   28.8818  -20.4661   -6.6329 C   0  0  0  0  0  0  0  0  0  0  0  0
   25.3228  -20.5621   -8.0474 C   0  0  0  0  0  0  0  0  0  0  0  0
   24.6157  -19.5052   -8.2192 O   0  0  0  0  0  0  0  0  0  0  0  0
   24.8877  -21.5989   -7.1780 N   0  0  0  0  0  0  0  0  0  0  0  0
   25.5127  -22.8948   -7.1365 C   0  0  0  0  0  0  0  0  0  0  0  0
   25.5832  -23.2430   -5.6830 C   0  0  0  0  0  0  0  0  0  0  0  0
   24.6434  -22.2564   -5.0273 C   0  0  0  0  0  0  0  0  0  0  0  0
   23.8567  -21.7039   -6.2352 C   0  0  1  0  0  0  0  0  0  0  0  0
   22.9611  -20.6560   -5.9048 C   0  0  0  0  0  0  0  0  0  0  0  0
   21.7094  -20.9734   -5.9530 O   0  0  0  0  0  0  0  0  0  0  0  0
   23.1353  -19.3527   -5.5378 O   0  0  0  0  0  0  0  0  0  0  0  0
  2  1  1  1
  3  2  1  0
  4  2  1  0
  5  4  1  0
  5  6  1  6
  7  8  2  0
  7  5  1  0
  9  7  1  0
 10  9  1  0
 10 11  1  1
 11 12  1  0
 12 17  1  0
 12 13  2  0
 13 14  1  0
 14 15  2  0
 16 15  1  0
 17 16  2  0
 18 10  1  0
 19 18  2  0
 20 21  1  0
 20 18  1  0
 22 21  1  0
 23 24  1  0
 23 22  1  0
 24 20  1  0
 25 27  1  0
 24 25  1  1
 26 25  2  0
M  END
$$$$
