LFP.pdb
     RDKit          3D

 27 28  0  0  1  0  0  0  0  0999 V2000
   21.9823  -19.8996  -14.3223 C   0  0  0  0  0  0  0  0  0  0  0  0
   23.4906  -19.7467  -14.2865 C   0  0  1  0  0  0  0  0  0  0  0  0
   23.7826  -18.2602  -14.1724 C   0  0  0  0  0  0  0  0  0  0  0  0
   24.0266  -20.4004  -13.0423 C   0  0  0  0  0  0  0  0  0  0  0  0
   25.5138  -20.1974  -12.8672 C   0  0  2  0  0  0  0  0  0  0  0  0
   26.2900  -20.7722  -13.9149 N   0  0  0  0  0  0  0  0  0  0  0  0
   25.8795  -20.6484  -11.5219 C   0  0  0  0  0  0  0  0  0  0  0  0
   25.9326  -21.8826  -11.2856 O   0  0  0  0  0  0  0  0  0  0  0  0
   26.1826  -19.7705  -10.4509 N   0  0  0  0  0  0  0  0  0  0  0  0
   26.5197  -20.3030   -9.0878 C   0  0  1  0  0  0  0  0  0  0  0  0
   27.1731  -19.1119   -8.3669 C   0  0  0  0  0  0  0  0  0  0  0  0
   27.7246  -19.3300   -7.0673 C   0  0  0  0  0  0  0  0  0  0  0  0
   28.4954  -20.4272   -6.7643 C   0  0  0  0  0  0  0  0  0  0  0  0
   29.0706  -20.5930   -5.5044 C   0  0  0  0  0  0  0  0  0  0  0  0
   28.8774  -19.6535   -4.5275 C   0  0  0  0  0  0  0  0  0  0  0  0
   28.1017  -18.5276   -4.7952 C   0  0  0  0  0  0  0  0  0  0  0  0
   27.5388  -18.3875   -6.0622 C   0  0  0  0  0  0  0  0  0  0  0  0
   25.2692  -20.6850   -8.4039 C   0  0  0  0  0  0  0  0  0  0  0  0
   24.3723  -19.7674   -8.4168 O   0  0  0  0  0  0  0  0  0  0  0  0
   25.0234  -21.9381   -7.7798 N   0  0  0  0  0  0  0  0  0  0  0  0
   25.7871  -23.1208   -8.0788 C   0  0  0  0  0  0  0  0  0  0  0  0
   26.0157  -23.7780   -6.7542 C   0  0  0  0  0  0  0  0  0  0  0  0
   25.0319  -23.0915   -5.8338 C   0  0  0  0  0  0  0  0  0  0  0  0
   24.0920  -22.3825   -6.8323 C   0  0  1  0  0  0  0  0  0  0  0  0
   23.1181  -21.5575   -6.2155 C   0  0  0  0  0  0  0  0  0  0  0  0
   23.4605  -20.3190   -6.0789 O   0  0  0  0  0  0  0  0  0  0  0  0
   21.8667  -21.7902   -5.7222 O   0  0  0  0  0  0  0  0  0  0  0  0
  2  1  1  1
  3  2  1  0
  4  2  1  0
  5  4  1  0
  5  6  1  6
  7  8  2  0
  7  5  1  0
  9  7  1  0
 10  9  1  0
 10 11  1  1
 11 12  1  0
 12 17  1  0
 12 13  2  0
 13 14  1  0
 14 15  2  0
 16 15  1  0
 17 16  2  0
 18 10  1  0
 19 18  2  0
 20 21  1  0
 20 18  1  0
 22 21  1  0
 23 24  1  0
 23 22  1  0
 24 20  1  0
 25 27  1  0
 24 25  1  1
 26 25  2  0
M  END
$$$$
