LFP.pdb
     RDKit          3D

 27 28  0  0  1  0  0  0  0  0999 V2000
   19.7804  -19.6487  -18.2047 C   0  0  0  0  0  0  0  0  0  0  0  0
   20.3082  -20.4907  -17.0592 C   0  0  1  0  0  0  0  0  0  0  0  0
   20.6753  -21.8464  -17.6384 C   0  0  0  0  0  0  0  0  0  0  0  0
   21.5761  -19.8754  -16.5336 C   0  0  0  0  0  0  0  0  0  0  0  0
   21.3429  -18.9844  -15.3355 C   0  0  2  0  0  0  0  0  0  0  0  0
   20.8135  -17.7061  -15.6761 N   0  0  0  0  0  0  0  0  0  0  0  0
   22.5808  -18.9408  -14.5527 C   0  0  0  0  0  0  0  0  0  0  0  0
   23.4711  -18.1089  -14.8649 O   0  0  0  0  0  0  0  0  0  0  0  0
   22.8458  -19.7888  -13.4480 N   0  0  0  0  0  0  0  0  0  0  0  0
   24.1179  -19.6567  -12.6610 C   0  0  1  0  0  0  0  0  0  0  0  0
   23.7205  -20.0538  -11.2293 C   0  0  0  0  0  0  0  0  0  0  0  0
   24.7065  -19.9468  -10.2012 C   0  0  0  0  0  0  0  0  0  0  0  0
   25.1040  -18.7390   -9.6788 C   0  0  0  0  0  0  0  0  0  0  0  0
   26.0277  -18.6600   -8.6366 C   0  0  0  0  0  0  0  0  0  0  0  0
   26.5669  -19.7997   -8.1032 C   0  0  0  0  0  0  0  0  0  0  0  0
   26.1901  -21.0433   -8.6059 C   0  0  0  0  0  0  0  0  0  0  0  0
   25.2658  -21.0930   -9.6475 C   0  0  0  0  0  0  0  0  0  0  0  0
   25.1087  -20.6111  -13.1947 C   0  0  0  0  0  0  0  0  0  0  0  0
   24.7310  -21.8360  -13.1337 O   0  0  0  0  0  0  0  0  0  0  0  0
   26.3729  -20.2630  -13.7432 N   0  0  0  0  0  0  0  0  0  0  0  0
   26.7346  -18.9086  -14.0693 C   0  0  0  0  0  0  0  0  0  0  0  0
   28.1536  -18.7681  -13.6157 C   0  0  0  0  0  0  0  0  0  0  0  0
   28.6071  -20.1936  -13.3953 C   0  0  0  0  0  0  0  0  0  0  0  0
   27.5047  -21.0009  -14.1138 C   0  0  1  0  0  0  0  0  0  0  0  0
   27.6324  -22.4047  -13.9637 C   0  0  0  0  0  0  0  0  0  0  0  0
   27.0142  -22.9022  -12.9439 O   0  0  0  0  0  0  0  0  0  0  0  0
   28.2814  -23.3701  -14.6780 O   0  0  0  0  0  0  0  0  0  0  0  0
  2  1  1  6
  3  2  1  0
  4  2  1  0
  5  4  1  0
  5  6  1  6
  7  8  2  0
  7  5  1  0
  9  7  1  0
 10  9  1  0
 10 11  1  1
 11 12  1  0
 12 17  1  0
 12 13  2  0
 13 14  1  0
 14 15  2  0
 16 15  1  0
 17 16  2  0
 18 10  1  0
 19 18  2  0
 20 21  1  0
 20 18  1  0
 22 21  1  0
 23 24  1  0
 23 22  1  0
 24 20  1  0
 25 27  1  0
 24 25  1  1
 26 25  2  0
M  END
$$$$
