LFP.pdb
     RDKit          3D

 27 28  0  0  1  0  0  0  0  0999 V2000
   22.1722  -20.7588  -13.0424 C   0  0  0  0  0  0  0  0  0  0  0  0
   23.6771  -20.6036  -13.1461 C   0  0  1  0  0  0  0  0  0  0  0  0
   23.9504  -19.1463  -13.4774 C   0  0  0  0  0  0  0  0  0  0  0  0
   24.2982  -20.8769  -11.8037 C   0  0  0  0  0  0  0  0  0  0  0  0
   25.7981  -20.6923  -11.8028 C   0  0  2  0  0  0  0  0  0  0  0  0
   26.4545  -21.3930  -12.8557 N   0  0  0  0  0  0  0  0  0  0  0  0
   26.2947  -21.0073  -10.4608 C   0  0  0  0  0  0  0  0  0  0  0  0
   26.4948  -22.2098  -10.1509 O   0  0  0  0  0  0  0  0  0  0  0  0
   26.5694  -20.0296   -9.4717 N   0  0  0  0  0  0  0  0  0  0  0  0
   27.1017  -20.4232   -8.1238 C   0  0  1  0  0  0  0  0  0  0  0  0
   27.9509  -19.2181   -7.6854 C   0  0  0  0  0  0  0  0  0  0  0  0
   28.5458  -19.2486   -6.3870 C   0  0  0  0  0  0  0  0  0  0  0  0
   28.0784  -18.4902   -5.3401 C   0  0  0  0  0  0  0  0  0  0  0  0
   28.6388  -18.5765   -4.0656 C   0  0  0  0  0  0  0  0  0  0  0  0
   29.6816  -19.4304   -3.8255 C   0  0  0  0  0  0  0  0  0  0  0  0
   30.1842  -20.2156   -4.8609 C   0  0  0  0  0  0  0  0  0  0  0  0
   29.6058  -20.1090   -6.1242 C   0  0  0  0  0  0  0  0  0  0  0  0
   25.9666  -20.6061   -7.1990 C   0  0  0  0  0  0  0  0  0  0  0  0
   25.1187  -19.6434   -7.2251 O   0  0  0  0  0  0  0  0  0  0  0  0
   25.7755  -21.7250   -6.3435 N   0  0  0  0  0  0  0  0  0  0  0  0
   26.4606  -22.9765   -6.5324 C   0  0  0  0  0  0  0  0  0  0  0  0
   26.8499  -23.4153   -5.1558 C   0  0  0  0  0  0  0  0  0  0  0  0
   26.0183  -22.5387   -4.2467 C   0  0  0  0  0  0  0  0  0  0  0  0
   24.9702  -21.9603   -5.2215 C   0  0  1  0  0  0  0  0  0  0  0  0
   24.1108  -20.9982   -4.6339 C   0  0  0  0  0  0  0  0  0  0  0  0
   23.0424  -21.4813   -4.0908 O   0  0  0  0  0  0  0  0  0  0  0  0
   24.1657  -19.6396   -4.5129 O   0  0  0  0  0  0  0  0  0  0  0  0
  2  1  1  1
  3  2  1  0
  4  2  1  0
  5  4  1  0
  5  6  1  6
  7  8  2  0
  7  5  1  0
  9  7  1  0
 10  9  1  0
 10 11  1  1
 11 12  1  0
 12 17  1  0
 12 13  2  0
 13 14  1  0
 14 15  2  0
 16 15  1  0
 17 16  2  0
 18 10  1  0
 19 18  2  0
 20 21  1  0
 20 18  1  0
 22 21  1  0
 23 24  1  0
 23 22  1  0
 24 20  1  0
 25 27  1  0
 24 25  1  1
 26 25  2  0
M  END
$$$$
