LFP.pdb
     RDKit          3D

 27 28  0  0  1  0  0  0  0  0999 V2000
   28.3394  -18.0252  -15.4150 C   0  0  0  0  0  0  0  0  0  0  0  0
   27.0984  -18.1131  -14.5479 C   0  0  1  0  0  0  0  0  0  0  0  0
   25.9761  -18.6301  -15.4317 C   0  0  0  0  0  0  0  0  0  0  0  0
   27.3189  -19.1362  -13.4675 C   0  0  0  0  0  0  0  0  0  0  0  0
   26.1709  -19.2113  -12.4877 C   0  0  2  0  0  0  0  0  0  0  0  0
   25.4332  -17.9964  -12.3870 N   0  0  0  0  0  0  0  0  0  0  0  0
   26.6920  -19.7135  -11.2136 C   0  0  0  0  0  0  0  0  0  0  0  0
   27.4314  -20.7309  -11.2152 O   0  0  0  0  0  0  0  0  0  0  0  0
   26.4130  -19.1179   -9.9577 N   0  0  0  0  0  0  0  0  0  0  0  0
   26.8315  -19.7828   -8.6779 C   0  0  1  0  0  0  0  0  0  0  0  0
   27.2608  -18.6187   -7.7691 C   0  0  0  0  0  0  0  0  0  0  0  0
   27.8190  -18.9305   -6.4916 C   0  0  0  0  0  0  0  0  0  0  0  0
   29.0996  -19.4065   -6.3390 C   0  0  0  0  0  0  0  0  0  0  0  0
   29.6444  -19.6520   -5.0786 C   0  0  0  0  0  0  0  0  0  0  0  0
   28.9056  -19.4213   -3.9495 C   0  0  0  0  0  0  0  0  0  0  0  0
   27.6031  -18.9397   -4.0623 C   0  0  0  0  0  0  0  0  0  0  0  0
   27.0838  -18.7035   -5.3336 C   0  0  0  0  0  0  0  0  0  0  0  0
   25.6645  -20.4747   -8.0976 C   0  0  0  0  0  0  0  0  0  0  0  0
   24.5592  -19.8415   -8.2521 O   0  0  0  0  0  0  0  0  0  0  0  0
   25.7012  -21.7275   -7.4273 N   0  0  0  0  0  0  0  0  0  0  0  0
   26.8583  -22.5833   -7.4376 C   0  0  0  0  0  0  0  0  0  0  0  0
   26.9658  -23.1043   -6.0390 C   0  0  0  0  0  0  0  0  0  0  0  0
   25.6214  -22.7811   -5.4270 C   0  0  0  0  0  0  0  0  0  0  0  0
   24.7689  -22.4491   -6.6704 C   0  0  1  0  0  0  0  0  0  0  0  0
   23.4608  -21.9966   -6.3641 C   0  0  0  0  0  0  0  0  0  0  0  0
   23.3368  -20.7141   -6.2666 O   0  0  0  0  0  0  0  0  0  0  0  0
   22.2742  -22.6345   -6.1442 O   0  0  0  0  0  0  0  0  0  0  0  0
  2  1  1  6
  3  2  1  0
  4  2  1  0
  5  4  1  0
  5  6  1  1
  7  8  2  0
  7  5  1  0
  9  7  1  0
 10  9  1  0
 10 11  1  1
 11 12  1  0
 12 17  1  0
 12 13  2  0
 13 14  1  0
 14 15  2  0
 16 15  1  0
 17 16  2  0
 18 10  1  0
 19 18  2  0
 20 21  1  0
 20 18  1  0
 22 21  1  0
 23 24  1  0
 23 22  1  0
 24 20  1  0
 25 27  1  0
 24 25  1  1
 26 25  2  0
M  END
$$$$
