LFP.pdb
     RDKit          3D

 27 28  0  0  1  0  0  0  0  0999 V2000
   23.1695  -22.1940  -12.6003 C   0  0  0  0  0  0  0  0  0  0  0  0
   23.8816  -20.8574  -12.5233 C   0  0  1  0  0  0  0  0  0  0  0  0
   22.8145  -19.7991  -12.3011 C   0  0  0  0  0  0  0  0  0  0  0  0
   24.7793  -20.8418  -11.3165 C   0  0  0  0  0  0  0  0  0  0  0  0
   25.5376  -19.5433  -11.1662 C   0  0  2  0  0  0  0  0  0  0  0  0
   26.0001  -19.0122  -12.4050 N   0  0  0  0  0  0  0  0  0  0  0  0
   26.5850  -19.7414  -10.1609 C   0  0  0  0  0  0  0  0  0  0  0  0
   27.6355  -20.3518  -10.4863 O   0  0  0  0  0  0  0  0  0  0  0  0
   26.4909  -19.2827   -8.8228 N   0  0  0  0  0  0  0  0  0  0  0  0
   27.6441  -19.4318   -7.8726 C   0  0  1  0  0  0  0  0  0  0  0  0
   27.3155  -18.4640   -6.7234 C   0  0  0  0  0  0  0  0  0  0  0  0
   28.1959  -18.4281   -5.5989 C   0  0  0  0  0  0  0  0  0  0  0  0
   29.2757  -17.5802   -5.5304 C   0  0  0  0  0  0  0  0  0  0  0  0
   30.0905  -17.5217   -4.3997 C   0  0  0  0  0  0  0  0  0  0  0  0
   29.8293  -18.3187   -3.3177 C   0  0  0  0  0  0  0  0  0  0  0  0
   28.7443  -19.1922   -3.3487 C   0  0  0  0  0  0  0  0  0  0  0  0
   27.9472  -19.2305   -4.4910 C   0  0  0  0  0  0  0  0  0  0  0  0
   27.6725  -20.8200   -7.3731 C   0  0  0  0  0  0  0  0  0  0  0  0
   26.5146  -21.2848   -7.0732 O   0  0  0  0  0  0  0  0  0  0  0  0
   28.8403  -21.6166   -7.2250 N   0  0  0  0  0  0  0  0  0  0  0  0
   30.0243  -21.4191   -8.0191 C   0  0  0  0  0  0  0  0  0  0  0  0
   31.1626  -21.5732   -7.0602 C   0  0  0  0  0  0  0  0  0  0  0  0
   30.5307  -22.2188   -5.8476 C   0  0  0  0  0  0  0  0  0  0  0  0
   29.1749  -22.7024   -6.4053 C   0  0  1  0  0  0  0  0  0  0  0  0
   28.3183  -23.2616   -5.4240 C   0  0  0  0  0  0  0  0  0  0  0  0
   27.4403  -22.4469   -4.9390 O   0  0  0  0  0  0  0  0  0  0  0  0
   28.2149  -24.5028   -4.8653 O   0  0  0  0  0  0  0  0  0  0  0  0
  2  1  1  1
  3  2  1  0
  4  2  1  0
  5  4  1  0
  5  6  1  6
  7  8  2  0
  7  5  1  0
  9  7  1  0
 10  9  1  0
 10 11  1  1
 11 12  1  0
 12 17  1  0
 12 13  2  0
 13 14  1  0
 14 15  2  0
 16 15  1  0
 17 16  2  0
 18 10  1  0
 19 18  2  0
 20 21  1  0
 20 18  1  0
 22 21  1  0
 23 24  1  0
 23 22  1  0
 24 20  1  0
 25 27  1  0
 24 25  1  1
 26 25  2  0
M  END
$$$$
