LFP.pdb
     RDKit          3D

 27 28  0  0  1  0  0  0  0  0999 V2000
   22.0779  -20.8803  -13.5751 C   0  0  0  0  0  0  0  0  0  0  0  0
   23.5523  -21.2317  -13.5262 C   0  0  1  0  0  0  0  0  0  0  0  0
   24.1448  -20.8449  -14.8706 C   0  0  0  0  0  0  0  0  0  0  0  0
   24.2301  -20.3859  -12.4833 C   0  0  0  0  0  0  0  0  0  0  0  0
   25.7147  -20.6509  -12.3872 C   0  0  2  0  0  0  0  0  0  0  0  0
   26.1826  -21.5989  -13.3426 N   0  0  0  0  0  0  0  0  0  0  0  0
   26.0284  -20.9849  -10.9954 C   0  0  0  0  0  0  0  0  0  0  0  0
   26.0338  -22.1926  -10.6441 O   0  0  0  0  0  0  0  0  0  0  0  0
   26.3314  -20.0203  -10.0018 N   0  0  0  0  0  0  0  0  0  0  0  0
   26.6517  -20.4356   -8.5947 C   0  0  1  0  0  0  0  0  0  0  0  0
   27.5169  -19.2873   -8.0485 C   0  0  0  0  0  0  0  0  0  0  0  0
   28.0911  -19.4346   -6.7488 C   0  0  0  0  0  0  0  0  0  0  0  0
   27.7127  -18.6582   -5.6794 C   0  0  0  0  0  0  0  0  0  0  0  0
   28.2460  -18.8556   -4.4057 C   0  0  0  0  0  0  0  0  0  0  0  0
   29.1713  -19.8410   -4.1891 C   0  0  0  0  0  0  0  0  0  0  0  0
   29.5814  -20.6488   -5.2476 C   0  0  0  0  0  0  0  0  0  0  0  0
   29.0326  -20.4293   -6.5096 C   0  0  0  0  0  0  0  0  0  0  0  0
   25.3940  -20.5305   -7.8288 C   0  0  0  0  0  0  0  0  0  0  0  0
   24.6105  -19.5281   -7.9959 O   0  0  0  0  0  0  0  0  0  0  0  0
   25.0291  -21.6090   -6.9780 N   0  0  0  0  0  0  0  0  0  0  0  0
   25.7448  -22.8574   -6.9516 C   0  0  0  0  0  0  0  0  0  0  0  0
   25.8318  -23.2221   -5.5030 C   0  0  0  0  0  0  0  0  0  0  0  0
   24.8202  -22.3153   -4.8390 C   0  0  0  0  0  0  0  0  0  0  0  0
   24.0030  -21.8018   -6.0438 C   0  0  1  0  0  0  0  0  0  0  0  0
   23.0329  -20.8256   -5.7038 C   0  0  0  0  0  0  0  0  0  0  0  0
   23.4114  -19.6010   -5.8676 O   0  0  0  0  0  0  0  0  0  0  0  0
   21.7548  -20.8974   -5.2297 O   0  0  0  0  0  0  0  0  0  0  0  0
  2  1  1  6
  3  2  1  0
  4  2  1  0
  5  4  1  0
  5  6  1  6
  7  8  2  0
  7  5  1  0
  9  7  1  0
 10  9  1  0
 10 11  1  1
 11 12  1  0
 12 17  1  0
 12 13  2  0
 13 14  1  0
 14 15  2  0
 16 15  1  0
 17 16  2  0
 18 10  1  0
 19 18  2  0
 20 21  1  0
 20 18  1  0
 22 21  1  0
 23 24  1  0
 23 22  1  0
 24 20  1  0
 25 27  1  0
 24 25  1  1
 26 25  2  0
M  END
$$$$
