LFP.pdb
     RDKit          3D

 27 28  0  0  1  0  0  0  0  0999 V2000
   22.5119  -20.5070  -13.4859 C   0  0  0  0  0  0  0  0  0  0  0  0
   23.9576  -20.0504  -13.5206 C   0  0  1  0  0  0  0  0  0  0  0  0
   23.9523  -18.5462  -13.3074 C   0  0  0  0  0  0  0  0  0  0  0  0
   24.6987  -20.6596  -12.3621 C   0  0  0  0  0  0  0  0  0  0  0  0
   26.0780  -20.0715  -12.1737 C   0  0  2  0  0  0  0  0  0  0  0  0
   26.9710  -20.3707  -13.2430 N   0  0  0  0  0  0  0  0  0  0  0  0
   26.5634  -20.4648  -10.8483 C   0  0  0  0  0  0  0  0  0  0  0  0
   27.1454  -21.5719  -10.7154 O   0  0  0  0  0  0  0  0  0  0  0  0
   26.4178  -19.6662   -9.6860 N   0  0  0  0  0  0  0  0  0  0  0  0
   26.9319  -20.1375   -8.3561 C   0  0  1  0  0  0  0  0  0  0  0  0
   27.5146  -18.8716   -7.7052 C   0  0  0  0  0  0  0  0  0  0  0  0
   28.1348  -18.9961   -6.4243 C   0  0  0  0  0  0  0  0  0  0  0  0
   27.5055  -18.6310   -5.2580 C   0  0  0  0  0  0  0  0  0  0  0  0
   28.1076  -18.8125   -4.0129 C   0  0  0  0  0  0  0  0  0  0  0  0
   29.3565  -19.3661   -3.9234 C   0  0  0  0  0  0  0  0  0  0  0  0
   30.0276  -19.7486   -5.0829 C   0  0  0  0  0  0  0  0  0  0  0  0
   29.4028  -19.5555   -6.3134 C   0  0  0  0  0  0  0  0  0  0  0  0
   25.7969  -20.6405   -7.5585 C   0  0  0  0  0  0  0  0  0  0  0  0
   24.7858  -19.8506   -7.5436 O   0  0  0  0  0  0  0  0  0  0  0  0
   25.7681  -21.8775   -6.8591 N   0  0  0  0  0  0  0  0  0  0  0  0
   26.7543  -22.9071   -7.0556 C   0  0  0  0  0  0  0  0  0  0  0  0
   27.0485  -23.4270   -5.6837 C   0  0  0  0  0  0  0  0  0  0  0  0
   25.9148  -22.8882   -4.8406 C   0  0  0  0  0  0  0  0  0  0  0  0
   24.8996  -22.4347   -5.9114 C   0  0  1  0  0  0  0  0  0  0  0  0
   23.7619  -21.7766   -5.3802 C   0  0  0  0  0  0  0  0  0  0  0  0
   23.9110  -20.5093   -5.1766 O   0  0  0  0  0  0  0  0  0  0  0  0
   22.5124  -22.1986   -5.0278 O   0  0  0  0  0  0  0  0  0  0  0  0
  2  1  1  1
  3  2  1  0
  4  2  1  0
  5  4  1  0
  5  6  1  6
  7  8  2  0
  7  5  1  0
  9  7  1  0
 10  9  1  0
 10 11  1  1
 11 12  1  0
 12 17  1  0
 12 13  2  0
 13 14  1  0
 14 15  2  0
 16 15  1  0
 17 16  2  0
 18 10  1  0
 19 18  2  0
 20 21  1  0
 20 18  1  0
 22 21  1  0
 23 24  1  0
 23 22  1  0
 24 20  1  0
 25 27  1  0
 24 25  1  1
 26 25  2  0
M  END
$$$$
