LFP.pdb
     RDKit          3D

 27 28  0  0  1  0  0  0  0  0999 V2000
   27.9231  -20.9414  -21.0424 C   0  0  0  0  0  0  0  0  0  0  0  0
   28.9011  -21.3049  -19.9420 C   0  0  1  0  0  0  0  0  0  0  0  0
   29.6546  -20.0357  -19.5819 C   0  0  0  0  0  0  0  0  0  0  0  0
   28.1364  -21.7286  -18.7179 C   0  0  0  0  0  0  0  0  0  0  0  0
   29.0366  -22.0742  -17.5544 C   0  0  2  0  0  0  0  0  0  0  0  0
   29.8779  -23.1968  -17.8044 N   0  0  0  0  0  0  0  0  0  0  0  0
   28.2041  -22.1937  -16.3545 C   0  0  0  0  0  0  0  0  0  0  0  0
   27.6756  -23.3031  -16.0866 O   0  0  0  0  0  0  0  0  0  0  0  0
   27.9507  -21.1230  -15.4605 N   0  0  0  0  0  0  0  0  0  0  0  0
   27.0934  -21.3200  -14.2434 C   0  0  1  0  0  0  0  0  0  0  0  0
   27.7573  -20.4447  -13.1670 C   0  0  0  0  0  0  0  0  0  0  0  0
   27.1167  -20.3384  -11.8945 C   0  0  0  0  0  0  0  0  0  0  0  0
   26.2306  -19.3316  -11.5931 C   0  0  0  0  0  0  0  0  0  0  0  0
   25.5737  -19.2777  -10.3637 C   0  0  0  0  0  0  0  0  0  0  0  0
   25.8001  -20.2397   -9.4164 C   0  0  0  0  0  0  0  0  0  0  0  0
   26.6919  -21.2763   -9.6836 C   0  0  0  0  0  0  0  0  0  0  0  0
   27.3345  -21.3055  -10.9196 C   0  0  0  0  0  0  0  0  0  0  0  0
   25.7346  -20.8230  -14.5331 C   0  0  0  0  0  0  0  0  0  0  0  0
   25.6996  -19.5889  -14.8830 O   0  0  0  0  0  0  0  0  0  0  0  0
   24.5434  -21.5945  -14.4560 N   0  0  0  0  0  0  0  0  0  0  0  0
   24.5340  -23.0284  -14.5807 C   0  0  0  0  0  0  0  0  0  0  0  0
   23.5689  -23.5002  -13.5392 C   0  0  0  0  0  0  0  0  0  0  0  0
   22.8200  -22.2474  -13.1441 C   0  0  0  0  0  0  0  0  0  0  0  0
   23.1906  -21.2736  -14.2831 C   0  0  1  0  0  0  0  0  0  0  0  0
   22.6949  -19.9586  -14.0968 C   0  0  0  0  0  0  0  0  0  0  0  0
   23.5106  -19.1469  -13.5090 O   0  0  0  0  0  0  0  0  0  0  0  0
   21.5155  -19.3467  -14.4100 O   0  0  0  0  0  0  0  0  0  0  0  0
  2  1  1  6
  3  2  1  0
  4  2  1  0
  5  4  1  0
  5  6  1  6
  7  8  2  0
  7  5  1  0
  9  7  1  0
 10  9  1  0
 10 11  1  1
 11 12  1  0
 12 17  1  0
 12 13  2  0
 13 14  1  0
 14 15  2  0
 16 15  1  0
 17 16  2  0
 18 10  1  0
 19 18  2  0
 20 21  1  0
 20 18  1  0
 22 21  1  0
 23 24  1  0
 23 22  1  0
 24 20  1  0
 25 27  1  0
 24 25  1  1
 26 25  2  0
M  END
$$$$
