LFP.pdb
     RDKit          3D

 27 28  0  0  1  0  0  0  0  0999 V2000
   26.9058  -20.8335  -20.0609 C   0  0  0  0  0  0  0  0  0  0  0  0
   26.4038  -20.6821  -18.6380 C   0  0  1  0  0  0  0  0  0  0  0  0
   24.9086  -20.4254  -18.7207 C   0  0  0  0  0  0  0  0  0  0  0  0
   26.5902  -21.9822  -17.9046 C   0  0  0  0  0  0  0  0  0  0  0  0
   27.8449  -22.0059  -17.0627 C   0  0  2  0  0  0  0  0  0  0  0  0
   28.7846  -22.9940  -17.4763 N   0  0  0  0  0  0  0  0  0  0  0  0
   27.4472  -22.0966  -15.6554 C   0  0  0  0  0  0  0  0  0  0  0  0
   27.1933  -23.2266  -15.1647 O   0  0  0  0  0  0  0  0  0  0  0  0
   27.3276  -20.9758  -14.7957 N   0  0  0  0  0  0  0  0  0  0  0  0
   26.9628  -21.1477  -13.3492 C   0  0  1  0  0  0  0  0  0  0  0  0
   27.9165  -20.1995  -12.6029 C   0  0  0  0  0  0  0  0  0  0  0  0
   27.8795  -20.1920  -11.1748 C   0  0  0  0  0  0  0  0  0  0  0  0
   28.6607  -21.0246  -10.4092 C   0  0  0  0  0  0  0  0  0  0  0  0
   28.6501  -20.9625   -9.0157 C   0  0  0  0  0  0  0  0  0  0  0  0
   27.8500  -20.0585   -8.3703 C   0  0  0  0  0  0  0  0  0  0  0  0
   27.0428  -19.1977   -9.1110 C   0  0  0  0  0  0  0  0  0  0  0  0
   27.0728  -19.2815  -10.5016 C   0  0  0  0  0  0  0  0  0  0  0  0
   25.5652  -20.7151  -13.1564 C   0  0  0  0  0  0  0  0  0  0  0  0
   25.2570  -19.6564  -13.8127 O   0  0  0  0  0  0  0  0  0  0  0  0
   24.6061  -21.3738  -12.3401 N   0  0  0  0  0  0  0  0  0  0  0  0
   24.8738  -22.6223  -11.6760 C   0  0  0  0  0  0  0  0  0  0  0  0
   24.2675  -22.4741  -10.3160 C   0  0  0  0  0  0  0  0  0  0  0  0
   23.3698  -21.2646  -10.4487 C   0  0  0  0  0  0  0  0  0  0  0  0
   23.2821  -21.0906  -11.9801 C   0  0  1  0  0  0  0  0  0  0  0  0
   22.5698  -19.9339  -12.3855 C   0  0  0  0  0  0  0  0  0  0  0  0
   23.3071  -18.9576  -12.8012 O   0  0  0  0  0  0  0  0  0  0  0  0
   21.2427  -19.6176  -12.4342 O   0  0  0  0  0  0  0  0  0  0  0  0
  2  1  1  6
  3  2  1  0
  4  2  1  0
  5  4  1  0
  5  6  1  6
  7  8  2  0
  7  5  1  0
  9  7  1  0
 10  9  1  0
 10 11  1  1
 11 12  1  0
 12 17  1  0
 12 13  2  0
 13 14  1  0
 14 15  2  0
 16 15  1  0
 17 16  2  0
 18 10  1  0
 19 18  2  0
 20 21  1  0
 20 18  1  0
 22 21  1  0
 23 24  1  0
 23 22  1  0
 24 20  1  0
 25 27  1  0
 24 25  1  1
 26 25  2  0
M  END
$$$$
