ICD.pdb
     RDKit          3D

 23 22  0  0  1  0  0  0  0  0999 V2000
   20.5993  -25.1333  -17.2332 C   0  0  0  0  0  0  0  0  0  0  0  0
   21.6171  -25.2885  -16.1457 C   0  0  0  0  0  0  0  0  0  0  0  0
   21.9062  -24.0112  -15.3952 C   0  0  2  0  0  0  0  0  0  0  0  0
   22.3902  -22.9355  -16.3448 C   0  0  0  0  0  0  0  0  0  0  0  0
   22.9888  -24.2046  -14.3546 C   0  0  2  0  0  0  0  0  0  0  0  0
   22.6048  -25.3311  -13.5412 N   0  0  0  0  0  0  0  0  0  0  0  0
   23.2010  -22.9801  -13.5414 C   0  0  0  0  0  0  0  0  0  0  0  0
   22.1681  -22.3884  -13.1361 O   0  0  0  0  0  0  0  0  0  0  0  0
   24.4455  -22.4561  -13.2058 N   0  0  0  0  0  0  0  0  0  0  0  0
   24.6702  -21.2419  -12.4104 C   0  0  1  0  0  0  0  0  0  0  0  0
   25.6731  -21.5259  -11.3230 C   0  0  0  0  0  0  0  0  0  0  0  0
   24.8409  -21.6369   -9.7333 S   0  0  0  0  0  0  0  0  0  0  0  0
   25.0827  -20.2168  -13.3807 C   0  0  0  0  0  0  0  0  0  0  0  0
   25.2911  -19.0240  -13.0220 O   0  0  0  0  0  0  0  0  0  0  0  0
   25.2605  -20.5287  -14.7299 N   0  0  0  0  0  0  0  0  0  0  0  0
   25.6108  -19.5412  -15.7443 C   0  0  1  0  0  0  0  0  0  0  0  0
   26.8211  -20.0621  -16.4783 C   0  0  0  0  0  0  0  0  0  0  0  0
   27.1990  -19.2435  -17.6542 C   0  0  0  0  0  0  0  0  0  0  0  0
   26.7871  -18.0490  -17.7367 O   0  0  0  0  0  0  0  0  0  0  0  0
   24.4968  -19.2458  -16.6409 C   0  0  0  0  0  0  0  0  0  0  0  0
   23.6281  -20.1098  -16.8889 O   0  0  0  0  0  0  0  0  0  0  0  0
   27.9857  -19.6828  -18.7038 O   0  0  0  0  0  0  0  0  0  0  0  0
   24.3888  -17.9996  -17.2301 O   0  0  0  0  0  0  0  0  0  0  0  0
  2  1  1  0
  2  3  1  0
  3  4  1  6
  5  3  1  0
  5  6  1  1
  7  5  1  0
  7  8  2  0
  9 10  1  0
  9  7  1  0
 11 12  1  0
 10 11  1  1
 13 10  1  0
 13 14  2  0
 15 13  1  0
 16 15  1  0
 16 20  1  0
 16 17  1  6
 18 17  1  0
 18 22  1  0
 19 18  2  0
 20 21  2  0
 20 23  1  0
M  END
$$$$
