ICD.pdb
     RDKit          3D

 23 22  0  0  1  0  0  0  0  0999 V2000
   17.7118  -13.7549  -19.3867 C   0  0  0  0  0  0  0  0  0  0  0  0
   18.1574  -13.1237  -18.1039 C   0  0  0  0  0  0  0  0  0  0  0  0
   19.6558  -12.9933  -17.9774 C   0  0  2  0  0  0  0  0  0  0  0  0
   20.2999  -14.3592  -17.8648 C   0  0  0  0  0  0  0  0  0  0  0  0
   20.0488  -12.2138  -16.7404 C   0  0  2  0  0  0  0  0  0  0  0  0
   19.4540  -12.8788  -15.6082 N   0  0  0  0  0  0  0  0  0  0  0  0
   19.6351  -10.7901  -16.8277 C   0  0  0  0  0  0  0  0  0  0  0  0
   20.1434  -10.1130  -17.7573 O   0  0  0  0  0  0  0  0  0  0  0  0
   18.7382  -10.1699  -15.9633 N   0  0  0  0  0  0  0  0  0  0  0  0
   18.2701   -8.7823  -16.0763 C   0  0  1  0  0  0  0  0  0  0  0  0
   16.7653   -8.7481  -16.0192 C   0  0  0  0  0  0  0  0  0  0  0  0
   16.0781   -9.3222  -17.5781 S   0  0  0  0  0  0  0  0  0  0  0  0
   18.9475   -8.0579  -14.9906 C   0  0  0  0  0  0  0  0  0  0  0  0
   19.1127   -8.5869  -13.8558 O   0  0  0  0  0  0  0  0  0  0  0  0
   19.4330   -6.7624  -15.1790 N   0  0  0  0  0  0  0  0  0  0  0  0
   20.1562   -6.0177  -14.1546 C   0  0  1  0  0  0  0  0  0  0  0  0
   21.4545   -5.5562  -14.7680 C   0  0  0  0  0  0  0  0  0  0  0  0
   22.2814   -4.7322  -13.8555 C   0  0  0  0  0  0  0  0  0  0  0  0
   22.4981   -5.1399  -12.6764 O   0  0  0  0  0  0  0  0  0  0  0  0
   19.3705   -4.9134  -13.6110 C   0  0  0  0  0  0  0  0  0  0  0  0
   18.5325   -4.3144  -14.3193 O   0  0  0  0  0  0  0  0  0  0  0  0
   22.8548   -3.5179  -14.1874 O   0  0  0  0  0  0  0  0  0  0  0  0
   19.5449   -4.5146  -12.2987 O   0  0  0  0  0  0  0  0  0  0  0  0
  2  1  1  0
  2  3  1  0
  3  4  1  1
  5  3  1  0
  5  6  1  1
  7  5  1  0
  7  8  2  0
  9 10  1  0
  9  7  1  0
 11 12  1  0
 10 11  1  1
 13 10  1  0
 13 14  2  0
 15 13  1  0
 16 15  1  0
 16 20  1  0
 16 17  1  6
 18 17  1  0
 18 22  1  0
 19 18  2  0
 20 21  2  0
 20 23  1  0
M  END
$$$$
