ICD.pdb
     RDKit          3D

 23 22  0  0  1  0  0  0  0  0999 V2000
   17.2257  -13.5134  -18.7977 C   0  0  0  0  0  0  0  0  0  0  0  0
   18.6901  -13.7151  -18.5573 C   0  0  0  0  0  0  0  0  0  0  0  0
   19.2906  -12.7249  -17.5894 C   0  0  2  0  0  0  0  0  0  0  0  0
   19.2994  -11.3345  -18.1894 C   0  0  0  0  0  0  0  0  0  0  0  0
   20.7249  -13.0710  -17.2501 C   0  0  2  0  0  0  0  0  0  0  0  0
   20.7231  -14.3961  -16.6828 N   0  0  0  0  0  0  0  0  0  0  0  0
   21.3329  -12.0751  -16.3312 C   0  0  0  0  0  0  0  0  0  0  0  0
   20.7789  -11.9316  -15.2116 O   0  0  0  0  0  0  0  0  0  0  0  0
   22.4547  -11.3059  -16.6244 N   0  0  0  0  0  0  0  0  0  0  0  0
   23.0403  -10.2865  -15.7439 C   0  0  1  0  0  0  0  0  0  0  0  0
   24.5335  -10.2456  -15.9377 C   0  0  0  0  0  0  0  0  0  0  0  0
   25.2950  -11.6686  -15.1458 S   0  0  0  0  0  0  0  0  0  0  0  0
   22.3381   -9.0388  -16.0793 C   0  0  0  0  0  0  0  0  0  0  0  0
   21.7913   -8.8795  -17.2065 O   0  0  0  0  0  0  0  0  0  0  0  0
   22.2498   -7.9901  -15.1617 N   0  0  0  0  0  0  0  0  0  0  0  0
   21.5580   -6.7362  -15.4376 C   0  0  1  0  0  0  0  0  0  0  0  0
   20.1298   -7.0782  -15.7817 C   0  0  0  0  0  0  0  0  0  0  0  0
   19.2695   -5.8899  -15.9904 C   0  0  0  0  0  0  0  0  0  0  0  0
   19.7842   -4.8218  -16.4350 O   0  0  0  0  0  0  0  0  0  0  0  0
   21.6556   -5.7915  -14.3285 C   0  0  0  0  0  0  0  0  0  0  0  0
   21.1563   -4.6487  -14.4151 O   0  0  0  0  0  0  0  0  0  0  0  0
   17.9111   -5.8419  -15.7334 O   0  0  0  0  0  0  0  0  0  0  0  0
   22.3054   -6.1515  -13.1624 O   0  0  0  0  0  0  0  0  0  0  0  0
  2  1  1  0
  2  3  1  0
  3  4  1  6
  5  3  1  0
  5  6  1  1
  7  5  1  0
  7  8  2  0
  9 10  1  0
  9  7  1  0
 11 12  1  0
 10 11  1  6
 13 10  1  0
 13 14  2  0
 15 13  1  0
 16 15  1  0
 16 20  1  0
 16 17  1  1
 18 17  1  0
 18 22  1  0
 19 18  2  0
 20 21  2  0
 20 23  1  0
M  END
$$$$
