ICD.pdb
     RDKit          3D

 23 22  0  0  1  0  0  0  0  0999 V2000
   20.1486  -15.3715  -17.8504 C   0  0  0  0  0  0  0  0  0  0  0  0
   19.1070  -15.1780  -16.7920 C   0  0  0  0  0  0  0  0  0  0  0  0
   18.5245  -13.7859  -16.7578 C   0  0  2  0  0  0  0  0  0  0  0  0
   19.6052  -12.7653  -16.4685 C   0  0  0  0  0  0  0  0  0  0  0  0
   17.4769  -13.6424  -15.6742 C   0  0  2  0  0  0  0  0  0  0  0  0
   16.5309  -14.7160  -15.8482 N   0  0  0  0  0  0  0  0  0  0  0  0
   16.8187  -12.3116  -15.7124 C   0  0  0  0  0  0  0  0  0  0  0  0
   16.5928  -11.8287  -16.8512 O   0  0  0  0  0  0  0  0  0  0  0  0
   16.4434  -11.5794  -14.5903 N   0  0  0  0  0  0  0  0  0  0  0  0
   15.7895  -10.2644  -14.6130 C   0  0  1  0  0  0  0  0  0  0  0  0
   14.5809  -10.2830  -13.7143 C   0  0  0  0  0  0  0  0  0  0  0  0
   13.4948  -11.6401  -14.1733 S   0  0  0  0  0  0  0  0  0  0  0  0
   16.8359   -9.3074  -14.2235 C   0  0  0  0  0  0  0  0  0  0  0  0
   17.6426   -9.5666  -13.2870 O   0  0  0  0  0  0  0  0  0  0  0  0
   16.9743   -8.0818  -14.8779 N   0  0  0  0  0  0  0  0  0  0  0  0
   18.0468   -7.1351  -14.5941 C   0  0  1  0  0  0  0  0  0  0  0  0
   19.3517   -7.8741  -14.7555 C   0  0  0  0  0  0  0  0  0  0  0  0
   20.5454   -7.0111  -14.5951 C   0  0  0  0  0  0  0  0  0  0  0  0
   20.3912   -5.7779  -14.3524 O   0  0  0  0  0  0  0  0  0  0  0  0
   17.9718   -5.9421  -15.4327 C   0  0  0  0  0  0  0  0  0  0  0  0
   17.6694   -6.0280  -16.6426 O   0  0  0  0  0  0  0  0  0  0  0  0
   21.8549   -7.4465  -14.6912 O   0  0  0  0  0  0  0  0  0  0  0  0
   18.2362   -4.6958  -14.8956 O   0  0  0  0  0  0  0  0  0  0  0  0
  2  1  1  0
  2  3  1  0
  3  4  1  1
  5  3  1  0
  5  6  1  6
  7  5  1  0
  7  8  2  0
  9 10  1  0
  9  7  1  0
 11 12  1  0
 10 11  1  1
 13 10  1  0
 13 14  2  0
 15 13  1  0
 16 15  1  0
 16 20  1  0
 16 17  1  6
 18 17  1  0
 18 22  1  0
 19 18  2  0
 20 21  2  0
 20 23  1  0
M  END
$$$$
