ICD.pdb
     RDKit          3D

 23 22  0  0  1  0  0  0  0  0999 V2000
   17.4793  -10.7572  -20.4829 C   0  0  0  0  0  0  0  0  0  0  0  0
   18.7084  -11.3429  -19.8592 C   0  0  0  0  0  0  0  0  0  0  0  0
   19.1053  -10.6843  -18.5604 C   0  0  2  0  0  0  0  0  0  0  0  0
   19.4846   -9.2369  -18.7934 C   0  0  0  0  0  0  0  0  0  0  0  0
   20.3044  -11.3616  -17.9313 C   0  0  2  0  0  0  0  0  0  0  0  0
   19.9476  -12.7396  -17.7041 N   0  0  0  0  0  0  0  0  0  0  0  0
   20.7295  -10.6851  -16.6794 C   0  0  0  0  0  0  0  0  0  0  0  0
   19.9906  -10.8459  -15.6748 O   0  0  0  0  0  0  0  0  0  0  0  0
   21.8711   -9.9002  -16.5497 N   0  0  0  0  0  0  0  0  0  0  0  0
   22.3302   -9.2662  -15.3069 C   0  0  1  0  0  0  0  0  0  0  0  0
   23.7544   -9.6691  -15.0276 C   0  0  0  0  0  0  0  0  0  0  0  0
   23.7932  -11.2888  -14.2485 S   0  0  0  0  0  0  0  0  0  0  0  0
   22.1232   -7.8247  -15.5108 C   0  0  0  0  0  0  0  0  0  0  0  0
   22.4463   -7.2653  -16.5961 O   0  0  0  0  0  0  0  0  0  0  0  0
   21.5600   -7.0270  -14.5128 N   0  0  0  0  0  0  0  0  0  0  0  0
   21.4376   -5.5774  -14.6153 C   0  0  1  0  0  0  0  0  0  0  0  0
   19.9815   -5.2354  -14.4205 C   0  0  0  0  0  0  0  0  0  0  0  0
   19.1843   -5.3050  -15.6676 C   0  0  0  0  0  0  0  0  0  0  0  0
   19.7782   -5.4537  -16.7760 O   0  0  0  0  0  0  0  0  0  0  0  0
   22.3075   -4.8779  -13.6740 C   0  0  0  0  0  0  0  0  0  0  0  0
   22.5065   -3.6482  -13.7786 O   0  0  0  0  0  0  0  0  0  0  0  0
   17.8052   -5.2180  -15.7306 O   0  0  0  0  0  0  0  0  0  0  0  0
   22.9254   -5.5712  -12.6497 O   0  0  0  0  0  0  0  0  0  0  0  0
  2  1  1  0
  2  3  1  0
  3  4  1  6
  5  3  1  0
  5  6  1  1
  7  5  1  0
  7  8  2  0
  9 10  1  0
  9  7  1  0
 11 12  1  0
 10 11  1  6
 13 10  1  0
 13 14  2  0
 15 13  1  0
 16 15  1  0
 16 20  1  0
 16 17  1  1
 18 17  1  0
 18 22  1  0
 19 18  2  0
 20 21  2  0
 20 23  1  0
M  END
$$$$
