ICD.pdb
     RDKit          3D

 23 22  0  0  1  0  0  0  0  0999 V2000
   28.1717  -16.7236  -17.2397 C   0  0  0  0  0  0  0  0  0  0  0  0
   27.5541  -15.7061  -16.3309 C   0  0  0  0  0  0  0  0  0  0  0  0
   26.2725  -15.1123  -16.8629 C   0  0  2  0  0  0  0  0  0  0  0  0
   26.4999  -14.4936  -18.2263 C   0  0  0  0  0  0  0  0  0  0  0  0
   25.7446  -14.0171  -15.9608 C   0  0  2  0  0  0  0  0  0  0  0  0
   25.6368  -14.5698  -14.6339 N   0  0  0  0  0  0  0  0  0  0  0  0
   24.4478  -13.4779  -16.4441 C   0  0  0  0  0  0  0  0  0  0  0  0
   24.4740  -12.8344  -17.5240 O   0  0  0  0  0  0  0  0  0  0  0  0
   23.2295  -13.6365  -15.7908 N   0  0  0  0  0  0  0  0  0  0  0  0
   21.9410  -13.1051  -16.2542 C   0  0  1  0  0  0  0  0  0  0  0  0
   20.8277  -14.0203  -15.8164 C   0  0  0  0  0  0  0  0  0  0  0  0
   19.2610  -13.1389  -15.8446 S   0  0  0  0  0  0  0  0  0  0  0  0
   21.8700  -11.7402  -15.7118 C   0  0  0  0  0  0  0  0  0  0  0  0
   22.3074  -11.4721  -14.5578 O   0  0  0  0  0  0  0  0  0  0  0  0
   21.3193  -10.6946  -16.4556 N   0  0  0  0  0  0  0  0  0  0  0  0
   21.1982   -9.3295  -15.9568 C   0  0  1  0  0  0  0  0  0  0  0  0
   21.6865   -8.4087  -17.0470 C   0  0  0  0  0  0  0  0  0  0  0  0
   21.6849   -6.9784  -16.6597 C   0  0  0  0  0  0  0  0  0  0  0  0
   21.2821   -6.6488  -15.5054 O   0  0  0  0  0  0  0  0  0  0  0  0
   19.8397   -9.0139  -15.5244 C   0  0  0  0  0  0  0  0  0  0  0  0
   18.8511   -9.4132  -16.1771 O   0  0  0  0  0  0  0  0  0  0  0  0
   22.0964   -5.9382  -17.4735 O   0  0  0  0  0  0  0  0  0  0  0  0
   19.6291   -8.2652  -14.3813 O   0  0  0  0  0  0  0  0  0  0  0  0
  2  1  1  0
  2  3  1  0
  3  4  1  6
  5  3  1  0
  5  6  1  1
  7  5  1  0
  7  8  2  0
  9 10  1  0
  9  7  1  0
 11 12  1  0
 10 11  1  1
 13 10  1  0
 13 14  2  0
 15 13  1  0
 16 15  1  0
 16 20  1  0
 16 17  1  6
 18 17  1  0
 18 22  1  0
 19 18  2  0
 20 21  2  0
 20 23  1  0
M  END
$$$$
