ICD.pdb
     RDKit          3D

 23 22  0  0  1  0  0  0  0  0999 V2000
   21.1770  -13.7772  -17.2207 C   0  0  0  0  0  0  0  0  0  0  0  0
   22.5490  -13.2205  -17.4455 C   0  0  0  0  0  0  0  0  0  0  0  0
   22.8680  -12.0210  -16.5867 C   0  0  2  0  0  0  0  0  0  0  0  0
   21.9073  -10.8877  -16.8796 C   0  0  0  0  0  0  0  0  0  0  0  0
   24.2644  -11.4983  -16.8492 C   0  0  2  0  0  0  0  0  0  0  0  0
   25.1900  -12.4390  -16.2693 N   0  0  0  0  0  0  0  0  0  0  0  0
   24.4542  -10.1282  -16.3083 C   0  0  0  0  0  0  0  0  0  0  0  0
   24.7336  -10.0404  -15.0855 O   0  0  0  0  0  0  0  0  0  0  0  0
   24.3449   -8.9585  -17.0538 N   0  0  0  0  0  0  0  0  0  0  0  0
   24.5210   -7.5974  -16.5306 C   0  0  1  0  0  0  0  0  0  0  0  0
   25.5199   -6.8533  -17.3775 C   0  0  0  0  0  0  0  0  0  0  0  0
   25.6979   -5.1674  -16.7790 S   0  0  0  0  0  0  0  0  0  0  0  0
   23.1708   -7.0151  -16.5103 C   0  0  0  0  0  0  0  0  0  0  0  0
   22.3762   -7.1739  -17.4790 O   0  0  0  0  0  0  0  0  0  0  0  0
   22.7214   -6.2699  -15.4184 N   0  0  0  0  0  0  0  0  0  0  0  0
   21.4377   -5.5783  -15.3904 C   0  0  1  0  0  0  0  0  0  0  0  0
   20.3640   -6.6303  -15.2664 C   0  0  0  0  0  0  0  0  0  0  0  0
   18.9981   -6.0708  -15.1359 C   0  0  0  0  0  0  0  0  0  0  0  0
   18.8241   -4.8231  -15.2636 O   0  0  0  0  0  0  0  0  0  0  0  0
   21.3675   -4.5791  -14.3280 C   0  0  0  0  0  0  0  0  0  0  0  0
   20.3396   -3.8858  -14.1681 O   0  0  0  0  0  0  0  0  0  0  0  0
   17.8604   -6.8139  -14.8775 O   0  0  0  0  0  0  0  0  0  0  0  0
   22.4434   -4.3863  -13.4813 O   0  0  0  0  0  0  0  0  0  0  0  0
  2  1  1  0
  2  3  1  0
  3  4  1  6
  5  3  1  0
  5  6  1  1
  7  5  1  0
  7  8  2  0
  9 10  1  0
  9  7  1  0
 11 12  1  0
 10 11  1  6
 13 10  1  0
 13 14  2  0
 15 13  1  0
 16 15  1  0
 16 20  1  0
 16 17  1  1
 18 17  1  0
 18 22  1  0
 19 18  2  0
 20 21  2  0
 20 23  1  0
M  END
$$$$
