ICD.pdb
     RDKit          3D

 23 22  0  0  1  0  0  0  0  0999 V2000
   17.8925  -14.6556  -18.1796 C   0  0  0  0  0  0  0  0  0  0  0  0
   18.5321  -13.3342  -18.4754 C   0  0  0  0  0  0  0  0  0  0  0  0
   19.2094  -12.7046  -17.2826 C   0  0  2  0  0  0  0  0  0  0  0  0
   18.1846  -12.0830  -16.3570 C   0  0  0  0  0  0  0  0  0  0  0  0
   20.1615  -11.6020  -17.6951 C   0  0  2  0  0  0  0  0  0  0  0  0
   21.1685  -12.1983  -18.5367 N   0  0  0  0  0  0  0  0  0  0  0  0
   20.7562  -10.9149  -16.5204 C   0  0  0  0  0  0  0  0  0  0  0  0
   19.9845  -10.6815  -15.5555 O   0  0  0  0  0  0  0  0  0  0  0  0
   22.0870  -10.5209  -16.4213 N   0  0  0  0  0  0  0  0  0  0  0  0
   22.6644   -9.7477  -15.3140 C   0  0  1  0  0  0  0  0  0  0  0  0
   24.1492   -9.9916  -15.2447 C   0  0  0  0  0  0  0  0  0  0  0  0
   24.4790  -11.5323  -14.3791 S   0  0  0  0  0  0  0  0  0  0  0  0
   22.2776   -8.3533  -15.5752 C   0  0  0  0  0  0  0  0  0  0  0  0
   22.3483   -7.8623  -16.7367 O   0  0  0  0  0  0  0  0  0  0  0  0
   21.8165   -7.5266  -14.5488 N   0  0  0  0  0  0  0  0  0  0  0  0
   21.4807   -6.1201  -14.7383 C   0  0  1  0  0  0  0  0  0  0  0  0
   19.9763   -6.0127  -14.7268 C   0  0  0  0  0  0  0  0  0  0  0  0
   19.4800   -4.6244  -14.8744 C   0  0  0  0  0  0  0  0  0  0  0  0
   20.1082   -3.8171  -15.6207 O   0  0  0  0  0  0  0  0  0  0  0  0
   22.1109   -5.2588  -13.7418 C   0  0  0  0  0  0  0  0  0  0  0  0
   22.4381   -5.7083  -12.6222 O   0  0  0  0  0  0  0  0  0  0  0  0
   18.3564   -4.1154  -14.2483 O   0  0  0  0  0  0  0  0  0  0  0  0
   22.3545   -3.9278  -14.0260 O   0  0  0  0  0  0  0  0  0  0  0  0
  2  1  1  0
  2  3  1  0
  3  4  1  1
  5  3  1  0
  5  6  1  6
  7  5  1  0
  7  8  2  0
  9 10  1  0
  9  7  1  0
 11 12  1  0
 10 11  1  6
 13 10  1  0
 13 14  2  0
 15 13  1  0
 16 15  1  0
 16 20  1  0
 16 17  1  1
 18 17  1  0
 18 22  1  0
 19 18  2  0
 20 21  2  0
 20 23  1  0
M  END
$$$$
