ICD.pdb
     RDKit          3D

 23 22  0  0  1  0  0  0  0  0999 V2000
   15.0591  -13.2151  -11.8456 C   0  0  0  0  0  0  0  0  0  0  0  0
   14.6582  -12.4278  -10.6364 C   0  0  0  0  0  0  0  0  0  0  0  0
   14.8967  -10.9433  -10.7693 C   0  0  2  0  0  0  0  0  0  0  0  0
   16.3768  -10.6535  -10.9046 C   0  0  0  0  0  0  0  0  0  0  0  0
   14.4051  -10.1850   -9.5547 C   0  0  2  0  0  0  0  0  0  0  0  0
   13.0193  -10.5333   -9.3641 N   0  0  0  0  0  0  0  0  0  0  0  0
   14.5932   -8.7192   -9.7028 C   0  0  0  0  0  0  0  0  0  0  0  0
   13.9328   -8.1569  -10.6131 O   0  0  0  0  0  0  0  0  0  0  0  0
   15.4370   -7.9437   -8.9137 N   0  0  0  0  0  0  0  0  0  0  0  0
   15.6860   -6.5073   -9.0928 C   0  0  1  0  0  0  0  0  0  0  0  0
   15.4509   -5.7853   -7.7919 C   0  0  0  0  0  0  0  0  0  0  0  0
   13.7093   -5.8617   -7.3528 S   0  0  0  0  0  0  0  0  0  0  0  0
   17.0588   -6.4163   -9.6120 C   0  0  0  0  0  0  0  0  0  0  0  0
   18.0503   -6.7322   -8.8964 O   0  0  0  0  0  0  0  0  0  0  0  0
   17.3116   -5.9806  -10.9142 N   0  0  0  0  0  0  0  0  0  0  0  0
   18.6444   -5.9429  -11.5052 C   0  0  1  0  0  0  0  0  0  0  0  0
   19.1759   -7.3545  -11.5036 C   0  0  0  0  0  0  0  0  0  0  0  0
   20.4696   -7.5015  -12.2108 C   0  0  0  0  0  0  0  0  0  0  0  0
   21.3883   -6.6545  -12.0061 O   0  0  0  0  0  0  0  0  0  0  0  0
   18.6451   -5.3462  -12.8379 C   0  0  0  0  0  0  0  0  0  0  0  0
   19.7095   -4.9543  -13.3633 O   0  0  0  0  0  0  0  0  0  0  0  0
   20.7721   -8.5134  -13.1041 O   0  0  0  0  0  0  0  0  0  0  0  0
   17.4615   -5.2064  -13.5388 O   0  0  0  0  0  0  0  0  0  0  0  0
  2  1  1  0
  2  3  1  0
  3  4  1  1
  5  3  1  0
  5  6  1  6
  7  5  1  0
  7  8  2  0
  9 10  1  0
  9  7  1  0
 11 12  1  0
 10 11  1  1
 13 10  1  0
 13 14  2  0
 15 13  1  0
 16 15  1  0
 16 20  1  0
 16 17  1  6
 18 17  1  0
 18 22  1  0
 19 18  2  0
 20 21  2  0
 20 23  1  0
M  END
$$$$
