ICD.pdb
     RDKit          3D

 23 22  0  0  1  0  0  0  0  0999 V2000
   27.9179  -17.1011  -17.2316 C   0  0  0  0  0  0  0  0  0  0  0  0
   28.6020  -18.3898  -16.8940 C   0  0  0  0  0  0  0  0  0  0  0  0
   27.6758  -19.4438  -16.3380 C   0  0  2  0  0  0  0  0  0  0  0  0
   26.4463  -19.5840  -17.2108 C   0  0  0  0  0  0  0  0  0  0  0  0
   27.1945  -19.0904  -14.9467 C   0  0  2  0  0  0  0  0  0  0  0  0
   28.3578  -18.7613  -14.1617 N   0  0  0  0  0  0  0  0  0  0  0  0
   26.4069  -20.1918  -14.3363 C   0  0  0  0  0  0  0  0  0  0  0  0
   25.7252  -20.8979  -15.1222 O   0  0  0  0  0  0  0  0  0  0  0  0
   26.3761  -20.4863  -12.9767 N   0  0  0  0  0  0  0  0  0  0  0  0
   25.3929  -21.3559  -12.3174 C   0  0  1  0  0  0  0  0  0  0  0  0
   25.8095  -21.6028  -10.8911 C   0  0  0  0  0  0  0  0  0  0  0  0
   25.7727  -20.0624   -9.9649 S   0  0  0  0  0  0  0  0  0  0  0  0
   24.1031  -20.6675  -12.4753 C   0  0  0  0  0  0  0  0  0  0  0  0
   24.0303  -19.4067  -12.4690 O   0  0  0  0  0  0  0  0  0  0  0  0
   22.9166  -21.3846  -12.6404 N   0  0  0  0  0  0  0  0  0  0  0  0
   21.6181  -20.7541  -12.8491 C   0  0  1  0  0  0  0  0  0  0  0  0
   21.7463  -19.8503  -14.0498 C   0  0  0  0  0  0  0  0  0  0  0  0
   20.4599  -19.2583  -14.4860 C   0  0  0  0  0  0  0  0  0  0  0  0
   19.7890  -18.5613  -13.6690 O   0  0  0  0  0  0  0  0  0  0  0  0
   20.5428  -21.7310  -12.9962 C   0  0  0  0  0  0  0  0  0  0  0  0
   20.7481  -22.8296  -13.5562 O   0  0  0  0  0  0  0  0  0  0  0  0
   19.9086  -19.4051  -15.7462 O   0  0  0  0  0  0  0  0  0  0  0  0
   19.2772  -21.4509  -12.5151 O   0  0  0  0  0  0  0  0  0  0  0  0
  2  1  1  0
  2  3  1  0
  3  4  1  6
  5  3  1  0
  5  6  1  1
  7  5  1  0
  7  8  2  0
  9 10  1  0
  9  7  1  0
 11 12  1  0
 10 11  1  1
 13 10  1  0
 13 14  2  0
 15 13  1  0
 16 15  1  0
 16 20  1  0
 16 17  1  6
 18 17  1  0
 18 22  1  0
 19 18  2  0
 20 21  2  0
 20 23  1  0
M  END
$$$$
