ICD.pdb
     RDKit          3D

 23 22  0  0  1  0  0  0  0  0999 V2000
   16.1152  -29.5080   -1.6546 C   0  0  0  0  0  0  0  0  0  0  0  0
   16.8341  -28.2208   -1.3919 C   0  0  0  0  0  0  0  0  0  0  0  0
   17.8185  -28.2948   -0.2502 C   0  0  2  0  0  0  0  0  0  0  0  0
   17.1205  -28.7152    1.0262 C   0  0  0  0  0  0  0  0  0  0  0  0
   18.4668  -26.9535    0.0196 C   0  0  2  0  0  0  0  0  0  0  0  0
   19.1529  -26.5592   -1.1853 N   0  0  0  0  0  0  0  0  0  0  0  0
   19.3827  -27.0055    1.1876 C   0  0  0  0  0  0  0  0  0  0  0  0
   20.3463  -27.8096    1.1110 O   0  0  0  0  0  0  0  0  0  0  0  0
   19.2453  -26.2360    2.3387 N   0  0  0  0  0  0  0  0  0  0  0  0
   20.1632  -26.2501    3.4853 C   0  0  1  0  0  0  0  0  0  0  0  0
   20.4164  -24.8399    3.9501 C   0  0  0  0  0  0  0  0  0  0  0  0
   21.7886  -24.1276    3.0327 S   0  0  0  0  0  0  0  0  0  0  0  0
   19.5236  -27.1243    4.4797 C   0  0  0  0  0  0  0  0  0  0  0  0
   18.2664  -27.1845    4.5844 O   0  0  0  0  0  0  0  0  0  0  0  0
   20.2846  -27.9190    5.3393 N   0  0  0  0  0  0  0  0  0  0  0  0
   19.7040  -28.7844    6.3596 C   0  0  1  0  0  0  0  0  0  0  0  0
   20.2083  -30.1824    6.1019 C   0  0  0  0  0  0  0  0  0  0  0  0
   19.6143  -31.2015    6.9987 C   0  0  0  0  0  0  0  0  0  0  0  0
   18.7207  -30.8546    7.8260 O   0  0  0  0  0  0  0  0  0  0  0  0
   19.9993  -28.3236    7.7133 C   0  0  0  0  0  0  0  0  0  0  0  0
   20.8258  -27.4069    7.9115 O   0  0  0  0  0  0  0  0  0  0  0  0
   19.9612  -32.5405    7.0136 O   0  0  0  0  0  0  0  0  0  0  0  0
   19.3647  -28.8991    8.7986 O   0  0  0  0  0  0  0  0  0  0  0  0
  2  1  1  0
  2  3  1  0
  3  4  1  1
  5  3  1  0
  5  6  1  6
  7  5  1  0
  7  8  2  0
  9 10  1  0
  9  7  1  0
 11 12  1  0
 10 11  1  1
 13 10  1  0
 13 14  2  0
 15 13  1  0
 16 15  1  0
 16 20  1  0
 16 17  1  1
 18 17  1  0
 18 22  1  0
 19 18  2  0
 20 21  2  0
 20 23  1  0
M  END
$$$$
