WVY.pdb
     RDKit          3D

 34 36  0  0  1  0  0  0  0  0999 V2000
    5.6434  -17.4496   24.0254 N   0  0  0  0  0  0  0  0  0  0  0  0
    6.4381  -16.3319   23.6197 C   0  0  1  0  0  0  0  0  0  0  0  0
    7.4381  -15.8764   24.6367 C   0  0  0  0  0  0  0  0  0  0  0  0
    6.8622  -15.0105   25.6947 C   0  0  0  0  0  0  0  0  0  0  0  0
    5.9441  -15.3267   26.6693 C   0  0  0  0  0  0  0  0  0  0  0  0
    5.7001  -14.2532   27.4171 N   0  0  0  0  0  0  0  0  0  0  0  0
    6.4334  -13.1983   26.9771 C   0  0  0  0  0  0  0  0  0  0  0  0
    6.5473  -11.8906   27.3911 C   0  0  0  0  0  0  0  0  0  0  0  0
    7.3996  -11.0274   26.7261 C   0  0  0  0  0  0  0  0  0  0  0  0
    8.1315  -11.4868   25.6487 C   0  0  0  0  0  0  0  0  0  0  0  0
    7.9973  -12.7963   25.2586 C   0  0  0  0  0  0  0  0  0  0  0  0
    7.1535  -13.6709   25.9085 C   0  0  0  0  0  0  0  0  0  0  0  0
    7.1761  -16.6299   22.3655 C   0  0  0  0  0  0  0  0  0  0  0  0
    6.5596  -16.9606   21.3205 O   0  0  0  0  0  0  0  0  0  0  0  0
    8.8878  -13.9533   21.5905 C   0  0  0  0  0  0  0  0  0  0  0  0
    8.6743  -15.0069   20.5185 C   0  0  2  0  0  0  0  0  0  0  0  0
    7.1782  -15.1513   20.2936 C   0  0  0  0  0  0  0  0  0  0  0  0
    9.2327  -16.3082   21.0539 C   0  0  2  0  0  0  0  0  0  0  0  0
    8.5986  -16.5386   22.3515 N   0  0  0  0  0  0  0  0  0  0  0  0
   10.7108  -16.1449   21.2263 C   0  0  0  0  0  0  0  0  0  0  0  0
   11.4015  -15.3948   20.4911 O   0  0  0  0  0  0  0  0  0  0  0  0
    9.9010  -16.0112   29.1054 O   0  0  0  0  0  0  0  0  0  0  0  0
   10.3295  -15.7791   27.8027 C   0  0  0  0  0  0  0  0  0  0  0  0
   10.9803  -16.7521   27.1121 C   0  0  0  0  0  0  0  0  0  0  0  0
   11.4089  -16.5168   25.8059 C   0  0  0  0  0  0  0  0  0  0  0  0
   11.2032  -15.3189   25.1600 C   0  0  0  0  0  0  0  0  0  0  0  0
   11.6436  -15.0361   23.7934 C   0  0  0  0  0  0  0  0  0  0  0  0
   12.3516  -16.1847   23.1351 C   0  0  2  0  0  0  0  0  0  0  0  0
   11.3911  -16.8524   22.2538 N   0  0  0  0  0  0  0  0  0  0  0  0
   12.8778  -17.1675   24.0875 C   0  0  0  0  0  0  0  0  0  0  0  0
   13.8257  -16.8563   24.8440 O   0  0  0  0  0  0  0  0  0  0  0  0
   10.5335  -14.3304   25.8830 C   0  0  0  0  0  0  0  0  0  0  0  0
   10.1115  -14.5662   27.1730 C   0  0  0  0  0  0  0  0  0  0  0  0
   12.3473  -18.4314   24.1673 O   0  0  0  0  0  0  0  0  0  0  0  0
  2  1  1  1
  2 13  1  0
  2  3  1  0
  4  3  1  0
  4  5  2  0
  6  5  1  0
  7  6  1  0
  8  7  2  0
  9  8  1  0
 10  9  2  0
 10 11  1  0
 11 12  2  0
 12  7  1  0
 12  4  1  0
 13 19  1  0
 14 13  2  0
 16 15  1  1
 17 16  1  0
 18 16  1  0
 18 19  1  1
 20 21  2  0
 20 18  1  0
 22 23  1  0
 23 24  2  0
 23 33  1  0
 24 25  1  0
 25 26  2  0
 26 27  1  0
 28 27  1  1
 28 29  1  0
 29 20  1  0
 30 28  1  0
 30 34  1  0
 31 30  2  0
 32 26  1  0
 33 32  2  0
M  END
$$$$
