WVY.pdb
     RDKit          3D

 34 36  0  0  1  0  0  0  0  0999 V2000
    6.3231  -18.4763   24.3853 N   0  0  0  0  0  0  0  0  0  0  0  0
    6.6732  -17.0922   24.3015 C   0  0  1  0  0  0  0  0  0  0  0  0
    7.3875  -16.5561   25.5033 C   0  0  0  0  0  0  0  0  0  0  0  0
    6.6635  -15.4568   26.1875 C   0  0  0  0  0  0  0  0  0  0  0  0
    5.4962  -15.5076   26.9136 C   0  0  0  0  0  0  0  0  0  0  0  0
    5.1942  -14.2901   27.3582 N   0  0  0  0  0  0  0  0  0  0  0  0
    6.1325  -13.3962   26.9522 C   0  0  0  0  0  0  0  0  0  0  0  0
    6.2865  -12.0411   27.1372 C   0  0  0  0  0  0  0  0  0  0  0  0
    7.3746  -11.3882   26.5861 C   0  0  0  0  0  0  0  0  0  0  0  0
    8.3002  -12.1043   25.8526 C   0  0  0  0  0  0  0  0  0  0  0  0
    8.1203  -13.4551   25.6850 C   0  0  0  0  0  0  0  0  0  0  0  0
    7.0429  -14.1228   26.2262 C   0  0  0  0  0  0  0  0  0  0  0  0
    7.5287  -16.8297   23.1158 C   0  0  0  0  0  0  0  0  0  0  0  0
    8.0306  -17.7801   22.4629 O   0  0  0  0  0  0  0  0  0  0  0  0
    6.7428  -13.7820   20.7012 C   0  0  0  0  0  0  0  0  0  0  0  0
    8.2265  -13.8731   21.0101 C   0  0  2  0  0  0  0  0  0  0  0  0
    8.9911  -13.5905   19.7274 C   0  0  0  0  0  0  0  0  0  0  0  0
    8.5025  -15.2916   21.4608 C   0  0  2  0  0  0  0  0  0  0  0  0
    7.7804  -15.4842   22.7180 N   0  0  0  0  0  0  0  0  0  0  0  0
    9.9758  -15.4297   21.6884 C   0  0  0  0  0  0  0  0  0  0  0  0
   10.8275  -15.1648   20.8026 O   0  0  0  0  0  0  0  0  0  0  0  0
    9.3598  -14.8413   29.0451 O   0  0  0  0  0  0  0  0  0  0  0  0
   10.0320  -15.3113   27.9218 C   0  0  0  0  0  0  0  0  0  0  0  0
   10.9884  -14.5503   27.3275 C   0  0  0  0  0  0  0  0  0  0  0  0
   11.6610  -15.0240   26.2012 C   0  0  0  0  0  0  0  0  0  0  0  0
   11.4014  -16.2550   25.6429 C   0  0  0  0  0  0  0  0  0  0  0  0
   12.0834  -16.7809   24.4598 C   0  0  0  0  0  0  0  0  0  0  0  0
   11.8994  -15.9393   23.2302 C   0  0  2  0  0  0  0  0  0  0  0  0
   10.4640  -15.8757   22.9461 N   0  0  0  0  0  0  0  0  0  0  0  0
   12.5889  -16.4724   22.0511 C   0  0  0  0  0  0  0  0  0  0  0  0
   11.9255  -16.8444   21.0565 O   0  0  0  0  0  0  0  0  0  0  0  0
   10.4165  -17.0240   26.2651 C   0  0  0  0  0  0  0  0  0  0  0  0
    9.7543  -16.5530   27.3775 C   0  0  0  0  0  0  0  0  0  0  0  0
   13.9578  -16.5718   22.0154 O   0  0  0  0  0  0  0  0  0  0  0  0
  2  1  1  1
  2 13  1  0
  2  3  1  0
  4  3  1  0
  4  5  2  0
  6  5  1  0
  7  6  1  0
  8  7  2  0
  9  8  1  0
 10  9  2  0
 10 11  1  0
 11 12  2  0
 12  7  1  0
 12  4  1  0
 13 19  1  0
 14 13  2  0
 16 15  1  6
 17 16  1  0
 18 16  1  0
 18 19  1  1
 20 21  2  0
 20 18  1  0
 22 23  1  0
 23 24  2  0
 23 33  1  0
 24 25  1  0
 25 26  2  0
 26 27  1  0
 28 27  1  1
 28 29  1  0
 29 20  1  0
 30 28  1  0
 30 34  1  0
 31 30  2  0
 32 26  1  0
 33 32  2  0
M  END
$$$$
