WVY.pdb
     RDKit          3D

 34 36  0  0  1  0  0  0  0  0999 V2000
    8.8979  -14.2418   24.0083 N   0  0  0  0  0  0  0  0  0  0  0  0
    8.5579  -15.6014   23.7235 C   0  0  1  0  0  0  0  0  0  0  0  0
    7.3443  -16.1041   24.4422 C   0  0  0  0  0  0  0  0  0  0  0  0
    6.8206  -15.1617   25.4614 C   0  0  0  0  0  0  0  0  0  0  0  0
    5.6329  -15.2063   26.1543 C   0  0  0  0  0  0  0  0  0  0  0  0
    5.5573  -14.1630   26.9770 N   0  0  0  0  0  0  0  0  0  0  0  0
    6.6725  -13.3960   26.8660 C   0  0  0  0  0  0  0  0  0  0  0  0
    7.0830  -12.2342   27.4792 C   0  0  0  0  0  0  0  0  0  0  0  0
    8.3040  -11.6735   27.1495 C   0  0  0  0  0  0  0  0  0  0  0  0
    9.1033  -12.2865   26.2047 C   0  0  0  0  0  0  0  0  0  0  0  0
    8.6675  -13.4447   25.6097 C   0  0  0  0  0  0  0  0  0  0  0  0
    7.4545  -14.0180   25.9250 C   0  0  0  0  0  0  0  0  0  0  0  0
    8.3337  -15.8013   22.2687 C   0  0  0  0  0  0  0  0  0  0  0  0
    7.9748  -16.9208   21.8220 O   0  0  0  0  0  0  0  0  0  0  0  0
    9.0344  -12.6521   19.6109 C   0  0  0  0  0  0  0  0  0  0  0  0
    8.1262  -13.7976   19.2014 C   0  0  2  0  0  0  0  0  0  0  0  0
    6.7106  -13.4516   19.6330 C   0  0  0  0  0  0  0  0  0  0  0  0
    8.5953  -15.0282   19.9478 C   0  0  2  0  0  0  0  0  0  0  0  0
    8.5288  -14.7093   21.3736 N   0  0  0  0  0  0  0  0  0  0  0  0
   10.0118  -15.3032   19.5486 C   0  0  0  0  0  0  0  0  0  0  0  0
   10.9953  -14.9460   20.2454 O   0  0  0  0  0  0  0  0  0  0  0  0
   14.5437  -17.1207   23.8234 O   0  0  0  0  0  0  0  0  0  0  0  0
   13.7234  -17.3315   22.7200 C   0  0  0  0  0  0  0  0  0  0  0  0
   12.4399  -17.7449   22.8896 C   0  0  0  0  0  0  0  0  0  0  0  0
   11.6195  -17.9555   21.7816 C   0  0  0  0  0  0  0  0  0  0  0  0
   12.0513  -17.7622   20.4890 C   0  0  0  0  0  0  0  0  0  0  0  0
   11.2202  -17.9784   19.3041 C   0  0  0  0  0  0  0  0  0  0  0  0
   11.4048  -16.9390   18.2366 C   0  0  2  0  0  0  0  0  0  0  0  0
   10.2900  -15.9945   18.3387 N   0  0  0  0  0  0  0  0  0  0  0  0
   11.4273  -17.4949   16.8801 C   0  0  0  0  0  0  0  0  0  0  0  0
   12.3512  -18.2679   16.5388 O   0  0  0  0  0  0  0  0  0  0  0  0
   13.3718  -17.3377   20.3321 C   0  0  0  0  0  0  0  0  0  0  0  0
   14.1793  -17.1306   21.4289 C   0  0  0  0  0  0  0  0  0  0  0  0
   10.4476  -17.1829   15.9701 O   0  0  0  0  0  0  0  0  0  0  0  0
  2  1  1  6
  2 13  1  0
  2  3  1  0
  4  3  1  0
  4  5  2  0
  6  5  1  0
  7  6  1  0
  8  7  2  0
  9  8  1  0
 10  9  2  0
 10 11  1  0
 11 12  2  0
 12  7  1  0
 12  4  1  0
 13 19  1  0
 14 13  2  0
 16 15  1  1
 17 16  1  0
 18 16  1  0
 18 19  1  1
 20 21  2  0
 20 18  1  0
 22 23  1  0
 23 24  2  0
 23 33  1  0
 24 25  1  0
 25 26  2  0
 26 27  1  0
 28 27  1  1
 28 29  1  0
 29 20  1  0
 30 28  1  0
 30 34  1  0
 31 30  2  0
 32 26  1  0
 33 32  2  0
M  END
$$$$
