WVY.pdb
     RDKit          3D

 34 36  0  0  1  0  0  0  0  0999 V2000
    6.1544  -18.4507   23.9888 N   0  0  0  0  0  0  0  0  0  0  0  0
    6.6296  -17.1053   23.8917 C   0  0  1  0  0  0  0  0  0  0  0  0
    7.3430  -16.6068   25.1101 C   0  0  0  0  0  0  0  0  0  0  0  0
    6.6543  -15.4803   25.7865 C   0  0  0  0  0  0  0  0  0  0  0  0
    5.4609  -15.4790   26.4708 C   0  0  0  0  0  0  0  0  0  0  0  0
    5.2082  -14.2536   26.9243 N   0  0  0  0  0  0  0  0  0  0  0  0
    6.2063  -13.4055   26.5657 C   0  0  0  0  0  0  0  0  0  0  0  0
    6.4253  -12.0633   26.7778 C   0  0  0  0  0  0  0  0  0  0  0  0
    7.5653  -11.4617   26.2755 C   0  0  0  0  0  0  0  0  0  0  0  0
    8.4771  -12.2157   25.5631 C   0  0  0  0  0  0  0  0  0  0  0  0
    8.2320  -13.5524   25.3674 C   0  0  0  0  0  0  0  0  0  0  0  0
    7.1022  -14.1692   25.8600 C   0  0  0  0  0  0  0  0  0  0  0  0
    7.5493  -16.9470   22.7360 C   0  0  0  0  0  0  0  0  0  0  0  0
    8.0938  -17.9493   22.2065 O   0  0  0  0  0  0  0  0  0  0  0  0
    8.8922  -13.1772   21.5792 C   0  0  0  0  0  0  0  0  0  0  0  0
    8.5308  -14.1677   20.4869 C   0  0  2  0  0  0  0  0  0  0  0  0
    7.0724  -13.9494   20.1190 C   0  0  0  0  0  0  0  0  0  0  0  0
    8.7032  -15.5551   21.0673 C   0  0  2  0  0  0  0  0  0  0  0  0
    7.8142  -15.6427   22.2254 N   0  0  0  0  0  0  0  0  0  0  0  0
   10.1282  -15.7048   21.5013 C   0  0  0  0  0  0  0  0  0  0  0  0
   11.0972  -15.3461   20.7854 O   0  0  0  0  0  0  0  0  0  0  0  0
    9.9458  -14.4703   29.0443 O   0  0  0  0  0  0  0  0  0  0  0  0
   10.3985  -15.1535   27.9204 C   0  0  0  0  0  0  0  0  0  0  0  0
   10.9116  -14.4700   26.8638 C   0  0  0  0  0  0  0  0  0  0  0  0
   11.3648  -15.1575   25.7381 C   0  0  0  0  0  0  0  0  0  0  0  0
   11.3191  -16.5293   25.6360 C   0  0  0  0  0  0  0  0  0  0  0  0
   11.7805  -17.2822   24.4691 C   0  0  0  0  0  0  0  0  0  0  0  0
   11.8153  -16.4761   23.2030 C   0  0  2  0  0  0  0  0  0  0  0  0
   10.4317  -16.2714   22.7685 N   0  0  0  0  0  0  0  0  0  0  0  0
   12.5572  -17.1268   22.1185 C   0  0  0  0  0  0  0  0  0  0  0  0
   11.9580  -17.4780   21.0768 O   0  0  0  0  0  0  0  0  0  0  0  0
   10.7895  -17.2162   26.7297 C   0  0  0  0  0  0  0  0  0  0  0  0
   10.3428  -16.5339   27.8400 C   0  0  0  0  0  0  0  0  0  0  0  0
   13.9063  -17.3596   22.2232 O   0  0  0  0  0  0  0  0  0  0  0  0
  2  1  1  1
  2 13  1  0
  2  3  1  0
  4  3  1  0
  4  5  2  0
  6  5  1  0
  7  6  1  0
  8  7  2  0
  9  8  1  0
 10  9  2  0
 10 11  1  0
 11 12  2  0
 12  7  1  0
 12  4  1  0
 13 19  1  0
 14 13  2  0
 16 15  1  1
 17 16  1  0
 18 16  1  0
 18 19  1  1
 20 21  2  0
 20 18  1  0
 22 23  1  0
 23 24  2  0
 23 33  1  0
 24 25  1  0
 25 26  2  0
 26 27  1  0
 28 27  1  1
 28 29  1  0
 29 20  1  0
 30 28  1  0
 30 34  1  0
 31 30  2  0
 32 26  1  0
 33 32  2  0
M  END
$$$$
