WVY.pdb
     RDKit          3D

 34 36  0  0  1  0  0  0  0  0999 V2000
    6.8135  -17.9307   24.5907 N   0  0  0  0  0  0  0  0  0  0  0  0
    7.8951  -17.0908   24.1786 C   0  0  1  0  0  0  0  0  0  0  0  0
    8.2105  -15.9724   25.1229 C   0  0  0  0  0  0  0  0  0  0  0  0
    7.2522  -14.8422   25.0516 C   0  0  0  0  0  0  0  0  0  0  0  0
    6.1804  -14.5615   25.8672 C   0  0  0  0  0  0  0  0  0  0  0  0
    5.5839  -13.4468   25.4517 N   0  0  0  0  0  0  0  0  0  0  0  0
    6.2239  -12.9502   24.3618 C   0  0  0  0  0  0  0  0  0  0  0  0
    6.0154  -11.8458   23.5674 C   0  0  0  0  0  0  0  0  0  0  0  0
    6.8572  -11.5950   22.4986 C   0  0  0  0  0  0  0  0  0  0  0  0
    7.9033  -12.4580   22.2370 C   0  0  0  0  0  0  0  0  0  0  0  0
    8.0866  -13.5516   23.0468 C   0  0  0  0  0  0  0  0  0  0  0  0
    7.2586  -13.8179   24.1158 C   0  0  0  0  0  0  0  0  0  0  0  0
    9.1387  -17.8797   23.9847 C   0  0  0  0  0  0  0  0  0  0  0  0
    9.0859  -19.0851   23.6302 O   0  0  0  0  0  0  0  0  0  0  0  0
   10.0652  -18.5877   21.6034 C   0  0  0  0  0  0  0  0  0  0  0  0
   11.0716  -17.4967   21.9220 C   0  0  2  0  0  0  0  0  0  0  0  0
   12.2643  -17.6735   20.9968 C   0  0  0  0  0  0  0  0  0  0  0  0
   11.5106  -17.6993   23.3565 C   0  0  2  0  0  0  0  0  0  0  0  0
   10.4030  -17.2591   24.2042 N   0  0  0  0  0  0  0  0  0  0  0  0
   12.7151  -16.8442   23.6002 C   0  0  0  0  0  0  0  0  0  0  0  0
   13.7691  -16.9470   22.9229 O   0  0  0  0  0  0  0  0  0  0  0  0
    8.1506  -14.0720   28.3481 O   0  0  0  0  0  0  0  0  0  0  0  0
    9.3586  -14.6648   27.9962 C   0  0  0  0  0  0  0  0  0  0  0  0
    9.4485  -16.0152   27.8721 C   0  0  0  0  0  0  0  0  0  0  0  0
   10.6611  -16.6071   27.5190 C   0  0  0  0  0  0  0  0  0  0  0  0
   11.8040  -15.8774   27.2830 C   0  0  0  0  0  0  0  0  0  0  0  0
   13.0930  -16.4653   26.9162 C   0  0  0  0  0  0  0  0  0  0  0  0
   13.7101  -15.8558   25.6907 C   0  0  2  0  0  0  0  0  0  0  0  0
   12.6986  -15.8669   24.6316 N   0  0  0  0  0  0  0  0  0  0  0  0
   14.8957  -16.5761   25.2161 C   0  0  0  0  0  0  0  0  0  0  0  0
   15.9778  -15.9644   25.0661 O   0  0  0  0  0  0  0  0  0  0  0  0
   11.6948  -14.4921   27.4145 C   0  0  0  0  0  0  0  0  0  0  0  0
   10.4955  -13.9108   27.7634 C   0  0  0  0  0  0  0  0  0  0  0  0
   14.8427  -17.9183   24.9316 O   0  0  0  0  0  0  0  0  0  0  0  0
  2  1  1  1
  2 13  1  0
  2  3  1  0
  4  3  1  0
  4  5  2  0
  6  5  1  0
  7  6  1  0
  8  7  2  0
  9  8  1  0
 10  9  2  0
 10 11  1  0
 11 12  2  0
 12  7  1  0
 12  4  1  0
 13 19  1  0
 14 13  2  0
 16 15  1  6
 17 16  1  0
 18 16  1  0
 18 19  1  1
 20 21  2  0
 20 18  1  0
 22 23  1  0
 23 24  2  0
 23 33  1  0
 24 25  1  0
 25 26  2  0
 26 27  1  0
 28 27  1  1
 28 29  1  0
 29 20  1  0
 30 28  1  0
 30 34  1  0
 31 30  2  0
 32 26  1  0
 33 32  2  0
M  END
$$$$
