WVY.pdb
     RDKit          3D

 34 36  0  0  1  0  0  0  0  0999 V2000
    6.1993  -18.5477   24.4276 N   0  0  0  0  0  0  0  0  0  0  0  0
    6.6456  -17.1895   24.3884 C   0  0  1  0  0  0  0  0  0  0  0  0
    7.2991  -16.7116   25.6480 C   0  0  0  0  0  0  0  0  0  0  0  0
    6.5566  -15.6235   26.3304 C   0  0  0  0  0  0  0  0  0  0  0  0
    5.3752  -15.6879   27.0324 C   0  0  0  0  0  0  0  0  0  0  0  0
    5.0590  -14.4770   27.4851 N   0  0  0  0  0  0  0  0  0  0  0  0
    6.0012  -13.5745   27.1085 C   0  0  0  0  0  0  0  0  0  0  0  0
    6.1455  -12.2209   27.3124 C   0  0  0  0  0  0  0  0  0  0  0  0
    7.2414  -11.5570   26.7909 C   0  0  0  0  0  0  0  0  0  0  0  0
    8.1846  -12.2604   26.0678 C   0  0  0  0  0  0  0  0  0  0  0  0
    8.0141  -13.6099   25.8807 C   0  0  0  0  0  0  0  0  0  0  0  0
    6.9292  -14.2885   26.3923 C   0  0  0  0  0  0  0  0  0  0  0  0
    7.6054  -16.9758   23.2750 C   0  0  0  0  0  0  0  0  0  0  0  0
    8.3194  -17.9208   22.8522 O   0  0  0  0  0  0  0  0  0  0  0  0
    6.7299  -14.4032   20.4349 C   0  0  0  0  0  0  0  0  0  0  0  0
    8.1968  -14.2832   20.8073 C   0  0  2  0  0  0  0  0  0  0  0  0
    8.9978  -14.1494   19.5226 C   0  0  0  0  0  0  0  0  0  0  0  0
    8.5845  -15.5650   21.5132 C   0  0  2  0  0  0  0  0  0  0  0  0
    7.7145  -15.6838   22.6828 N   0  0  0  0  0  0  0  0  0  0  0  0
   10.0128  -15.4449   21.9456 C   0  0  0  0  0  0  0  0  0  0  0  0
   10.6999  -14.4124   21.7405 O   0  0  0  0  0  0  0  0  0  0  0  0
   10.3194  -16.3661   29.2430 O   0  0  0  0  0  0  0  0  0  0  0  0
   10.7631  -16.0874   27.9545 C   0  0  0  0  0  0  0  0  0  0  0  0
   10.1818  -15.0958   27.2294 C   0  0  0  0  0  0  0  0  0  0  0  0
   10.6286  -14.8183   25.9377 C   0  0  0  0  0  0  0  0  0  0  0  0
   11.6552  -15.5139   25.3403 C   0  0  0  0  0  0  0  0  0  0  0  0
   12.1456  -15.2532   23.9864 C   0  0  0  0  0  0  0  0  0  0  0  0
   12.0388  -16.4341   23.0655 C   0  0  2  0  0  0  0  0  0  0  0  0
   10.6471  -16.5241   22.6180 N   0  0  0  0  0  0  0  0  0  0  0  0
   12.4119  -17.7025   23.6992 C   0  0  0  0  0  0  0  0  0  0  0  0
   11.5443  -18.5864   23.8826 O   0  0  0  0  0  0  0  0  0  0  0  0
   12.2414  -16.5289   26.0984 C   0  0  0  0  0  0  0  0  0  0  0  0
   11.7975  -16.8002   27.3740 C   0  0  0  0  0  0  0  0  0  0  0  0
   13.7037  -17.9424   24.0980 O   0  0  0  0  0  0  0  0  0  0  0  0
  2  1  1  1
  2 13  1  0
  2  3  1  0
  4  3  1  0
  4  5  2  0
  6  5  1  0
  7  6  1  0
  8  7  2  0
  9  8  1  0
 10  9  2  0
 10 11  1  0
 11 12  2  0
 12  7  1  0
 12  4  1  0
 13 19  1  0
 14 13  2  0
 16 15  1  6
 17 16  1  0
 18 16  1  0
 18 19  1  1
 20 21  2  0
 20 18  1  0
 22 23  1  0
 23 24  2  0
 23 33  1  0
 24 25  1  0
 25 26  2  0
 26 27  1  0
 28 27  1  1
 28 29  1  0
 29 20  1  0
 30 28  1  0
 30 34  1  0
 31 30  2  0
 32 26  1  0
 33 32  2  0
M  END
$$$$
