WVY.pdb
     RDKit          3D

 34 36  0  0  1  0  0  0  0  0999 V2000
    6.2003  -17.4748   25.0900 N   0  0  0  0  0  0  0  0  0  0  0  0
    6.7225  -16.2213   24.6416 C   0  0  1  0  0  0  0  0  0  0  0  0
    7.4073  -15.4162   25.7022 C   0  0  0  0  0  0  0  0  0  0  0  0
    6.5475  -14.3683   26.3053 C   0  0  0  0  0  0  0  0  0  0  0  0
    5.4674  -14.5106   27.1453 C   0  0  0  0  0  0  0  0  0  0  0  0
    4.9815  -13.3107   27.4540 N   0  0  0  0  0  0  0  0  0  0  0  0
    5.7066  -12.3391   26.8420 C   0  0  0  0  0  0  0  0  0  0  0  0
    5.6229  -10.9654   26.8308 C   0  0  0  0  0  0  0  0  0  0  0  0
    6.5281  -10.2244   26.0923 C   0  0  0  0  0  0  0  0  0  0  0  0
    7.5114  -10.8717   25.3701 C   0  0  0  0  0  0  0  0  0  0  0  0
    7.5702  -12.2431   25.4004 C   0  0  0  0  0  0  0  0  0  0  0  0
    6.6775  -12.9981   26.1300 C   0  0  0  0  0  0  0  0  0  0  0  0
    7.6881  -16.4133   23.5293 C   0  0  0  0  0  0  0  0  0  0  0  0
    8.3867  -17.4566   23.4581 O   0  0  0  0  0  0  0  0  0  0  0  0
    7.1725  -14.6158   20.0150 C   0  0  0  0  0  0  0  0  0  0  0  0
    8.6246  -14.5463   20.4525 C   0  0  2  0  0  0  0  0  0  0  0  0
    9.4942  -14.8439   19.2421 C   0  0  0  0  0  0  0  0  0  0  0  0
    8.8281  -15.6223   21.4976 C   0  0  2  0  0  0  0  0  0  0  0  0
    7.8206  -15.4011   22.5344 N   0  0  0  0  0  0  0  0  0  0  0  0
   10.2009  -15.4597   22.0724 C   0  0  0  0  0  0  0  0  0  0  0  0
   10.6470  -14.3508   22.4618 O   0  0  0  0  0  0  0  0  0  0  0  0
    9.2964  -15.5338   28.3510 O   0  0  0  0  0  0  0  0  0  0  0  0
   10.0592  -15.9890   27.2807 C   0  0  0  0  0  0  0  0  0  0  0  0
    9.6143  -17.0165   26.5104 C   0  0  0  0  0  0  0  0  0  0  0  0
   10.3812  -17.4711   25.4378 C   0  0  0  0  0  0  0  0  0  0  0  0
   11.5986  -16.9202   25.1076 C   0  0  0  0  0  0  0  0  0  0  0  0
   12.4311  -17.3750   23.9935 C   0  0  0  0  0  0  0  0  0  0  0  0
   12.3903  -16.4688   22.7972 C   0  0  2  0  0  0  0  0  0  0  0  0
   11.0594  -16.5851   22.1969 N   0  0  0  0  0  0  0  0  0  0  0  0
   13.3947  -16.7995   21.7815 C   0  0  0  0  0  0  0  0  0  0  0  0
   14.6096  -16.6203   22.0251 O   0  0  0  0  0  0  0  0  0  0  0  0
   12.0410  -15.8660   25.9085 C   0  0  0  0  0  0  0  0  0  0  0  0
   11.2809  -15.4195   26.9671 C   0  0  0  0  0  0  0  0  0  0  0  0
   13.0266  -17.3062   20.5596 O   0  0  0  0  0  0  0  0  0  0  0  0
  2  1  1  1
  2 13  1  0
  2  3  1  0
  4  3  1  0
  4  5  2  0
  6  5  1  0
  7  6  1  0
  8  7  2  0
  9  8  1  0
 10  9  2  0
 10 11  1  0
 11 12  2  0
 12  7  1  0
 12  4  1  0
 13 19  1  0
 14 13  2  0
 16 15  1  6
 17 16  1  0
 18 16  1  0
 18 19  1  1
 20 21  2  0
 20 18  1  0
 22 23  1  0
 23 24  2  0
 23 33  1  0
 24 25  1  0
 25 26  2  0
 26 27  1  0
 28 27  1  1
 28 29  1  0
 29 20  1  0
 30 28  1  0
 30 34  1  0
 31 30  2  0
 32 26  1  0
 33 32  2  0
M  END
$$$$
