WVY.pdb
     RDKit          3D

 34 36  0  0  1  0  0  0  0  0999 V2000
    5.8569  -18.3219   24.2845 N   0  0  0  0  0  0  0  0  0  0  0  0
    6.4414  -17.0212   24.1759 C   0  0  1  0  0  0  0  0  0  0  0  0
    7.0777  -16.5168   25.4340 C   0  0  0  0  0  0  0  0  0  0  0  0
    6.2622  -15.5072   26.1527 C   0  0  0  0  0  0  0  0  0  0  0  0
    5.0666  -15.6695   26.8135 C   0  0  0  0  0  0  0  0  0  0  0  0
    4.6767  -14.5034   27.3228 N   0  0  0  0  0  0  0  0  0  0  0  0
    5.5819  -13.5356   27.0259 C   0  0  0  0  0  0  0  0  0  0  0  0
    5.6515  -12.1904   27.3089 C   0  0  0  0  0  0  0  0  0  0  0  0
    6.7263  -11.4447   26.8589 C   0  0  0  0  0  0  0  0  0  0  0  0
    7.7238  -12.0586   26.1271 C   0  0  0  0  0  0  0  0  0  0  0  0
    7.6274  -13.4020   25.8603 C   0  0  0  0  0  0  0  0  0  0  0  0
    6.5646  -14.1612   26.3000 C   0  0  0  0  0  0  0  0  0  0  0  0
    7.4715  -16.9873   23.1063 C   0  0  0  0  0  0  0  0  0  0  0  0
    8.1059  -18.0268   22.7924 O   0  0  0  0  0  0  0  0  0  0  0  0
    8.5451  -13.3852   21.2983 C   0  0  0  0  0  0  0  0  0  0  0  0
    8.3502  -14.6125   20.4262 C   0  0  2  0  0  0  0  0  0  0  0  0
    6.8965  -14.6484   19.9845 C   0  0  0  0  0  0  0  0  0  0  0  0
    8.6472  -15.8227   21.2856 C   0  0  2  0  0  0  0  0  0  0  0  0
    7.7403  -15.7609   22.4314 N   0  0  0  0  0  0  0  0  0  0  0  0
   10.0676  -15.7276   21.7492 C   0  0  0  0  0  0  0  0  0  0  0  0
   10.7955  -14.7316   21.5076 O   0  0  0  0  0  0  0  0  0  0  0  0
   10.6662  -15.8524   29.1229 O   0  0  0  0  0  0  0  0  0  0  0  0
   11.0509  -15.7529   27.7899 C   0  0  0  0  0  0  0  0  0  0  0  0
   10.4560  -14.8459   26.9711 C   0  0  0  0  0  0  0  0  0  0  0  0
   10.8436  -14.7482   25.6349 C   0  0  0  0  0  0  0  0  0  0  0  0
   11.8235  -15.5430   25.0847 C   0  0  0  0  0  0  0  0  0  0  0  0
   12.2511  -15.4712   23.6871 C   0  0  0  0  0  0  0  0  0  0  0  0
   12.0462  -16.7480   22.9243 C   0  0  2  0  0  0  0  0  0  0  0  0
   10.6465  -16.7894   22.4952 N   0  0  0  0  0  0  0  0  0  0  0  0
   12.3318  -17.9501   23.7137 C   0  0  0  0  0  0  0  0  0  0  0  0
   13.4782  -18.1288   24.1842 O   0  0  0  0  0  0  0  0  0  0  0  0
   12.4244  -16.4691   25.9389 C   0  0  0  0  0  0  0  0  0  0  0  0
   12.0390  -16.5629   27.2582 C   0  0  0  0  0  0  0  0  0  0  0  0
   11.3595  -18.8905   23.9495 O   0  0  0  0  0  0  0  0  0  0  0  0
  2  1  1  1
  2 13  1  0
  2  3  1  0
  4  3  1  0
  4  5  2  0
  6  5  1  0
  7  6  1  0
  8  7  2  0
  9  8  1  0
 10  9  2  0
 10 11  1  0
 11 12  2  0
 12  7  1  0
 12  4  1  0
 13 19  1  0
 14 13  2  0
 16 15  1  1
 17 16  1  0
 18 16  1  0
 18 19  1  1
 20 21  2  0
 20 18  1  0
 22 23  1  0
 23 24  2  0
 23 33  1  0
 24 25  1  0
 25 26  2  0
 26 27  1  0
 28 27  1  1
 28 29  1  0
 29 20  1  0
 30 28  1  0
 30 34  1  0
 31 30  2  0
 32 26  1  0
 33 32  2  0
M  END
$$$$
