WVY.pdb
     RDKit          3D

 34 36  0  0  1  0  0  0  0  0999 V2000
    6.1004  -18.5700   24.3282 N   0  0  0  0  0  0  0  0  0  0  0  0
    6.6592  -17.2556   24.2562 C   0  0  1  0  0  0  0  0  0  0  0  0
    7.3451  -16.8006   25.5070 C   0  0  0  0  0  0  0  0  0  0  0  0
    6.6777  -15.6541   26.1710 C   0  0  0  0  0  0  0  0  0  0  0  0
    5.4537  -15.6077   26.7974 C   0  0  0  0  0  0  0  0  0  0  0  0
    5.2367  -14.3794   27.2615 N   0  0  0  0  0  0  0  0  0  0  0  0
    6.2895  -13.5738   26.9673 C   0  0  0  0  0  0  0  0  0  0  0  0
    6.5602  -12.2472   27.2151 C   0  0  0  0  0  0  0  0  0  0  0  0
    7.7501  -11.6921   26.7794 C   0  0  0  0  0  0  0  0  0  0  0  0
    8.6593  -12.4765   26.0972 C   0  0  0  0  0  0  0  0  0  0  0  0
    8.3619  -13.7966   25.8646 C   0  0  0  0  0  0  0  0  0  0  0  0
    7.1821  -14.3672   26.2908 C   0  0  0  0  0  0  0  0  0  0  0  0
    7.6383  -17.1529   23.1438 C   0  0  0  0  0  0  0  0  0  0  0  0
    8.1312  -18.1868   22.6245 O   0  0  0  0  0  0  0  0  0  0  0  0
    6.9436  -14.6154   20.2719 C   0  0  0  0  0  0  0  0  0  0  0  0
    8.3870  -14.5097   20.7303 C   0  0  2  0  0  0  0  0  0  0  0  0
    9.2567  -14.3100   19.5001 C   0  0  0  0  0  0  0  0  0  0  0  0
    8.7426  -15.8237   21.3925 C   0  0  2  0  0  0  0  0  0  0  0  0
    8.0200  -15.8663   22.6634 N   0  0  0  0  0  0  0  0  0  0  0  0
   10.2190  -15.8357   21.6406 C   0  0  0  0  0  0  0  0  0  0  0  0
   11.0242  -15.1312   20.9807 O   0  0  0  0  0  0  0  0  0  0  0  0
    9.8408  -15.4417   29.4589 O   0  0  0  0  0  0  0  0  0  0  0  0
   10.2636  -15.3130   28.1400 C   0  0  0  0  0  0  0  0  0  0  0  0
    9.4062  -14.8623   27.1867 C   0  0  0  0  0  0  0  0  0  0  0  0
    9.8327  -14.7341   25.8650 C   0  0  0  0  0  0  0  0  0  0  0  0
   11.1108  -15.0483   25.4621 C   0  0  0  0  0  0  0  0  0  0  0  0
   11.5901  -14.9310   24.0845 C   0  0  0  0  0  0  0  0  0  0  0  0
   11.9251  -16.2475   23.4453 C   0  0  2  0  0  0  0  0  0  0  0  0
   10.7644  -16.6664   22.6564 N   0  0  0  0  0  0  0  0  0  0  0  0
   12.2403  -17.3019   24.4142 C   0  0  0  0  0  0  0  0  0  0  0  0
   13.3054  -17.2473   25.0699 O   0  0  0  0  0  0  0  0  0  0  0  0
   11.9787  -15.5096   26.4532 C   0  0  0  0  0  0  0  0  0  0  0  0
   11.5541  -15.6349   27.7578 C   0  0  0  0  0  0  0  0  0  0  0  0
   11.3837  -18.3553   24.6188 O   0  0  0  0  0  0  0  0  0  0  0  0
  2  1  1  1
  2 13  1  0
  2  3  1  0
  4  3  1  0
  4  5  2  0
  6  5  1  0
  7  6  1  0
  8  7  2  0
  9  8  1  0
 10  9  2  0
 10 11  1  0
 11 12  2  0
 12  7  1  0
 12  4  1  0
 13 19  1  0
 14 13  2  0
 16 15  1  6
 17 16  1  0
 18 16  1  0
 18 19  1  1
 20 21  2  0
 20 18  1  0
 22 23  1  0
 23 24  2  0
 23 33  1  0
 24 25  1  0
 25 26  2  0
 26 27  1  0
 28 27  1  1
 28 29  1  0
 29 20  1  0
 30 28  1  0
 30 34  1  0
 31 30  2  0
 32 26  1  0
 33 32  2  0
M  END
$$$$
