WVY.pdb
     RDKit          3D

 34 36  0  0  1  0  0  0  0  0999 V2000
    6.3815  -18.2164   24.5350 N   0  0  0  0  0  0  0  0  0  0  0  0
    7.1227  -17.1011   24.0327 C   0  0  1  0  0  0  0  0  0  0  0  0
    7.7168  -16.2213   25.0886 C   0  0  0  0  0  0  0  0  0  0  0  0
    6.7257  -15.3520   25.7690 C   0  0  0  0  0  0  0  0  0  0  0  0
    5.7018  -15.7042   26.6177 C   0  0  0  0  0  0  0  0  0  0  0  0
    5.0496  -14.6114   27.0071 N   0  0  0  0  0  0  0  0  0  0  0  0
    5.6042  -13.5078   26.4426 C   0  0  0  0  0  0  0  0  0  0  0  0
    5.3150  -12.1641   26.5162 C   0  0  0  0  0  0  0  0  0  0  0  0
    6.0788  -11.2535   25.8083 C   0  0  0  0  0  0  0  0  0  0  0  0
    7.1286  -11.7019   25.0311 C   0  0  0  0  0  0  0  0  0  0  0  0
    7.3935  -13.0481   24.9770 C   0  0  0  0  0  0  0  0  0  0  0  0
    6.6439  -13.9702   25.6750 C   0  0  0  0  0  0  0  0  0  0  0  0
    8.2279  -17.5505   23.1479 C   0  0  0  0  0  0  0  0  0  0  0  0
    8.7383  -18.6915   23.2867 O   0  0  0  0  0  0  0  0  0  0  0  0
   10.0280  -14.8938   20.3636 C   0  0  0  0  0  0  0  0  0  0  0  0
    9.9210  -16.3836   20.0914 C   0  0  2  0  0  0  0  0  0  0  0  0
    8.5951  -16.6393   19.3941 C   0  0  0  0  0  0  0  0  0  0  0  0
    9.9296  -17.0844   21.4332 C   0  0  2  0  0  0  0  0  0  0  0  0
    8.7116  -16.6754   22.1320 N   0  0  0  0  0  0  0  0  0  0  0  0
   11.1358  -16.6243   22.1913 C   0  0  0  0  0  0  0  0  0  0  0  0
   11.6678  -15.5009   22.0041 O   0  0  0  0  0  0  0  0  0  0  0  0
   10.1676  -16.0457   29.5025 O   0  0  0  0  0  0  0  0  0  0  0  0
   10.8208  -15.9869   28.2760 C   0  0  0  0  0  0  0  0  0  0  0  0
   12.0892  -16.4590   28.1521 C   0  0  0  0  0  0  0  0  0  0  0  0
   12.7419  -16.3988   26.9210 C   0  0  0  0  0  0  0  0  0  0  0  0
   12.1549  -15.8723   25.7928 C   0  0  0  0  0  0  0  0  0  0  0  0
   12.8116  -15.7887   24.4878 C   0  0  0  0  0  0  0  0  0  0  0  0
   12.9947  -17.1185   23.8153 C   0  0  2  0  0  0  0  0  0  0  0  0
   11.7274  -17.4681   23.1697 N   0  0  0  0  0  0  0  0  0  0  0  0
   13.3628  -18.1938   24.7417 C   0  0  0  0  0  0  0  0  0  0  0  0
   14.3882  -18.0812   25.4511 O   0  0  0  0  0  0  0  0  0  0  0  0
   10.8523  -15.3919   25.9370 C   0  0  0  0  0  0  0  0  0  0  0  0
   10.2105  -15.4529   27.1545 C   0  0  0  0  0  0  0  0  0  0  0  0
   12.5990  -19.3298   24.8479 O   0  0  0  0  0  0  0  0  0  0  0  0
  2  1  1  1
  2 13  1  0
  2  3  1  0
  4  3  1  0
  4  5  2  0
  6  5  1  0
  7  6  1  0
  8  7  2  0
  9  8  1  0
 10  9  2  0
 10 11  1  0
 11 12  2  0
 12  7  1  0
 12  4  1  0
 13 19  1  0
 14 13  2  0
 16 15  1  1
 17 16  1  0
 18 16  1  0
 18 19  1  1
 20 21  2  0
 20 18  1  0
 22 23  1  0
 23 24  2  0
 23 33  1  0
 24 25  1  0
 25 26  2  0
 26 27  1  0
 28 27  1  1
 28 29  1  0
 29 20  1  0
 30 28  1  0
 30 34  1  0
 31 30  2  0
 32 26  1  0
 33 32  2  0
M  END
$$$$
