WVY.pdb
     RDKit          3D

 34 36  0  0  1  0  0  0  0  0999 V2000
    6.1942  -18.1545   24.2125 N   0  0  0  0  0  0  0  0  0  0  0  0
    6.5325  -16.7837   23.9848 C   0  0  1  0  0  0  0  0  0  0  0  0
    7.1471  -16.0898   25.1607 C   0  0  0  0  0  0  0  0  0  0  0  0
    6.2634  -15.0741   25.7839 C   0  0  0  0  0  0  0  0  0  0  0  0
    5.0034  -15.2292   26.3139 C   0  0  0  0  0  0  0  0  0  0  0  0
    4.5660  -14.0594   26.7736 N   0  0  0  0  0  0  0  0  0  0  0  0
    5.5015  -13.0961   26.5711 C   0  0  0  0  0  0  0  0  0  0  0  0
    5.5457  -11.7499   26.8543 C   0  0  0  0  0  0  0  0  0  0  0  0
    6.6654  -11.0100   26.5186 C   0  0  0  0  0  0  0  0  0  0  0  0
    7.7330  -11.6307   25.9001 C   0  0  0  0  0  0  0  0  0  0  0  0
    7.6603  -12.9750   25.6302 C   0  0  0  0  0  0  0  0  0  0  0  0
    6.5536  -13.7284   25.9570 C   0  0  0  0  0  0  0  0  0  0  0  0
    7.4718  -16.6492   22.8420 C   0  0  0  0  0  0  0  0  0  0  0  0
    8.2997  -17.5591   22.5806 O   0  0  0  0  0  0  0  0  0  0  0  0
    8.8268  -14.2351   18.8224 C   0  0  0  0  0  0  0  0  0  0  0  0
    7.8748  -14.2986   20.0033 C   0  0  2  0  0  0  0  0  0  0  0  0
    7.9620  -12.9767   20.7481 C   0  0  0  0  0  0  0  0  0  0  0  0
    8.3535  -15.4180   20.9030 C   0  0  2  0  0  0  0  0  0  0  0  0
    7.4305  -15.4742   22.0361 N   0  0  0  0  0  0  0  0  0  0  0  0
    9.7311  -15.0762   21.3792 C   0  0  0  0  0  0  0  0  0  0  0  0
   10.1509  -13.8934   21.4504 O   0  0  0  0  0  0  0  0  0  0  0  0
   11.9652  -15.3773   29.4240 O   0  0  0  0  0  0  0  0  0  0  0  0
   11.5056  -15.5641   28.1246 C   0  0  0  0  0  0  0  0  0  0  0  0
   10.1715  -15.5935   27.8675 C   0  0  0  0  0  0  0  0  0  0  0  0
    9.7133  -15.7809   26.5636 C   0  0  0  0  0  0  0  0  0  0  0  0
   10.5628  -15.9426   25.4927 C   0  0  0  0  0  0  0  0  0  0  0  0
   10.1171  -16.1464   24.1139 C   0  0  0  0  0  0  0  0  0  0  0  0
   11.2310  -16.1249   23.1076 C   0  0  2  0  0  0  0  0  0  0  0  0
   10.6251  -16.1075   21.7743 N   0  0  0  0  0  0  0  0  0  0  0  0
   12.1245  -17.2835   23.2029 C   0  0  0  0  0  0  0  0  0  0  0  0
   12.9579  -17.3527   24.1347 O   0  0  0  0  0  0  0  0  0  0  0  0
   11.9297  -15.9099   25.7738 C   0  0  0  0  0  0  0  0  0  0  0  0
   12.3787  -15.7245   27.0629 C   0  0  0  0  0  0  0  0  0  0  0  0
   12.0643  -18.3022   22.2842 O   0  0  0  0  0  0  0  0  0  0  0  0
  2  1  1  1
  2 13  1  0
  2  3  1  0
  4  3  1  0
  4  5  2  0
  6  5  1  0
  7  6  1  0
  8  7  2  0
  9  8  1  0
 10  9  2  0
 10 11  1  0
 11 12  2  0
 12  7  1  0
 12  4  1  0
 13 19  1  0
 14 13  2  0
 16 15  1  6
 17 16  1  0
 18 16  1  0
 18 19  1  1
 20 21  2  0
 20 18  1  0
 22 23  1  0
 23 24  2  0
 23 33  1  0
 24 25  1  0
 25 26  2  0
 26 27  1  0
 28 27  1  1
 28 29  1  0
 29 20  1  0
 30 28  1  0
 30 34  1  0
 31 30  2  0
 32 26  1  0
 33 32  2  0
M  END
$$$$
