WVY.pdb
     RDKit          3D

 34 36  0  0  1  0  0  0  0  0999 V2000
    5.8166  -17.8812   23.1577 N   0  0  0  0  0  0  0  0  0  0  0  0
    6.4743  -16.6151   23.2564 C   0  0  1  0  0  0  0  0  0  0  0  0
    7.0811  -16.3306   24.5953 C   0  0  0  0  0  0  0  0  0  0  0  0
    6.2345  -15.4787   25.4661 C   0  0  0  0  0  0  0  0  0  0  0  0
    5.1443  -15.8309   26.2278 C   0  0  0  0  0  0  0  0  0  0  0  0
    4.6769  -14.7574   26.8605 N   0  0  0  0  0  0  0  0  0  0  0  0
    5.4246  -13.6671   26.5501 C   0  0  0  0  0  0  0  0  0  0  0  0
    5.3654  -12.3445   26.9265 C   0  0  0  0  0  0  0  0  0  0  0  0
    6.2902  -11.4432   26.4304 C   0  0  0  0  0  0  0  0  0  0  0  0
    7.2685  -11.8798   25.5588 C   0  0  0  0  0  0  0  0  0  0  0  0
    7.3028  -13.2050   25.2012 C   0  0  0  0  0  0  0  0  0  0  0  0
    6.3903  -14.1175   25.6849 C   0  0  0  0  0  0  0  0  0  0  0  0
    7.5505  -16.4928   22.2399 C   0  0  0  0  0  0  0  0  0  0  0  0
    8.0779  -17.5174   21.7365 O   0  0  0  0  0  0  0  0  0  0  0  0
    8.8440  -12.7287   21.0872 C   0  0  0  0  0  0  0  0  0  0  0  0
    8.6933  -13.8039   20.0260 C   0  0  2  0  0  0  0  0  0  0  0  0
    7.2724  -13.7390   19.4906 C   0  0  0  0  0  0  0  0  0  0  0  0
    8.9163  -15.1374   20.7067 C   0  0  2  0  0  0  0  0  0  0  0  0
    7.9866  -15.1978   21.8341 N   0  0  0  0  0  0  0  0  0  0  0  0
   10.3283  -15.1769   21.2027 C   0  0  0  0  0  0  0  0  0  0  0  0
   11.1215  -14.2105   21.0713 O   0  0  0  0  0  0  0  0  0  0  0  0
   12.3244  -15.0563   29.4328 O   0  0  0  0  0  0  0  0  0  0  0  0
   11.8749  -15.1734   28.1218 C   0  0  0  0  0  0  0  0  0  0  0  0
   11.2623  -16.3134   27.7069 C   0  0  0  0  0  0  0  0  0  0  0  0
   10.8125  -16.4283   26.3917 C   0  0  0  0  0  0  0  0  0  0  0  0
   10.9596  -15.4215   25.4648 C   0  0  0  0  0  0  0  0  0  0  0  0
   10.5048  -15.5098   24.0767 C   0  0  0  0  0  0  0  0  0  0  0  0
   11.4394  -16.2691   23.1800 C   0  0  2  0  0  0  0  0  0  0  0  0
   10.8231  -16.3393   21.8532 N   0  0  0  0  0  0  0  0  0  0  0  0
   11.7125  -17.6328   23.6443 C   0  0  0  0  0  0  0  0  0  0  0  0
   10.9660  -18.5731   23.2891 O   0  0  0  0  0  0  0  0  0  0  0  0
   11.5906  -14.2575   25.9068 C   0  0  0  0  0  0  0  0  0  0  0  0
   12.0336  -14.1475   27.2066 C   0  0  0  0  0  0  0  0  0  0  0  0
   12.7789  -17.9012   24.4665 O   0  0  0  0  0  0  0  0  0  0  0  0
  2  1  1  1
  2 13  1  0
  2  3  1  0
  4  3  1  0
  4  5  2  0
  6  5  1  0
  7  6  1  0
  8  7  2  0
  9  8  1  0
 10  9  2  0
 10 11  1  0
 11 12  2  0
 12  7  1  0
 12  4  1  0
 13 19  1  0
 14 13  2  0
 16 15  1  1
 17 16  1  0
 18 16  1  0
 18 19  1  1
 20 21  2  0
 20 18  1  0
 22 23  1  0
 23 24  2  0
 23 33  1  0
 24 25  1  0
 25 26  2  0
 26 27  1  0
 28 27  1  1
 28 29  1  0
 29 20  1  0
 30 28  1  0
 30 34  1  0
 31 30  2  0
 32 26  1  0
 33 32  2  0
M  END
$$$$
