FSA.pdb
     RDKit          3D

 23 23  0  0  1  0  0  0  0  0999 V2000
   18.8594  -12.2059  -15.6052 N   0  0  0  0  0  0  0  0  0  0  0  0
   19.2897  -10.9868  -16.2519 C   0  0  1  0  0  0  0  0  0  0  0  0
   18.4180  -10.7338  -17.4691 C   0  0  0  0  0  0  0  0  0  0  0  0
   18.6945  -11.7992  -18.4577 C   0  0  0  0  0  0  0  0  0  0  0  0
   19.8279  -11.7583  -19.2413 C   0  0  0  0  0  0  0  0  0  0  0  0
   20.0703  -12.7732  -20.1676 C   0  0  0  0  0  0  0  0  0  0  0  0
   19.1882  -13.8079  -20.3010 C   0  0  0  0  0  0  0  0  0  0  0  0
   18.0591  -13.8578  -19.5272 C   0  0  0  0  0  0  0  0  0  0  0  0
   17.8328  -12.8479  -18.6162 C   0  0  0  0  0  0  0  0  0  0  0  0
   19.2409   -9.8564  -15.3142 C   0  0  0  0  0  0  0  0  0  0  0  0
   18.4606   -9.9121  -14.3295 O   0  0  0  0  0  0  0  0  0  0  0  0
   21.5974   -8.6299  -12.9957 O   0  0  0  0  0  0  0  0  0  0  0  0
   20.3068   -8.1460  -13.0918 C   0  0  0  0  0  0  0  0  0  0  0  0
   19.9887   -7.6655  -14.4957 C   0  0  2  0  0  0  0  0  0  0  0  0
   20.0293   -8.7074  -15.4646 N   0  0  0  0  0  0  0  0  0  0  0  0
   20.8906   -6.5200  -14.8597 C   0  0  0  0  0  0  0  0  0  0  0  0
   22.0815   -6.7194  -15.2123 O   0  0  0  0  0  0  0  0  0  0  0  0
   20.5160   -2.7422  -15.1618 C   0  0  0  0  0  0  0  0  0  0  0  0
   21.2568   -4.0471  -15.1778 C   0  0  2  0  0  0  0  0  0  0  0  0
   20.4455   -5.1702  -14.8235 N   0  0  0  0  0  0  0  0  0  0  0  0
   22.4804   -3.9385  -14.3451 C   0  0  0  0  0  0  0  0  0  0  0  0
   23.3985   -3.1891  -14.7546 O   0  0  0  0  0  0  0  0  0  0  0  0
   22.6750   -4.6066  -13.1515 O   0  0  0  0  0  0  0  0  0  0  0  0
  2  1  1  1
  2 10  1  0
  3  2  1  0
  4  5  2  0
  4  3  1  0
  6  5  1  0
  7  6  2  0
  8  7  1  0
  8  9  2  0
  9  4  1  0
 10 11  2  0
 10 15  1  0
 13 12  1  0
 14 13  1  1
 15 14  1  0
 16 14  1  0
 16 17  2  0
 19 18  1  1
 19 20  1  0
 20 16  1  0
 21 19  1  0
 22 21  2  0
 23 21  1  0
M  END
$$$$
