FSA.pdb
     RDKit          3D

 23 23  0  0  1  0  0  0  0  0999 V2000
   19.0948  -10.9918  -18.2024 N   0  0  0  0  0  0  0  0  0  0  0  0
   19.5854   -9.6509  -18.4280 C   0  0  1  0  0  0  0  0  0  0  0  0
   19.1289   -9.1768  -19.7963 C   0  0  0  0  0  0  0  0  0  0  0  0
   19.8794   -9.9402  -20.8175 C   0  0  0  0  0  0  0  0  0  0  0  0
   21.1500   -9.5584  -21.1920 C   0  0  0  0  0  0  0  0  0  0  0  0
   21.8409  -10.2922  -22.1568 C   0  0  0  0  0  0  0  0  0  0  0  0
   21.2627  -11.3882  -22.7321 C   0  0  0  0  0  0  0  0  0  0  0  0
   20.0008  -11.7759  -22.3670 C   0  0  0  0  0  0  0  0  0  0  0  0
   19.3302  -11.0411  -21.4124 C   0  0  0  0  0  0  0  0  0  0  0  0
   19.1260   -8.7444  -17.3666 C   0  0  0  0  0  0  0  0  0  0  0  0
   17.8935   -8.6477  -17.1361 O   0  0  0  0  0  0  0  0  0  0  0  0
   21.7070   -6.6651  -14.7404 O   0  0  0  0  0  0  0  0  0  0  0  0
   20.4058   -6.9685  -14.3884 C   0  0  0  0  0  0  0  0  0  0  0  0
   19.5042   -7.0768  -15.6044 C   0  0  2  0  0  0  0  0  0  0  0  0
   20.0028   -7.9741  -16.5904 N   0  0  0  0  0  0  0  0  0  0  0  0
   19.2401   -5.7088  -16.1673 C   0  0  0  0  0  0  0  0  0  0  0  0
   20.0056   -5.2031  -17.0279 O   0  0  0  0  0  0  0  0  0  0  0  0
   16.4170   -3.1821  -15.9827 C   0  0  0  0  0  0  0  0  0  0  0  0
   17.8192   -3.6303  -16.2741 C   0  0  2  0  0  0  0  0  0  0  0  0
   18.1239   -4.9289  -15.7585 N   0  0  0  0  0  0  0  0  0  0  0  0
   18.7804   -2.5940  -15.8215 C   0  0  0  0  0  0  0  0  0  0  0  0
   19.4172   -2.8131  -14.7638 O   0  0  0  0  0  0  0  0  0  0  0  0
   19.0197   -1.4067  -16.4862 O   0  0  0  0  0  0  0  0  0  0  0  0
  2  1  1  1
  2 10  1  0
  3  2  1  0
  4  5  2  0
  4  3  1  0
  6  5  1  0
  7  6  2  0
  8  7  1  0
  8  9  2  0
  9  4  1  0
 10 11  2  0
 10 15  1  0
 13 12  1  0
 14 13  1  1
 15 14  1  0
 16 14  1  0
 16 17  2  0
 19 18  1  1
 19 20  1  0
 20 16  1  0
 21 19  1  0
 22 21  2  0
 23 21  1  0
M  END
$$$$
