FSA.pdb
     RDKit          3D

 23 23  0  0  1  0  0  0  0  0999 V2000
   22.5346  -11.9716  -19.2113 N   0  0  0  0  0  0  0  0  0  0  0  0
   21.6435  -10.9852  -18.6434 C   0  0  1  0  0  0  0  0  0  0  0  0
   20.9435  -11.5827  -17.4357 C   0  0  0  0  0  0  0  0  0  0  0  0
   20.0468  -12.6581  -17.9138 C   0  0  0  0  0  0  0  0  0  0  0  0
   18.7873  -12.3663  -18.3924 C   0  0  0  0  0  0  0  0  0  0  0  0
   17.9573  -13.3952  -18.8388 C   0  0  0  0  0  0  0  0  0  0  0  0
   18.3882  -14.6911  -18.8035 C   0  0  0  0  0  0  0  0  0  0  0  0
   19.6378  -14.9915  -18.3299 C   0  0  0  0  0  0  0  0  0  0  0  0
   20.4469  -13.9646  -17.8921 C   0  0  0  0  0  0  0  0  0  0  0  0
   22.3797   -9.7647  -18.2859 C   0  0  0  0  0  0  0  0  0  0  0  0
   23.5778   -9.6449  -18.6490 O   0  0  0  0  0  0  0  0  0  0  0  0
   23.3669   -5.5494  -18.5291 O   0  0  0  0  0  0  0  0  0  0  0  0
   22.6920   -6.7416  -18.7091 C   0  0  0  0  0  0  0  0  0  0  0  0
   22.4909   -7.4783  -17.3976 C   0  0  2  0  0  0  0  0  0  0  0  0
   21.8066   -8.7167  -17.5527 N   0  0  0  0  0  0  0  0  0  0  0  0
   21.8112   -6.5776  -16.4052 C   0  0  0  0  0  0  0  0  0  0  0  0
   20.6748   -6.0931  -16.6419 O   0  0  0  0  0  0  0  0  0  0  0  0
   22.3650   -5.6407  -12.7851 C   0  0  0  0  0  0  0  0  0  0  0  0
   21.7776   -5.4486  -14.1525 C   0  0  2  0  0  0  0  0  0  0  0  0
   22.4139   -6.2338  -15.1643 N   0  0  0  0  0  0  0  0  0  0  0  0
   21.7452   -4.0026  -14.4850 C   0  0  0  0  0  0  0  0  0  0  0  0
   21.0668   -3.2504  -13.7460 O   0  0  0  0  0  0  0  0  0  0  0  0
   22.4113   -3.4312  -15.5522 O   0  0  0  0  0  0  0  0  0  0  0  0
  2  1  1  1
  2 10  1  0
  3  2  1  0
  4  5  2  0
  4  3  1  0
  6  5  1  0
  7  6  2  0
  8  7  1  0
  8  9  2  0
  9  4  1  0
 10 11  2  0
 10 15  1  0
 13 12  1  0
 14 13  1  6
 15 14  1  0
 16 14  1  0
 16 17  2  0
 19 18  1  1
 19 20  1  0
 20 16  1  0
 21 19  1  0
 22 21  2  0
 23 21  1  0
M  END
$$$$
