FSA.pdb
     RDKit          3D

 23 23  0  0  1  0  0  0  0  0999 V2000
   24.5104   -9.6527  -18.4620 N   0  0  0  0  0  0  0  0  0  0  0  0
   23.9862   -9.3765  -17.1435 C   0  0  1  0  0  0  0  0  0  0  0  0
   24.9188   -8.4156  -16.4276 C   0  0  0  0  0  0  0  0  0  0  0  0
   26.2117   -9.1043  -16.2198 C   0  0  0  0  0  0  0  0  0  0  0  0
   26.3500  -10.0663  -15.2422 C   0  0  0  0  0  0  0  0  0  0  0  0
   27.5779  -10.7041  -15.0627 C   0  0  0  0  0  0  0  0  0  0  0  0
   28.6441  -10.3788  -15.8525 C   0  0  0  0  0  0  0  0  0  0  0  0
   28.5170   -9.4244  -16.8267 C   0  0  0  0  0  0  0  0  0  0  0  0
   27.2977   -8.8025  -16.9925 C   0  0  0  0  0  0  0  0  0  0  0  0
   22.6228   -8.8350  -17.2297 C   0  0  0  0  0  0  0  0  0  0  0  0
   22.3125   -8.1133  -18.2118 O   0  0  0  0  0  0  0  0  0  0  0  0
   19.7098   -9.2499  -14.1820 O   0  0  0  0  0  0  0  0  0  0  0  0
   19.3101   -9.2098  -15.5040 C   0  0  0  0  0  0  0  0  0  0  0  0
   20.3392   -8.5230  -16.3828 C   0  0  2  0  0  0  0  0  0  0  0  0
   21.6410   -9.0856  -16.2613 N   0  0  0  0  0  0  0  0  0  0  0  0
   20.3353   -7.0447  -16.1135 C   0  0  0  0  0  0  0  0  0  0  0  0
   21.1322   -6.5347  -15.2847 O   0  0  0  0  0  0  0  0  0  0  0  0
   18.5659   -4.0007  -17.5401 C   0  0  0  0  0  0  0  0  0  0  0  0
   19.3533   -4.7582  -16.5115 C   0  0  2  0  0  0  0  0  0  0  0  0
   19.4399   -6.1609  -16.7759 N   0  0  0  0  0  0  0  0  0  0  0  0
   18.8234   -4.4621  -15.1572 C   0  0  0  0  0  0  0  0  0  0  0  0
   18.8975   -3.2787  -14.7492 O   0  0  0  0  0  0  0  0  0  0  0  0
   18.2551   -5.4011  -14.3180 O   0  0  0  0  0  0  0  0  0  0  0  0
  2  1  1  6
  2 10  1  0
  3  2  1  0
  4  5  2  0
  4  3  1  0
  6  5  1  0
  7  6  2  0
  8  7  1  0
  8  9  2  0
  9  4  1  0
 10 11  2  0
 10 15  1  0
 13 12  1  0
 14 13  1  1
 15 14  1  0
 16 14  1  0
 16 17  2  0
 19 18  1  6
 19 20  1  0
 20 16  1  0
 21 19  1  0
 22 21  2  0
 23 21  1  0
M  END
$$$$
