FSA.pdb
     RDKit          3D

 23 23  0  0  1  0  0  0  0  0999 V2000
   18.9631  -11.3797  -17.9554 N   0  0  0  0  0  0  0  0  0  0  0  0
   19.7073  -10.1502  -18.1107 C   0  0  1  0  0  0  0  0  0  0  0  0
   19.1304   -9.3620  -19.2732 C   0  0  0  0  0  0  0  0  0  0  0  0
   19.3896  -10.1241  -20.5145 C   0  0  0  0  0  0  0  0  0  0  0  0
   18.4213  -10.9426  -21.0556 C   0  0  0  0  0  0  0  0  0  0  0  0
   18.6858  -11.6526  -22.2273 C   0  0  0  0  0  0  0  0  0  0  0  0
   19.9013  -11.5397  -22.8406 C   0  0  0  0  0  0  0  0  0  0  0  0
   20.8701  -10.7291  -22.3111 C   0  0  0  0  0  0  0  0  0  0  0  0
   20.5946  -10.0337  -21.1529 C   0  0  0  0  0  0  0  0  0  0  0  0
   19.6815   -9.3670  -16.8676 C   0  0  0  0  0  0  0  0  0  0  0  0
   18.6425   -9.3787  -16.1590 O   0  0  0  0  0  0  0  0  0  0  0  0
   22.8676   -8.9076  -14.6097 O   0  0  0  0  0  0  0  0  0  0  0  0
   21.6053   -8.6298  -14.1212 C   0  0  0  0  0  0  0  0  0  0  0  0
   20.7358   -7.9493  -15.1624 C   0  0  2  0  0  0  0  0  0  0  0  0
   20.7688   -8.5996  -16.4281 N   0  0  0  0  0  0  0  0  0  0  0  0
   21.1040   -6.4960  -15.2641 C   0  0  0  0  0  0  0  0  0  0  0  0
   22.1154   -6.1276  -15.9148 O   0  0  0  0  0  0  0  0  0  0  0  0
   19.5797   -3.2086  -14.0956 C   0  0  0  0  0  0  0  0  0  0  0  0
   20.6263   -4.0813  -14.7241 C   0  0  2  0  0  0  0  0  0  0  0  0
   20.3346   -5.4785  -14.6362 N   0  0  0  0  0  0  0  0  0  0  0  0
   21.9609   -3.7387  -14.1730 C   0  0  0  0  0  0  0  0  0  0  0  0
   22.4145   -2.5950  -14.4151 O   0  0  0  0  0  0  0  0  0  0  0  0
   22.7353   -4.5938  -13.4127 O   0  0  0  0  0  0  0  0  0  0  0  0
  2  1  1  1
  2 10  1  0
  3  2  1  0
  4  5  2  0
  4  3  1  0
  6  5  1  0
  7  6  2  0
  8  7  1  0
  8  9  2  0
  9  4  1  0
 10 11  2  0
 10 15  1  0
 13 12  1  0
 14 13  1  1
 15 14  1  0
 16 14  1  0
 16 17  2  0
 19 18  1  1
 19 20  1  0
 20 16  1  0
 21 19  1  0
 22 21  2  0
 23 21  1  0
M  END
$$$$
