FSA.pdb
     RDKit          3D

 23 23  0  0  1  0  0  0  0  0999 V2000
   18.1318  -11.9176  -16.0800 N   0  0  0  0  0  0  0  0  0  0  0  0
   18.1113  -10.6606  -16.7935 C   0  0  1  0  0  0  0  0  0  0  0  0
   16.8270   -9.9210  -16.4632 C   0  0  0  0  0  0  0  0  0  0  0  0
   15.7142  -10.6074  -17.1558 C   0  0  0  0  0  0  0  0  0  0  0  0
   14.8932  -11.4826  -16.4773 C   0  0  0  0  0  0  0  0  0  0  0  0
   13.8491  -12.1195  -17.1489 C   0  0  0  0  0  0  0  0  0  0  0  0
   13.6373  -11.8789  -18.4769 C   0  0  0  0  0  0  0  0  0  0  0  0
   14.4473  -11.0111  -19.1601 C   0  0  0  0  0  0  0  0  0  0  0  0
   15.4750  -10.3891  -18.4834 C   0  0  0  0  0  0  0  0  0  0  0  0
   19.2940   -9.8547  -16.4599 C   0  0  0  0  0  0  0  0  0  0  0  0
   19.8127   -9.9727  -15.3203 O   0  0  0  0  0  0  0  0  0  0  0  0
   20.9998   -6.8031  -18.9307 O   0  0  0  0  0  0  0  0  0  0  0  0
   21.7938   -7.6795  -18.2161 C   0  0  0  0  0  0  0  0  0  0  0  0
   21.0647   -8.2455  -17.0115 C   0  0  2  0  0  0  0  0  0  0  0  0
   19.8786   -8.9518  -17.3584 N   0  0  0  0  0  0  0  0  0  0  0  0
   20.8002   -7.1523  -16.0149 C   0  0  0  0  0  0  0  0  0  0  0  0
   19.7218   -6.5052  -16.0336 O   0  0  0  0  0  0  0  0  0  0  0  0
   22.5487   -5.8081  -12.9195 C   0  0  0  0  0  0  0  0  0  0  0  0
   21.5294   -5.7950  -14.0208 C   0  0  2  0  0  0  0  0  0  0  0  0
   21.7465   -6.8010  -15.0136 N   0  0  0  0  0  0  0  0  0  0  0  0
   21.4336   -4.4312  -14.5982 C   0  0  0  0  0  0  0  0  0  0  0  0
   21.0813   -3.4999  -13.8361 O   0  0  0  0  0  0  0  0  0  0  0  0
   21.7061   -4.1200  -15.9165 O   0  0  0  0  0  0  0  0  0  0  0  0
  2  1  1  1
  2 10  1  0
  3  2  1  0
  4  5  2  0
  4  3  1  0
  6  5  1  0
  7  6  2  0
  8  7  1  0
  8  9  2  0
  9  4  1  0
 10 11  2  0
 10 15  1  0
 13 12  1  0
 14 13  1  6
 15 14  1  0
 16 14  1  0
 16 17  2  0
 19 18  1  1
 19 20  1  0
 20 16  1  0
 21 19  1  0
 22 21  2  0
 23 21  1  0
M  END
$$$$
