FSA.pdb
     RDKit          3D

 23 23  0  0  1  0  0  0  0  0999 V2000
   18.0985  -11.5168  -14.8638 N   0  0  0  0  0  0  0  0  0  0  0  0
   18.2198  -11.2183  -16.2730 C   0  0  1  0  0  0  0  0  0  0  0  0
   16.9366  -11.6183  -16.9794 C   0  0  0  0  0  0  0  0  0  0  0  0
   16.8321  -13.0935  -16.9350 C   0  0  0  0  0  0  0  0  0  0  0  0
   17.6082  -13.8812  -17.7582 C   0  0  0  0  0  0  0  0  0  0  0  0
   17.4946  -15.2707  -17.7006 C   0  0  0  0  0  0  0  0  0  0  0  0
   16.6169  -15.8538  -16.8310 C   0  0  0  0  0  0  0  0  0  0  0  0
   15.8414  -15.0800  -16.0089 C   0  0  0  0  0  0  0  0  0  0  0  0
   15.9644  -13.7084  -16.0769 C   0  0  0  0  0  0  0  0  0  0  0  0
   18.5225   -9.7951  -16.4783 C   0  0  0  0  0  0  0  0  0  0  0  0
   18.3303   -9.2864  -17.6123 O   0  0  0  0  0  0  0  0  0  0  0  0
   17.5107   -6.9706  -14.0827 O   0  0  0  0  0  0  0  0  0  0  0  0
   17.9556   -6.7585  -15.3735 C   0  0  0  0  0  0  0  0  0  0  0  0
   19.1985   -7.5729  -15.6817 C   0  0  2  0  0  0  0  0  0  0  0  0
   19.0200   -8.9679  -15.4621 N   0  0  0  0  0  0  0  0  0  0  0  0
   20.3701   -7.0258  -14.9162 C   0  0  0  0  0  0  0  0  0  0  0  0
   20.6386   -7.4396  -13.7590 O   0  0  0  0  0  0  0  0  0  0  0  0
   23.1795   -4.5573  -15.6318 C   0  0  0  0  0  0  0  0  0  0  0  0
   22.3755   -5.5050  -14.7907 C   0  0  2  0  0  0  0  0  0  0  0  0
   21.2223   -6.0248  -15.4576 N   0  0  0  0  0  0  0  0  0  0  0  0
   22.0472   -4.8665  -13.4918 C   0  0  0  0  0  0  0  0  0  0  0  0
   20.9049   -4.3662  -13.3614 O   0  0  0  0  0  0  0  0  0  0  0  0
   22.9144   -4.7868  -12.4191 O   0  0  0  0  0  0  0  0  0  0  0  0
  2  1  1  1
  2 10  1  0
  3  2  1  0
  4  5  2  0
  4  3  1  0
  6  5  1  0
  7  6  2  0
  8  7  1  0
  8  9  2  0
  9  4  1  0
 10 11  2  0
 10 15  1  0
 13 12  1  0
 14 13  1  1
 15 14  1  0
 16 14  1  0
 16 17  2  0
 19 18  1  6
 19 20  1  0
 20 16  1  0
 21 19  1  0
 22 21  2  0
 23 21  1  0
M  END
$$$$
