FSA.pdb
     RDKit          3D

 23 23  0  0  1  0  0  0  0  0999 V2000
   30.2100  -27.0202  -16.2806 N   0  0  0  0  0  0  0  0  0  0  0  0
   29.2175  -26.3773  -17.1120 C   0  0  1  0  0  0  0  0  0  0  0  0
   28.6888  -27.3798  -18.1225 C   0  0  0  0  0  0  0  0  0  0  0  0
   29.7659  -27.6547  -19.0989 C   0  0  0  0  0  0  0  0  0  0  0  0
   30.0619  -26.7508  -20.0967 C   0  0  0  0  0  0  0  0  0  0  0  0
   31.0817  -27.0290  -21.0074 C   0  0  0  0  0  0  0  0  0  0  0  0
   31.7885  -28.1945  -20.9138 C   0  0  0  0  0  0  0  0  0  0  0  0
   31.5022  -29.0991  -19.9260 C   0  0  0  0  0  0  0  0  0  0  0  0
   30.4918  -28.8107  -19.0334 C   0  0  0  0  0  0  0  0  0  0  0  0
   28.1327  -25.8221  -16.2909 C   0  0  0  0  0  0  0  0  0  0  0  0
   28.1716  -25.9734  -15.0430 O   0  0  0  0  0  0  0  0  0  0  0  0
   26.2218  -22.4157  -17.2311 O   0  0  0  0  0  0  0  0  0  0  0  0
   26.2812  -22.9622  -15.9635 C   0  0  0  0  0  0  0  0  0  0  0  0
   26.1055  -24.4693  -15.9912 C   0  0  2  0  0  0  0  0  0  0  0  0
   27.0454  -25.1251  -16.8353 N   0  0  0  0  0  0  0  0  0  0  0  0
   24.6874  -24.8113  -16.3519 C   0  0  0  0  0  0  0  0  0  0  0  0
   24.3585  -25.0374  -17.5448 O   0  0  0  0  0  0  0  0  0  0  0  0
   21.3992  -25.1519  -14.4583 C   0  0  0  0  0  0  0  0  0  0  0  0
   22.2744  -25.0751  -15.6748 C   0  0  2  0  0  0  0  0  0  0  0  0
   23.6604  -24.8948  -15.3723 N   0  0  0  0  0  0  0  0  0  0  0  0
   21.7515  -24.0424  -16.6035 C   0  0  0  0  0  0  0  0  0  0  0  0
   20.7530  -24.3392  -17.3015 O   0  0  0  0  0  0  0  0  0  0  0  0
   22.2903  -22.7786  -16.7501 O   0  0  0  0  0  0  0  0  0  0  0  0
  2  1  1  1
  2 10  1  0
  3  2  1  0
  4  5  2  0
  4  3  1  0
  6  5  1  0
  7  6  2  0
  8  7  1  0
  8  9  2  0
  9  4  1  0
 10 11  2  0
 10 15  1  0
 13 12  1  0
 14 13  1  6
 15 14  1  0
 16 14  1  0
 16 17  2  0
 19 18  1  1
 19 20  1  0
 20 16  1  0
 21 19  1  0
 22 21  2  0
 23 21  1  0
M  END
$$$$
