FSA.pdb
     RDKit          3D

 23 23  0  0  1  0  0  0  0  0999 V2000
   24.4689  -20.2482  -10.0200 N   0  0  0  0  0  0  0  0  0  0  0  0
   25.8171  -20.1499  -10.5322 C   0  0  1  0  0  0  0  0  0  0  0  0
   26.6600  -21.2618   -9.9335 C   0  0  0  0  0  0  0  0  0  0  0  0
   27.2300  -20.7675   -8.6608 C   0  0  0  0  0  0  0  0  0  0  0  0
   26.4115  -20.2957   -7.6568 C   0  0  0  0  0  0  0  0  0  0  0  0
   26.9691  -19.8342   -6.4639 C   0  0  0  0  0  0  0  0  0  0  0  0
   28.3237  -19.8483   -6.2870 C   0  0  0  0  0  0  0  0  0  0  0  0
   29.1455  -20.3151   -7.2783 C   0  0  0  0  0  0  0  0  0  0  0  0
   28.5804  -20.7679   -8.4515 C   0  0  0  0  0  0  0  0  0  0  0  0
   25.8202  -20.2072  -12.0006 C   0  0  0  0  0  0  0  0  0  0  0  0
   24.8431  -20.7313  -12.5941 O   0  0  0  0  0  0  0  0  0  0  0  0
   29.0797  -19.3470  -14.7045 O   0  0  0  0  0  0  0  0  0  0  0  0
   27.8316  -18.7691  -14.8364 C   0  0  0  0  0  0  0  0  0  0  0  0
   26.7480  -19.6171  -14.1961 C   0  0  2  0  0  0  0  0  0  0  0  0
   26.8692  -19.7014  -12.7804 N   0  0  0  0  0  0  0  0  0  0  0  0
   26.7129  -20.9734  -14.8418 C   0  0  0  0  0  0  0  0  0  0  0  0
   27.0438  -22.0047  -14.2021 O   0  0  0  0  0  0  0  0  0  0  0  0
   27.0906  -23.4783  -16.1973 C   0  0  0  0  0  0  0  0  0  0  0  0
   26.2478  -22.4224  -16.8505 C   0  0  2  0  0  0  0  0  0  0  0  0
   26.3081  -21.1541  -16.1928 N   0  0  0  0  0  0  0  0  0  0  0  0
   24.8586  -22.9191  -17.0113 C   0  0  0  0  0  0  0  0  0  0  0  0
   24.6969  -24.0170  -17.5950 O   0  0  0  0  0  0  0  0  0  0  0  0
   23.7341  -22.2539  -16.5618 O   0  0  0  0  0  0  0  0  0  0  0  0
  2  1  1  1
  2 10  1  0
  3  2  1  0
  4  5  2  0
  4  3  1  0
  6  5  1  0
  7  6  2  0
  8  7  1  0
  8  9  2  0
  9  4  1  0
 10 11  2  0
 10 15  1  0
 13 12  1  0
 14 13  1  6
 15 14  1  0
 16 14  1  0
 16 17  2  0
 19 18  1  1
 19 20  1  0
 20 16  1  0
 21 19  1  0
 22 21  2  0
 23 21  1  0
M  END
$$$$
