FSA.pdb
     RDKit          3D

 23 23  0  0  1  0  0  0  0  0999 V2000
   24.5128  -10.9883  -15.9118 N   0  0  0  0  0  0  0  0  0  0  0  0
   23.9555  -10.1317  -16.9342 C   0  0  1  0  0  0  0  0  0  0  0  0
   22.6912  -10.7686  -17.4832 C   0  0  0  0  0  0  0  0  0  0  0  0
   23.0876  -11.9259  -18.3154 C   0  0  0  0  0  0  0  0  0  0  0  0
   22.7429  -13.2096  -17.9495 C   0  0  0  0  0  0  0  0  0  0  0  0
   23.1264  -14.2873  -18.7485 C   0  0  0  0  0  0  0  0  0  0  0  0
   23.8424  -14.0752  -19.8925 C   0  0  0  0  0  0  0  0  0  0  0  0
   24.1898  -12.8037  -20.2648 C   0  0  0  0  0  0  0  0  0  0  0  0
   23.8040  -11.7486  -19.4655 C   0  0  0  0  0  0  0  0  0  0  0  0
   23.6896   -8.7893  -16.3989 C   0  0  0  0  0  0  0  0  0  0  0  0
   23.2142   -8.6762  -15.2400 O   0  0  0  0  0  0  0  0  0  0  0  0
   24.1390   -5.1724  -18.6064 O   0  0  0  0  0  0  0  0  0  0  0  0
   24.3990   -5.2086  -17.2498 C   0  0  0  0  0  0  0  0  0  0  0  0
   23.6550   -6.3396  -16.5640 C   0  0  2  0  0  0  0  0  0  0  0  0
   23.9423   -7.6165  -17.1235 N   0  0  0  0  0  0  0  0  0  0  0  0
   22.1812   -6.0471  -16.5509 C   0  0  0  0  0  0  0  0  0  0  0  0
   21.4377   -6.4213  -17.4940 O   0  0  0  0  0  0  0  0  0  0  0  0
   19.3751   -5.7214  -14.4424 C   0  0  0  0  0  0  0  0  0  0  0  0
   20.1825   -4.9685  -15.4589 C   0  0  2  0  0  0  0  0  0  0  0  0
   21.5630   -5.3408  -15.4830 N   0  0  0  0  0  0  0  0  0  0  0  0
   19.9855   -3.5093  -15.2738 C   0  0  0  0  0  0  0  0  0  0  0  0
   20.9913   -2.8181  -14.9858 O   0  0  0  0  0  0  0  0  0  0  0  0
   18.7706   -2.8629  -15.3975 O   0  0  0  0  0  0  0  0  0  0  0  0
  2  1  1  1
  2 10  1  0
  3  2  1  0
  4  5  2  0
  4  3  1  0
  6  5  1  0
  7  6  2  0
  8  7  1  0
  8  9  2  0
  9  4  1  0
 10 11  2  0
 10 15  1  0
 13 12  1  0
 14 13  1  6
 15 14  1  0
 16 14  1  0
 16 17  2  0
 19 18  1  1
 19 20  1  0
 20 16  1  0
 21 19  1  0
 22 21  2  0
 23 21  1  0
M  END
$$$$
