FSA.pdb
     RDKit          3D

 23 23  0  0  1  0  0  0  0  0999 V2000
   28.4179  -21.2610   -9.0819 N   0  0  0  0  0  0  0  0  0  0  0  0
   27.0042  -20.9826   -8.9650 C   0  0  1  0  0  0  0  0  0  0  0  0
   26.8157  -19.6349   -8.2915 C   0  0  0  0  0  0  0  0  0  0  0  0
   27.3761  -19.7253   -6.9252 C   0  0  0  0  0  0  0  0  0  0  0  0
   28.3681  -18.8625   -6.5105 C   0  0  0  0  0  0  0  0  0  0  0  0
   28.8829  -18.9642   -5.2176 C   0  0  0  0  0  0  0  0  0  0  0  0
   28.4073  -19.9161   -4.3608 C   0  0  0  0  0  0  0  0  0  0  0  0
   27.4218  -20.7781   -4.7630 C   0  0  0  0  0  0  0  0  0  0  0  0
   26.9228  -20.6657   -6.0434 C   0  0  0  0  0  0  0  0  0  0  0  0
   26.3574  -21.0170  -10.2840 C   0  0  0  0  0  0  0  0  0  0  0  0
   27.0288  -20.7110  -11.3025 O   0  0  0  0  0  0  0  0  0  0  0  0
   22.2958  -22.2459  -11.0622 O   0  0  0  0  0  0  0  0  0  0  0  0
   23.3758  -22.5423  -11.8715 C   0  0  0  0  0  0  0  0  0  0  0  0
   24.4609  -21.4861  -11.7715 C   0  0  2  0  0  0  0  0  0  0  0  0
   25.0152  -21.3777  -10.4650 N   0  0  0  0  0  0  0  0  0  0  0  0
   23.9400  -20.1697  -12.2753 C   0  0  0  0  0  0  0  0  0  0  0  0
   23.4644  -19.3153  -11.4841 O   0  0  0  0  0  0  0  0  0  0  0  0
   23.7935  -18.3651  -15.6152 C   0  0  0  0  0  0  0  0  0  0  0  0
   23.3804  -18.6414  -14.1993 C   0  0  2  0  0  0  0  0  0  0  0  0
   23.9596  -19.8307  -13.6559 N   0  0  0  0  0  0  0  0  0  0  0  0
   21.8999  -18.6270  -14.0977 C   0  0  0  0  0  0  0  0  0  0  0  0
   21.3019  -19.7277  -14.1537 O   0  0  0  0  0  0  0  0  0  0  0  0
   21.1383  -17.4842  -13.9458 O   0  0  0  0  0  0  0  0  0  0  0  0
  2  1  1  6
  2 10  1  0
  3  2  1  0
  4  5  2  0
  4  3  1  0
  6  5  1  0
  7  6  2  0
  8  7  1  0
  8  9  2  0
  9  4  1  0
 10 11  2  0
 10 15  1  0
 13 12  1  0
 14 13  1  1
 15 14  1  0
 16 14  1  0
 16 17  2  0
 19 18  1  6
 19 20  1  0
 20 16  1  0
 21 19  1  0
 22 21  2  0
 23 21  1  0
M  END
$$$$
