FSA.pdb
     RDKit          3D

 23 23  0  0  1  0  0  0  0  0999 V2000
   18.7524   -6.5162  -13.7975 N   0  0  0  0  0  0  0  0  0  0  0  0
   19.3026   -7.0893  -15.0052 C   0  0  1  0  0  0  0  0  0  0  0  0
   19.7953   -5.9719  -15.9075 C   0  0  0  0  0  0  0  0  0  0  0  0
   18.6133   -5.2445  -16.4200 C   0  0  0  0  0  0  0  0  0  0  0  0
   17.8263   -5.7873  -17.4132 C   0  0  0  0  0  0  0  0  0  0  0  0
   16.7156   -5.0851  -17.8824 C   0  0  0  0  0  0  0  0  0  0  0  0
   16.4049   -3.8612  -17.3610 C   0  0  0  0  0  0  0  0  0  0  0  0
   17.1803   -3.3132  -16.3738 C   0  0  0  0  0  0  0  0  0  0  0  0
   18.2747   -4.0185  -15.9201 C   0  0  0  0  0  0  0  0  0  0  0  0
   20.3813   -8.0350  -14.6866 C   0  0  0  0  0  0  0  0  0  0  0  0
   20.9803   -7.9310  -13.5857 O   0  0  0  0  0  0  0  0  0  0  0  0
   21.1790  -11.5442  -16.9078 O   0  0  0  0  0  0  0  0  0  0  0  0
   21.4289  -11.4244  -15.5542 C   0  0  0  0  0  0  0  0  0  0  0  0
   21.7753   -9.9978  -15.1696 C   0  0  2  0  0  0  0  0  0  0  0  0
   20.7795   -9.0579  -15.5581 N   0  0  0  0  0  0  0  0  0  0  0  0
   23.1315   -9.6391  -15.7080 C   0  0  0  0  0  0  0  0  0  0  0  0
   23.2529   -8.9073  -16.7239 O   0  0  0  0  0  0  0  0  0  0  0  0
   26.7355  -10.4767  -14.8013 C   0  0  0  0  0  0  0  0  0  0  0  0
   25.6424   -9.8204  -15.5927 C   0  0  2  0  0  0  0  0  0  0  0  0
   24.3300  -10.1047  -15.1010 N   0  0  0  0  0  0  0  0  0  0  0  0
   25.7991  -10.1492  -17.0314 C   0  0  0  0  0  0  0  0  0  0  0  0
   25.1691  -11.1388  -17.4742 O   0  0  0  0  0  0  0  0  0  0  0  0
   26.5910   -9.4394  -17.9134 O   0  0  0  0  0  0  0  0  0  0  0  0
  2  1  1  1
  2 10  1  0
  3  2  1  0
  4  5  2  0
  4  3  1  0
  6  5  1  0
  7  6  2  0
  8  7  1  0
  8  9  2  0
  9  4  1  0
 10 11  2  0
 10 15  1  0
 13 12  1  0
 14 13  1  6
 15 14  1  0
 16 14  1  0
 16 17  2  0
 19 18  1  1
 19 20  1  0
 20 16  1  0
 21 19  1  0
 22 21  2  0
 23 21  1  0
M  END
$$$$
