FSA.pdb
     RDKit          3D

 23 23  0  0  1  0  0  0  0  0999 V2000
   19.7450  -11.9086  -16.2625 N   0  0  0  0  0  0  0  0  0  0  0  0
   19.9205  -10.6514  -16.9541 C   0  0  1  0  0  0  0  0  0  0  0  0
   19.1238  -10.6783  -18.2465 C   0  0  0  0  0  0  0  0  0  0  0  0
   19.7893  -11.6202  -19.1732 C   0  0  0  0  0  0  0  0  0  0  0  0
   19.4764  -12.9627  -19.1604 C   0  0  0  0  0  0  0  0  0  0  0  0
   20.1154  -13.8344  -20.0429 C   0  0  0  0  0  0  0  0  0  0  0  0
   21.0502  -13.3623  -20.9201 C   0  0  0  0  0  0  0  0  0  0  0  0
   21.3682  -12.0301  -20.9409 C   0  0  0  0  0  0  0  0  0  0  0  0
   20.7288  -11.1807  -20.0631 C   0  0  0  0  0  0  0  0  0  0  0  0
   19.5155   -9.5272  -16.0989 C   0  0  0  0  0  0  0  0  0  0  0  0
   18.6341   -9.7132  -15.2212 O   0  0  0  0  0  0  0  0  0  0  0  0
   21.8635   -6.9420  -14.4423 O   0  0  0  0  0  0  0  0  0  0  0  0
   20.5263   -7.0591  -14.1147 C   0  0  0  0  0  0  0  0  0  0  0  0
   19.6538   -7.1931  -15.3491 C   0  0  2  0  0  0  0  0  0  0  0  0
   20.0687   -8.2446  -16.2141 N   0  0  0  0  0  0  0  0  0  0  0  0
   19.5729   -5.8732  -16.0628 C   0  0  0  0  0  0  0  0  0  0  0  0
   20.4531   -5.5305  -16.8934 O   0  0  0  0  0  0  0  0  0  0  0  0
   17.1012   -2.9935  -16.2520 C   0  0  0  0  0  0  0  0  0  0  0  0
   18.4458   -3.6440  -16.3959 C   0  0  2  0  0  0  0  0  0  0  0  0
   18.5086   -4.9582  -15.8356 N   0  0  0  0  0  0  0  0  0  0  0  0
   19.4976   -2.7429  -15.8629 C   0  0  0  0  0  0  0  0  0  0  0  0
   20.0511   -3.0676  -14.7856 O   0  0  0  0  0  0  0  0  0  0  0  0
   19.9067   -1.5727  -16.4730 O   0  0  0  0  0  0  0  0  0  0  0  0
  2  1  1  1
  2 10  1  0
  3  2  1  0
  4  5  2  0
  4  3  1  0
  6  5  1  0
  7  6  2  0
  8  7  1  0
  8  9  2  0
  9  4  1  0
 10 11  2  0
 10 15  1  0
 13 12  1  0
 14 13  1  1
 15 14  1  0
 16 14  1  0
 16 17  2  0
 19 18  1  1
 19 20  1  0
 20 16  1  0
 21 19  1  0
 22 21  2  0
 23 21  1  0
M  END
$$$$
