FSA.pdb
     RDKit          3D

 23 23  0  0  1  0  0  0  0  0999 V2000
   23.2882   -3.0743  -18.1423 N   0  0  0  0  0  0  0  0  0  0  0  0
   22.4527   -4.2539  -18.1520 C   0  0  1  0  0  0  0  0  0  0  0  0
   22.5270   -4.9060  -19.5212 C   0  0  0  0  0  0  0  0  0  0  0  0
   21.6733   -4.1267  -20.4447 C   0  0  0  0  0  0  0  0  0  0  0  0
   22.2279   -3.2232  -21.3259 C   0  0  0  0  0  0  0  0  0  0  0  0
   21.4051   -2.4984  -22.1888 C   0  0  0  0  0  0  0  0  0  0  0  0
   20.0514   -2.6808  -22.1636 C   0  0  0  0  0  0  0  0  0  0  0  0
   19.4906   -3.5760  -21.2919 C   0  0  0  0  0  0  0  0  0  0  0  0
   20.3160   -4.2851  -20.4452 C   0  0  0  0  0  0  0  0  0  0  0  0
   22.8592   -5.1869  -17.0919 C   0  0  0  0  0  0  0  0  0  0  0  0
   24.0689   -5.2360  -16.7514 O   0  0  0  0  0  0  0  0  0  0  0  0
   20.2813   -6.9572  -14.2825 O   0  0  0  0  0  0  0  0  0  0  0  0
   21.6372   -6.7539  -14.1107 C   0  0  0  0  0  0  0  0  0  0  0  0
   22.4004   -6.9180  -15.4121 C   0  0  2  0  0  0  0  0  0  0  0  0
   21.9560   -6.0336  -16.4349 N   0  0  0  0  0  0  0  0  0  0  0  0
   22.3592   -8.3548  -15.8503 C   0  0  0  0  0  0  0  0  0  0  0  0
   21.4922   -8.7586  -16.6672 O   0  0  0  0  0  0  0  0  0  0  0  0
   24.3646  -11.5015  -15.0813 C   0  0  0  0  0  0  0  0  0  0  0  0
   23.2759  -10.6992  -15.7317 C   0  0  2  0  0  0  0  0  0  0  0  0
   23.2886   -9.3164  -15.3675 N   0  0  0  0  0  0  0  0  0  0  0  0
   21.9626  -11.3447  -15.4850 C   0  0  0  0  0  0  0  0  0  0  0  0
   21.2957  -10.9496  -14.4994 O   0  0  0  0  0  0  0  0  0  0  0  0
   21.4268  -12.3498  -16.2672 O   0  0  0  0  0  0  0  0  0  0  0  0
  2  1  1  6
  2 10  1  0
  3  2  1  0
  4  5  2  0
  4  3  1  0
  6  5  1  0
  7  6  2  0
  8  7  1  0
  8  9  2  0
  9  4  1  0
 10 11  2  0
 10 15  1  0
 13 12  1  0
 14 13  1  1
 15 14  1  0
 16 14  1  0
 16 17  2  0
 19 18  1  1
 19 20  1  0
 20 16  1  0
 21 19  1  0
 22 21  2  0
 23 21  1  0
M  END
$$$$
