FSA.pdb
     RDKit          3D

 23 23  0  0  1  0  0  0  0  0999 V2000
   17.0199   -8.0387  -10.4451 N   0  0  0  0  0  0  0  0  0  0  0  0
   15.8903   -7.3349   -9.8810 C   0  0  1  0  0  0  0  0  0  0  0  0
   15.5550   -7.9347   -8.5269 C   0  0  0  0  0  0  0  0  0  0  0  0
   14.0839   -8.0632   -8.4364 C   0  0  0  0  0  0  0  0  0  0  0  0
   13.3274   -7.0928   -7.8147 C   0  0  0  0  0  0  0  0  0  0  0  0
   11.9411   -7.2329   -7.7403 C   0  0  0  0  0  0  0  0  0  0  0  0
   11.3304   -8.3286   -8.2815 C   0  0  0  0  0  0  0  0  0  0  0  0
   12.0730   -9.2983   -8.9014 C   0  0  0  0  0  0  0  0  0  0  0  0
   13.4417   -9.1464   -8.9673 C   0  0  0  0  0  0  0  0  0  0  0  0
   16.1749   -5.8972   -9.7740 C   0  0  0  0  0  0  0  0  0  0  0  0
   17.3547   -5.5223   -9.5525 O   0  0  0  0  0  0  0  0  0  0  0  0
   14.2340   -3.0593  -11.8081 O   0  0  0  0  0  0  0  0  0  0  0  0
   15.4427   -2.8296  -11.1792 C   0  0  0  0  0  0  0  0  0  0  0  0
   15.5206   -3.5313   -9.8358 C   0  0  2  0  0  0  0  0  0  0  0  0
   15.1861   -4.9129   -9.9078 N   0  0  0  0  0  0  0  0  0  0  0  0
   14.6811   -2.7986   -8.8277 C   0  0  0  0  0  0  0  0  0  0  0  0
   13.4837   -3.1242   -8.6220 O   0  0  0  0  0  0  0  0  0  0  0  0
   15.2093    0.1213   -6.4388 C   0  0  0  0  0  0  0  0  0  0  0  0
   14.4139   -0.9231   -7.1658 C   0  0  2  0  0  0  0  0  0  0  0  0
   15.1949   -1.7134   -8.0661 N   0  0  0  0  0  0  0  0  0  0  0  0
   13.2433   -0.2923   -7.8247 C   0  0  0  0  0  0  0  0  0  0  0  0
   13.3225   -0.0604   -9.0545 O   0  0  0  0  0  0  0  0  0  0  0  0
   12.0746    0.0557   -7.1751 O   0  0  0  0  0  0  0  0  0  0  0  0
  2  1  1  1
  2 10  1  0
  3  2  1  0
  4  5  2  0
  4  3  1  0
  6  5  1  0
  7  6  2  0
  8  7  1  0
  8  9  2  0
  9  4  1  0
 10 11  2  0
 10 15  1  0
 13 12  1  0
 14 13  1  6
 15 14  1  0
 16 14  1  0
 16 17  2  0
 19 18  1  6
 19 20  1  0
 20 16  1  0
 21 19  1  0
 22 21  2  0
 23 21  1  0
M  END
$$$$
