FSA.pdb
     RDKit          3D

 23 23  0  0  1  0  0  0  0  0999 V2000
   27.9722  -20.4655  -11.2728 N   0  0  0  0  0  0  0  0  0  0  0  0
   26.7524  -21.1581  -10.9234 C   0  0  1  0  0  0  0  0  0  0  0  0
   26.1211  -20.4796   -9.7206 C   0  0  0  0  0  0  0  0  0  0  0  0
   27.1362  -20.4193   -8.6459 C   0  0  0  0  0  0  0  0  0  0  0  0
   28.0951  -21.4022   -8.5246 C   0  0  0  0  0  0  0  0  0  0  0  0
   29.0437  -21.3265   -7.5041 C   0  0  0  0  0  0  0  0  0  0  0  0
   29.0257  -20.2815   -6.6243 C   0  0  0  0  0  0  0  0  0  0  0  0
   28.0771  -19.2998   -6.7363 C   0  0  0  0  0  0  0  0  0  0  0  0
   27.1463  -19.3878   -7.7495 C   0  0  0  0  0  0  0  0  0  0  0  0
   25.8284  -21.1910  -12.0655 C   0  0  0  0  0  0  0  0  0  0  0  0
   25.5833  -20.1241  -12.6847 O   0  0  0  0  0  0  0  0  0  0  0  0
   23.3723  -24.5217  -13.2852 O   0  0  0  0  0  0  0  0  0  0  0  0
   24.0560  -23.7322  -14.1898 C   0  0  0  0  0  0  0  0  0  0  0  0
   24.3333  -22.3483  -13.6324 C   0  0  2  0  0  0  0  0  0  0  0  0
   25.2002  -22.3649  -12.5035 N   0  0  0  0  0  0  0  0  0  0  0  0
   23.0371  -21.6470  -13.3389 C   0  0  0  0  0  0  0  0  0  0  0  0
   22.8862  -20.9783  -12.2843 O   0  0  0  0  0  0  0  0  0  0  0  0
   20.9268  -19.4809  -13.9879 C   0  0  0  0  0  0  0  0  0  0  0  0
   20.7194  -20.9656  -14.0562 C   0  0  2  0  0  0  0  0  0  0  0  0
   21.9308  -21.7053  -14.2301 N   0  0  0  0  0  0  0  0  0  0  0  0
   19.7015  -21.2820  -15.0888 C   0  0  0  0  0  0  0  0  0  0  0  0
   18.5663  -20.7640  -14.9649 O   0  0  0  0  0  0  0  0  0  0  0  0
   19.9207  -22.1073  -16.1749 O   0  0  0  0  0  0  0  0  0  0  0  0
  2  1  1  6
  2 10  1  0
  3  2  1  0
  4  5  2  0
  4  3  1  0
  6  5  1  0
  7  6  2  0
  8  7  1  0
  8  9  2  0
  9  4  1  0
 10 11  2  0
 10 15  1  0
 13 12  1  0
 14 13  1  1
 15 14  1  0
 16 14  1  0
 16 17  2  0
 19 18  1  6
 19 20  1  0
 20 16  1  0
 21 19  1  0
 22 21  2  0
 23 21  1  0
M  END
$$$$
