FSA.pdb
     RDKit          3D

 23 23  0  0  1  0  0  0  0  0999 V2000
   22.6690  -13.6658  -17.4040 N   0  0  0  0  0  0  0  0  0  0  0  0
   23.1640  -12.5342  -16.6529 C   0  0  1  0  0  0  0  0  0  0  0  0
   24.4957  -12.0940  -17.2345 C   0  0  0  0  0  0  0  0  0  0  0  0
   25.4677  -13.1906  -17.0299 C   0  0  0  0  0  0  0  0  0  0  0  0
   25.9525  -13.4787  -15.7720 C   0  0  0  0  0  0  0  0  0  0  0  0
   26.8685  -14.5172  -15.6005 C   0  0  0  0  0  0  0  0  0  0  0  0
   27.2868  -15.2500  -16.6750 C   0  0  0  0  0  0  0  0  0  0  0  0
   26.8110  -14.9717  -17.9289 C   0  0  0  0  0  0  0  0  0  0  0  0
   25.9065  -13.9427  -18.0831 C   0  0  0  0  0  0  0  0  0  0  0  0
   22.1867  -11.4368  -16.6626 C   0  0  0  0  0  0  0  0  0  0  0  0
   21.4103  -11.3181  -17.6448 O   0  0  0  0  0  0  0  0  0  0  0  0
   20.3603   -9.9027  -13.4058 O   0  0  0  0  0  0  0  0  0  0  0  0
   19.9280   -9.7463  -14.7087 C   0  0  0  0  0  0  0  0  0  0  0  0
   21.0833   -9.4868  -15.6580 C   0  0  2  0  0  0  0  0  0  0  0  0
   22.0759  -10.5062  -15.6204 N   0  0  0  0  0  0  0  0  0  0  0  0
   21.6620   -8.1248  -15.3973 C   0  0  0  0  0  0  0  0  0  0  0  0
   22.5594   -7.9566  -14.5320 O   0  0  0  0  0  0  0  0  0  0  0  0
   21.1575   -4.6269  -16.8194 C   0  0  0  0  0  0  0  0  0  0  0  0
   21.7474   -5.6572  -15.9016 C   0  0  2  0  0  0  0  0  0  0  0  0
   21.2275   -6.9731  -16.1089 N   0  0  0  0  0  0  0  0  0  0  0  0
   21.6194   -5.2057  -14.4937 C   0  0  0  0  0  0  0  0  0  0  0  0
   20.7111   -5.7190  -13.7981 O   0  0  0  0  0  0  0  0  0  0  0  0
   22.4323   -4.2595  -13.8996 O   0  0  0  0  0  0  0  0  0  0  0  0
  2  1  1  6
  2 10  1  0
  3  2  1  0
  4  5  2  0
  4  3  1  0
  6  5  1  0
  7  6  2  0
  8  7  1  0
  8  9  2  0
  9  4  1  0
 10 11  2  0
 10 15  1  0
 13 12  1  0
 14 13  1  1
 15 14  1  0
 16 14  1  0
 16 17  2  0
 19 18  1  6
 19 20  1  0
 20 16  1  0
 21 19  1  0
 22 21  2  0
 23 21  1  0
M  END
$$$$
