NMD.pdb
     RDKit          3D

 25 24  0  0  1  0  0  0  0  0999 V2000
    9.4236  -15.6669   17.4278 N   0  0  0  0  0  0  0  0  0  0  0  0
    8.4154  -15.7429   18.3984 C   0  0  0  0  0  0  0  0  0  0  0  0
    7.3140  -16.2955   18.1471 O   0  0  0  0  0  0  0  0  0  0  0  0
    8.6220  -15.1770   19.7350 C   0  0  0  0  0  0  0  0  0  0  0  0
    8.6618  -16.2965   20.7492 C   0  0  2  0  0  0  0  0  0  0  0  0
    7.3840  -16.9505   20.8868 N   0  0  0  0  0  0  0  0  0  0  0  0
    9.1219  -15.7937   22.0784 C   0  0  0  0  0  0  0  0  0  0  0  0
   10.2687  -15.3067   22.2409 O   0  0  0  0  0  0  0  0  0  0  0  0
    6.9512  -11.9961   27.1652 C   0  0  0  0  0  0  0  0  0  0  0  0
    6.0694  -12.6609   25.7181 S   0  0  0  0  0  0  0  0  0  0  0  0
    7.3585  -13.5261   24.7165 C   0  0  0  0  0  0  0  0  0  0  0  0
    7.6905  -14.8436   25.3246 C   0  0  0  0  0  0  0  0  0  0  0  0
    8.7438  -15.5441   24.5240 C   0  0  2  0  0  0  0  0  0  0  0  0
    8.2603  -15.8608   23.1844 N   0  0  0  0  0  0  0  0  0  0  0  0
    9.3176  -16.7526   25.1541 C   0  0  0  0  0  0  0  0  0  0  0  0
    8.7380  -17.8561   25.2587 O   0  0  0  0  0  0  0  0  0  0  0  0
   10.6380  -16.6639   25.6894 N   0  0  0  0  0  0  0  0  0  0  0  0
   11.2962  -17.7755   26.3370 C   0  0  1  0  0  0  0  0  0  0  0  0
   12.7828  -17.5620   26.2515 C   0  0  0  0  0  0  0  0  0  0  0  0
   13.2467  -17.7315   24.8590 C   0  0  0  0  0  0  0  0  0  0  0  0
   12.4722  -18.1204   23.9581 O   0  0  0  0  0  0  0  0  0  0  0  0
   10.8343  -17.8037   27.7584 C   0  0  0  0  0  0  0  0  0  0  0  0
   10.1367  -16.7448   28.3174 O   0  0  0  0  0  0  0  0  0  0  0  0
   14.5816  -17.4509   24.5398 O   0  0  0  0  0  0  0  0  0  0  0  0
   11.0809  -18.8063   28.4661 O   0  0  0  0  0  0  0  0  0  0  0  0
  2  1  1  0
  2  3  2  0
  4  5  1  0
  4  2  1  0
  5  6  1  1
  7  5  1  0
  7  8  2  0
  9 10  1  0
 11 10  1  0
 12 11  1  0
 13 12  1  1
 13 14  1  0
 14  7  1  0
 15 17  1  0
 15 13  1  0
 16 15  2  0
 18 17  1  0
 18 22  1  0
 19 20  1  0
 18 19  1  1
 20 24  1  0
 21 20  2  0
 22 23  1  0
 25 22  2  0
M  END
$$$$
