NMD.pdb
     RDKit          3D

 25 24  0  0  1  0  0  0  0  0999 V2000
    9.4222  -17.1059   17.3219 N   0  0  0  0  0  0  0  0  0  0  0  0
    8.3884  -16.9607   18.2569 C   0  0  0  0  0  0  0  0  0  0  0  0
    7.3413  -17.6528   18.1781 O   0  0  0  0  0  0  0  0  0  0  0  0
    8.5038  -15.9941   19.3531 C   0  0  0  0  0  0  0  0  0  0  0  0
    8.8396  -16.7278   20.6308 C   0  0  2  0  0  0  0  0  0  0  0  0
    7.7877  -17.6288   21.0325 N   0  0  0  0  0  0  0  0  0  0  0  0
    9.1344  -15.7656   21.7347 C   0  0  0  0  0  0  0  0  0  0  0  0
   10.0823  -14.9441   21.6609 O   0  0  0  0  0  0  0  0  0  0  0  0
    6.5124  -11.2857   27.3551 C   0  0  0  0  0  0  0  0  0  0  0  0
    6.0278  -12.7804   26.4361 S   0  0  0  0  0  0  0  0  0  0  0  0
    7.6026  -13.4671   25.7564 C   0  0  0  0  0  0  0  0  0  0  0  0
    7.3297  -14.2944   24.5493 C   0  0  0  0  0  0  0  0  0  0  0  0
    8.6050  -14.8318   23.9784 C   0  0  2  0  0  0  0  0  0  0  0  0
    8.3394  -15.7681   22.8914 N   0  0  0  0  0  0  0  0  0  0  0  0
    9.5285  -15.4427   24.9585 C   0  0  0  0  0  0  0  0  0  0  0  0
    9.8837  -14.9202   26.0380 O   0  0  0  0  0  0  0  0  0  0  0  0
   10.0637  -16.7317   24.6587 N   0  0  0  0  0  0  0  0  0  0  0  0
   10.9658  -17.4302   25.5456 C   0  0  1  0  0  0  0  0  0  0  0  0
   10.6011  -18.8896   25.5405 C   0  0  0  0  0  0  0  0  0  0  0  0
    9.3662  -19.1131   26.3202 C   0  0  0  0  0  0  0  0  0  0  0  0
    9.1883  -18.5631   27.4287 O   0  0  0  0  0  0  0  0  0  0  0  0
   12.3535  -17.2173   25.0322 C   0  0  0  0  0  0  0  0  0  0  0  0
   13.4668  -17.4902   25.8112 O   0  0  0  0  0  0  0  0  0  0  0  0
    8.3731  -19.9584   25.8085 O   0  0  0  0  0  0  0  0  0  0  0  0
   12.5202  -16.7820   23.8706 O   0  0  0  0  0  0  0  0  0  0  0  0
  2  1  1  0
  2  3  2  0
  4  5  1  0
  4  2  1  0
  5  6  1  1
  7  5  1  0
  7  8  2  0
  9 10  1  0
 11 10  1  0
 12 11  1  0
 13 12  1  1
 13 14  1  0
 14  7  1  0
 15 17  1  0
 15 13  1  0
 16 15  2  0
 18 17  1  0
 18 22  1  0
 19 20  1  0
 18 19  1  6
 20 24  1  0
 21 20  2  0
 22 23  1  0
 25 22  2  0
M  END
$$$$
