NMD.pdb
     RDKit          3D

 25 24  0  0  1  0  0  0  0  0999 V2000
    7.0630  -12.9225   17.4352 N   0  0  0  0  0  0  0  0  0  0  0  0
    8.1531  -13.5731   18.0289 C   0  0  0  0  0  0  0  0  0  0  0  0
    8.8702  -14.3690   17.3701 O   0  0  0  0  0  0  0  0  0  0  0  0
    8.4841  -13.3405   19.4380 C   0  0  0  0  0  0  0  0  0  0  0  0
    8.4651  -14.6578   20.1782 C   0  0  2  0  0  0  0  0  0  0  0  0
    7.1840  -15.3136   20.0872 N   0  0  0  0  0  0  0  0  0  0  0  0
    8.8386  -14.4676   21.6119 C   0  0  0  0  0  0  0  0  0  0  0  0
    9.9900  -14.0970   21.9522 O   0  0  0  0  0  0  0  0  0  0  0  0
    6.6353  -11.1590   26.7055 C   0  0  0  0  0  0  0  0  0  0  0  0
    6.3131  -12.8804   27.2022 S   0  0  0  0  0  0  0  0  0  0  0  0
    7.5367  -13.8965   26.2620 C   0  0  0  0  0  0  0  0  0  0  0  0
    7.1824  -13.9294   24.8166 C   0  0  0  0  0  0  0  0  0  0  0  0
    8.2551  -14.6110   24.0255 C   0  0  2  0  0  0  0  0  0  0  0  0
    7.8879  -14.7055   22.6166 N   0  0  0  0  0  0  0  0  0  0  0  0
    8.6674  -15.9378   24.5314 C   0  0  0  0  0  0  0  0  0  0  0  0
    7.9890  -16.9853   24.4463 O   0  0  0  0  0  0  0  0  0  0  0  0
    9.9397  -16.0433   25.1702 N   0  0  0  0  0  0  0  0  0  0  0  0
   10.4561  -17.2911   25.6849 C   0  0  1  0  0  0  0  0  0  0  0  0
   11.9488  -17.2998   25.4987 C   0  0  0  0  0  0  0  0  0  0  0  0
   12.2907  -17.6585   24.1068 C   0  0  0  0  0  0  0  0  0  0  0  0
   11.4219  -18.0751   23.3103 O   0  0  0  0  0  0  0  0  0  0  0  0
   10.0907  -17.3644   27.1325 C   0  0  0  0  0  0  0  0  0  0  0  0
    9.7503  -16.2317   27.8547 O   0  0  0  0  0  0  0  0  0  0  0  0
   13.6152  -17.5298   23.6689 O   0  0  0  0  0  0  0  0  0  0  0  0
   10.0904  -18.4740   27.7119 O   0  0  0  0  0  0  0  0  0  0  0  0
  2  1  1  0
  2  3  2  0
  4  5  1  0
  4  2  1  0
  5  6  1  1
  7  5  1  0
  7  8  2  0
  9 10  1  0
 11 10  1  0
 12 11  1  0
 13 12  1  1
 13 14  1  0
 14  7  1  0
 15 17  1  0
 15 13  1  0
 16 15  2  0
 18 17  1  0
 18 22  1  0
 19 20  1  0
 18 19  1  1
 20 24  1  0
 21 20  2  0
 22 23  1  0
 25 22  2  0
M  END
$$$$
