NMD.pdb
     RDKit          3D

 25 24  0  0  1  0  0  0  0  0999 V2000
    7.9660  -12.5454   17.2263 N   0  0  0  0  0  0  0  0  0  0  0  0
    7.8072  -13.6111   18.1225 C   0  0  0  0  0  0  0  0  0  0  0  0
    7.3955  -14.7326   17.7296 O   0  0  0  0  0  0  0  0  0  0  0  0
    8.1183  -13.4426   19.5453 C   0  0  0  0  0  0  0  0  0  0  0  0
    8.2916  -14.8021   20.1817 C   0  0  2  0  0  0  0  0  0  0  0  0
    7.0769  -15.5785   20.1440 N   0  0  0  0  0  0  0  0  0  0  0  0
    8.7690  -14.6725   21.5911 C   0  0  0  0  0  0  0  0  0  0  0  0
    9.9206  -14.2498   21.8635 O   0  0  0  0  0  0  0  0  0  0  0  0
    6.0748  -10.7172   26.3277 C   0  0  0  0  0  0  0  0  0  0  0  0
    5.9834  -12.5349   26.2882 S   0  0  0  0  0  0  0  0  0  0  0  0
    7.2810  -13.0625   25.0835 C   0  0  0  0  0  0  0  0  0  0  0  0
    7.2993  -14.5455   24.9568 C   0  0  0  0  0  0  0  0  0  0  0  0
    8.3904  -14.9827   24.0298 C   0  0  2  0  0  0  0  0  0  0  0  0
    7.9191  -15.0287   22.6498 N   0  0  0  0  0  0  0  0  0  0  0  0
    9.0467  -16.2597   24.3835 C   0  0  0  0  0  0  0  0  0  0  0  0
    8.5418  -17.3949   24.2385 O   0  0  0  0  0  0  0  0  0  0  0  0
   10.3620  -16.2043   24.9357 N   0  0  0  0  0  0  0  0  0  0  0  0
   11.0935  -17.3849   25.3351 C   0  0  1  0  0  0  0  0  0  0  0  0
   12.5642  -17.1039   25.1893 C   0  0  0  0  0  0  0  0  0  0  0  0
   13.2709  -18.3063   24.7021 C   0  0  0  0  0  0  0  0  0  0  0  0
   12.6676  -19.3856   24.5179 O   0  0  0  0  0  0  0  0  0  0  0  0
   10.7360  -17.6740   26.7575 C   0  0  0  0  0  0  0  0  0  0  0  0
    9.9977  -16.7809   27.5176 O   0  0  0  0  0  0  0  0  0  0  0  0
   14.6455  -18.2375   24.4404 O   0  0  0  0  0  0  0  0  0  0  0  0
   11.1101  -18.7481   27.2801 O   0  0  0  0  0  0  0  0  0  0  0  0
  2  1  1  0
  2  3  2  0
  4  5  1  0
  4  2  1  0
  5  6  1  1
  7  5  1  0
  7  8  2  0
  9 10  1  0
 11 10  1  0
 12 11  1  0
 13 12  1  1
 13 14  1  0
 14  7  1  0
 15 17  1  0
 15 13  1  0
 16 15  2  0
 18 17  1  0
 18 22  1  0
 19 20  1  0
 18 19  1  1
 20 24  1  0
 21 20  2  0
 22 23  1  0
 25 22  2  0
M  END
$$$$
