NMD.pdb
     RDKit          3D

 25 24  0  0  1  0  0  0  0  0999 V2000
    8.0372  -16.7100   16.9364 N   0  0  0  0  0  0  0  0  0  0  0  0
    9.0438  -16.8720   17.8980 C   0  0  0  0  0  0  0  0  0  0  0  0
    9.9198  -17.7658   17.7751 O   0  0  0  0  0  0  0  0  0  0  0  0
    9.0987  -15.9997   19.0751 C   0  0  0  0  0  0  0  0  0  0  0  0
    8.7832  -16.8102   20.3109 C   0  0  2  0  0  0  0  0  0  0  0  0
    7.3804  -17.1301   20.4072 N   0  0  0  0  0  0  0  0  0  0  0  0
    9.2277  -16.0943   21.5442 C   0  0  0  0  0  0  0  0  0  0  0  0
   10.4321  -15.7918   21.7360 O   0  0  0  0  0  0  0  0  0  0  0  0
    6.9922  -11.3638   26.3465 C   0  0  0  0  0  0  0  0  0  0  0  0
    6.5398  -13.1140   26.5612 S   0  0  0  0  0  0  0  0  0  0  0  0
    7.9572  -14.0731   25.8649 C   0  0  0  0  0  0  0  0  0  0  0  0
    7.5317  -14.8184   24.6486 C   0  0  0  0  0  0  0  0  0  0  0  0
    8.7045  -15.0897   23.7586 C   0  0  2  0  0  0  0  0  0  0  0  0
    8.2854  -15.7436   22.5235 N   0  0  0  0  0  0  0  0  0  0  0  0
    9.8100  -15.8476   24.3829 C   0  0  0  0  0  0  0  0  0  0  0  0
   10.9651  -15.9557   23.9153 O   0  0  0  0  0  0  0  0  0  0  0  0
    9.5492  -16.5136   25.6184 N   0  0  0  0  0  0  0  0  0  0  0  0
   10.4780  -17.4450   26.2168 C   0  0  1  0  0  0  0  0  0  0  0  0
   11.8660  -16.8790   26.0898 C   0  0  0  0  0  0  0  0  0  0  0  0
   12.7092  -17.7673   25.2635 C   0  0  0  0  0  0  0  0  0  0  0  0
   12.2310  -18.7701   24.6903 O   0  0  0  0  0  0  0  0  0  0  0  0
   10.0888  -17.6073   27.6509 C   0  0  0  0  0  0  0  0  0  0  0  0
    8.9986  -16.9415   28.1883 O   0  0  0  0  0  0  0  0  0  0  0  0
   14.0730  -17.4815   25.1181 O   0  0  0  0  0  0  0  0  0  0  0  0
   10.7607  -18.3622   28.3896 O   0  0  0  0  0  0  0  0  0  0  0  0
  2  1  1  0
  2  3  2  0
  4  5  1  0
  4  2  1  0
  5  6  1  1
  7  5  1  0
  7  8  2  0
  9 10  1  0
 11 10  1  0
 12 11  1  0
 13 12  1  1
 13 14  1  0
 14  7  1  0
 15 17  1  0
 15 13  1  0
 16 15  2  0
 18 17  1  0
 18 22  1  0
 19 20  1  0
 18 19  1  1
 20 24  1  0
 21 20  2  0
 22 23  1  0
 25 22  2  0
M  END
$$$$
