NMD.pdb
     RDKit          3D

 25 24  0  0  1  0  0  0  0  0999 V2000
    7.2524  -16.7373   17.9530 N   0  0  0  0  0  0  0  0  0  0  0  0
    8.1311  -15.6480   17.8782 C   0  0  0  0  0  0  0  0  0  0  0  0
    8.3606  -15.0744   16.7828 O   0  0  0  0  0  0  0  0  0  0  0  0
    8.8065  -15.1500   19.0803 C   0  0  0  0  0  0  0  0  0  0  0  0
    8.4146  -16.0058   20.2625 C   0  0  2  0  0  0  0  0  0  0  0  0
    6.9874  -16.1936   20.3478 N   0  0  0  0  0  0  0  0  0  0  0  0
    8.9278  -15.4194   21.5368 C   0  0  0  0  0  0  0  0  0  0  0  0
   10.1531  -15.2140   21.7245 O   0  0  0  0  0  0  0  0  0  0  0  0
    5.6813  -12.3089   26.8804 C   0  0  0  0  0  0  0  0  0  0  0  0
    7.4342  -11.9062   26.5993 S   0  0  0  0  0  0  0  0  0  0  0  0
    8.1905  -13.4560   25.9363 C   0  0  0  0  0  0  0  0  0  0  0  0
    7.7016  -13.7228   24.5559 C   0  0  0  0  0  0  0  0  0  0  0  0
    8.5078  -14.8066   23.9106 C   0  0  2  0  0  0  0  0  0  0  0  0
    8.0283  -15.0839   22.5608 N   0  0  0  0  0  0  0  0  0  0  0  0
    8.6072  -16.0647   24.6811 C   0  0  0  0  0  0  0  0  0  0  0  0
    7.6588  -16.8477   24.9097 O   0  0  0  0  0  0  0  0  0  0  0  0
    9.8828  -16.4243   25.2114 N   0  0  0  0  0  0  0  0  0  0  0  0
   10.1016  -17.6332   25.9724 C   0  0  1  0  0  0  0  0  0  0  0  0
   10.9199  -18.5788   25.1363 C   0  0  0  0  0  0  0  0  0  0  0  0
   12.1526  -17.9136   24.6664 C   0  0  0  0  0  0  0  0  0  0  0  0
   12.9681  -17.4119   25.4702 O   0  0  0  0  0  0  0  0  0  0  0  0
   10.8260  -17.2508   27.2229 C   0  0  0  0  0  0  0  0  0  0  0  0
   11.0602  -18.1665   28.2364 O   0  0  0  0  0  0  0  0  0  0  0  0
   12.4147  -17.8426   23.2920 O   0  0  0  0  0  0  0  0  0  0  0  0
   11.2336  -16.0757   27.3634 O   0  0  0  0  0  0  0  0  0  0  0  0
  2  1  1  0
  2  3  2  0
  4  5  1  0
  4  2  1  0
  5  6  1  1
  7  5  1  0
  7  8  2  0
  9 10  1  0
 11 10  1  0
 12 11  1  0
 13 12  1  1
 13 14  1  0
 14  7  1  0
 15 17  1  0
 15 13  1  0
 16 15  2  0
 18 17  1  0
 18 22  1  0
 19 20  1  0
 18 19  1  6
 20 24  1  0
 21 20  2  0
 22 23  1  0
 25 22  2  0
M  END
$$$$
