NMD.pdb
     RDKit          3D

 25 24  0  0  1  0  0  0  0  0999 V2000
    8.0839  -16.1459   17.8229 N   0  0  0  0  0  0  0  0  0  0  0  0
    8.0332  -14.7899   18.1737 C   0  0  0  0  0  0  0  0  0  0  0  0
    7.8973  -13.8983   17.2973 O   0  0  0  0  0  0  0  0  0  0  0  0
    8.1383  -14.3776   19.5767 C   0  0  0  0  0  0  0  0  0  0  0  0
    8.3542  -15.5989   20.4400 C   0  0  2  0  0  0  0  0  0  0  0  0
    7.1490  -16.3755   20.5937 N   0  0  0  0  0  0  0  0  0  0  0  0
    8.8863  -15.2143   21.7817 C   0  0  0  0  0  0  0  0  0  0  0  0
   10.0884  -14.8885   21.9483 O   0  0  0  0  0  0  0  0  0  0  0  0
    6.8807  -11.7441   27.1999 C   0  0  0  0  0  0  0  0  0  0  0  0
    5.8190  -12.5211   25.9417 S   0  0  0  0  0  0  0  0  0  0  0  0
    6.9816  -13.2380   24.6976 C   0  0  0  0  0  0  0  0  0  0  0  0
    7.5220  -14.5380   25.1811 C   0  0  0  0  0  0  0  0  0  0  0  0
    8.5674  -15.0566   24.2434 C   0  0  2  0  0  0  0  0  0  0  0  0
    8.0319  -15.2123   22.8952 N   0  0  0  0  0  0  0  0  0  0  0  0
    9.2361  -16.3047   24.6698 C   0  0  0  0  0  0  0  0  0  0  0  0
    8.7354  -17.4492   24.6073 O   0  0  0  0  0  0  0  0  0  0  0  0
   10.5592  -16.2072   25.1968 N   0  0  0  0  0  0  0  0  0  0  0  0
   11.3071  -17.3569   25.6521 C   0  0  1  0  0  0  0  0  0  0  0  0
   12.7726  -17.0220   25.5968 C   0  0  0  0  0  0  0  0  0  0  0  0
   13.1613  -16.6426   24.2228 C   0  0  0  0  0  0  0  0  0  0  0  0
   12.7547  -17.2855   23.2307 O   0  0  0  0  0  0  0  0  0  0  0  0
   10.8711  -17.6497   27.0516 C   0  0  0  0  0  0  0  0  0  0  0  0
    9.9662  -16.8373   27.7163 O   0  0  0  0  0  0  0  0  0  0  0  0
   14.0027  -15.5400   24.0257 O   0  0  0  0  0  0  0  0  0  0  0  0
   11.3315  -18.6523   27.6428 O   0  0  0  0  0  0  0  0  0  0  0  0
  2  1  1  0
  2  3  2  0
  4  5  1  0
  4  2  1  0
  5  6  1  1
  7  5  1  0
  7  8  2  0
  9 10  1  0
 11 10  1  0
 12 11  1  0
 13 12  1  1
 13 14  1  0
 14  7  1  0
 15 17  1  0
 15 13  1  0
 16 15  2  0
 18 17  1  0
 18 22  1  0
 19 20  1  0
 18 19  1  1
 20 24  1  0
 21 20  2  0
 22 23  1  0
 25 22  2  0
M  END
$$$$
