NMD.pdb
     RDKit          3D

 25 24  0  0  1  0  0  0  0  0999 V2000
    9.1963  -16.9729   16.6681 N   0  0  0  0  0  0  0  0  0  0  0  0
    8.2085  -16.6576   17.6110 C   0  0  0  0  0  0  0  0  0  0  0  0
    7.0385  -17.1046   17.4982 O   0  0  0  0  0  0  0  0  0  0  0  0
    8.5175  -15.7951   18.7556 C   0  0  0  0  0  0  0  0  0  0  0  0
    8.5787  -16.6353   20.0102 C   0  0  2  0  0  0  0  0  0  0  0  0
    7.3202  -17.2793   20.2947 N   0  0  0  0  0  0  0  0  0  0  0  0
    9.0051  -15.8119   21.1813 C   0  0  0  0  0  0  0  0  0  0  0  0
   10.1423  -15.2804   21.2375 O   0  0  0  0  0  0  0  0  0  0  0  0
    6.2555  -11.1422   25.4260 C   0  0  0  0  0  0  0  0  0  0  0  0
    6.4630  -12.7608   26.2327 S   0  0  0  0  0  0  0  0  0  0  0  0
    7.8920  -13.5552   25.3722 C   0  0  0  0  0  0  0  0  0  0  0  0
    7.4139  -14.3979   24.2421 C   0  0  0  0  0  0  0  0  0  0  0  0
    8.5710  -14.9626   23.4784 C   0  0  2  0  0  0  0  0  0  0  0  0
    8.1220  -15.6183   22.2548 N   0  0  0  0  0  0  0  0  0  0  0  0
    9.4522  -15.8695   24.2448 C   0  0  0  0  0  0  0  0  0  0  0  0
    9.9454  -16.9339   23.8105 O   0  0  0  0  0  0  0  0  0  0  0  0
    9.7722  -15.5117   25.5893 N   0  0  0  0  0  0  0  0  0  0  0  0
   10.5135  -16.3801   26.4751 C   0  0  1  0  0  0  0  0  0  0  0  0
    9.5472  -17.3331   27.1238 C   0  0  0  0  0  0  0  0  0  0  0  0
   10.2657  -18.2622   28.0202 C   0  0  0  0  0  0  0  0  0  0  0  0
    9.8535  -18.5001   29.1762 O   0  0  0  0  0  0  0  0  0  0  0  0
   11.5210  -17.1108   25.6471 C   0  0  0  0  0  0  0  0  0  0  0  0
   12.8136  -17.3267   26.0977 O   0  0  0  0  0  0  0  0  0  0  0  0
   11.4331  -18.8903   27.5671 O   0  0  0  0  0  0  0  0  0  0  0  0
   11.1944  -17.5407   24.5178 O   0  0  0  0  0  0  0  0  0  0  0  0
  2  1  1  0
  2  3  2  0
  4  5  1  0
  4  2  1  0
  5  6  1  1
  7  5  1  0
  7  8  2  0
  9 10  1  0
 11 10  1  0
 12 11  1  0
 13 12  1  1
 13 14  1  0
 14  7  1  0
 15 17  1  0
 15 13  1  0
 16 15  2  0
 18 17  1  0
 18 22  1  0
 19 20  1  0
 18 19  1  6
 20 24  1  0
 21 20  2  0
 22 23  1  0
 25 22  2  0
M  END
$$$$
