NMD.pdb
     RDKit          3D

 25 24  0  0  1  0  0  0  0  0999 V2000
    8.5472  -17.3454   17.7692 N   0  0  0  0  0  0  0  0  0  0  0  0
    8.4227  -15.9535   17.8753 C   0  0  0  0  0  0  0  0  0  0  0  0
    8.3376  -15.2304   16.8499 O   0  0  0  0  0  0  0  0  0  0  0  0
    8.3892  -15.3051   19.1898 C   0  0  0  0  0  0  0  0  0  0  0  0
    8.5625  -16.3517   20.2659 C   0  0  2  0  0  0  0  0  0  0  0  0
    7.3949  -17.1865   20.4049 N   0  0  0  0  0  0  0  0  0  0  0  0
    8.8929  -15.7167   21.5769 C   0  0  0  0  0  0  0  0  0  0  0  0
   10.0021  -15.1636   21.7834 O   0  0  0  0  0  0  0  0  0  0  0  0
    7.5144  -11.7363   27.6958 C   0  0  0  0  0  0  0  0  0  0  0  0
    6.9457  -12.2780   26.0535 S   0  0  0  0  0  0  0  0  0  0  0  0
    7.4302  -14.0568   25.9318 C   0  0  0  0  0  0  0  0  0  0  0  0
    7.0786  -14.5998   24.5912 C   0  0  0  0  0  0  0  0  0  0  0  0
    8.2822  -15.1975   23.9315 C   0  0  2  0  0  0  0  0  0  0  0  0
    7.9484  -15.7306   22.6151 N   0  0  0  0  0  0  0  0  0  0  0  0
    8.9959  -16.2204   24.7259 C   0  0  0  0  0  0  0  0  0  0  0  0
    8.5237  -17.3269   25.0686 O   0  0  0  0  0  0  0  0  0  0  0  0
   10.3313  -15.9325   25.1404 N   0  0  0  0  0  0  0  0  0  0  0  0
   11.1620  -16.8945   25.8281 C   0  0  1  0  0  0  0  0  0  0  0  0
   12.5921  -16.4365   25.7387 C   0  0  0  0  0  0  0  0  0  0  0  0
   13.0663  -16.5031   24.3410 C   0  0  0  0  0  0  0  0  0  0  0  0
   12.6950  -17.4152   23.5708 O   0  0  0  0  0  0  0  0  0  0  0  0
   10.6997  -16.9517   27.2485 C   0  0  0  0  0  0  0  0  0  0  0  0
   10.0579  -15.8796   27.8480 O   0  0  0  0  0  0  0  0  0  0  0  0
   13.9501  -15.5248   23.8672 O   0  0  0  0  0  0  0  0  0  0  0  0
   10.8943  -17.9913   27.9179 O   0  0  0  0  0  0  0  0  0  0  0  0
  2  1  1  0
  2  3  2  0
  4  5  1  0
  4  2  1  0
  5  6  1  1
  7  5  1  0
  7  8  2  0
  9 10  1  0
 11 10  1  0
 12 11  1  0
 13 12  1  1
 13 14  1  0
 14  7  1  0
 15 17  1  0
 15 13  1  0
 16 15  2  0
 18 17  1  0
 18 22  1  0
 19 20  1  0
 18 19  1  1
 20 24  1  0
 21 20  2  0
 22 23  1  0
 25 22  2  0
M  END
$$$$
