NMD.pdb
     RDKit          3D

 25 24  0  0  1  0  0  0  0  0999 V2000
    7.8296  -15.2938   18.0690 N   0  0  0  0  0  0  0  0  0  0  0  0
    8.1093  -14.0208   18.5841 C   0  0  0  0  0  0  0  0  0  0  0  0
    8.1336  -13.0100   17.8363 O   0  0  0  0  0  0  0  0  0  0  0  0
    8.3817  -13.8370   20.0129 C   0  0  0  0  0  0  0  0  0  0  0  0
    8.3081  -15.1757   20.7102 C   0  0  2  0  0  0  0  0  0  0  0  0
    6.9989  -15.7713   20.6061 N   0  0  0  0  0  0  0  0  0  0  0  0
    8.6966  -15.0489   22.1469 C   0  0  0  0  0  0  0  0  0  0  0  0
    9.8810  -14.8126   22.4937 O   0  0  0  0  0  0  0  0  0  0  0  0
    6.8903  -10.3727   26.3472 C   0  0  0  0  0  0  0  0  0  0  0  0
    6.6561  -12.1385   26.7222 S   0  0  0  0  0  0  0  0  0  0  0  0
    7.1567  -13.0341   25.1857 C   0  0  0  0  0  0  0  0  0  0  0  0
    7.0808  -14.5059   25.3948 C   0  0  0  0  0  0  0  0  0  0  0  0
    8.1006  -15.2115   24.5562 C   0  0  2  0  0  0  0  0  0  0  0  0
    7.7228  -15.1954   23.1471 N   0  0  0  0  0  0  0  0  0  0  0  0
    8.4210  -16.5919   24.9787 C   0  0  0  0  0  0  0  0  0  0  0  0
    7.6463  -17.5704   24.8949 O   0  0  0  0  0  0  0  0  0  0  0  0
    9.7154  -16.8389   25.5279 N   0  0  0  0  0  0  0  0  0  0  0  0
   10.1513  -18.1523   25.9442 C   0  0  1  0  0  0  0  0  0  0  0  0
   11.0875  -18.6950   24.8991 C   0  0  0  0  0  0  0  0  0  0  0  0
   11.6600  -19.9831   25.3417 C   0  0  0  0  0  0  0  0  0  0  0  0
   10.9867  -20.8002   26.0064 O   0  0  0  0  0  0  0  0  0  0  0  0
   10.8409  -17.9991   27.2616 C   0  0  0  0  0  0  0  0  0  0  0  0
   11.0072  -16.7580   27.8552 O   0  0  0  0  0  0  0  0  0  0  0  0
   12.9845  -20.2972   25.0104 O   0  0  0  0  0  0  0  0  0  0  0  0
   11.2809  -19.0138   27.8478 O   0  0  0  0  0  0  0  0  0  0  0  0
  2  1  1  0
  2  3  2  0
  4  5  1  0
  4  2  1  0
  5  6  1  1
  7  5  1  0
  7  8  2  0
  9 10  1  0
 11 10  1  0
 12 11  1  0
 13 12  1  1
 13 14  1  0
 14  7  1  0
 15 17  1  0
 15 13  1  0
 16 15  2  0
 18 17  1  0
 18 22  1  0
 19 20  1  0
 18 19  1  6
 20 24  1  0
 21 20  2  0
 22 23  1  0
 25 22  2  0
M  END
$$$$
