VAP.pdb
     RDKit          3D

 20 20  0  0  1  0  0  0  0  0999 V2000
   14.3552  -13.3543  -15.7461 C   0  0  0  0  0  0  0  0  0  0  0  0
   15.5417  -12.4549  -15.7312 C   0  0  1  0  0  0  0  0  0  0  0  0
   15.9126  -12.1610  -14.2921 C   0  0  0  0  0  0  0  0  0  0  0  0
   16.7538  -13.0215  -16.4047 C   0  0  2  0  0  0  0  0  0  0  0  0
   17.0694  -14.3046  -15.8140 N   0  0  0  0  0  0  0  0  0  0  0  0
   17.9440  -12.1769  -16.3333 C   0  0  0  0  0  0  0  0  0  0  0  0
   18.6798  -12.2884  -15.3181 O   0  0  0  0  0  0  0  0  0  0  0  0
   19.7955   -9.7633  -18.5437 C   0  0  0  0  0  0  0  0  0  0  0  0
   19.4787  -10.3327  -17.1724 C   0  0  2  0  0  0  0  0  0  0  0  0
   18.3407  -11.2401  -17.3139 N   0  0  0  0  0  0  0  0  0  0  0  0
   19.1965   -9.2702  -16.1877 C   0  0  0  0  0  0  0  0  0  0  0  0
   18.0500   -8.7920  -16.1739 O   0  0  0  0  0  0  0  0  0  0  0  0
   20.1615   -8.8005  -15.2927 N   0  0  0  0  0  0  0  0  0  0  0  0
   21.3024   -9.6712  -14.8814 C   0  0  0  0  0  0  0  0  0  0  0  0
   22.4792   -8.7256  -14.8565 C   0  0  0  0  0  0  0  0  0  0  0  0
   21.8864   -7.3424  -15.0001 C   0  0  0  0  0  0  0  0  0  0  0  0
   20.4245   -7.6077  -14.5719 C   0  0  1  0  0  0  0  0  0  0  0  0
   19.5955   -6.4460  -14.7497 C   0  0  0  0  0  0  0  0  0  0  0  0
   19.1738   -5.8188  -15.8971 O   0  0  0  0  0  0  0  0  0  0  0  0
   19.1737   -5.8944  -13.6618 O   0  0  0  0  0  0  0  0  0  0  0  0
  2  1  1  1
  2  4  1  0
  3  2  1  0
  4  5  1  1
  6 10  1  0
  6  4  1  0
  7  6  2  0
  9  8  1  6
  9 10  1  0
  9 11  1  0
 11 13  1  0
 12 11  2  0
 13 14  1  0
 13 17  1  0
 14 15  1  0
 15 16  1  0
 17 18  1  6
 17 16  1  0
 18 19  1  0
 20 18  2  0
M  END
$$$$
