VAP.pdb
     RDKit          3D

 20 20  0  0  1  0  0  0  0  0999 V2000
   14.8032  -11.2992  -16.4780 C   0  0  0  0  0  0  0  0  0  0  0  0
   15.9874  -10.4331  -16.2237 C   0  0  1  0  0  0  0  0  0  0  0  0
   15.6426   -9.4450  -15.1284 C   0  0  0  0  0  0  0  0  0  0  0  0
   17.2144  -11.1765  -15.7933 C   0  0  2  0  0  0  0  0  0  0  0  0
   16.8883  -12.0162  -14.6605 N   0  0  0  0  0  0  0  0  0  0  0  0
   18.3462  -10.3283  -15.4264 C   0  0  0  0  0  0  0  0  0  0  0  0
   18.4499   -9.9809  -14.2210 O   0  0  0  0  0  0  0  0  0  0  0  0
   21.5160   -9.1038  -17.0228 C   0  0  0  0  0  0  0  0  0  0  0  0
   20.4754   -9.0306  -15.9197 C   0  0  2  0  0  0  0  0  0  0  0  0
   19.3399   -9.8623  -16.3164 N   0  0  0  0  0  0  0  0  0  0  0  0
   20.0538   -7.6416  -15.6528 C   0  0  0  0  0  0  0  0  0  0  0  0
   19.2028   -7.1459  -16.4100 O   0  0  0  0  0  0  0  0  0  0  0  0
   20.5739   -6.8890  -14.5965 N   0  0  0  0  0  0  0  0  0  0  0  0
   21.2027   -7.5632  -13.4221 C   0  0  0  0  0  0  0  0  0  0  0  0
   22.3985   -6.6947  -13.1131 C   0  0  0  0  0  0  0  0  0  0  0  0
   22.2237   -5.4542  -13.9591 C   0  0  0  0  0  0  0  0  0  0  0  0
   20.7080   -5.5183  -14.2579 C   0  0  1  0  0  0  0  0  0  0  0  0
   20.3003   -4.4923  -15.1796 C   0  0  0  0  0  0  0  0  0  0  0  0
   20.5814   -4.3303  -16.5146 O   0  0  0  0  0  0  0  0  0  0  0  0
   19.5485   -3.5682  -14.6831 O   0  0  0  0  0  0  0  0  0  0  0  0
  2  1  1  1
  2  4  1  0
  3  2  1  0
  4  5  1  1
  6 10  1  0
  6  4  1  0
  7  6  2  0
  9  8  1  6
  9 10  1  0
  9 11  1  0
 11 13  1  0
 12 11  2  0
 13 14  1  0
 13 17  1  0
 14 15  1  0
 15 16  1  0
 17 18  1  6
 17 16  1  0
 18 19  1  0
 20 18  2  0
M  END
$$$$
