VAP.pdb
     RDKit          3D

 20 20  0  0  1  0  0  0  0  0999 V2000
   27.3439  -30.0320  -18.7385 C   0  0  0  0  0  0  0  0  0  0  0  0
   27.0557  -29.9778  -17.2787 C   0  0  1  0  0  0  0  0  0  0  0  0
   28.3244  -29.5939  -16.5452 C   0  0  0  0  0  0  0  0  0  0  0  0
   25.9950  -28.9921  -16.8955 C   0  0  2  0  0  0  0  0  0  0  0  0
   24.7227  -29.4329  -17.4262 N   0  0  0  0  0  0  0  0  0  0  0  0
   26.2359  -27.6256  -17.3533 C   0  0  0  0  0  0  0  0  0  0  0  0
   25.9930  -27.3620  -18.5599 O   0  0  0  0  0  0  0  0  0  0  0  0
   26.9736  -24.2900  -15.8072 C   0  0  0  0  0  0  0  0  0  0  0  0
   26.9129  -25.1981  -17.0224 C   0  0  2  0  0  0  0  0  0  0  0  0
   26.7215  -26.5690  -16.5506 N   0  0  0  0  0  0  0  0  0  0  0  0
   28.1259  -25.0835  -17.8554 C   0  0  0  0  0  0  0  0  0  0  0  0
   29.1548  -25.6494  -17.4498 O   0  0  0  0  0  0  0  0  0  0  0  0
   28.1459  -24.3731  -19.0586 N   0  0  0  0  0  0  0  0  0  0  0  0
   26.8872  -24.1530  -19.8307 C   0  0  0  0  0  0  0  0  0  0  0  0
   27.0156  -22.7304  -20.3201 C   0  0  0  0  0  0  0  0  0  0  0  0
   28.4407  -22.3280  -20.0164 C   0  0  0  0  0  0  0  0  0  0  0  0
   29.1078  -23.7149  -19.8666 C   0  0  1  0  0  0  0  0  0  0  0  0
   30.4759  -23.6070  -19.4365 C   0  0  0  0  0  0  0  0  0  0  0  0
   31.0083  -23.5063  -18.1739 O   0  0  0  0  0  0  0  0  0  0  0  0
   31.3552  -23.6026  -20.3813 O   0  0  0  0  0  0  0  0  0  0  0  0
  2  1  1  6
  2  4  1  0
  3  2  1  0
  4  5  1  6
  6 10  1  0
  6  4  1  0
  7  6  2  0
  9  8  1  1
  9 10  1  0
  9 11  1  0
 11 13  1  0
 12 11  2  0
 13 14  1  0
 13 17  1  0
 14 15  1  0
 15 16  1  0
 17 18  1  1
 17 16  1  0
 18 19  1  0
 20 18  2  0
M  END
$$$$
