VAP.pdb
     RDKit          3D

 20 20  0  0  1  0  0  0  0  0999 V2000
   14.7570  -14.7265  -16.7022 C   0  0  0  0  0  0  0  0  0  0  0  0
   16.1870  -14.4174  -16.4252 C   0  0  1  0  0  0  0  0  0  0  0  0
   16.9978  -14.7012  -17.6730 C   0  0  0  0  0  0  0  0  0  0  0  0
   16.4457  -12.9959  -16.0305 C   0  0  2  0  0  0  0  0  0  0  0  0
   15.8693  -12.1146  -17.0235 N   0  0  0  0  0  0  0  0  0  0  0  0
   17.8571  -12.6518  -15.8738 C   0  0  0  0  0  0  0  0  0  0  0  0
   18.4929  -13.2038  -14.9382 O   0  0  0  0  0  0  0  0  0  0  0  0
   20.6921  -11.4555  -17.7991 C   0  0  0  0  0  0  0  0  0  0  0  0
   19.9667  -11.3648  -16.4684 C   0  0  2  0  0  0  0  0  0  0  0  0
   18.5723  -11.7461  -16.6891 N   0  0  0  0  0  0  0  0  0  0  0  0
   20.0654  -10.0151  -15.8793 C   0  0  0  0  0  0  0  0  0  0  0  0
   19.3059   -9.1388  -16.3249 O   0  0  0  0  0  0  0  0  0  0  0  0
   20.9682   -9.7058  -14.8585 N   0  0  0  0  0  0  0  0  0  0  0  0
   21.5727  -10.7880  -14.0265 C   0  0  0  0  0  0  0  0  0  0  0  0
   23.0071  -10.3475  -13.8593 C   0  0  0  0  0  0  0  0  0  0  0  0
   23.0556   -8.9298  -14.3818 C   0  0  0  0  0  0  0  0  0  0  0  0
   21.5608   -8.5416  -14.3061 C   0  0  1  0  0  0  0  0  0  0  0  0
   21.3138   -7.2484  -14.8846 C   0  0  0  0  0  0  0  0  0  0  0  0
   21.0787   -6.0341  -14.2862 O   0  0  0  0  0  0  0  0  0  0  0  0
   21.3095   -7.2100  -16.1747 O   0  0  0  0  0  0  0  0  0  0  0  0
  2  1  1  6
  2  4  1  0
  3  2  1  0
  4  5  1  6
  6 10  1  0
  6  4  1  0
  7  6  2  0
  9  8  1  6
  9 10  1  0
  9 11  1  0
 11 13  1  0
 12 11  2  0
 13 14  1  0
 13 17  1  0
 14 15  1  0
 15 16  1  0
 17 18  1  6
 17 16  1  0
 18 19  1  0
 20 18  2  0
M  END
$$$$
