VAP.pdb
     RDKit          3D

 20 20  0  0  1  0  0  0  0  0999 V2000
   20.7010  -17.9195  -15.5350 C   0  0  0  0  0  0  0  0  0  0  0  0
   21.7785  -16.8942  -15.6063 C   0  0  1  0  0  0  0  0  0  0  0  0
   23.0352  -17.4633  -14.9801 C   0  0  0  0  0  0  0  0  0  0  0  0
   22.1232  -16.4572  -16.9969 C   0  0  2  0  0  0  0  0  0  0  0  0
   22.5643  -17.6051  -17.7601 N   0  0  0  0  0  0  0  0  0  0  0  0
   23.1568  -15.4275  -17.0758 C   0  0  0  0  0  0  0  0  0  0  0  0
   24.2447  -15.7326  -17.6306 O   0  0  0  0  0  0  0  0  0  0  0  0
   24.0860  -12.8861  -18.3705 C   0  0  0  0  0  0  0  0  0  0  0  0
   23.9855  -13.0341  -16.8628 C   0  0  2  0  0  0  0  0  0  0  0  0
   23.0371  -14.1103  -16.5786 N   0  0  0  0  0  0  0  0  0  0  0  0
   23.5753  -11.7740  -16.2129 C   0  0  0  0  0  0  0  0  0  0  0  0
   22.4085  -11.3888  -16.3956 O   0  0  0  0  0  0  0  0  0  0  0  0
   24.4439  -11.0226  -15.4168 N   0  0  0  0  0  0  0  0  0  0  0  0
   25.7724  -11.5728  -15.0152 C   0  0  0  0  0  0  0  0  0  0  0  0
   26.6981  -10.3859  -15.1332 C   0  0  0  0  0  0  0  0  0  0  0  0
   25.7954   -9.1911  -15.3402 C   0  0  0  0  0  0  0  0  0  0  0  0
   24.4550   -9.7441  -14.8031 C   0  0  1  0  0  0  0  0  0  0  0  0
   23.3726   -8.8207  -15.0131 C   0  0  0  0  0  0  0  0  0  0  0  0
   22.5701   -8.1673  -14.1094 O   0  0  0  0  0  0  0  0  0  0  0  0
   23.1018   -8.5557  -16.2469 O   0  0  0  0  0  0  0  0  0  0  0  0
  2  1  1  6
  2  4  1  0
  3  2  1  0
  4  5  1  6
  6 10  1  0
  6  4  1  0
  7  6  2  0
  9  8  1  6
  9 10  1  0
  9 11  1  0
 11 13  1  0
 12 11  2  0
 13 14  1  0
 13 17  1  0
 14 15  1  0
 15 16  1  0
 17 18  1  6
 17 16  1  0
 18 19  1  0
 20 18  2  0
M  END
$$$$
