VAP.pdb
     RDKit          3D

 20 20  0  0  1  0  0  0  0  0999 V2000
   13.1711  -24.9107   -3.8203 C   0  0  0  0  0  0  0  0  0  0  0  0
   12.6043  -23.6956   -3.1728 C   0  0  1  0  0  0  0  0  0  0  0  0
   13.2750  -23.5018   -1.8283 C   0  0  0  0  0  0  0  0  0  0  0  0
   12.7912  -22.4340   -3.9582 C   0  0  2  0  0  0  0  0  0  0  0  0
   14.1953  -22.2718   -4.2698 N   0  0  0  0  0  0  0  0  0  0  0  0
   12.3256  -21.2218   -3.2882 C   0  0  0  0  0  0  0  0  0  0  0  0
   13.1469  -20.6031   -2.5621 O   0  0  0  0  0  0  0  0  0  0  0  0
    9.3954  -18.9083   -3.4939 C   0  0  0  0  0  0  0  0  0  0  0  0
   10.5909  -19.4498   -2.7305 C   0  0  2  0  0  0  0  0  0  0  0  0
   11.0233  -20.6827   -3.3874 N   0  0  0  0  0  0  0  0  0  0  0  0
   10.2747  -19.6840   -1.3081 C   0  0  0  0  0  0  0  0  0  0  0  0
    9.7478  -20.7687   -1.0096 O   0  0  0  0  0  0  0  0  0  0  0  0
   10.5465  -18.7408   -0.3135 N   0  0  0  0  0  0  0  0  0  0  0  0
   11.4854  -17.6102   -0.5763 C   0  0  0  0  0  0  0  0  0  0  0  0
   10.8227  -16.4344    0.1004 C   0  0  0  0  0  0  0  0  0  0  0  0
    9.6945  -17.0234    0.9161 C   0  0  0  0  0  0  0  0  0  0  0  0
   10.1552  -18.4952    1.0275 C   0  0  1  0  0  0  0  0  0  0  0  0
    9.1637  -19.3196    1.6644 C   0  0  0  0  0  0  0  0  0  0  0  0
    9.1028  -19.8118    2.9457 O   0  0  0  0  0  0  0  0  0  0  0  0
    8.1644  -19.6587    0.9213 O   0  0  0  0  0  0  0  0  0  0  0  0
  2  1  1  6
  2  4  1  0
  3  2  1  0
  4  5  1  1
  6 10  1  0
  6  4  1  0
  7  6  2  0
  9  8  1  6
  9 10  1  0
  9 11  1  0
 11 13  1  0
 12 11  2  0
 13 14  1  0
 13 17  1  0
 14 15  1  0
 15 16  1  0
 17 18  1  6
 17 16  1  0
 18 19  1  0
 20 18  2  0
M  END
$$$$
