VAP.pdb
     RDKit          3D

 20 20  0  0  1  0  0  0  0  0999 V2000
   30.1554  -15.4206  -19.3168 C   0  0  0  0  0  0  0  0  0  0  0  0
   29.6194  -16.7933  -19.1040 C   0  0  1  0  0  0  0  0  0  0  0  0
   30.7662  -17.7133  -18.7386 C   0  0  0  0  0  0  0  0  0  0  0  0
   28.5941  -16.8935  -18.0166 C   0  0  2  0  0  0  0  0  0  0  0  0
   28.2862  -18.2879  -17.7810 N   0  0  0  0  0  0  0  0  0  0  0  0
   27.3447  -16.1858  -18.2870 C   0  0  0  0  0  0  0  0  0  0  0  0
   26.6737  -16.5462  -19.2892 O   0  0  0  0  0  0  0  0  0  0  0  0
   24.9515  -13.9686  -16.5285 C   0  0  0  0  0  0  0  0  0  0  0  0
   25.5955  -14.3980  -17.8346 C   0  0  2  0  0  0  0  0  0  0  0  0
   26.8234  -15.1244  -17.5135 N   0  0  0  0  0  0  0  0  0  0  0  0
   25.8700  -13.2469  -18.7167 C   0  0  0  0  0  0  0  0  0  0  0  0
   26.8221  -12.5082  -18.4146 O   0  0  0  0  0  0  0  0  0  0  0  0
   25.1060  -12.9740  -19.8544 N   0  0  0  0  0  0  0  0  0  0  0  0
   24.3052  -14.0518  -20.5070 C   0  0  0  0  0  0  0  0  0  0  0  0
   23.0183  -13.3583  -20.8845 C   0  0  0  0  0  0  0  0  0  0  0  0
   23.2739  -11.8857  -20.6580 C   0  0  0  0  0  0  0  0  0  0  0  0
   24.8197  -11.8537  -20.6758 C   0  0  1  0  0  0  0  0  0  0  0  0
   25.3319  -10.5515  -20.3439 C   0  0  0  0  0  0  0  0  0  0  0  0
   25.4029   -9.9030  -19.1347 O   0  0  0  0  0  0  0  0  0  0  0  0
   25.8037   -9.8725  -21.3349 O   0  0  0  0  0  0  0  0  0  0  0  0
  2  1  1  1
  2  4  1  0
  3  2  1  0
  4  5  1  6
  6 10  1  0
  6  4  1  0
  7  6  2  0
  9  8  1  1
  9 10  1  0
  9 11  1  0
 11 13  1  0
 12 11  2  0
 13 14  1  0
 13 17  1  0
 14 15  1  0
 15 16  1  0
 17 18  1  1
 17 16  1  0
 18 19  1  0
 20 18  2  0
M  END
$$$$
