VAP.pdb
     RDKit          3D

 20 20  0  0  1  0  0  0  0  0999 V2000
   16.9289  -18.4879   12.1952 C   0  0  0  0  0  0  0  0  0  0  0  0
   18.2259  -17.8872   11.7781 C   0  0  1  0  0  0  0  0  0  0  0  0
   19.3417  -18.5389   12.5689 C   0  0  0  0  0  0  0  0  0  0  0  0
   18.5439  -18.0543   10.3239 C   0  0  2  0  0  0  0  0  0  0  0  0
   18.4160  -19.4512    9.9671 N   0  0  0  0  0  0  0  0  0  0  0  0
   19.8765  -17.5998    9.9332 C   0  0  0  0  0  0  0  0  0  0  0  0
   20.7970  -18.4572    9.8889 O   0  0  0  0  0  0  0  0  0  0  0  0
   21.4862  -14.4977    8.5671 C   0  0  0  0  0  0  0  0  0  0  0  0
   21.5807  -15.8227    9.3023 C   0  0  2  0  0  0  0  0  0  0  0  0
   20.2206  -16.2708    9.5988 N   0  0  0  0  0  0  0  0  0  0  0  0
   22.3878  -15.7122   10.5329 C   0  0  0  0  0  0  0  0  0  0  0  0
   21.8325  -15.2471   11.5422 O   0  0  0  0  0  0  0  0  0  0  0  0
   23.7268  -16.1078   10.5906 N   0  0  0  0  0  0  0  0  0  0  0  0
   24.2974  -17.0086    9.5457 C   0  0  0  0  0  0  0  0  0  0  0  0
   25.6731  -16.4379    9.2982 C   0  0  0  0  0  0  0  0  0  0  0  0
   25.8888  -15.4193   10.3941 C   0  0  0  0  0  0  0  0  0  0  0  0
   24.8452  -15.8876   11.4345 C   0  0  1  0  0  0  0  0  0  0  0  0
   24.7561  -14.9819   12.5481 C   0  0  0  0  0  0  0  0  0  0  0  0
   25.4138  -14.9846   13.7544 O   0  0  0  0  0  0  0  0  0  0  0  0
   23.9264  -14.0041   12.4022 O   0  0  0  0  0  0  0  0  0  0  0  0
  2  1  1  6
  2  4  1  0
  3  2  1  0
  4  5  1  1
  6 10  1  0
  6  4  1  0
  7  6  2  0
  9  8  1  1
  9 10  1  0
  9 11  1  0
 11 13  1  0
 12 11  2  0
 13 14  1  0
 13 17  1  0
 14 15  1  0
 15 16  1  0
 17 18  1  1
 17 16  1  0
 18 19  1  0
 20 18  2  0
M  END
$$$$
