VAP.pdb
     RDKit          3D

 20 20  0  0  1  0  0  0  0  0999 V2000
   20.9200  -13.5978    7.1525 C   0  0  0  0  0  0  0  0  0  0  0  0
   19.8991  -12.6006    6.7279 C   0  0  1  0  0  0  0  0  0  0  0  0
   20.5924  -11.4827    5.9764 C   0  0  0  0  0  0  0  0  0  0  0  0
   18.8314  -13.1529    5.8342 C   0  0  2  0  0  0  0  0  0  0  0  0
   17.8612  -12.1157    5.5557 N   0  0  0  0  0  0  0  0  0  0  0  0
   18.1236  -14.3127    6.3716 C   0  0  0  0  0  0  0  0  0  0  0  0
   17.5459  -14.1819    7.4823 O   0  0  0  0  0  0  0  0  0  0  0  0
   16.9072  -17.6318    5.1817 C   0  0  0  0  0  0  0  0  0  0  0  0
   17.3494  -16.7332    6.3228 C   0  0  2  0  0  0  0  0  0  0  0  0
   18.0326  -15.5762    5.7457 N   0  0  0  0  0  0  0  0  0  0  0  0
   18.2192  -17.4461    7.2786 C   0  0  0  0  0  0  0  0  0  0  0  0
   19.4073  -17.6137    6.9568 O   0  0  0  0  0  0  0  0  0  0  0  0
   17.7522  -17.9249    8.5056 N   0  0  0  0  0  0  0  0  0  0  0  0
   16.6256  -17.2416    9.2075 C   0  0  0  0  0  0  0  0  0  0  0  0
   15.8038  -18.3839    9.7547 C   0  0  0  0  0  0  0  0  0  0  0  0
   16.6495  -19.6205    9.5525 C   0  0  0  0  0  0  0  0  0  0  0  0
   18.0522  -18.9895    9.3934 C   0  0  1  0  0  0  0  0  0  0  0  0
   19.0452  -19.9718    9.0510 C   0  0  0  0  0  0  0  0  0  0  0  0
   20.0840  -20.4845    9.7898 O   0  0  0  0  0  0  0  0  0  0  0  0
   18.9562  -20.4574    7.8585 O   0  0  0  0  0  0  0  0  0  0  0  0
  2  1  1  6
  2  4  1  0
  3  2  1  0
  4  5  1  1
  6 10  1  0
  6  4  1  0
  7  6  2  0
  9  8  1  6
  9 10  1  0
  9 11  1  0
 11 13  1  0
 12 11  2  0
 13 14  1  0
 13 17  1  0
 14 15  1  0
 15 16  1  0
 17 18  1  6
 17 16  1  0
 18 19  1  0
 20 18  2  0
M  END
$$$$
