VAP.pdb
     RDKit          3D

 20 20  0  0  1  0  0  0  0  0999 V2000
   22.2410  -21.6432  -16.5898 C   0  0  0  0  0  0  0  0  0  0  0  0
   21.2983  -20.7237  -15.8951 C   0  0  1  0  0  0  0  0  0  0  0  0
   19.8809  -21.1922  -16.1533 C   0  0  0  0  0  0  0  0  0  0  0  0
   21.4882  -20.6513  -14.4110 C   0  0  2  0  0  0  0  0  0  0  0  0
   20.5379  -19.7114  -13.8557 N   0  0  0  0  0  0  0  0  0  0  0  0
   22.8287  -20.2565  -13.9845 C   0  0  0  0  0  0  0  0  0  0  0  0
   23.2256  -19.1035  -14.2969 O   0  0  0  0  0  0  0  0  0  0  0  0
   25.5865  -21.4673  -11.7726 C   0  0  0  0  0  0  0  0  0  0  0  0
   25.1326  -20.7456  -13.0289 C   0  0  2  0  0  0  0  0  0  0  0  0
   23.7223  -21.0649  -13.2466 N   0  0  0  0  0  0  0  0  0  0  0  0
   25.9515  -21.1134  -14.2004 C   0  0  0  0  0  0  0  0  0  0  0  0
   25.9132  -22.2965  -14.5772 O   0  0  0  0  0  0  0  0  0  0  0  0
   26.7483  -20.1880  -14.8798 N   0  0  0  0  0  0  0  0  0  0  0  0
   26.5345  -18.7221  -14.6942 C   0  0  0  0  0  0  0  0  0  0  0  0
   27.9361  -18.1626  -14.6464 C   0  0  0  0  0  0  0  0  0  0  0  0
   28.8379  -19.3014  -15.0649 C   0  0  0  0  0  0  0  0  0  0  0  0
   27.8291  -20.2158  -15.7977 C   0  0  1  0  0  0  0  0  0  0  0  0
   28.4255  -21.4642  -16.1901 C   0  0  0  0  0  0  0  0  0  0  0  0
   29.0399  -21.8289  -17.3636 O   0  0  0  0  0  0  0  0  0  0  0  0
   28.3822  -22.4018  -15.3042 O   0  0  0  0  0  0  0  0  0  0  0  0
  2  1  1  1
  2  4  1  0
  3  2  1  0
  4  5  1  6
  6 10  1  0
  6  4  1  0
  7  6  2  0
  9  8  1  1
  9 10  1  0
  9 11  1  0
 11 13  1  0
 12 11  2  0
 13 14  1  0
 13 17  1  0
 14 15  1  0
 15 16  1  0
 17 18  1  1
 17 16  1  0
 18 19  1  0
 20 18  2  0
M  END
$$$$
