GEL.pdb
     RDKit          3D

 22 21  0  0  1  0  0  0  0  0999 V2000
    7.7483  -12.3418   18.8704 N   0  0  0  0  0  0  0  0  0  0  0  0
    8.8496  -12.9138   19.5833 C   0  0  0  0  0  0  0  0  0  0  0  0
    8.4057  -13.9892   20.5167 C   0  0  0  0  0  0  0  0  0  0  0  0
    7.1845  -14.1896   20.6350 O   0  0  0  0  0  0  0  0  0  0  0  0
    9.3519  -14.7516   21.2402 N   0  0  0  0  0  0  0  0  0  0  0  0
    8.9293  -15.8439   22.1495 C   0  0  1  0  0  0  0  0  0  0  0  0
    9.6877  -17.0695   21.7455 C   0  0  0  0  0  0  0  0  0  0  0  0
    9.4585  -17.5882   20.3827 C   0  0  0  0  0  0  0  0  0  0  0  0
    9.4535  -19.0604   20.2692 C   0  0  0  0  0  0  0  0  0  0  0  0
   10.1385  -19.8271   20.9725 O   0  0  0  0  0  0  0  0  0  0  0  0
    9.1992  -15.3711   23.5230 C   0  0  0  0  0  0  0  0  0  0  0  0
   10.3925  -15.0146   23.8209 O   0  0  0  0  0  0  0  0  0  0  0  0
    8.6169  -19.6145   19.3011 O   0  0  0  0  0  0  0  0  0  0  0  0
    5.8775  -12.3262   26.4902 C   0  0  0  0  0  0  0  0  0  0  0  0
    7.0895  -12.9302   25.7790 C   0  0  1  0  0  0  0  0  0  0  0  0
    8.2267  -11.9048   25.8069 C   0  0  0  0  0  0  0  0  0  0  0  0
    7.4996  -14.1493   26.5388 C   0  0  0  0  0  0  0  0  0  0  0  0
    8.6565  -14.8363   25.9054 C   0  0  2  0  0  0  0  0  0  0  0  0
    8.2574  -15.2682   24.5577 N   0  0  0  0  0  0  0  0  0  0  0  0
    9.0537  -16.0235   26.6835 C   0  0  0  0  0  0  0  0  0  0  0  0
    8.7985  -17.2099   26.3577 O   0  0  0  0  0  0  0  0  0  0  0  0
    9.7688  -15.8395   27.8770 O   0  0  0  0  0  0  0  0  0  0  0  0
  1  2  1  0
  2  3  1  0
  3  4  2  0
  5  3  1  0
  5  6  1  0
  6 11  1  0
  6  7  1  6
  8  7  1  0
  9  8  1  0
 10  9  2  0
 11 19  1  0
 11 12  2  0
 13  9  1  0
 15 14  1  1
 15 16  1  0
 18 17  1  1
 17 15  1  0
 18 20  1  0
 19 18  1  0
 20 22  1  0
 21 20  2  0
M  END
$$$$
