GEL.pdb
     RDKit          3D

 22 21  0  0  1  0  0  0  0  0999 V2000
    7.7636  -12.4585   18.6585 N   0  0  0  0  0  0  0  0  0  0  0  0
    8.8649  -12.9783   19.4103 C   0  0  0  0  0  0  0  0  0  0  0  0
    8.4117  -13.9107   20.4826 C   0  0  0  0  0  0  0  0  0  0  0  0
    7.1901  -14.0065   20.6925 O   0  0  0  0  0  0  0  0  0  0  0  0
    9.3498  -14.6582   21.2319 N   0  0  0  0  0  0  0  0  0  0  0  0
    8.9223  -15.7737   22.1102 C   0  0  1  0  0  0  0  0  0  0  0  0
    9.6796  -16.9895   21.6757 C   0  0  0  0  0  0  0  0  0  0  0  0
    9.4479  -17.4753   20.3012 C   0  0  0  0  0  0  0  0  0  0  0  0
   10.1943  -18.6965   19.9382 C   0  0  0  0  0  0  0  0  0  0  0  0
   10.1884  -19.2203   18.8081 O   0  0  0  0  0  0  0  0  0  0  0  0
    9.1888  -15.3385   23.4967 C   0  0  0  0  0  0  0  0  0  0  0  0
   10.3665  -14.9310   23.7914 O   0  0  0  0  0  0  0  0  0  0  0  0
   10.9544  -19.2924   20.9439 O   0  0  0  0  0  0  0  0  0  0  0  0
    5.9836  -12.3971   26.6564 C   0  0  0  0  0  0  0  0  0  0  0  0
    7.2022  -12.9788   25.9381 C   0  0  1  0  0  0  0  0  0  0  0  0
    8.3777  -12.0146   26.1227 C   0  0  0  0  0  0  0  0  0  0  0  0
    7.5257  -14.2874   26.5820 C   0  0  0  0  0  0  0  0  0  0  0  0
    8.6672  -14.9682   25.9148 C   0  0  2  0  0  0  0  0  0  0  0  0
    8.2594  -15.3235   24.5475 N   0  0  0  0  0  0  0  0  0  0  0  0
    9.0367  -16.2013   26.6328 C   0  0  0  0  0  0  0  0  0  0  0  0
    8.6888  -17.3592   26.2907 O   0  0  0  0  0  0  0  0  0  0  0  0
    9.8336  -16.0988   27.7835 O   0  0  0  0  0  0  0  0  0  0  0  0
  1  2  1  0
  2  3  1  0
  3  4  2  0
  5  3  1  0
  5  6  1  0
  6 11  1  0
  6  7  1  6
  8  7  1  0
  9  8  1  0
 10  9  2  0
 11 19  1  0
 11 12  2  0
 13  9  1  0
 15 14  1  1
 15 16  1  0
 18 17  1  1
 17 15  1  0
 18 20  1  0
 19 18  1  0
 20 22  1  0
 21 20  2  0
M  END
$$$$
