GEL.pdb
     RDKit          3D

 22 21  0  0  1  0  0  0  0  0999 V2000
    7.5487  -12.3946   18.7120 N   0  0  0  0  0  0  0  0  0  0  0  0
    8.6888  -12.9004   19.4138 C   0  0  0  0  0  0  0  0  0  0  0  0
    8.3015  -13.9005   20.4504 C   0  0  0  0  0  0  0  0  0  0  0  0
    7.0897  -14.1104   20.6325 O   0  0  0  0  0  0  0  0  0  0  0  0
    9.2889  -14.5836   21.1977 N   0  0  0  0  0  0  0  0  0  0  0  0
    8.9334  -15.6986   22.1080 C   0  0  1  0  0  0  0  0  0  0  0  0
    9.7533  -16.8809   21.6950 C   0  0  0  0  0  0  0  0  0  0  0  0
    9.5357  -18.1440   22.4272 C   0  0  0  0  0  0  0  0  0  0  0  0
   10.3800  -19.2725   21.9869 C   0  0  0  0  0  0  0  0  0  0  0  0
   10.5675  -19.5949   20.7985 O   0  0  0  0  0  0  0  0  0  0  0  0
    9.1888  -15.2144   23.4803 C   0  0  0  0  0  0  0  0  0  0  0  0
   10.3422  -14.7277   23.7495 O   0  0  0  0  0  0  0  0  0  0  0  0
   11.0039  -20.0193   22.9856 O   0  0  0  0  0  0  0  0  0  0  0  0
    5.7665  -12.3456   26.3051 C   0  0  0  0  0  0  0  0  0  0  0  0
    7.0582  -12.8827   25.6864 C   0  0  1  0  0  0  0  0  0  0  0  0
    8.1291  -11.7921   25.7810 C   0  0  0  0  0  0  0  0  0  0  0  0
    7.4843  -14.0699   26.4868 C   0  0  0  0  0  0  0  0  0  0  0  0
    8.6555  -14.7575   25.8809 C   0  0  2  0  0  0  0  0  0  0  0  0
    8.2728  -15.2318   24.5428 N   0  0  0  0  0  0  0  0  0  0  0  0
    9.0633  -15.9171   26.6943 C   0  0  0  0  0  0  0  0  0  0  0  0
    8.8323  -17.1158   26.3965 O   0  0  0  0  0  0  0  0  0  0  0  0
    9.7606  -15.6901   27.8910 O   0  0  0  0  0  0  0  0  0  0  0  0
  1  2  1  0
  2  3  1  0
  3  4  2  0
  5  3  1  0
  5  6  1  0
  6 11  1  0
  6  7  1  6
  8  7  1  0
  9  8  1  0
 10  9  2  0
 11 19  1  0
 11 12  2  0
 13  9  1  0
 15 14  1  1
 15 16  1  0
 18 17  1  1
 17 15  1  0
 18 20  1  0
 19 18  1  0
 20 22  1  0
 21 20  2  0
M  END
$$$$
