GEL.pdb
     RDKit          3D

 22 21  0  0  1  0  0  0  0  0999 V2000
    4.8132  -18.8606   22.0512 N   0  0  0  0  0  0  0  0  0  0  0  0
    5.2269  -17.4954   22.1674 C   0  0  0  0  0  0  0  0  0  0  0  0
    6.4893  -17.3647   22.9509 C   0  0  0  0  0  0  0  0  0  0  0  0
    6.5154  -17.8457   24.0971 O   0  0  0  0  0  0  0  0  0  0  0  0
    7.6162  -16.7123   22.3989 N   0  0  0  0  0  0  0  0  0  0  0  0
    8.9014  -16.6378   23.1344 C   0  0  1  0  0  0  0  0  0  0  0  0
    9.9858  -16.5065   22.1110 C   0  0  0  0  0  0  0  0  0  0  0  0
   11.3799  -16.6018   22.5866 C   0  0  0  0  0  0  0  0  0  0  0  0
   12.2505  -17.4893   21.7898 C   0  0  0  0  0  0  0  0  0  0  0  0
   12.5227  -18.6677   22.0877 O   0  0  0  0  0  0  0  0  0  0  0  0
    8.7840  -15.4962   24.0649 C   0  0  0  0  0  0  0  0  0  0  0  0
    9.0745  -14.3262   23.6331 O   0  0  0  0  0  0  0  0  0  0  0  0
   12.7982  -16.9537   20.6247 O   0  0  0  0  0  0  0  0  0  0  0  0
    5.6518  -12.4396   26.3263 C   0  0  0  0  0  0  0  0  0  0  0  0
    6.9076  -13.0925   25.7464 C   0  0  1  0  0  0  0  0  0  0  0  0
    7.8278  -11.9872   25.2204 C   0  0  0  0  0  0  0  0  0  0  0  0
    7.5912  -13.8238   26.8553 C   0  0  0  0  0  0  0  0  0  0  0  0
    8.7985  -14.5509   26.3806 C   0  0  2  0  0  0  0  0  0  0  0  0
    8.3740  -15.5657   25.4048 N   0  0  0  0  0  0  0  0  0  0  0  0
    9.4790  -15.2273   27.4994 C   0  0  0  0  0  0  0  0  0  0  0  0
    9.5042  -16.4714   27.6737 O   0  0  0  0  0  0  0  0  0  0  0  0
   10.1535  -14.4458   28.4502 O   0  0  0  0  0  0  0  0  0  0  0  0
  1  2  1  0
  2  3  1  0
  3  4  2  0
  5  3  1  0
  5  6  1  0
  6 11  1  0
  6  7  1  6
  8  7  1  0
  9  8  1  0
 10  9  2  0
 11 19  1  0
 11 12  2  0
 13  9  1  0
 15 14  1  1
 15 16  1  0
 18 17  1  1
 17 15  1  0
 18 20  1  0
 19 18  1  0
 20 22  1  0
 21 20  2  0
M  END
$$$$
