GEL.pdb
     RDKit          3D

 22 21  0  0  1  0  0  0  0  0999 V2000
    7.4796  -12.8246   18.5957 N   0  0  0  0  0  0  0  0  0  0  0  0
    8.5591  -13.1032   19.4931 C   0  0  0  0  0  0  0  0  0  0  0  0
    8.1527  -14.0520   20.5697 C   0  0  0  0  0  0  0  0  0  0  0  0
    6.9381  -14.1887   20.7969 O   0  0  0  0  0  0  0  0  0  0  0  0
    9.1258  -14.7692   21.3038 N   0  0  0  0  0  0  0  0  0  0  0  0
    8.7405  -15.8392   22.2551 C   0  0  1  0  0  0  0  0  0  0  0  0
    9.5159  -17.0626   21.8773 C   0  0  0  0  0  0  0  0  0  0  0  0
    9.2761  -17.6276   20.5348 C   0  0  0  0  0  0  0  0  0  0  0  0
   10.0246  -18.8650   20.2371 C   0  0  0  0  0  0  0  0  0  0  0  0
    9.9377  -19.5064   19.1728 O   0  0  0  0  0  0  0  0  0  0  0  0
    9.0246  -15.3169   23.6077 C   0  0  0  0  0  0  0  0  0  0  0  0
   10.1869  -14.8332   23.8420 O   0  0  0  0  0  0  0  0  0  0  0  0
   10.8851  -19.3346   21.2287 O   0  0  0  0  0  0  0  0  0  0  0  0
    5.9274  -12.1390   26.4198 C   0  0  0  0  0  0  0  0  0  0  0  0
    7.1688  -12.8010   25.8194 C   0  0  1  0  0  0  0  0  0  0  0  0
    8.3452  -11.8293   25.9494 C   0  0  0  0  0  0  0  0  0  0  0  0
    7.4523  -14.0351   26.6121 C   0  0  0  0  0  0  0  0  0  0  0  0
    8.5541  -14.8373   26.0170 C   0  0  2  0  0  0  0  0  0  0  0  0
    8.1276  -15.2944   24.6861 N   0  0  0  0  0  0  0  0  0  0  0  0
    8.8538  -16.0172   26.8479 C   0  0  0  0  0  0  0  0  0  0  0  0
    8.5383  -17.1974   26.5538 O   0  0  0  0  0  0  0  0  0  0  0  0
    9.5399  -15.8332   28.0584 O   0  0  0  0  0  0  0  0  0  0  0  0
  1  2  1  0
  2  3  1  0
  3  4  2  0
  5  3  1  0
  5  6  1  0
  6 11  1  0
  6  7  1  6
  8  7  1  0
  9  8  1  0
 10  9  2  0
 11 19  1  0
 11 12  2  0
 13  9  1  0
 15 14  1  1
 15 16  1  0
 18 17  1  1
 17 15  1  0
 18 20  1  0
 19 18  1  0
 20 22  1  0
 21 20  2  0
M  END
$$$$
