GEL.pdb
     RDKit          3D

 22 21  0  0  1  0  0  0  0  0999 V2000
    7.0622  -14.9495   19.1881 N   0  0  0  0  0  0  0  0  0  0  0  0
    7.7202  -15.9524   19.9688 C   0  0  0  0  0  0  0  0  0  0  0  0
    7.2878  -15.9148   21.3958 C   0  0  0  0  0  0  0  0  0  0  0  0
    6.4449  -15.0627   21.7262 O   0  0  0  0  0  0  0  0  0  0  0  0
    7.8253  -16.8240   22.3362 N   0  0  0  0  0  0  0  0  0  0  0  0
    7.2983  -16.9044   23.7197 C   0  0  1  0  0  0  0  0  0  0  0  0
    7.4111  -18.3336   24.1501 C   0  0  0  0  0  0  0  0  0  0  0  0
    7.0305  -18.6536   25.5399 C   0  0  0  0  0  0  0  0  0  0  0  0
    7.1476  -20.0795   25.9052 C   0  0  0  0  0  0  0  0  0  0  0  0
    7.4832  -20.9863   25.1199 O   0  0  0  0  0  0  0  0  0  0  0  0
    8.0888  -15.9495   24.5234 C   0  0  0  0  0  0  0  0  0  0  0  0
    9.3544  -15.8967   24.3353 O   0  0  0  0  0  0  0  0  0  0  0  0
    6.8585  -20.4168   27.2268 O   0  0  0  0  0  0  0  0  0  0  0  0
    5.8245  -11.5272   26.7801 C   0  0  0  0  0  0  0  0  0  0  0  0
    6.6758  -12.5133   25.9786 C   0  0  1  0  0  0  0  0  0  0  0  0
    7.4439  -11.7307   24.9095 C   0  0  0  0  0  0  0  0  0  0  0  0
    7.6439  -13.1479   26.9230 C   0  0  0  0  0  0  0  0  0  0  0  0
    8.4733  -14.1859   26.2549 C   0  0  2  0  0  0  0  0  0  0  0  0
    7.5809  -15.0719   25.4930 N   0  0  0  0  0  0  0  0  0  0  0  0
    9.2055  -14.9931   27.2472 C   0  0  0  0  0  0  0  0  0  0  0  0
    8.9161  -16.1748   27.5613 O   0  0  0  0  0  0  0  0  0  0  0  0
   10.3083  -14.4213   27.9005 O   0  0  0  0  0  0  0  0  0  0  0  0
  1  2  1  0
  2  3  1  0
  3  4  2  0
  5  3  1  0
  5  6  1  0
  6 11  1  0
  6  7  1  1
  8  7  1  0
  9  8  1  0
 10  9  2  0
 11 19  1  0
 11 12  2  0
 13  9  1  0
 15 14  1  1
 15 16  1  0
 18 17  1  1
 17 15  1  0
 18 20  1  0
 19 18  1  0
 20 22  1  0
 21 20  2  0
M  END
$$$$
