GEL.pdb
     RDKit          3D

 22 21  0  0  1  0  0  0  0  0999 V2000
    2.8432  -20.2809   22.5929 N   0  0  0  0  0  0  0  0  0  0  0  0
    3.3253  -18.9337   22.6207 C   0  0  0  0  0  0  0  0  0  0  0  0
    4.7148  -18.8543   23.1571 C   0  0  0  0  0  0  0  0  0  0  0  0
    5.0043  -19.5702   24.1314 O   0  0  0  0  0  0  0  0  0  0  0  0
    5.6663  -17.9887   22.5692 N   0  0  0  0  0  0  0  0  0  0  0  0
    7.0607  -17.9219   23.0686 C   0  0  1  0  0  0  0  0  0  0  0  0
    7.9578  -18.2103   21.9056 C   0  0  0  0  0  0  0  0  0  0  0  0
    9.3986  -18.3672   22.1853 C   0  0  0  0  0  0  0  0  0  0  0  0
   10.2463  -18.5680   20.9930 C   0  0  0  0  0  0  0  0  0  0  0  0
    9.8234  -18.6069   19.8220 O   0  0  0  0  0  0  0  0  0  0  0  0
    7.2269  -16.5798   23.6635 C   0  0  0  0  0  0  0  0  0  0  0  0
    6.9198  -15.5577   22.9558 O   0  0  0  0  0  0  0  0  0  0  0  0
   11.6145  -18.7233   21.2121 O   0  0  0  0  0  0  0  0  0  0  0  0
    5.8166  -13.1450   27.0357 C   0  0  0  0  0  0  0  0  0  0  0  0
    6.4802  -13.8345   25.8425 C   0  0  1  0  0  0  0  0  0  0  0  0
    6.6493  -12.8044   24.7220 C   0  0  0  0  0  0  0  0  0  0  0  0
    7.8241  -14.3133   26.2858 C   0  0  0  0  0  0  0  0  0  0  0  0
    8.5063  -15.1097   25.2313 C   0  0  2  0  0  0  0  0  0  0  0  0
    7.6957  -16.3054   24.9569 N   0  0  0  0  0  0  0  0  0  0  0  0
    9.8438  -15.5383   25.6784 C   0  0  0  0  0  0  0  0  0  0  0  0
   10.1308  -16.6995   26.0630 O   0  0  0  0  0  0  0  0  0  0  0  0
   10.8866  -14.5989   25.6832 O   0  0  0  0  0  0  0  0  0  0  0  0
  1  2  1  0
  2  3  1  0
  3  4  2  0
  5  3  1  0
  5  6  1  0
  6 11  1  0
  6  7  1  6
  8  7  1  0
  9  8  1  0
 10  9  2  0
 11 19  1  0
 11 12  2  0
 13  9  1  0
 15 14  1  1
 15 16  1  0
 18 17  1  1
 17 15  1  0
 18 20  1  0
 19 18  1  0
 20 22  1  0
 21 20  2  0
M  END
$$$$
