GEL.pdb
     RDKit          3D

 22 21  0  0  1  0  0  0  0  0999 V2000
    7.7449  -12.1539   18.6861 N   0  0  0  0  0  0  0  0  0  0  0  0
    8.8271  -12.7961   19.3677 C   0  0  0  0  0  0  0  0  0  0  0  0
    8.3402  -13.8111   20.3462 C   0  0  0  0  0  0  0  0  0  0  0  0
    7.1123  -13.9249   20.5042 O   0  0  0  0  0  0  0  0  0  0  0  0
    9.2543  -14.6142   21.0670 N   0  0  0  0  0  0  0  0  0  0  0  0
    8.7885  -15.7128   21.9471 C   0  0  1  0  0  0  0  0  0  0  0  0
    9.4857  -16.9594   21.4996 C   0  0  0  0  0  0  0  0  0  0  0  0
    9.1831  -18.2041   22.2331 C   0  0  0  0  0  0  0  0  0  0  0  0
    9.9549  -19.3859   21.7994 C   0  0  0  0  0  0  0  0  0  0  0  0
   11.1692  -19.5574   22.0172 O   0  0  0  0  0  0  0  0  0  0  0  0
    9.0911  -15.2948   23.3316 C   0  0  0  0  0  0  0  0  0  0  0  0
   10.2938  -14.9611   23.6179 O   0  0  0  0  0  0  0  0  0  0  0  0
    9.2591  -20.3696   21.0977 O   0  0  0  0  0  0  0  0  0  0  0  0
    5.8366  -12.3899   26.5136 C   0  0  0  0  0  0  0  0  0  0  0  0
    7.0508  -12.9409   25.7642 C   0  0  1  0  0  0  0  0  0  0  0  0
    8.1834  -11.9145   25.8584 C   0  0  0  0  0  0  0  0  0  0  0  0
    7.4667  -14.2052   26.4428 C   0  0  0  0  0  0  0  0  0  0  0  0
    8.6052  -14.8614   25.7466 C   0  0  2  0  0  0  0  0  0  0  0  0
    8.1716  -15.2222   24.3887 N   0  0  0  0  0  0  0  0  0  0  0  0
    9.0169  -16.0881   26.4524 C   0  0  0  0  0  0  0  0  0  0  0  0
    8.6673  -17.2507   26.1284 O   0  0  0  0  0  0  0  0  0  0  0  0
    9.8594  -15.9734   27.5690 O   0  0  0  0  0  0  0  0  0  0  0  0
  1  2  1  0
  2  3  1  0
  3  4  2  0
  5  3  1  0
  5  6  1  0
  6 11  1  0
  6  7  1  6
  8  7  1  0
  9  8  1  0
 10  9  2  0
 11 19  1  0
 11 12  2  0
 13  9  1  0
 15 14  1  1
 15 16  1  0
 18 17  1  1
 17 15  1  0
 18 20  1  0
 19 18  1  0
 20 22  1  0
 21 20  2  0
M  END
$$$$
