GEL.pdb
     RDKit          3D

 22 21  0  0  1  0  0  0  0  0999 V2000
    7.2192  -12.5449   19.0554 N   0  0  0  0  0  0  0  0  0  0  0  0
    8.4084  -13.1851   19.5289 C   0  0  0  0  0  0  0  0  0  0  0  0
    8.1204  -14.1309   20.6457 C   0  0  0  0  0  0  0  0  0  0  0  0
    6.9522  -14.1967   21.0660 O   0  0  0  0  0  0  0  0  0  0  0  0
    9.1505  -14.9238   21.2028 N   0  0  0  0  0  0  0  0  0  0  0  0
    8.8617  -15.9528   22.2305 C   0  0  1  0  0  0  0  0  0  0  0  0
    9.7386  -17.1288   21.9327 C   0  0  0  0  0  0  0  0  0  0  0  0
    9.6177  -18.3040   22.8177 C   0  0  0  0  0  0  0  0  0  0  0  0
   10.5411  -19.4140   22.5087 C   0  0  0  0  0  0  0  0  0  0  0  0
   10.8867  -20.2941   23.3195 O   0  0  0  0  0  0  0  0  0  0  0  0
    9.1035  -15.3135   23.5403 C   0  0  0  0  0  0  0  0  0  0  0  0
   10.1925  -14.6609   23.7077 O   0  0  0  0  0  0  0  0  0  0  0  0
   11.0529  -19.4651   21.2127 O   0  0  0  0  0  0  0  0  0  0  0  0
    5.5172  -12.4889   26.1400 C   0  0  0  0  0  0  0  0  0  0  0  0
    6.8337  -12.9905   25.5442 C   0  0  1  0  0  0  0  0  0  0  0  0
    7.8135  -11.8154   25.4796 C   0  0  0  0  0  0  0  0  0  0  0  0
    7.3744  -14.0401   26.4595 C   0  0  0  0  0  0  0  0  0  0  0  0
    8.5959  -14.6838   25.9072 C   0  0  2  0  0  0  0  0  0  0  0  0
    8.2389  -15.3476   24.6447 N   0  0  0  0  0  0  0  0  0  0  0  0
    9.1248  -15.6954   26.8396 C   0  0  0  0  0  0  0  0  0  0  0  0
    9.0405  -16.9375   26.6697 O   0  0  0  0  0  0  0  0  0  0  0  0
    9.7727  -15.2634   28.0072 O   0  0  0  0  0  0  0  0  0  0  0  0
  1  2  1  0
  2  3  1  0
  3  4  2  0
  5  3  1  0
  5  6  1  0
  6 11  1  0
  6  7  1  6
  8  7  1  0
  9  8  1  0
 10  9  2  0
 11 19  1  0
 11 12  2  0
 13  9  1  0
 15 14  1  1
 15 16  1  0
 18 17  1  1
 17 15  1  0
 18 20  1  0
 19 18  1  0
 20 22  1  0
 21 20  2  0
M  END
$$$$
