GEL.pdb
     RDKit          3D

 22 21  0  0  1  0  0  0  0  0999 V2000
    7.6852  -13.1125   17.9732 N   0  0  0  0  0  0  0  0  0  0  0  0
    8.6858  -13.1071   18.9965 C   0  0  0  0  0  0  0  0  0  0  0  0
    8.3637  -14.0686   20.0903 C   0  0  0  0  0  0  0  0  0  0  0  0
    7.1987  -14.0878   20.5240 O   0  0  0  0  0  0  0  0  0  0  0  0
    9.3590  -14.9276   20.6114 N   0  0  0  0  0  0  0  0  0  0  0  0
    9.0489  -15.9102   21.6776 C   0  0  1  0  0  0  0  0  0  0  0  0
   10.0450  -17.0207   21.5544 C   0  0  0  0  0  0  0  0  0  0  0  0
    9.8456  -17.9897   20.4589 C   0  0  0  0  0  0  0  0  0  0  0  0
   10.8464  -19.0736   20.3964 C   0  0  0  0  0  0  0  0  0  0  0  0
   10.8385  -19.9973   19.5606 O   0  0  0  0  0  0  0  0  0  0  0  0
    9.0993  -15.1695   22.9549 C   0  0  0  0  0  0  0  0  0  0  0  0
   10.2094  -14.6368   23.3067 O   0  0  0  0  0  0  0  0  0  0  0  0
   11.8654  -19.0456   21.3477 O   0  0  0  0  0  0  0  0  0  0  0  0
    8.0139  -11.5782   26.4717 C   0  0  0  0  0  0  0  0  0  0  0  0
    6.9978  -12.7101   26.6325 C   0  0  1  0  0  0  0  0  0  0  0  0
    5.6271  -12.0915   26.9220 C   0  0  0  0  0  0  0  0  0  0  0  0
    6.9439  -13.4576   25.3401 C   0  0  0  0  0  0  0  0  0  0  0  0
    8.1968  -14.2168   25.0843 C   0  0  2  0  0  0  0  0  0  0  0  0
    8.0278  -14.9839   23.8413 N   0  0  0  0  0  0  0  0  0  0  0  0
    8.4764  -15.1565   26.1848 C   0  0  0  0  0  0  0  0  0  0  0  0
    9.1714  -14.8865   27.1962 O   0  0  0  0  0  0  0  0  0  0  0  0
    7.9380  -16.4510   26.1197 O   0  0  0  0  0  0  0  0  0  0  0  0
  1  2  1  0
  2  3  1  0
  3  4  2  0
  5  3  1  0
  5  6  1  0
  6 11  1  0
  6  7  1  1
  8  7  1  0
  9  8  1  0
 10  9  2  0
 11 19  1  0
 11 12  2  0
 13  9  1  0
 15 14  1  6
 15 16  1  0
 18 17  1  1
 17 15  1  0
 18 20  1  0
 19 18  1  0
 20 22  1  0
 21 20  2  0
M  END
$$$$
