GEL.pdb
     RDKit          3D

 22 21  0  0  1  0  0  0  0  0999 V2000
    7.5646  -12.9040   18.3231 N   0  0  0  0  0  0  0  0  0  0  0  0
    8.7090  -13.2623   19.1042 C   0  0  0  0  0  0  0  0  0  0  0  0
    8.3681  -14.2589   20.1603 C   0  0  0  0  0  0  0  0  0  0  0  0
    7.1841  -14.3300   20.5329 O   0  0  0  0  0  0  0  0  0  0  0  0
    9.3671  -15.0926   20.7144 N   0  0  0  0  0  0  0  0  0  0  0  0
    9.0658  -16.0194   21.8318 C   0  0  1  0  0  0  0  0  0  0  0  0
   10.0892  -17.1108   21.7849 C   0  0  0  0  0  0  0  0  0  0  0  0
    9.8540  -18.2183   20.8377 C   0  0  0  0  0  0  0  0  0  0  0  0
   10.8806  -19.2795   20.8530 C   0  0  0  0  0  0  0  0  0  0  0  0
   11.2735  -19.8990   19.8463 O   0  0  0  0  0  0  0  0  0  0  0  0
    9.0819  -15.2055   23.0647 C   0  0  0  0  0  0  0  0  0  0  0  0
   10.0717  -14.4171   23.2612 O   0  0  0  0  0  0  0  0  0  0  0  0
   11.4389  -19.5977   22.0904 O   0  0  0  0  0  0  0  0  0  0  0  0
    7.6100  -11.6053   26.4259 C   0  0  0  0  0  0  0  0  0  0  0  0
    6.7949  -12.8735   26.6842 C   0  0  1  0  0  0  0  0  0  0  0  0
    5.3479  -12.4666   26.9772 C   0  0  0  0  0  0  0  0  0  0  0  0
    6.8377  -13.7006   25.4409 C   0  0  0  0  0  0  0  0  0  0  0  0
    8.1828  -14.2925   25.2128 C   0  0  2  0  0  0  0  0  0  0  0  0
    8.0977  -15.2069   24.0645 N   0  0  0  0  0  0  0  0  0  0  0  0
    8.6285  -15.0558   26.3923 C   0  0  0  0  0  0  0  0  0  0  0  0
    9.0691  -14.5426   27.4512 O   0  0  0  0  0  0  0  0  0  0  0  0
    8.5650  -16.4573   26.3523 O   0  0  0  0  0  0  0  0  0  0  0  0
  1  2  1  0
  2  3  1  0
  3  4  2  0
  5  3  1  0
  5  6  1  0
  6 11  1  0
  6  7  1  1
  8  7  1  0
  9  8  1  0
 10  9  2  0
 11 19  1  0
 11 12  2  0
 13  9  1  0
 15 14  1  6
 15 16  1  0
 18 17  1  1
 17 15  1  0
 18 20  1  0
 19 18  1  0
 20 22  1  0
 21 20  2  0
M  END
$$$$
