GEL.pdb
     RDKit          3D

 22 21  0  0  1  0  0  0  0  0999 V2000
    7.2310  -12.5038   18.8732 N   0  0  0  0  0  0  0  0  0  0  0  0
    8.4252  -12.9741   19.5066 C   0  0  0  0  0  0  0  0  0  0  0  0
    8.1298  -13.9833   20.5644 C   0  0  0  0  0  0  0  0  0  0  0  0
    6.9389  -14.1885   20.8566 O   0  0  0  0  0  0  0  0  0  0  0  0
    9.1781  -14.6799   21.2091 N   0  0  0  0  0  0  0  0  0  0  0  0
    8.9004  -15.7732   22.1714 C   0  0  1  0  0  0  0  0  0  0  0  0
    9.8125  -16.9075   21.8222 C   0  0  0  0  0  0  0  0  0  0  0  0
    9.6535  -18.1623   22.5833 C   0  0  0  0  0  0  0  0  0  0  0  0
   10.5768  -19.2473   22.1953 C   0  0  0  0  0  0  0  0  0  0  0  0
   11.1268  -20.0286   22.9945 O   0  0  0  0  0  0  0  0  0  0  0  0
    9.1048  -15.2042   23.5195 C   0  0  0  0  0  0  0  0  0  0  0  0
   10.2572  -14.7281   23.8114 O   0  0  0  0  0  0  0  0  0  0  0  0
   10.8403  -19.3933   20.8339 O   0  0  0  0  0  0  0  0  0  0  0  0
    5.6094  -12.1899   26.2964 C   0  0  0  0  0  0  0  0  0  0  0  0
    6.8727  -12.7626   25.6517 C   0  0  1  0  0  0  0  0  0  0  0  0
    7.9740  -11.7007   25.7201 C   0  0  0  0  0  0  0  0  0  0  0  0
    7.2843  -13.9589   26.4461 C   0  0  0  0  0  0  0  0  0  0  0  0
    8.4856  -14.6213   25.8717 C   0  0  2  0  0  0  0  0  0  0  0  0
    8.1403  -15.1285   24.5355 N   0  0  0  0  0  0  0  0  0  0  0  0
    8.9131  -15.7549   26.7112 C   0  0  0  0  0  0  0  0  0  0  0  0
    8.7251  -16.9646   26.4284 O   0  0  0  0  0  0  0  0  0  0  0  0
    9.5797  -15.4877   27.9170 O   0  0  0  0  0  0  0  0  0  0  0  0
  1  2  1  0
  2  3  1  0
  3  4  2  0
  5  3  1  0
  5  6  1  0
  6 11  1  0
  6  7  1  6
  8  7  1  0
  9  8  1  0
 10  9  2  0
 11 19  1  0
 11 12  2  0
 13  9  1  0
 15 14  1  1
 15 16  1  0
 18 17  1  1
 17 15  1  0
 18 20  1  0
 19 18  1  0
 20 22  1  0
 21 20  2  0
M  END
$$$$
