NTN.pdb
     RDKit          3D

 24 23  0  0  1  0  0  0  0  0999 V2000
    1.1625  -19.9608   19.4642 N   0  0  0  0  0  0  0  0  0  0  0  0
    1.4868  -18.9527   20.4128 C   0  0  0  0  0  0  0  0  0  0  0  0
    0.6805  -18.6943   21.3504 O   0  0  0  0  0  0  0  0  0  0  0  0
    2.7619  -18.1572   20.3633 C   0  0  0  0  0  0  0  0  0  0  0  0
    3.8630  -19.1133   20.7166 C   0  0  2  0  0  0  0  0  0  0  0  0
    3.4809  -19.8691   21.8728 N   0  0  0  0  0  0  0  0  0  0  0  0
    5.2081  -18.4934   20.8172 C   0  0  0  0  0  0  0  0  0  0  0  0
    6.1456  -18.9445   20.1016 O   0  0  0  0  0  0  0  0  0  0  0  0
    6.2300  -14.6344   22.2205 C   0  0  0  0  0  0  0  0  0  0  0  0
    7.1860  -15.5848   21.5357 C   0  0  1  0  0  0  0  0  0  0  0  0
    8.4876  -15.2031   21.8261 O   0  0  0  0  0  0  0  0  0  0  0  0
    6.8613  -16.9711   21.9809 C   0  0  2  0  0  0  0  0  0  0  0  0
    5.5220  -17.4091   21.6817 N   0  0  0  0  0  0  0  0  0  0  0  0
    7.2334  -17.2606   23.3968 C   0  0  0  0  0  0  0  0  0  0  0  0
    6.5452  -16.9156   24.3656 O   0  0  0  0  0  0  0  0  0  0  0  0
    7.6510  -21.3869   23.9173 N   0  0  0  0  0  0  0  0  0  0  0  0
    7.9096  -20.5323   25.0157 C   0  0  0  0  0  0  0  0  0  0  0  0
    7.0589  -20.4191   25.9235 O   0  0  0  0  0  0  0  0  0  0  0  0
    9.1775  -19.7868   25.0814 C   0  0  0  0  0  0  0  0  0  0  0  0
    8.9707  -18.2908   24.9400 C   0  0  2  0  0  0  0  0  0  0  0  0
    8.4365  -17.9712   23.6258 N   0  0  0  0  0  0  0  0  0  0  0  0
   10.3034  -17.6422   25.0907 C   0  0  0  0  0  0  0  0  0  0  0  0
   10.8794  -16.8915   24.0835 O   0  0  0  0  0  0  0  0  0  0  0  0
   10.9273  -17.7747   26.1636 O   0  0  0  0  0  0  0  0  0  0  0  0
  2  1  1  0
  3  2  2  0
  4  2  1  0
  4  5  1  0
  5  6  1  1
  7  5  1  0
  8  7  2  0
 10  9  1  1
 10 12  1  0
 11 10  1  0
 12 13  1  1
 12 14  1  0
 13  7  1  0
 14 15  2  0
 14 21  1  0
 17 16  1  0
 18 17  2  0
 19 17  1  0
 20 19  1  6
 20 22  1  0
 21 20  1  0
 22 23  1  0
 24 22  2  0
M  END
$$$$
