NTN.pdb
     RDKit          3D

 24 23  0  0  1  0  0  0  0  0999 V2000
    7.0602  -15.2356   12.5606 N   0  0  0  0  0  0  0  0  0  0  0  0
    8.2308  -15.2318   13.3674 C   0  0  0  0  0  0  0  0  0  0  0  0
    9.2645  -15.8407   12.9715 O   0  0  0  0  0  0  0  0  0  0  0  0
    8.3119  -14.5304   14.6950 C   0  0  0  0  0  0  0  0  0  0  0  0
    8.7384  -15.5697   15.6896 C   0  0  2  0  0  0  0  0  0  0  0  0
    7.7080  -16.5583   15.8126 N   0  0  0  0  0  0  0  0  0  0  0  0
    9.2100  -15.0238   16.9870 C   0  0  0  0  0  0  0  0  0  0  0  0
   10.3597  -14.5059   17.0520 O   0  0  0  0  0  0  0  0  0  0  0  0
    7.1804  -12.9251   19.5681 C   0  0  0  0  0  0  0  0  0  0  0  0
    7.9056  -13.9921   20.3568 C   0  0  1  0  0  0  0  0  0  0  0  0
    6.9789  -14.9024   20.8432 O   0  0  0  0  0  0  0  0  0  0  0  0
    8.9327  -14.6090   19.4680 C   0  0  2  0  0  0  0  0  0  0  0  0
    8.4448  -15.0464   18.1852 N   0  0  0  0  0  0  0  0  0  0  0  0
    9.7624  -15.6580   20.1301 C   0  0  0  0  0  0  0  0  0  0  0  0
    9.6909  -16.8608   19.8482 O   0  0  0  0  0  0  0  0  0  0  0  0
   14.3112  -17.3894   22.7115 N   0  0  0  0  0  0  0  0  0  0  0  0
   13.5644  -16.3228   23.2668 C   0  0  0  0  0  0  0  0  0  0  0  0
   13.6003  -16.1198   24.4990 O   0  0  0  0  0  0  0  0  0  0  0  0
   12.7545  -15.4610   22.3899 C   0  0  0  0  0  0  0  0  0  0  0  0
   11.4677  -16.1351   21.9536 C   0  0  2  0  0  0  0  0  0  0  0  0
   10.6764  -15.2381   21.1266 N   0  0  0  0  0  0  0  0  0  0  0  0
   10.6975  -16.4614   23.1864 C   0  0  0  0  0  0  0  0  0  0  0  0
   10.8655  -17.6497   23.8714 O   0  0  0  0  0  0  0  0  0  0  0  0
    9.8704  -15.6354   23.6242 O   0  0  0  0  0  0  0  0  0  0  0  0
  2  1  1  0
  3  2  2  0
  4  2  1  0
  4  5  1  0
  5  6  1  1
  7  5  1  0
  8  7  2  0
 10  9  1  6
 10 12  1  0
 11 10  1  0
 12 13  1  6
 12 14  1  0
 13  7  1  0
 14 15  2  0
 14 21  1  0
 17 16  1  0
 18 17  2  0
 19 17  1  0
 20 19  1  1
 20 22  1  0
 21 20  1  0
 22 23  1  0
 24 22  2  0
M  END
$$$$
