NTN.pdb
     RDKit          3D

 24 23  0  0  1  0  0  0  0  0999 V2000
    8.0318  -15.5373   11.6877 N   0  0  0  0  0  0  0  0  0  0  0  0
    7.3992  -15.5241   12.9609 C   0  0  0  0  0  0  0  0  0  0  0  0
    6.3873  -16.2528   13.1634 O   0  0  0  0  0  0  0  0  0  0  0  0
    7.8743  -14.6733   14.1060 C   0  0  0  0  0  0  0  0  0  0  0  0
    8.5820  -15.6016   15.0488 C   0  0  2  0  0  0  0  0  0  0  0  0
    7.6792  -16.6352   15.4621 N   0  0  0  0  0  0  0  0  0  0  0  0
    9.2807  -14.9254   16.1705 C   0  0  0  0  0  0  0  0  0  0  0  0
   10.3321  -14.2687   15.9303 O   0  0  0  0  0  0  0  0  0  0  0  0
    7.7903  -12.7052   18.9091 C   0  0  0  0  0  0  0  0  0  0  0  0
    8.6798  -13.6901   19.6337 C   0  0  1  0  0  0  0  0  0  0  0  0
    7.8859  -14.5711   20.3532 O   0  0  0  0  0  0  0  0  0  0  0  0
    9.5470  -14.3630   18.6234 C   0  0  2  0  0  0  0  0  0  0  0  0
    8.8428  -14.9686   17.5225 N   0  0  0  0  0  0  0  0  0  0  0  0
   10.5592  -15.2905   19.2086 C   0  0  0  0  0  0  0  0  0  0  0  0
   10.5182  -16.5192   19.0676 O   0  0  0  0  0  0  0  0  0  0  0  0
   14.8085  -13.3780   18.6451 N   0  0  0  0  0  0  0  0  0  0  0  0
   14.5331  -14.6413   19.2211 C   0  0  0  0  0  0  0  0  0  0  0  0
   14.7663  -15.6812   18.5691 O   0  0  0  0  0  0  0  0  0  0  0  0
   13.9773  -14.7205   20.5822 C   0  0  0  0  0  0  0  0  0  0  0  0
   12.6637  -15.4778   20.6217 C   0  0  2  0  0  0  0  0  0  0  0  0
   11.6165  -14.7188   19.9567 N   0  0  0  0  0  0  0  0  0  0  0  0
   12.2964  -15.6550   22.0546 C   0  0  0  0  0  0  0  0  0  0  0  0
   13.0272  -16.4545   22.9127 O   0  0  0  0  0  0  0  0  0  0  0  0
   11.2950  -15.0609   22.5045 O   0  0  0  0  0  0  0  0  0  0  0  0
  2  1  1  0
  3  2  2  0
  4  2  1  0
  4  5  1  0
  5  6  1  1
  7  5  1  0
  8  7  2  0
 10  9  1  6
 10 12  1  0
 11 10  1  0
 12 13  1  6
 12 14  1  0
 13  7  1  0
 14 15  2  0
 14 21  1  0
 17 16  1  0
 18 17  2  0
 19 17  1  0
 20 19  1  1
 20 22  1  0
 21 20  1  0
 22 23  1  0
 24 22  2  0
M  END
$$$$
