NTN.pdb
     RDKit          3D

 24 23  0  0  1  0  0  0  0  0999 V2000
    9.5444  -18.4944   13.5141 N   0  0  0  0  0  0  0  0  0  0  0  0
    8.9111  -18.1560   14.7411 C   0  0  0  0  0  0  0  0  0  0  0  0
    7.6829  -18.4057   14.9000 O   0  0  0  0  0  0  0  0  0  0  0  0
    9.6339  -17.5026   15.8864 C   0  0  0  0  0  0  0  0  0  0  0  0
    8.9082  -16.2176   16.1579 C   0  0  2  0  0  0  0  0  0  0  0  0
    8.9760  -15.3810   14.9961 N   0  0  0  0  0  0  0  0  0  0  0  0
    9.3080  -15.5384   17.4158 C   0  0  0  0  0  0  0  0  0  0  0  0
   10.4297  -14.9611   17.4705 O   0  0  0  0  0  0  0  0  0  0  0  0
    7.6809  -12.8480   19.4469 C   0  0  0  0  0  0  0  0  0  0  0  0
    7.9389  -13.9575   20.4413 C   0  0  1  0  0  0  0  0  0  0  0  0
    6.7315  -14.5513   20.7787 O   0  0  0  0  0  0  0  0  0  0  0  0
    8.9174  -14.9063   19.8349 C   0  0  2  0  0  0  0  0  0  0  0  0
    8.5029  -15.4941   18.5869 N   0  0  0  0  0  0  0  0  0  0  0  0
    9.4391  -15.9340   20.7830 C   0  0  0  0  0  0  0  0  0  0  0  0
    9.1573  -17.1365   20.7059 O   0  0  0  0  0  0  0  0  0  0  0  0
   13.3353  -17.4300   21.8616 N   0  0  0  0  0  0  0  0  0  0  0  0
   13.2446  -16.1388   22.4344 C   0  0  0  0  0  0  0  0  0  0  0  0
   14.0917  -15.2703   22.1364 O   0  0  0  0  0  0  0  0  0  0  0  0
   12.1537  -15.8287   23.3733 C   0  0  0  0  0  0  0  0  0  0  0  0
   10.8127  -16.3402   22.8828 C   0  0  2  0  0  0  0  0  0  0  0  0
   10.3031  -15.4947   21.8150 N   0  0  0  0  0  0  0  0  0  0  0  0
    9.8688  -16.2860   24.0342 C   0  0  0  0  0  0  0  0  0  0  0  0
    9.9475  -17.1646   25.0979 O   0  0  0  0  0  0  0  0  0  0  0  0
    8.9733  -15.4166   24.0471 O   0  0  0  0  0  0  0  0  0  0  0  0
  2  1  1  0
  3  2  2  0
  4  2  1  0
  4  5  1  0
  5  6  1  6
  7  5  1  0
  8  7  2  0
 10  9  1  6
 10 12  1  0
 11 10  1  0
 12 13  1  6
 12 14  1  0
 13  7  1  0
 14 15  2  0
 14 21  1  0
 17 16  1  0
 18 17  2  0
 19 17  1  0
 20 19  1  1
 20 22  1  0
 21 20  1  0
 22 23  1  0
 24 22  2  0
M  END
$$$$
