NTN.pdb
     RDKit          3D

 24 23  0  0  1  0  0  0  0  0999 V2000
    7.1593  -16.9911   12.7747 N   0  0  0  0  0  0  0  0  0  0  0  0
    7.2008  -15.5751   12.6543 C   0  0  0  0  0  0  0  0  0  0  0  0
    6.7812  -15.0253   11.5971 O   0  0  0  0  0  0  0  0  0  0  0  0
    7.7279  -14.6733   13.7359 C   0  0  0  0  0  0  0  0  0  0  0  0
    8.3139  -15.5758   14.7816 C   0  0  2  0  0  0  0  0  0  0  0  0
    7.2826  -16.4184   15.3116 N   0  0  0  0  0  0  0  0  0  0  0  0
    9.1163  -14.8784   15.8176 C   0  0  0  0  0  0  0  0  0  0  0  0
   10.1669  -14.2693   15.4716 O   0  0  0  0  0  0  0  0  0  0  0  0
    7.7327  -12.7555   18.8558 C   0  0  0  0  0  0  0  0  0  0  0  0
    8.8058  -13.6830   19.3796 C   0  0  1  0  0  0  0  0  0  0  0  0
    8.2104  -14.6782   20.1407 O   0  0  0  0  0  0  0  0  0  0  0  0
    9.5752  -14.2079   18.2144 C   0  0  2  0  0  0  0  0  0  0  0  0
    8.7806  -14.8503   17.1990 N   0  0  0  0  0  0  0  0  0  0  0  0
   10.7635  -15.0300   18.5877 C   0  0  0  0  0  0  0  0  0  0  0  0
   10.8405  -16.2478   18.3818 O   0  0  0  0  0  0  0  0  0  0  0  0
   16.4410  -14.8261   19.2038 N   0  0  0  0  0  0  0  0  0  0  0  0
   15.4668  -14.5709   20.1985 C   0  0  0  0  0  0  0  0  0  0  0  0
   15.7089  -14.8624   21.3890 O   0  0  0  0  0  0  0  0  0  0  0  0
   14.1792  -13.9630   19.8242 C   0  0  0  0  0  0  0  0  0  0  0  0
   13.1033  -15.0040   19.5804 C   0  0  2  0  0  0  0  0  0  0  0  0
   11.8517  -14.3664   19.2042 N   0  0  0  0  0  0  0  0  0  0  0  0
   12.9037  -15.7437   20.8581 C   0  0  0  0  0  0  0  0  0  0  0  0
   13.5823  -16.9113   21.1513 O   0  0  0  0  0  0  0  0  0  0  0  0
   12.0981  -15.2975   21.7006 O   0  0  0  0  0  0  0  0  0  0  0  0
  2  1  1  0
  3  2  2  0
  4  2  1  0
  4  5  1  0
  5  6  1  1
  7  5  1  0
  8  7  2  0
 10  9  1  6
 10 12  1  0
 11 10  1  0
 12 13  1  6
 12 14  1  0
 13  7  1  0
 14 15  2  0
 14 21  1  0
 17 16  1  0
 18 17  2  0
 19 17  1  0
 20 19  1  1
 20 22  1  0
 21 20  1  0
 22 23  1  0
 24 22  2  0
M  END
$$$$
