NTN.pdb
     RDKit          3D

 24 23  0  0  1  0  0  0  0  0999 V2000
    7.7720  -16.5889   13.6695 N   0  0  0  0  0  0  0  0  0  0  0  0
    8.7001  -16.7954   14.7266 C   0  0  0  0  0  0  0  0  0  0  0  0
    9.4938  -17.7770   14.6783 O   0  0  0  0  0  0  0  0  0  0  0  0
    8.7933  -15.8938   15.9263 C   0  0  0  0  0  0  0  0  0  0  0  0
    8.8529  -16.7975   17.1227 C   0  0  2  0  0  0  0  0  0  0  0  0
    7.6134  -17.5073   17.2420 N   0  0  0  0  0  0  0  0  0  0  0  0
    9.2916  -16.1329   18.3754 C   0  0  0  0  0  0  0  0  0  0  0  0
   10.5045  -15.8057   18.5030 O   0  0  0  0  0  0  0  0  0  0  0  0
    7.3762  -13.2984   20.2455 C   0  0  0  0  0  0  0  0  0  0  0  0
    7.8290  -14.2863   21.2968 C   0  0  1  0  0  0  0  0  0  0  0  0
    6.7214  -14.9600   21.7903 O   0  0  0  0  0  0  0  0  0  0  0  0
    8.8452  -15.1877   20.6801 C   0  0  2  0  0  0  0  0  0  0  0  0
    8.4264  -15.8361   19.4640 N   0  0  0  0  0  0  0  0  0  0  0  0
    9.4651  -16.1525   21.6350 C   0  0  0  0  0  0  0  0  0  0  0  0
    9.2965  -17.3768   21.5712 O   0  0  0  0  0  0  0  0  0  0  0  0
   12.8272  -16.8375   21.7127 N   0  0  0  0  0  0  0  0  0  0  0  0
   13.2769  -16.1591   22.8708 C   0  0  0  0  0  0  0  0  0  0  0  0
   14.4713  -15.8023   22.9527 O   0  0  0  0  0  0  0  0  0  0  0  0
   12.3352  -15.8776   23.9671 C   0  0  0  0  0  0  0  0  0  0  0  0
   10.9469  -16.4185   23.6831 C   0  0  2  0  0  0  0  0  0  0  0  0
   10.2892  -15.6241   22.6579 N   0  0  0  0  0  0  0  0  0  0  0  0
   10.1646  -16.3192   24.9471 C   0  0  0  0  0  0  0  0  0  0  0  0
   10.3528  -17.1890   26.0044 O   0  0  0  0  0  0  0  0  0  0  0  0
    9.3083  -15.4186   25.0642 O   0  0  0  0  0  0  0  0  0  0  0  0
  2  1  1  0
  3  2  2  0
  4  2  1  0
  4  5  1  0
  5  6  1  1
  7  5  1  0
  8  7  2  0
 10  9  1  6
 10 12  1  0
 11 10  1  0
 12 13  1  6
 12 14  1  0
 13  7  1  0
 14 15  2  0
 14 21  1  0
 17 16  1  0
 18 17  2  0
 19 17  1  0
 20 19  1  1
 20 22  1  0
 21 20  1  0
 22 23  1  0
 24 22  2  0
M  END
$$$$
