NTN.pdb
     RDKit          3D

 24 23  0  0  1  0  0  0  0  0999 V2000
    7.5275  -15.0201   15.0980 N   0  0  0  0  0  0  0  0  0  0  0  0
    8.7660  -15.1544   15.7833 C   0  0  0  0  0  0  0  0  0  0  0  0
    9.2649  -14.1552   16.3738 O   0  0  0  0  0  0  0  0  0  0  0  0
    9.5346  -16.4452   15.8466 C   0  0  0  0  0  0  0  0  0  0  0  0
    9.2269  -17.0476   17.1860 C   0  0  2  0  0  0  0  0  0  0  0  0
    7.8798  -17.5370   17.1868 N   0  0  0  0  0  0  0  0  0  0  0  0
    9.5542  -16.1768   18.3428 C   0  0  0  0  0  0  0  0  0  0  0  0
   10.7640  -15.9070   18.5835 O   0  0  0  0  0  0  0  0  0  0  0  0
    7.6451  -12.9987   19.9613 C   0  0  0  0  0  0  0  0  0  0  0  0
    7.8588  -14.0702   21.0066 C   0  0  1  0  0  0  0  0  0  0  0  0
    6.6424  -14.6736   21.2900 O   0  0  0  0  0  0  0  0  0  0  0  0
    8.8871  -15.0213   20.4932 C   0  0  2  0  0  0  0  0  0  0  0  0
    8.5829  -15.6173   19.2176 N   0  0  0  0  0  0  0  0  0  0  0  0
    9.3256  -16.0425   21.4892 C   0  0  0  0  0  0  0  0  0  0  0  0
    9.1302  -17.2565   21.3504 O   0  0  0  0  0  0  0  0  0  0  0  0
   13.3232  -15.4843   22.1544 N   0  0  0  0  0  0  0  0  0  0  0  0
   12.8250  -16.4859   23.0217 C   0  0  0  0  0  0  0  0  0  0  0  0
   13.1862  -17.6718   22.8673 O   0  0  0  0  0  0  0  0  0  0  0  0
   11.8887  -16.1231   24.0985 C   0  0  0  0  0  0  0  0  0  0  0  0
   10.4493  -16.4340   23.7353 C   0  0  2  0  0  0  0  0  0  0  0  0
   10.0025  -15.5824   22.6445 N   0  0  0  0  0  0  0  0  0  0  0  0
    9.6172  -16.1538   24.9389 C   0  0  0  0  0  0  0  0  0  0  0  0
    9.6856  -16.9268   26.0824 O   0  0  0  0  0  0  0  0  0  0  0  0
    8.8295  -15.1857   24.9227 O   0  0  0  0  0  0  0  0  0  0  0  0
  2  1  1  0
  3  2  2  0
  4  2  1  0
  4  5  1  0
  5  6  1  6
  7  5  1  0
  8  7  2  0
 10  9  1  6
 10 12  1  0
 11 10  1  0
 12 13  1  6
 12 14  1  0
 13  7  1  0
 14 15  2  0
 14 21  1  0
 17 16  1  0
 18 17  2  0
 19 17  1  0
 20 19  1  1
 20 22  1  0
 21 20  1  0
 22 23  1  0
 24 22  2  0
M  END
$$$$
