NTN.pdb
     RDKit          3D

 24 23  0  0  1  0  0  0  0  0999 V2000
    7.1321  -13.4299   15.5263 N   0  0  0  0  0  0  0  0  0  0  0  0
    8.3046  -14.2248   15.6481 C   0  0  0  0  0  0  0  0  0  0  0  0
    8.4427  -15.2498   14.9226 O   0  0  0  0  0  0  0  0  0  0  0  0
    9.4144  -13.9101   16.6126 C   0  0  0  0  0  0  0  0  0  0  0  0
    9.5502  -15.1139   17.4980 C   0  0  2  0  0  0  0  0  0  0  0  0
    8.5691  -16.0896   17.1243 N   0  0  0  0  0  0  0  0  0  0  0  0
    9.5773  -14.8100   18.9508 C   0  0  0  0  0  0  0  0  0  0  0  0
   10.4651  -14.0310   19.3972 O   0  0  0  0  0  0  0  0  0  0  0  0
    6.8832  -13.5648   21.2381 C   0  0  0  0  0  0  0  0  0  0  0  0
    7.4525  -14.7583   21.9713 C   0  0  1  0  0  0  0  0  0  0  0  0
    6.5130  -15.7789   21.9708 O   0  0  0  0  0  0  0  0  0  0  0  0
    8.7384  -15.1358   21.3161 C   0  0  2  0  0  0  0  0  0  0  0  0
    8.6583  -15.3471   19.8934 N   0  0  0  0  0  0  0  0  0  0  0  0
    9.4693  -16.2436   21.9985 C   0  0  0  0  0  0  0  0  0  0  0  0
    9.6804  -17.3443   21.4741 O   0  0  0  0  0  0  0  0  0  0  0  0
   13.1000  -18.0504   25.8719 N   0  0  0  0  0  0  0  0  0  0  0  0
   11.9326  -17.3236   26.2075 C   0  0  0  0  0  0  0  0  0  0  0  0
   11.3806  -17.5175   27.3113 O   0  0  0  0  0  0  0  0  0  0  0  0
   11.3800  -16.3450   25.2563 C   0  0  0  0  0  0  0  0  0  0  0  0
   10.5675  -17.0071   24.1600 C   0  0  2  0  0  0  0  0  0  0  0  0
    9.9427  -16.0050   23.3114 N   0  0  0  0  0  0  0  0  0  0  0  0
    9.5025  -17.8121   24.8214 C   0  0  0  0  0  0  0  0  0  0  0  0
    8.1959  -17.3730   24.9195 O   0  0  0  0  0  0  0  0  0  0  0  0
    9.7926  -18.9259   25.3044 O   0  0  0  0  0  0  0  0  0  0  0  0
  2  1  1  0
  3  2  2  0
  4  2  1  0
  4  5  1  0
  5  6  1  1
  7  5  1  0
  8  7  2  0
 10  9  1  6
 10 12  1  0
 11 10  1  0
 12 13  1  6
 12 14  1  0
 13  7  1  0
 14 15  2  0
 14 21  1  0
 17 16  1  0
 18 17  2  0
 19 17  1  0
 20 19  1  1
 20 22  1  0
 21 20  1  0
 22 23  1  0
 24 22  2  0
M  END
$$$$
