NTN.pdb
     RDKit          3D

 24 23  0  0  1  0  0  0  0  0999 V2000
    7.1652  -20.2823   17.1715 N   0  0  0  0  0  0  0  0  0  0  0  0
    8.3893  -19.6832   16.7666 C   0  0  0  0  0  0  0  0  0  0  0  0
    8.7716  -19.7920   15.5674 O   0  0  0  0  0  0  0  0  0  0  0  0
    9.2761  -18.9111   17.7039 C   0  0  0  0  0  0  0  0  0  0  0  0
    8.7639  -17.5007   17.6947 C   0  0  2  0  0  0  0  0  0  0  0  0
    8.9860  -16.9249   16.4011 N   0  0  0  0  0  0  0  0  0  0  0  0
    9.2474  -16.6625   18.8204 C   0  0  0  0  0  0  0  0  0  0  0  0
   10.4758  -16.3783   18.8889 O   0  0  0  0  0  0  0  0  0  0  0  0
    7.5665  -13.4420   20.4377 C   0  0  0  0  0  0  0  0  0  0  0  0
    7.9210  -14.4136   21.5407 C   0  0  1  0  0  0  0  0  0  0  0  0
    6.7560  -14.9851   22.0308 O   0  0  0  0  0  0  0  0  0  0  0  0
    8.8842  -15.4105   20.9894 C   0  0  2  0  0  0  0  0  0  0  0  0
    8.4093  -16.1502   19.8483 N   0  0  0  0  0  0  0  0  0  0  0  0
    9.4884  -16.3085   22.0170 C   0  0  0  0  0  0  0  0  0  0  0  0
    9.2232  -17.5137   22.1081 O   0  0  0  0  0  0  0  0  0  0  0  0
   14.1073  -15.3912   22.5662 N   0  0  0  0  0  0  0  0  0  0  0  0
   13.3498  -16.3619   23.2645 C   0  0  0  0  0  0  0  0  0  0  0  0
   13.4870  -17.5714   22.9834 O   0  0  0  0  0  0  0  0  0  0  0  0
   12.4097  -15.9402   24.3163 C   0  0  0  0  0  0  0  0  0  0  0  0
   10.9998  -16.4353   24.0567 C   0  0  2  0  0  0  0  0  0  0  0  0
   10.4139  -15.7373   22.9235 N   0  0  0  0  0  0  0  0  0  0  0  0
   10.1944  -16.1401   25.2748 C   0  0  0  0  0  0  0  0  0  0  0  0
   10.4062  -16.7875   26.4772 O   0  0  0  0  0  0  0  0  0  0  0  0
    9.2956  -15.2759   25.2160 O   0  0  0  0  0  0  0  0  0  0  0  0
  2  1  1  0
  3  2  2  0
  4  2  1  0
  4  5  1  0
  5  6  1  6
  7  5  1  0
  8  7  2  0
 10  9  1  6
 10 12  1  0
 11 10  1  0
 12 13  1  6
 12 14  1  0
 13  7  1  0
 14 15  2  0
 14 21  1  0
 17 16  1  0
 18 17  2  0
 19 17  1  0
 20 19  1  1
 20 22  1  0
 21 20  1  0
 22 23  1  0
 24 22  2  0
M  END
$$$$
