NTN.pdb
     RDKit          3D

 24 23  0  0  1  0  0  0  0  0999 V2000
    9.2245  -15.9970   13.3365 N   0  0  0  0  0  0  0  0  0  0  0  0
    8.5603  -14.7605   13.5634 C   0  0  0  0  0  0  0  0  0  0  0  0
    8.2574  -14.0247   12.5822 O   0  0  0  0  0  0  0  0  0  0  0  0
    8.1901  -14.2658   14.9342 C   0  0  0  0  0  0  0  0  0  0  0  0
    8.7162  -15.2856   15.9010 C   0  0  2  0  0  0  0  0  0  0  0  0
    7.8629  -16.4370   15.8857 N   0  0  0  0  0  0  0  0  0  0  0  0
    8.9959  -14.7588   17.2604 C   0  0  0  0  0  0  0  0  0  0  0  0
    9.8553  -13.8441   17.3981 O   0  0  0  0  0  0  0  0  0  0  0  0
    6.9654  -13.0156   19.6577 C   0  0  0  0  0  0  0  0  0  0  0  0
    7.5162  -14.1423   20.5024 C   0  0  1  0  0  0  0  0  0  0  0  0
    6.4952  -15.0392   20.7803 O   0  0  0  0  0  0  0  0  0  0  0  0
    8.6611  -14.7558   19.7689 C   0  0  2  0  0  0  0  0  0  0  0  0
    8.3541  -15.2229   18.4413 N   0  0  0  0  0  0  0  0  0  0  0  0
    9.4116  -15.7791   20.5544 C   0  0  0  0  0  0  0  0  0  0  0  0
    9.5019  -16.9657   20.2154 O   0  0  0  0  0  0  0  0  0  0  0  0
   12.0636  -16.1122   26.0850 N   0  0  0  0  0  0  0  0  0  0  0  0
   12.2007  -16.2634   24.6843 C   0  0  0  0  0  0  0  0  0  0  0  0
   12.9964  -17.1125   24.2299 O   0  0  0  0  0  0  0  0  0  0  0  0
   11.4045  -15.4224   23.7751 C   0  0  0  0  0  0  0  0  0  0  0  0
   10.7975  -16.2225   22.6385 C   0  0  2  0  0  0  0  0  0  0  0  0
   10.0510  -15.3527   21.7435 N   0  0  0  0  0  0  0  0  0  0  0  0
    9.8617  -17.2120   23.2424 C   0  0  0  0  0  0  0  0  0  0  0  0
   10.2381  -18.5120   23.5216 O   0  0  0  0  0  0  0  0  0  0  0  0
    8.6945  -16.8609   23.5114 O   0  0  0  0  0  0  0  0  0  0  0  0
  2  1  1  0
  3  2  2  0
  4  2  1  0
  4  5  1  0
  5  6  1  1
  7  5  1  0
  8  7  2  0
 10  9  1  6
 10 12  1  0
 11 10  1  0
 12 13  1  6
 12 14  1  0
 13  7  1  0
 14 15  2  0
 14 21  1  0
 17 16  1  0
 18 17  2  0
 19 17  1  0
 20 19  1  1
 20 22  1  0
 21 20  1  0
 22 23  1  0
 24 22  2  0
M  END
$$$$
