NTN.pdb
     RDKit          3D

 24 23  0  0  1  0  0  0  0  0999 V2000
    6.7404  -14.9884   12.6399 N   0  0  0  0  0  0  0  0  0  0  0  0
    8.0578  -14.9406   13.1723 C   0  0  0  0  0  0  0  0  0  0  0  0
    9.0003  -15.5183   12.5607 O   0  0  0  0  0  0  0  0  0  0  0  0
    8.4025  -14.2275   14.4505 C   0  0  0  0  0  0  0  0  0  0  0  0
    8.6954  -15.2991   15.4592 C   0  0  2  0  0  0  0  0  0  0  0  0
    7.5319  -16.1182   15.6310 N   0  0  0  0  0  0  0  0  0  0  0  0
    9.2794  -14.8046   16.7311 C   0  0  0  0  0  0  0  0  0  0  0  0
   10.4229  -14.2695   16.7129 O   0  0  0  0  0  0  0  0  0  0  0  0
    7.6021  -12.7086   19.4455 C   0  0  0  0  0  0  0  0  0  0  0  0
    8.3108  -13.8144   20.1946 C   0  0  1  0  0  0  0  0  0  0  0  0
    7.3640  -14.6579   20.7569 O   0  0  0  0  0  0  0  0  0  0  0  0
    9.2297  -14.5048   19.2435 C   0  0  2  0  0  0  0  0  0  0  0  0
    8.6308  -14.8958   17.9931 N   0  0  0  0  0  0  0  0  0  0  0  0
   10.0140  -15.6190   19.8523 C   0  0  0  0  0  0  0  0  0  0  0  0
    9.8030  -16.8133   19.6069 O   0  0  0  0  0  0  0  0  0  0  0  0
   13.5902  -13.9461   19.8052 N   0  0  0  0  0  0  0  0  0  0  0  0
   13.8651  -14.8173   20.8864 C   0  0  0  0  0  0  0  0  0  0  0  0
   14.5721  -14.4186   21.8361 O   0  0  0  0  0  0  0  0  0  0  0  0
   13.3150  -16.1830   20.8852 C   0  0  0  0  0  0  0  0  0  0  0  0
   11.9035  -16.2328   21.4379 C   0  0  2  0  0  0  0  0  0  0  0  0
   11.0521  -15.2744   20.7513 N   0  0  0  0  0  0  0  0  0  0  0  0
   11.9782  -15.8664   22.8800 C   0  0  0  0  0  0  0  0  0  0  0  0
   11.3331  -14.7590   23.3968 O   0  0  0  0  0  0  0  0  0  0  0  0
   12.6434  -16.5824   23.6565 O   0  0  0  0  0  0  0  0  0  0  0  0
  2  1  1  0
  3  2  2  0
  4  2  1  0
  4  5  1  0
  5  6  1  1
  7  5  1  0
  8  7  2  0
 10  9  1  6
 10 12  1  0
 11 10  1  0
 12 13  1  6
 12 14  1  0
 13  7  1  0
 14 15  2  0
 14 21  1  0
 17 16  1  0
 18 17  2  0
 19 17  1  0
 20 19  1  6
 20 22  1  0
 21 20  1  0
 22 23  1  0
 24 22  2  0
M  END
$$$$
