NTN.pdb
     RDKit          3D

 24 23  0  0  1  0  0  0  0  0999 V2000
    7.0281  -20.8585   17.2808 N   0  0  0  0  0  0  0  0  0  0  0  0
    7.6685  -19.8836   16.4679 C   0  0  0  0  0  0  0  0  0  0  0  0
    7.3484  -19.7773   15.2504 O   0  0  0  0  0  0  0  0  0  0  0  0
    8.7296  -18.9515   16.9840 C   0  0  0  0  0  0  0  0  0  0  0  0
    8.0610  -17.6209   17.1681 C   0  0  2  0  0  0  0  0  0  0  0  0
    7.8156  -17.0326   15.8844 N   0  0  0  0  0  0  0  0  0  0  0  0
    8.7435  -16.7161   18.1269 C   0  0  0  0  0  0  0  0  0  0  0  0
    9.8916  -16.2749   17.8417 O   0  0  0  0  0  0  0  0  0  0  0  0
    7.3489  -13.6220   20.2242 C   0  0  0  0  0  0  0  0  0  0  0  0
    8.0112  -14.6085   21.1594 C   0  0  1  0  0  0  0  0  0  0  0  0
    7.0308  -15.2848   21.8705 O   0  0  0  0  0  0  0  0  0  0  0  0
    8.8806  -15.5076   20.3462 C   0  0  2  0  0  0  0  0  0  0  0  0
    8.1861  -16.3063   19.3691 N   0  0  0  0  0  0  0  0  0  0  0  0
    9.8347  -16.3258   21.1508 C   0  0  0  0  0  0  0  0  0  0  0  0
    9.7314  -17.5511   21.2896 O   0  0  0  0  0  0  0  0  0  0  0  0
   15.2610  -16.4454   23.1912 N   0  0  0  0  0  0  0  0  0  0  0  0
   14.0790  -15.9269   23.7723 C   0  0  0  0  0  0  0  0  0  0  0  0
   13.9229  -15.9850   25.0104 O   0  0  0  0  0  0  0  0  0  0  0  0
   13.0456  -15.3221   22.9155 C   0  0  0  0  0  0  0  0  0  0  0  0
   11.9257  -16.2937   22.5956 C   0  0  2  0  0  0  0  0  0  0  0  0
   10.9101  -15.6507   21.7771 N   0  0  0  0  0  0  0  0  0  0  0  0
   11.3133  -16.7068   23.8893 C   0  0  0  0  0  0  0  0  0  0  0  0
   11.6953  -17.8557   24.5556 O   0  0  0  0  0  0  0  0  0  0  0  0
   10.4243  -15.9933   24.3976 O   0  0  0  0  0  0  0  0  0  0  0  0
  2  1  1  0
  3  2  2  0
  4  2  1  0
  4  5  1  0
  5  6  1  6
  7  5  1  0
  8  7  2  0
 10  9  1  6
 10 12  1  0
 11 10  1  0
 12 13  1  1
 12 14  1  0
 13  7  1  0
 14 15  2  0
 14 21  1  0
 17 16  1  0
 18 17  2  0
 19 17  1  0
 20 19  1  1
 20 22  1  0
 21 20  1  0
 22 23  1  0
 24 22  2  0
M  END
$$$$
