NTN.pdb
     RDKit          3D

 24 23  0  0  1  0  0  0  0  0999 V2000
    8.2120  -16.8718   13.2102 N   0  0  0  0  0  0  0  0  0  0  0  0
    8.6030  -15.5122   13.0689 C   0  0  0  0  0  0  0  0  0  0  0  0
    8.5220  -14.9530   11.9390 O   0  0  0  0  0  0  0  0  0  0  0  0
    9.1201  -14.6826   14.2114 C   0  0  0  0  0  0  0  0  0  0  0  0
    9.2083  -15.6066   15.3904 C   0  0  2  0  0  0  0  0  0  0  0  0
    7.9424  -16.2507   15.5827 N   0  0  0  0  0  0  0  0  0  0  0  0
    9.7633  -14.9859   16.6193 C   0  0  0  0  0  0  0  0  0  0  0  0
   10.9483  -14.5501   16.6039 O   0  0  0  0  0  0  0  0  0  0  0  0
    7.9267  -12.5348   19.0770 C   0  0  0  0  0  0  0  0  0  0  0  0
    8.6215  -13.5809   19.9191 C   0  0  1  0  0  0  0  0  0  0  0  0
    7.6662  -14.4109   20.4871 O   0  0  0  0  0  0  0  0  0  0  0  0
    9.5949  -14.3046   19.0507 C   0  0  2  0  0  0  0  0  0  0  0  0
    9.0418  -14.8478   17.8367 N   0  0  0  0  0  0  0  0  0  0  0  0
   10.4302  -15.3077   19.7741 C   0  0  0  0  0  0  0  0  0  0  0  0
   10.4168  -16.5178   19.5157 O   0  0  0  0  0  0  0  0  0  0  0  0
   14.0768  -15.7670   19.5467 N   0  0  0  0  0  0  0  0  0  0  0  0
   14.3279  -14.8857   20.6256 C   0  0  0  0  0  0  0  0  0  0  0  0
   15.2593  -14.0573   20.5422 O   0  0  0  0  0  0  0  0  0  0  0  0
   13.4898  -14.9500   21.8345 C   0  0  0  0  0  0  0  0  0  0  0  0
   12.1775  -15.6683   21.5845 C   0  0  2  0  0  0  0  0  0  0  0  0
   11.2792  -14.8334   20.8031 N   0  0  0  0  0  0  0  0  0  0  0  0
   11.5571  -15.9343   22.9126 C   0  0  0  0  0  0  0  0  0  0  0  0
   12.0465  -16.8927   23.7796 O   0  0  0  0  0  0  0  0  0  0  0  0
   10.5605  -15.2696   23.2633 O   0  0  0  0  0  0  0  0  0  0  0  0
  2  1  1  0
  3  2  2  0
  4  2  1  0
  4  5  1  0
  5  6  1  1
  7  5  1  0
  8  7  2  0
 10  9  1  6
 10 12  1  0
 11 10  1  0
 12 13  1  6
 12 14  1  0
 13  7  1  0
 14 15  2  0
 14 21  1  0
 17 16  1  0
 18 17  2  0
 19 17  1  0
 20 19  1  1
 20 22  1  0
 21 20  1  0
 22 23  1  0
 24 22  2  0
M  END
$$$$
