NTN.pdb
     RDKit          3D

 24 23  0  0  1  0  0  0  0  0999 V2000
   11.1582  -19.6277   18.1554 N   0  0  0  0  0  0  0  0  0  0  0  0
   10.9876  -18.2199   18.0538 C   0  0  0  0  0  0  0  0  0  0  0  0
   10.6095  -17.7137   16.9598 O   0  0  0  0  0  0  0  0  0  0  0  0
   11.2378  -17.2769   19.1980 C   0  0  0  0  0  0  0  0  0  0  0  0
   10.2982  -17.6912   20.2920 C   0  0  2  0  0  0  0  0  0  0  0  0
    8.9867  -17.8770   19.7446 N   0  0  0  0  0  0  0  0  0  0  0  0
   10.3333  -16.8231   21.4956 C   0  0  0  0  0  0  0  0  0  0  0  0
   11.4506  -16.4420   21.9437 O   0  0  0  0  0  0  0  0  0  0  0  0
    7.9802  -13.7842   22.5089 C   0  0  0  0  0  0  0  0  0  0  0  0
    8.0501  -14.7496   23.6706 C   0  0  1  0  0  0  0  0  0  0  0  0
    6.8352  -15.4094   23.7832 O   0  0  0  0  0  0  0  0  0  0  0  0
    9.2043  -15.6670   23.4432 C   0  0  2  0  0  0  0  0  0  0  0  0
    9.1753  -16.3848   22.1947 N   0  0  0  0  0  0  0  0  0  0  0  0
    9.5015  -16.5708   24.5930 C   0  0  0  0  0  0  0  0  0  0  0  0
    9.5896  -17.8006   24.4869 O   0  0  0  0  0  0  0  0  0  0  0  0
   13.0431  -18.1678   28.5490 N   0  0  0  0  0  0  0  0  0  0  0  0
   11.7028  -18.2259   28.0974 C   0  0  0  0  0  0  0  0  0  0  0  0
   10.8635  -18.8928   28.7388 O   0  0  0  0  0  0  0  0  0  0  0  0
   11.3081  -17.4995   26.8790 C   0  0  0  0  0  0  0  0  0  0  0  0
   10.0330  -16.7019   27.0752 C   0  0  2  0  0  0  0  0  0  0  0  0
    9.6942  -15.9743   25.8625 N   0  0  0  0  0  0  0  0  0  0  0  0
   10.2851  -15.7242   28.1707 C   0  0  0  0  0  0  0  0  0  0  0  0
   10.1644  -14.3598   27.9875 O   0  0  0  0  0  0  0  0  0  0  0  0
   10.6150  -16.1451   29.2985 O   0  0  0  0  0  0  0  0  0  0  0  0
  2  1  1  0
  3  2  2  0
  4  2  1  0
  4  5  1  0
  5  6  1  6
  7  5  1  0
  8  7  2  0
 10  9  1  6
 10 12  1  0
 11 10  1  0
 12 13  1  6
 12 14  1  0
 13  7  1  0
 14 15  2  0
 14 21  1  0
 17 16  1  0
 18 17  2  0
 19 17  1  0
 20 19  1  6
 20 22  1  0
 21 20  1  0
 22 23  1  0
 24 22  2  0
M  END
$$$$
