NTN.pdb
     RDKit          3D

 24 23  0  0  1  0  0  0  0  0999 V2000
   15.7719  -15.0861   18.4902 N   0  0  0  0  0  0  0  0  0  0  0  0
   14.9805  -14.5397   17.4431 C   0  0  0  0  0  0  0  0  0  0  0  0
   15.5306  -14.1925   16.3602 O   0  0  0  0  0  0  0  0  0  0  0  0
   13.4935  -14.3454   17.5524 C   0  0  0  0  0  0  0  0  0  0  0  0
   13.0815  -14.9998   18.8383 C   0  0  2  0  0  0  0  0  0  0  0  0
   12.9999  -16.4173   18.6431 N   0  0  0  0  0  0  0  0  0  0  0  0
   11.8776  -14.4069   19.4729 C   0  0  0  0  0  0  0  0  0  0  0  0
   11.8461  -13.1623   19.6834 O   0  0  0  0  0  0  0  0  0  0  0  0
    7.5400  -13.3568   20.5363 C   0  0  0  0  0  0  0  0  0  0  0  0
    8.3996  -14.3516   19.7894 C   0  0  1  0  0  0  0  0  0  0  0  0
    8.6745  -13.8514   18.5252 O   0  0  0  0  0  0  0  0  0  0  0  0
    9.6226  -14.6116   20.6031 C   0  0  2  0  0  0  0  0  0  0  0  0
   10.7370  -15.1567   19.8710 N   0  0  0  0  0  0  0  0  0  0  0  0
    9.3675  -15.3678   21.8642 C   0  0  0  0  0  0  0  0  0  0  0  0
    9.8713  -16.4710   22.1100 O   0  0  0  0  0  0  0  0  0  0  0  0
    7.3627  -12.0816   25.5174 N   0  0  0  0  0  0  0  0  0  0  0  0
    7.9414  -13.3718   25.4534 C   0  0  0  0  0  0  0  0  0  0  0  0
    9.0899  -13.5567   25.9090 O   0  0  0  0  0  0  0  0  0  0  0  0
    7.1864  -14.4846   24.8538 C   0  0  0  0  0  0  0  0  0  0  0  0
    8.0768  -15.4157   24.0534 C   0  0  2  0  0  0  0  0  0  0  0  0
    8.5061  -14.7766   22.8198 N   0  0  0  0  0  0  0  0  0  0  0  0
    7.2694  -16.6218   23.7171 C   0  0  0  0  0  0  0  0  0  0  0  0
    6.9058  -17.5576   24.6668 O   0  0  0  0  0  0  0  0  0  0  0  0
    6.9019  -16.7991   22.5375 O   0  0  0  0  0  0  0  0  0  0  0  0
  2  1  1  0
  3  2  2  0
  4  2  1  0
  4  5  1  0
  5  6  1  6
  7  5  1  0
  8  7  2  0
 10  9  1  1
 10 12  1  0
 11 10  1  0
 12 13  1  6
 12 14  1  0
 13  7  1  0
 14 15  2  0
 14 21  1  0
 17 16  1  0
 18 17  2  0
 19 17  1  0
 20 19  1  6
 20 22  1  0
 21 20  1  0
 22 23  1  0
 24 22  2  0
M  END
$$$$
