LKN.pdb
     RDKit          3D

 26 25  0  0  1  0  0  0  0  0999 V2000
    7.9955  -12.0660   27.7738 C   0  0  0  0  0  0  0  0  0  0  0  0
    7.1293  -13.0608   27.0340 C   0  0  1  0  0  0  0  0  0  0  0  0
    6.0339  -12.2765   26.3354 C   0  0  0  0  0  0  0  0  0  0  0  0
    7.9562  -13.8108   25.9810 C   0  0  0  0  0  0  0  0  0  0  0  0
    7.0306  -14.8307   25.3712 C   0  0  2  0  0  0  0  0  0  0  0  0
    6.5713  -15.8115   26.2979 N   0  0  0  0  0  0  0  0  0  0  0  0
    7.5960  -15.4792   24.1761 C   0  0  0  0  0  0  0  0  0  0  0  0
    7.6043  -16.7326   24.1221 O   0  0  0  0  0  0  0  0  0  0  0  0
    8.1371  -14.7695   23.0712 N   0  0  0  0  0  0  0  0  0  0  0  0
    8.6781  -15.3738   21.8937 C   0  0  1  0  0  0  0  0  0  0  0  0
    8.8935  -14.3362   20.7800 C   0  0  0  0  0  0  0  0  0  0  0  0
    7.6599  -14.2692   19.8930 C   0  0  0  0  0  0  0  0  0  0  0  0
    7.9745  -13.6333   18.5724 C   0  0  0  0  0  0  0  0  0  0  0  0
    6.7548  -13.5457   17.6791 C   0  0  0  0  0  0  0  0  0  0  0  0
    7.1456  -13.0689   16.3514 N   0  0  0  0  0  0  0  0  0  0  0  0
   10.0077  -15.9903   22.1252 C   0  0  0  0  0  0  0  0  0  0  0  0
   10.5549  -16.6714   21.2287 O   0  0  0  0  0  0  0  0  0  0  0  0
   14.8556  -16.5262   23.0155 N   0  0  0  0  0  0  0  0  0  0  0  0
   14.3390  -15.7054   24.0710 C   0  0  0  0  0  0  0  0  0  0  0  0
   15.0579  -15.4365   25.0487 O   0  0  0  0  0  0  0  0  0  0  0  0
   12.9649  -15.2122   23.9487 C   0  0  0  0  0  0  0  0  0  0  0  0
   12.0333  -16.3148   23.5964 C   0  0  2  0  0  0  0  0  0  0  0  0
   10.6990  -15.8303   23.3612 N   0  0  0  0  0  0  0  0  0  0  0  0
   11.9921  -17.3590   24.6630 C   0  0  0  0  0  0  0  0  0  0  0  0
   13.0508  -17.9010   25.0480 O   0  0  0  0  0  0  0  0  0  0  0  0
   10.7884  -17.7254   25.2231 O   0  0  0  0  0  0  0  0  0  0  0  0
  2  1  1  6
  3  2  1  0
  4  2  1  0
  5  7  1  0
  5  4  1  0
  5  6  1  1
  7  8  2  0
  9 10  1  0
  9  7  1  0
 10 11  1  6
 12 13  1  0
 12 11  1  0
 13 14  1  0
 14 15  1  0
 16 10  1  0
 17 16  2  0
 19 18  1  0
 19 20  2  0
 21 19  1  0
 22 21  1  1
 22 23  1  0
 23 16  1  0
 24 22  1  0
 24 26  1  0
 25 24  2  0
M  END
$$$$
