LKN.pdb
     RDKit          3D

 26 25  0  0  1  0  0  0  0  0999 V2000
    6.7524  -12.2860   19.4811 C   0  0  0  0  0  0  0  0  0  0  0  0
    7.7948  -13.3595   19.2619 C   0  0  1  0  0  0  0  0  0  0  0  0
    9.1122  -12.6612   18.9792 C   0  0  0  0  0  0  0  0  0  0  0  0
    7.9470  -14.2225   20.5218 C   0  0  0  0  0  0  0  0  0  0  0  0
    9.0240  -15.2288   20.2118 C   0  0  2  0  0  0  0  0  0  0  0  0
    8.8105  -15.9368   18.9932 N   0  0  0  0  0  0  0  0  0  0  0  0
    9.2663  -16.1713   21.3169 C   0  0  0  0  0  0  0  0  0  0  0  0
    9.3892  -15.7135   22.4785 O   0  0  0  0  0  0  0  0  0  0  0  0
    9.3705  -17.5779   21.1496 N   0  0  0  0  0  0  0  0  0  0  0  0
    9.6352  -18.5114   22.1999 C   0  0  1  0  0  0  0  0  0  0  0  0
    9.1723  -19.9274   21.8205 C   0  0  0  0  0  0  0  0  0  0  0  0
    7.6579  -20.0198   21.9263 C   0  0  0  0  0  0  0  0  0  0  0  0
    7.2458  -21.0571   22.9271 C   0  0  0  0  0  0  0  0  0  0  0  0
    5.7555  -21.3236   22.8882 C   0  0  0  0  0  0  0  0  0  0  0  0
    5.4081  -22.3441   23.8784 N   0  0  0  0  0  0  0  0  0  0  0  0
   11.0818  -18.6346   22.5059 C   0  0  0  0  0  0  0  0  0  0  0  0
   11.8746  -19.0849   21.6481 O   0  0  0  0  0  0  0  0  0  0  0  0
   14.6663  -16.9236   22.3772 N   0  0  0  0  0  0  0  0  0  0  0  0
   13.9149  -16.4103   23.4847 C   0  0  0  0  0  0  0  0  0  0  0  0
   13.4953  -15.2407   23.4537 O   0  0  0  0  0  0  0  0  0  0  0  0
   13.6708  -17.3010   24.6219 C   0  0  0  0  0  0  0  0  0  0  0  0
   12.9591  -18.5320   24.1904 C   0  0  2  0  0  0  0  0  0  0  0  0
   11.6120  -18.2493   23.7714 N   0  0  0  0  0  0  0  0  0  0  0  0
   12.9273  -19.5557   25.2769 C   0  0  0  0  0  0  0  0  0  0  0  0
   13.9708  -20.1706   25.5868 O   0  0  0  0  0  0  0  0  0  0  0  0
   11.7491  -19.8232   25.9380 O   0  0  0  0  0  0  0  0  0  0  0  0
  2  1  1  1
  3  2  1  0
  4  2  1  0
  5  7  1  0
  5  4  1  0
  5  6  1  6
  7  8  2  0
  9 10  1  0
  9  7  1  0
 10 11  1  6
 12 13  1  0
 12 11  1  0
 13 14  1  0
 14 15  1  0
 16 10  1  0
 17 16  2  0
 19 18  1  0
 19 20  2  0
 21 19  1  0
 22 21  1  1
 22 23  1  0
 23 16  1  0
 24 22  1  0
 24 26  1  0
 25 24  2  0
M  END
$$$$
