LKN.pdb
     RDKit          3D

 26 25  0  0  1  0  0  0  0  0999 V2000
    6.8128  -11.7964   27.2672 C   0  0  0  0  0  0  0  0  0  0  0  0
    6.2890  -12.8656   26.3347 C   0  0  1  0  0  0  0  0  0  0  0  0
    5.9565  -12.1931   25.0154 C   0  0  0  0  0  0  0  0  0  0  0  0
    7.3610  -13.9369   26.0933 C   0  0  0  0  0  0  0  0  0  0  0  0
    6.7180  -14.9826   25.2204 C   0  0  2  0  0  0  0  0  0  0  0  0
    5.6762  -15.7068   25.8698 N   0  0  0  0  0  0  0  0  0  0  0  0
    7.6920  -15.9108   24.6220 C   0  0  0  0  0  0  0  0  0  0  0  0
    8.0842  -16.8886   25.3031 O   0  0  0  0  0  0  0  0  0  0  0  0
    8.2199  -15.7680   23.3112 N   0  0  0  0  0  0  0  0  0  0  0  0
    9.2364  -16.5968   22.7416 C   0  0  1  0  0  0  0  0  0  0  0  0
    9.4272  -16.3006   21.2452 C   0  0  0  0  0  0  0  0  0  0  0  0
    8.2169  -16.7903   20.4650 C   0  0  0  0  0  0  0  0  0  0  0  0
    8.3918  -16.5643   18.9933 C   0  0  0  0  0  0  0  0  0  0  0  0
    7.2425  -17.1366   18.1902 C   0  0  0  0  0  0  0  0  0  0  0  0
    7.3472  -16.7029   16.7960 N   0  0  0  0  0  0  0  0  0  0  0  0
   10.5665  -16.3806   23.3624 C   0  0  0  0  0  0  0  0  0  0  0  0
   10.8155  -15.3161   23.9724 O   0  0  0  0  0  0  0  0  0  0  0  0
   11.8456  -20.1511   27.1671 N   0  0  0  0  0  0  0  0  0  0  0  0
   12.2462  -18.8950   26.6046 C   0  0  0  0  0  0  0  0  0  0  0  0
   13.2347  -18.3009   27.0684 O   0  0  0  0  0  0  0  0  0  0  0  0
   11.4606  -18.3587   25.4904 C   0  0  0  0  0  0  0  0  0  0  0  0
   12.3463  -17.8214   24.4251 C   0  0  2  0  0  0  0  0  0  0  0  0
   11.5940  -17.3653   23.2865 N   0  0  0  0  0  0  0  0  0  0  0  0
   13.3423  -18.8391   23.9757 C   0  0  0  0  0  0  0  0  0  0  0  0
   13.0229  -19.6889   23.1163 O   0  0  0  0  0  0  0  0  0  0  0  0
   14.6127  -18.8423   24.5075 O   0  0  0  0  0  0  0  0  0  0  0  0
  2  1  1  1
  3  2  1  0
  4  2  1  0
  5  7  1  0
  5  4  1  0
  5  6  1  1
  7  8  2  0
  9 10  1  0
  9  7  1  0
 10 11  1  6
 12 13  1  0
 12 11  1  0
 13 14  1  0
 14 15  1  0
 16 10  1  0
 17 16  2  0
 19 18  1  0
 19 20  2  0
 21 19  1  0
 22 21  1  1
 22 23  1  0
 23 16  1  0
 24 22  1  0
 24 26  1  0
 25 24  2  0
M  END
$$$$
