LKN.pdb
     RDKit          3D

 26 25  0  0  1  0  0  0  0  0999 V2000
    5.6819  -11.9982   26.4233 C   0  0  0  0  0  0  0  0  0  0  0  0
    6.5842  -12.6005   25.3696 C   0  0  1  0  0  0  0  0  0  0  0  0
    7.1386  -11.4569   24.5402 C   0  0  0  0  0  0  0  0  0  0  0  0
    7.7496  -13.3507   26.0286 C   0  0  0  0  0  0  0  0  0  0  0  0
    8.1490  -14.4346   25.0620 C   0  0  2  0  0  0  0  0  0  0  0  0
    7.6443  -14.2385   23.7434 N   0  0  0  0  0  0  0  0  0  0  0  0
    7.8159  -15.7859   25.5430 C   0  0  0  0  0  0  0  0  0  0  0  0
    7.8513  -16.0081   26.7772 O   0  0  0  0  0  0  0  0  0  0  0  0
    7.4538  -16.8629   24.6907 N   0  0  0  0  0  0  0  0  0  0  0  0
    7.3160  -18.2249   25.1036 C   0  0  1  0  0  0  0  0  0  0  0  0
    6.7335  -19.0952   23.9781 C   0  0  0  0  0  0  0  0  0  0  0  0
    6.4214  -20.4851   24.5109 C   0  0  0  0  0  0  0  0  0  0  0  0
    5.8549  -21.3639   23.4366 C   0  0  0  0  0  0  0  0  0  0  0  0
    5.5337  -22.7523   23.9491 C   0  0  0  0  0  0  0  0  0  0  0  0
    5.1318  -23.6117   22.8343 N   0  0  0  0  0  0  0  0  0  0  0  0
    8.6138  -18.8502   25.4585 C   0  0  0  0  0  0  0  0  0  0  0  0
    9.6015  -18.7348   24.6980 O   0  0  0  0  0  0  0  0  0  0  0  0
   12.0304  -18.0190   29.6768 N   0  0  0  0  0  0  0  0  0  0  0  0
   11.9222  -18.6280   28.3836 C   0  0  0  0  0  0  0  0  0  0  0  0
   12.8758  -19.2847   27.9315 O   0  0  0  0  0  0  0  0  0  0  0  0
   10.6727  -18.4464   27.6404 C   0  0  0  0  0  0  0  0  0  0  0  0
   10.0416  -19.7560   27.3330 C   0  0  2  0  0  0  0  0  0  0  0  0
    8.7787  -19.5945   26.6626 N   0  0  0  0  0  0  0  0  0  0  0  0
    9.8374  -20.5693   28.5685 C   0  0  0  0  0  0  0  0  0  0  0  0
    8.7077  -20.6237   29.1011 O   0  0  0  0  0  0  0  0  0  0  0  0
   10.8929  -21.2594   29.1220 O   0  0  0  0  0  0  0  0  0  0  0  0
  2  1  1  1
  3  2  1  0
  4  2  1  0
  5  7  1  0
  5  4  1  0
  5  6  1  6
  7  8  2  0
  9 10  1  0
  9  7  1  0
 10 11  1  6
 12 13  1  0
 12 11  1  0
 13 14  1  0
 14 15  1  0
 16 10  1  0
 17 16  2  0
 19 18  1  0
 19 20  2  0
 21 19  1  0
 22 21  1  1
 22 23  1  0
 23 16  1  0
 24 22  1  0
 24 26  1  0
 25 24  2  0
M  END
$$$$
