LKN.pdb
     RDKit          3D

 26 25  0  0  1  0  0  0  0  0999 V2000
    7.3317  -12.2886   18.8504 C   0  0  0  0  0  0  0  0  0  0  0  0
    8.0021  -13.5137   19.4307 C   0  0  1  0  0  0  0  0  0  0  0  0
    9.4290  -13.1290   19.7757 C   0  0  0  0  0  0  0  0  0  0  0  0
    7.2822  -13.9620   20.7098 C   0  0  0  0  0  0  0  0  0  0  0  0
    8.0063  -15.1934   21.1874 C   0  0  2  0  0  0  0  0  0  0  0  0
    8.1802  -16.1822   20.1755 N   0  0  0  0  0  0  0  0  0  0  0  0
    7.3973  -15.7898   22.3881 C   0  0  0  0  0  0  0  0  0  0  0  0
    7.1512  -15.0455   23.3675 O   0  0  0  0  0  0  0  0  0  0  0  0
    7.0678  -17.1661   22.5084 N   0  0  0  0  0  0  0  0  0  0  0  0
    6.4846  -17.7717   23.6650 C   0  0  1  0  0  0  0  0  0  0  0  0
    5.4998  -18.8866   23.2770 C   0  0  0  0  0  0  0  0  0  0  0  0
    4.5104  -18.3642   22.2468 C   0  0  0  0  0  0  0  0  0  0  0  0
    3.6004  -19.4543   21.7663 C   0  0  0  0  0  0  0  0  0  0  0  0
    2.5719  -18.9421   20.7798 C   0  0  0  0  0  0  0  0  0  0  0  0
    1.7581  -20.0554   20.2888 N   0  0  0  0  0  0  0  0  0  0  0  0
    7.4913  -18.4181   24.5426 C   0  0  0  0  0  0  0  0  0  0  0  0
    7.1565  -18.8816   25.6563 O   0  0  0  0  0  0  0  0  0  0  0  0
   12.5575  -18.4316   24.4333 N   0  0  0  0  0  0  0  0  0  0  0  0
   11.9789  -17.1339   24.6221 C   0  0  0  0  0  0  0  0  0  0  0  0
   12.6742  -16.1189   24.4446 O   0  0  0  0  0  0  0  0  0  0  0  0
   10.5715  -17.0601   25.0222 C   0  0  0  0  0  0  0  0  0  0  0  0
    9.9601  -18.4136   25.0692 C   0  0  2  0  0  0  0  0  0  0  0  0
    8.8573  -18.5322   24.1527 N   0  0  0  0  0  0  0  0  0  0  0  0
    9.4900  -18.7549   26.4447 C   0  0  0  0  0  0  0  0  0  0  0  0
   10.3197  -18.9242   27.3645 O   0  0  0  0  0  0  0  0  0  0  0  0
    8.1430  -18.8834   26.7010 O   0  0  0  0  0  0  0  0  0  0  0  0
  2  1  1  1
  3  2  1  0
  4  2  1  0
  5  7  1  0
  5  4  1  0
  5  6  1  6
  7  8  2  0
  9 10  1  0
  9  7  1  0
 10 11  1  6
 12 13  1  0
 12 11  1  0
 13 14  1  0
 14 15  1  0
 16 10  1  0
 17 16  2  0
 19 18  1  0
 19 20  2  0
 21 19  1  0
 22 21  1  1
 22 23  1  0
 23 16  1  0
 24 22  1  0
 24 26  1  0
 25 24  2  0
M  END
$$$$
