LKN.pdb
     RDKit          3D

 26 25  0  0  1  0  0  0  0  0999 V2000
    7.3653  -11.5509   27.4909 C   0  0  0  0  0  0  0  0  0  0  0  0
    6.6377  -12.7419   26.9084 C   0  0  1  0  0  0  0  0  0  0  0  0
    5.7425  -12.2268   25.7964 C   0  0  0  0  0  0  0  0  0  0  0  0
    7.6390  -13.7449   26.3196 C   0  0  0  0  0  0  0  0  0  0  0  0
    6.8157  -14.8122   25.6475 C   0  0  2  0  0  0  0  0  0  0  0  0
    6.0449  -15.5953   26.5555 N   0  0  0  0  0  0  0  0  0  0  0  0
    7.6113  -15.6833   24.7664 C   0  0  0  0  0  0  0  0  0  0  0  0
    8.3119  -16.5837   25.2882 O   0  0  0  0  0  0  0  0  0  0  0  0
    7.6359  -15.5677   23.3510 N   0  0  0  0  0  0  0  0  0  0  0  0
    8.2869  -16.4815   22.4646 C   0  0  1  0  0  0  0  0  0  0  0  0
    7.8648  -16.2435   21.0057 C   0  0  0  0  0  0  0  0  0  0  0  0
    8.5458  -17.2584   20.1005 C   0  0  0  0  0  0  0  0  0  0  0  0
    8.0903  -17.1107   18.6799 C   0  0  0  0  0  0  0  0  0  0  0  0
    8.7871  -18.0871   17.7555 C   0  0  0  0  0  0  0  0  0  0  0  0
    8.1831  -18.0264   16.4235 N   0  0  0  0  0  0  0  0  0  0  0  0
    9.7638  -16.3403   22.4794 C   0  0  0  0  0  0  0  0  0  0  0  0
   10.2992  -15.2520   22.1693 O   0  0  0  0  0  0  0  0  0  0  0  0
   14.6419  -14.9547   23.4797 N   0  0  0  0  0  0  0  0  0  0  0  0
   13.9541  -16.1580   23.8452 C   0  0  0  0  0  0  0  0  0  0  0  0
   14.6024  -17.1376   24.2516 O   0  0  0  0  0  0  0  0  0  0  0  0
   12.4944  -16.1803   23.7217 C   0  0  0  0  0  0  0  0  0  0  0  0
   12.0481  -17.3312   22.8946 C   0  0  2  0  0  0  0  0  0  0  0  0
   10.6133  -17.4254   22.8427 N   0  0  0  0  0  0  0  0  0  0  0  0
   12.6033  -18.6202   23.4045 C   0  0  0  0  0  0  0  0  0  0  0  0
   13.2686  -19.3578   22.6453 O   0  0  0  0  0  0  0  0  0  0  0  0
   12.3831  -18.9971   24.7107 O   0  0  0  0  0  0  0  0  0  0  0  0
  2  1  1  6
  3  2  1  0
  4  2  1  0
  5  7  1  0
  5  4  1  0
  5  6  1  1
  7  8  2  0
  9 10  1  0
  9  7  1  0
 10 11  1  6
 12 13  1  0
 12 11  1  0
 13 14  1  0
 14 15  1  0
 16 10  1  0
 17 16  2  0
 19 18  1  0
 19 20  2  0
 21 19  1  0
 22 21  1  1
 22 23  1  0
 23 16  1  0
 24 22  1  0
 24 26  1  0
 25 24  2  0
M  END
$$$$
