LKN.pdb
     RDKit          3D

 26 25  0  0  1  0  0  0  0  0999 V2000
    6.9176  -12.0748   18.7278 C   0  0  0  0  0  0  0  0  0  0  0  0
    7.5959  -13.4137   18.9131 C   0  0  1  0  0  0  0  0  0  0  0  0
    8.6864  -13.5185   17.8629 C   0  0  0  0  0  0  0  0  0  0  0  0
    8.2336  -13.5020   20.3062 C   0  0  0  0  0  0  0  0  0  0  0  0
    8.7825  -14.8995   20.4270 C   0  0  2  0  0  0  0  0  0  0  0  0
    7.8615  -15.9113   20.0274 N   0  0  0  0  0  0  0  0  0  0  0  0
    9.3182  -15.1935   21.7667 C   0  0  0  0  0  0  0  0  0  0  0  0
   10.2064  -14.4413   22.2350 O   0  0  0  0  0  0  0  0  0  0  0  0
    8.8893  -16.2841   22.5692 N   0  0  0  0  0  0  0  0  0  0  0  0
    9.4168  -16.6120   23.8571 C   0  0  1  0  0  0  0  0  0  0  0  0
    8.5133  -17.6143   24.5938 C   0  0  0  0  0  0  0  0  0  0  0  0
    9.0778  -17.8957   25.9777 C   0  0  0  0  0  0  0  0  0  0  0  0
    8.2126  -18.8607   26.7311 C   0  0  0  0  0  0  0  0  0  0  0  0
    8.7131  -19.0907   28.1418 C   0  0  0  0  0  0  0  0  0  0  0  0
    7.7973  -19.9837   28.8536 N   0  0  0  0  0  0  0  0  0  0  0  0
   10.7500  -17.2587   23.7826 C   0  0  0  0  0  0  0  0  0  0  0  0
   10.8869  -18.3639   23.2108 O   0  0  0  0  0  0  0  0  0  0  0  0
   13.9904  -14.7913   21.8488 N   0  0  0  0  0  0  0  0  0  0  0  0
   14.0140  -16.1385   22.3380 C   0  0  0  0  0  0  0  0  0  0  0  0
   13.8475  -17.0828   21.5469 O   0  0  0  0  0  0  0  0  0  0  0  0
   14.2369  -16.3460   23.7710 C   0  0  0  0  0  0  0  0  0  0  0  0
   13.2116  -17.2573   24.3423 C   0  0  2  0  0  0  0  0  0  0  0  0
   11.9066  -16.6514   24.3524 N   0  0  0  0  0  0  0  0  0  0  0  0
   13.5650  -17.6776   25.7308 C   0  0  0  0  0  0  0  0  0  0  0  0
   14.6545  -18.2493   25.9524 O   0  0  0  0  0  0  0  0  0  0  0  0
   12.6915  -17.4358   26.7678 O   0  0  0  0  0  0  0  0  0  0  0  0
  2  1  1  1
  3  2  1  0
  4  2  1  0
  5  7  1  0
  5  4  1  0
  5  6  1  1
  7  8  2  0
  9 10  1  0
  9  7  1  0
 10 11  1  6
 12 13  1  0
 12 11  1  0
 13 14  1  0
 14 15  1  0
 16 10  1  0
 17 16  2  0
 19 18  1  0
 19 20  2  0
 21 19  1  0
 22 21  1  1
 22 23  1  0
 23 16  1  0
 24 22  1  0
 24 26  1  0
 25 24  2  0
M  END
$$$$
