LKN.pdb
     RDKit          3D

 26 25  0  0  1  0  0  0  0  0999 V2000
    6.7873  -12.8773   19.0783 C   0  0  0  0  0  0  0  0  0  0  0  0
    8.1043  -13.5436   19.4076 C   0  0  1  0  0  0  0  0  0  0  0  0
    9.2093  -12.5719   19.0360 C   0  0  0  0  0  0  0  0  0  0  0  0
    8.1897  -13.8468   20.9096 C   0  0  0  0  0  0  0  0  0  0  0  0
    9.5327  -14.4921   21.1302 C   0  0  2  0  0  0  0  0  0  0  0  0
   10.0506  -15.1432   19.9728 N   0  0  0  0  0  0  0  0  0  0  0  0
    9.5490  -15.4070   22.2839 C   0  0  0  0  0  0  0  0  0  0  0  0
    8.9373  -15.0684   23.3256 O   0  0  0  0  0  0  0  0  0  0  0  0
   10.2189  -16.6594   22.2920 N   0  0  0  0  0  0  0  0  0  0  0  0
   10.3260  -17.5249   23.4251 C   0  0  1  0  0  0  0  0  0  0  0  0
   10.9599  -18.8722   23.0428 C   0  0  0  0  0  0  0  0  0  0  0  0
   10.9583  -19.8020   24.2464 C   0  0  0  0  0  0  0  0  0  0  0  0
   11.5779  -21.1253   23.9111 C   0  0  0  0  0  0  0  0  0  0  0  0
   11.5464  -22.0812   25.0853 C   0  0  0  0  0  0  0  0  0  0  0  0
   12.3331  -23.2757   24.7737 N   0  0  0  0  0  0  0  0  0  0  0  0
   11.1920  -16.9667   24.4927 C   0  0  0  0  0  0  0  0  0  0  0  0
   11.9854  -16.0317   24.2407 O   0  0  0  0  0  0  0  0  0  0  0  0
   10.4603  -13.4574   28.1461 N   0  0  0  0  0  0  0  0  0  0  0  0
   10.0793  -14.8376   28.2122 C   0  0  0  0  0  0  0  0  0  0  0  0
    9.7491  -15.3327   29.3036 O   0  0  0  0  0  0  0  0  0  0  0  0
   10.0961  -15.6159   26.9711 C   0  0  0  0  0  0  0  0  0  0  0  0
   11.1805  -16.6315   26.9948 C   0  0  2  0  0  0  0  0  0  0  0  0
   11.1510  -17.4696   25.8256 N   0  0  0  0  0  0  0  0  0  0  0  0
   11.0995  -17.4910   28.2131 C   0  0  0  0  0  0  0  0  0  0  0  0
   10.2970  -18.4489   28.2499 O   0  0  0  0  0  0  0  0  0  0  0  0
   11.9084  -17.2292   29.2966 O   0  0  0  0  0  0  0  0  0  0  0  0
  2  1  1  1
  3  2  1  0
  4  2  1  0
  5  7  1  0
  5  4  1  0
  5  6  1  6
  7  8  2  0
  9 10  1  0
  9  7  1  0
 10 11  1  6
 12 13  1  0
 12 11  1  0
 13 14  1  0
 14 15  1  0
 16 10  1  0
 17 16  2  0
 19 18  1  0
 19 20  2  0
 21 19  1  0
 22 21  1  6
 22 23  1  0
 23 16  1  0
 24 22  1  0
 24 26  1  0
 25 24  2  0
M  END
$$$$
