LKN.pdb
     RDKit          3D

 26 25  0  0  1  0  0  0  0  0999 V2000
    7.5609  -12.0987   28.0206 C   0  0  0  0  0  0  0  0  0  0  0  0
    6.7208  -13.1281   27.2983 C   0  0  1  0  0  0  0  0  0  0  0  0
    5.5346  -12.4008   26.6923 C   0  0  0  0  0  0  0  0  0  0  0  0
    7.5313  -13.7862   26.1735 C   0  0  0  0  0  0  0  0  0  0  0  0
    6.6424  -14.8503   25.5850 C   0  0  2  0  0  0  0  0  0  0  0  0
    6.3437  -15.9099   26.4904 N   0  0  0  0  0  0  0  0  0  0  0  0
    7.1548  -15.3903   24.3145 C   0  0  0  0  0  0  0  0  0  0  0  0
    7.6355  -16.5491   24.3067 O   0  0  0  0  0  0  0  0  0  0  0  0
    7.1391  -14.6762   23.0869 N   0  0  0  0  0  0  0  0  0  0  0  0
    7.8982  -15.0239   21.9261 C   0  0  1  0  0  0  0  0  0  0  0  0
    7.6862  -14.0069   20.7929 C   0  0  0  0  0  0  0  0  0  0  0  0
    8.3151  -14.5272   19.5096 C   0  0  0  0  0  0  0  0  0  0  0  0
    7.9891  -13.6395   18.3464 C   0  0  0  0  0  0  0  0  0  0  0  0
    8.4383  -14.2396   17.0305 C   0  0  0  0  0  0  0  0  0  0  0  0
    8.1308  -13.3189   15.9348 N   0  0  0  0  0  0  0  0  0  0  0  0
    9.3600  -15.0370   22.1801 C   0  0  0  0  0  0  0  0  0  0  0  0
    9.8769  -14.1954   22.9493 O   0  0  0  0  0  0  0  0  0  0  0  0
   13.5674  -17.7180   24.5344 N   0  0  0  0  0  0  0  0  0  0  0  0
   13.2253  -16.6560   23.6343 C   0  0  0  0  0  0  0  0  0  0  0  0
   14.1252  -15.9563   23.1387 O   0  0  0  0  0  0  0  0  0  0  0  0
   11.8079  -16.4391   23.3339 C   0  0  0  0  0  0  0  0  0  0  0  0
   11.6088  -16.1467   21.8906 C   0  0  2  0  0  0  0  0  0  0  0  0
   10.2155  -15.9965   21.5647 N   0  0  0  0  0  0  0  0  0  0  0  0
   12.1989  -17.2141   21.0290 C   0  0  0  0  0  0  0  0  0  0  0  0
   11.5248  -18.2259   20.7381 O   0  0  0  0  0  0  0  0  0  0  0  0
   13.4853  -17.0846   20.5547 O   0  0  0  0  0  0  0  0  0  0  0  0
  2  1  1  6
  3  2  1  0
  4  2  1  0
  5  7  1  0
  5  4  1  0
  5  6  1  1
  7  8  2  0
  9 10  1  0
  9  7  1  0
 10 11  1  6
 12 13  1  0
 12 11  1  0
 13 14  1  0
 14 15  1  0
 16 10  1  0
 17 16  2  0
 19 18  1  0
 19 20  2  0
 21 19  1  0
 22 21  1  1
 22 23  1  0
 23 16  1  0
 24 22  1  0
 24 26  1  0
 25 24  2  0
M  END
$$$$
