LKN.pdb
     RDKit          3D

 26 25  0  0  1  0  0  0  0  0999 V2000
    7.9213  -11.7852   20.3071 C   0  0  0  0  0  0  0  0  0  0  0  0
    7.4901  -13.2261   20.1484 C   0  0  1  0  0  0  0  0  0  0  0  0
    7.4685  -13.5317   18.6620 C   0  0  0  0  0  0  0  0  0  0  0  0
    8.4917  -14.1631   20.8368 C   0  0  0  0  0  0  0  0  0  0  0  0
    7.8762  -15.5372   20.7942 C   0  0  2  0  0  0  0  0  0  0  0  0
    6.5588  -15.5899   21.3359 N   0  0  0  0  0  0  0  0  0  0  0  0
    8.7266  -16.5681   21.4125 C   0  0  0  0  0  0  0  0  0  0  0  0
    8.7625  -16.6433   22.6643 O   0  0  0  0  0  0  0  0  0  0  0  0
    9.5154  -17.4908   20.6751 N   0  0  0  0  0  0  0  0  0  0  0  0
   10.4233  -18.4351   21.2481 C   0  0  1  0  0  0  0  0  0  0  0  0
   10.5261  -19.7057   20.3888 C   0  0  0  0  0  0  0  0  0  0  0  0
    9.2033  -20.4558   20.4184 C   0  0  0  0  0  0  0  0  0  0  0  0
    9.2746  -21.7145   19.6073 C   0  0  0  0  0  0  0  0  0  0  0  0
    7.9757  -22.4920   19.6498 C   0  0  0  0  0  0  0  0  0  0  0  0
    8.0998  -23.7093   18.8463 N   0  0  0  0  0  0  0  0  0  0  0  0
   11.8075  -17.9106   21.3494 C   0  0  0  0  0  0  0  0  0  0  0  0
   12.1599  -16.9180   20.6727 O   0  0  0  0  0  0  0  0  0  0  0  0
   15.7883  -15.1347   23.9216 N   0  0  0  0  0  0  0  0  0  0  0  0
   15.5460  -16.1580   22.9474 C   0  0  0  0  0  0  0  0  0  0  0  0
   16.4980  -16.6322   22.3041 O   0  0  0  0  0  0  0  0  0  0  0  0
   14.1654  -16.6066   22.7502 C   0  0  0  0  0  0  0  0  0  0  0  0
   14.1230  -18.0361   22.3470 C   0  0  2  0  0  0  0  0  0  0  0  0
   12.7718  -18.5112   22.2099 N   0  0  0  0  0  0  0  0  0  0  0  0
   14.8478  -18.9025   23.3237 C   0  0  0  0  0  0  0  0  0  0  0  0
   15.9781  -19.3545   23.0391 O   0  0  0  0  0  0  0  0  0  0  0  0
   14.2719  -19.2039   24.5378 O   0  0  0  0  0  0  0  0  0  0  0  0
  2  1  1  6
  3  2  1  0
  4  2  1  0
  5  7  1  0
  5  4  1  0
  5  6  1  1
  7  8  2  0
  9 10  1  0
  9  7  1  0
 10 11  1  6
 12 13  1  0
 12 11  1  0
 13 14  1  0
 14 15  1  0
 16 10  1  0
 17 16  2  0
 19 18  1  0
 19 20  2  0
 21 19  1  0
 22 21  1  1
 22 23  1  0
 23 16  1  0
 24 22  1  0
 24 26  1  0
 25 24  2  0
M  END
$$$$
