LKN.pdb
     RDKit          3D

 26 25  0  0  1  0  0  0  0  0999 V2000
    5.9972  -11.4916   26.2144 C   0  0  0  0  0  0  0  0  0  0  0  0
    6.9780  -12.6214   26.4349 C   0  0  1  0  0  0  0  0  0  0  0  0
    7.5466  -12.4617   27.8329 C   0  0  0  0  0  0  0  0  0  0  0  0
    6.2639  -13.9763   26.3377 C   0  0  0  0  0  0  0  0  0  0  0  0
    7.3254  -14.9839   25.9817 C   0  0  2  0  0  0  0  0  0  0  0  0
    8.6395  -14.5901   26.3689 N   0  0  0  0  0  0  0  0  0  0  0  0
    7.3025  -15.3659   24.5597 C   0  0  0  0  0  0  0  0  0  0  0  0
    6.6247  -16.3649   24.2187 O   0  0  0  0  0  0  0  0  0  0  0  0
    8.0053  -14.6688   23.5411 N   0  0  0  0  0  0  0  0  0  0  0  0
    8.1642  -15.1247   22.1952 C   0  0  1  0  0  0  0  0  0  0  0  0
    8.1019  -13.9569   21.1973 C   0  0  0  0  0  0  0  0  0  0  0  0
    8.2677  -14.4818   19.7795 C   0  0  0  0  0  0  0  0  0  0  0  0
    8.3243  -13.3589   18.7880 C   0  0  0  0  0  0  0  0  0  0  0  0
    8.5084  -13.8608   17.3711 C   0  0  0  0  0  0  0  0  0  0  0  0
    8.7124  -12.7284   16.4662 N   0  0  0  0  0  0  0  0  0  0  0  0
    9.4764  -15.7770   21.9624 C   0  0  0  0  0  0  0  0  0  0  0  0
   10.5155  -15.3141   22.4849 O   0  0  0  0  0  0  0  0  0  0  0  0
   12.7108  -19.6373   23.0918 N   0  0  0  0  0  0  0  0  0  0  0  0
   11.6522  -19.8620   22.1518 C   0  0  0  0  0  0  0  0  0  0  0  0
   11.7218  -20.8220   21.3653 O   0  0  0  0  0  0  0  0  0  0  0  0
   10.5173  -18.9356   22.1599 C   0  0  0  0  0  0  0  0  0  0  0  0
   10.7265  -17.8296   21.1899 C   0  0  2  0  0  0  0  0  0  0  0  0
    9.5974  -16.9388   21.1459 N   0  0  0  0  0  0  0  0  0  0  0  0
   10.9915  -18.3493   19.8154 C   0  0  0  0  0  0  0  0  0  0  0  0
   10.0426  -18.7403   19.1015 O   0  0  0  0  0  0  0  0  0  0  0  0
   12.2807  -18.3982   19.3334 O   0  0  0  0  0  0  0  0  0  0  0  0
  2  1  1  1
  3  2  1  0
  4  2  1  0
  5  7  1  0
  5  4  1  0
  5  6  1  6
  7  8  2  0
  9 10  1  0
  9  7  1  0
 10 11  1  6
 12 13  1  0
 12 11  1  0
 13 14  1  0
 14 15  1  0
 16 10  1  0
 17 16  2  0
 19 18  1  0
 19 20  2  0
 21 19  1  0
 22 21  1  1
 22 23  1  0
 23 16  1  0
 24 22  1  0
 24 26  1  0
 25 24  2  0
M  END
$$$$
