LKN.pdb
     RDKit          3D

 26 25  0  0  1  0  0  0  0  0999 V2000
    6.3947  -12.7278   19.2176 C   0  0  0  0  0  0  0  0  0  0  0  0
    7.7152  -13.4073   18.9319 C   0  0  1  0  0  0  0  0  0  0  0  0
    8.7439  -12.3171   18.6944 C   0  0  0  0  0  0  0  0  0  0  0  0
    8.1526  -14.2536   20.1351 C   0  0  0  0  0  0  0  0  0  0  0  0
    9.4819  -14.8555   19.7618 C   0  0  2  0  0  0  0  0  0  0  0  0
    9.4669  -15.5437   18.5136 N   0  0  0  0  0  0  0  0  0  0  0  0
   10.0395  -15.7185   20.8166 C   0  0  0  0  0  0  0  0  0  0  0  0
   10.0949  -15.2729   21.9881 O   0  0  0  0  0  0  0  0  0  0  0  0
   10.5224  -17.0348   20.5899 N   0  0  0  0  0  0  0  0  0  0  0  0
   11.0535  -17.8986   21.5981 C   0  0  1  0  0  0  0  0  0  0  0  0
   10.9084  -19.3770   21.2022 C   0  0  0  0  0  0  0  0  0  0  0  0
    9.4398  -19.7118   20.9914 C   0  0  0  0  0  0  0  0  0  0  0  0
    9.2457  -20.5563   19.7681 C   0  0  0  0  0  0  0  0  0  0  0  0
    7.8041  -20.9884   19.5991 C   0  0  0  0  0  0  0  0  0  0  0  0
    7.6710  -21.8123   18.3964 N   0  0  0  0  0  0  0  0  0  0  0  0
   12.5044  -17.6887   21.8262 C   0  0  0  0  0  0  0  0  0  0  0  0
   13.2603  -18.6642   22.0368 O   0  0  0  0  0  0  0  0  0  0  0  0
   13.5345  -14.0301   19.3303 N   0  0  0  0  0  0  0  0  0  0  0  0
   14.5263  -14.9486   19.8072 C   0  0  0  0  0  0  0  0  0  0  0  0
   15.0435  -15.7588   19.0191 O   0  0  0  0  0  0  0  0  0  0  0  0
   14.8921  -14.8907   21.2247 C   0  0  0  0  0  0  0  0  0  0  0  0
   14.4933  -16.1373   21.9282 C   0  0  2  0  0  0  0  0  0  0  0  0
   13.0807  -16.3852   21.8136 N   0  0  0  0  0  0  0  0  0  0  0  0
   14.8651  -16.0934   23.3737 C   0  0  0  0  0  0  0  0  0  0  0  0
   16.0545  -15.9012   23.7074 O   0  0  0  0  0  0  0  0  0  0  0  0
   13.8986  -16.2645   24.3398 O   0  0  0  0  0  0  0  0  0  0  0  0
  2  1  1  1
  3  2  1  0
  4  2  1  0
  5  7  1  0
  5  4  1  0
  5  6  1  6
  7  8  2  0
  9 10  1  0
  9  7  1  0
 10 11  1  6
 12 13  1  0
 12 11  1  0
 13 14  1  0
 14 15  1  0
 16 10  1  0
 17 16  2  0
 19 18  1  0
 19 20  2  0
 21 19  1  0
 22 21  1  1
 22 23  1  0
 23 16  1  0
 24 22  1  0
 24 26  1  0
 25 24  2  0
M  END
$$$$
