LKN.pdb
     RDKit          3D

 26 25  0  0  1  0  0  0  0  0999 V2000
    6.5628  -12.1739   18.8254 C   0  0  0  0  0  0  0  0  0  0  0  0
    7.1755  -13.5151   19.1613 C   0  0  1  0  0  0  0  0  0  0  0  0
    8.4111  -13.6786   18.2954 C   0  0  0  0  0  0  0  0  0  0  0  0
    7.5909  -13.5587   20.6380 C   0  0  0  0  0  0  0  0  0  0  0  0
    8.1199  -14.9476   20.8828 C   0  0  2  0  0  0  0  0  0  0  0  0
    7.3265  -15.9734   20.2912 N   0  0  0  0  0  0  0  0  0  0  0  0
    8.3475  -15.2336   22.3092 C   0  0  0  0  0  0  0  0  0  0  0  0
    8.9338  -14.3714   23.0069 O   0  0  0  0  0  0  0  0  0  0  0  0
    7.9418  -16.4341   22.9507 N   0  0  0  0  0  0  0  0  0  0  0  0
    8.2260  -16.7740   24.3102 C   0  0  1  0  0  0  0  0  0  0  0  0
    7.5307  -18.0833   24.7173 C   0  0  0  0  0  0  0  0  0  0  0  0
    7.7951  -18.3714   26.1870 C   0  0  0  0  0  0  0  0  0  0  0  0
    7.1456  -19.6531   26.6146 C   0  0  0  0  0  0  0  0  0  0  0  0
    7.4230  -19.9732   28.0685 C   0  0  0  0  0  0  0  0  0  0  0  0
    6.5793  -21.0886   28.5005 N   0  0  0  0  0  0  0  0  0  0  0  0
    9.6720  -16.9992   24.5543 C   0  0  0  0  0  0  0  0  0  0  0  0
   10.1013  -17.1531   25.7202 O   0  0  0  0  0  0  0  0  0  0  0  0
   14.5370  -16.1885   25.6576 N   0  0  0  0  0  0  0  0  0  0  0  0
   14.1068  -16.1000   24.2931 C   0  0  0  0  0  0  0  0  0  0  0  0
   14.9438  -16.1831   23.3780 O   0  0  0  0  0  0  0  0  0  0  0  0
   12.6772  -15.9125   24.0336 C   0  0  0  0  0  0  0  0  0  0  0  0
   12.0288  -17.1998   23.6724 C   0  0  2  0  0  0  0  0  0  0  0  0
   10.6107  -17.0473   23.4830 N   0  0  0  0  0  0  0  0  0  0  0  0
   12.2727  -18.2459   24.7096 C   0  0  0  0  0  0  0  0  0  0  0  0
   11.6222  -18.2311   25.7770 O   0  0  0  0  0  0  0  0  0  0  0  0
   13.2140  -19.2273   24.4911 O   0  0  0  0  0  0  0  0  0  0  0  0
  2  1  1  6
  3  2  1  0
  4  2  1  0
  5  7  1  0
  5  4  1  0
  5  6  1  1
  7  8  2  0
  9 10  1  0
  9  7  1  0
 10 11  1  6
 12 13  1  0
 12 11  1  0
 13 14  1  0
 14 15  1  0
 16 10  1  0
 17 16  2  0
 19 18  1  0
 19 20  2  0
 21 19  1  0
 22 21  1  1
 22 23  1  0
 23 16  1  0
 24 22  1  0
 24 26  1  0
 25 24  2  0
M  END
$$$$
