LKN.pdb
     RDKit          3D

 26 25  0  0  1  0  0  0  0  0999 V2000
    6.9624  -12.1712   19.2725 C   0  0  0  0  0  0  0  0  0  0  0  0
    7.7954  -13.4320   19.2114 C   0  0  1  0  0  0  0  0  0  0  0  0
    8.2507  -13.6052   17.7741 C   0  0  0  0  0  0  0  0  0  0  0  0
    9.0295  -13.3020   20.1143 C   0  0  0  0  0  0  0  0  0  0  0  0
    9.6737  -14.6633   20.1405 C   0  0  2  0  0  0  0  0  0  0  0  0
    8.7380  -15.7384   20.1202 N   0  0  0  0  0  0  0  0  0  0  0  0
   10.6221  -14.8297   21.2546 C   0  0  0  0  0  0  0  0  0  0  0  0
   11.5228  -13.9700   21.4080 O   0  0  0  0  0  0  0  0  0  0  0  0
   10.5814  -15.9113   22.1743 N   0  0  0  0  0  0  0  0  0  0  0  0
   11.5266  -16.1309   23.2245 C   0  0  1  0  0  0  0  0  0  0  0  0
   11.0852  -17.2811   24.1439 C   0  0  0  0  0  0  0  0  0  0  0  0
   12.0449  -17.3994   25.3178 C   0  0  0  0  0  0  0  0  0  0  0  0
   11.6870  -18.5596   26.1971 C   0  0  0  0  0  0  0  0  0  0  0  0
   12.5734  -18.6385   27.4224 C   0  0  0  0  0  0  0  0  0  0  0  0
   12.0423  -19.6335   28.3556 N   0  0  0  0  0  0  0  0  0  0  0  0
   12.8662  -16.5185   22.7179 C   0  0  0  0  0  0  0  0  0  0  0  0
   13.0513  -17.6517   22.2191 O   0  0  0  0  0  0  0  0  0  0  0  0
   14.4653  -13.8931   19.4667 N   0  0  0  0  0  0  0  0  0  0  0  0
   15.0284  -15.0817   20.0367 C   0  0  0  0  0  0  0  0  0  0  0  0
   14.8788  -16.1715   19.4580 O   0  0  0  0  0  0  0  0  0  0  0  0
   15.7666  -14.9573   21.2960 C   0  0  0  0  0  0  0  0  0  0  0  0
   15.2888  -15.9501   22.2930 C   0  0  2  0  0  0  0  0  0  0  0  0
   13.9748  -15.6251   22.7809 N   0  0  0  0  0  0  0  0  0  0  0  0
   16.2258  -16.0584   23.4506 C   0  0  0  0  0  0  0  0  0  0  0  0
   17.4321  -16.3227   23.2554 O   0  0  0  0  0  0  0  0  0  0  0  0
   15.7622  -15.8675   24.7333 O   0  0  0  0  0  0  0  0  0  0  0  0
  2  1  1  6
  3  2  1  0
  4  2  1  0
  5  7  1  0
  5  4  1  0
  5  6  1  1
  7  8  2  0
  9 10  1  0
  9  7  1  0
 10 11  1  1
 12 13  1  0
 12 11  1  0
 13 14  1  0
 14 15  1  0
 16 10  1  0
 17 16  2  0
 19 18  1  0
 19 20  2  0
 21 19  1  0
 22 21  1  6
 22 23  1  0
 23 16  1  0
 24 22  1  0
 24 26  1  0
 25 24  2  0
M  END
$$$$
