YEY.pdb
     RDKit          3D

 34 35  0  0  1  0  0  0  0  0999 V2000
    9.4724   -9.6854   -9.7167 O   0  0  0  0  0  0  0  0  0  0  0  0
   10.7480   -9.5629  -10.2289 C   0  0  0  0  0  0  0  0  0  0  0  0
   11.6989   -8.8473   -9.5231 C   0  0  0  0  0  0  0  0  0  0  0  0
   12.9857   -8.7138  -10.0221 C   0  0  0  0  0  0  0  0  0  0  0  0
   13.3608   -9.2824  -11.2254 C   0  0  0  0  0  0  0  0  0  0  0  0
   14.7416   -9.1355  -11.7542 C   0  0  0  0  0  0  0  0  0  0  0  0
   15.3589  -10.4928  -11.8067 C   0  0  2  0  0  0  0  0  0  0  0  0
   15.5596  -10.9923  -10.4845 N   0  0  0  0  0  0  0  0  0  0  0  0
   16.6434  -10.5176  -12.5706 C   0  0  0  0  0  0  0  0  0  0  0  0
   17.7098  -10.1551  -12.0101 O   0  0  0  0  0  0  0  0  0  0  0  0
   12.3995   -9.9958  -11.9215 C   0  0  0  0  0  0  0  0  0  0  0  0
   11.1175  -10.1308  -11.4280 C   0  0  0  0  0  0  0  0  0  0  0  0
   16.7186  -10.9358  -13.9155 N   0  0  0  0  0  0  0  0  0  0  0  0
   17.9080  -10.8729  -14.7202 C   0  0  1  0  0  0  0  0  0  0  0  0
   17.6640  -11.4159  -16.1119 C   0  0  0  0  0  0  0  0  0  0  0  0
   17.6662  -12.9242  -16.1342 C   0  0  0  0  0  0  0  0  0  0  0  0
   16.5815  -13.4168  -15.2521 C   0  0  0  0  0  0  0  0  0  0  0  0
   16.8329  -14.1840  -14.2923 O   0  0  0  0  0  0  0  0  0  0  0  0
   18.3589   -9.4477  -14.9080 C   0  0  0  0  0  0  0  0  0  0  0  0
   17.6854   -8.4901  -14.4502 O   0  0  0  0  0  0  0  0  0  0  0  0
   15.2669  -13.0428  -15.4656 O   0  0  0  0  0  0  0  0  0  0  0  0
   22.4355   -1.8964  -15.0675 O   0  0  0  0  0  0  0  0  0  0  0  0
   21.9209   -3.1849  -14.8972 C   0  0  0  0  0  0  0  0  0  0  0  0
   22.7494   -4.2835  -14.9591 C   0  0  0  0  0  0  0  0  0  0  0  0
   22.2179   -5.5596  -14.7869 C   0  0  0  0  0  0  0  0  0  0  0  0
   20.8878   -5.7894  -14.5541 C   0  0  0  0  0  0  0  0  0  0  0  0
   20.3523   -7.1608  -14.3710 C   0  0  0  0  0  0  0  0  0  0  0  0
   20.0374   -7.7616  -15.7240 C   0  0  2  0  0  0  0  0  0  0  0  0
   19.5552   -9.1214  -15.6050 N   0  0  0  0  0  0  0  0  0  0  0  0
   21.2171   -7.7532  -16.6085 C   0  0  0  0  0  0  0  0  0  0  0  0
   22.2151   -8.6913  -16.4061 O   0  0  0  0  0  0  0  0  0  0  0  0
   20.0591   -4.6709  -14.4936 C   0  0  0  0  0  0  0  0  0  0  0  0
   20.5799   -3.4060  -14.6633 C   0  0  0  0  0  0  0  0  0  0  0  0
   21.3950   -6.9436  -17.5548 O   0  0  0  0  0  0  0  0  0  0  0  0
  2  1  1  0
  3  2  2  0
  4  3  1  0
  5  4  2  0
  5 11  1  0
  6  5  1  0
  7  6  1  0
  7  8  1  1
  9  7  1  0
  9 10  2  0
 11 12  2  0
 12  2  1  0
 13  9  1  0
 14 13  1  0
 14 15  1  6
 15 16  1  0
 16 17  1  0
 17 21  1  0
 18 17  2  0
 19 14  1  0
 20 19  2  0
 23 22  1  0
 23 24  2  0
 25 24  1  0
 26 25  2  0
 27 26  1  0
 28 27  1  1
 28 29  1  0
 29 19  1  0
 30 31  1  0
 30 28  1  0
 32 33  2  0
 32 26  1  0
 33 23  1  0
 34 30  2  0
M  END
$$$$
