YEY.pdb
     RDKit          3D

 34 35  0  0  1  0  0  0  0  0999 V2000
   29.8650  -20.0093   -5.4967 O   0  0  0  0  0  0  0  0  0  0  0  0
   28.8840  -20.1712   -6.4536 C   0  0  0  0  0  0  0  0  0  0  0  0
   27.7387  -19.3974   -6.3917 C   0  0  0  0  0  0  0  0  0  0  0  0
   26.7423  -19.5462   -7.3446 C   0  0  0  0  0  0  0  0  0  0  0  0
   26.8548  -20.4596   -8.3765 C   0  0  0  0  0  0  0  0  0  0  0  0
   25.7833  -20.6138   -9.3944 C   0  0  0  0  0  0  0  0  0  0  0  0
   26.4198  -21.0712  -10.6639 C   0  0  2  0  0  0  0  0  0  0  0  0
   27.6479  -20.3750  -10.8761 N   0  0  0  0  0  0  0  0  0  0  0  0
   25.5247  -20.9167  -11.8510 C   0  0  0  0  0  0  0  0  0  0  0  0
   25.4273  -19.7977  -12.4175 O   0  0  0  0  0  0  0  0  0  0  0  0
   28.0061  -21.2276   -8.4267 C   0  0  0  0  0  0  0  0  0  0  0  0
   28.9999  -21.0823   -7.4800 C   0  0  0  0  0  0  0  0  0  0  0  0
   24.7695  -21.9858  -12.3763 N   0  0  0  0  0  0  0  0  0  0  0  0
   23.9057  -21.8846  -13.5207 C   0  0  1  0  0  0  0  0  0  0  0  0
   24.0173  -23.1059  -14.4082 C   0  0  0  0  0  0  0  0  0  0  0  0
   25.3330  -23.1458  -15.1450 C   0  0  0  0  0  0  0  0  0  0  0  0
   25.2855  -22.1717  -16.2613 C   0  0  0  0  0  0  0  0  0  0  0  0
   24.6588  -22.4335  -17.3157 O   0  0  0  0  0  0  0  0  0  0  0  0
   22.4603  -21.8111  -13.1021 C   0  0  0  0  0  0  0  0  0  0  0  0
   22.0239  -22.5146  -12.1562 O   0  0  0  0  0  0  0  0  0  0  0  0
   25.9304  -20.9515  -16.1675 O   0  0  0  0  0  0  0  0  0  0  0  0
   14.1066  -19.5036  -11.8876 O   0  0  0  0  0  0  0  0  0  0  0  0
   15.4857  -19.5195  -12.1150 C   0  0  0  0  0  0  0  0  0  0  0  0
   16.3461  -20.0233  -11.1646 C   0  0  0  0  0  0  0  0  0  0  0  0
   17.7175  -20.0307  -11.4095 C   0  0  0  0  0  0  0  0  0  0  0  0
   18.2717  -19.5548  -12.5682 C   0  0  0  0  0  0  0  0  0  0  0  0
   19.7367  -19.5797  -12.8012 C   0  0  0  0  0  0  0  0  0  0  0  0
   20.1281  -20.9160  -13.3945 C   0  0  2  0  0  0  0  0  0  0  0  0
   21.5308  -20.9516  -13.7506 N   0  0  0  0  0  0  0  0  0  0  0  0
   19.3273  -21.2330  -14.5913 C   0  0  0  0  0  0  0  0  0  0  0  0
   18.1657  -21.9723  -14.4458 O   0  0  0  0  0  0  0  0  0  0  0  0
   17.3921  -19.0475  -13.5223 C   0  0  0  0  0  0  0  0  0  0  0  0
   16.0342  -19.0378  -13.2850 C   0  0  0  0  0  0  0  0  0  0  0  0
   19.6206  -20.8780  -15.7620 O   0  0  0  0  0  0  0  0  0  0  0  0
  2  1  1  0
  3  2  2  0
  4  3  1  0
  5  4  2  0
  5 11  1  0
  6  5  1  0
  7  6  1  0
  7  8  1  6
  9  7  1  0
  9 10  2  0
 11 12  2  0
 12  2  1  0
 13  9  1  0
 14 13  1  0
 14 15  1  6
 15 16  1  0
 16 17  1  0
 17 21  1  0
 18 17  2  0
 19 14  1  0
 20 19  2  0
 23 22  1  0
 23 24  2  0
 25 24  1  0
 26 25  2  0
 27 26  1  0
 28 27  1  6
 28 29  1  0
 29 19  1  0
 30 31  1  0
 30 28  1  0
 32 33  2  0
 32 26  1  0
 33 23  1  0
 34 30  2  0
M  END
$$$$
