YEY.pdb
     RDKit          3D

 34 35  0  0  1  0  0  0  0  0999 V2000
   21.4672   -8.9414  -23.7561 O   0  0  0  0  0  0  0  0  0  0  0  0
   21.4059  -10.2573  -23.3449 C   0  0  0  0  0  0  0  0  0  0  0  0
   21.7899  -10.5864  -22.0571 C   0  0  0  0  0  0  0  0  0  0  0  0
   21.7348  -11.9034  -21.6264 C   0  0  0  0  0  0  0  0  0  0  0  0
   21.3007  -12.9212  -22.4556 C   0  0  0  0  0  0  0  0  0  0  0  0
   21.2440  -14.3303  -21.9875 C   0  0  0  0  0  0  0  0  0  0  0  0
   22.6453  -14.8086  -21.8035 C   0  0  2  0  0  0  0  0  0  0  0  0
   23.3155  -14.8613  -23.0629 N   0  0  0  0  0  0  0  0  0  0  0  0
   22.7210  -16.1358  -21.1203 C   0  0  0  0  0  0  0  0  0  0  0  0
   22.4601  -17.1848  -21.7640 O   0  0  0  0  0  0  0  0  0  0  0  0
   20.9194  -12.5779  -23.7419 C   0  0  0  0  0  0  0  0  0  0  0  0
   20.9728  -11.2682  -24.1741 C   0  0  0  0  0  0  0  0  0  0  0  0
   23.0776  -16.2711  -19.7624 N   0  0  0  0  0  0  0  0  0  0  0  0
   23.1205  -17.5215  -19.0548 C   0  0  1  0  0  0  0  0  0  0  0  0
   24.3242  -17.5989  -18.1402 C   0  0  0  0  0  0  0  0  0  0  0  0
   25.6116  -17.7249  -18.9163 C   0  0  0  0  0  0  0  0  0  0  0  0
   25.9976  -19.1550  -18.9729 C   0  0  0  0  0  0  0  0  0  0  0  0
   25.3497  -20.0206  -18.3375 O   0  0  0  0  0  0  0  0  0  0  0  0
   21.9161  -17.6799  -18.1636 C   0  0  0  0  0  0  0  0  0  0  0  0
   21.5372  -16.7438  -17.4152 O   0  0  0  0  0  0  0  0  0  0  0  0
   27.0808  -19.5692  -19.7272 O   0  0  0  0  0  0  0  0  0  0  0  0
   17.4003  -14.3594  -20.7529 O   0  0  0  0  0  0  0  0  0  0  0  0
   17.7304  -15.5555  -20.1092 C   0  0  0  0  0  0  0  0  0  0  0  0
   17.2612  -15.8210  -18.8417 C   0  0  0  0  0  0  0  0  0  0  0  0
   17.6010  -17.0186  -18.2165 C   0  0  0  0  0  0  0  0  0  0  0  0
   18.3931  -17.9691  -18.8041 C   0  0  0  0  0  0  0  0  0  0  0  0
   18.7345  -19.2372  -18.1137 C   0  0  0  0  0  0  0  0  0  0  0  0
   19.9883  -19.0384  -17.2895 C   0  0  2  0  0  0  0  0  0  0  0  0
   21.1587  -18.8834  -18.1271 N   0  0  0  0  0  0  0  0  0  0  0  0
   20.2133  -20.1647  -16.3649 C   0  0  0  0  0  0  0  0  0  0  0  0
   19.1986  -20.5360  -15.4991 O   0  0  0  0  0  0  0  0  0  0  0  0
   18.8621  -17.6900  -20.0861 C   0  0  0  0  0  0  0  0  0  0  0  0
   18.5290  -16.5064  -20.7092 C   0  0  0  0  0  0  0  0  0  0  0  0
   21.2777  -20.8319  -16.2969 O   0  0  0  0  0  0  0  0  0  0  0  0
  2  1  1  0
  3  2  2  0
  4  3  1  0
  5  4  2  0
  5 11  1  0
  6  5  1  0
  7  6  1  0
  7  8  1  6
  9  7  1  0
  9 10  2  0
 11 12  2  0
 12  2  1  0
 13  9  1  0
 14 13  1  0
 14 15  1  1
 15 16  1  0
 16 17  1  0
 17 21  1  0
 18 17  2  0
 19 14  1  0
 20 19  2  0
 23 22  1  0
 23 24  2  0
 25 24  1  0
 26 25  2  0
 27 26  1  0
 28 27  1  6
 28 29  1  0
 29 19  1  0
 30 31  1  0
 30 28  1  0
 32 33  2  0
 32 26  1  0
 33 23  1  0
 34 30  2  0
M  END
$$$$
