YEY.pdb
     RDKit          3D

 34 35  0  0  1  0  0  0  0  0999 V2000
   26.8485  -17.8316  -15.4921 O   0  0  0  0  0  0  0  0  0  0  0  0
   26.4320  -16.5301  -15.6850 C   0  0  0  0  0  0  0  0  0  0  0  0
   25.4078  -16.0210  -14.9065 C   0  0  0  0  0  0  0  0  0  0  0  0
   24.9762  -14.7155  -15.0860 C   0  0  0  0  0  0  0  0  0  0  0  0
   25.5448  -13.8866  -16.0355 C   0  0  0  0  0  0  0  0  0  0  0  0
   25.0775  -12.4885  -16.2225 C   0  0  0  0  0  0  0  0  0  0  0  0
   23.8937  -12.5187  -17.1300 C   0  0  2  0  0  0  0  0  0  0  0  0
   24.2920  -12.9104  -18.4437 N   0  0  0  0  0  0  0  0  0  0  0  0
   23.1642  -11.2149  -17.1768 C   0  0  0  0  0  0  0  0  0  0  0  0
   23.6094  -10.2760  -17.8860 O   0  0  0  0  0  0  0  0  0  0  0  0
   26.5688  -14.4087  -16.8077 C   0  0  0  0  0  0  0  0  0  0  0  0
   27.0011  -15.7077  -16.6319 C   0  0  0  0  0  0  0  0  0  0  0  0
   21.9781  -10.9824  -16.4499 N   0  0  0  0  0  0  0  0  0  0  0  0
   21.2553   -9.7401  -16.4512 C   0  0  1  0  0  0  0  0  0  0  0  0
   19.7841   -9.9554  -16.1669 C   0  0  0  0  0  0  0  0  0  0  0  0
   19.0358   -8.6498  -16.0624 C   0  0  0  0  0  0  0  0  0  0  0  0
   18.5924   -8.2432  -17.4172 C   0  0  0  0  0  0  0  0  0  0  0  0
   18.7052   -7.0541  -17.7998 O   0  0  0  0  0  0  0  0  0  0  0  0
   21.7541   -8.8231  -15.3648 C   0  0  0  0  0  0  0  0  0  0  0  0
   21.9512   -9.2487  -14.1986 O   0  0  0  0  0  0  0  0  0  0  0  0
   18.0442   -9.1642  -18.2917 O   0  0  0  0  0  0  0  0  0  0  0  0
   25.2348   -3.9915  -19.7487 O   0  0  0  0  0  0  0  0  0  0  0  0
   24.9474   -4.5867  -18.5171 C   0  0  0  0  0  0  0  0  0  0  0  0
   24.5647   -3.8177  -17.4403 C   0  0  0  0  0  0  0  0  0  0  0  0
   24.2824   -4.4292  -16.2208 C   0  0  0  0  0  0  0  0  0  0  0  0
   24.3654   -5.7827  -16.0272 C   0  0  0  0  0  0  0  0  0  0  0  0
   24.0545   -6.4049  -14.7168 C   0  0  0  0  0  0  0  0  0  0  0  0
   22.5561   -6.5712  -14.5828 C   0  0  2  0  0  0  0  0  0  0  0  0
   22.0228   -7.4470  -15.6046 N   0  0  0  0  0  0  0  0  0  0  0  0
   21.8580   -5.2747  -14.6586 C   0  0  0  0  0  0  0  0  0  0  0  0
   22.1432   -4.3021  -13.7154 O   0  0  0  0  0  0  0  0  0  0  0  0
   24.7534   -6.5506  -17.1232 C   0  0  0  0  0  0  0  0  0  0  0  0
   25.0340   -5.9506  -18.3320 C   0  0  0  0  0  0  0  0  0  0  0  0
   21.0038   -4.9729  -15.5315 O   0  0  0  0  0  0  0  0  0  0  0  0
  2  1  1  0
  3  2  2  0
  4  3  1  0
  5  4  2  0
  5 11  1  0
  6  5  1  0
  7  6  1  0
  7  8  1  6
  9  7  1  0
  9 10  2  0
 11 12  2  0
 12  2  1  0
 13  9  1  0
 14 13  1  0
 14 15  1  1
 15 16  1  0
 16 17  1  0
 17 21  1  0
 18 17  2  0
 19 14  1  0
 20 19  2  0
 23 22  1  0
 23 24  2  0
 25 24  1  0
 26 25  2  0
 27 26  1  0
 28 27  1  6
 28 29  1  0
 29 19  1  0
 30 31  1  0
 30 28  1  0
 32 33  2  0
 32 26  1  0
 33 23  1  0
 34 30  2  0
M  END
$$$$
