YEY.pdb
     RDKit          3D

 34 35  0  0  1  0  0  0  0  0999 V2000
   22.3927  -17.2170  -22.5151 O   0  0  0  0  0  0  0  0  0  0  0  0
   22.3925  -16.1379  -21.6549 C   0  0  0  0  0  0  0  0  0  0  0  0
   21.2512  -15.8465  -20.9290 C   0  0  0  0  0  0  0  0  0  0  0  0
   21.2326  -14.7662  -20.0598 C   0  0  0  0  0  0  0  0  0  0  0  0
   22.3374  -13.9524  -19.8888 C   0  0  0  0  0  0  0  0  0  0  0  0
   22.3106  -12.7965  -18.9555 C   0  0  0  0  0  0  0  0  0  0  0  0
   22.9463  -13.2260  -17.6759 C   0  0  2  0  0  0  0  0  0  0  0  0
   22.1705  -14.2563  -17.0639 N   0  0  0  0  0  0  0  0  0  0  0  0
   23.1510  -12.0947  -16.7206 C   0  0  0  0  0  0  0  0  0  0  0  0
   22.2273  -11.7703  -15.9306 O   0  0  0  0  0  0  0  0  0  0  0  0
   23.4728  -14.2552  -20.6214 C   0  0  0  0  0  0  0  0  0  0  0  0
   23.4951  -15.3296  -21.4875 C   0  0  0  0  0  0  0  0  0  0  0  0
   24.3531  -11.3594  -16.6616 N   0  0  0  0  0  0  0  0  0  0  0  0
   24.5861  -10.2542  -15.7728 C   0  0  1  0  0  0  0  0  0  0  0  0
   26.0657   -9.9845  -15.6008 C   0  0  0  0  0  0  0  0  0  0  0  0
   26.7612  -11.1112  -14.8779 C   0  0  0  0  0  0  0  0  0  0  0  0
   27.4644  -11.9555  -15.8729 C   0  0  0  0  0  0  0  0  0  0  0  0
   27.4082  -11.6875  -17.0968 O   0  0  0  0  0  0  0  0  0  0  0  0
   23.9979   -8.9822  -16.3260 C   0  0  0  0  0  0  0  0  0  0  0  0
   24.2581   -8.6043  -17.4962 O   0  0  0  0  0  0  0  0  0  0  0  0
   28.1990  -13.0586  -15.4762 O   0  0  0  0  0  0  0  0  0  0  0  0
   19.1297   -2.5545  -19.2181 O   0  0  0  0  0  0  0  0  0  0  0  0
   19.7726   -3.7112  -18.7679 C   0  0  0  0  0  0  0  0  0  0  0  0
   19.1520   -4.5533  -17.8718 C   0  0  0  0  0  0  0  0  0  0  0  0
   19.8089   -5.7015  -17.4347 C   0  0  0  0  0  0  0  0  0  0  0  0
   21.0654   -6.0487  -17.8550 C   0  0  0  0  0  0  0  0  0  0  0  0
   21.7375   -7.2807  -17.3739 C   0  0  0  0  0  0  0  0  0  0  0  0
   22.5018   -6.9726  -16.1043 C   0  0  2  0  0  0  0  0  0  0  0  0
   23.1297   -8.1573  -15.5585 N   0  0  0  0  0  0  0  0  0  0  0  0
   21.6266   -6.3832  -15.0744 C   0  0  0  0  0  0  0  0  0  0  0  0
   21.0477   -5.1481  -15.3117 O   0  0  0  0  0  0  0  0  0  0  0  0
   21.6836   -5.1896  -18.7612 C   0  0  0  0  0  0  0  0  0  0  0  0
   21.0382   -4.0522  -19.1969 C   0  0  0  0  0  0  0  0  0  0  0  0
   21.3566   -6.9241  -13.9711 O   0  0  0  0  0  0  0  0  0  0  0  0
  2  1  1  0
  3  2  2  0
  4  3  1  0
  5  4  2  0
  5 11  1  0
  6  5  1  0
  7  6  1  0
  7  8  1  1
  9  7  1  0
  9 10  2  0
 11 12  2  0
 12  2  1  0
 13  9  1  0
 14 13  1  0
 14 15  1  6
 15 16  1  0
 16 17  1  0
 17 21  1  0
 18 17  2  0
 19 14  1  0
 20 19  2  0
 23 22  1  0
 23 24  2  0
 25 24  1  0
 26 25  2  0
 27 26  1  0
 28 27  1  6
 28 29  1  0
 29 19  1  0
 30 31  1  0
 30 28  1  0
 32 33  2  0
 32 26  1  0
 33 23  1  0
 34 30  2  0
M  END
$$$$
