YEY.pdb
     RDKit          3D

 34 35  0  0  1  0  0  0  0  0999 V2000
   43.1265  -18.5088   -9.4039 O   0  0  0  0  0  0  0  0  0  0  0  0
   43.3296  -17.1458   -9.3317 C   0  0  0  0  0  0  0  0  0  0  0  0
   43.9718  -16.6110   -8.2290 C   0  0  0  0  0  0  0  0  0  0  0  0
   44.1847  -15.2437   -8.1392 C   0  0  0  0  0  0  0  0  0  0  0  0
   43.7696  -14.3771   -9.1335 C   0  0  0  0  0  0  0  0  0  0  0  0
   44.0012  -12.9130   -9.0309 C   0  0  0  0  0  0  0  0  0  0  0  0
   43.4553  -12.4535   -7.7206 C   0  0  2  0  0  0  0  0  0  0  0  0
   42.0346  -12.3354   -7.7949 N   0  0  0  0  0  0  0  0  0  0  0  0
   44.0589  -11.1662   -7.2592 C   0  0  0  0  0  0  0  0  0  0  0  0
   43.5951  -10.0742   -7.6777 O   0  0  0  0  0  0  0  0  0  0  0  0
   43.1282  -14.9256  -10.2315 C   0  0  0  0  0  0  0  0  0  0  0  0
   42.9144  -16.2860  -10.3243 C   0  0  0  0  0  0  0  0  0  0  0  0
   45.1443  -11.1163   -6.3599 N   0  0  0  0  0  0  0  0  0  0  0  0
   45.7544   -9.9026   -5.8901 C   0  0  1  0  0  0  0  0  0  0  0  0
   46.4155  -10.1009   -4.5428 C   0  0  0  0  0  0  0  0  0  0  0  0
   47.0051   -8.8177   -4.0127 C   0  0  0  0  0  0  0  0  0  0  0  0
   47.6684   -9.0959   -2.7167 C   0  0  0  0  0  0  0  0  0  0  0  0
   48.8945   -8.8810   -2.5636 O   0  0  0  0  0  0  0  0  0  0  0  0
   46.8484   -9.4515   -6.8226 C   0  0  0  0  0  0  0  0  0  0  0  0
   47.6768  -10.2715   -7.2930 O   0  0  0  0  0  0  0  0  0  0  0  0
   46.9521   -9.5989   -1.6454 O   0  0  0  0  0  0  0  0  0  0  0  0
   44.1073   -9.3063  -12.9097 O   0  0  0  0  0  0  0  0  0  0  0  0
   44.9243   -8.6537  -11.9822 C   0  0  0  0  0  0  0  0  0  0  0  0
   46.2950   -8.7701  -12.0526 C   0  0  0  0  0  0  0  0  0  0  0  0
   47.0926   -8.1121  -11.1190 C   0  0  0  0  0  0  0  0  0  0  0  0
   46.5797   -7.3380  -10.1121 C   0  0  0  0  0  0  0  0  0  0  0  0
   47.4559   -6.6464   -9.1348 C   0  0  0  0  0  0  0  0  0  0  0  0
   48.0058   -7.6563   -8.1507 C   0  0  2  0  0  0  0  0  0  0  0  0
   46.9944   -8.0908   -7.2105 N   0  0  0  0  0  0  0  0  0  0  0  0
   49.1500   -7.1113   -7.3973 C   0  0  0  0  0  0  0  0  0  0  0  0
   49.0923   -7.0852   -6.0142 O   0  0  0  0  0  0  0  0  0  0  0  0
   45.1921   -7.2274  -10.0505 C   0  0  0  0  0  0  0  0  0  0  0  0
   44.3983   -7.8765  -10.9716 C   0  0  0  0  0  0  0  0  0  0  0  0
   50.1997   -6.6571   -7.9213 O   0  0  0  0  0  0  0  0  0  0  0  0
  2  1  1  0
  3  2  2  0
  4  3  1  0
  5  4  2  0
  5 11  1  0
  6  5  1  0
  7  6  1  0
  7  8  1  6
  9  7  1  0
  9 10  2  0
 11 12  2  0
 12  2  1  0
 13  9  1  0
 14 13  1  0
 14 15  1  1
 15 16  1  0
 16 17  1  0
 17 21  1  0
 18 17  2  0
 19 14  1  0
 20 19  2  0
 23 22  1  0
 23 24  2  0
 25 24  1  0
 26 25  2  0
 27 26  1  0
 28 27  1  6
 28 29  1  0
 29 19  1  0
 30 31  1  0
 30 28  1  0
 32 33  2  0
 32 26  1  0
 33 23  1  0
 34 30  2  0
M  END
$$$$
