YEY.pdb
     RDKit          3D

 34 35  0  0  1  0  0  0  0  0999 V2000
   32.1023  -16.7172  -18.6590 O   0  0  0  0  0  0  0  0  0  0  0  0
   30.7599  -16.9270  -18.4177 C   0  0  0  0  0  0  0  0  0  0  0  0
   29.8542  -15.9159  -18.6855 C   0  0  0  0  0  0  0  0  0  0  0  0
   28.5014  -16.1087  -18.4494 C   0  0  0  0  0  0  0  0  0  0  0  0
   28.0148  -17.3007  -17.9451 C   0  0  0  0  0  0  0  0  0  0  0  0
   26.5638  -17.5006  -17.6946 C   0  0  0  0  0  0  0  0  0  0  0  0
   26.0432  -18.4327  -18.7368 C   0  0  2  0  0  0  0  0  0  0  0  0
   26.1729  -17.8441  -20.0309 N   0  0  0  0  0  0  0  0  0  0  0  0
   24.6265  -18.8428  -18.4937 C   0  0  0  0  0  0  0  0  0  0  0  0
   23.6886  -18.0708  -18.8207 O   0  0  0  0  0  0  0  0  0  0  0  0
   28.9320  -18.3041  -17.6815 C   0  0  0  0  0  0  0  0  0  0  0  0
   30.2792  -18.1159  -17.9152 C   0  0  0  0  0  0  0  0  0  0  0  0
   24.2845  -20.0776  -17.9040 N   0  0  0  0  0  0  0  0  0  0  0  0
   22.9380  -20.5509  -17.7339 C   0  0  1  0  0  0  0  0  0  0  0  0
   22.7440  -21.9096  -18.3726 C   0  0  0  0  0  0  0  0  0  0  0  0
   22.7736  -21.8310  -19.8787 C   0  0  0  0  0  0  0  0  0  0  0  0
   24.1348  -22.1818  -20.3490 C   0  0  0  0  0  0  0  0  0  0  0  0
   24.5592  -21.7670  -21.4539 O   0  0  0  0  0  0  0  0  0  0  0  0
   22.6088  -20.7316  -16.2748 C   0  0  0  0  0  0  0  0  0  0  0  0
   23.5045  -21.0144  -15.4395 O   0  0  0  0  0  0  0  0  0  0  0  0
   24.9696  -22.9743  -19.5816 O   0  0  0  0  0  0  0  0  0  0  0  0
   18.5317  -15.0032  -16.0193 O   0  0  0  0  0  0  0  0  0  0  0  0
   19.2287  -16.0694  -15.4436 C   0  0  0  0  0  0  0  0  0  0  0  0
   18.6405  -16.8456  -14.4695 C   0  0  0  0  0  0  0  0  0  0  0  0
   19.3511  -17.9039  -13.9076 C   0  0  0  0  0  0  0  0  0  0  0  0
   20.6306  -18.2240  -14.2772 C   0  0  0  0  0  0  0  0  0  0  0  0
   21.3603  -19.3602  -13.6625 C   0  0  0  0  0  0  0  0  0  0  0  0
   20.9743  -20.6439  -14.3652 C   0  0  2  0  0  0  0  0  0  0  0  0
   21.2830  -20.5924  -15.7786 N   0  0  0  0  0  0  0  0  0  0  0  0
   19.5386  -20.9392  -14.2045 C   0  0  0  0  0  0  0  0  0  0  0  0
   19.0631  -21.3014  -12.9555 O   0  0  0  0  0  0  0  0  0  0  0  0
   21.2156  -17.4321  -15.2632 C   0  0  0  0  0  0  0  0  0  0  0  0
   20.5169  -16.3837  -15.8224 C   0  0  0  0  0  0  0  0  0  0  0  0
   18.6902  -20.8877  -15.1319 O   0  0  0  0  0  0  0  0  0  0  0  0
  2  1  1  0
  3  2  2  0
  4  3  1  0
  5  4  2  0
  5 11  1  0
  6  5  1  0
  7  6  1  0
  7  8  1  6
  9  7  1  0
  9 10  2  0
 11 12  2  0
 12  2  1  0
 13  9  1  0
 14 13  1  0
 14 15  1  6
 15 16  1  0
 16 17  1  0
 17 21  1  0
 18 17  2  0
 19 14  1  0
 20 19  2  0
 23 22  1  0
 23 24  2  0
 25 24  1  0
 26 25  2  0
 27 26  1  0
 28 27  1  6
 28 29  1  0
 29 19  1  0
 30 31  1  0
 30 28  1  0
 32 33  2  0
 32 26  1  0
 33 23  1  0
 34 30  2  0
M  END
$$$$
