YEY.pdb
     RDKit          3D

 34 35  0  0  1  0  0  0  0  0999 V2000
   22.4112  -21.4563  -14.3606 O   0  0  0  0  0  0  0  0  0  0  0  0
   23.0431  -22.6349  -14.7011 C   0  0  0  0  0  0  0  0  0  0  0  0
   24.3223  -22.5939  -15.2268 C   0  0  0  0  0  0  0  0  0  0  0  0
   24.9730  -23.7680  -15.5746 C   0  0  0  0  0  0  0  0  0  0  0  0
   24.3765  -25.0047  -15.4114 C   0  0  0  0  0  0  0  0  0  0  0  0
   25.0795  -26.2590  -15.7861 C   0  0  0  0  0  0  0  0  0  0  0  0
   25.2254  -26.2765  -17.2708 C   0  0  2  0  0  0  0  0  0  0  0  0
   23.9401  -26.3296  -17.8898 N   0  0  0  0  0  0  0  0  0  0  0  0
   26.0817  -27.4010  -17.7571 C   0  0  0  0  0  0  0  0  0  0  0  0
   25.5483  -28.4856  -18.1059 O   0  0  0  0  0  0  0  0  0  0  0  0
   23.0962  -25.0314  -14.8843 C   0  0  0  0  0  0  0  0  0  0  0  0
   22.4454  -23.8648  -14.5370 C   0  0  0  0  0  0  0  0  0  0  0  0
   27.4859  -27.3023  -17.8453 N   0  0  0  0  0  0  0  0  0  0  0  0
   28.3533  -28.3822  -18.2293 C   0  0  1  0  0  0  0  0  0  0  0  0
   29.7666  -27.8974  -18.4720 C   0  0  0  0  0  0  0  0  0  0  0  0
   30.6682  -29.0105  -18.9451 C   0  0  0  0  0  0  0  0  0  0  0  0
   31.9637  -28.9123  -18.2313 C   0  0  0  0  0  0  0  0  0  0  0  0
   32.5448  -29.9410  -17.8109 O   0  0  0  0  0  0  0  0  0  0  0  0
   28.4539  -29.4108  -17.1330 C   0  0  0  0  0  0  0  0  0  0  0  0
   28.6888  -29.0705  -15.9459 O   0  0  0  0  0  0  0  0  0  0  0  0
   32.5627  -27.6848  -18.0118 O   0  0  0  0  0  0  0  0  0  0  0  0
   26.1913  -35.6332  -11.6422 O   0  0  0  0  0  0  0  0  0  0  0  0
   26.3701  -34.6119  -12.5798 C   0  0  0  0  0  0  0  0  0  0  0  0
   25.7911  -34.6972  -13.8267 C   0  0  0  0  0  0  0  0  0  0  0  0
   25.9807  -33.6693  -14.7477 C   0  0  0  0  0  0  0  0  0  0  0  0
   26.7271  -32.5530  -14.4776 C   0  0  0  0  0  0  0  0  0  0  0  0
   26.9075  -31.4729  -15.4786 C   0  0  0  0  0  0  0  0  0  0  0  0
   28.1282  -31.7695  -16.3229 C   0  0  2  0  0  0  0  0  0  0  0  0
   28.2898  -30.8008  -17.3864 N   0  0  0  0  0  0  0  0  0  0  0  0
   28.0622  -33.1177  -16.9162 C   0  0  0  0  0  0  0  0  0  0  0  0
   28.3114  -34.2178  -16.1132 O   0  0  0  0  0  0  0  0  0  0  0  0
   27.3081  -32.4774  -13.2135 C   0  0  0  0  0  0  0  0  0  0  0  0
   27.1237  -33.4918  -12.2985 C   0  0  0  0  0  0  0  0  0  0  0  0
   27.7915  -33.3557  -18.1215 O   0  0  0  0  0  0  0  0  0  0  0  0
  2  1  1  0
  3  2  2  0
  4  3  1  0
  5  4  2  0
  5 11  1  0
  6  5  1  0
  7  6  1  0
  7  8  1  6
  9  7  1  0
  9 10  2  0
 11 12  2  0
 12  2  1  0
 13  9  1  0
 14 13  1  0
 14 15  1  1
 15 16  1  0
 16 17  1  0
 17 21  1  0
 18 17  2  0
 19 14  1  0
 20 19  2  0
 23 22  1  0
 23 24  2  0
 25 24  1  0
 26 25  2  0
 27 26  1  0
 28 27  1  6
 28 29  1  0
 29 19  1  0
 30 31  1  0
 30 28  1  0
 32 33  2  0
 32 26  1  0
 33 23  1  0
 34 30  2  0
M  END
$$$$
