YEY.pdb
     RDKit          3D

 34 35  0  0  1  0  0  0  0  0999 V2000
   16.6510  -16.6898  -19.3523 O   0  0  0  0  0  0  0  0  0  0  0  0
   16.7120  -15.3838  -18.9106 C   0  0  0  0  0  0  0  0  0  0  0  0
   15.6111  -14.8245  -18.2865 C   0  0  0  0  0  0  0  0  0  0  0  0
   15.6540  -13.5138  -17.8361 C   0  0  0  0  0  0  0  0  0  0  0  0
   16.7818  -12.7289  -17.9915 C   0  0  0  0  0  0  0  0  0  0  0  0
   16.8211  -11.3250  -17.5063 C   0  0  0  0  0  0  0  0  0  0  0  0
   17.5736  -11.3064  -16.2182 C   0  0  2  0  0  0  0  0  0  0  0  0
   16.8489  -12.0192  -15.2158 N   0  0  0  0  0  0  0  0  0  0  0  0
   17.8846   -9.9223  -15.7471 C   0  0  0  0  0  0  0  0  0  0  0  0
   17.1466   -9.3752  -14.8875 O   0  0  0  0  0  0  0  0  0  0  0  0
   17.8764  -13.3010  -18.6178 C   0  0  0  0  0  0  0  0  0  0  0  0
   17.8373  -14.6054  -19.0675 C   0  0  0  0  0  0  0  0  0  0  0  0
   18.9868   -9.1862  -16.2294 N   0  0  0  0  0  0  0  0  0  0  0  0
   19.3637   -7.8832  -15.7541 C   0  0  1  0  0  0  0  0  0  0  0  0
   20.8675   -7.7108  -15.7454 C   0  0  0  0  0  0  0  0  0  0  0  0
   21.2782   -6.3966  -15.1292 C   0  0  0  0  0  0  0  0  0  0  0  0
   22.7566   -6.2943  -15.1623 C   0  0  0  0  0  0  0  0  0  0  0  0
   23.4534   -7.2174  -15.6474 O   0  0  0  0  0  0  0  0  0  0  0  0
   18.8311   -6.8027  -16.6590 C   0  0  0  0  0  0  0  0  0  0  0  0
   18.9895   -6.8652  -17.9044 O   0  0  0  0  0  0  0  0  0  0  0  0
   23.4032   -5.1795  -14.6596 O   0  0  0  0  0  0  0  0  0  0  0  0
   15.2975    1.0648  -18.6275 O   0  0  0  0  0  0  0  0  0  0  0  0
   15.5346   -0.2038  -18.0905 C   0  0  0  0  0  0  0  0  0  0  0  0
   15.1012   -1.3342  -18.7473 C   0  0  0  0  0  0  0  0  0  0  0  0
   15.3470   -2.5899  -18.1962 C   0  0  0  0  0  0  0  0  0  0  0  0
   16.0105   -2.7684  -17.0113 C   0  0  0  0  0  0  0  0  0  0  0  0
   16.2603   -4.1196  -16.4518 C   0  0  0  0  0  0  0  0  0  0  0  0
   17.5533   -4.6662  -17.0177 C   0  0  2  0  0  0  0  0  0  0  0  0
   18.1314   -5.6726  -16.1524 N   0  0  0  0  0  0  0  0  0  0  0  0
   18.5464   -3.5974  -17.2306 C   0  0  0  0  0  0  0  0  0  0  0  0
   18.5789   -2.9440  -18.4509 O   0  0  0  0  0  0  0  0  0  0  0  0
   16.4443   -1.6181  -16.3556 C   0  0  0  0  0  0  0  0  0  0  0  0
   16.2036   -0.3732  -16.8964 C   0  0  0  0  0  0  0  0  0  0  0  0
   19.3869   -3.2217  -16.3732 O   0  0  0  0  0  0  0  0  0  0  0  0
  2  1  1  0
  3  2  2  0
  4  3  1  0
  5  4  2  0
  5 11  1  0
  6  5  1  0
  7  6  1  0
  7  8  1  1
  9  7  1  0
  9 10  2  0
 11 12  2  0
 12  2  1  0
 13  9  1  0
 14 13  1  0
 14 15  1  6
 15 16  1  0
 16 17  1  0
 17 21  1  0
 18 17  2  0
 19 14  1  0
 20 19  2  0
 23 22  1  0
 23 24  2  0
 25 24  1  0
 26 25  2  0
 27 26  1  0
 28 27  1  1
 28 29  1  0
 29 19  1  0
 30 31  1  0
 30 28  1  0
 32 33  2  0
 32 26  1  0
 33 23  1  0
 34 30  2  0
M  END
$$$$
