YEY.pdb
     RDKit          3D

 34 35  0  0  1  0  0  0  0  0999 V2000
   32.5105  -27.5230  -18.1250 O   0  0  0  0  0  0  0  0  0  0  0  0
   31.7764  -26.4608  -17.6380 C   0  0  0  0  0  0  0  0  0  0  0  0
   32.4000  -25.5038  -16.8571 C   0  0  0  0  0  0  0  0  0  0  0  0
   31.6784  -24.4295  -16.3592 C   0  0  0  0  0  0  0  0  0  0  0  0
   30.3292  -24.2769  -16.6207 C   0  0  0  0  0  0  0  0  0  0  0  0
   29.5620  -23.1231  -16.0841 C   0  0  0  0  0  0  0  0  0  0  0  0
   28.8928  -22.4443  -17.2318 C   0  0  2  0  0  0  0  0  0  0  0  0
   29.8692  -21.9710  -18.1595 N   0  0  0  0  0  0  0  0  0  0  0  0
   27.9993  -21.3250  -16.8039 C   0  0  0  0  0  0  0  0  0  0  0  0
   28.4744  -20.1699  -16.6535 O   0  0  0  0  0  0  0  0  0  0  0  0
   29.7176  -25.2418  -17.4035 C   0  0  0  0  0  0  0  0  0  0  0  0
   30.4326  -26.3125  -17.9008 C   0  0  0  0  0  0  0  0  0  0  0  0
   26.6226  -21.5055  -16.5558 N   0  0  0  0  0  0  0  0  0  0  0  0
   25.8652  -20.7520  -15.5943 C   0  0  1  0  0  0  0  0  0  0  0  0
   24.4585  -20.4838  -16.0850 C   0  0  0  0  0  0  0  0  0  0  0  0
   23.6437  -19.7261  -15.0665 C   0  0  0  0  0  0  0  0  0  0  0  0
   22.2604  -19.5753  -15.5774 C   0  0  0  0  0  0  0  0  0  0  0  0
   22.0384  -19.0020  -16.6705 O   0  0  0  0  0  0  0  0  0  0  0  0
   25.7122  -21.5183  -14.3061 C   0  0  0  0  0  0  0  0  0  0  0  0
   25.4318  -22.7436  -14.3115 O   0  0  0  0  0  0  0  0  0  0  0  0
   21.1815  -20.0628  -14.8617 O   0  0  0  0  0  0  0  0  0  0  0  0
   26.7476  -19.0268   -6.0693 O   0  0  0  0  0  0  0  0  0  0  0  0
   26.8306  -19.6879   -7.2981 C   0  0  0  0  0  0  0  0  0  0  0  0
   26.7166  -21.0590   -7.3645 C   0  0  0  0  0  0  0  0  0  0  0  0
   26.8020  -21.6999   -8.5984 C   0  0  0  0  0  0  0  0  0  0  0  0
   26.9973  -21.0289   -9.7764 C   0  0  0  0  0  0  0  0  0  0  0  0
   27.0802  -21.7399  -11.0760 C   0  0  0  0  0  0  0  0  0  0  0  0
   25.7522  -21.6305  -11.7938 C   0  0  2  0  0  0  0  0  0  0  0  0
   25.8759  -20.8983  -13.0365 N   0  0  0  0  0  0  0  0  0  0  0  0
   24.7352  -20.9708  -10.9545 C   0  0  0  0  0  0  0  0  0  0  0  0
   24.2187  -21.6518   -9.8652 O   0  0  0  0  0  0  0  0  0  0  0  0
   27.1113  -19.6425   -9.6974 C   0  0  0  0  0  0  0  0  0  0  0  0
   27.0276  -19.0034   -8.4789 C   0  0  0  0  0  0  0  0  0  0  0  0
   24.2877  -19.8118  -11.1522 O   0  0  0  0  0  0  0  0  0  0  0  0
  2  1  1  0
  3  2  2  0
  4  3  1  0
  5  4  2  0
  5 11  1  0
  6  5  1  0
  7  6  1  0
  7  8  1  6
  9  7  1  0
  9 10  2  0
 11 12  2  0
 12  2  1  0
 13  9  1  0
 14 13  1  0
 14 15  1  6
 15 16  1  0
 16 17  1  0
 17 21  1  0
 18 17  2  0
 19 14  1  0
 20 19  2  0
 23 22  1  0
 23 24  2  0
 25 24  1  0
 26 25  2  0
 27 26  1  0
 28 27  1  1
 28 29  1  0
 29 19  1  0
 30 31  1  0
 30 28  1  0
 32 33  2  0
 32 26  1  0
 33 23  1  0
 34 30  2  0
M  END
$$$$
