YEY.pdb
     RDKit          3D

 34 35  0  0  1  0  0  0  0  0999 V2000
   23.9267  -10.4806  -23.4535 O   0  0  0  0  0  0  0  0  0  0  0  0
   23.3192  -11.6531  -23.0530 C   0  0  0  0  0  0  0  0  0  0  0  0
   23.7467  -12.8570  -23.5844 C   0  0  0  0  0  0  0  0  0  0  0  0
   23.1482  -14.0452  -23.1937 C   0  0  0  0  0  0  0  0  0  0  0  0
   22.1174  -14.0706  -22.2724 C   0  0  0  0  0  0  0  0  0  0  0  0
   21.4805  -15.3476  -21.8580 C   0  0  0  0  0  0  0  0  0  0  0  0
   22.1181  -15.7845  -20.5819 C   0  0  2  0  0  0  0  0  0  0  0  0
   23.4849  -16.1286  -20.8085 N   0  0  0  0  0  0  0  0  0  0  0  0
   21.3981  -16.9223  -19.9327 C   0  0  0  0  0  0  0  0  0  0  0  0
   21.7305  -18.1055  -20.2011 O   0  0  0  0  0  0  0  0  0  0  0  0
   21.6993  -12.8588  -21.7485 C   0  0  0  0  0  0  0  0  0  0  0  0
   22.2926  -11.6741  -22.1351 C   0  0  0  0  0  0  0  0  0  0  0  0
   20.3437  -16.7290  -19.0160 N   0  0  0  0  0  0  0  0  0  0  0  0
   19.5898  -17.7919  -18.4097 C   0  0  1  0  0  0  0  0  0  0  0  0
   19.5714  -17.6669  -16.9012 C   0  0  0  0  0  0  0  0  0  0  0  0
   18.2545  -17.1295  -16.3986 C   0  0  0  0  0  0  0  0  0  0  0  0
   17.7642  -18.0076  -15.3097 C   0  0  0  0  0  0  0  0  0  0  0  0
   16.5630  -17.9755  -14.9507 O   0  0  0  0  0  0  0  0  0  0  0  0
   18.1477  -17.7476  -18.8436 C   0  0  0  0  0  0  0  0  0  0  0  0
   17.5769  -16.6534  -19.0819 O   0  0  0  0  0  0  0  0  0  0  0  0
   18.6186  -18.8829  -14.6636 O   0  0  0  0  0  0  0  0  0  0  0  0
   15.3491  -24.2095  -15.9996 O   0  0  0  0  0  0  0  0  0  0  0  0
   15.4030  -23.2309  -16.9961 C   0  0  0  0  0  0  0  0  0  0  0  0
   16.5911  -22.9426  -17.6306 C   0  0  0  0  0  0  0  0  0  0  0  0
   16.6249  -21.9639  -18.6214 C   0  0  0  0  0  0  0  0  0  0  0  0
   15.5186  -21.2557  -19.0096 C   0  0  0  0  0  0  0  0  0  0  0  0
   15.5858  -20.2215  -20.0712 C   0  0  0  0  0  0  0  0  0  0  0  0
   15.9986  -18.9001  -19.4594 C   0  0  2  0  0  0  0  0  0  0  0  0
   17.3719  -18.9293  -19.0024 N   0  0  0  0  0  0  0  0  0  0  0  0
   15.1300  -18.5328  -18.3260 C   0  0  0  0  0  0  0  0  0  0  0  0
   13.7756  -18.3512  -18.5490 O   0  0  0  0  0  0  0  0  0  0  0  0
   14.3224  -21.5555  -18.3610 C   0  0  0  0  0  0  0  0  0  0  0  0
   14.2834  -22.5230  -17.3799 C   0  0  0  0  0  0  0  0  0  0  0  0
   15.5287  -18.3669  -17.1444 O   0  0  0  0  0  0  0  0  0  0  0  0
  2  1  1  0
  3  2  2  0
  4  3  1  0
  5  4  2  0
  5 11  1  0
  6  5  1  0
  7  6  1  0
  7  8  1  6
  9  7  1  0
  9 10  2  0
 11 12  2  0
 12  2  1  0
 13  9  1  0
 14 13  1  0
 14 15  1  1
 15 16  1  0
 16 17  1  0
 17 21  1  0
 18 17  2  0
 19 14  1  0
 20 19  2  0
 23 22  1  0
 23 24  2  0
 25 24  1  0
 26 25  2  0
 27 26  1  0
 28 27  1  1
 28 29  1  0
 29 19  1  0
 30 31  1  0
 30 28  1  0
 32 33  2  0
 32 26  1  0
 33 23  1  0
 34 30  2  0
M  END
$$$$
