PVI.pdb
     RDKit          3D

 23 23  0  0  1  0  0  0  0  0999 V2000
   11.0937  -17.2214   19.2972 N   0  0  0  0  0  0  0  0  0  0  0  0
   12.1828  -16.5319   18.6651 C   0  0  0  0  0  0  0  0  0  0  0  0
   13.3661  -16.5692   19.5715 C   0  0  0  0  0  0  0  0  0  0  0  0
   13.0132  -17.5804   20.6361 C   0  0  0  0  0  0  0  0  0  0  0  0
   11.5229  -17.5790   20.6273 C   0  0  1  0  0  0  0  0  0  0  0  0
   10.9502  -16.6209   21.6493 C   0  0  0  0  0  0  0  0  0  0  0  0
   11.6714  -15.7669   22.2008 O   0  0  0  0  0  0  0  0  0  0  0  0
    7.3032  -15.0236   21.5781 C   0  0  0  0  0  0  0  0  0  0  0  0
    7.5656  -15.6541   22.9371 C   0  0  2  0  0  0  0  0  0  0  0  0
    6.9562  -14.7592   23.9618 C   0  0  0  0  0  0  0  0  0  0  0  0
    8.9863  -16.0123   23.0608 C   0  0  2  0  0  0  0  0  0  0  0  0
    9.5829  -16.7125   21.9666 N   0  0  0  0  0  0  0  0  0  0  0  0
    9.4374  -16.4637   24.4055 C   0  0  0  0  0  0  0  0  0  0  0  0
    9.7709  -17.6618   24.5946 O   0  0  0  0  0  0  0  0  0  0  0  0
   10.0158  -12.4507   28.2537 C   0  0  0  0  0  0  0  0  0  0  0  0
   10.3069  -13.5822   27.2954 C   0  0  0  0  0  0  0  0  0  0  0  0
    9.8519  -14.9242   27.7812 C   0  0  2  0  0  0  0  0  0  0  0  0
   10.4799  -15.2900   29.1091 C   0  0  0  0  0  0  0  0  0  0  0  0
   10.0560  -16.0571   26.8186 C   0  0  2  0  0  0  0  0  0  0  0  0
    9.5159  -15.6213   25.5207 N   0  0  0  0  0  0  0  0  0  0  0  0
    9.2773  -17.2195   27.3292 C   0  0  0  0  0  0  0  0  0  0  0  0
    9.8142  -18.2869   27.9996 O   0  0  0  0  0  0  0  0  0  0  0  0
    8.0372  -17.2196   27.1290 O   0  0  0  0  0  0  0  0  0  0  0  0
  1  5  1  0
  1  2  1  0
  2  3  1  0
  3  4  1  0
  5  4  1  0
  6  7  2  0
  5  6  1  1
  9  8  1  6
  9 11  1  0
 10  9  1  0
 11 12  1  6
 12  6  1  0
 13 20  1  0
 13 11  1  0
 14 13  2  0
 15 16  1  0
 17 16  1  0
 17 19  1  0
 17 18  1  1
 19 20  1  6
 19 21  1  0
 21 22  1  0
 23 21  2  0
M  END
$$$$
