PVI.pdb
     RDKit          3D

 23 23  0  0  1  0  0  0  0  0999 V2000
   11.0128  -17.3031   18.5068 N   0  0  0  0  0  0  0  0  0  0  0  0
   11.7640  -18.4553   18.9179 C   0  0  0  0  0  0  0  0  0  0  0  0
   10.8806  -19.3405   19.7296 C   0  0  0  0  0  0  0  0  0  0  0  0
    9.4853  -18.8030   19.5180 C   0  0  0  0  0  0  0  0  0  0  0  0
    9.7210  -17.3796   19.1446 C   0  0  1  0  0  0  0  0  0  0  0  0
    9.6627  -16.4606   20.3455 C   0  0  0  0  0  0  0  0  0  0  0  0
   10.6940  -16.1777   20.9858 O   0  0  0  0  0  0  0  0  0  0  0  0
    7.7543  -13.1031   20.4956 C   0  0  0  0  0  0  0  0  0  0  0  0
    7.3479  -13.9238   21.7099 C   0  0  2  0  0  0  0  0  0  0  0  0
    7.1928  -12.9753   22.8495 C   0  0  0  0  0  0  0  0  0  0  0  0
    8.2467  -15.0774   21.8625 C   0  0  2  0  0  0  0  0  0  0  0  0
    8.4175  -15.9293   20.7274 N   0  0  0  0  0  0  0  0  0  0  0  0
    8.1897  -15.7890   23.1686 C   0  0  0  0  0  0  0  0  0  0  0  0
    7.5689  -16.8783   23.2720 O   0  0  0  0  0  0  0  0  0  0  0  0
    9.3880  -13.1481   28.0868 C   0  0  0  0  0  0  0  0  0  0  0  0
    8.7305  -13.9566   26.9925 C   0  0  0  0  0  0  0  0  0  0  0  0
    9.4744  -15.2040   26.6259 C   0  0  2  0  0  0  0  0  0  0  0  0
   10.8881  -14.9091   26.1719 C   0  0  0  0  0  0  0  0  0  0  0  0
    8.8055  -16.0711   25.6001 C   0  0  2  0  0  0  0  0  0  0  0  0
    8.7951  -15.3141   24.3379 N   0  0  0  0  0  0  0  0  0  0  0  0
    7.4097  -16.3093   26.0619 C   0  0  0  0  0  0  0  0  0  0  0  0
    7.0302  -17.3040   26.9242 O   0  0  0  0  0  0  0  0  0  0  0  0
    6.5161  -15.5409   25.6273 O   0  0  0  0  0  0  0  0  0  0  0  0
  1  5  1  0
  1  2  1  0
  2  3  1  0
  3  4  1  0
  5  4  1  0
  6  7  2  0
  5  6  1  1
  9  8  1  6
  9 11  1  0
 10  9  1  0
 11 12  1  6
 12  6  1  0
 13 20  1  0
 13 11  1  0
 14 13  2  0
 15 16  1  0
 17 16  1  0
 17 19  1  0
 17 18  1  6
 19 20  1  6
 19 21  1  0
 21 22  1  0
 23 21  2  0
M  END
$$$$
