PVI.pdb
     RDKit          3D

 23 23  0  0  1  0  0  0  0  0999 V2000
    8.9234  -15.0497   19.0194 N   0  0  0  0  0  0  0  0  0  0  0  0
    7.8643  -15.0115   18.0511 C   0  0  0  0  0  0  0  0  0  0  0  0
    7.0738  -13.7634   18.2524 C   0  0  0  0  0  0  0  0  0  0  0  0
    7.9056  -12.9186   19.1878 C   0  0  0  0  0  0  0  0  0  0  0  0
    8.7415  -13.9239   19.9031 C   0  0  1  0  0  0  0  0  0  0  0  0
    8.1095  -14.3638   21.2059 C   0  0  0  0  0  0  0  0  0  0  0  0
    7.5878  -13.5345   21.9765 O   0  0  0  0  0  0  0  0  0  0  0  0
    6.2111  -17.9341   21.7725 C   0  0  0  0  0  0  0  0  0  0  0  0
    7.2613  -17.6532   22.8362 C   0  0  2  0  0  0  0  0  0  0  0  0
    6.7481  -18.2129   24.1191 C   0  0  0  0  0  0  0  0  0  0  0  0
    7.6628  -16.2395   22.7875 C   0  0  2  0  0  0  0  0  0  0  0  0
    8.1219  -15.7319   21.5326 N   0  0  0  0  0  0  0  0  0  0  0  0
    8.4003  -15.7228   23.9726 C   0  0  0  0  0  0  0  0  0  0  0  0
    9.6519  -15.8313   24.0388 O   0  0  0  0  0  0  0  0  0  0  0  0
    6.0358  -11.6604   26.6904 C   0  0  0  0  0  0  0  0  0  0  0  0
    7.0430  -12.5579   26.0096 C   0  0  0  0  0  0  0  0  0  0  0  0
    7.6420  -13.5943   26.9102 C   0  0  2  0  0  0  0  0  0  0  0  0
    8.4049  -12.9738   28.0610 C   0  0  0  0  0  0  0  0  0  0  0  0
    8.5222  -14.6021   26.2309 C   0  0  2  0  0  0  0  0  0  0  0  0
    7.7791  -15.1054   25.0645 N   0  0  0  0  0  0  0  0  0  0  0  0
    8.7597  -15.7087   27.1991 C   0  0  0  0  0  0  0  0  0  0  0  0
    9.8709  -15.8299   27.9912 O   0  0  0  0  0  0  0  0  0  0  0  0
    7.8751  -16.5953   27.2946 O   0  0  0  0  0  0  0  0  0  0  0  0
  1  5  1  0
  1  2  1  0
  2  3  1  0
  3  4  1  0
  5  4  1  0
  6  7  2  0
  5  6  1  1
  9  8  1  6
  9 11  1  0
 10  9  1  0
 11 12  1  6
 12  6  1  0
 13 20  1  0
 13 11  1  0
 14 13  2  0
 15 16  1  0
 17 16  1  0
 17 19  1  0
 17 18  1  1
 19 20  1  6
 19 21  1  0
 21 22  1  0
 23 21  2  0
M  END
$$$$
