PVI.pdb
     RDKit          3D

 23 23  0  0  1  0  0  0  0  0999 V2000
    7.6641  -14.9631   18.6165 N   0  0  0  0  0  0  0  0  0  0  0  0
    6.9943  -13.7639   18.1991 C   0  0  0  0  0  0  0  0  0  0  0  0
    7.5049  -12.6212   19.0094 C   0  0  0  0  0  0  0  0  0  0  0  0
    8.7301  -13.1552   19.7125 C   0  0  0  0  0  0  0  0  0  0  0  0
    8.4871  -14.6251   19.7521 C   0  0  1  0  0  0  0  0  0  0  0  0
    7.8218  -15.0558   21.0414 C   0  0  0  0  0  0  0  0  0  0  0  0
    6.7680  -14.5151   21.4297 O   0  0  0  0  0  0  0  0  0  0  0  0
    6.6059  -18.3168   22.1872 C   0  0  0  0  0  0  0  0  0  0  0  0
    7.5810  -17.8862   23.2721 C   0  0  2  0  0  0  0  0  0  0  0  0
    7.0045  -18.3173   24.5775 C   0  0  0  0  0  0  0  0  0  0  0  0
    7.9480  -16.4742   23.0887 C   0  0  2  0  0  0  0  0  0  0  0  0
    8.4175  -16.0820   21.7968 N   0  0  0  0  0  0  0  0  0  0  0  0
    8.6505  -15.8227   24.2278 C   0  0  0  0  0  0  0  0  0  0  0  0
    9.9068  -15.7597   24.2470 O   0  0  0  0  0  0  0  0  0  0  0  0
    5.8578  -12.0095   26.8588 C   0  0  0  0  0  0  0  0  0  0  0  0
    7.0209  -12.7254   26.2121 C   0  0  0  0  0  0  0  0  0  0  0  0
    7.7154  -13.6984   27.1148 C   0  0  2  0  0  0  0  0  0  0  0  0
    8.4016  -13.0074   28.2737 C   0  0  0  0  0  0  0  0  0  0  0  0
    8.6993  -14.6086   26.4402 C   0  0  2  0  0  0  0  0  0  0  0  0
    7.9906  -15.2573   25.3252 N   0  0  0  0  0  0  0  0  0  0  0  0
    9.1175  -15.6301   27.4402 C   0  0  0  0  0  0  0  0  0  0  0  0
    8.5100  -16.8451   27.6180 O   0  0  0  0  0  0  0  0  0  0  0  0
   10.0995  -15.3553   28.1737 O   0  0  0  0  0  0  0  0  0  0  0  0
  1  5  1  0
  1  2  1  0
  2  3  1  0
  3  4  1  0
  5  4  1  0
  6  7  2  0
  5  6  1  1
  9  8  1  6
  9 11  1  0
 10  9  1  0
 11 12  1  6
 12  6  1  0
 13 20  1  0
 13 11  1  0
 14 13  2  0
 15 16  1  0
 17 16  1  0
 17 19  1  0
 17 18  1  1
 19 20  1  6
 19 21  1  0
 21 22  1  0
 23 21  2  0
M  END
$$$$
