PVI.pdb
     RDKit          3D

 23 23  0  0  1  0  0  0  0  0999 V2000
    8.8950  -14.5148   18.5285 N   0  0  0  0  0  0  0  0  0  0  0  0
    7.7236  -14.2912   17.7293 C   0  0  0  0  0  0  0  0  0  0  0  0
    6.9159  -13.2047   18.3538 C   0  0  0  0  0  0  0  0  0  0  0  0
    7.8232  -12.5880   19.3915 C   0  0  0  0  0  0  0  0  0  0  0  0
    8.7798  -13.6871   19.7045 C   0  0  1  0  0  0  0  0  0  0  0  0
    8.3314  -14.5082   20.8941 C   0  0  0  0  0  0  0  0  0  0  0  0
    7.2763  -14.2354   21.4991 O   0  0  0  0  0  0  0  0  0  0  0  0
    8.5573  -18.3927   21.3144 C   0  0  0  0  0  0  0  0  0  0  0  0
    9.1934  -17.7402   22.5322 C   0  0  2  0  0  0  0  0  0  0  0  0
    8.7974  -18.5479   23.7208 C   0  0  0  0  0  0  0  0  0  0  0  0
    8.9192  -16.2956   22.5310 C   0  0  2  0  0  0  0  0  0  0  0  0
    9.1309  -15.5897   21.3061 N   0  0  0  0  0  0  0  0  0  0  0  0
    9.3189  -15.5480   23.7544 C   0  0  0  0  0  0  0  0  0  0  0  0
   10.4827  -15.0829   23.8628 O   0  0  0  0  0  0  0  0  0  0  0  0
    6.0694  -12.0135   25.9761 C   0  0  0  0  0  0  0  0  0  0  0  0
    7.2644  -12.8170   25.5181 C   0  0  0  0  0  0  0  0  0  0  0  0
    7.7716  -13.7898   26.5382 C   0  0  2  0  0  0  0  0  0  0  0  0
    8.1727  -13.1036   27.8265 C   0  0  0  0  0  0  0  0  0  0  0  0
    8.9012  -14.6659   26.0822 C   0  0  2  0  0  0  0  0  0  0  0  0
    8.4632  -15.3198   24.8385 N   0  0  0  0  0  0  0  0  0  0  0  0
    9.1266  -15.6878   27.1420 C   0  0  0  0  0  0  0  0  0  0  0  0
   10.0868  -15.6058   28.1158 O   0  0  0  0  0  0  0  0  0  0  0  0
    8.3807  -16.6984   27.1411 O   0  0  0  0  0  0  0  0  0  0  0  0
  1  5  1  0
  1  2  1  0
  2  3  1  0
  3  4  1  0
  5  4  1  0
  6  7  2  0
  5  6  1  1
  9  8  1  6
  9 11  1  0
 10  9  1  0
 11 12  1  6
 12  6  1  0
 13 20  1  0
 13 11  1  0
 14 13  2  0
 15 16  1  0
 17 16  1  0
 17 19  1  0
 17 18  1  1
 19 20  1  6
 19 21  1  0
 21 22  1  0
 23 21  2  0
M  END
$$$$
