PVI.pdb
     RDKit          3D

 23 23  0  0  1  0  0  0  0  0999 V2000
    8.7164  -15.0124   18.8381 N   0  0  0  0  0  0  0  0  0  0  0  0
    7.5979  -14.9124   17.9437 C   0  0  0  0  0  0  0  0  0  0  0  0
    6.8717  -13.6404   18.2226 C   0  0  0  0  0  0  0  0  0  0  0  0
    7.7957  -12.8489   19.1171 C   0  0  0  0  0  0  0  0  0  0  0  0
    8.6372  -13.9009   19.7545 C   0  0  1  0  0  0  0  0  0  0  0  0
    8.0760  -14.3462   21.0875 C   0  0  0  0  0  0  0  0  0  0  0  0
    7.6441  -13.5152   21.9100 O   0  0  0  0  0  0  0  0  0  0  0  0
    6.2008  -17.9245   21.5130 C   0  0  0  0  0  0  0  0  0  0  0  0
    7.1655  -17.6511   22.6567 C   0  0  2  0  0  0  0  0  0  0  0  0
    6.5410  -18.1926   23.8973 C   0  0  0  0  0  0  0  0  0  0  0  0
    7.5919  -16.2441   22.6312 C   0  0  2  0  0  0  0  0  0  0  0  0
    8.0507  -15.7213   21.3824 N   0  0  0  0  0  0  0  0  0  0  0  0
    8.3475  -15.7630   23.8199 C   0  0  0  0  0  0  0  0  0  0  0  0
    9.6021  -15.8494   23.8528 O   0  0  0  0  0  0  0  0  0  0  0  0
    6.1164  -11.6515   26.4459 C   0  0  0  0  0  0  0  0  0  0  0  0
    7.1087  -12.5935   25.8047 C   0  0  0  0  0  0  0  0  0  0  0  0
    7.6636  -13.6232   26.7406 C   0  0  2  0  0  0  0  0  0  0  0  0
    8.4478  -12.9965   27.8736 C   0  0  0  0  0  0  0  0  0  0  0  0
    8.5045  -14.6868   26.0977 C   0  0  2  0  0  0  0  0  0  0  0  0
    7.7408  -15.2042   24.9508 N   0  0  0  0  0  0  0  0  0  0  0  0
    8.7029  -15.7657   27.1051 C   0  0  0  0  0  0  0  0  0  0  0  0
    9.8074  -15.8950   27.9054 O   0  0  0  0  0  0  0  0  0  0  0  0
    7.7895  -16.6190   27.2283 O   0  0  0  0  0  0  0  0  0  0  0  0
  1  5  1  0
  1  2  1  0
  2  3  1  0
  3  4  1  0
  5  4  1  0
  6  7  2  0
  5  6  1  1
  9  8  1  6
  9 11  1  0
 10  9  1  0
 11 12  1  6
 12  6  1  0
 13 20  1  0
 13 11  1  0
 14 13  2  0
 15 16  1  0
 17 16  1  0
 17 19  1  0
 17 18  1  1
 19 20  1  6
 19 21  1  0
 21 22  1  0
 23 21  2  0
M  END
$$$$
