PVI.pdb
     RDKit          3D

 23 23  0  0  1  0  0  0  0  0999 V2000
    7.5502  -19.1805   20.5043 N   0  0  0  0  0  0  0  0  0  0  0  0
    7.9824  -20.1341   21.4865 C   0  0  0  0  0  0  0  0  0  0  0  0
    7.4133  -19.7519   22.8106 C   0  0  0  0  0  0  0  0  0  0  0  0
    6.3737  -18.7008   22.5023 C   0  0  0  0  0  0  0  0  0  0  0  0
    6.8311  -18.1406   21.1993 C   0  0  1  0  0  0  0  0  0  0  0  0
    7.7039  -16.9178   21.3822 C   0  0  0  0  0  0  0  0  0  0  0  0
    8.9459  -17.0029   21.3205 O   0  0  0  0  0  0  0  0  0  0  0  0
    6.9010  -13.6163   19.5503 C   0  0  0  0  0  0  0  0  0  0  0  0
    7.1957  -13.2833   21.0049 C   0  0  2  0  0  0  0  0  0  0  0  0
    7.9215  -11.9813   21.0194 C   0  0  0  0  0  0  0  0  0  0  0  0
    7.8027  -14.4431   21.6746 C   0  0  2  0  0  0  0  0  0  0  0  0
    7.0849  -15.6782   21.6243 N   0  0  0  0  0  0  0  0  0  0  0  0
    8.4833  -14.1740   22.9706 C   0  0  0  0  0  0  0  0  0  0  0  0
    9.1884  -13.1423   23.1155 O   0  0  0  0  0  0  0  0  0  0  0  0
    6.6373  -11.3247   25.7265 C   0  0  0  0  0  0  0  0  0  0  0  0
    7.7640  -12.2456   25.3191 C   0  0  0  0  0  0  0  0  0  0  0  0
    7.6502  -13.6312   25.8768 C   0  0  2  0  0  0  0  0  0  0  0  0
    7.5689  -13.6297   27.3884 C   0  0  0  0  0  0  0  0  0  0  0  0
    8.7271  -14.5847   25.4491 C   0  0  2  0  0  0  0  0  0  0  0  0
    8.3979  -15.0202   24.0823 N   0  0  0  0  0  0  0  0  0  0  0  0
    8.6849  -15.7482   26.3779 C   0  0  0  0  0  0  0  0  0  0  0  0
    8.1700  -16.9791   26.0667 O   0  0  0  0  0  0  0  0  0  0  0  0
    9.1562  -15.5870   27.5310 O   0  0  0  0  0  0  0  0  0  0  0  0
  1  5  1  0
  1  2  1  0
  2  3  1  0
  3  4  1  0
  5  4  1  0
  6  7  2  0
  5  6  1  1
  9  8  1  6
  9 11  1  0
 10  9  1  0
 11 12  1  1
 12  6  1  0
 13 20  1  0
 13 11  1  0
 14 13  2  0
 15 16  1  0
 17 16  1  0
 17 19  1  0
 17 18  1  1
 19 20  1  6
 19 21  1  0
 21 22  1  0
 23 21  2  0
M  END
$$$$
