PVI.pdb
     RDKit          3D

 23 23  0  0  1  0  0  0  0  0999 V2000
    8.1270  -15.0689   19.0315 N   0  0  0  0  0  0  0  0  0  0  0  0
    7.1718  -14.2513   18.3386 C   0  0  0  0  0  0  0  0  0  0  0  0
    7.1135  -12.9158   18.9990 C   0  0  0  0  0  0  0  0  0  0  0  0
    8.3056  -12.8838   19.9256 C   0  0  0  0  0  0  0  0  0  0  0  0
    8.5752  -14.3265   20.1845 C   0  0  1  0  0  0  0  0  0  0  0  0
    7.8836  -14.8171   21.4380 C   0  0  0  0  0  0  0  0  0  0  0  0
    6.8711  -14.2388   21.8786 O   0  0  0  0  0  0  0  0  0  0  0  0
    6.4565  -18.0318   22.3981 C   0  0  0  0  0  0  0  0  0  0  0  0
    7.4575  -17.7454   23.5069 C   0  0  2  0  0  0  0  0  0  0  0  0
    6.8290  -18.1758   24.7883 C   0  0  0  0  0  0  0  0  0  0  0  0
    7.9603  -16.3687   23.3889 C   0  0  2  0  0  0  0  0  0  0  0  0
    8.4069  -15.9427   22.0996 N   0  0  0  0  0  0  0  0  0  0  0  0
    8.7794  -15.8666   24.5258 C   0  0  0  0  0  0  0  0  0  0  0  0
   10.0317  -15.9841   24.5070 O   0  0  0  0  0  0  0  0  0  0  0  0
    6.6635  -11.7204   27.2722 C   0  0  0  0  0  0  0  0  0  0  0  0
    7.6217  -12.6500   26.5643 C   0  0  0  0  0  0  0  0  0  0  0  0
    8.2449  -13.6784   27.4577 C   0  0  2  0  0  0  0  0  0  0  0  0
    9.0834  -13.0486   28.5494 C   0  0  0  0  0  0  0  0  0  0  0  0
    9.0633  -14.7237   26.7583 C   0  0  2  0  0  0  0  0  0  0  0  0
    8.2373  -15.2540   25.6616 N   0  0  0  0  0  0  0  0  0  0  0  0
    9.3479  -15.8003   27.7473 C   0  0  0  0  0  0  0  0  0  0  0  0
   10.5308  -15.9495   28.4222 O   0  0  0  0  0  0  0  0  0  0  0  0
    8.4352  -16.6319   27.9779 O   0  0  0  0  0  0  0  0  0  0  0  0
  1  5  1  0
  1  2  1  0
  2  3  1  0
  3  4  1  0
  5  4  1  0
  6  7  2  0
  5  6  1  1
  9  8  1  6
  9 11  1  0
 10  9  1  0
 11 12  1  6
 12  6  1  0
 13 20  1  0
 13 11  1  0
 14 13  2  0
 15 16  1  0
 17 16  1  0
 17 19  1  0
 17 18  1  1
 19 20  1  6
 19 21  1  0
 21 22  1  0
 23 21  2  0
M  END
$$$$
