PVI.pdb
     RDKit          3D

 23 23  0  0  1  0  0  0  0  0999 V2000
    8.8262  -15.0217   18.7517 N   0  0  0  0  0  0  0  0  0  0  0  0
    7.7792  -14.8106   17.7925 C   0  0  0  0  0  0  0  0  0  0  0  0
    7.1465  -13.4863   18.0553 C   0  0  0  0  0  0  0  0  0  0  0  0
    8.0753  -12.7927   19.0232 C   0  0  0  0  0  0  0  0  0  0  0  0
    8.7830  -13.9240   19.6868 C   0  0  1  0  0  0  0  0  0  0  0  0
    8.1027  -14.3433   20.9721 C   0  0  0  0  0  0  0  0  0  0  0  0
    7.5302  -13.5057   21.6961 O   0  0  0  0  0  0  0  0  0  0  0  0
    6.1813  -17.8301   21.4202 C   0  0  0  0  0  0  0  0  0  0  0  0
    7.1178  -17.5808   22.5924 C   0  0  2  0  0  0  0  0  0  0  0  0
    6.4342  -18.0873   23.8165 C   0  0  0  0  0  0  0  0  0  0  0  0
    7.5959  -16.1905   22.5690 C   0  0  2  0  0  0  0  0  0  0  0  0
    8.1287  -15.7018   21.3359 N   0  0  0  0  0  0  0  0  0  0  0  0
    8.3147  -15.7203   23.7846 C   0  0  0  0  0  0  0  0  0  0  0  0
    9.5474  -15.9336   23.9160 O   0  0  0  0  0  0  0  0  0  0  0  0
    6.0031  -11.7352   27.0486 C   0  0  0  0  0  0  0  0  0  0  0  0
    6.4489  -13.1134   26.6181 C   0  0  0  0  0  0  0  0  0  0  0  0
    7.9241  -13.2318   26.3861 C   0  0  2  0  0  0  0  0  0  0  0  0
    8.4110  -12.2674   25.3257 C   0  0  0  0  0  0  0  0  0  0  0  0
    8.4113  -14.6106   26.0496 C   0  0  2  0  0  0  0  0  0  0  0  0
    7.6946  -15.0359   24.8365 N   0  0  0  0  0  0  0  0  0  0  0  0
    8.0529  -15.4990   27.1901 C   0  0  0  0  0  0  0  0  0  0  0  0
    8.7550  -15.5875   28.3632 O   0  0  0  0  0  0  0  0  0  0  0  0
    7.0317  -16.2196   27.0650 O   0  0  0  0  0  0  0  0  0  0  0  0
  1  5  1  0
  1  2  1  0
  2  3  1  0
  3  4  1  0
  5  4  1  0
  6  7  2  0
  5  6  1  1
  9  8  1  6
  9 11  1  0
 10  9  1  0
 11 12  1  6
 12  6  1  0
 13 20  1  0
 13 11  1  0
 14 13  2  0
 15 16  1  0
 17 16  1  0
 17 19  1  0
 17 18  1  6
 19 20  1  6
 19 21  1  0
 21 22  1  0
 23 21  2  0
M  END
$$$$
