WFH.pdb
     RDKit          3D

 36 39  0  0  1  0  0  0  0  0999 V2000
   10.7354  -15.4003   21.5035 N   0  0  0  0  0  0  0  0  0  0  0  0
    9.4249  -15.6050   22.0128 C   0  0  1  0  0  0  0  0  0  0  0  0
    8.5674  -16.5741   21.2756 C   0  0  0  0  0  0  0  0  0  0  0  0
    7.9472  -15.8977   20.1149 C   0  0  0  0  0  0  0  0  0  0  0  0
    7.1402  -16.4852   19.1537 C   0  0  0  0  0  0  0  0  0  0  0  0
    6.7347  -15.5685   18.2661 N   0  0  0  0  0  0  0  0  0  0  0  0
    7.2723  -14.3892   18.6424 C   0  0  0  0  0  0  0  0  0  0  0  0
    7.1778  -13.1471   18.0822 C   0  0  0  0  0  0  0  0  0  0  0  0
    7.8216  -12.0585   18.6292 C   0  0  0  0  0  0  0  0  0  0  0  0
    8.5692  -12.2385   19.7588 C   0  0  0  0  0  0  0  0  0  0  0  0
    8.6754  -13.4977   20.3421 C   0  0  0  0  0  0  0  0  0  0  0  0
    8.0301  -14.5703   19.7888 C   0  0  0  0  0  0  0  0  0  0  0  0
    9.5078  -15.9306   23.4786 C   0  0  0  0  0  0  0  0  0  0  0  0
   10.6333  -16.2129   23.9919 O   0  0  0  0  0  0  0  0  0  0  0  0
    8.3936  -15.9414   24.3302 N   0  0  0  0  0  0  0  0  0  0  0  0
    8.5600  -16.0756   25.8052 C   0  0  1  0  0  0  0  0  0  0  0  0
    7.3058  -15.5200   26.3738 C   0  0  0  0  0  0  0  0  0  0  0  0
    7.1425  -14.0742   26.3899 C   0  0  0  0  0  0  0  0  0  0  0  0
    6.0521  -13.4530   25.8333 C   0  0  0  0  0  0  0  0  0  0  0  0
    5.9021  -12.0685   25.8509 C   0  0  0  0  0  0  0  0  0  0  0  0
    6.8715  -11.2840   26.4426 C   0  0  0  0  0  0  0  0  0  0  0  0
    7.9651  -11.9107   27.0007 C   0  0  0  0  0  0  0  0  0  0  0  0
    8.1193  -13.2840   26.9862 C   0  0  0  0  0  0  0  0  0  0  0  0
    8.7229  -17.5100   26.0753 C   0  0  0  0  0  0  0  0  0  0  0  0
    8.2962  -18.3746   25.2319 O   0  0  0  0  0  0  0  0  0  0  0  0
    9.3469  -18.0721   27.2405 N   0  0  0  0  0  0  0  0  0  0  0  0
   10.3151  -19.1257   27.1256 C   0  0  1  0  0  0  0  0  0  0  0  0
   11.3345  -18.8226   26.0783 C   0  0  0  0  0  0  0  0  0  0  0  0
   12.3287  -19.8610   25.8062 C   0  0  0  0  0  0  0  0  0  0  0  0
   13.5134  -20.1538   26.4238 C   0  0  0  0  0  0  0  0  0  0  0  0
   14.0824  -21.2497   25.8307 N   0  0  0  0  0  0  0  0  0  0  0  0
   13.2449  -21.6072   24.8694 C   0  0  0  0  0  0  0  0  0  0  0  0
   12.1874  -20.8012   24.8256 N   0  0  0  0  0  0  0  0  0  0  0  0
   10.9693  -19.5159   28.3874 C   0  0  0  0  0  0  0  0  0  0  0  0
   11.5211  -18.6979   29.3265 O   0  0  0  0  0  0  0  0  0  0  0  0
   11.0237  -20.7716   28.6254 O   0  0  0  0  0  0  0  0  0  0  0  0
  2  1  1  6
  3  2  1  0
  4  3  1  0
  4  5  2  0
  6  5  1  0
  7 12  2  0
  7  6  1  0
  8  7  1  0
  9  8  2  0
 10  9  1  0
 10 11  2  0
 11 12  1  0
 12  4  1  0
 13  2  1  0
 14 13  2  0
 15 13  1  0
 16 24  1  0
 16 15  1  0
 16 17  1  1
 18 17  1  0
 19 18  2  0
 20 19  1  0
 21 22  1  0
 21 20  2  0
 22 23  2  0
 23 18  1  0
 24 25  2  0
 26 27  1  0
 26 24  1  0
 27 28  1  6
 28 29  1  0
 29 30  2  0
 30 31  1  0
 32 31  1  0
 33 29  1  0
 33 32  2  0
 34 35  1  0
 34 27  1  0
 36 34  2  0
M  END
$$$$
