WFH.pdb
     RDKit          3D

 36 39  0  0  1  0  0  0  0  0999 V2000
   12.3019  -16.6439   22.1019 N   0  0  0  0  0  0  0  0  0  0  0  0
   11.0465  -16.0409   22.3828 C   0  0  1  0  0  0  0  0  0  0  0  0
    9.8914  -16.4911   21.5577 C   0  0  0  0  0  0  0  0  0  0  0  0
    9.5569  -15.4439   20.5673 C   0  0  0  0  0  0  0  0  0  0  0  0
   10.2994  -15.1007   19.4488 C   0  0  0  0  0  0  0  0  0  0  0  0
    9.6835  -14.1286   18.7643 N   0  0  0  0  0  0  0  0  0  0  0  0
    8.5462  -13.8366   19.4295 C   0  0  0  0  0  0  0  0  0  0  0  0
    7.5666  -12.9230   19.1625 C   0  0  0  0  0  0  0  0  0  0  0  0
    6.4726  -12.7768   19.9874 C   0  0  0  0  0  0  0  0  0  0  0  0
    6.3767  -13.5703   21.0958 C   0  0  0  0  0  0  0  0  0  0  0  0
    7.3662  -14.5063   21.3819 C   0  0  0  0  0  0  0  0  0  0  0  0
    8.4472  -14.6417   20.5536 C   0  0  0  0  0  0  0  0  0  0  0  0
   10.7616  -16.1516   23.8553 C   0  0  0  0  0  0  0  0  0  0  0  0
   11.7280  -16.1766   24.6771 O   0  0  0  0  0  0  0  0  0  0  0  0
    9.4659  -16.2307   24.3860 N   0  0  0  0  0  0  0  0  0  0  0  0
    9.2141  -15.9650   25.8308 C   0  0  1  0  0  0  0  0  0  0  0  0
    7.7822  -15.5771   25.8944 C   0  0  0  0  0  0  0  0  0  0  0  0
    7.4614  -14.1776   26.1309 C   0  0  0  0  0  0  0  0  0  0  0  0
    8.4211  -13.2484   26.4470 C   0  0  0  0  0  0  0  0  0  0  0  0
    8.1075  -11.9104   26.6734 C   0  0  0  0  0  0  0  0  0  0  0  0
    6.7957  -11.4913   26.5806 C   0  0  0  0  0  0  0  0  0  0  0  0
    5.8343  -12.4268   26.2631 C   0  0  0  0  0  0  0  0  0  0  0  0
    6.1395  -13.7556   26.0374 C   0  0  0  0  0  0  0  0  0  0  0  0
    9.4974  -17.2203   26.5387 C   0  0  0  0  0  0  0  0  0  0  0  0
    9.2429  -17.3233   27.7899 O   0  0  0  0  0  0  0  0  0  0  0  0
   10.0511  -18.4047   25.9441 N   0  0  0  0  0  0  0  0  0  0  0  0
   10.3478  -19.5624   26.7393 C   0  0  1  0  0  0  0  0  0  0  0  0
   10.9972  -20.6338   25.9280 C   0  0  0  0  0  0  0  0  0  0  0  0
   10.3682  -20.9649   24.6491 C   0  0  0  0  0  0  0  0  0  0  0  0
    9.1470  -20.6262   24.1348 C   0  0  0  0  0  0  0  0  0  0  0  0
    9.0195  -21.1453   22.8735 N   0  0  0  0  0  0  0  0  0  0  0  0
   10.1538  -21.7864   22.6378 C   0  0  0  0  0  0  0  0  0  0  0  0
   10.9822  -21.6998   23.6753 N   0  0  0  0  0  0  0  0  0  0  0  0
   11.1232  -19.2989   27.9648 C   0  0  0  0  0  0  0  0  0  0  0  0
   11.4901  -20.1920   28.9257 O   0  0  0  0  0  0  0  0  0  0  0  0
   11.4933  -18.0877   28.1441 O   0  0  0  0  0  0  0  0  0  0  0  0
  2  1  1  1
  3  2  1  0
  4  3  1  0
  4  5  2  0
  6  5  1  0
  7 12  2  0
  7  6  1  0
  8  7  1  0
  9  8  2  0
 10  9  1  0
 10 11  2  0
 11 12  1  0
 12  4  1  0
 13  2  1  0
 14 13  2  0
 15 13  1  0
 16 24  1  0
 16 15  1  0
 16 17  1  6
 18 17  1  0
 19 18  2  0
 20 19  1  0
 21 22  1  0
 21 20  2  0
 22 23  2  0
 23 18  1  0
 24 25  2  0
 26 27  1  0
 26 24  1  0
 27 28  1  6
 28 29  1  0
 29 30  2  0
 30 31  1  0
 32 31  1  0
 33 29  1  0
 33 32  2  0
 34 35  1  0
 34 27  1  0
 36 34  2  0
M  END
$$$$
