WFH.pdb
     RDKit          3D

 36 39  0  0  1  0  0  0  0  0999 V2000
   11.5877  -16.5496   21.0306 N   0  0  0  0  0  0  0  0  0  0  0  0
   10.1938  -16.3103   21.1661 C   0  0  1  0  0  0  0  0  0  0  0  0
    9.2893  -17.1502   20.3329 C   0  0  0  0  0  0  0  0  0  0  0  0
    8.5449  -16.2856   19.3908 C   0  0  0  0  0  0  0  0  0  0  0  0
    7.5924  -16.6969   18.4723 C   0  0  0  0  0  0  0  0  0  0  0  0
    7.1070  -15.6427   17.8046 N   0  0  0  0  0  0  0  0  0  0  0  0
    7.7370  -14.5487   18.2816 C   0  0  0  0  0  0  0  0  0  0  0  0
    7.6170  -13.2314   17.9416 C   0  0  0  0  0  0  0  0  0  0  0  0
    8.3716  -12.2561   18.5565 C   0  0  0  0  0  0  0  0  0  0  0  0
    9.2577  -12.6282   19.5279 C   0  0  0  0  0  0  0  0  0  0  0  0
    9.3919  -13.9663   19.8863 C   0  0  0  0  0  0  0  0  0  0  0  0
    8.6355  -14.9247   19.2680 C   0  0  0  0  0  0  0  0  0  0  0  0
    9.8216  -16.3588   22.6224 C   0  0  0  0  0  0  0  0  0  0  0  0
   10.5830  -16.9592   23.4408 O   0  0  0  0  0  0  0  0  0  0  0  0
    8.6602  -15.7684   23.1414 N   0  0  0  0  0  0  0  0  0  0  0  0
    8.5892  -15.3477   24.5695 C   0  0  1  0  0  0  0  0  0  0  0  0
    7.8406  -14.0656   24.5435 C   0  0  0  0  0  0  0  0  0  0  0  0
    7.5594  -13.4106   25.8120 C   0  0  0  0  0  0  0  0  0  0  0  0
    6.2816  -13.2498   26.2872 C   0  0  0  0  0  0  0  0  0  0  0  0
    6.0189  -12.6209   27.5018 C   0  0  0  0  0  0  0  0  0  0  0  0
    7.0656  -12.1395   28.2620 C   0  0  0  0  0  0  0  0  0  0  0  0
    8.3476  -12.3025   27.7822 C   0  0  0  0  0  0  0  0  0  0  0  0
    8.6142  -12.9256   26.5778 C   0  0  0  0  0  0  0  0  0  0  0  0
    7.8712  -16.4136   25.2805 C   0  0  0  0  0  0  0  0  0  0  0  0
    6.9384  -17.0636   24.6903 O   0  0  0  0  0  0  0  0  0  0  0  0
    8.1225  -16.8280   26.6326 N   0  0  0  0  0  0  0  0  0  0  0  0
    8.4496  -18.1915   26.9398 C   0  0  1  0  0  0  0  0  0  0  0  0
    8.9897  -18.9084   25.7473 C   0  0  0  0  0  0  0  0  0  0  0  0
    8.0112  -19.4298   24.7926 C   0  0  0  0  0  0  0  0  0  0  0  0
    6.6445  -19.3782   24.7891 C   0  0  0  0  0  0  0  0  0  0  0  0
    6.1646  -19.9789   23.6553 N   0  0  0  0  0  0  0  0  0  0  0  0
    7.2348  -20.3839   22.9889 C   0  0  0  0  0  0  0  0  0  0  0  0
    8.3540  -20.0732   23.6376 N   0  0  0  0  0  0  0  0  0  0  0  0
    9.3379  -18.3764   28.1014 C   0  0  0  0  0  0  0  0  0  0  0  0
    9.9686  -17.4125   28.8286 O   0  0  0  0  0  0  0  0  0  0  0  0
    9.5380  -19.5857   28.4669 O   0  0  0  0  0  0  0  0  0  0  0  0
  2  1  1  1
  3  2  1  0
  4  3  1  0
  4  5  2  0
  6  5  1  0
  7 12  2  0
  7  6  1  0
  8  7  1  0
  9  8  2  0
 10  9  1  0
 10 11  2  0
 11 12  1  0
 12  4  1  0
 13  2  1  0
 14 13  2  0
 15 13  1  0
 16 24  1  0
 16 15  1  0
 16 17  1  6
 18 17  1  0
 19 18  2  0
 20 19  1  0
 21 22  1  0
 21 20  2  0
 22 23  2  0
 23 18  1  0
 24 25  2  0
 26 27  1  0
 26 24  1  0
 27 28  1  6
 28 29  1  0
 29 30  2  0
 30 31  1  0
 32 31  1  0
 33 29  1  0
 33 32  2  0
 34 35  1  0
 34 27  1  0
 36 34  2  0
M  END
$$$$
