WFH.pdb
     RDKit          3D

 36 39  0  0  1  0  0  0  0  0999 V2000
    7.4530  -18.0456   21.6771 N   0  0  0  0  0  0  0  0  0  0  0  0
    7.0361  -16.6959   21.8294 C   0  0  1  0  0  0  0  0  0  0  0  0
    6.0819  -16.1743   20.8119 C   0  0  0  0  0  0  0  0  0  0  0  0
    6.8235  -15.3927   19.7978 C   0  0  0  0  0  0  0  0  0  0  0  0
    7.0556  -15.7605   18.4821 C   0  0  0  0  0  0  0  0  0  0  0  0
    7.7376  -14.7998   17.8459 N   0  0  0  0  0  0  0  0  0  0  0  0
    7.9513  -13.8101   18.7381 C   0  0  0  0  0  0  0  0  0  0  0  0
    8.5981  -12.6144   18.6054 C   0  0  0  0  0  0  0  0  0  0  0  0
    8.7126  -11.7354   19.6603 C   0  0  0  0  0  0  0  0  0  0  0  0
    8.1619  -12.0794   20.8628 C   0  0  0  0  0  0  0  0  0  0  0  0
    7.4993  -13.2938   21.0144 C   0  0  0  0  0  0  0  0  0  0  0  0
    7.3922  -14.1573   19.9581 C   0  0  0  0  0  0  0  0  0  0  0  0
    6.5316  -16.4880   23.2308 C   0  0  0  0  0  0  0  0  0  0  0  0
    5.5200  -15.7474   23.4258 O   0  0  0  0  0  0  0  0  0  0  0  0
    7.1237  -17.0753   24.3584 N   0  0  0  0  0  0  0  0  0  0  0  0
    8.1256  -16.3294   25.1714 C   0  0  1  0  0  0  0  0  0  0  0  0
    7.3640  -15.8484   26.3519 C   0  0  0  0  0  0  0  0  0  0  0  0
    7.0796  -14.4247   26.4501 C   0  0  0  0  0  0  0  0  0  0  0  0
    5.8230  -13.9118   26.2440 C   0  0  0  0  0  0  0  0  0  0  0  0
    5.5575  -12.5479   26.3383 C   0  0  0  0  0  0  0  0  0  0  0  0
    6.5793  -11.6730   26.6476 C   0  0  0  0  0  0  0  0  0  0  0  0
    7.8399  -12.1911   26.8540 C   0  0  0  0  0  0  0  0  0  0  0  0
    8.1093  -13.5434   26.7618 C   0  0  0  0  0  0  0  0  0  0  0  0
    9.1750  -17.2947   25.5238 C   0  0  0  0  0  0  0  0  0  0  0  0
    8.8613  -18.4919   25.8544 O   0  0  0  0  0  0  0  0  0  0  0  0
   10.5858  -17.0252   25.5306 N   0  0  0  0  0  0  0  0  0  0  0  0
   11.5320  -18.0448   25.8851 C   0  0  1  0  0  0  0  0  0  0  0  0
   12.8564  -17.8139   25.2366 C   0  0  0  0  0  0  0  0  0  0  0  0
   13.8727  -18.8491   25.4267 C   0  0  0  0  0  0  0  0  0  0  0  0
   13.7718  -20.2128   25.4517 C   0  0  0  0  0  0  0  0  0  0  0  0
   15.0146  -20.7628   25.6232 N   0  0  0  0  0  0  0  0  0  0  0  0
   15.8486  -19.7371   25.6989 C   0  0  0  0  0  0  0  0  0  0  0  0
   15.2023  -18.5797   25.5855 N   0  0  0  0  0  0  0  0  0  0  0  0
   11.6964  -18.2714   27.3322 C   0  0  0  0  0  0  0  0  0  0  0  0
   12.1578  -19.3933   27.9518 O   0  0  0  0  0  0  0  0  0  0  0  0
   11.3656  -17.2977   28.0929 O   0  0  0  0  0  0  0  0  0  0  0  0
  2  1  1  6
  3  2  1  0
  4  3  1  0
  4  5  2  0
  6  5  1  0
  7 12  2  0
  7  6  1  0
  8  7  1  0
  9  8  2  0
 10  9  1  0
 10 11  2  0
 11 12  1  0
 12  4  1  0
 13  2  1  0
 14 13  2  0
 15 13  1  0
 16 24  1  0
 16 15  1  0
 16 17  1  1
 18 17  1  0
 19 18  2  0
 20 19  1  0
 21 22  1  0
 21 20  2  0
 22 23  2  0
 23 18  1  0
 24 25  2  0
 26 27  1  0
 26 24  1  0
 27 28  1  1
 28 29  1  0
 29 30  2  0
 30 31  1  0
 32 31  1  0
 33 29  1  0
 33 32  2  0
 34 35  1  0
 34 27  1  0
 36 34  2  0
M  END
$$$$
