WFH.pdb
     RDKit          3D

 36 39  0  0  1  0  0  0  0  0999 V2000
    6.5770  -18.1023   24.2683 N   0  0  0  0  0  0  0  0  0  0  0  0
    7.3226  -16.9049   24.0983 C   0  0  1  0  0  0  0  0  0  0  0  0
    7.8525  -16.2685   25.3360 C   0  0  0  0  0  0  0  0  0  0  0  0
    6.8612  -15.2997   25.8537 C   0  0  0  0  0  0  0  0  0  0  0  0
    5.6178  -15.5990   26.3871 C   0  0  0  0  0  0  0  0  0  0  0  0
    4.9998  -14.4777   26.7791 N   0  0  0  0  0  0  0  0  0  0  0  0
    5.8317  -13.4513   26.5041 C   0  0  0  0  0  0  0  0  0  0  0  0
    5.6843  -12.1074   26.6988 C   0  0  0  0  0  0  0  0  0  0  0  0
    6.6679  -11.2138   26.3346 C   0  0  0  0  0  0  0  0  0  0  0  0
    7.8132  -11.6956   25.7659 C   0  0  0  0  0  0  0  0  0  0  0  0
    7.9791  -13.0622   25.5608 C   0  0  0  0  0  0  0  0  0  0  0  0
    6.9944  -13.9388   25.9281 C   0  0  0  0  0  0  0  0  0  0  0  0
    8.4034  -17.1344   23.0780 C   0  0  0  0  0  0  0  0  0  0  0  0
    8.5721  -18.2973   22.5994 O   0  0  0  0  0  0  0  0  0  0  0  0
    9.2535  -16.1201   22.6140 N   0  0  0  0  0  0  0  0  0  0  0  0
   10.1849  -16.3643   21.4764 C   0  0  1  0  0  0  0  0  0  0  0  0
   10.3416  -15.0359   20.8314 C   0  0  0  0  0  0  0  0  0  0  0  0
    9.1422  -14.2532   20.5747 C   0  0  0  0  0  0  0  0  0  0  0  0
    7.8920  -14.6849   20.9422 C   0  0  0  0  0  0  0  0  0  0  0  0
    6.7475  -13.9315   20.6926 C   0  0  0  0  0  0  0  0  0  0  0  0
    6.8583  -12.7113   20.0570 C   0  0  0  0  0  0  0  0  0  0  0  0
    8.1150  -12.2805   19.6892 C   0  0  0  0  0  0  0  0  0  0  0  0
    9.2541  -13.0238   19.9342 C   0  0  0  0  0  0  0  0  0  0  0  0
   11.4346  -16.8646   22.0637 C   0  0  0  0  0  0  0  0  0  0  0  0
   12.4580  -17.0660   21.3200 O   0  0  0  0  0  0  0  0  0  0  0  0
   11.6412  -17.1602   23.4540 N   0  0  0  0  0  0  0  0  0  0  0  0
   12.8842  -17.7091   23.9169 C   0  0  1  0  0  0  0  0  0  0  0  0
   13.2441  -17.1893   25.2689 C   0  0  0  0  0  0  0  0  0  0  0  0
   12.2023  -16.4617   25.9941 C   0  0  0  0  0  0  0  0  0  0  0  0
   11.0760  -15.8257   25.5496 C   0  0  0  0  0  0  0  0  0  0  0  0
   10.3840  -15.3168   26.6167 N   0  0  0  0  0  0  0  0  0  0  0  0
   11.0903  -15.6469   27.6870 C   0  0  0  0  0  0  0  0  0  0  0  0
   12.1816  -16.3307   27.3535 N   0  0  0  0  0  0  0  0  0  0  0  0
   12.9689  -19.1803   23.8882 C   0  0  0  0  0  0  0  0  0  0  0  0
   14.0533  -19.9571   24.1644 O   0  0  0  0  0  0  0  0  0  0  0  0
   11.8958  -19.7971   23.5652 O   0  0  0  0  0  0  0  0  0  0  0  0
  2  1  1  1
  3  2  1  0
  4  3  1  0
  4  5  2  0
  6  5  1  0
  7 12  2  0
  7  6  1  0
  8  7  1  0
  9  8  2  0
 10  9  1  0
 10 11  2  0
 11 12  1  0
 12  4  1  0
 13  2  1  0
 14 13  2  0
 15 13  1  0
 16 24  1  0
 16 15  1  0
 16 17  1  1
 18 17  1  0
 19 18  2  0
 20 19  1  0
 21 22  1  0
 21 20  2  0
 22 23  2  0
 23 18  1  0
 24 25  2  0
 26 27  1  0
 26 24  1  0
 27 28  1  1
 28 29  1  0
 29 30  2  0
 30 31  1  0
 32 31  1  0
 33 29  1  0
 33 32  2  0
 34 35  1  0
 34 27  1  0
 36 34  2  0
M  END
$$$$
