WFH.pdb
     RDKit          3D

 36 39  0  0  1  0  0  0  0  0999 V2000
    7.9174  -17.3487   22.5744 N   0  0  0  0  0  0  0  0  0  0  0  0
    8.2828  -15.9778   22.6499 C   0  0  1  0  0  0  0  0  0  0  0  0
    7.2428  -14.9882   22.2538 C   0  0  0  0  0  0  0  0  0  0  0  0
    7.2000  -14.8841   20.7784 C   0  0  0  0  0  0  0  0  0  0  0  0
    6.6017  -15.7796   19.9065 C   0  0  0  0  0  0  0  0  0  0  0  0
    6.7343  -15.3553   18.6435 N   0  0  0  0  0  0  0  0  0  0  0  0
    7.4149  -14.1908   18.6873 C   0  0  0  0  0  0  0  0  0  0  0  0
    7.8165  -13.3545   17.6849 C   0  0  0  0  0  0  0  0  0  0  0  0
    8.5193  -12.1989   17.9479 C   0  0  0  0  0  0  0  0  0  0  0  0
    8.8156  -11.8930   19.2463 C   0  0  0  0  0  0  0  0  0  0  0  0
    8.4133  -12.7345   20.2794 C   0  0  0  0  0  0  0  0  0  0  0  0
    7.7151  -13.8788   20.0041 C   0  0  0  0  0  0  0  0  0  0  0  0
    8.8421  -15.6882   24.0155 C   0  0  0  0  0  0  0  0  0  0  0  0
    9.6684  -14.7364   24.1619 O   0  0  0  0  0  0  0  0  0  0  0  0
    8.4988  -16.4214   25.1606 N   0  0  0  0  0  0  0  0  0  0  0  0
    9.1008  -16.0972   26.4849 C   0  0  1  0  0  0  0  0  0  0  0  0
    7.9593  -15.6214   27.3068 C   0  0  0  0  0  0  0  0  0  0  0  0
    7.4778  -14.2653   27.0907 C   0  0  0  0  0  0  0  0  0  0  0  0
    8.2614  -13.1627   27.3247 C   0  0  0  0  0  0  0  0  0  0  0  0
    7.7944  -11.8672   27.1170 C   0  0  0  0  0  0  0  0  0  0  0  0
    6.5061  -11.6704   26.6621 C   0  0  0  0  0  0  0  0  0  0  0  0
    5.7217  -12.7795   26.4281 C   0  0  0  0  0  0  0  0  0  0  0  0
    6.1798  -14.0673   26.6324 C   0  0  0  0  0  0  0  0  0  0  0  0
    9.6871  -17.3453   26.9906 C   0  0  0  0  0  0  0  0  0  0  0  0
    8.9320  -18.2574   27.4794 O   0  0  0  0  0  0  0  0  0  0  0  0
   11.0866  -17.6685   26.9883 N   0  0  0  0  0  0  0  0  0  0  0  0
   11.5939  -18.7540   26.1979 C   0  0  1  0  0  0  0  0  0  0  0  0
   11.0885  -18.6942   24.7947 C   0  0  0  0  0  0  0  0  0  0  0  0
   11.4654  -19.7977   23.9109 C   0  0  0  0  0  0  0  0  0  0  0  0
   11.8720  -21.0733   24.1902 C   0  0  0  0  0  0  0  0  0  0  0  0
   12.0783  -21.7565   23.0210 N   0  0  0  0  0  0  0  0  0  0  0  0
   11.7967  -20.8969   22.0539 C   0  0  0  0  0  0  0  0  0  0  0  0
   11.4274  -19.7181   22.5479 N   0  0  0  0  0  0  0  0  0  0  0  0
   13.0595  -18.9096   26.2142 C   0  0  0  0  0  0  0  0  0  0  0  0
   14.0015  -17.9342   26.0849 O   0  0  0  0  0  0  0  0  0  0  0  0
   13.4946  -20.1026   26.3679 O   0  0  0  0  0  0  0  0  0  0  0  0
  2  1  1  1
  3  2  1  0
  4  3  1  0
  4  5  2  0
  6  5  1  0
  7 12  2  0
  7  6  1  0
  8  7  1  0
  9  8  2  0
 10  9  1  0
 10 11  2  0
 11 12  1  0
 12  4  1  0
 13  2  1  0
 14 13  2  0
 15 13  1  0
 16 24  1  0
 16 15  1  0
 16 17  1  1
 18 17  1  0
 19 18  2  0
 20 19  1  0
 21 22  1  0
 21 20  2  0
 22 23  2  0
 23 18  1  0
 24 25  2  0
 26 27  1  0
 26 24  1  0
 27 28  1  6
 28 29  1  0
 29 30  2  0
 30 31  1  0
 32 31  1  0
 33 29  1  0
 33 32  2  0
 34 35  1  0
 34 27  1  0
 36 34  2  0
M  END
$$$$
