WFH.pdb
     RDKit          3D

 36 39  0  0  1  0  0  0  0  0999 V2000
    7.0828  -19.2377   25.3912 N   0  0  0  0  0  0  0  0  0  0  0  0
    7.1672  -17.8197   25.3615 C   0  0  1  0  0  0  0  0  0  0  0  0
    7.8158  -17.1662   26.5319 C   0  0  0  0  0  0  0  0  0  0  0  0
    7.2680  -15.8019   26.6992 C   0  0  0  0  0  0  0  0  0  0  0  0
    5.9362  -15.4316   26.6030 C   0  0  0  0  0  0  0  0  0  0  0  0
    5.8019  -14.1203   26.8382 N   0  0  0  0  0  0  0  0  0  0  0  0
    7.0364  -13.6348   27.0860 C   0  0  0  0  0  0  0  0  0  0  0  0
    7.4543  -12.3673   27.3764 C   0  0  0  0  0  0  0  0  0  0  0  0
    8.7842  -12.0781   27.5917 C   0  0  0  0  0  0  0  0  0  0  0  0
    9.6971  -13.0916   27.5100 C   0  0  0  0  0  0  0  0  0  0  0  0
    9.2875  -14.3887   27.2153 C   0  0  0  0  0  0  0  0  0  0  0  0
    7.9633  -14.6623   27.0045 C   0  0  0  0  0  0  0  0  0  0  0  0
    7.7876  -17.3871   24.0617 C   0  0  0  0  0  0  0  0  0  0  0  0
    8.4612  -18.2219   23.3840 O   0  0  0  0  0  0  0  0  0  0  0  0
    7.6643  -16.0902   23.5425 N   0  0  0  0  0  0  0  0  0  0  0  0
    7.9208  -15.8166   22.1001 C   0  0  1  0  0  0  0  0  0  0  0  0
    7.3245  -14.4775   21.8629 C   0  0  0  0  0  0  0  0  0  0  0  0
    7.5273  -13.8579   20.5620 C   0  0  0  0  0  0  0  0  0  0  0  0
    7.9203  -12.5497   20.4259 C   0  0  0  0  0  0  0  0  0  0  0  0
    8.1116  -11.9620   19.1778 C   0  0  0  0  0  0  0  0  0  0  0  0
    7.9033  -12.7056   18.0337 C   0  0  0  0  0  0  0  0  0  0  0  0
    7.5087  -14.0190   18.1737 C   0  0  0  0  0  0  0  0  0  0  0  0
    7.3173  -14.6073   19.4094 C   0  0  0  0  0  0  0  0  0  0  0  0
    9.3794  -15.8304   21.9284 C   0  0  0  0  0  0  0  0  0  0  0  0
    9.9200  -16.6379   21.0938 O   0  0  0  0  0  0  0  0  0  0  0  0
   10.3080  -14.9872   22.6283 N   0  0  0  0  0  0  0  0  0  0  0  0
   11.3310  -15.5480   23.4648 C   0  0  1  0  0  0  0  0  0  0  0  0
   10.7565  -16.1597   24.6991 C   0  0  0  0  0  0  0  0  0  0  0  0
   11.6926  -16.8401   25.5945 C   0  0  0  0  0  0  0  0  0  0  0  0
   12.8127  -16.3869   26.2352 C   0  0  0  0  0  0  0  0  0  0  0  0
   13.3419  -17.3913   27.0018 N   0  0  0  0  0  0  0  0  0  0  0  0
   12.5447  -18.4329   26.8206 C   0  0  0  0  0  0  0  0  0  0  0  0
   11.5498  -18.1404   25.9872 N   0  0  0  0  0  0  0  0  0  0  0  0
   12.2409  -16.4934   22.7935 C   0  0  0  0  0  0  0  0  0  0  0  0
   11.9694  -17.2937   21.7251 O   0  0  0  0  0  0  0  0  0  0  0  0
   13.4242  -16.5689   23.2736 O   0  0  0  0  0  0  0  0  0  0  0  0
  2  1  1  1
  3  2  1  0
  4  3  1  0
  4  5  2  0
  6  5  1  0
  7 12  2  0
  7  6  1  0
  8  7  1  0
  9  8  2  0
 10  9  1  0
 10 11  2  0
 11 12  1  0
 12  4  1  0
 13  2  1  0
 14 13  2  0
 15 13  1  0
 16 24  1  0
 16 15  1  0
 16 17  1  1
 18 17  1  0
 19 18  2  0
 20 19  1  0
 21 22  1  0
 21 20  2  0
 22 23  2  0
 23 18  1  0
 24 25  2  0
 26 27  1  0
 26 24  1  0
 27 28  1  1
 28 29  1  0
 29 30  2  0
 30 31  1  0
 32 31  1  0
 33 29  1  0
 33 32  2  0
 34 35  1  0
 34 27  1  0
 36 34  2  0
M  END
$$$$
