WFH.pdb
     RDKit          3D

 36 39  0  0  1  0  0  0  0  0999 V2000
   11.9006  -15.8500   20.6085 N   0  0  0  0  0  0  0  0  0  0  0  0
   10.5112  -15.8395   20.9055 C   0  0  1  0  0  0  0  0  0  0  0  0
    9.6686  -16.8347   20.1864 C   0  0  0  0  0  0  0  0  0  0  0  0
    8.7933  -16.1324   19.2220 C   0  0  0  0  0  0  0  0  0  0  0  0
    7.8596  -16.7158   18.3806 C   0  0  0  0  0  0  0  0  0  0  0  0
    7.2303  -15.7759   17.6642 N   0  0  0  0  0  0  0  0  0  0  0  0
    7.7481  -14.5855   18.0328 C   0  0  0  0  0  0  0  0  0  0  0  0
    7.4639  -13.3192   17.6070 C   0  0  0  0  0  0  0  0  0  0  0  0
    8.1244  -12.2220   18.1155 C   0  0  0  0  0  0  0  0  0  0  0  0
    9.0846  -12.4182   19.0677 C   0  0  0  0  0  0  0  0  0  0  0  0
    9.3859  -13.7021   19.5126 C   0  0  0  0  0  0  0  0  0  0  0  0
    8.7216  -14.7830   18.9997 C   0  0  0  0  0  0  0  0  0  0  0  0
   10.3221  -15.9159   22.3955 C   0  0  0  0  0  0  0  0  0  0  0  0
   11.2548  -16.3808   23.1193 O   0  0  0  0  0  0  0  0  0  0  0  0
    9.1534  -15.4957   23.0468 N   0  0  0  0  0  0  0  0  0  0  0  0
    9.1707  -15.1391   24.4938 C   0  0  1  0  0  0  0  0  0  0  0  0
    7.9362  -14.3388   24.6953 C   0  0  0  0  0  0  0  0  0  0  0  0
    7.7439  -13.6885   25.9827 C   0  0  0  0  0  0  0  0  0  0  0  0
    8.6440  -13.8169   27.0111 C   0  0  0  0  0  0  0  0  0  0  0  0
    8.4536  -13.1928   28.2415 C   0  0  0  0  0  0  0  0  0  0  0  0
    7.3300  -12.4181   28.4477 C   0  0  0  0  0  0  0  0  0  0  0  0
    6.4280  -12.2911   27.4131 C   0  0  0  0  0  0  0  0  0  0  0  0
    6.6117  -12.9080   26.1902 C   0  0  0  0  0  0  0  0  0  0  0  0
    9.1556  -16.4078   25.2337 C   0  0  0  0  0  0  0  0  0  0  0  0
    8.1149  -17.1542   25.2068 O   0  0  0  0  0  0  0  0  0  0  0  0
   10.2413  -16.9274   26.0175 N   0  0  0  0  0  0  0  0  0  0  0  0
   10.0441  -18.0300   26.9152 C   0  0  1  0  0  0  0  0  0  0  0  0
   10.9082  -19.1925   26.5548 C   0  0  0  0  0  0  0  0  0  0  0  0
   10.8102  -19.6856   25.1807 C   0  0  0  0  0  0  0  0  0  0  0  0
   10.0433  -19.2662   24.1288 C   0  0  0  0  0  0  0  0  0  0  0  0
   10.3288  -20.0212   23.0220 N   0  0  0  0  0  0  0  0  0  0  0  0
   11.2574  -20.8818   23.4100 C   0  0  0  0  0  0  0  0  0  0  0  0
   11.5691  -20.7106   24.6920 N   0  0  0  0  0  0  0  0  0  0  0  0
   10.1830  -17.7056   28.3462 C   0  0  0  0  0  0  0  0  0  0  0  0
   10.5380  -16.5119   28.8984 O   0  0  0  0  0  0  0  0  0  0  0  0
    9.9411  -18.6597   29.1632 O   0  0  0  0  0  0  0  0  0  0  0  0
  2  1  1  1
  3  2  1  0
  4  3  1  0
  4  5  2  0
  6  5  1  0
  7 12  2  0
  7  6  1  0
  8  7  1  0
  9  8  2  0
 10  9  1  0
 10 11  2  0
 11 12  1  0
 12  4  1  0
 13  2  1  0
 14 13  2  0
 15 13  1  0
 16 24  1  0
 16 15  1  0
 16 17  1  1
 18 17  1  0
 19 18  2  0
 20 19  1  0
 21 22  1  0
 21 20  2  0
 22 23  2  0
 23 18  1  0
 24 25  2  0
 26 27  1  0
 26 24  1  0
 27 28  1  6
 28 29  1  0
 29 30  2  0
 30 31  1  0
 32 31  1  0
 33 29  1  0
 33 32  2  0
 34 35  1  0
 34 27  1  0
 36 34  2  0
M  END
$$$$
