WFH.pdb
     RDKit          3D

 36 39  0  0  1  0  0  0  0  0999 V2000
   11.1278  -15.6348   21.3882 N   0  0  0  0  0  0  0  0  0  0  0  0
    9.7880  -15.6999   21.8564 C   0  0  1  0  0  0  0  0  0  0  0  0
    8.8664  -16.6050   21.1153 C   0  0  0  0  0  0  0  0  0  0  0  0
    8.3825  -15.9219   19.8953 C   0  0  0  0  0  0  0  0  0  0  0  0
    8.3078  -16.4643   18.6223 C   0  0  0  0  0  0  0  0  0  0  0  0
    7.7971  -15.5698   17.7668 N   0  0  0  0  0  0  0  0  0  0  0  0
    7.5394  -14.4495   18.4737 C   0  0  0  0  0  0  0  0  0  0  0  0
    7.0218  -13.2476   18.0825 C   0  0  0  0  0  0  0  0  0  0  0  0
    6.8432  -12.2140   18.9761 C   0  0  0  0  0  0  0  0  0  0  0  0
    7.1960  -12.4082   20.2819 C   0  0  0  0  0  0  0  0  0  0  0  0
    7.7245  -13.6271   20.6968 C   0  0  0  0  0  0  0  0  0  0  0  0
    7.8959  -14.6455   19.7989 C   0  0  0  0  0  0  0  0  0  0  0  0
    9.7920  -15.9887   23.3323 C   0  0  0  0  0  0  0  0  0  0  0  0
   10.8668  -16.3671   23.8906 O   0  0  0  0  0  0  0  0  0  0  0  0
    8.6565  -15.8627   24.1456 N   0  0  0  0  0  0  0  0  0  0  0  0
    8.7460  -16.0637   25.6197 C   0  0  1  0  0  0  0  0  0  0  0  0
    7.4644  -15.5303   26.1471 C   0  0  0  0  0  0  0  0  0  0  0  0
    7.3462  -14.0921   26.3341 C   0  0  0  0  0  0  0  0  0  0  0  0
    6.3671  -13.3507   25.7209 C   0  0  0  0  0  0  0  0  0  0  0  0
    6.2600  -11.9741   25.9030 C   0  0  0  0  0  0  0  0  0  0  0  0
    7.1589  -11.3216   26.7223 C   0  0  0  0  0  0  0  0  0  0  0  0
    8.1410  -12.0688   27.3367 C   0  0  0  0  0  0  0  0  0  0  0  0
    8.2521  -13.4349   27.1597 C   0  0  0  0  0  0  0  0  0  0  0  0
    8.8933  -17.5094   25.8328 C   0  0  0  0  0  0  0  0  0  0  0  0
    8.4832  -18.3346   24.9429 O   0  0  0  0  0  0  0  0  0  0  0  0
    9.4838  -18.1247   26.9886 N   0  0  0  0  0  0  0  0  0  0  0  0
   10.4632  -19.1654   26.8536 C   0  0  1  0  0  0  0  0  0  0  0  0
   11.4536  -18.8513   25.7819 C   0  0  0  0  0  0  0  0  0  0  0  0
   12.4798  -19.8600   25.5168 C   0  0  0  0  0  0  0  0  0  0  0  0
   12.6792  -21.1013   26.0552 C   0  0  0  0  0  0  0  0  0  0  0  0
   13.7594  -21.6940   25.4566 N   0  0  0  0  0  0  0  0  0  0  0  0
   14.1993  -20.8150   24.5693 C   0  0  0  0  0  0  0  0  0  0  0  0
   13.4599  -19.7091   24.5776 N   0  0  0  0  0  0  0  0  0  0  0  0
   11.1520  -19.5433   28.1006 C   0  0  0  0  0  0  0  0  0  0  0  0
   11.7873  -20.7159   28.3780 O   0  0  0  0  0  0  0  0  0  0  0  0
   11.1508  -18.6644   29.0299 O   0  0  0  0  0  0  0  0  0  0  0  0
  2  1  1  6
  3  2  1  0
  4  3  1  0
  4  5  2  0
  6  5  1  0
  7 12  2  0
  7  6  1  0
  8  7  1  0
  9  8  2  0
 10  9  1  0
 10 11  2  0
 11 12  1  0
 12  4  1  0
 13  2  1  0
 14 13  2  0
 15 13  1  0
 16 24  1  0
 16 15  1  0
 16 17  1  1
 18 17  1  0
 19 18  2  0
 20 19  1  0
 21 22  1  0
 21 20  2  0
 22 23  2  0
 23 18  1  0
 24 25  2  0
 26 27  1  0
 26 24  1  0
 27 28  1  6
 28 29  1  0
 29 30  2  0
 30 31  1  0
 32 31  1  0
 33 29  1  0
 33 32  2  0
 34 35  1  0
 34 27  1  0
 36 34  2  0
M  END
$$$$
