WFH.pdb
     RDKit          3D

 36 39  0  0  1  0  0  0  0  0999 V2000
   11.4801  -17.4135   20.3553 N   0  0  0  0  0  0  0  0  0  0  0  0
   10.3996  -16.8101   21.0532 C   0  0  1  0  0  0  0  0  0  0  0  0
    9.0462  -17.3808   20.8079 C   0  0  0  0  0  0  0  0  0  0  0  0
    8.2011  -16.3699   20.1347 C   0  0  0  0  0  0  0  0  0  0  0  0
    7.3311  -16.5940   19.0797 C   0  0  0  0  0  0  0  0  0  0  0  0
    6.7111  -15.4566   18.7408 N   0  0  0  0  0  0  0  0  0  0  0  0
    7.1718  -14.4942   19.5671 C   0  0  0  0  0  0  0  0  0  0  0  0
    6.8710  -13.1640   19.6417 C   0  0  0  0  0  0  0  0  0  0  0  0
    7.4697  -12.3401   20.5699 C   0  0  0  0  0  0  0  0  0  0  0  0
    8.3845  -12.8783   21.4305 C   0  0  0  0  0  0  0  0  0  0  0  0
    8.7020  -14.2320   21.3678 C   0  0  0  0  0  0  0  0  0  0  0  0
    8.0992  -15.0391   20.4415 C   0  0  0  0  0  0  0  0  0  0  0  0
   10.7272  -16.7523   22.5198 C   0  0  0  0  0  0  0  0  0  0  0  0
   11.6631  -17.4759   22.9785 O   0  0  0  0  0  0  0  0  0  0  0  0
   10.0469  -15.9303   23.4299 N   0  0  0  0  0  0  0  0  0  0  0  0
   10.4845  -15.8382   24.8517 C   0  0  1  0  0  0  0  0  0  0  0  0
    9.7111  -14.6984   25.4065 C   0  0  0  0  0  0  0  0  0  0  0  0
    9.8403  -14.4096   26.8268 C   0  0  0  0  0  0  0  0  0  0  0  0
   10.8170  -14.9793   27.6053 C   0  0  0  0  0  0  0  0  0  0  0  0
   10.9348  -14.6997   28.9646 C   0  0  0  0  0  0  0  0  0  0  0  0
   10.0493  -13.8248   29.5610 C   0  0  0  0  0  0  0  0  0  0  0  0
    9.0697  -13.2543   28.7767 C   0  0  0  0  0  0  0  0  0  0  0  0
    8.9481  -13.5281   27.4275 C   0  0  0  0  0  0  0  0  0  0  0  0
   10.1374  -17.1214   25.4763 C   0  0  0  0  0  0  0  0  0  0  0  0
    8.9236  -17.5309   25.4701 O   0  0  0  0  0  0  0  0  0  0  0  0
   11.0631  -18.0118   26.1191 N   0  0  0  0  0  0  0  0  0  0  0  0
   10.6008  -19.1524   26.8581 C   0  0  1  0  0  0  0  0  0  0  0  0
   11.3229  -20.3956   26.4571 C   0  0  0  0  0  0  0  0  0  0  0  0
   11.1859  -20.8166   25.0625 C   0  0  0  0  0  0  0  0  0  0  0  0
   10.4695  -20.2797   24.0286 C   0  0  0  0  0  0  0  0  0  0  0  0
   10.6874  -21.0099   22.8903 N   0  0  0  0  0  0  0  0  0  0  0  0
   11.5262  -21.9723   23.2418 C   0  0  0  0  0  0  0  0  0  0  0  0
   11.8453  -21.8880   24.5306 N   0  0  0  0  0  0  0  0  0  0  0  0
   10.6127  -18.9964   28.3236 C   0  0  0  0  0  0  0  0  0  0  0  0
   10.0414  -19.8131   29.2522 O   0  0  0  0  0  0  0  0  0  0  0  0
   11.2332  -17.9721   28.7731 O   0  0  0  0  0  0  0  0  0  0  0  0
  2  1  1  6
  3  2  1  0
  4  3  1  0
  4  5  2  0
  6  5  1  0
  7 12  2  0
  7  6  1  0
  8  7  1  0
  9  8  2  0
 10  9  1  0
 10 11  2  0
 11 12  1  0
 12  4  1  0
 13  2  1  0
 14 13  2  0
 15 13  1  0
 16 24  1  0
 16 15  1  0
 16 17  1  1
 18 17  1  0
 19 18  2  0
 20 19  1  0
 21 22  1  0
 21 20  2  0
 22 23  2  0
 23 18  1  0
 24 25  2  0
 26 27  1  0
 26 24  1  0
 27 28  1  1
 28 29  1  0
 29 30  2  0
 30 31  1  0
 32 31  1  0
 33 29  1  0
 33 32  2  0
 34 35  1  0
 34 27  1  0
 36 34  2  0
M  END
$$$$
