WFH.pdb
     RDKit          3D

 36 39  0  0  1  0  0  0  0  0999 V2000
   10.0417  -16.9718   18.7149 N   0  0  0  0  0  0  0  0  0  0  0  0
    9.5428  -17.5763   19.9000 C   0  0  1  0  0  0  0  0  0  0  0  0
   10.1227  -18.8973   20.2692 C   0  0  0  0  0  0  0  0  0  0  0  0
    9.6854  -19.9170   19.2903 C   0  0  0  0  0  0  0  0  0  0  0  0
   10.4281  -20.4144   18.2315 C   0  0  0  0  0  0  0  0  0  0  0  0
    9.7268  -21.3432   17.5695 N   0  0  0  0  0  0  0  0  0  0  0  0
    8.5333  -21.4534   18.1896 C   0  0  0  0  0  0  0  0  0  0  0  0
    7.4561  -22.2472   17.9155 C   0  0  0  0  0  0  0  0  0  0  0  0
    6.3115  -22.1994   18.6813 C   0  0  0  0  0  0  0  0  0  0  0  0
    6.2651  -21.3332   19.7372 C   0  0  0  0  0  0  0  0  0  0  0  0
    7.3543  -20.5177   20.0300 C   0  0  0  0  0  0  0  0  0  0  0  0
    8.4852  -20.5759   19.2616 C   0  0  0  0  0  0  0  0  0  0  0  0
    9.6261  -16.5903   21.0325 C   0  0  0  0  0  0  0  0  0  0  0  0
   10.7198  -15.9864   21.2542 O   0  0  0  0  0  0  0  0  0  0  0  0
    8.5461  -16.2916   21.8756 N   0  0  0  0  0  0  0  0  0  0  0  0
    8.7052  -15.3444   23.0153 C   0  0  1  0  0  0  0  0  0  0  0  0
    7.3390  -14.8126   23.2515 C   0  0  0  0  0  0  0  0  0  0  0  0
    7.0991  -14.0581   24.4723 C   0  0  0  0  0  0  0  0  0  0  0  0
    6.4042  -14.5821   25.5339 C   0  0  0  0  0  0  0  0  0  0  0  0
    6.1769  -13.8543   26.6994 C   0  0  0  0  0  0  0  0  0  0  0  0
    6.6592  -12.5653   26.8046 C   0  0  0  0  0  0  0  0  0  0  0  0
    7.3566  -12.0420   25.7370 C   0  0  0  0  0  0  0  0  0  0  0  0
    7.5852  -12.7594   24.5781 C   0  0  0  0  0  0  0  0  0  0  0  0
    9.2128  -16.1354   24.1440 C   0  0  0  0  0  0  0  0  0  0  0  0
    8.8183  -17.3426   24.3108 O   0  0  0  0  0  0  0  0  0  0  0  0
   10.1565  -15.6762   25.1246 N   0  0  0  0  0  0  0  0  0  0  0  0
   10.7156  -16.5773   26.0921 C   0  0  1  0  0  0  0  0  0  0  0  0
   11.5864  -15.8613   27.0702 C   0  0  0  0  0  0  0  0  0  0  0  0
   10.9102  -15.0778   28.1045 C   0  0  0  0  0  0  0  0  0  0  0  0
    9.9725  -14.0866   28.0109 C   0  0  0  0  0  0  0  0  0  0  0  0
    9.6083  -13.6781   29.2667 N   0  0  0  0  0  0  0  0  0  0  0  0
   10.3213  -14.4192   30.1009 C   0  0  0  0  0  0  0  0  0  0  0  0
   11.1090  -15.2655   29.4426 N   0  0  0  0  0  0  0  0  0  0  0  0
    9.7380  -17.4277   26.7948 C   0  0  0  0  0  0  0  0  0  0  0  0
    9.9919  -18.4954   27.6017 O   0  0  0  0  0  0  0  0  0  0  0  0
    8.5070  -17.1246   26.6243 O   0  0  0  0  0  0  0  0  0  0  0  0
  2  1  1  6
  3  2  1  0
  4  3  1  0
  4  5  2  0
  6  5  1  0
  7 12  2  0
  7  6  1  0
  8  7  1  0
  9  8  2  0
 10  9  1  0
 10 11  2  0
 11 12  1  0
 12  4  1  0
 13  2  1  0
 14 13  2  0
 15 13  1  0
 16 24  1  0
 16 15  1  0
 16 17  1  1
 18 17  1  0
 19 18  2  0
 20 19  1  0
 21 22  1  0
 21 20  2  0
 22 23  2  0
 23 18  1  0
 24 25  2  0
 26 27  1  0
 26 24  1  0
 27 28  1  1
 28 29  1  0
 29 30  2  0
 30 31  1  0
 32 31  1  0
 33 29  1  0
 33 32  2  0
 34 35  1  0
 34 27  1  0
 36 34  2  0
M  END
$$$$
