WFH.pdb
     RDKit          3D

 36 39  0  0  1  0  0  0  0  0999 V2000
    8.3165  -17.6236   22.4166 N   0  0  0  0  0  0  0  0  0  0  0  0
    9.5573  -16.9726   22.6517 C   0  0  1  0  0  0  0  0  0  0  0  0
    9.8419  -15.7639   21.8296 C   0  0  0  0  0  0  0  0  0  0  0  0
    8.5661  -15.1518   21.3974 C   0  0  0  0  0  0  0  0  0  0  0  0
    7.2915  -15.5922   21.7164 C   0  0  0  0  0  0  0  0  0  0  0  0
    6.3726  -14.7826   21.1750 N   0  0  0  0  0  0  0  0  0  0  0  0
    7.0400  -13.8192   20.5059 C   0  0  0  0  0  0  0  0  0  0  0  0
    6.5816  -12.7577   19.7789 C   0  0  0  0  0  0  0  0  0  0  0  0
    7.4455  -11.8815   19.1587 C   0  0  0  0  0  0  0  0  0  0  0  0
    8.7904  -12.0901   19.2810 C   0  0  0  0  0  0  0  0  0  0  0  0
    9.2737  -13.1670   20.0185 C   0  0  0  0  0  0  0  0  0  0  0  0
    8.4045  -14.0291   20.6301 C   0  0  0  0  0  0  0  0  0  0  0  0
    9.7020  -16.6977   24.1231 C   0  0  0  0  0  0  0  0  0  0  0  0
   10.7739  -16.1758   24.5574 O   0  0  0  0  0  0  0  0  0  0  0  0
    8.7035  -16.9892   25.0637 N   0  0  0  0  0  0  0  0  0  0  0  0
    8.9226  -16.7328   26.5155 C   0  0  1  0  0  0  0  0  0  0  0  0
    7.6727  -16.0725   26.9701 C   0  0  0  0  0  0  0  0  0  0  0  0
    7.5132  -14.6508   26.7042 C   0  0  0  0  0  0  0  0  0  0  0  0
    6.5035  -14.1613   25.9135 C   0  0  0  0  0  0  0  0  0  0  0  0
    6.3568  -12.7993   25.6617 C   0  0  0  0  0  0  0  0  0  0  0  0
    7.2466  -11.9024   26.2177 C   0  0  0  0  0  0  0  0  0  0  0  0
    8.2593  -12.3971   27.0113 C   0  0  0  0  0  0  0  0  0  0  0  0
    8.4098  -13.7473   27.2645 C   0  0  0  0  0  0  0  0  0  0  0  0
    9.1351  -18.0447   27.1407 C   0  0  0  0  0  0  0  0  0  0  0  0
    8.2837  -18.9855   26.9641 O   0  0  0  0  0  0  0  0  0  0  0  0
   10.2558  -18.4025   27.9647 N   0  0  0  0  0  0  0  0  0  0  0  0
   11.1544  -19.4524   27.5761 C   0  0  1  0  0  0  0  0  0  0  0  0
   11.6069  -19.2924   26.1628 C   0  0  0  0  0  0  0  0  0  0  0  0
   12.5379  -20.2984   25.6509 C   0  0  0  0  0  0  0  0  0  0  0  0
   13.0863  -21.4004   26.2473 C   0  0  0  0  0  0  0  0  0  0  0  0
   13.8784  -22.0636   25.3478 N   0  0  0  0  0  0  0  0  0  0  0  0
   13.8024  -21.3644   24.2258 C   0  0  0  0  0  0  0  0  0  0  0  0
   13.0113  -20.3045   24.3698 N   0  0  0  0  0  0  0  0  0  0  0  0
   12.3091  -19.6518   28.4701 C   0  0  0  0  0  0  0  0  0  0  0  0
   13.2728  -18.7470   28.7994 O   0  0  0  0  0  0  0  0  0  0  0  0
   12.4160  -20.8125   28.9970 O   0  0  0  0  0  0  0  0  0  0  0  0
  2  1  1  1
  3  2  1  0
  4  3  1  0
  4  5  2  0
  6  5  1  0
  7 12  2  0
  7  6  1  0
  8  7  1  0
  9  8  2  0
 10  9  1  0
 10 11  2  0
 11 12  1  0
 12  4  1  0
 13  2  1  0
 14 13  2  0
 15 13  1  0
 16 24  1  0
 16 15  1  0
 16 17  1  1
 18 17  1  0
 19 18  2  0
 20 19  1  0
 21 22  1  0
 21 20  2  0
 22 23  2  0
 23 18  1  0
 24 25  2  0
 26 27  1  0
 26 24  1  0
 27 28  1  6
 28 29  1  0
 29 30  2  0
 30 31  1  0
 32 31  1  0
 33 29  1  0
 33 32  2  0
 34 35  1  0
 34 27  1  0
 36 34  2  0
M  END
$$$$
