WFH.pdb
     RDKit          3D

 36 39  0  0  1  0  0  0  0  0999 V2000
    8.3759  -16.5702   22.3106 N   0  0  0  0  0  0  0  0  0  0  0  0
    9.0014  -15.3481   22.6765 C   0  0  1  0  0  0  0  0  0  0  0  0
    8.2380  -14.0998   22.3996 C   0  0  0  0  0  0  0  0  0  0  0  0
    7.8164  -14.0858   20.9814 C   0  0  0  0  0  0  0  0  0  0  0  0
    6.6511  -14.6276   20.4630 C   0  0  0  0  0  0  0  0  0  0  0  0
    6.5847  -14.4075   19.1440 N   0  0  0  0  0  0  0  0  0  0  0  0
    7.6983  -13.7271   18.8003 C   0  0  0  0  0  0  0  0  0  0  0  0
    8.1215  -13.2641   17.5870 C   0  0  0  0  0  0  0  0  0  0  0  0
    9.3142  -12.5878   17.4493 C   0  0  0  0  0  0  0  0  0  0  0  0
   10.0830  -12.3818   18.5600 C   0  0  0  0  0  0  0  0  0  0  0  0
    9.6659  -12.8470   19.8037 C   0  0  0  0  0  0  0  0  0  0  0  0
    8.4786  -13.5165   19.9265 C   0  0  0  0  0  0  0  0  0  0  0  0
    9.4451  -15.4284   24.1112 C   0  0  0  0  0  0  0  0  0  0  0  0
   10.2877  -14.5879   24.5511 O   0  0  0  0  0  0  0  0  0  0  0  0
    8.9743  -16.3958   25.0108 N   0  0  0  0  0  0  0  0  0  0  0  0
    9.3183  -16.3244   26.4592 C   0  0  1  0  0  0  0  0  0  0  0  0
    8.0379  -15.9846   27.1301 C   0  0  0  0  0  0  0  0  0  0  0  0
    7.5988  -14.5976   27.1059 C   0  0  0  0  0  0  0  0  0  0  0  0
    8.4017  -13.5666   27.5264 C   0  0  0  0  0  0  0  0  0  0  0  0
    7.9752  -12.2410   27.5019 C   0  0  0  0  0  0  0  0  0  0  0  0
    6.7087  -11.9395   27.0433 C   0  0  0  0  0  0  0  0  0  0  0  0
    5.9048  -12.9769   26.6217 C   0  0  0  0  0  0  0  0  0  0  0  0
    6.3227  -14.2941   26.6438 C   0  0  0  0  0  0  0  0  0  0  0  0
    9.8229  -17.6526   26.8314 C   0  0  0  0  0  0  0  0  0  0  0  0
   10.0592  -17.9284   28.0599 O   0  0  0  0  0  0  0  0  0  0  0  0
   10.0858  -18.7293   25.9179 N   0  0  0  0  0  0  0  0  0  0  0  0
   11.0527  -19.7438   26.2288 C   0  0  1  0  0  0  0  0  0  0  0  0
   11.8729  -20.1044   25.0350 C   0  0  0  0  0  0  0  0  0  0  0  0
   11.1603  -20.2510   23.7656 C   0  0  0  0  0  0  0  0  0  0  0  0
    9.8408  -20.0763   23.4511 C   0  0  0  0  0  0  0  0  0  0  0  0
    9.6545  -20.2948   22.1117 N   0  0  0  0  0  0  0  0  0  0  0  0
   10.8514  -20.5961   21.6321 C   0  0  0  0  0  0  0  0  0  0  0  0
   11.7740  -20.5795   22.5905 N   0  0  0  0  0  0  0  0  0  0  0  0
   11.9201  -19.4498   27.3836 C   0  0  0  0  0  0  0  0  0  0  0  0
   12.7817  -18.4053   27.5328 O   0  0  0  0  0  0  0  0  0  0  0  0
   11.8538  -20.2751   28.3586 O   0  0  0  0  0  0  0  0  0  0  0  0
  2  1  1  1
  3  2  1  0
  4  3  1  0
  4  5  2  0
  6  5  1  0
  7 12  2  0
  7  6  1  0
  8  7  1  0
  9  8  2  0
 10  9  1  0
 10 11  2  0
 11 12  1  0
 12  4  1  0
 13  2  1  0
 14 13  2  0
 15 13  1  0
 16 24  1  0
 16 15  1  0
 16 17  1  1
 18 17  1  0
 19 18  2  0
 20 19  1  0
 21 22  1  0
 21 20  2  0
 22 23  2  0
 23 18  1  0
 24 25  2  0
 26 27  1  0
 26 24  1  0
 27 28  1  6
 28 29  1  0
 29 30  2  0
 30 31  1  0
 32 31  1  0
 33 29  1  0
 33 32  2  0
 34 35  1  0
 34 27  1  0
 36 34  2  0
M  END
$$$$
