WFH.pdb
     RDKit          3D

 36 39  0  0  1  0  0  0  0  0999 V2000
   10.3338  -14.8930   21.5522 N   0  0  0  0  0  0  0  0  0  0  0  0
    9.1519  -15.3234   22.2129 C   0  0  1  0  0  0  0  0  0  0  0  0
    8.3205  -16.3331   21.5010 C   0  0  0  0  0  0  0  0  0  0  0  0
    7.7729  -15.7347   20.2635 C   0  0  0  0  0  0  0  0  0  0  0  0
    6.8976  -16.3375   19.3744 C   0  0  0  0  0  0  0  0  0  0  0  0
    6.5926  -15.4937   18.3806 N   0  0  0  0  0  0  0  0  0  0  0  0
    7.2633  -14.3467   18.6163 C   0  0  0  0  0  0  0  0  0  0  0  0
    7.3066  -13.1780   17.9108 C   0  0  0  0  0  0  0  0  0  0  0  0
    8.0738  -12.1119   18.3276 C   0  0  0  0  0  0  0  0  0  0  0  0
    8.8041  -12.2391   19.4755 C   0  0  0  0  0  0  0  0  0  0  0  0
    8.7707  -13.4232   20.2062 C   0  0  0  0  0  0  0  0  0  0  0  0
    8.0038  -14.4740   19.7812 C   0  0  0  0  0  0  0  0  0  0  0  0
    9.4967  -15.7636   23.6090 C   0  0  0  0  0  0  0  0  0  0  0  0
   10.7030  -16.0295   23.8989 O   0  0  0  0  0  0  0  0  0  0  0  0
    8.5461  -15.9009   24.6309 N   0  0  0  0  0  0  0  0  0  0  0  0
    8.9659  -16.1879   26.0319 C   0  0  1  0  0  0  0  0  0  0  0  0
    7.8926  -15.5972   26.8710 C   0  0  0  0  0  0  0  0  0  0  0  0
    7.6753  -14.1605   26.7941 C   0  0  0  0  0  0  0  0  0  0  0  0
    8.5768  -13.2545   27.2950 C   0  0  0  0  0  0  0  0  0  0  0  0
    8.3625  -11.8804   27.2192 C   0  0  0  0  0  0  0  0  0  0  0  0
    7.2128  -11.4002   26.6250 C   0  0  0  0  0  0  0  0  0  0  0  0
    6.3096  -12.3125   26.1230 C   0  0  0  0  0  0  0  0  0  0  0  0
    6.5169  -13.6770   26.1953 C   0  0  0  0  0  0  0  0  0  0  0  0
    9.0435  -17.6498   26.1502 C   0  0  0  0  0  0  0  0  0  0  0  0
    8.6916  -18.3930   25.1680 O   0  0  0  0  0  0  0  0  0  0  0  0
    9.5013  -18.3683   27.3066 N   0  0  0  0  0  0  0  0  0  0  0  0
   10.5762  -19.3150   27.2117 C   0  0  1  0  0  0  0  0  0  0  0  0
   11.6771  -18.8099   26.3395 C   0  0  0  0  0  0  0  0  0  0  0  0
   11.7043  -19.3013   24.9615 C   0  0  0  0  0  0  0  0  0  0  0  0
   10.8850  -20.1770   24.3041 C   0  0  0  0  0  0  0  0  0  0  0  0
   11.2912  -20.2971   23.0014 N   0  0  0  0  0  0  0  0  0  0  0  0
   12.3420  -19.5001   22.8830 C   0  0  0  0  0  0  0  0  0  0  0  0
   12.6172  -18.8897   24.0327 N   0  0  0  0  0  0  0  0  0  0  0  0
   11.1120  -19.7861   28.5014 C   0  0  0  0  0  0  0  0  0  0  0  0
   11.5733  -21.0311   28.8062 O   0  0  0  0  0  0  0  0  0  0  0  0
   11.1463  -18.9213   29.4434 O   0  0  0  0  0  0  0  0  0  0  0  0
  2  1  1  6
  3  2  1  0
  4  3  1  0
  4  5  2  0
  6  5  1  0
  7 12  2  0
  7  6  1  0
  8  7  1  0
  9  8  2  0
 10  9  1  0
 10 11  2  0
 11 12  1  0
 12  4  1  0
 13  2  1  0
 14 13  2  0
 15 13  1  0
 16 24  1  0
 16 15  1  0
 16 17  1  1
 18 17  1  0
 19 18  2  0
 20 19  1  0
 21 22  1  0
 21 20  2  0
 22 23  2  0
 23 18  1  0
 24 25  2  0
 26 27  1  0
 26 24  1  0
 27 28  1  6
 28 29  1  0
 29 30  2  0
 30 31  1  0
 32 31  1  0
 33 29  1  0
 33 32  2  0
 34 35  1  0
 34 27  1  0
 36 34  2  0
M  END
$$$$
