WFH.pdb
     RDKit          3D

 36 39  0  0  1  0  0  0  0  0999 V2000
    7.4272  -15.9933   19.9238 N   0  0  0  0  0  0  0  0  0  0  0  0
    6.9714  -16.7194   21.0568 C   0  0  1  0  0  0  0  0  0  0  0  0
    6.8958  -18.1997   20.9132 C   0  0  0  0  0  0  0  0  0  0  0  0
    5.7443  -18.5520   20.0534 C   0  0  0  0  0  0  0  0  0  0  0  0
    5.7923  -18.8920   18.7109 C   0  0  0  0  0  0  0  0  0  0  0  0
    4.5637  -19.1756   18.2606 N   0  0  0  0  0  0  0  0  0  0  0  0
    3.7168  -19.0222   19.3000 C   0  0  0  0  0  0  0  0  0  0  0  0
    2.3624  -19.1809   19.3775 C   0  0  0  0  0  0  0  0  0  0  0  0
    1.6769  -18.9635   20.5529 C   0  0  0  0  0  0  0  0  0  0  0  0
    2.3797  -18.5803   21.6603 C   0  0  0  0  0  0  0  0  0  0  0  0
    3.7602  -18.4144   21.5981 C   0  0  0  0  0  0  0  0  0  0  0  0
    4.4287  -18.6344   20.4244 C   0  0  0  0  0  0  0  0  0  0  0  0
    7.7735  -16.3124   22.2620 C   0  0  0  0  0  0  0  0  0  0  0  0
    9.0116  -16.0666   22.1330 O   0  0  0  0  0  0  0  0  0  0  0  0
    7.2248  -16.1856   23.5464 N   0  0  0  0  0  0  0  0  0  0  0  0
    8.0584  -15.7216   24.6914 C   0  0  1  0  0  0  0  0  0  0  0  0
    7.0800  -15.1865   25.6720 C   0  0  0  0  0  0  0  0  0  0  0  0
    7.2372  -13.8093   26.1146 C   0  0  0  0  0  0  0  0  0  0  0  0
    8.4131  -13.3385   26.6437 C   0  0  0  0  0  0  0  0  0  0  0  0
    8.5568  -12.0194   27.0667 C   0  0  0  0  0  0  0  0  0  0  0  0
    7.4928  -11.1471   26.9567 C   0  0  0  0  0  0  0  0  0  0  0  0
    6.3133  -11.6228   26.4249 C   0  0  0  0  0  0  0  0  0  0  0  0
    6.1649  -12.9306   26.0036 C   0  0  0  0  0  0  0  0  0  0  0  0
    8.7758  -16.9032   25.1877 C   0  0  0  0  0  0  0  0  0  0  0  0
    8.1326  -17.8501   25.7628 O   0  0  0  0  0  0  0  0  0  0  0  0
   10.1917  -17.1216   25.0848 N   0  0  0  0  0  0  0  0  0  0  0  0
   10.8238  -18.2122   25.7715 C   0  0  1  0  0  0  0  0  0  0  0  0
   12.2053  -18.4551   25.2613 C   0  0  0  0  0  0  0  0  0  0  0  0
   12.3626  -18.5634   23.8107 C   0  0  0  0  0  0  0  0  0  0  0  0
   11.4617  -18.8770   22.8307 C   0  0  0  0  0  0  0  0  0  0  0  0
   12.0733  -18.8137   21.6066 N   0  0  0  0  0  0  0  0  0  0  0  0
   13.3265  -18.4649   21.8542 C   0  0  0  0  0  0  0  0  0  0  0  0
   13.5350  -18.3068   23.1586 N   0  0  0  0  0  0  0  0  0  0  0  0
   10.8252  -18.1104   27.2419 C   0  0  0  0  0  0  0  0  0  0  0  0
   10.7474  -16.9799   27.9980 O   0  0  0  0  0  0  0  0  0  0  0  0
   10.9097  -19.2158   27.8800 O   0  0  0  0  0  0  0  0  0  0  0  0
  2  1  1  6
  3  2  1  0
  4  3  1  0
  4  5  2  0
  6  5  1  0
  7 12  2  0
  7  6  1  0
  8  7  1  0
  9  8  2  0
 10  9  1  0
 10 11  2  0
 11 12  1  0
 12  4  1  0
 13  2  1  0
 14 13  2  0
 15 13  1  0
 16 24  1  0
 16 15  1  0
 16 17  1  1
 18 17  1  0
 19 18  2  0
 20 19  1  0
 21 22  1  0
 21 20  2  0
 22 23  2  0
 23 18  1  0
 24 25  2  0
 26 27  1  0
 26 24  1  0
 27 28  1  6
 28 29  1  0
 29 30  2  0
 30 31  1  0
 32 31  1  0
 33 29  1  0
 33 32  2  0
 34 35  1  0
 34 27  1  0
 36 34  2  0
M  END
$$$$
