WFH.pdb
     RDKit          3D

 36 39  0  0  1  0  0  0  0  0999 V2000
    9.0361  -18.3369   21.6317 N   0  0  0  0  0  0  0  0  0  0  0  0
   10.0937  -17.3960   21.7534 C   0  0  1  0  0  0  0  0  0  0  0  0
   10.2063  -16.3767   20.6736 C   0  0  0  0  0  0  0  0  0  0  0  0
    8.9021  -15.7002   20.4984 C   0  0  0  0  0  0  0  0  0  0  0  0
    7.6600  -16.2009   20.8544 C   0  0  0  0  0  0  0  0  0  0  0  0
    6.7028  -15.3076   20.5743 N   0  0  0  0  0  0  0  0  0  0  0  0
    7.3128  -14.2298   20.0382 C   0  0  0  0  0  0  0  0  0  0  0  0
    6.7985  -13.0509   19.5786 C   0  0  0  0  0  0  0  0  0  0  0  0
    7.6078  -12.0669   19.0536 C   0  0  0  0  0  0  0  0  0  0  0  0
    8.9552  -12.2875   18.9968 C   0  0  0  0  0  0  0  0  0  0  0  0
    9.4951  -13.4833   19.4612 C   0  0  0  0  0  0  0  0  0  0  0  0
    8.6799  -14.4519   19.9810 C   0  0  0  0  0  0  0  0  0  0  0  0
   10.0417  -16.7654   23.1177 C   0  0  0  0  0  0  0  0  0  0  0  0
   11.1234  -16.4421   23.6967 O   0  0  0  0  0  0  0  0  0  0  0  0
    8.8454  -16.5076   23.8027 N   0  0  0  0  0  0  0  0  0  0  0  0
    8.8052  -15.5349   24.9313 C   0  0  1  0  0  0  0  0  0  0  0  0
    7.5012  -14.8410   24.7788 C   0  0  0  0  0  0  0  0  0  0  0  0
    7.1835  -13.7678   25.7086 C   0  0  0  0  0  0  0  0  0  0  0  0
    5.9839  -13.7039   26.3730 C   0  0  0  0  0  0  0  0  0  0  0  0
    5.6854  -12.6733   27.2609 C   0  0  0  0  0  0  0  0  0  0  0  0
    6.6145  -11.6785   27.4899 C   0  0  0  0  0  0  0  0  0  0  0  0
    7.8181  -11.7455   26.8213 C   0  0  0  0  0  0  0  0  0  0  0  0
    8.1199  -12.7656   25.9392 C   0  0  0  0  0  0  0  0  0  0  0  0
    8.8892  -16.3275   26.1649 C   0  0  0  0  0  0  0  0  0  0  0  0
    8.7468  -15.7592   27.3041 O   0  0  0  0  0  0  0  0  0  0  0  0
    9.1192  -17.7438   26.2305 N   0  0  0  0  0  0  0  0  0  0  0  0
    9.2587  -18.4129   27.4928 C   0  0  1  0  0  0  0  0  0  0  0  0
    8.8906  -19.8560   27.3926 C   0  0  0  0  0  0  0  0  0  0  0  0
    7.7112  -20.1811   26.5900 C   0  0  0  0  0  0  0  0  0  0  0  0
    6.6058  -19.4391   26.2766 C   0  0  0  0  0  0  0  0  0  0  0  0
    5.7814  -20.1654   25.4585 N   0  0  0  0  0  0  0  0  0  0  0  0
    6.3896  -21.3288   25.2851 C   0  0  0  0  0  0  0  0  0  0  0  0
    7.5437  -21.3736   25.9454 N   0  0  0  0  0  0  0  0  0  0  0  0
   10.5724  -18.2575   28.1427 C   0  0  0  0  0  0  0  0  0  0  0  0
   11.6593  -17.5846   27.6721 O   0  0  0  0  0  0  0  0  0  0  0  0
   10.7040  -18.8226   29.2826 O   0  0  0  0  0  0  0  0  0  0  0  0
  2  1  1  6
  3  2  1  0
  4  3  1  0
  4  5  2  0
  6  5  1  0
  7 12  2  0
  7  6  1  0
  8  7  1  0
  9  8  2  0
 10  9  1  0
 10 11  2  0
 11 12  1  0
 12  4  1  0
 13  2  1  0
 14 13  2  0
 15 13  1  0
 16 24  1  0
 16 15  1  0
 16 17  1  1
 18 17  1  0
 19 18  2  0
 20 19  1  0
 21 22  1  0
 21 20  2  0
 22 23  2  0
 23 18  1  0
 24 25  2  0
 26 27  1  0
 26 24  1  0
 27 28  1  6
 28 29  1  0
 29 30  2  0
 30 31  1  0
 32 31  1  0
 33 29  1  0
 33 32  2  0
 34 35  1  0
 34 27  1  0
 36 34  2  0
M  END
$$$$
