FVY.pdb
     RDKit          3D

 31 32  0  0  1  0  0  0  0  0999 V2000
    5.1688  -17.2531   24.5456 N   0  0  0  0  0  0  0  0  0  0  0  0
    6.1431  -16.2070   24.4727 C   0  0  1  0  0  0  0  0  0  0  0  0
    6.4510  -15.8053   25.9217 C   0  0  0  0  0  0  0  0  0  0  0  0
    6.6800  -14.3476   26.0078 C   0  0  0  0  0  0  0  0  0  0  0  0
    7.9315  -13.8160   25.8861 C   0  0  0  0  0  0  0  0  0  0  0  0
    8.1597  -12.4713   25.9628 C   0  0  0  0  0  0  0  0  0  0  0  0
    7.0923  -11.6350   26.1687 C   0  0  0  0  0  0  0  0  0  0  0  0
    5.8202  -12.1288   26.2961 C   0  0  0  0  0  0  0  0  0  0  0  0
    5.6206  -13.4876   26.2142 C   0  0  0  0  0  0  0  0  0  0  0  0
    7.4430  -16.7187   23.9298 C   0  0  0  0  0  0  0  0  0  0  0  0
    7.7855  -17.8994   24.0656 O   0  0  0  0  0  0  0  0  0  0  0  0
    8.7440  -15.8005   20.3365 C   0  0  0  0  0  0  0  0  0  0  0  0
    9.8677  -15.5471   21.3395 C   0  0  2  0  0  0  0  0  0  0  0  0
   11.2156  -15.9232   20.7961 C   0  0  0  0  0  0  0  0  0  0  0  0
    9.5784  -16.2149   22.6653 C   0  0  2  0  0  0  0  0  0  0  0  0
    8.3206  -15.8294   23.2324 N   0  0  0  0  0  0  0  0  0  0  0  0
   10.6934  -16.0202   23.6198 C   0  0  0  0  0  0  0  0  0  0  0  0
   11.1964  -14.8767   23.7024 O   0  0  0  0  0  0  0  0  0  0  0  0
    8.2788  -20.1599   29.0262 O   0  0  0  0  0  0  0  0  0  0  0  0
    9.1197  -19.2236   28.4361 C   0  0  0  0  0  0  0  0  0  0  0  0
    8.6506  -18.1780   27.6791 C   0  0  0  0  0  0  0  0  0  0  0  0
    9.5391  -17.2739   27.1137 C   0  0  0  0  0  0  0  0  0  0  0  0
   10.9003  -17.3835   27.2838 C   0  0  0  0  0  0  0  0  0  0  0  0
   11.8774  -16.4525   26.6905 C   0  0  0  0  0  0  0  0  0  0  0  0
   12.2946  -16.9523   25.3559 C   0  0  2  0  0  0  0  0  0  0  0  0
   11.1918  -17.0746   24.4217 N   0  0  0  0  0  0  0  0  0  0  0  0
   13.0667  -18.2041   25.3576 C   0  0  0  0  0  0  0  0  0  0  0  0
   12.6264  -19.2014   24.7005 O   0  0  0  0  0  0  0  0  0  0  0  0
   11.3713  -18.4297   28.0414 C   0  0  0  0  0  0  0  0  0  0  0  0
   10.4967  -19.3463   28.6161 C   0  0  0  0  0  0  0  0  0  0  0  0
   14.2644  -18.4207   26.0212 O   0  0  0  0  0  0  0  0  0  0  0  0
  2  1  1  1
  2 10  1  0
  2  3  1  0
  3  4  1  0
  4  9  1  0
  4  5  2  0
  5  6  1  0
  6  7  2  0
  8  7  1  0
  9  8  2  0
 10 11  2  0
 13 15  1  0
 13 14  1  6
 13 12  1  0
 15 16  1  1
 16 10  1  0
 17 26  1  0
 17 15  1  0
 18 17  2  0
 20 30  2  0
 20 19  1  0
 21 20  1  0
 22 23  1  0
 22 21  2  0
 23 29  2  0
 24 23  1  0
 25 26  1  0
 25 24  1  1
 27 25  1  0
 28 27  2  0
 29 30  1  0
 31 27  1  0
M  END
$$$$
