FVY.pdb
     RDKit          3D

 31 32  0  0  1  0  0  0  0  0999 V2000
    5.8916  -16.5684   26.2527 N   0  0  0  0  0  0  0  0  0  0  0  0
    6.3884  -15.5666   25.3590 C   0  0  1  0  0  0  0  0  0  0  0  0
    7.2534  -14.6248   26.2077 C   0  0  0  0  0  0  0  0  0  0  0  0
    6.6339  -13.2842   26.2713 C   0  0  0  0  0  0  0  0  0  0  0  0
    6.5920  -12.4678   25.1780 C   0  0  0  0  0  0  0  0  0  0  0  0
    6.0229  -11.2266   25.2202 C   0  0  0  0  0  0  0  0  0  0  0  0
    5.4783  -10.7940   26.4023 C   0  0  0  0  0  0  0  0  0  0  0  0
    5.5001  -11.5831   27.5226 C   0  0  0  0  0  0  0  0  0  0  0  0
    6.0798  -12.8288   27.4503 C   0  0  0  0  0  0  0  0  0  0  0  0
    7.3325  -16.1594   24.3571 C   0  0  0  0  0  0  0  0  0  0  0  0
    7.8035  -17.2942   24.4984 O   0  0  0  0  0  0  0  0  0  0  0  0
    6.8995  -15.4747   20.4472 C   0  0  0  0  0  0  0  0  0  0  0  0
    8.3665  -15.2949   20.8323 C   0  0  2  0  0  0  0  0  0  0  0  0
    9.3021  -15.8511   19.7985 C   0  0  0  0  0  0  0  0  0  0  0  0
    8.6421  -15.8507   22.2117 C   0  0  2  0  0  0  0  0  0  0  0  0
    7.7067  -15.4042   23.2006 N   0  0  0  0  0  0  0  0  0  0  0  0
   10.0408  -15.5953   22.6245 C   0  0  0  0  0  0  0  0  0  0  0  0
   10.4564  -14.4153   22.5754 O   0  0  0  0  0  0  0  0  0  0  0  0
    9.7503  -16.9389   29.3372 O   0  0  0  0  0  0  0  0  0  0  0  0
   10.4294  -16.5954   28.1740 C   0  0  0  0  0  0  0  0  0  0  0  0
   11.5890  -17.2174   27.7808 C   0  0  0  0  0  0  0  0  0  0  0  0
   12.2237  -16.8308   26.6085 C   0  0  0  0  0  0  0  0  0  0  0  0
   11.7288  -15.8285   25.8060 C   0  0  0  0  0  0  0  0  0  0  0  0
   12.3786  -15.3799   24.5610 C   0  0  0  0  0  0  0  0  0  0  0  0
   12.2590  -16.4390   23.5271 C   0  0  2  0  0  0  0  0  0  0  0  0
   10.8986  -16.6324   23.0626 N   0  0  0  0  0  0  0  0  0  0  0  0
   12.8378  -17.7437   23.8821 C   0  0  0  0  0  0  0  0  0  0  0  0
   12.0918  -18.7749   23.8643 O   0  0  0  0  0  0  0  0  0  0  0  0
   10.5679  -15.2050   26.1984 C   0  0  0  0  0  0  0  0  0  0  0  0
    9.9172  -15.5781   27.3700 C   0  0  0  0  0  0  0  0  0  0  0  0
   14.1547  -17.9779   24.2461 O   0  0  0  0  0  0  0  0  0  0  0  0
  2  1  1  1
  2 10  1  0
  2  3  1  0
  3  4  1  0
  4  9  1  0
  4  5  2  0
  5  6  1  0
  6  7  2  0
  8  7  1  0
  9  8  2  0
 10 11  2  0
 13 15  1  0
 13 14  1  6
 13 12  1  0
 15 16  1  1
 16 10  1  0
 17 26  1  0
 17 15  1  0
 18 17  2  0
 20 30  2  0
 20 19  1  0
 21 20  1  0
 22 23  1  0
 22 21  2  0
 23 29  2  0
 24 23  1  0
 25 26  1  0
 25 24  1  1
 27 25  1  0
 28 27  2  0
 29 30  1  0
 31 27  1  0
M  END
$$$$
