FVY.pdb
     RDKit          3D

 31 32  0  0  1  0  0  0  0  0999 V2000
    5.7841  -17.1406   20.9107 N   0  0  0  0  0  0  0  0  0  0  0  0
    6.8531  -16.5268   21.6384 C   0  0  1  0  0  0  0  0  0  0  0  0
    6.4042  -15.0881   21.9287 C   0  0  0  0  0  0  0  0  0  0  0  0
    7.1430  -14.1411   21.0671 C   0  0  0  0  0  0  0  0  0  0  0  0
    8.4182  -13.7552   21.3648 C   0  0  0  0  0  0  0  0  0  0  0  0
    9.1145  -12.8814   20.5787 C   0  0  0  0  0  0  0  0  0  0  0  0
    8.5063  -12.3804   19.4561 C   0  0  0  0  0  0  0  0  0  0  0  0
    7.2275  -12.7427   19.1222 C   0  0  0  0  0  0  0  0  0  0  0  0
    6.5506  -13.6247   19.9326 C   0  0  0  0  0  0  0  0  0  0  0  0
    7.0186  -17.1587   22.9874 C   0  0  0  0  0  0  0  0  0  0  0  0
    6.0493  -17.3998   23.7167 O   0  0  0  0  0  0  0  0  0  0  0  0
    8.3315  -20.4082   23.6581 C   0  0  0  0  0  0  0  0  0  0  0  0
    9.1981  -19.5232   24.5516 C   0  0  2  0  0  0  0  0  0  0  0  0
    9.4972  -20.1645   25.8754 C   0  0  0  0  0  0  0  0  0  0  0  0
    8.5949  -18.1450   24.7066 C   0  0  2  0  0  0  0  0  0  0  0  0
    8.3271  -17.4988   23.4564 N   0  0  0  0  0  0  0  0  0  0  0  0
    9.4169  -17.2956   25.5982 C   0  0  0  0  0  0  0  0  0  0  0  0
   10.5026  -16.8614   25.1509 O   0  0  0  0  0  0  0  0  0  0  0  0
    6.5344  -11.6099   24.7254 O   0  0  0  0  0  0  0  0  0  0  0  0
    7.1541  -12.4423   25.6501 C   0  0  0  0  0  0  0  0  0  0  0  0
    8.4784  -12.3160   25.9917 C   0  0  0  0  0  0  0  0  0  0  0  0
    9.0430  -13.1777   26.9218 C   0  0  0  0  0  0  0  0  0  0  0  0
    8.3155  -14.1752   27.5296 C   0  0  0  0  0  0  0  0  0  0  0  0
    8.8801  -15.1182   28.5121 C   0  0  0  0  0  0  0  0  0  0  0  0
    9.7454  -16.1039   27.8161 C   0  0  2  0  0  0  0  0  0  0  0  0
    9.0115  -16.9720   26.9151 N   0  0  0  0  0  0  0  0  0  0  0  0
   10.6026  -16.9243   28.6853 C   0  0  0  0  0  0  0  0  0  0  0  0
   10.2895  -18.1412   28.8894 O   0  0  0  0  0  0  0  0  0  0  0  0
    6.9897  -14.3028   27.1887 C   0  0  0  0  0  0  0  0  0  0  0  0
    6.4056  -13.4490   26.2584 C   0  0  0  0  0  0  0  0  0  0  0  0
   11.7550  -16.4989   29.3274 O   0  0  0  0  0  0  0  0  0  0  0  0
  2  1  1  6
  2 10  1  0
  2  3  1  0
  3  4  1  0
  4  9  1  0
  4  5  2  0
  5  6  1  0
  6  7  2  0
  8  7  1  0
  9  8  2  0
 10 11  2  0
 13 15  1  0
 13 14  1  1
 13 12  1  0
 15 16  1  6
 16 10  1  0
 17 26  1  0
 17 15  1  0
 18 17  2  0
 20 30  2  0
 20 19  1  0
 21 20  1  0
 22 23  1  0
 22 21  2  0
 23 29  2  0
 24 23  1  0
 25 26  1  0
 25 24  1  1
 27 25  1  0
 28 27  2  0
 29 30  1  0
 31 27  1  0
M  END
$$$$
