FVY.pdb
     RDKit          3D

 31 32  0  0  1  0  0  0  0  0999 V2000
    6.0351  -17.6767   25.9639 N   0  0  0  0  0  0  0  0  0  0  0  0
    6.5088  -16.4477   25.4033 C   0  0  1  0  0  0  0  0  0  0  0  0
    7.3999  -15.8029   26.4738 C   0  0  0  0  0  0  0  0  0  0  0  0
    7.0925  -14.3618   26.5909 C   0  0  0  0  0  0  0  0  0  0  0  0
    5.8106  -13.9185   26.7451 C   0  0  0  0  0  0  0  0  0  0  0  0
    5.5100  -12.5904   26.8551 C   0  0  0  0  0  0  0  0  0  0  0  0
    6.5343  -11.6795   26.8084 C   0  0  0  0  0  0  0  0  0  0  0  0
    7.8348  -12.0836   26.6546 C   0  0  0  0  0  0  0  0  0  0  0  0
    8.1075  -13.4279   26.5466 C   0  0  0  0  0  0  0  0  0  0  0  0
    7.4227  -16.7022   24.2429 C   0  0  0  0  0  0  0  0  0  0  0  0
    8.0601  -17.7566   24.1353 O   0  0  0  0  0  0  0  0  0  0  0  0
    8.3190  -13.4844   21.2314 C   0  0  0  0  0  0  0  0  0  0  0  0
    8.0275  -14.9524   20.9272 C   0  0  2  0  0  0  0  0  0  0  0  0
    6.6051  -15.1777   20.5035 C   0  0  0  0  0  0  0  0  0  0  0  0
    8.4277  -15.8406   22.0840 C   0  0  2  0  0  0  0  0  0  0  0  0
    7.5705  -15.7082   23.2242 N   0  0  0  0  0  0  0  0  0  0  0  0
    9.8512  -15.6477   22.4424 C   0  0  0  0  0  0  0  0  0  0  0  0
   10.4085  -14.5915   22.0666 O   0  0  0  0  0  0  0  0  0  0  0  0
    9.2481  -16.1164   29.3864 O   0  0  0  0  0  0  0  0  0  0  0  0
    9.9030  -15.8566   28.1882 C   0  0  0  0  0  0  0  0  0  0  0  0
    9.4430  -14.9397   27.2749 C   0  0  0  0  0  0  0  0  0  0  0  0
   10.1397  -14.7232   26.0941 C   0  0  0  0  0  0  0  0  0  0  0  0
   11.2975  -15.4035   25.7936 C   0  0  0  0  0  0  0  0  0  0  0  0
   12.0596  -15.2121   24.5462 C   0  0  0  0  0  0  0  0  0  0  0  0
   11.9243  -16.4177   23.6900 C   0  0  2  0  0  0  0  0  0  0  0  0
   10.5790  -16.6097   23.1828 N   0  0  0  0  0  0  0  0  0  0  0  0
   12.4008  -17.6765   24.2829 C   0  0  0  0  0  0  0  0  0  0  0  0
   13.5884  -17.7337   24.7373 O   0  0  0  0  0  0  0  0  0  0  0  0
   11.7591  -16.3217   26.7069 C   0  0  0  0  0  0  0  0  0  0  0  0
   11.0749  -16.5530   27.8960 C   0  0  0  0  0  0  0  0  0  0  0  0
   11.6688  -18.8474   24.4039 O   0  0  0  0  0  0  0  0  0  0  0  0
  2  1  1  1
  2 10  1  0
  2  3  1  0
  3  4  1  0
  4  9  1  0
  4  5  2  0
  5  6  1  0
  6  7  2  0
  8  7  1  0
  9  8  2  0
 10 11  2  0
 13 15  1  0
 13 14  1  1
 13 12  1  0
 15 16  1  1
 16 10  1  0
 17 26  1  0
 17 15  1  0
 18 17  2  0
 20 30  2  0
 20 19  1  0
 21 20  1  0
 22 23  1  0
 22 21  2  0
 23 29  2  0
 24 23  1  0
 25 26  1  0
 25 24  1  1
 27 25  1  0
 28 27  2  0
 29 30  1  0
 31 27  1  0
M  END
$$$$
