FVY.pdb
     RDKit          3D

 31 32  0  0  1  0  0  0  0  0999 V2000
    5.8877  -17.9110   25.1329 N   0  0  0  0  0  0  0  0  0  0  0  0
    6.3385  -16.5811   24.8550 C   0  0  1  0  0  0  0  0  0  0  0  0
    7.0680  -16.1024   26.1176 C   0  0  0  0  0  0  0  0  0  0  0  0
    6.9275  -14.6381   26.2620 C   0  0  0  0  0  0  0  0  0  0  0  0
    5.6999  -14.0420   26.3006 C   0  0  0  0  0  0  0  0  0  0  0  0
    5.5531  -12.6903   26.4339 C   0  0  0  0  0  0  0  0  0  0  0  0
    6.6796  -11.9141   26.5317 C   0  0  0  0  0  0  0  0  0  0  0  0
    7.9302  -12.4737   26.4971 C   0  0  0  0  0  0  0  0  0  0  0  0
    8.0474  -13.8379   26.3622 C   0  0  0  0  0  0  0  0  0  0  0  0
    7.3846  -16.5805   23.7816 C   0  0  0  0  0  0  0  0  0  0  0  0
    8.1067  -17.5633   23.5757 O   0  0  0  0  0  0  0  0  0  0  0  0
    6.6383  -14.2194   20.4472 C   0  0  0  0  0  0  0  0  0  0  0  0
    8.0985  -14.2010   20.8945 C   0  0  2  0  0  0  0  0  0  0  0  0
    9.0508  -14.1194   19.7370 C   0  0  0  0  0  0  0  0  0  0  0  0
    8.4057  -15.3671   21.8073 C   0  0  2  0  0  0  0  0  0  0  0  0
    7.5629  -15.4194   22.9645 N   0  0  0  0  0  0  0  0  0  0  0  0
    9.8404  -15.4012   22.1715 C   0  0  0  0  0  0  0  0  0  0  0  0
   10.5908  -14.5368   21.6642 O   0  0  0  0  0  0  0  0  0  0  0  0
   11.1538  -16.3211   30.4704 O   0  0  0  0  0  0  0  0  0  0  0  0
   11.0301  -15.9295   29.1424 C   0  0  0  0  0  0  0  0  0  0  0  0
   10.4189  -14.7579   28.7682 C   0  0  0  0  0  0  0  0  0  0  0  0
   10.3244  -14.4197   27.4254 C   0  0  0  0  0  0  0  0  0  0  0  0
   10.8287  -15.2267   26.4314 C   0  0  0  0  0  0  0  0  0  0  0  0
   10.7378  -14.9103   24.9944 C   0  0  0  0  0  0  0  0  0  0  0  0
   11.2170  -16.0683   24.1980 C   0  0  2  0  0  0  0  0  0  0  0  0
   10.3698  -16.3679   23.0594 N   0  0  0  0  0  0  0  0  0  0  0  0
   11.4617  -17.3047   24.9560 C   0  0  0  0  0  0  0  0  0  0  0  0
   12.6479  -17.5736   25.3315 O   0  0  0  0  0  0  0  0  0  0  0  0
   11.4409  -16.3999   26.8046 C   0  0  0  0  0  0  0  0  0  0  0  0
   11.5453  -16.7565   28.1452 C   0  0  0  0  0  0  0  0  0  0  0  0
   10.5050  -18.2403   25.3179 O   0  0  0  0  0  0  0  0  0  0  0  0
  2  1  1  1
  2 10  1  0
  2  3  1  0
  3  4  1  0
  4  9  1  0
  4  5  2  0
  5  6  1  0
  6  7  2  0
  8  7  1  0
  9  8  2  0
 10 11  2  0
 13 15  1  0
 13 14  1  6
 13 12  1  0
 15 16  1  1
 16 10  1  0
 17 26  1  0
 17 15  1  0
 18 17  2  0
 20 30  2  0
 20 19  1  0
 21 20  1  0
 22 23  1  0
 22 21  2  0
 23 29  2  0
 24 23  1  0
 25 26  1  0
 25 24  1  1
 27 25  1  0
 28 27  2  0
 29 30  1  0
 31 27  1  0
M  END
$$$$
