FVY.pdb
     RDKit          3D

 31 32  0  0  1  0  0  0  0  0999 V2000
    5.7130  -18.0694   24.5068 N   0  0  0  0  0  0  0  0  0  0  0  0
    6.1118  -16.6990   24.3965 C   0  0  1  0  0  0  0  0  0  0  0  0
    6.7026  -16.3128   25.7594 C   0  0  0  0  0  0  0  0  0  0  0  0
    6.7231  -14.8422   25.9066 C   0  0  0  0  0  0  0  0  0  0  0  0
    5.5762  -14.1327   26.1181 C   0  0  0  0  0  0  0  0  0  0  0  0
    5.5782  -12.7736   26.2565 C   0  0  0  0  0  0  0  0  0  0  0  0
    6.7749  -12.1078   26.1795 C   0  0  0  0  0  0  0  0  0  0  0  0
    7.9485  -12.7831   25.9683 C   0  0  0  0  0  0  0  0  0  0  0  0
    7.9158  -14.1519   25.8328 C   0  0  0  0  0  0  0  0  0  0  0  0
    7.2445  -16.5443   23.4273 C   0  0  0  0  0  0  0  0  0  0  0  0
    8.0699  -17.4464   23.2412 O   0  0  0  0  0  0  0  0  0  0  0  0
    6.6684  -14.1795   20.0215 C   0  0  0  0  0  0  0  0  0  0  0  0
    7.9983  -13.9568   20.7387 C   0  0  2  0  0  0  0  0  0  0  0  0
    9.1132  -13.6286   19.7885 C   0  0  0  0  0  0  0  0  0  0  0  0
    8.3375  -15.1250   21.6373 C   0  0  2  0  0  0  0  0  0  0  0  0
    7.3865  -15.3264   22.6895 N   0  0  0  0  0  0  0  0  0  0  0  0
    9.7189  -15.0183   22.1593 C   0  0  0  0  0  0  0  0  0  0  0  0
   10.3383  -13.9499   21.9537 O   0  0  0  0  0  0  0  0  0  0  0  0
   11.6770  -15.6195   30.5021 O   0  0  0  0  0  0  0  0  0  0  0  0
   11.1936  -15.6479   29.1993 C   0  0  0  0  0  0  0  0  0  0  0  0
   10.8743  -16.8162   28.5516 C   0  0  0  0  0  0  0  0  0  0  0  0
   10.3961  -16.7821   27.2490 C   0  0  0  0  0  0  0  0  0  0  0  0
   10.2244  -15.6009   26.5644 C   0  0  0  0  0  0  0  0  0  0  0  0
    9.7315  -15.5224   25.1772 C   0  0  0  0  0  0  0  0  0  0  0  0
   10.7879  -15.9932   24.2459 C   0  0  2  0  0  0  0  0  0  0  0  0
   10.3402  -16.0738   22.8685 N   0  0  0  0  0  0  0  0  0  0  0  0
   11.4449  -17.2564   24.6145 C   0  0  0  0  0  0  0  0  0  0  0  0
   10.9842  -18.3492   24.1520 O   0  0  0  0  0  0  0  0  0  0  0  0
   10.5435  -14.4305   27.2115 C   0  0  0  0  0  0  0  0  0  0  0  0
   11.0244  -14.4439   28.5169 C   0  0  0  0  0  0  0  0  0  0  0  0
   12.5507  -17.3879   25.4400 O   0  0  0  0  0  0  0  0  0  0  0  0
  2  1  1  1
  2 10  1  0
  2  3  1  0
  3  4  1  0
  4  9  1  0
  4  5  2  0
  5  6  1  0
  6  7  2  0
  8  7  1  0
  9  8  2  0
 10 11  2  0
 13 15  1  0
 13 14  1  6
 13 12  1  0
 15 16  1  1
 16 10  1  0
 17 26  1  0
 17 15  1  0
 18 17  2  0
 20 30  2  0
 20 19  1  0
 21 20  1  0
 22 23  1  0
 22 21  2  0
 23 29  2  0
 24 23  1  0
 25 26  1  0
 25 24  1  1
 27 25  1  0
 28 27  2  0
 29 30  1  0
 31 27  1  0
M  END
$$$$
