FVY.pdb
     RDKit          3D

 31 32  0  0  1  0  0  0  0  0999 V2000
   12.9140  -13.7061   17.7101 N   0  0  0  0  0  0  0  0  0  0  0  0
   12.4683  -14.7677   18.5606 C   0  0  1  0  0  0  0  0  0  0  0  0
   13.7254  -15.3343   19.2348 C   0  0  0  0  0  0  0  0  0  0  0  0
   14.5142  -16.1194   18.2620 C   0  0  0  0  0  0  0  0  0  0  0  0
   15.5650  -15.5670   17.5879 C   0  0  0  0  0  0  0  0  0  0  0  0
   16.3040  -16.2791   16.6862 C   0  0  0  0  0  0  0  0  0  0  0  0
   15.9738  -17.5903   16.4565 C   0  0  0  0  0  0  0  0  0  0  0  0
   14.9262  -18.1820   17.1127 C   0  0  0  0  0  0  0  0  0  0  0  0
   14.1998  -17.4403   18.0155 C   0  0  0  0  0  0  0  0  0  0  0  0
   11.6313  -14.2403   19.6865 C   0  0  0  0  0  0  0  0  0  0  0  0
   11.9630  -13.2373   20.3298 O   0  0  0  0  0  0  0  0  0  0  0  0
    7.7345  -13.8400   19.3579 C   0  0  0  0  0  0  0  0  0  0  0  0
    8.0471  -14.6020   20.6441 C   0  0  2  0  0  0  0  0  0  0  0  0
    7.1122  -14.2447   21.7628 C   0  0  0  0  0  0  0  0  0  0  0  0
    9.4985  -14.4395   21.0372 C   0  0  2  0  0  0  0  0  0  0  0  0
   10.4128  -14.9037   20.0368 N   0  0  0  0  0  0  0  0  0  0  0  0
    9.7701  -15.0543   22.3564 C   0  0  0  0  0  0  0  0  0  0  0  0
    9.8277  -16.3036   22.4161 O   0  0  0  0  0  0  0  0  0  0  0  0
   10.0394  -16.3627   31.0017 O   0  0  0  0  0  0  0  0  0  0  0  0
    9.8397  -15.8089   29.7426 C   0  0  0  0  0  0  0  0  0  0  0  0
   10.3640  -14.5939   29.3748 C   0  0  0  0  0  0  0  0  0  0  0  0
   10.1302  -14.0908   28.1025 C   0  0  0  0  0  0  0  0  0  0  0  0
    9.3787  -14.7736   27.1736 C   0  0  0  0  0  0  0  0  0  0  0  0
    9.0967  -14.2688   25.8175 C   0  0  0  0  0  0  0  0  0  0  0  0
   10.0930  -14.8194   24.8639 C   0  0  2  0  0  0  0  0  0  0  0  0
    9.9610  -14.2783   23.5246 N   0  0  0  0  0  0  0  0  0  0  0  0
   10.1579  -16.2867   24.7874 C   0  0  0  0  0  0  0  0  0  0  0  0
    9.1728  -16.9228   24.2921 O   0  0  0  0  0  0  0  0  0  0  0  0
    8.8533  -15.9900   27.5404 C   0  0  0  0  0  0  0  0  0  0  0  0
    9.0763  -16.5109   28.8109 C   0  0  0  0  0  0  0  0  0  0  0  0
   11.2143  -17.0778   25.2113 O   0  0  0  0  0  0  0  0  0  0  0  0
  2  1  1  6
  2 10  1  0
  2  3  1  0
  3  4  1  0
  4  9  1  0
  4  5  2  0
  5  6  1  0
  6  7  2  0
  8  7  1  0
  9  8  2  0
 10 11  2  0
 13 15  1  0
 13 14  1  1
 13 12  1  0
 15 16  1  6
 16 10  1  0
 17 26  1  0
 17 15  1  0
 18 17  2  0
 20 30  2  0
 20 19  1  0
 21 20  1  0
 22 23  1  0
 22 21  2  0
 23 29  2  0
 24 23  1  0
 25 26  1  0
 25 24  1  1
 27 25  1  0
 28 27  2  0
 29 30  1  0
 31 27  1  0
M  END
$$$$
