FVY.pdb
     RDKit          3D

 31 32  0  0  1  0  0  0  0  0999 V2000
    9.0767  -14.1337   21.0494 N   0  0  0  0  0  0  0  0  0  0  0  0
    8.1774  -14.5971   22.0622 C   0  0  1  0  0  0  0  0  0  0  0  0
    8.1262  -16.1248   21.9245 C   0  0  0  0  0  0  0  0  0  0  0  0
    7.0376  -16.5164   21.0043 C   0  0  0  0  0  0  0  0  0  0  0  0
    7.1292  -16.2965   19.6601 C   0  0  0  0  0  0  0  0  0  0  0  0
    6.1324  -16.6527   18.7966 C   0  0  0  0  0  0  0  0  0  0  0  0
    5.0068  -17.2500   19.3039 C   0  0  0  0  0  0  0  0  0  0  0  0
    4.8759  -17.4883   20.6471 C   0  0  0  0  0  0  0  0  0  0  0  0
    5.8963  -17.1189   21.4930 C   0  0  0  0  0  0  0  0  0  0  0  0
    8.7359  -14.3517   23.4313 C   0  0  0  0  0  0  0  0  0  0  0  0
    9.9536  -14.3535   23.6475 O   0  0  0  0  0  0  0  0  0  0  0  0
    6.7386  -11.9478   26.1235 C   0  0  0  0  0  0  0  0  0  0  0  0
    7.2252  -13.2533   26.7493 C   0  0  2  0  0  0  0  0  0  0  0  0
    7.6925  -13.0707   28.1641 C   0  0  0  0  0  0  0  0  0  0  0  0
    8.2707  -13.9190   25.8826 C   0  0  2  0  0  0  0  0  0  0  0  0
    7.8484  -14.1061   24.5266 N   0  0  0  0  0  0  0  0  0  0  0  0
    8.7457  -15.1835   26.4889 C   0  0  0  0  0  0  0  0  0  0  0  0
    7.9564  -16.1553   26.5028 O   0  0  0  0  0  0  0  0  0  0  0  0
   11.4833  -17.6805   21.5233 O   0  0  0  0  0  0  0  0  0  0  0  0
   11.5982  -17.4510   22.8894 C   0  0  0  0  0  0  0  0  0  0  0  0
   12.1571  -16.3074   23.4052 C   0  0  0  0  0  0  0  0  0  0  0  0
   12.2455  -16.1340   24.7795 C   0  0  0  0  0  0  0  0  0  0  0  0
   11.7863  -17.0807   25.6664 C   0  0  0  0  0  0  0  0  0  0  0  0
   11.8728  -16.9407   27.1314 C   0  0  0  0  0  0  0  0  0  0  0  0
   10.5557  -16.5163   27.6698 C   0  0  2  0  0  0  0  0  0  0  0  0
   10.0424  -15.3142   27.0410 N   0  0  0  0  0  0  0  0  0  0  0  0
   10.4840  -16.3648   29.1310 C   0  0  0  0  0  0  0  0  0  0  0  0
   10.2511  -15.2133   29.6212 O   0  0  0  0  0  0  0  0  0  0  0  0
   11.2266  -18.2261   25.1514 C   0  0  0  0  0  0  0  0  0  0  0  0
   11.1292  -18.4184   23.7770 C   0  0  0  0  0  0  0  0  0  0  0  0
   10.6483  -17.3775   30.0632 O   0  0  0  0  0  0  0  0  0  0  0  0
  2  1  1  6
  2 10  1  0
  2  3  1  0
  3  4  1  0
  4  9  1  0
  4  5  2  0
  5  6  1  0
  6  7  2  0
  8  7  1  0
  9  8  2  0
 10 11  2  0
 13 15  1  0
 13 14  1  1
 13 12  1  0
 15 16  1  6
 16 10  1  0
 17 26  1  0
 17 15  1  0
 18 17  2  0
 20 30  2  0
 20 19  1  0
 21 20  1  0
 22 23  1  0
 22 21  2  0
 23 29  2  0
 24 23  1  0
 25 26  1  0
 25 24  1  1
 27 25  1  0
 28 27  2  0
 29 30  1  0
 31 27  1  0
M  END
$$$$
