FVY.pdb
     RDKit          3D

 31 32  0  0  1  0  0  0  0  0999 V2000
    5.4356  -17.1559   25.1248 N   0  0  0  0  0  0  0  0  0  0  0  0
    6.1247  -16.0915   24.4605 C   0  0  1  0  0  0  0  0  0  0  0  0
    7.0630  -15.4702   25.5042 C   0  0  0  0  0  0  0  0  0  0  0  0
    6.7737  -14.0284   25.6540 C   0  0  0  0  0  0  0  0  0  0  0  0
    5.5270  -13.5844   25.9892 C   0  0  0  0  0  0  0  0  0  0  0  0
    5.2435  -12.2557   26.1319 C   0  0  0  0  0  0  0  0  0  0  0  0
    6.2488  -11.3447   25.9305 C   0  0  0  0  0  0  0  0  0  0  0  0
    7.5139  -11.7495   25.5927 C   0  0  0  0  0  0  0  0  0  0  0  0
    7.7701  -13.0944   25.4562 C   0  0  0  0  0  0  0  0  0  0  0  0
    7.0328  -16.6218   23.3926 C   0  0  0  0  0  0  0  0  0  0  0  0
    6.6905  -17.5479   22.6477 O   0  0  0  0  0  0  0  0  0  0  0  0
    8.6505  -14.7748   19.6574 C   0  0  0  0  0  0  0  0  0  0  0  0
    8.0548  -14.9044   21.0577 C   0  0  2  0  0  0  0  0  0  0  0  0
    7.7544  -13.5707   21.6777 C   0  0  0  0  0  0  0  0  0  0  0  0
    8.9260  -15.7650   21.9453 C   0  0  2  0  0  0  0  0  0  0  0  0
    8.3330  -16.0503   23.2178 N   0  0  0  0  0  0  0  0  0  0  0  0
   10.2822  -15.1886   22.0888 C   0  0  0  0  0  0  0  0  0  0  0  0
   10.4919  -14.0610   21.5869 O   0  0  0  0  0  0  0  0  0  0  0  0
   11.2244  -15.6634   30.5274 O   0  0  0  0  0  0  0  0  0  0  0  0
   10.9809  -15.6581   29.1589 C   0  0  0  0  0  0  0  0  0  0  0  0
   10.8576  -14.4995   28.4317 C   0  0  0  0  0  0  0  0  0  0  0  0
   10.6136  -14.5566   27.0666 C   0  0  0  0  0  0  0  0  0  0  0  0
   10.4876  -15.7518   26.3963 C   0  0  0  0  0  0  0  0  0  0  0  0
   10.2161  -15.8557   24.9510 C   0  0  0  0  0  0  0  0  0  0  0  0
   11.4992  -15.8888   24.2044 C   0  0  2  0  0  0  0  0  0  0  0  0
   11.3227  -15.8695   22.7648 N   0  0  0  0  0  0  0  0  0  0  0  0
   12.4168  -16.9807   24.5634 C   0  0  0  0  0  0  0  0  0  0  0  0
   12.1693  -18.1572   24.1451 O   0  0  0  0  0  0  0  0  0  0  0  0
   10.6108  -16.9125   27.1230 C   0  0  0  0  0  0  0  0  0  0  0  0
   10.8551  -16.8759   28.4920 C   0  0  0  0  0  0  0  0  0  0  0  0
   13.5621  -16.8607   25.3351 O   0  0  0  0  0  0  0  0  0  0  0  0
  2  1  1  1
  2 10  1  0
  2  3  1  0
  3  4  1  0
  4  9  1  0
  4  5  2  0
  5  6  1  0
  6  7  2  0
  8  7  1  0
  9  8  2  0
 10 11  2  0
 13 15  1  0
 13 14  1  1
 13 12  1  0
 15 16  1  1
 16 10  1  0
 17 26  1  0
 17 15  1  0
 18 17  2  0
 20 30  2  0
 20 19  1  0
 21 20  1  0
 22 23  1  0
 22 21  2  0
 23 29  2  0
 24 23  1  0
 25 26  1  0
 25 24  1  1
 27 25  1  0
 28 27  2  0
 29 30  1  0
 31 27  1  0
M  END
$$$$
