FVY.pdb
     RDKit          3D

 31 32  0  0  1  0  0  0  0  0999 V2000
    5.9257  -17.6836   26.2910 N   0  0  0  0  0  0  0  0  0  0  0  0
    6.2515  -16.3955   25.7584 C   0  0  1  0  0  0  0  0  0  0  0  0
    6.8634  -15.5946   26.9159 C   0  0  0  0  0  0  0  0  0  0  0  0
    6.7548  -14.1455   26.6452 C   0  0  0  0  0  0  0  0  0  0  0  0
    5.5413  -13.5237   26.5781 C   0  0  0  0  0  0  0  0  0  0  0  0
    5.4240  -12.1856   26.3291 C   0  0  0  0  0  0  0  0  0  0  0  0
    6.5664  -11.4501   26.1419 C   0  0  0  0  0  0  0  0  0  0  0  0
    7.8037  -12.0365   26.2013 C   0  0  0  0  0  0  0  0  0  0  0  0
    7.8911  -13.3861   26.4539 C   0  0  0  0  0  0  0  0  0  0  0  0
    7.3450  -16.4955   24.7382 C   0  0  0  0  0  0  0  0  0  0  0  0
    8.2174  -17.3698   24.8026 O   0  0  0  0  0  0  0  0  0  0  0  0
    6.6597  -14.8711   20.9321 C   0  0  0  0  0  0  0  0  0  0  0  0
    8.0665  -14.6341   21.4772 C   0  0  2  0  0  0  0  0  0  0  0  0
    9.1121  -14.6760   20.4009 C   0  0  0  0  0  0  0  0  0  0  0  0
    8.3786  -15.5799   22.6154 C   0  0  2  0  0  0  0  0  0  0  0  0
    7.3926  -15.5623   23.6545 N   0  0  0  0  0  0  0  0  0  0  0  0
    9.7409  -15.3494   23.1477 C   0  0  0  0  0  0  0  0  0  0  0  0
   10.0227  -14.1969   23.5474 O   0  0  0  0  0  0  0  0  0  0  0  0
    9.5443  -15.3931   29.5327 O   0  0  0  0  0  0  0  0  0  0  0  0
   10.2444  -15.7710   28.3930 C   0  0  0  0  0  0  0  0  0  0  0  0
   10.9968  -14.8882   27.6576 C   0  0  0  0  0  0  0  0  0  0  0  0
   11.6742  -15.3237   26.5271 C   0  0  0  0  0  0  0  0  0  0  0  0
   11.6226  -16.6318   26.1030 C   0  0  0  0  0  0  0  0  0  0  0  0
   12.3164  -17.1314   24.9020 C   0  0  0  0  0  0  0  0  0  0  0  0
   12.0446  -16.2261   23.7569 C   0  0  2  0  0  0  0  0  0  0  0  0
   10.7091  -16.3797   23.2121 N   0  0  0  0  0  0  0  0  0  0  0  0
   13.0223  -16.2765   22.6593 C   0  0  0  0  0  0  0  0  0  0  0  0
   12.7001  -16.8552   21.5723 O   0  0  0  0  0  0  0  0  0  0  0  0
   10.8698  -17.5167   26.8382 C   0  0  0  0  0  0  0  0  0  0  0  0
   10.1835  -17.0994   27.9741 C   0  0  0  0  0  0  0  0  0  0  0  0
   14.3011  -15.7421   22.6834 O   0  0  0  0  0  0  0  0  0  0  0  0
  2  1  1  1
  2 10  1  0
  2  3  1  0
  3  4  1  0
  4  9  1  0
  4  5  2  0
  5  6  1  0
  6  7  2  0
  8  7  1  0
  9  8  2  0
 10 11  2  0
 13 15  1  0
 13 14  1  6
 13 12  1  0
 15 16  1  1
 16 10  1  0
 17 26  1  0
 17 15  1  0
 18 17  2  0
 20 30  2  0
 20 19  1  0
 21 20  1  0
 22 23  1  0
 22 21  2  0
 23 29  2  0
 24 23  1  0
 25 26  1  0
 25 24  1  1
 27 25  1  0
 28 27  2  0
 29 30  1  0
 31 27  1  0
M  END
$$$$
