FVY.pdb
     RDKit          3D

 31 32  0  0  1  0  0  0  0  0999 V2000
    8.0769  -16.1646   21.3268 N   0  0  0  0  0  0  0  0  0  0  0  0
    7.4908  -16.3546   22.6189 C   0  0  1  0  0  0  0  0  0  0  0  0
    7.8404  -17.7878   23.0424 C   0  0  0  0  0  0  0  0  0  0  0  0
    7.0564  -18.7580   22.2493 C   0  0  0  0  0  0  0  0  0  0  0  0
    7.4003  -19.0697   20.9655 C   0  0  0  0  0  0  0  0  0  0  0  0
    6.6866  -19.9644   20.2195 C   0  0  0  0  0  0  0  0  0  0  0  0
    5.5910  -20.5646   20.7855 C   0  0  0  0  0  0  0  0  0  0  0  0
    5.2125  -20.2790   22.0714 C   0  0  0  0  0  0  0  0  0  0  0  0
    5.9505  -19.3740   22.7989 C   0  0  0  0  0  0  0  0  0  0  0  0
    8.1483  -15.4788   23.6423 C   0  0  0  0  0  0  0  0  0  0  0  0
    9.3377  -15.1520   23.5519 O   0  0  0  0  0  0  0  0  0  0  0  0
    6.2077  -12.4332   25.5740 C   0  0  0  0  0  0  0  0  0  0  0  0
    6.9105  -13.3785   26.5462 C   0  0  2  0  0  0  0  0  0  0  0  0
    7.4896  -12.6571   27.7284 C   0  0  0  0  0  0  0  0  0  0  0  0
    7.9389  -14.2292   25.8349 C   0  0  2  0  0  0  0  0  0  0  0  0
    7.3916  -14.9995   24.7582 N   0  0  0  0  0  0  0  0  0  0  0  0
    8.6890  -15.0765   26.7897 C   0  0  0  0  0  0  0  0  0  0  0  0
    8.0714  -16.0112   27.3486 O   0  0  0  0  0  0  0  0  0  0  0  0
   11.2614  -18.9754   22.5037 O   0  0  0  0  0  0  0  0  0  0  0  0
   11.4826  -18.3085   23.7030 C   0  0  0  0  0  0  0  0  0  0  0  0
   11.4536  -18.9426   24.9209 C   0  0  0  0  0  0  0  0  0  0  0  0
   11.6814  -18.2236   26.0861 C   0  0  0  0  0  0  0  0  0  0  0  0
   11.9411  -16.8722   26.0718 C   0  0  0  0  0  0  0  0  0  0  0  0
   12.1758  -16.0704   27.2864 C   0  0  0  0  0  0  0  0  0  0  0  0
   10.8749  -15.7190   27.9103 C   0  0  2  0  0  0  0  0  0  0  0  0
   10.0571  -14.8571   27.0783 N   0  0  0  0  0  0  0  0  0  0  0  0
   10.9512  -15.1512   29.2649 C   0  0  0  0  0  0  0  0  0  0  0  0
   10.7434  -13.9055   29.4243 O   0  0  0  0  0  0  0  0  0  0  0  0
   11.9704  -16.2361   24.8533 C   0  0  0  0  0  0  0  0  0  0  0  0
   11.7443  -16.9394   23.6744 C   0  0  0  0  0  0  0  0  0  0  0  0
   11.2344  -15.8526   30.4265 O   0  0  0  0  0  0  0  0  0  0  0  0
  2  1  1  6
  2 10  1  0
  2  3  1  0
  3  4  1  0
  4  9  1  0
  4  5  2  0
  5  6  1  0
  6  7  2  0
  8  7  1  0
  9  8  2  0
 10 11  2  0
 13 15  1  0
 13 14  1  1
 13 12  1  0
 15 16  1  6
 16 10  1  0
 17 26  1  0
 17 15  1  0
 18 17  2  0
 20 30  2  0
 20 19  1  0
 21 20  1  0
 22 23  1  0
 22 21  2  0
 23 29  2  0
 24 23  1  0
 25 26  1  0
 25 24  1  6
 27 25  1  0
 28 27  2  0
 29 30  1  0
 31 27  1  0
M  END
$$$$
