FVY.pdb
     RDKit          3D

 31 32  0  0  1  0  0  0  0  0999 V2000
    5.6599  -17.8755   24.5123 N   0  0  0  0  0  0  0  0  0  0  0  0
    6.1718  -16.5427   24.4084 C   0  0  1  0  0  0  0  0  0  0  0  0
    6.7500  -16.1961   25.7872 C   0  0  0  0  0  0  0  0  0  0  0  0
    6.7418  -14.7318   25.9888 C   0  0  0  0  0  0  0  0  0  0  0  0
    7.9006  -14.0318   26.1646 C   0  0  0  0  0  0  0  0  0  0  0  0
    7.9100  -12.6786   26.3517 C   0  0  0  0  0  0  0  0  0  0  0  0
    6.7131  -12.0089   26.3616 C   0  0  0  0  0  0  0  0  0  0  0  0
    5.5278  -12.6748   26.1886 C   0  0  0  0  0  0  0  0  0  0  0  0
    5.5491  -14.0378   26.0021 C   0  0  0  0  0  0  0  0  0  0  0  0
    7.3424  -16.4869   23.4741 C   0  0  0  0  0  0  0  0  0  0  0  0
    7.9997  -17.4962   23.1930 O   0  0  0  0  0  0  0  0  0  0  0  0
    6.7144  -14.1908   20.2610 C   0  0  0  0  0  0  0  0  0  0  0  0
    8.1227  -13.9746   20.8110 C   0  0  2  0  0  0  0  0  0  0  0  0
    9.1270  -13.7137   19.7262 C   0  0  0  0  0  0  0  0  0  0  0  0
    8.5385  -15.1146   21.7137 C   0  0  2  0  0  0  0  0  0  0  0  0
    7.7204  -15.2398   22.8830 N   0  0  0  0  0  0  0  0  0  0  0  0
    9.9765  -15.0319   22.0564 C   0  0  0  0  0  0  0  0  0  0  0  0
   10.5993  -14.0023   21.7108 O   0  0  0  0  0  0  0  0  0  0  0  0
   11.7082  -15.2829   30.3977 O   0  0  0  0  0  0  0  0  0  0  0  0
   11.2593  -15.4033   29.0878 C   0  0  0  0  0  0  0  0  0  0  0  0
   10.9501  -16.6139   28.5177 C   0  0  0  0  0  0  0  0  0  0  0  0
   10.5067  -16.6721   27.2037 C   0  0  0  0  0  0  0  0  0  0  0  0
   10.3604  -15.5426   26.4313 C   0  0  0  0  0  0  0  0  0  0  0  0
    9.9049  -15.5624   25.0294 C   0  0  0  0  0  0  0  0  0  0  0  0
   11.0114  -16.0227   24.1526 C   0  0  2  0  0  0  0  0  0  0  0  0
   10.6469  -16.0680   22.7494 N   0  0  0  0  0  0  0  0  0  0  0  0
   11.6342  -17.3002   24.5309 C   0  0  0  0  0  0  0  0  0  0  0  0
   11.1208  -18.3858   24.1087 O   0  0  0  0  0  0  0  0  0  0  0  0
   10.6695  -14.3299   27.0007 C   0  0  0  0  0  0  0  0  0  0  0  0
   11.1157  -14.2511   28.3161 C   0  0  0  0  0  0  0  0  0  0  0  0
   12.7599  -17.4531   25.3252 O   0  0  0  0  0  0  0  0  0  0  0  0
  2  1  1  1
  2 10  1  0
  2  3  1  0
  3  4  1  0
  4  9  1  0
  4  5  2  0
  5  6  1  0
  6  7  2  0
  8  7  1  0
  9  8  2  0
 10 11  2  0
 13 15  1  0
 13 14  1  6
 13 12  1  0
 15 16  1  1
 16 10  1  0
 17 26  1  0
 17 15  1  0
 18 17  2  0
 20 30  2  0
 20 19  1  0
 21 20  1  0
 22 23  1  0
 22 21  2  0
 23 29  2  0
 24 23  1  0
 25 26  1  0
 25 24  1  1
 27 25  1  0
 28 27  2  0
 29 30  1  0
 31 27  1  0
M  END
$$$$
