FVY.pdb
     RDKit          3D

 31 32  0  0  1  0  0  0  0  0999 V2000
    5.9180  -17.6512   25.9779 N   0  0  0  0  0  0  0  0  0  0  0  0
    6.4533  -16.4126   25.5000 C   0  0  1  0  0  0  0  0  0  0  0  0
    7.3496  -15.8709   26.6219 C   0  0  0  0  0  0  0  0  0  0  0  0
    7.2519  -14.3973   26.6844 C   0  0  0  0  0  0  0  0  0  0  0  0
    6.1143  -13.7778   27.1151 C   0  0  0  0  0  0  0  0  0  0  0  0
    6.0081  -12.4173   27.1790 C   0  0  0  0  0  0  0  0  0  0  0  0
    7.0833  -11.6563   26.7967 C   0  0  0  0  0  0  0  0  0  0  0  0
    8.2434  -12.2396   26.3583 C   0  0  0  0  0  0  0  0  0  0  0  0
    8.3215  -13.6122   26.3048 C   0  0  0  0  0  0  0  0  0  0  0  0
    7.3779  -16.6368   24.3419 C   0  0  0  0  0  0  0  0  0  0  0  0
    8.0130  -17.6899   24.2103 O   0  0  0  0  0  0  0  0  0  0  0  0
    6.5730  -15.1349   20.6722 C   0  0  0  0  0  0  0  0  0  0  0  0
    8.0218  -14.8523   21.0641 C   0  0  2  0  0  0  0  0  0  0  0  0
    8.9652  -14.9869   19.9042 C   0  0  0  0  0  0  0  0  0  0  0  0
    8.4435  -15.6967   22.2458 C   0  0  2  0  0  0  0  0  0  0  0  0
    7.5390  -15.6146   23.3536 N   0  0  0  0  0  0  0  0  0  0  0  0
    9.8358  -15.3973   22.6509 C   0  0  0  0  0  0  0  0  0  0  0  0
   10.2301  -14.2133   22.5494 O   0  0  0  0  0  0  0  0  0  0  0  0
    9.1448  -16.2470   29.3381 O   0  0  0  0  0  0  0  0  0  0  0  0
    9.8873  -15.9918   28.1911 C   0  0  0  0  0  0  0  0  0  0  0  0
   10.8808  -16.8304   27.7485 C   0  0  0  0  0  0  0  0  0  0  0  0
   11.5897  -16.5227   26.5956 C   0  0  0  0  0  0  0  0  0  0  0  0
   11.3330  -15.3877   25.8611 C   0  0  0  0  0  0  0  0  0  0  0  0
   12.0707  -15.0185   24.6393 C   0  0  0  0  0  0  0  0  0  0  0  0
   12.0346  -16.1474   23.6754 C   0  0  2  0  0  0  0  0  0  0  0  0
   10.7106  -16.3975   23.1383 N   0  0  0  0  0  0  0  0  0  0  0  0
   12.6074  -17.4138   24.1563 C   0  0  0  0  0  0  0  0  0  0  0  0
   13.8410  -17.4542   24.4674 O   0  0  0  0  0  0  0  0  0  0  0  0
   10.3386  -14.5472   26.3030 C   0  0  0  0  0  0  0  0  0  0  0  0
    9.6171  -14.8382   27.4563 C   0  0  0  0  0  0  0  0  0  0  0  0
   11.9230  -18.6091   24.3127 O   0  0  0  0  0  0  0  0  0  0  0  0
  2  1  1  1
  2 10  1  0
  2  3  1  0
  3  4  1  0
  4  9  1  0
  4  5  2  0
  5  6  1  0
  6  7  2  0
  8  7  1  0
  9  8  2  0
 10 11  2  0
 13 15  1  0
 13 14  1  6
 13 12  1  0
 15 16  1  1
 16 10  1  0
 17 26  1  0
 17 15  1  0
 18 17  2  0
 20 30  2  0
 20 19  1  0
 21 20  1  0
 22 23  1  0
 22 21  2  0
 23 29  2  0
 24 23  1  0
 25 26  1  0
 25 24  1  1
 27 25  1  0
 28 27  2  0
 29 30  1  0
 31 27  1  0
M  END
$$$$
