FVY.pdb
     RDKit          3D

 31 32  0  0  1  0  0  0  0  0999 V2000
    5.4370  -17.9839   25.6168 N   0  0  0  0  0  0  0  0  0  0  0  0
    5.9381  -16.6548   25.4401 C   0  0  1  0  0  0  0  0  0  0  0  0
    6.5114  -16.2279   26.7983 C   0  0  0  0  0  0  0  0  0  0  0  0
    6.7622  -14.7713   26.8095 C   0  0  0  0  0  0  0  0  0  0  0  0
    8.0289  -14.2673   26.7374 C   0  0  0  0  0  0  0  0  0  0  0  0
    8.2774  -12.9241   26.7462 C   0  0  0  0  0  0  0  0  0  0  0  0
    7.2152  -12.0605   26.8301 C   0  0  0  0  0  0  0  0  0  0  0  0
    5.9283  -12.5261   26.9041 C   0  0  0  0  0  0  0  0  0  0  0  0
    5.7083  -13.8842   26.8930 C   0  0  0  0  0  0  0  0  0  0  0  0
    7.1098  -16.6410   24.5055 C   0  0  0  0  0  0  0  0  0  0  0  0
    7.8934  -17.5949   24.4298 O   0  0  0  0  0  0  0  0  0  0  0  0
    6.8744  -14.4369   20.9930 C   0  0  0  0  0  0  0  0  0  0  0  0
    8.2112  -14.2869   21.7165 C   0  0  2  0  0  0  0  0  0  0  0  0
    9.3668  -14.1699   20.7655 C   0  0  0  0  0  0  0  0  0  0  0  0
    8.4125  -15.3926   22.7285 C   0  0  2  0  0  0  0  0  0  0  0  0
    7.3395  -15.5011   23.6715 N   0  0  0  0  0  0  0  0  0  0  0  0
    9.7252  -15.2718   23.4026 C   0  0  0  0  0  0  0  0  0  0  0  0
   10.0032  -14.1780   23.9446 O   0  0  0  0  0  0  0  0  0  0  0  0
   10.0397  -14.1131   29.5351 O   0  0  0  0  0  0  0  0  0  0  0  0
   10.5435  -14.8500   28.4697 C   0  0  0  0  0  0  0  0  0  0  0  0
    9.9540  -16.0076   28.0236 C   0  0  0  0  0  0  0  0  0  0  0  0
   10.5034  -16.7017   26.9546 C   0  0  0  0  0  0  0  0  0  0  0  0
   11.6388  -16.2691   26.3085 C   0  0  0  0  0  0  0  0  0  0  0  0
   12.2606  -16.9833   25.1786 C   0  0  0  0  0  0  0  0  0  0  0  0
   12.0177  -16.2326   23.9207 C   0  0  2  0  0  0  0  0  0  0  0  0
   10.6514  -16.3411   23.4458 N   0  0  0  0  0  0  0  0  0  0  0  0
   12.9386  -16.5307   22.8133 C   0  0  0  0  0  0  0  0  0  0  0  0
   12.4765  -17.0614   21.7526 O   0  0  0  0  0  0  0  0  0  0  0  0
   12.2300  -15.1105   26.7540 C   0  0  0  0  0  0  0  0  0  0  0  0
   11.6946  -14.4007   27.8240 C   0  0  0  0  0  0  0  0  0  0  0  0
   14.3030  -16.2864   22.8013 O   0  0  0  0  0  0  0  0  0  0  0  0
  2  1  1  1
  2 10  1  0
  2  3  1  0
  3  4  1  0
  4  9  1  0
  4  5  2  0
  5  6  1  0
  6  7  2  0
  8  7  1  0
  9  8  2  0
 10 11  2  0
 13 15  1  0
 13 14  1  6
 13 12  1  0
 15 16  1  1
 16 10  1  0
 17 26  1  0
 17 15  1  0
 18 17  2  0
 20 30  2  0
 20 19  1  0
 21 20  1  0
 22 23  1  0
 22 21  2  0
 23 29  2  0
 24 23  1  0
 25 26  1  0
 25 24  1  1
 27 25  1  0
 28 27  2  0
 29 30  1  0
 31 27  1  0
M  END
$$$$
