ITI.pdb
     RDKit          3D

 24 23  0  0  1  0  0  0  0  0999 V2000
    7.9414  -11.7624   18.0510 C   0  0  0  0  0  0  0  0  0  0  0  0
    8.2998  -13.2158   18.1008 C   0  0  0  0  0  0  0  0  0  0  0  0
    8.0545  -13.8202   19.4737 C   0  0  2  0  0  0  0  0  0  0  0  0
    8.6914  -12.9799   20.5405 C   0  0  0  0  0  0  0  0  0  0  0  0
    8.5270  -15.2590   19.4712 C   0  0  2  0  0  0  0  0  0  0  0  0
    7.6654  -15.9547   18.4943 N   0  0  0  0  0  0  0  0  0  0  0  0
    8.3263  -15.9532   20.7564 C   0  0  0  0  0  0  0  0  0  0  0  0
    7.1656  -16.3192   21.1367 O   0  0  0  0  0  0  0  0  0  0  0  0
    9.9624  -18.6496   24.5224 C   0  0  0  0  0  0  0  0  0  0  0  0
   10.1810  -17.9906   23.1909 C   0  0  1  0  0  0  0  0  0  0  0  0
    9.9354  -18.9532   22.2035 O   0  0  0  0  0  0  0  0  0  0  0  0
    9.1539  -16.8797   22.9411 C   0  0  2  0  0  0  0  0  0  0  0  0
    9.3987  -16.2598   21.6436 N   0  0  0  0  0  0  0  0  0  0  0  0
    9.3319  -15.8535   23.9981 C   0  0  0  0  0  0  0  0  0  0  0  0
   10.3226  -15.0794   24.0250 O   0  0  0  0  0  0  0  0  0  0  0  0
    6.2793  -11.6421   26.8480 C   0  0  0  0  0  0  0  0  0  0  0  0
    7.4736  -12.5408   27.0162 C   0  0  0  0  0  0  0  0  0  0  0  0
    7.4632  -13.6503   26.0457 C   0  0  2  0  0  0  0  0  0  0  0  0
    6.1186  -14.3830   26.0948 C   0  0  0  0  0  0  0  0  0  0  0  0
    8.5415  -14.6640   26.1057 C   0  0  2  0  0  0  0  0  0  0  0  0
    8.3892  -15.6812   25.0507 N   0  0  0  0  0  0  0  0  0  0  0  0
    8.7532  -15.3635   27.3672 C   0  0  0  0  0  0  0  0  0  0  0  0
    9.4783  -14.7942   28.3983 O   0  0  0  0  0  0  0  0  0  0  0  0
    8.2784  -16.5098   27.5459 O   0  0  0  0  0  0  0  0  0  0  0  0
  2  3  1  0
  2  1  1  0
  3  4  1  1
  5  3  1  0
  5  6  1  6
  7  5  1  0
  7  8  2  0
 10  9  1  1
 10 12  1  0
 10 11  1  0
 12 13  1  6
 13  7  1  0
 14 12  1  0
 15 14  2  0
 17 16  1  0
 18 17  1  0
 18 20  1  0
 18 19  1  1
 20 22  1  0
 20 21  1  6
 21 14  1  0
 22 23  1  0
 24 22  2  0
M  END
$$$$
