ITI.pdb
     RDKit          3D

 24 23  0  0  1  0  0  0  0  0999 V2000
    7.6067  -12.0830   18.7429 C   0  0  0  0  0  0  0  0  0  0  0  0
    8.1845  -13.4566   18.8943 C   0  0  0  0  0  0  0  0  0  0  0  0
    8.0726  -13.9716   20.3200 C   0  0  2  0  0  0  0  0  0  0  0  0
    8.6994  -13.0046   21.2801 C   0  0  0  0  0  0  0  0  0  0  0  0
    8.6627  -15.3646   20.3893 C   0  0  2  0  0  0  0  0  0  0  0  0
    7.8881  -16.1688   19.4230 N   0  0  0  0  0  0  0  0  0  0  0  0
    8.4860  -16.0211   21.6977 C   0  0  0  0  0  0  0  0  0  0  0  0
    7.3247  -16.2603   22.1666 O   0  0  0  0  0  0  0  0  0  0  0  0
    9.5303  -19.3828   22.7365 C   0  0  0  0  0  0  0  0  0  0  0  0
   10.0949  -18.4612   23.7791 C   0  0  1  0  0  0  0  0  0  0  0  0
   11.4155  -18.1742   23.4111 O   0  0  0  0  0  0  0  0  0  0  0  0
    9.3702  -17.1098   23.7830 C   0  0  2  0  0  0  0  0  0  0  0  0
    9.5831  -16.4286   22.5110 N   0  0  0  0  0  0  0  0  0  0  0  0
    9.9583  -16.2848   24.8672 C   0  0  0  0  0  0  0  0  0  0  0  0
   10.8334  -15.4088   24.6474 O   0  0  0  0  0  0  0  0  0  0  0  0
    7.6648  -12.8380   27.8565 C   0  0  0  0  0  0  0  0  0  0  0  0
    8.6616  -13.6692   27.0963 C   0  0  0  0  0  0  0  0  0  0  0  0
    9.2536  -14.7213   27.9423 C   0  0  2  0  0  0  0  0  0  0  0  0
    9.9384  -14.0961   29.1618 C   0  0  0  0  0  0  0  0  0  0  0  0
   10.1962  -15.6862   27.3302 C   0  0  2  0  0  0  0  0  0  0  0  0
    9.5671  -16.4343   26.2277 N   0  0  0  0  0  0  0  0  0  0  0  0
   10.8491  -16.6529   28.2046 C   0  0  0  0  0  0  0  0  0  0  0  0
   10.3819  -17.9489   28.3284 O   0  0  0  0  0  0  0  0  0  0  0  0
   11.8588  -16.3262   28.8718 O   0  0  0  0  0  0  0  0  0  0  0  0
  2  3  1  0
  2  1  1  0
  3  4  1  1
  5  3  1  0
  5  6  1  6
  7  5  1  0
  7  8  2  0
 10  9  1  6
 10 12  1  0
 10 11  1  0
 12 13  1  6
 13  7  1  0
 14 12  1  0
 15 14  2  0
 17 16  1  0
 18 17  1  0
 18 20  1  0
 18 19  1  1
 20 22  1  0
 20 21  1  6
 21 14  1  0
 22 23  1  0
 24 22  2  0
M  END
$$$$
