ITI.pdb
     RDKit          3D

 24 23  0  0  1  0  0  0  0  0999 V2000
    7.7961  -11.8184   17.8778 C   0  0  0  0  0  0  0  0  0  0  0  0
    8.3111  -13.2210   17.9816 C   0  0  0  0  0  0  0  0  0  0  0  0
    7.9054  -13.8856   19.2870 C   0  0  2  0  0  0  0  0  0  0  0  0
    8.2987  -13.0328   20.4566 C   0  0  0  0  0  0  0  0  0  0  0  0
    8.4877  -15.2829   19.3314 C   0  0  2  0  0  0  0  0  0  0  0  0
    7.8797  -15.9990   18.1920 N   0  0  0  0  0  0  0  0  0  0  0  0
    8.1134  -16.0453   20.5366 C   0  0  0  0  0  0  0  0  0  0  0  0
    6.9162  -16.4423   20.7233 O   0  0  0  0  0  0  0  0  0  0  0  0
    9.0037  -19.2807   22.1233 C   0  0  0  0  0  0  0  0  0  0  0  0
    9.3320  -18.2299   23.1445 C   0  0  1  0  0  0  0  0  0  0  0  0
   10.6974  -17.9420   23.0229 O   0  0  0  0  0  0  0  0  0  0  0  0
    8.6093  -16.9115   22.8431 C   0  0  2  0  0  0  0  0  0  0  0  0
    9.0497  -16.3870   21.5553 N   0  0  0  0  0  0  0  0  0  0  0  0
    8.9796  -15.9406   23.9024 C   0  0  0  0  0  0  0  0  0  0  0  0
    9.8864  -15.0840   23.7433 O   0  0  0  0  0  0  0  0  0  0  0  0
    6.9508  -11.5684   26.9472 C   0  0  0  0  0  0  0  0  0  0  0  0
    7.9221  -12.6951   27.1703 C   0  0  0  0  0  0  0  0  0  0  0  0
    7.7298  -13.7833   26.1947 C   0  0  2  0  0  0  0  0  0  0  0  0
    6.2966  -14.3187   26.2756 C   0  0  0  0  0  0  0  0  0  0  0  0
    8.6546  -14.9399   26.2207 C   0  0  2  0  0  0  0  0  0  0  0  0
    8.3293  -15.9186   25.1685 N   0  0  0  0  0  0  0  0  0  0  0  0
    8.8012  -15.6703   27.4739 C   0  0  0  0  0  0  0  0  0  0  0  0
    9.4965  -15.1388   28.5450 O   0  0  0  0  0  0  0  0  0  0  0  0
    8.2957  -16.8094   27.6087 O   0  0  0  0  0  0  0  0  0  0  0  0
  2  3  1  0
  2  1  1  0
  3  4  1  1
  5  3  1  0
  5  6  1  6
  7  5  1  0
  7  8  2  0
 10  9  1  6
 10 12  1  0
 10 11  1  0
 12 13  1  6
 13  7  1  0
 14 12  1  0
 15 14  2  0
 17 16  1  0
 18 17  1  0
 18 20  1  0
 18 19  1  1
 20 22  1  0
 20 21  1  6
 21 14  1  0
 22 23  1  0
 24 22  2  0
M  END
$$$$
