ITI.pdb
     RDKit          3D

 24 23  0  0  1  0  0  0  0  0999 V2000
    7.7215  -11.9168   18.2363 C   0  0  0  0  0  0  0  0  0  0  0  0
    8.1557  -13.3405   18.4037 C   0  0  0  0  0  0  0  0  0  0  0  0
    7.6982  -13.9274   19.7291 C   0  0  2  0  0  0  0  0  0  0  0  0
    8.0946  -13.0329   20.8659 C   0  0  0  0  0  0  0  0  0  0  0  0
    8.2306  -15.3396   19.8535 C   0  0  2  0  0  0  0  0  0  0  0  0
    7.5891  -16.0998   18.7621 N   0  0  0  0  0  0  0  0  0  0  0  0
    7.8382  -16.0151   21.1040 C   0  0  0  0  0  0  0  0  0  0  0  0
    6.6180  -16.2873   21.3545 O   0  0  0  0  0  0  0  0  0  0  0  0
    8.0921  -19.2186   22.7210 C   0  0  0  0  0  0  0  0  0  0  0  0
    8.7705  -18.2798   23.6766 C   0  0  1  0  0  0  0  0  0  0  0  0
   10.1429  -18.3225   23.3999 O   0  0  0  0  0  0  0  0  0  0  0  0
    8.3496  -16.8265   23.4270 C   0  0  2  0  0  0  0  0  0  0  0  0
    8.7812  -16.4058   22.0987 N   0  0  0  0  0  0  0  0  0  0  0  0
    9.0300  -15.9790   24.4374 C   0  0  0  0  0  0  0  0  0  0  0  0
   10.1289  -15.4115   24.2100 O   0  0  0  0  0  0  0  0  0  0  0  0
    6.6326  -11.9454   26.5313 C   0  0  0  0  0  0  0  0  0  0  0  0
    7.6831  -12.8907   26.0163 C   0  0  0  0  0  0  0  0  0  0  0  0
    8.2271  -13.7407   27.0909 C   0  0  2  0  0  0  0  0  0  0  0  0
    8.9584  -12.8804   28.1264 C   0  0  0  0  0  0  0  0  0  0  0  0
    9.1092  -14.8744   26.7297 C   0  0  2  0  0  0  0  0  0  0  0  0
    8.4792  -15.7553   25.7307 N   0  0  0  0  0  0  0  0  0  0  0  0
    9.6150  -15.7173   27.8063 C   0  0  0  0  0  0  0  0  0  0  0  0
   10.7397  -15.3686   28.5318 O   0  0  0  0  0  0  0  0  0  0  0  0
    9.0355  -16.7894   28.0999 O   0  0  0  0  0  0  0  0  0  0  0  0
  2  3  1  0
  2  1  1  0
  3  4  1  1
  5  3  1  0
  5  6  1  6
  7  5  1  0
  7  8  2  0
 10  9  1  6
 10 12  1  0
 10 11  1  0
 12 13  1  6
 13  7  1  0
 14 12  1  0
 15 14  2  0
 17 16  1  0
 18 17  1  0
 18 20  1  0
 18 19  1  1
 20 22  1  0
 20 21  1  6
 21 14  1  0
 22 23  1  0
 24 22  2  0
M  END
$$$$
