ITI.pdb
     RDKit          3D

 24 23  0  0  1  0  0  0  0  0999 V2000
    7.9671  -11.8927   17.5057 C   0  0  0  0  0  0  0  0  0  0  0  0
    8.4682  -13.2902   17.7039 C   0  0  0  0  0  0  0  0  0  0  0  0
    7.9964  -13.8872   19.0197 C   0  0  2  0  0  0  0  0  0  0  0  0
    8.3150  -12.9665   20.1601 C   0  0  0  0  0  0  0  0  0  0  0  0
    8.5890  -15.2723   19.1739 C   0  0  2  0  0  0  0  0  0  0  0  0
    8.0448  -16.0606   18.0500 N   0  0  0  0  0  0  0  0  0  0  0  0
    8.1628  -15.9683   20.4019 C   0  0  0  0  0  0  0  0  0  0  0  0
    6.9727  -16.4057   20.5356 O   0  0  0  0  0  0  0  0  0  0  0  0
    8.7760  -19.0863   22.1033 C   0  0  0  0  0  0  0  0  0  0  0  0
    9.1677  -18.0426   23.1093 C   0  0  1  0  0  0  0  0  0  0  0  0
   10.5498  -17.8476   22.9917 O   0  0  0  0  0  0  0  0  0  0  0  0
    8.5355  -16.6845   22.7818 C   0  0  2  0  0  0  0  0  0  0  0  0
    9.0390  -16.1980   21.5023 N   0  0  0  0  0  0  0  0  0  0  0  0
    8.9389  -15.7302   23.8442 C   0  0  0  0  0  0  0  0  0  0  0  0
    9.9953  -15.0515   23.7737 O   0  0  0  0  0  0  0  0  0  0  0  0
    6.7108  -11.2444   26.9028 C   0  0  0  0  0  0  0  0  0  0  0  0
    7.7405  -12.3295   27.0597 C   0  0  0  0  0  0  0  0  0  0  0  0
    7.5108  -13.4407   26.1187 C   0  0  2  0  0  0  0  0  0  0  0  0
    6.1310  -14.0611   26.3601 C   0  0  0  0  0  0  0  0  0  0  0  0
    8.5029  -14.5384   26.0512 C   0  0  2  0  0  0  0  0  0  0  0  0
    8.1528  -15.5231   25.0126 N   0  0  0  0  0  0  0  0  0  0  0  0
    8.7949  -15.2726   27.2763 C   0  0  0  0  0  0  0  0  0  0  0  0
    9.5377  -14.7099   28.2985 O   0  0  0  0  0  0  0  0  0  0  0  0
    8.3755  -16.4438   27.4309 O   0  0  0  0  0  0  0  0  0  0  0  0
  2  3  1  0
  2  1  1  0
  3  4  1  1
  5  3  1  0
  5  6  1  6
  7  5  1  0
  7  8  2  0
 10  9  1  6
 10 12  1  0
 10 11  1  0
 12 13  1  6
 13  7  1  0
 14 12  1  0
 15 14  2  0
 17 16  1  0
 18 17  1  0
 18 20  1  0
 18 19  1  1
 20 22  1  0
 20 21  1  6
 21 14  1  0
 22 23  1  0
 24 22  2  0
M  END
$$$$
