ITI.pdb
     RDKit          3D

 24 23  0  0  1  0  0  0  0  0999 V2000
    7.7306  -12.0686   18.3896 C   0  0  0  0  0  0  0  0  0  0  0  0
    8.4195  -13.3838   18.5868 C   0  0  0  0  0  0  0  0  0  0  0  0
    8.0110  -14.0556   19.8877 C   0  0  2  0  0  0  0  0  0  0  0  0
    8.2757  -13.1501   21.0538 C   0  0  0  0  0  0  0  0  0  0  0  0
    8.7069  -15.3968   19.9903 C   0  0  2  0  0  0  0  0  0  0  0  0
    8.1332  -16.2217   18.9081 N   0  0  0  0  0  0  0  0  0  0  0  0
    8.4245  -16.1190   21.2444 C   0  0  0  0  0  0  0  0  0  0  0  0
    7.2588  -16.5664   21.5024 O   0  0  0  0  0  0  0  0  0  0  0  0
    9.0898  -19.2578   22.8518 C   0  0  0  0  0  0  0  0  0  0  0  0
    9.6750  -18.2407   23.7888 C   0  0  1  0  0  0  0  0  0  0  0  0
   11.0312  -18.1068   23.4651 O   0  0  0  0  0  0  0  0  0  0  0  0
    9.0631  -16.8531   23.5615 C   0  0  2  0  0  0  0  0  0  0  0  0
    9.4200  -16.3643   22.2344 N   0  0  0  0  0  0  0  0  0  0  0  0
    9.6373  -15.9344   24.5756 C   0  0  0  0  0  0  0  0  0  0  0  0
   10.6822  -15.2672   24.3647 O   0  0  0  0  0  0  0  0  0  0  0  0
    6.9257  -12.0133   26.3898 C   0  0  0  0  0  0  0  0  0  0  0  0
    8.0053  -12.9681   25.9596 C   0  0  0  0  0  0  0  0  0  0  0  0
    8.5719  -13.7037   27.1047 C   0  0  2  0  0  0  0  0  0  0  0  0
    9.2006  -12.7258   28.1024 C   0  0  0  0  0  0  0  0  0  0  0  0
    9.5473  -14.7881   26.8471 C   0  0  2  0  0  0  0  0  0  0  0  0
    9.0390  -15.7507   25.8541 N   0  0  0  0  0  0  0  0  0  0  0  0
   10.0410  -15.5493   27.9883 C   0  0  0  0  0  0  0  0  0  0  0  0
   11.1002  -15.0992   28.7556 O   0  0  0  0  0  0  0  0  0  0  0  0
    9.5110  -16.6412   28.3014 O   0  0  0  0  0  0  0  0  0  0  0  0
  2  3  1  0
  2  1  1  0
  3  4  1  1
  5  3  1  0
  5  6  1  6
  7  5  1  0
  7  8  2  0
 10  9  1  6
 10 12  1  0
 10 11  1  0
 12 13  1  6
 13  7  1  0
 14 12  1  0
 15 14  2  0
 17 16  1  0
 18 17  1  0
 18 20  1  0
 18 19  1  1
 20 22  1  0
 20 21  1  6
 21 14  1  0
 22 23  1  0
 24 22  2  0
M  END
$$$$
