ITI.pdb
     RDKit          3D

 24 23  0  0  1  0  0  0  0  0999 V2000
    7.4395  -11.9817   18.9779 C   0  0  0  0  0  0  0  0  0  0  0  0
    7.9243  -13.3963   19.0628 C   0  0  0  0  0  0  0  0  0  0  0  0
    7.7745  -13.9707   20.4621 C   0  0  2  0  0  0  0  0  0  0  0  0
    8.3933  -13.0552   21.4763 C   0  0  0  0  0  0  0  0  0  0  0  0
    8.3441  -15.3738   20.4833 C   0  0  2  0  0  0  0  0  0  0  0  0
    7.5483  -16.1366   19.5007 N   0  0  0  0  0  0  0  0  0  0  0  0
    8.1698  -16.0671   21.7729 C   0  0  0  0  0  0  0  0  0  0  0  0
    7.0110  -16.3700   22.2101 O   0  0  0  0  0  0  0  0  0  0  0  0
    8.9074  -19.3645   22.8654 C   0  0  0  0  0  0  0  0  0  0  0  0
    9.6211  -18.5074   23.8708 C   0  0  1  0  0  0  0  0  0  0  0  0
   10.9466  -18.3730   23.4386 O   0  0  0  0  0  0  0  0  0  0  0  0
    9.0540  -17.0829   23.8947 C   0  0  2  0  0  0  0  0  0  0  0  0
    9.2668  -16.4420   22.6019 N   0  0  0  0  0  0  0  0  0  0  0  0
    9.7936  -16.3193   24.9301 C   0  0  0  0  0  0  0  0  0  0  0  0
   10.7958  -15.6106   24.6564 O   0  0  0  0  0  0  0  0  0  0  0  0
    8.2340  -12.2849   27.4275 C   0  0  0  0  0  0  0  0  0  0  0  0
    9.0258  -13.4025   26.8059 C   0  0  0  0  0  0  0  0  0  0  0  0
    9.4190  -14.4140   27.8036 C   0  0  2  0  0  0  0  0  0  0  0  0
   10.2270  -13.7601   28.9292 C   0  0  0  0  0  0  0  0  0  0  0  0
   10.1526  -15.6185   27.3511 C   0  0  2  0  0  0  0  0  0  0  0  0
    9.4134  -16.3417   26.3016 N   0  0  0  0  0  0  0  0  0  0  0  0
   10.5563  -16.5921   28.3584 C   0  0  0  0  0  0  0  0  0  0  0  0
   11.7665  -16.4901   29.0204 O   0  0  0  0  0  0  0  0  0  0  0  0
    9.8072  -17.5543   28.6486 O   0  0  0  0  0  0  0  0  0  0  0  0
  2  3  1  0
  2  1  1  0
  3  4  1  1
  5  3  1  0
  5  6  1  6
  7  5  1  0
  7  8  2  0
 10  9  1  6
 10 12  1  0
 10 11  1  0
 12 13  1  6
 13  7  1  0
 14 12  1  0
 15 14  2  0
 17 16  1  0
 18 17  1  0
 18 20  1  0
 18 19  1  1
 20 22  1  0
 20 21  1  6
 21 14  1  0
 22 23  1  0
 24 22  2  0
M  END
$$$$
