ITI.pdb
     RDKit          3D

 24 23  0  0  1  0  0  0  0  0999 V2000
    7.3854  -12.6638   17.7196 C   0  0  0  0  0  0  0  0  0  0  0  0
    8.2956  -13.5713   18.4887 C   0  0  0  0  0  0  0  0  0  0  0  0
    7.7968  -13.8193   19.9029 C   0  0  2  0  0  0  0  0  0  0  0  0
    7.7360  -12.5336   20.6730 C   0  0  0  0  0  0  0  0  0  0  0  0
    8.6640  -14.8765   20.5539 C   0  0  2  0  0  0  0  0  0  0  0  0
    8.6329  -16.0319   19.6348 N   0  0  0  0  0  0  0  0  0  0  0  0
    8.1383  -15.3672   21.8410 C   0  0  0  0  0  0  0  0  0  0  0  0
    7.1751  -14.7760   22.4311 O   0  0  0  0  0  0  0  0  0  0  0  0
    7.5687  -19.2063   23.0875 C   0  0  0  0  0  0  0  0  0  0  0  0
    8.4065  -18.4047   24.0417 C   0  0  1  0  0  0  0  0  0  0  0  0
    9.7489  -18.6497   23.7256 O   0  0  0  0  0  0  0  0  0  0  0  0
    8.2070  -16.8987   23.8324 C   0  0  2  0  0  0  0  0  0  0  0  0
    8.6606  -16.5184   22.4994 N   0  0  0  0  0  0  0  0  0  0  0  0
    9.0377  -16.1890   24.8366 C   0  0  0  0  0  0  0  0  0  0  0  0
   10.2108  -15.8079   24.5917 O   0  0  0  0  0  0  0  0  0  0  0  0
    7.4289  -11.8697   27.1708 C   0  0  0  0  0  0  0  0  0  0  0  0
    8.2503  -12.9767   26.5688 C   0  0  0  0  0  0  0  0  0  0  0  0
    8.7122  -13.9323   27.5918 C   0  0  2  0  0  0  0  0  0  0  0  0
    9.6466  -13.2334   28.5846 C   0  0  0  0  0  0  0  0  0  0  0  0
    9.3626  -15.1894   27.1554 C   0  0  2  0  0  0  0  0  0  0  0  0
    8.5565  -15.8945   26.1435 N   0  0  0  0  0  0  0  0  0  0  0  0
    9.7336  -16.1587   28.1792 C   0  0  0  0  0  0  0  0  0  0  0  0
   10.9714  -16.1235   28.7955 O   0  0  0  0  0  0  0  0  0  0  0  0
    8.9299  -17.0561   28.5260 O   0  0  0  0  0  0  0  0  0  0  0  0
  2  3  1  0
  2  1  1  0
  3  4  1  1
  5  3  1  0
  5  6  1  6
  7  5  1  0
  7  8  2  0
 10  9  1  6
 10 12  1  0
 10 11  1  0
 12 13  1  6
 13  7  1  0
 14 12  1  0
 15 14  2  0
 17 16  1  0
 18 17  1  0
 18 20  1  0
 18 19  1  1
 20 22  1  0
 20 21  1  6
 21 14  1  0
 22 23  1  0
 24 22  2  0
M  END
$$$$
