ITI.pdb
     RDKit          3D

 24 23  0  0  1  0  0  0  0  0999 V2000
    6.2908  -19.2769   18.5289 C   0  0  0  0  0  0  0  0  0  0  0  0
    7.3690  -18.7711   19.4372 C   0  0  0  0  0  0  0  0  0  0  0  0
    8.6876  -18.5736   18.7073 C   0  0  2  0  0  0  0  0  0  0  0  0
    9.1636  -19.8691   18.1200 C   0  0  0  0  0  0  0  0  0  0  0  0
    9.6833  -17.9327   19.6514 C   0  0  2  0  0  0  0  0  0  0  0  0
    9.8270  -18.8806   20.7746 N   0  0  0  0  0  0  0  0  0  0  0  0
    9.2112  -16.6683   20.2450 C   0  0  0  0  0  0  0  0  0  0  0  0
    8.8830  -15.6762   19.5146 O   0  0  0  0  0  0  0  0  0  0  0  0
    7.0091  -14.9305   20.2922 C   0  0  0  0  0  0  0  0  0  0  0  0
    7.1503  -14.9828   21.7862 C   0  0  1  0  0  0  0  0  0  0  0  0
    6.4533  -16.1131   22.2319 O   0  0  0  0  0  0  0  0  0  0  0  0
    8.6080  -15.2126   22.2029 C   0  0  2  0  0  0  0  0  0  0  0  0
    9.0888  -16.4746   21.6517 N   0  0  0  0  0  0  0  0  0  0  0  0
    8.6470  -15.2964   23.6839 C   0  0  0  0  0  0  0  0  0  0  0  0
    8.3539  -16.3489   24.3066 O   0  0  0  0  0  0  0  0  0  0  0  0
    6.0163  -11.7085   26.1832 C   0  0  0  0  0  0  0  0  0  0  0  0
    7.2063  -12.3817   25.5562 C   0  0  0  0  0  0  0  0  0  0  0  0
    7.8031  -13.3852   26.4562 C   0  0  2  0  0  0  0  0  0  0  0  0
    8.2274  -12.7280   27.7735 C   0  0  0  0  0  0  0  0  0  0  0  0
    8.9358  -14.2036   25.9651 C   0  0  2  0  0  0  0  0  0  0  0  0
    9.0197  -14.1869   24.4942 N   0  0  0  0  0  0  0  0  0  0  0  0
    9.0127  -15.5940   26.3967 C   0  0  0  0  0  0  0  0  0  0  0  0
    9.9559  -16.0159   27.3161 O   0  0  0  0  0  0  0  0  0  0  0  0
    8.2172  -16.4471   25.9375 O   0  0  0  0  0  0  0  0  0  0  0  0
  2  3  1  0
  2  1  1  0
  3  4  1  1
  5  3  1  0
  5  6  1  1
  7  5  1  0
  7  8  2  0
 10  9  1  6
 10 12  1  0
 10 11  1  0
 12 13  1  6
 13  7  1  0
 14 12  1  0
 15 14  2  0
 17 16  1  0
 18 17  1  0
 18 20  1  0
 18 19  1  1
 20 22  1  0
 20 21  1  6
 21 14  1  0
 22 23  1  0
 24 22  2  0
M  END
$$$$
