ITI.pdb
     RDKit          3D

 24 23  0  0  1  0  0  0  0  0999 V2000
    7.9198  -12.1116   18.3247 C   0  0  0  0  0  0  0  0  0  0  0  0
    8.2869  -13.5251   18.6576 C   0  0  0  0  0  0  0  0  0  0  0  0
    7.7564  -13.9502   20.0171 C   0  0  2  0  0  0  0  0  0  0  0  0
    8.2775  -13.0440   21.0927 C   0  0  0  0  0  0  0  0  0  0  0  0
    8.0869  -15.4111   20.2411 C   0  0  2  0  0  0  0  0  0  0  0  0
    7.3222  -16.1493   19.2160 N   0  0  0  0  0  0  0  0  0  0  0  0
    7.6293  -15.9317   21.5424 C   0  0  0  0  0  0  0  0  0  0  0  0
    6.3887  -15.9983   21.8294 O   0  0  0  0  0  0  0  0  0  0  0  0
    7.3636  -19.0147   23.1201 C   0  0  0  0  0  0  0  0  0  0  0  0
    8.1786  -18.2412   24.1163 C   0  0  1  0  0  0  0  0  0  0  0  0
    9.5253  -18.5454   23.8797 O   0  0  0  0  0  0  0  0  0  0  0  0
    8.0560  -16.7300   23.8869 C   0  0  2  0  0  0  0  0  0  0  0  0
    8.5277  -16.3911   22.5489 N   0  0  0  0  0  0  0  0  0  0  0  0
    8.9223  -16.0501   24.8816 C   0  0  0  0  0  0  0  0  0  0  0  0
   10.0600  -15.6016   24.5885 O   0  0  0  0  0  0  0  0  0  0  0  0
    6.9229  -12.1208   27.2829 C   0  0  0  0  0  0  0  0  0  0  0  0
    8.0593  -12.9305   26.7216 C   0  0  0  0  0  0  0  0  0  0  0  0
    8.5685  -13.9086   27.6999 C   0  0  2  0  0  0  0  0  0  0  0  0
    9.4371  -13.2051   28.7478 C   0  0  0  0  0  0  0  0  0  0  0  0
    9.3099  -15.0931   27.2086 C   0  0  2  0  0  0  0  0  0  0  0  0
    8.5178  -15.8628   26.2334 N   0  0  0  0  0  0  0  0  0  0  0  0
    9.8302  -16.0319   28.1952 C   0  0  0  0  0  0  0  0  0  0  0  0
   11.0823  -15.8694   28.7598 O   0  0  0  0  0  0  0  0  0  0  0  0
    9.1465  -17.0187   28.5561 O   0  0  0  0  0  0  0  0  0  0  0  0
  2  3  1  0
  2  1  1  0
  3  4  1  1
  5  3  1  0
  5  6  1  6
  7  5  1  0
  7  8  2  0
 10  9  1  6
 10 12  1  0
 10 11  1  0
 12 13  1  6
 13  7  1  0
 14 12  1  0
 15 14  2  0
 17 16  1  0
 18 17  1  0
 18 20  1  0
 18 19  1  1
 20 22  1  0
 20 21  1  6
 21 14  1  0
 22 23  1  0
 24 22  2  0
M  END
$$$$
