ITI.pdb
     RDKit          3D

 24 23  0  0  1  0  0  0  0  0999 V2000
    8.3217  -11.6522   19.1377 C   0  0  0  0  0  0  0  0  0  0  0  0
    8.8142  -12.9744   19.6403 C   0  0  0  0  0  0  0  0  0  0  0  0
    8.3487  -14.1289   18.7680 C   0  0  2  0  0  0  0  0  0  0  0  0
    6.8572  -14.1030   18.6119 C   0  0  0  0  0  0  0  0  0  0  0  0
    8.8765  -15.4264   19.3436 C   0  0  2  0  0  0  0  0  0  0  0  0
    8.5541  -16.4617   18.3412 N   0  0  0  0  0  0  0  0  0  0  0  0
    8.2035  -15.8424   20.5878 C   0  0  0  0  0  0  0  0  0  0  0  0
    6.9352  -15.9594   20.6470 O   0  0  0  0  0  0  0  0  0  0  0  0
    7.8550  -18.8318   22.3363 C   0  0  0  0  0  0  0  0  0  0  0  0
    8.4158  -17.9228   23.3919 C   0  0  1  0  0  0  0  0  0  0  0  0
    9.8036  -18.1114   23.4106 O   0  0  0  0  0  0  0  0  0  0  0  0
    8.2100  -16.4477   23.0270 C   0  0  2  0  0  0  0  0  0  0  0  0
    8.9138  -16.1402   21.7870 N   0  0  0  0  0  0  0  0  0  0  0  0
    8.7909  -15.6269   24.1183 C   0  0  0  0  0  0  0  0  0  0  0  0
    9.9643  -15.1772   24.0708 O   0  0  0  0  0  0  0  0  0  0  0  0
    6.0510  -11.7303   26.9354 C   0  0  0  0  0  0  0  0  0  0  0  0
    6.5252  -13.0906   26.5029 C   0  0  0  0  0  0  0  0  0  0  0  0
    7.9958  -13.1894   26.5264 C   0  0  2  0  0  0  0  0  0  0  0  0
    8.6039  -12.2794   25.4543 C   0  0  0  0  0  0  0  0  0  0  0  0
    8.6257  -14.5246   26.4071 C   0  0  2  0  0  0  0  0  0  0  0  0
    8.0536  -15.2967   25.2902 N   0  0  0  0  0  0  0  0  0  0  0  0
    8.6306  -15.3860   27.5833 C   0  0  0  0  0  0  0  0  0  0  0  0
    9.3792  -15.0766   28.7045 O   0  0  0  0  0  0  0  0  0  0  0  0
    7.9498  -16.4383   27.6035 O   0  0  0  0  0  0  0  0  0  0  0  0
  2  3  1  0
  2  1  1  0
  3  4  1  1
  5  3  1  0
  5  6  1  6
  7  5  1  0
  7  8  2  0
 10  9  1  6
 10 12  1  0
 10 11  1  0
 12 13  1  6
 13  7  1  0
 14 12  1  0
 15 14  2  0
 17 16  1  0
 18 17  1  0
 18 20  1  0
 18 19  1  6
 20 22  1  0
 20 21  1  6
 21 14  1  0
 22 23  1  0
 24 22  2  0
M  END
$$$$
