ITI.pdb
     RDKit          3D

 24 23  0  0  1  0  0  0  0  0999 V2000
    7.4783  -11.9747   18.6396 C   0  0  0  0  0  0  0  0  0  0  0  0
    7.9987  -13.3717   18.7850 C   0  0  0  0  0  0  0  0  0  0  0  0
    7.7626  -13.9292   20.1792 C   0  0  2  0  0  0  0  0  0  0  0  0
    8.3050  -12.9943   21.2191 C   0  0  0  0  0  0  0  0  0  0  0  0
    8.3425  -15.3261   20.2569 C   0  0  2  0  0  0  0  0  0  0  0  0
    7.5786  -16.1244   19.2772 N   0  0  0  0  0  0  0  0  0  0  0  0
    8.1401  -15.9824   21.5616 C   0  0  0  0  0  0  0  0  0  0  0  0
    6.9738  -16.2946   21.9715 O   0  0  0  0  0  0  0  0  0  0  0  0
    9.1571  -19.2186   22.8893 C   0  0  0  0  0  0  0  0  0  0  0  0
    9.6823  -18.2274   23.8876 C   0  0  1  0  0  0  0  0  0  0  0  0
   11.0217  -17.9778   23.5628 O   0  0  0  0  0  0  0  0  0  0  0  0
    8.9729  -16.8740   23.7587 C   0  0  2  0  0  0  0  0  0  0  0  0
    9.2169  -16.3095   22.4361 N   0  0  0  0  0  0  0  0  0  0  0  0
    9.5501  -15.9624   24.7774 C   0  0  0  0  0  0  0  0  0  0  0  0
   10.5440  -15.2297   24.5392 O   0  0  0  0  0  0  0  0  0  0  0  0
    6.9548  -12.1501   27.0479 C   0  0  0  0  0  0  0  0  0  0  0  0
    8.0384  -13.0332   26.4927 C   0  0  0  0  0  0  0  0  0  0  0  0
    8.5988  -13.9245   27.5245 C   0  0  2  0  0  0  0  0  0  0  0  0
    9.2270  -13.0988   28.6518 C   0  0  0  0  0  0  0  0  0  0  0  0
    9.5719  -14.9652   27.1198 C   0  0  2  0  0  0  0  0  0  0  0  0
    9.0128  -15.8604   26.0916 N   0  0  0  0  0  0  0  0  0  0  0  0
   10.1543  -15.7999   28.1636 C   0  0  0  0  0  0  0  0  0  0  0  0
    9.6731  -17.0693   28.4286 O   0  0  0  0  0  0  0  0  0  0  0  0
   11.1138  -15.3797   28.8522 O   0  0  0  0  0  0  0  0  0  0  0  0
  2  3  1  0
  2  1  1  0
  3  4  1  1
  5  3  1  0
  5  6  1  6
  7  5  1  0
  7  8  2  0
 10  9  1  6
 10 12  1  0
 10 11  1  0
 12 13  1  6
 13  7  1  0
 14 12  1  0
 15 14  2  0
 17 16  1  0
 18 17  1  0
 18 20  1  0
 18 19  1  1
 20 22  1  0
 20 21  1  6
 21 14  1  0
 22 23  1  0
 24 22  2  0
M  END
$$$$
