ITI.pdb
     RDKit          3D

 24 23  0  0  1  0  0  0  0  0999 V2000
    7.6871  -12.1133   17.4934 C   0  0  0  0  0  0  0  0  0  0  0  0
    8.2900  -13.4346   17.8595 C   0  0  0  0  0  0  0  0  0  0  0  0
    7.7151  -13.9885   19.1530 C   0  0  2  0  0  0  0  0  0  0  0  0
    7.8970  -13.0073   20.2729 C   0  0  0  0  0  0  0  0  0  0  0  0
    8.3325  -15.3439   19.4271 C   0  0  2  0  0  0  0  0  0  0  0  0
    7.8762  -16.2144   18.3249 N   0  0  0  0  0  0  0  0  0  0  0  0
    7.8520  -15.9762   20.6694 C   0  0  0  0  0  0  0  0  0  0  0  0
    6.6398  -16.3512   20.7951 O   0  0  0  0  0  0  0  0  0  0  0  0
    7.9668  -19.0260   22.3849 C   0  0  0  0  0  0  0  0  0  0  0  0
    8.5577  -18.0702   23.3809 C   0  0  1  0  0  0  0  0  0  0  0  0
    9.9485  -18.1046   23.2179 O   0  0  0  0  0  0  0  0  0  0  0  0
    8.1480  -16.6236   23.0796 C   0  0  2  0  0  0  0  0  0  0  0  0
    8.6968  -16.2098   21.7932 N   0  0  0  0  0  0  0  0  0  0  0  0
    8.7236  -15.7604   24.1406 C   0  0  0  0  0  0  0  0  0  0  0  0
    9.8788  -15.2707   24.0571 O   0  0  0  0  0  0  0  0  0  0  0  0
    6.0610  -11.7459   26.9575 C   0  0  0  0  0  0  0  0  0  0  0  0
    6.4976  -13.1741   26.7786 C   0  0  0  0  0  0  0  0  0  0  0  0
    7.9337  -13.2704   26.4601 C   0  0  2  0  0  0  0  0  0  0  0  0
    8.2325  -12.5489   25.1420 C   0  0  0  0  0  0  0  0  0  0  0  0
    8.5667  -14.6084   26.4055 C   0  0  2  0  0  0  0  0  0  0  0  0
    8.0014  -15.4323   25.3226 N   0  0  0  0  0  0  0  0  0  0  0  0
    8.5676  -15.4147   27.6201 C   0  0  0  0  0  0  0  0  0  0  0  0
    9.2700  -15.0266   28.7466 O   0  0  0  0  0  0  0  0  0  0  0  0
    7.9255  -16.4902   27.6697 O   0  0  0  0  0  0  0  0  0  0  0  0
  2  3  1  0
  2  1  1  0
  3  4  1  1
  5  3  1  0
  5  6  1  6
  7  5  1  0
  7  8  2  0
 10  9  1  6
 10 12  1  0
 10 11  1  0
 12 13  1  6
 13  7  1  0
 14 12  1  0
 15 14  2  0
 17 16  1  0
 18 17  1  0
 18 20  1  0
 18 19  1  6
 20 22  1  0
 20 21  1  6
 21 14  1  0
 22 23  1  0
 24 22  2  0
M  END
$$$$
