ITI.pdb
     RDKit          3D

 24 23  0  0  1  0  0  0  0  0999 V2000
    7.7234  -11.9980   18.1382 C   0  0  0  0  0  0  0  0  0  0  0  0
    8.3424  -13.3426   18.3666 C   0  0  0  0  0  0  0  0  0  0  0  0
    7.9509  -13.9330   19.7114 C   0  0  2  0  0  0  0  0  0  0  0  0
    8.3224  -12.9991   20.8248 C   0  0  0  0  0  0  0  0  0  0  0  0
    8.5662  -15.3105   19.8436 C   0  0  2  0  0  0  0  0  0  0  0  0
    7.9476  -16.1220   18.7762 N   0  0  0  0  0  0  0  0  0  0  0  0
    8.2387  -15.9891   21.1110 C   0  0  0  0  0  0  0  0  0  0  0  0
    7.0499  -16.3710   21.3692 O   0  0  0  0  0  0  0  0  0  0  0  0
    8.8854  -19.1569   22.6476 C   0  0  0  0  0  0  0  0  0  0  0  0
    9.4288  -18.1680   23.6384 C   0  0  1  0  0  0  0  0  0  0  0  0
   10.7980  -18.0267   23.3787 O   0  0  0  0  0  0  0  0  0  0  0  0
    8.8276  -16.7737   23.4247 C   0  0  2  0  0  0  0  0  0  0  0  0
    9.2133  -16.2622   22.1144 N   0  0  0  0  0  0  0  0  0  0  0  0
    9.3851  -15.8765   24.4671 C   0  0  0  0  0  0  0  0  0  0  0  0
   10.4288  -15.1993   24.2843 O   0  0  0  0  0  0  0  0  0  0  0  0
    6.5089  -12.1441   26.7248 C   0  0  0  0  0  0  0  0  0  0  0  0
    7.5638  -13.0431   26.1406 C   0  0  0  0  0  0  0  0  0  0  0  0
    8.2575  -13.8206   27.1833 C   0  0  2  0  0  0  0  0  0  0  0  0
    8.8887  -12.8784   28.2133 C   0  0  0  0  0  0  0  0  0  0  0  0
    9.2823  -14.8095   26.7762 C   0  0  2  0  0  0  0  0  0  0  0  0
    8.7711  -15.7265   25.7425 N   0  0  0  0  0  0  0  0  0  0  0  0
    9.9032  -15.6191   27.8176 C   0  0  0  0  0  0  0  0  0  0  0  0
   10.9896  -15.1604   28.5405 O   0  0  0  0  0  0  0  0  0  0  0  0
    9.4617  -16.7620   28.0822 O   0  0  0  0  0  0  0  0  0  0  0  0
  2  3  1  0
  2  1  1  0
  3  4  1  1
  5  3  1  0
  5  6  1  6
  7  5  1  0
  7  8  2  0
 10  9  1  6
 10 12  1  0
 10 11  1  0
 12 13  1  6
 13  7  1  0
 14 12  1  0
 15 14  2  0
 17 16  1  0
 18 17  1  0
 18 20  1  0
 18 19  1  1
 20 22  1  0
 20 21  1  6
 21 14  1  0
 22 23  1  0
 24 22  2  0
M  END
$$$$
