YEM.pdb
     RDKit          3D

 30 30  0  0  1  0  0  0  0  0999 V2000
   25.7320  -26.4413  -16.4895 O   0  0  0  0  0  0  0  0  0  0  0  0
   26.9635  -27.0023  -16.8259 C   0  0  0  0  0  0  0  0  0  0  0  0
   28.0135  -26.1801  -17.2012 C   0  0  0  0  0  0  0  0  0  0  0  0
   29.2521  -26.7100  -17.5417 C   0  0  0  0  0  0  0  0  0  0  0  0
   29.4684  -28.0738  -17.5146 C   0  0  0  0  0  0  0  0  0  0  0  0
   30.7843  -28.6569  -17.8760 C   0  0  0  0  0  0  0  0  0  0  0  0
   31.0441  -28.4036  -19.3582 C   0  0  2  0  0  0  0  0  0  0  0  0
   30.1251  -29.2886  -20.0733 N   0  0  0  0  0  0  0  0  0  0  0  0
   32.4238  -28.8054  -19.6981 C   0  0  0  0  0  0  0  0  0  0  0  0
   32.6562  -29.8773  -20.2777 O   0  0  0  0  0  0  0  0  0  0  0  0
   28.4269  -28.8884  -17.1424 C   0  0  0  0  0  0  0  0  0  0  0  0
   27.1978  -28.3632  -16.8045 C   0  0  0  0  0  0  0  0  0  0  0  0
   33.5605  -27.9938  -19.3835 N   0  0  0  0  0  0  0  0  0  0  0  0
   34.9082  -28.3166  -19.8124 C   0  0  1  0  0  0  0  0  0  0  0  0
   35.8345  -27.1621  -19.7831 C   0  0  0  0  0  0  0  0  0  0  0  0
   37.2077  -27.4621  -20.3030 C   0  0  0  0  0  0  0  0  0  0  0  0
   38.1505  -26.3569  -20.2146 C   0  0  0  0  0  0  0  0  0  0  0  0
   38.1016  -25.5577  -19.2516 O   0  0  0  0  0  0  0  0  0  0  0  0
   35.4151  -29.5321  -19.0964 C   0  0  0  0  0  0  0  0  0  0  0  0
   34.8975  -29.9315  -18.0274 O   0  0  0  0  0  0  0  0  0  0  0  0
   39.1117  -26.1624  -21.1815 O   0  0  0  0  0  0  0  0  0  0  0  0
   33.3266  -34.3717  -18.2683 C   0  0  0  0  0  0  0  0  0  0  0  0
   34.8079  -35.0497  -19.0277 S   0  0  0  0  0  0  0  0  0  0  0  0
   36.2100  -33.9132  -18.8946 C   0  0  0  0  0  0  0  0  0  0  0  0
   35.7890  -32.5182  -19.3151 C   0  0  0  0  0  0  0  0  0  0  0  0
   36.9593  -31.5451  -19.1761 C   0  0  2  0  0  0  0  0  0  0  0  0
   36.5099  -30.2614  -19.6319 N   0  0  0  0  0  0  0  0  0  0  0  0
   38.1118  -32.0591  -19.9496 C   0  0  0  0  0  0  0  0  0  0  0  0
   38.2746  -31.7337  -21.1490 O   0  0  0  0  0  0  0  0  0  0  0  0
   39.0389  -32.9101  -19.3735 O   0  0  0  0  0  0  0  0  0  0  0  0
  2  3  2  0
  2  1  1  0
  4  3  1  0
  5  4  2  0
  6  5  1  0
  7  9  1  0
  7  6  1  0
  7  8  1  6
  9 10  2  0
 11  5  1  0
 11 12  2  0
 12  2  1  0
 13 14  1  0
 13  9  1  0
 14 15  1  1
 15 16  1  0
 16 17  1  0
 17 21  1  0
 18 17  2  0
 19 20  2  0
 19 14  1  0
 22 23  1  0
 23 24  1  0
 24 25  1  0
 26 25  1  6
 26 27  1  0
 27 19  1  0
 28 26  1  0
 28 30  1  0
 29 28  2  0
M  END
$$$$
