YEM.pdb
     RDKit          3D

 30 30  0  0  1  0  0  0  0  0999 V2000
   29.3151  -20.4225   -3.7472 O   0  0  0  0  0  0  0  0  0  0  0  0
   28.6773  -20.1953   -4.9663 C   0  0  0  0  0  0  0  0  0  0  0  0
   29.3771  -19.6115   -6.0095 C   0  0  0  0  0  0  0  0  0  0  0  0
   28.7685  -19.3728   -7.2357 C   0  0  0  0  0  0  0  0  0  0  0  0
   27.4466  -19.7127   -7.4460 C   0  0  0  0  0  0  0  0  0  0  0  0
   26.7804  -19.4642   -8.7487 C   0  0  0  0  0  0  0  0  0  0  0  0
   26.8041  -20.7522   -9.5667 C   0  0  2  0  0  0  0  0  0  0  0  0
   28.2090  -20.9730   -9.9082 N   0  0  0  0  0  0  0  0  0  0  0  0
   26.0528  -20.5584  -10.8230 C   0  0  0  0  0  0  0  0  0  0  0  0
   26.3666  -19.6684  -11.6283 O   0  0  0  0  0  0  0  0  0  0  0  0
   26.7532  -20.2915   -6.4111 C   0  0  0  0  0  0  0  0  0  0  0  0
   27.3565  -20.5285   -5.1943 C   0  0  0  0  0  0  0  0  0  0  0  0
   24.9326  -21.3743  -11.1826 N   0  0  0  0  0  0  0  0  0  0  0  0
   24.2191  -21.2327  -12.4378 C   0  0  1  0  0  0  0  0  0  0  0  0
   24.3860  -22.3864  -13.3504 C   0  0  0  0  0  0  0  0  0  0  0  0
   25.6677  -22.3759  -14.1269 C   0  0  0  0  0  0  0  0  0  0  0  0
   25.8519  -23.5109  -15.0192 C   0  0  0  0  0  0  0  0  0  0  0  0
   25.9496  -23.3359  -16.2554 O   0  0  0  0  0  0  0  0  0  0  0  0
   22.7930  -20.8397  -12.1950 C   0  0  0  0  0  0  0  0  0  0  0  0
   22.0439  -21.5065  -11.4438 O   0  0  0  0  0  0  0  0  0  0  0  0
   25.9210  -24.7965  -14.5303 O   0  0  0  0  0  0  0  0  0  0  0  0
   17.5870  -15.2101  -14.4273 C   0  0  0  0  0  0  0  0  0  0  0  0
   19.1872  -16.0066  -14.6153 S   0  0  0  0  0  0  0  0  0  0  0  0
   19.3548  -17.4406  -13.5240 C   0  0  0  0  0  0  0  0  0  0  0  0
   20.7465  -18.0297  -13.6512 C   0  0  0  0  0  0  0  0  0  0  0  0
   20.9260  -19.1867  -12.6688 C   0  0  2  0  0  0  0  0  0  0  0  0
   22.2627  -19.6829  -12.8256 N   0  0  0  0  0  0  0  0  0  0  0  0
   19.8955  -20.2148  -12.9369 C   0  0  0  0  0  0  0  0  0  0  0  0
   18.8736  -20.3006  -12.2163 O   0  0  0  0  0  0  0  0  0  0  0  0
   20.0299  -21.1071  -13.9863 O   0  0  0  0  0  0  0  0  0  0  0  0
  2  3  2  0
  2  1  1  0
  4  3  1  0
  5  4  2  0
  6  5  1  0
  7  9  1  0
  7  6  1  0
  7  8  1  6
  9 10  2  0
 11  5  1  0
 11 12  2  0
 12  2  1  0
 13 14  1  0
 13  9  1  0
 14 15  1  1
 15 16  1  0
 16 17  1  0
 17 21  1  0
 18 17  2  0
 19 20  2  0
 19 14  1  0
 22 23  1  0
 23 24  1  0
 24 25  1  0
 26 25  1  6
 26 27  1  0
 27 19  1  0
 28 26  1  0
 28 30  1  0
 29 28  2  0
M  END
$$$$
