YEM.pdb
     RDKit          3D

 30 30  0  0  1  0  0  0  0  0999 V2000
   29.3974  -15.5778  -19.5996 O   0  0  0  0  0  0  0  0  0  0  0  0
   28.1210  -16.0062  -19.2368 C   0  0  0  0  0  0  0  0  0  0  0  0
   27.8262  -16.2344  -17.9026 C   0  0  0  0  0  0  0  0  0  0  0  0
   26.5633  -16.6615  -17.5107 C   0  0  0  0  0  0  0  0  0  0  0  0
   25.5670  -16.8699  -18.4441 C   0  0  0  0  0  0  0  0  0  0  0  0
   24.2131  -17.3268  -18.0435 C   0  0  0  0  0  0  0  0  0  0  0  0
   24.3311  -18.7007  -17.3901 C   0  0  2  0  0  0  0  0  0  0  0  0
   24.6817  -19.6199  -18.4724 N   0  0  0  0  0  0  0  0  0  0  0  0
   23.0192  -19.1097  -16.8495 C   0  0  0  0  0  0  0  0  0  0  0  0
   22.1523  -19.6137  -17.5800 O   0  0  0  0  0  0  0  0  0  0  0  0
   25.8600  -16.6435  -19.7669 C   0  0  0  0  0  0  0  0  0  0  0  0
   27.1129  -16.2198  -20.1563 C   0  0  0  0  0  0  0  0  0  0  0  0
   22.6731  -18.9513  -15.4693 N   0  0  0  0  0  0  0  0  0  0  0  0
   21.3939  -19.3602  -14.9207 C   0  0  1  0  0  0  0  0  0  0  0  0
   21.3957  -19.4992  -13.4469 C   0  0  0  0  0  0  0  0  0  0  0  0
   20.0966  -19.9775  -12.8727 C   0  0  0  0  0  0  0  0  0  0  0  0
   20.1130  -20.2162  -11.4371 C   0  0  0  0  0  0  0  0  0  0  0  0
   21.1372  -19.9595  -10.7637 O   0  0  0  0  0  0  0  0  0  0  0  0
   20.2886  -18.5018  -15.4579 C   0  0  0  0  0  0  0  0  0  0  0  0
   20.4162  -17.2611  -15.5784 O   0  0  0  0  0  0  0  0  0  0  0  0
   19.0115  -20.7283  -10.7883 O   0  0  0  0  0  0  0  0  0  0  0  0
   17.4003  -19.4528  -20.7745 C   0  0  0  0  0  0  0  0  0  0  0  0
   15.9198  -18.9738  -19.8749 S   0  0  0  0  0  0  0  0  0  0  0  0
   16.3167  -18.2837  -18.2496 C   0  0  0  0  0  0  0  0  0  0  0  0
   17.4593  -19.0586  -17.6217 C   0  0  0  0  0  0  0  0  0  0  0  0
   17.9044  -18.3894  -16.3217 C   0  0  2  0  0  0  0  0  0  0  0  0
   19.0582  -19.0962  -15.8455 N   0  0  0  0  0  0  0  0  0  0  0  0
   16.7810  -18.4065  -15.3582 C   0  0  0  0  0  0  0  0  0  0  0  0
   16.5139  -19.4416  -14.7039 O   0  0  0  0  0  0  0  0  0  0  0  0
   15.9964  -17.2850  -15.1528 O   0  0  0  0  0  0  0  0  0  0  0  0
  2  3  2  0
  2  1  1  0
  4  3  1  0
  5  4  2  0
  6  5  1  0
  7  9  1  0
  7  6  1  0
  7  8  1  6
  9 10  2  0
 11  5  1  0
 11 12  2  0
 12  2  1  0
 13 14  1  0
 13  9  1  0
 14 15  1  1
 15 16  1  0
 16 17  1  0
 17 21  1  0
 18 17  2  0
 19 20  2  0
 19 14  1  0
 22 23  1  0
 23 24  1  0
 24 25  1  0
 26 25  1  6
 26 27  1  0
 27 19  1  0
 28 26  1  0
 28 30  1  0
 29 28  2  0
M  END
$$$$
