YEM.pdb
     RDKit          3D

 30 30  0  0  1  0  0  0  0  0999 V2000
   19.1476  -10.8943    3.1046 O   0  0  0  0  0  0  0  0  0  0  0  0
   19.0678  -12.0893    3.8188 C   0  0  0  0  0  0  0  0  0  0  0  0
   18.4987  -13.2058    3.2284 C   0  0  0  0  0  0  0  0  0  0  0  0
   18.4053  -14.4103    3.9149 C   0  0  0  0  0  0  0  0  0  0  0  0
   18.8789  -14.5252    5.2072 C   0  0  0  0  0  0  0  0  0  0  0  0
   18.7865  -15.8034    5.9555 C   0  0  0  0  0  0  0  0  0  0  0  0
   17.3208  -16.0795    6.2781 C   0  0  2  0  0  0  0  0  0  0  0  0
   16.9478  -15.0859    7.2845 N   0  0  0  0  0  0  0  0  0  0  0  0
   17.1882  -17.4187    6.8861 C   0  0  0  0  0  0  0  0  0  0  0  0
   17.2005  -17.5690    8.1175 O   0  0  0  0  0  0  0  0  0  0  0  0
   19.4431  -13.4177    5.7920 C   0  0  0  0  0  0  0  0  0  0  0  0
   19.5360  -12.2224    5.1112 C   0  0  0  0  0  0  0  0  0  0  0  0
   17.0398  -18.6075    6.1024 N   0  0  0  0  0  0  0  0  0  0  0  0
   17.3227  -19.9351    6.6144 C   0  0  1  0  0  0  0  0  0  0  0  0
   16.7748  -21.0253    5.7761 C   0  0  0  0  0  0  0  0  0  0  0  0
   17.0344  -22.4014    6.3101 C   0  0  0  0  0  0  0  0  0  0  0  0
   16.5644  -23.4860    5.4610 C   0  0  0  0  0  0  0  0  0  0  0  0
   17.0833  -23.6823    4.3382 O   0  0  0  0  0  0  0  0  0  0  0  0
   18.7794  -20.0786    6.9380 C   0  0  0  0  0  0  0  0  0  0  0  0
   19.6688  -19.5764    6.2121 O   0  0  0  0  0  0  0  0  0  0  0  0
   15.5436  -24.3164    5.8671 O   0  0  0  0  0  0  0  0  0  0  0  0
   24.5334  -17.6812   10.4985 C   0  0  0  0  0  0  0  0  0  0  0  0
   22.7615  -17.8832   10.2751 S   0  0  0  0  0  0  0  0  0  0  0  0
   22.3601  -19.4669    9.4964 C   0  0  0  0  0  0  0  0  0  0  0  0
   20.8684  -19.5546    9.2374 C   0  0  0  0  0  0  0  0  0  0  0  0
   20.5180  -20.8970    8.5964 C   0  0  2  0  0  0  0  0  0  0  0  0
   19.1776  -20.7994    8.0952 N   0  0  0  0  0  0  0  0  0  0  0  0
   20.6795  -21.9713    9.6017 C   0  0  0  0  0  0  0  0  0  0  0  0
   21.6220  -22.7930    9.5154 O   0  0  0  0  0  0  0  0  0  0  0  0
   19.7985  -22.0990   10.6614 O   0  0  0  0  0  0  0  0  0  0  0  0
  2  3  2  0
  2  1  1  0
  4  3  1  0
  5  4  2  0
  6  5  1  0
  7  9  1  0
  7  6  1  0
  7  8  1  1
  9 10  2  0
 11  5  1  0
 11 12  2  0
 12  2  1  0
 13 14  1  0
 13  9  1  0
 14 15  1  6
 15 16  1  0
 16 17  1  0
 17 21  1  0
 18 17  2  0
 19 20  2  0
 19 14  1  0
 22 23  1  0
 23 24  1  0
 24 25  1  0
 26 25  1  1
 26 27  1  0
 27 19  1  0
 28 26  1  0
 28 30  1  0
 29 28  2  0
M  END
$$$$
