YEM.pdb
     RDKit          3D

 30 30  0  0  1  0  0  0  0  0999 V2000
   32.0778  -32.9650  -16.0057 O   0  0  0  0  0  0  0  0  0  0  0  0
   30.8468  -32.3852  -16.3108 C   0  0  0  0  0  0  0  0  0  0  0  0
   29.7802  -32.5393  -15.4404 C   0  0  0  0  0  0  0  0  0  0  0  0
   28.5417  -31.9733  -15.7175 C   0  0  0  0  0  0  0  0  0  0  0  0
   28.3422  -31.2405  -16.8710 C   0  0  0  0  0  0  0  0  0  0  0  0
   27.0263  -30.6298  -17.1832 C   0  0  0  0  0  0  0  0  0  0  0  0
   25.9530  -31.7123  -17.1142 C   0  0  2  0  0  0  0  0  0  0  0  0
   26.1880  -32.5709  -18.2747 N   0  0  0  0  0  0  0  0  0  0  0  0
   24.6174  -31.0998  -17.2611 C   0  0  0  0  0  0  0  0  0  0  0  0
   24.0181  -31.1187  -18.3472 O   0  0  0  0  0  0  0  0  0  0  0  0
   29.4003  -31.0881  -17.7336 C   0  0  0  0  0  0  0  0  0  0  0  0
   30.6293  -31.6496  -17.4593 C   0  0  0  0  0  0  0  0  0  0  0  0
   23.9429  -30.4563  -16.1745 N   0  0  0  0  0  0  0  0  0  0  0  0
   22.6356  -29.8412  -16.3056 C   0  0  1  0  0  0  0  0  0  0  0  0
   21.8266  -29.8934  -15.0670 C   0  0  0  0  0  0  0  0  0  0  0  0
   20.4513  -29.3145  -15.2059 C   0  0  0  0  0  0  0  0  0  0  0  0
   19.6518  -29.3378  -13.9899 C   0  0  0  0  0  0  0  0  0  0  0  0
   19.1026  -30.3982  -13.6128 O   0  0  0  0  0  0  0  0  0  0  0  0
   22.7517  -28.4740  -16.9092 C   0  0  0  0  0  0  0  0  0  0  0  0
   23.8591  -27.9020  -17.0385 O   0  0  0  0  0  0  0  0  0  0  0  0
   19.4788  -28.2022  -13.2302 O   0  0  0  0  0  0  0  0  0  0  0  0
   23.5383  -24.2471  -22.6496 C   0  0  0  0  0  0  0  0  0  0  0  0
   23.4555  -25.7356  -21.6457 S   0  0  0  0  0  0  0  0  0  0  0  0
   22.4630  -25.4835  -20.1535 C   0  0  0  0  0  0  0  0  0  0  0  0
   22.4400  -26.7536  -19.3248 C   0  0  0  0  0  0  0  0  0  0  0  0
   21.5636  -26.5650  -18.0870 C   0  0  2  0  0  0  0  0  0  0  0  0
   21.5845  -27.7963  -17.3515 N   0  0  0  0  0  0  0  0  0  0  0  0
   20.2015  -26.1721  -18.5124 C   0  0  0  0  0  0  0  0  0  0  0  0
   19.9851  -25.0383  -19.0011 O   0  0  0  0  0  0  0  0  0  0  0  0
   19.1321  -27.0412  -18.3836 O   0  0  0  0  0  0  0  0  0  0  0  0
  2  3  2  0
  2  1  1  0
  4  3  1  0
  5  4  2  0
  6  5  1  0
  7  9  1  0
  7  6  1  0
  7  8  1  6
  9 10  2  0
 11  5  1  0
 11 12  2  0
 12  2  1  0
 13 14  1  0
 13  9  1  0
 14 15  1  1
 15 16  1  0
 16 17  1  0
 17 21  1  0
 18 17  2  0
 19 20  2  0
 19 14  1  0
 22 23  1  0
 23 24  1  0
 24 25  1  0
 26 25  1  6
 26 27  1  0
 27 19  1  0
 28 26  1  0
 28 30  1  0
 29 28  2  0
M  END
$$$$
