YEM.pdb
     RDKit          3D

 30 30  0  0  1  0  0  0  0  0999 V2000
   21.6114    9.9457   -9.5178 O   0  0  0  0  0  0  0  0  0  0  0  0
   22.0311    8.7948   -8.8516 C   0  0  0  0  0  0  0  0  0  0  0  0
   21.2975    7.6258   -8.9709 C   0  0  0  0  0  0  0  0  0  0  0  0
   21.6908    6.4633   -8.3191 C   0  0  0  0  0  0  0  0  0  0  0  0
   22.8265    6.4439   -7.5334 C   0  0  0  0  0  0  0  0  0  0  0  0
   23.2607    5.2118   -6.8294 C   0  0  0  0  0  0  0  0  0  0  0  0
   24.5976    4.7593   -7.4095 C   0  0  2  0  0  0  0  0  0  0  0  0
   24.2661    4.0260   -8.6308 N   0  0  0  0  0  0  0  0  0  0  0  0
   25.2536    3.8213   -6.4765 C   0  0  0  0  0  0  0  0  0  0  0  0
   25.0299    2.6021   -6.5284 O   0  0  0  0  0  0  0  0  0  0  0  0
   23.5534    7.6035   -7.4155 C   0  0  0  0  0  0  0  0  0  0  0  0
   23.1636    8.7571   -8.0620 C   0  0  0  0  0  0  0  0  0  0  0  0
   26.1743    4.2560   -5.4700 N   0  0  0  0  0  0  0  0  0  0  0  0
   26.9241    3.3392   -4.6322 C   0  0  1  0  0  0  0  0  0  0  0  0
   28.3783    3.6146   -4.6020 C   0  0  0  0  0  0  0  0  0  0  0  0
   29.1462    2.7600   -3.6398 C   0  0  0  0  0  0  0  0  0  0  0  0
   30.5845    2.9825   -3.6368 C   0  0  0  0  0  0  0  0  0  0  0  0
   31.1051    3.7731   -4.4568 O   0  0  0  0  0  0  0  0  0  0  0  0
   26.2908    3.2202   -3.2787 C   0  0  0  0  0  0  0  0  0  0  0  0
   26.0453    4.2272   -2.5746 O   0  0  0  0  0  0  0  0  0  0  0  0
   31.4033    2.3326   -2.7403 O   0  0  0  0  0  0  0  0  0  0  0  0
   25.0546   -3.0578   -0.5469 C   0  0  0  0  0  0  0  0  0  0  0  0
   25.6524   -1.8582    0.6507 S   0  0  0  0  0  0  0  0  0  0  0  0
   25.1636   -0.1719    0.2118 C   0  0  0  0  0  0  0  0  0  0  0  0
   25.7835    0.2191   -1.1160 C   0  0  0  0  0  0  0  0  0  0  0  0
   25.4494    1.6724   -1.4513 C   0  0  2  0  0  0  0  0  0  0  0  0
   25.9537    1.9387   -2.7675 N   0  0  0  0  0  0  0  0  0  0  0  0
   26.0383    2.5557   -0.4200 C   0  0  0  0  0  0  0  0  0  0  0  0
   25.3104    3.3021    0.2757 O   0  0  0  0  0  0  0  0  0  0  0  0
   27.4037    2.5831   -0.1950 O   0  0  0  0  0  0  0  0  0  0  0  0
  2  3  2  0
  2  1  1  0
  4  3  1  0
  5  4  2  0
  6  5  1  0
  7  9  1  0
  7  6  1  0
  7  8  1  6
  9 10  2  0
 11  5  1  0
 11 12  2  0
 12  2  1  0
 13 14  1  0
 13  9  1  0
 14 15  1  1
 15 16  1  0
 16 17  1  0
 17 21  1  0
 18 17  2  0
 19 20  2  0
 19 14  1  0
 22 23  1  0
 23 24  1  0
 24 25  1  0
 26 25  1  1
 26 27  1  0
 27 19  1  0
 28 26  1  0
 28 30  1  0
 29 28  2  0
M  END
$$$$
