YEM.pdb
     RDKit          3D

 30 30  0  0  1  0  0  0  0  0999 V2000
   32.4451  -22.4120  -12.2215 O   0  0  0  0  0  0  0  0  0  0  0  0
   31.1710  -21.9133  -12.4909 C   0  0  0  0  0  0  0  0  0  0  0  0
   30.6433  -20.9103  -11.6944 C   0  0  0  0  0  0  0  0  0  0  0  0
   29.3767  -20.3934  -11.9383 C   0  0  0  0  0  0  0  0  0  0  0  0
   28.6096  -20.8680  -12.9841 C   0  0  0  0  0  0  0  0  0  0  0  0
   27.2547  -20.3283  -13.2585 C   0  0  0  0  0  0  0  0  0  0  0  0
   27.3060  -19.4978  -14.5377 C   0  0  2  0  0  0  0  0  0  0  0  0
   27.9913  -18.2584  -14.1723 N   0  0  0  0  0  0  0  0  0  0  0  0
   25.9346  -19.1539  -14.9638 C   0  0  0  0  0  0  0  0  0  0  0  0
   25.2538  -18.3301  -14.3336 O   0  0  0  0  0  0  0  0  0  0  0  0
   29.1335  -21.8626  -13.7735 C   0  0  0  0  0  0  0  0  0  0  0  0
   30.3901  -22.3758  -13.5319 C   0  0  0  0  0  0  0  0  0  0  0  0
   25.3165  -19.7420  -16.1135 N   0  0  0  0  0  0  0  0  0  0  0  0
   23.8882  -19.6864  -16.3612 C   0  0  1  0  0  0  0  0  0  0  0  0
   23.5209  -19.9101  -17.7777 C   0  0  0  0  0  0  0  0  0  0  0  0
   22.0509  -19.8160  -18.0541 C   0  0  0  0  0  0  0  0  0  0  0  0
   21.6755  -20.0201  -19.4454 C   0  0  0  0  0  0  0  0  0  0  0  0
   21.0794  -19.1196  -20.0796 O   0  0  0  0  0  0  0  0  0  0  0  0
   23.1477  -20.5534  -15.3878 C   0  0  0  0  0  0  0  0  0  0  0  0
   23.6216  -21.6386  -14.9782 O   0  0  0  0  0  0  0  0  0  0  0  0
   21.9625  -21.2005  -20.0941 O   0  0  0  0  0  0  0  0  0  0  0  0
   24.2689  -19.7923  -10.4503 C   0  0  0  0  0  0  0  0  0  0  0  0
   22.7575  -20.5861   -9.8881 S   0  0  0  0  0  0  0  0  0  0  0  0
   21.5868  -20.8365  -11.2454 C   0  0  0  0  0  0  0  0  0  0  0  0
   22.1805  -20.3249  -12.5438 C   0  0  0  0  0  0  0  0  0  0  0  0
   21.2424  -20.6258  -13.7123 C   0  0  2  0  0  0  0  0  0  0  0  0
   21.8743  -20.1469  -14.9076 N   0  0  0  0  0  0  0  0  0  0  0  0
   19.9317  -19.9867  -13.4588 C   0  0  0  0  0  0  0  0  0  0  0  0
   19.7088  -18.8116  -13.8337 O   0  0  0  0  0  0  0  0  0  0  0  0
   18.9187  -20.6649  -12.8035 O   0  0  0  0  0  0  0  0  0  0  0  0
  2  3  2  0
  2  1  1  0
  4  3  1  0
  5  4  2  0
  6  5  1  0
  7  9  1  0
  7  6  1  0
  7  8  1  1
  9 10  2  0
 11  5  1  0
 11 12  2  0
 12  2  1  0
 13 14  1  0
 13  9  1  0
 14 15  1  6
 15 16  1  0
 16 17  1  0
 17 21  1  0
 18 17  2  0
 19 20  2  0
 19 14  1  0
 22 23  1  0
 23 24  1  0
 24 25  1  0
 26 25  1  1
 26 27  1  0
 27 19  1  0
 28 26  1  0
 28 30  1  0
 29 28  2  0
M  END
$$$$
