YEM.pdb
     RDKit          3D

 30 30  0  0  1  0  0  0  0  0999 V2000
   30.8349  -16.7116  -19.1033 O   0  0  0  0  0  0  0  0  0  0  0  0
   29.8256  -16.8197  -18.1472 C   0  0  0  0  0  0  0  0  0  0  0  0
   29.5443  -18.0524  -17.5814 C   0  0  0  0  0  0  0  0  0  0  0  0
   28.5446  -18.1912  -16.6263 C   0  0  0  0  0  0  0  0  0  0  0  0
   27.8037  -17.1003  -16.2158 C   0  0  0  0  0  0  0  0  0  0  0  0
   26.7318  -17.2303  -15.1978 C   0  0  0  0  0  0  0  0  0  0  0  0
   25.6010  -18.0738  -15.7794 C   0  0  2  0  0  0  0  0  0  0  0  0
   24.9347  -17.2141  -16.7573 N   0  0  0  0  0  0  0  0  0  0  0  0
   24.6270  -18.4007  -14.7187 C   0  0  0  0  0  0  0  0  0  0  0  0
   23.8419  -17.5452  -14.2818 O   0  0  0  0  0  0  0  0  0  0  0  0
   28.0831  -15.8782  -16.7774 C   0  0  0  0  0  0  0  0  0  0  0  0
   29.0749  -15.7400  -17.7250 C   0  0  0  0  0  0  0  0  0  0  0  0
   24.5312  -19.7061  -14.1387 N   0  0  0  0  0  0  0  0  0  0  0  0
   23.7656  -19.9862  -12.9387 C   0  0  1  0  0  0  0  0  0  0  0  0
   22.4273  -20.5593  -13.2069 C   0  0  0  0  0  0  0  0  0  0  0  0
   21.6157  -20.8287  -11.9762 C   0  0  0  0  0  0  0  0  0  0  0  0
   20.3340  -21.4746  -12.2176 C   0  0  0  0  0  0  0  0  0  0  0  0
   20.2864  -22.6713  -12.5835 O   0  0  0  0  0  0  0  0  0  0  0  0
   24.5860  -20.7683  -11.9576 C   0  0  0  0  0  0  0  0  0  0  0  0
   24.8696  -21.9739  -12.1481 O   0  0  0  0  0  0  0  0  0  0  0  0
   19.1502  -20.7905  -12.0528 O   0  0  0  0  0  0  0  0  0  0  0  0
   29.2636  -19.5019   -6.8891 C   0  0  0  0  0  0  0  0  0  0  0  0
   27.5482  -19.3606   -6.3714 S   0  0  0  0  0  0  0  0  0  0  0  0
   26.4670  -20.4520   -7.3281 C   0  0  0  0  0  0  0  0  0  0  0  0
   26.2048  -19.8531   -8.6966 C   0  0  0  0  0  0  0  0  0  0  0  0
   25.3532  -20.8030   -9.5383 C   0  0  2  0  0  0  0  0  0  0  0  0
   25.0623  -20.1397  -10.7764 N   0  0  0  0  0  0  0  0  0  0  0  0
   24.1351  -21.1640   -8.7790 C   0  0  0  0  0  0  0  0  0  0  0  0
   23.0664  -20.5301   -8.9434 O   0  0  0  0  0  0  0  0  0  0  0  0
   24.1408  -22.2073   -7.8695 O   0  0  0  0  0  0  0  0  0  0  0  0
  2  3  2  0
  2  1  1  0
  4  3  1  0
  5  4  2  0
  6  5  1  0
  7  9  1  0
  7  6  1  0
  7  8  1  6
  9 10  2  0
 11  5  1  0
 11 12  2  0
 12  2  1  0
 13 14  1  0
 13  9  1  0
 14 15  1  6
 15 16  1  0
 16 17  1  0
 17 21  1  0
 18 17  2  0
 19 20  2  0
 19 14  1  0
 22 23  1  0
 23 24  1  0
 24 25  1  0
 26 25  1  1
 26 27  1  0
 27 19  1  0
 28 26  1  0
 28 30  1  0
 29 28  2  0
M  END
$$$$
