YEM.pdb
     RDKit          3D

 30 30  0  0  1  0  0  0  0  0999 V2000
   14.1023  -14.0962  -16.8234 O   0  0  0  0  0  0  0  0  0  0  0  0
   14.9765  -13.0804  -16.4380 C   0  0  0  0  0  0  0  0  0  0  0  0
   15.3606  -12.9712  -15.1115 C   0  0  0  0  0  0  0  0  0  0  0  0
   16.2303  -11.9696  -14.6976 C   0  0  0  0  0  0  0  0  0  0  0  0
   16.7353  -11.0550  -15.6008 C   0  0  0  0  0  0  0  0  0  0  0  0
   17.6643   -9.9785  -15.1762 C   0  0  0  0  0  0  0  0  0  0  0  0
   19.0528  -10.2791  -15.7332 C   0  0  2  0  0  0  0  0  0  0  0  0
   19.5536  -11.4068  -14.9479 N   0  0  0  0  0  0  0  0  0  0  0  0
   19.9445   -9.1258  -15.4979 C   0  0  0  0  0  0  0  0  0  0  0  0
   20.4236   -8.9029  -14.3754 O   0  0  0  0  0  0  0  0  0  0  0  0
   16.3540  -11.1639  -16.9160 C   0  0  0  0  0  0  0  0  0  0  0  0
   15.4911  -12.1574  -17.3272 C   0  0  0  0  0  0  0  0  0  0  0  0
   20.3048   -8.2082  -16.5361 N   0  0  0  0  0  0  0  0  0  0  0  0
   21.1623   -7.0590  -16.3160 C   0  0  1  0  0  0  0  0  0  0  0  0
   22.5074   -7.1962  -16.9188 C   0  0  0  0  0  0  0  0  0  0  0  0
   23.4341   -6.0568  -16.6207 C   0  0  0  0  0  0  0  0  0  0  0  0
   24.7390   -6.1461  -17.2591 C   0  0  0  0  0  0  0  0  0  0  0  0
   25.0464   -7.1550  -17.9344 O   0  0  0  0  0  0  0  0  0  0  0  0
   20.4509   -5.7901  -16.6781 C   0  0  0  0  0  0  0  0  0  0  0  0
   19.6405   -5.7377  -17.6323 O   0  0  0  0  0  0  0  0  0  0  0  0
   25.6624   -5.1318  -17.1359 O   0  0  0  0  0  0  0  0  0  0  0  0
   15.1386   -0.9150  -15.8702 C   0  0  0  0  0  0  0  0  0  0  0  0
   16.0648   -2.4384  -15.6431 S   0  0  0  0  0  0  0  0  0  0  0  0
   17.8313   -2.2024  -15.9575 C   0  0  0  0  0  0  0  0  0  0  0  0
   18.5610   -3.5266  -15.8393 C   0  0  0  0  0  0  0  0  0  0  0  0
   20.0484   -3.3427  -16.1386 C   0  0  2  0  0  0  0  0  0  0  0  0
   20.6908   -4.6079  -15.9284 N   0  0  0  0  0  0  0  0  0  0  0  0
   20.5888   -2.2720  -15.2712 C   0  0  0  0  0  0  0  0  0  0  0  0
   21.1017   -2.5450  -14.1606 O   0  0  0  0  0  0  0  0  0  0  0  0
   20.5438   -0.9443  -15.6596 O   0  0  0  0  0  0  0  0  0  0  0  0
  2  3  2  0
  2  1  1  0
  4  3  1  0
  5  4  2  0
  6  5  1  0
  7  9  1  0
  7  6  1  0
  7  8  1  1
  9 10  2  0
 11  5  1  0
 11 12  2  0
 12  2  1  0
 13 14  1  0
 13  9  1  0
 14 15  1  6
 15 16  1  0
 16 17  1  0
 17 21  1  0
 18 17  2  0
 19 20  2  0
 19 14  1  0
 22 23  1  0
 23 24  1  0
 24 25  1  0
 26 25  1  1
 26 27  1  0
 27 19  1  0
 28 26  1  0
 28 30  1  0
 29 28  2  0
M  END
$$$$
