YEM.pdb
     RDKit          3D

 30 30  0  0  1  0  0  0  0  0999 V2000
   19.8810  -11.5424  -18.8287 O   0  0  0  0  0  0  0  0  0  0  0  0
   18.8545  -12.3787  -18.3912 C   0  0  0  0  0  0  0  0  0  0  0  0
   17.5903  -12.2625  -18.9457 C   0  0  0  0  0  0  0  0  0  0  0  0
   16.5476  -13.0818  -18.5302 C   0  0  0  0  0  0  0  0  0  0  0  0
   16.7458  -14.0353  -17.5510 C   0  0  0  0  0  0  0  0  0  0  0  0
   15.6436  -14.9180  -17.0946 C   0  0  0  0  0  0  0  0  0  0  0  0
   15.8600  -16.3137  -17.6723 C   0  0  2  0  0  0  0  0  0  0  0  0
   15.5261  -16.2056  -19.0922 N   0  0  0  0  0  0  0  0  0  0  0  0
   14.9141  -17.2623  -17.0508 C   0  0  0  0  0  0  0  0  0  0  0  0
   13.7467  -17.3647  -17.4579 O   0  0  0  0  0  0  0  0  0  0  0  0
   17.9995  -14.1499  -17.0016 C   0  0  0  0  0  0  0  0  0  0  0  0
   19.0344  -13.3373  -17.4135 C   0  0  0  0  0  0  0  0  0  0  0  0
   15.2820  -18.1090  -15.9565 N   0  0  0  0  0  0  0  0  0  0  0  0
   14.4207  -19.1556  -15.4396 C   0  0  1  0  0  0  0  0  0  0  0  0
   15.0904  -20.4699  -15.3151 C   0  0  0  0  0  0  0  0  0  0  0  0
   14.1876  -21.5807  -14.8710 C   0  0  0  0  0  0  0  0  0  0  0  0
   14.7954  -22.9031  -14.8777 C   0  0  0  0  0  0  0  0  0  0  0  0
   14.2231  -23.8607  -15.4467 O   0  0  0  0  0  0  0  0  0  0  0  0
   13.7215  -18.6995  -14.1945 C   0  0  0  0  0  0  0  0  0  0  0  0
   14.3353  -18.1213  -13.2676 O   0  0  0  0  0  0  0  0  0  0  0  0
   16.0052  -23.1333  -14.2613 O   0  0  0  0  0  0  0  0  0  0  0  0
    6.2598  -17.7501  -11.5505 C   0  0  0  0  0  0  0  0  0  0  0  0
    7.4141  -18.5631  -12.6627 S   0  0  0  0  0  0  0  0  0  0  0  0
    9.1308  -18.1456  -12.2699 C   0  0  0  0  0  0  0  0  0  0  0  0
   10.0521  -18.6587  -13.3598 C   0  0  0  0  0  0  0  0  0  0  0  0
   11.5127  -18.4273  -12.9738 C   0  0  2  0  0  0  0  0  0  0  0  0
   12.3263  -18.9207  -14.0472 N   0  0  0  0  0  0  0  0  0  0  0  0
   11.7870  -19.1038  -11.6862 C   0  0  0  0  0  0  0  0  0  0  0  0
   11.3415  -18.6390  -10.6108 O   0  0  0  0  0  0  0  0  0  0  0  0
   12.5401  -20.2637  -11.6326 O   0  0  0  0  0  0  0  0  0  0  0  0
  2  3  2  0
  2  1  1  0
  4  3  1  0
  5  4  2  0
  6  5  1  0
  7  9  1  0
  7  6  1  0
  7  8  1  6
  9 10  2  0
 11  5  1  0
 11 12  2  0
 12  2  1  0
 13 14  1  0
 13  9  1  0
 14 15  1  1
 15 16  1  0
 16 17  1  0
 17 21  1  0
 18 17  2  0
 19 20  2  0
 19 14  1  0
 22 23  1  0
 23 24  1  0
 24 25  1  0
 26 25  1  6
 26 27  1  0
 27 19  1  0
 28 26  1  0
 28 30  1  0
 29 28  2  0
M  END
$$$$
