YEM.pdb
     RDKit          3D

 30 30  0  0  1  0  0  0  0  0999 V2000
   20.0516  -15.6162  -18.2699 O   0  0  0  0  0  0  0  0  0  0  0  0
   20.3338  -14.2874  -17.9549 C   0  0  0  0  0  0  0  0  0  0  0  0
   21.1020  -13.5246  -18.8192 C   0  0  0  0  0  0  0  0  0  0  0  0
   21.3996  -12.1979  -18.5323 C   0  0  0  0  0  0  0  0  0  0  0  0
   20.9356  -11.6045  -17.3748 C   0  0  0  0  0  0  0  0  0  0  0  0
   21.2445  -10.1893  -17.0520 C   0  0  0  0  0  0  0  0  0  0  0  0
   22.7485  -10.0516  -16.8339 C   0  0  2  0  0  0  0  0  0  0  0  0
   23.0247  -10.7346  -15.5704 N   0  0  0  0  0  0  0  0  0  0  0  0
   23.0999   -8.6267  -16.6702 C   0  0  0  0  0  0  0  0  0  0  0  0
   22.7383   -7.9868  -15.6707 O   0  0  0  0  0  0  0  0  0  0  0  0
   20.1739  -12.3614  -16.5182 C   0  0  0  0  0  0  0  0  0  0  0  0
   19.8784  -13.6777  -16.8024 C   0  0  0  0  0  0  0  0  0  0  0  0
   23.8680   -7.9078  -17.6412 N   0  0  0  0  0  0  0  0  0  0  0  0
   24.2300   -6.5112  -17.4897 C   0  0  1  0  0  0  0  0  0  0  0  0
   25.5249   -6.1609  -18.1159 C   0  0  0  0  0  0  0  0  0  0  0  0
   25.9383   -4.7342  -17.9169 C   0  0  0  0  0  0  0  0  0  0  0  0
   27.1764   -4.3573  -18.5826 C   0  0  0  0  0  0  0  0  0  0  0  0
   27.5847   -3.1742  -18.5387 O   0  0  0  0  0  0  0  0  0  0  0  0
   23.0911   -5.6224  -17.8898 C   0  0  0  0  0  0  0  0  0  0  0  0
   22.6671   -5.5839  -19.0683 O   0  0  0  0  0  0  0  0  0  0  0  0
   27.9234   -5.2848  -19.2742 O   0  0  0  0  0  0  0  0  0  0  0  0
   15.8928   -3.6825  -17.0330 C   0  0  0  0  0  0  0  0  0  0  0  0
   17.3546   -4.6792  -16.7164 S   0  0  0  0  0  0  0  0  0  0  0  0
   18.8778   -3.7607  -17.0508 C   0  0  0  0  0  0  0  0  0  0  0  0
   20.0781   -4.6765  -16.9076 C   0  0  0  0  0  0  0  0  0  0  0  0
   21.3708   -3.9027  -17.1643 C   0  0  2  0  0  0  0  0  0  0  0  0
   22.4653   -4.7967  -16.9183 N   0  0  0  0  0  0  0  0  0  0  0  0
   21.3998   -2.7050  -16.2951 C   0  0  0  0  0  0  0  0  0  0  0  0
   22.0232   -2.7175  -15.2078 O   0  0  0  0  0  0  0  0  0  0  0  0
   20.7424   -1.5419  -16.6561 O   0  0  0  0  0  0  0  0  0  0  0  0
  2  3  2  0
  2  1  1  0
  4  3  1  0
  5  4  2  0
  6  5  1  0
  7  9  1  0
  7  6  1  0
  7  8  1  1
  9 10  2  0
 11  5  1  0
 11 12  2  0
 12  2  1  0
 13 14  1  0
 13  9  1  0
 14 15  1  6
 15 16  1  0
 16 17  1  0
 17 21  1  0
 18 17  2  0
 19 20  2  0
 19 14  1  0
 22 23  1  0
 23 24  1  0
 24 25  1  0
 26 25  1  1
 26 27  1  0
 27 19  1  0
 28 26  1  0
 28 30  1  0
 29 28  2  0
M  END
$$$$
