KFW.pdb
     RDKit          3D

 35 37  0  0  1  0  0  0  0  0999 V2000
   29.2399  -21.5887  -14.5403 N   0  0  0  0  0  0  0  0  0  0  0  0
   28.1012  -20.7185  -14.4747 C   0  0  1  0  0  0  0  0  0  0  0  0
   27.4766  -20.4283  -15.8101 C   0  0  0  0  0  0  0  0  0  0  0  0
   28.4318  -19.6017  -16.6745 C   0  0  0  0  0  0  0  0  0  0  0  0
   28.0981  -18.1431  -16.4501 C   0  0  0  0  0  0  0  0  0  0  0  0
   28.9230  -17.2372  -17.3362 C   0  0  0  0  0  0  0  0  0  0  0  0
   29.8760  -16.4464  -16.6152 N   0  0  0  0  0  0  0  0  0  0  0  0
   27.0729  -21.1503  -13.5156 C   0  0  0  0  0  0  0  0  0  0  0  0
   26.5419  -22.2775  -13.7112 O   0  0  0  0  0  0  0  0  0  0  0  0
   26.6395  -20.4079  -12.4056 N   0  0  0  0  0  0  0  0  0  0  0  0
   25.5107  -20.7686  -11.5775 C   0  0  1  0  0  0  0  0  0  0  0  0
   25.5258  -20.0796  -10.2372 C   0  0  0  0  0  0  0  0  0  0  0  0
   26.7448  -20.3965   -9.4573 C   0  0  0  0  0  0  0  0  0  0  0  0
   27.6278  -21.3696   -9.8713 C   0  0  0  0  0  0  0  0  0  0  0  0
   28.7751  -21.6754   -9.1466 C   0  0  0  0  0  0  0  0  0  0  0  0
   29.0720  -21.0070   -7.9747 C   0  0  0  0  0  0  0  0  0  0  0  0
   28.1971  -20.0390   -7.5594 C   0  0  0  0  0  0  0  0  0  0  0  0
   27.0661  -19.7414   -8.2787 C   0  0  0  0  0  0  0  0  0  0  0  0
   24.2768  -20.5549  -12.3313 C   0  0  0  0  0  0  0  0  0  0  0  0
   24.1175  -19.4765  -12.9518 O   0  0  0  0  0  0  0  0  0  0  0  0
   23.2135  -21.4980  -12.4194 N   0  0  0  0  0  0  0  0  0  0  0  0
   21.9877  -21.2554  -13.1590 C   0  0  1  0  0  0  0  0  0  0  0  0
   21.8265  -22.4322  -14.1069 C   0  0  0  0  0  0  0  0  0  0  0  0
   20.6306  -22.3341  -14.9513 C   0  0  0  0  0  0  0  0  0  0  0  0
   20.4335  -21.6807  -16.1506 C   0  0  0  0  0  0  0  0  0  0  0  0
   19.1622  -21.8836  -16.5377 N   0  0  0  0  0  0  0  0  0  0  0  0
   18.5108  -22.6491  -15.6357 C   0  0  0  0  0  0  0  0  0  0  0  0
   17.2052  -23.1346  -15.5720 C   0  0  0  0  0  0  0  0  0  0  0  0
   16.8097  -23.9177  -14.4945 C   0  0  0  0  0  0  0  0  0  0  0  0
   17.7057  -24.2174  -13.4850 C   0  0  0  0  0  0  0  0  0  0  0  0
   18.9867  -23.7200  -13.5824 C   0  0  0  0  0  0  0  0  0  0  0  0
   19.4191  -22.9365  -14.6398 C   0  0  0  0  0  0  0  0  0  0  0  0
   20.8505  -21.1651  -12.2133 C   0  0  0  0  0  0  0  0  0  0  0  0
   20.9266  -21.7053  -11.0802 O   0  0  0  0  0  0  0  0  0  0  0  0
   19.6845  -20.4999  -12.5266 O   0  0  0  0  0  0  0  0  0  0  0  0
  2  1  1  6
  2  3  1  0
  4  3  1  0
  5  4  1  0
  6  5  1  0
  7  6  1  0
  8  2  1  0
  9  8  2  0
 10  8  1  0
 11 10  1  0
 12 13  1  0
 11 12  1  1
 13 18  2  0
 14 15  2  0
 14 13  1  0
 15 16  1  0
 16 17  2  0
 18 17  1  0
 19 11  1  0
 19 21  1  0
 20 19  2  0
 22 21  1  0
 22 33  1  0
 22 23  1  6
 24 32  1  0
 24 23  1  0
 25 24  2  0
 26 25  1  0
 26 27  1  0
 27 32  2  0
 28 27  1  0
 28 29  2  0
 29 30  1  0
 30 31  2  0
 32 31  1  0
 33 35  1  0
 34 33  2  0
M  END
$$$$
