KFW.pdb
     RDKit          3D

 35 37  0  0  1  0  0  0  0  0999 V2000
   29.3238  -23.6966  -18.9726 N   0  0  0  0  0  0  0  0  0  0  0  0
   29.4111  -23.9605  -17.5652 C   0  0  1  0  0  0  0  0  0  0  0  0
   30.7711  -24.4099  -17.1113 C   0  0  0  0  0  0  0  0  0  0  0  0
   31.1506  -25.7261  -17.7942 C   0  0  0  0  0  0  0  0  0  0  0  0
   30.1563  -26.7734  -17.3430 C   0  0  0  0  0  0  0  0  0  0  0  0
   30.4431  -28.1221  -17.9635 C   0  0  0  0  0  0  0  0  0  0  0  0
   29.5800  -29.1636  -17.4906 N   0  0  0  0  0  0  0  0  0  0  0  0
   28.9318  -22.8570  -16.7189 C   0  0  0  0  0  0  0  0  0  0  0  0
   29.6650  -22.5145  -15.7515 O   0  0  0  0  0  0  0  0  0  0  0  0
   27.7273  -22.1600  -16.9042 N   0  0  0  0  0  0  0  0  0  0  0  0
   27.2890  -21.0602  -16.0744 C   0  0  1  0  0  0  0  0  0  0  0  0
   26.5200  -20.0177  -16.8446 C   0  0  0  0  0  0  0  0  0  0  0  0
   26.0566  -18.9087  -15.9787 C   0  0  0  0  0  0  0  0  0  0  0  0
   26.8685  -17.8319  -15.6971 C   0  0  0  0  0  0  0  0  0  0  0  0
   26.4438  -16.7854  -14.8851 C   0  0  0  0  0  0  0  0  0  0  0  0
   25.1800  -16.7895  -14.3272 C   0  0  0  0  0  0  0  0  0  0  0  0
   24.3697  -17.8578  -14.6043 C   0  0  0  0  0  0  0  0  0  0  0  0
   24.7942  -18.8881  -15.4065 C   0  0  0  0  0  0  0  0  0  0  0  0
   26.5629  -21.5903  -14.9220 C   0  0  0  0  0  0  0  0  0  0  0  0
   25.7062  -22.4893  -15.0989 O   0  0  0  0  0  0  0  0  0  0  0  0
   26.7555  -21.1559  -13.5796 N   0  0  0  0  0  0  0  0  0  0  0  0
   26.0206  -21.6968  -12.4501 C   0  0  1  0  0  0  0  0  0  0  0  0
   27.0429  -21.9174  -11.3475 C   0  0  0  0  0  0  0  0  0  0  0  0
   26.7637  -21.1376  -10.1365 C   0  0  0  0  0  0  0  0  0  0  0  0
   25.6804  -20.3468   -9.8117 C   0  0  0  0  0  0  0  0  0  0  0  0
   25.8830  -19.8371   -8.5843 N   0  0  0  0  0  0  0  0  0  0  0  0
   27.0635  -20.2633   -8.0854 C   0  0  0  0  0  0  0  0  0  0  0  0
   27.7228  -20.0278   -6.8795 C   0  0  0  0  0  0  0  0  0  0  0  0
   28.9579  -20.6173   -6.6393 C   0  0  0  0  0  0  0  0  0  0  0  0
   29.5358  -21.4367   -7.5913 C   0  0  0  0  0  0  0  0  0  0  0  0
   28.8547  -21.6460   -8.7704 C   0  0  0  0  0  0  0  0  0  0  0  0
   27.6225  -21.0769   -9.0473 C   0  0  0  0  0  0  0  0  0  0  0  0
   24.9771  -20.7311  -12.0323 C   0  0  0  0  0  0  0  0  0  0  0  0
   25.1609  -19.4965  -12.1860 O   0  0  0  0  0  0  0  0  0  0  0  0
   23.7852  -21.1341  -11.4691 O   0  0  0  0  0  0  0  0  0  0  0  0
  2  1  1  6
  2  3  1  0
  4  3  1  0
  5  4  1  0
  6  5  1  0
  7  6  1  0
  8  2  1  0
  9  8  2  0
 10  8  1  0
 11 10  1  0
 12 13  1  0
 11 12  1  6
 13 18  2  0
 14 15  2  0
 14 13  1  0
 15 16  1  0
 16 17  2  0
 18 17  1  0
 19 11  1  0
 19 21  1  0
 20 19  2  0
 22 21  1  0
 22 33  1  0
 22 23  1  1
 24 32  1  0
 24 23  1  0
 25 24  2  0
 26 25  1  0
 26 27  1  0
 27 32  2  0
 28 27  1  0
 28 29  2  0
 29 30  1  0
 30 31  2  0
 32 31  1  0
 33 35  1  0
 34 33  2  0
M  END
$$$$
