KFW.pdb
     RDKit          3D

 35 37  0  0  1  0  0  0  0  0999 V2000
   28.0145  -22.7723  -18.0841 N   0  0  0  0  0  0  0  0  0  0  0  0
   27.5858  -21.5771  -17.4163 C   0  0  1  0  0  0  0  0  0  0  0  0
   26.5689  -20.7802  -18.1833 C   0  0  0  0  0  0  0  0  0  0  0  0
   27.0480  -20.5493  -19.6186 C   0  0  0  0  0  0  0  0  0  0  0  0
   28.3887  -19.8522  -19.5417 C   0  0  0  0  0  0  0  0  0  0  0  0
   28.8966  -19.4624  -20.9114 C   0  0  0  0  0  0  0  0  0  0  0  0
   30.2135  -18.8979  -20.8930 N   0  0  0  0  0  0  0  0  0  0  0  0
   27.1252  -21.7953  -16.0365 C   0  0  0  0  0  0  0  0  0  0  0  0
   26.3125  -22.7406  -15.8448 O   0  0  0  0  0  0  0  0  0  0  0  0
   27.5184  -21.0360  -14.9230 N   0  0  0  0  0  0  0  0  0  0  0  0
   26.8495  -21.0665  -13.6417 C   0  0  1  0  0  0  0  0  0  0  0  0
   27.6769  -20.4623  -12.5364 C   0  0  0  0  0  0  0  0  0  0  0  0
   26.9408  -20.4041  -11.2522 C   0  0  0  0  0  0  0  0  0  0  0  0
   26.3367  -19.2422  -10.8242 C   0  0  0  0  0  0  0  0  0  0  0  0
   25.6433  -19.1764   -9.6201 C   0  0  0  0  0  0  0  0  0  0  0  0
   25.5352  -20.2852   -8.8033 C   0  0  0  0  0  0  0  0  0  0  0  0
   26.1341  -21.4421   -9.2246 C   0  0  0  0  0  0  0  0  0  0  0  0
   26.8173  -21.5013  -10.4141 C   0  0  0  0  0  0  0  0  0  0  0  0
   25.5256  -20.4624  -13.7786 C   0  0  0  0  0  0  0  0  0  0  0  0
   25.4219  -19.3274  -14.3026 O   0  0  0  0  0  0  0  0  0  0  0  0
   24.3128  -21.0757  -13.3535 N   0  0  0  0  0  0  0  0  0  0  0  0
   23.0162  -20.4273  -13.4363 C   0  0  1  0  0  0  0  0  0  0  0  0
   22.2715  -21.1154  -14.5684 C   0  0  0  0  0  0  0  0  0  0  0  0
   21.8141  -22.4658  -14.2220 C   0  0  0  0  0  0  0  0  0  0  0  0
   20.7218  -22.8792  -13.4870 C   0  0  0  0  0  0  0  0  0  0  0  0
   20.7252  -24.2229  -13.4457 N   0  0  0  0  0  0  0  0  0  0  0  0
   21.7824  -24.7133  -14.1282 C   0  0  0  0  0  0  0  0  0  0  0  0
   22.2283  -26.0102  -14.3805 C   0  0  0  0  0  0  0  0  0  0  0  0
   23.3784  -26.2125  -15.1335 C   0  0  0  0  0  0  0  0  0  0  0  0
   24.0826  -25.1328  -15.6337 C   0  0  0  0  0  0  0  0  0  0  0  0
   23.6116  -23.8666  -15.3638 C   0  0  0  0  0  0  0  0  0  0  0  0
   22.4700  -23.6237  -14.6178 C   0  0  0  0  0  0  0  0  0  0  0  0
   22.3024  -20.5849  -12.1473 C   0  0  0  0  0  0  0  0  0  0  0  0
   22.6779  -21.4539  -11.3194 O   0  0  0  0  0  0  0  0  0  0  0  0
   21.2193  -19.8035  -11.8061 O   0  0  0  0  0  0  0  0  0  0  0  0
  2  1  1  6
  2  3  1  0
  4  3  1  0
  5  4  1  0
  6  5  1  0
  7  6  1  0
  8  2  1  0
  9  8  2  0
 10  8  1  0
 11 10  1  0
 12 13  1  0
 11 12  1  1
 13 18  2  0
 14 15  2  0
 14 13  1  0
 15 16  1  0
 16 17  2  0
 18 17  1  0
 19 11  1  0
 19 21  1  0
 20 19  2  0
 22 21  1  0
 22 33  1  0
 22 23  1  6
 24 32  1  0
 24 23  1  0
 25 24  2  0
 26 25  1  0
 26 27  1  0
 27 32  2  0
 28 27  1  0
 28 29  2  0
 29 30  1  0
 30 31  2  0
 32 31  1  0
 33 35  1  0
 34 33  2  0
M  END
$$$$
