KFW.pdb
     RDKit          3D

 35 37  0  0  1  0  0  0  0  0999 V2000
   49.7721  -20.0402  -12.1166 N   0  0  0  0  0  0  0  0  0  0  0  0
   50.7020  -19.0002  -11.7823 C   0  0  1  0  0  0  0  0  0  0  0  0
   50.8141  -17.9231  -12.8240 C   0  0  0  0  0  0  0  0  0  0  0  0
   52.1214  -18.0747  -13.6057 C   0  0  0  0  0  0  0  0  0  0  0  0
   52.1919  -16.9326  -14.5955 C   0  0  0  0  0  0  0  0  0  0  0  0
   52.1278  -17.4247  -16.0238 C   0  0  0  0  0  0  0  0  0  0  0  0
   52.3359  -16.3909  -16.9940 N   0  0  0  0  0  0  0  0  0  0  0  0
   50.4807  -18.4035  -10.4562 C   0  0  0  0  0  0  0  0  0  0  0  0
   49.2945  -18.3783  -10.0281 O   0  0  0  0  0  0  0  0  0  0  0  0
   51.4829  -17.8627   -9.6352 N   0  0  0  0  0  0  0  0  0  0  0  0
   51.2635  -17.3985   -8.2837 C   0  0  1  0  0  0  0  0  0  0  0  0
   50.7134  -18.4716   -7.3796 C   0  0  0  0  0  0  0  0  0  0  0  0
   50.5596  -18.0036   -5.9825 C   0  0  0  0  0  0  0  0  0  0  0  0
   51.5547  -18.1942   -5.0491 C   0  0  0  0  0  0  0  0  0  0  0  0
   51.4207  -17.7592   -3.7346 C   0  0  0  0  0  0  0  0  0  0  0  0
   50.2732  -17.1143   -3.3153 C   0  0  0  0  0  0  0  0  0  0  0  0
   49.2815  -16.9227   -4.2398 C   0  0  0  0  0  0  0  0  0  0  0  0
   49.4193  -17.3542   -5.5359 C   0  0  0  0  0  0  0  0  0  0  0  0
   52.4919  -16.7848   -7.7832 C   0  0  0  0  0  0  0  0  0  0  0  0
   53.5850  -17.3758   -7.9539 O   0  0  0  0  0  0  0  0  0  0  0  0
   52.5480  -15.5370   -7.0994 N   0  0  0  0  0  0  0  0  0  0  0  0
   53.7860  -14.9254   -6.6500 C   0  0  1  0  0  0  0  0  0  0  0  0
   53.4526  -13.4754   -6.3403 C   0  0  0  0  0  0  0  0  0  0  0  0
   54.6283  -12.6784   -5.9726 C   0  0  0  0  0  0  0  0  0  0  0  0
   55.8185  -12.4785   -6.6419 C   0  0  0  0  0  0  0  0  0  0  0  0
   56.5883  -11.6639   -5.8996 N   0  0  0  0  0  0  0  0  0  0  0  0
   55.9485  -11.3175   -4.7617 C   0  0  0  0  0  0  0  0  0  0  0  0
   56.3057  -10.5107   -3.6819 C   0  0  0  0  0  0  0  0  0  0  0  0
   55.4195  -10.3349   -2.6263 C   0  0  0  0  0  0  0  0  0  0  0  0
   54.1846  -10.9567   -2.6424 C   0  0  0  0  0  0  0  0  0  0  0  0
   53.8670  -11.7459   -3.7259 C   0  0  0  0  0  0  0  0  0  0  0  0
   54.7224  -11.9460   -4.7969 C   0  0  0  0  0  0  0  0  0  0  0  0
   54.2779  -15.6347   -5.4456 C   0  0  0  0  0  0  0  0  0  0  0  0
   53.4889  -16.3291   -4.7550 O   0  0  0  0  0  0  0  0  0  0  0  0
   55.5928  -15.5662   -5.0375 O   0  0  0  0  0  0  0  0  0  0  0  0
  2  1  1  6
  2  3  1  0
  4  3  1  0
  5  4  1  0
  6  5  1  0
  7  6  1  0
  8  2  1  0
  9  8  2  0
 10  8  1  0
 11 10  1  0
 12 13  1  0
 11 12  1  1
 13 18  2  0
 14 15  2  0
 14 13  1  0
 15 16  1  0
 16 17  2  0
 18 17  1  0
 19 11  1  0
 19 21  1  0
 20 19  2  0
 22 21  1  0
 22 33  1  0
 22 23  1  1
 24 32  1  0
 24 23  1  0
 25 24  2  0
 26 25  1  0
 26 27  1  0
 27 32  2  0
 28 27  1  0
 28 29  2  0
 29 30  1  0
 30 31  2  0
 32 31  1  0
 33 35  1  0
 34 33  2  0
M  END
$$$$
