KFW.pdb
     RDKit          3D

 35 37  0  0  1  0  0  0  0  0999 V2000
   29.3366  -20.6364  -18.8693 N   0  0  0  0  0  0  0  0  0  0  0  0
   28.9445  -21.5458  -17.8314 C   0  0  1  0  0  0  0  0  0  0  0  0
   29.9390  -22.6417  -17.5717 C   0  0  0  0  0  0  0  0  0  0  0  0
   29.7755  -23.7620  -18.6018 C   0  0  0  0  0  0  0  0  0  0  0  0
   31.0835  -23.8809  -19.3528 C   0  0  0  0  0  0  0  0  0  0  0  0
   31.0242  -24.9563  -20.4140 C   0  0  0  0  0  0  0  0  0  0  0  0
   30.6437  -24.4644  -21.7050 N   0  0  0  0  0  0  0  0  0  0  0  0
   28.5715  -20.8883  -16.5695 C   0  0  0  0  0  0  0  0  0  0  0  0
   29.4871  -20.2915  -15.9401 O   0  0  0  0  0  0  0  0  0  0  0  0
   27.2817  -20.8746  -16.0151 N   0  0  0  0  0  0  0  0  0  0  0  0
   26.9101  -20.1173  -14.8410 C   0  0  1  0  0  0  0  0  0  0  0  0
   26.0061  -18.9539  -15.1584 C   0  0  0  0  0  0  0  0  0  0  0  0
   26.7431  -17.8188  -15.7608 C   0  0  0  0  0  0  0  0  0  0  0  0
   27.3303  -16.8491  -14.9780 C   0  0  0  0  0  0  0  0  0  0  0  0
   28.0243  -15.7790  -15.5332 C   0  0  0  0  0  0  0  0  0  0  0  0
   28.1501  -15.6502  -16.9028 C   0  0  0  0  0  0  0  0  0  0  0  0
   27.5680  -16.6117  -17.6848 C   0  0  0  0  0  0  0  0  0  0  0  0
   26.8841  -17.6658  -17.1313 C   0  0  0  0  0  0  0  0  0  0  0  0
   26.3614  -21.0280  -13.8381 C   0  0  0  0  0  0  0  0  0  0  0  0
   25.6067  -21.9601  -14.2055 O   0  0  0  0  0  0  0  0  0  0  0  0
   26.6222  -20.9389  -12.4411 N   0  0  0  0  0  0  0  0  0  0  0  0
   26.0971  -21.8794  -11.4673 C   0  0  1  0  0  0  0  0  0  0  0  0
   27.0915  -21.8970  -10.3182 C   0  0  0  0  0  0  0  0  0  0  0  0
   26.8691  -20.8213   -9.3455 C   0  0  0  0  0  0  0  0  0  0  0  0
   25.7726  -20.0074   -9.1469 C   0  0  0  0  0  0  0  0  0  0  0  0
   26.0466  -19.1707   -8.1310 N   0  0  0  0  0  0  0  0  0  0  0  0
   27.2871  -19.4028   -7.6501 C   0  0  0  0  0  0  0  0  0  0  0  0
   28.0296  -18.8203   -6.6235 C   0  0  0  0  0  0  0  0  0  0  0  0
   29.3125  -19.2792   -6.3508 C   0  0  0  0  0  0  0  0  0  0  0  0
   29.8558  -20.3113   -7.0935 C   0  0  0  0  0  0  0  0  0  0  0  0
   29.0923  -20.8618   -8.0994 C   0  0  0  0  0  0  0  0  0  0  0  0
   27.8105  -20.4326   -8.4019 C   0  0  0  0  0  0  0  0  0  0  0  0
   24.7599  -21.4276  -11.0161 C   0  0  0  0  0  0  0  0  0  0  0  0
   24.4037  -20.2343  -11.1920 O   0  0  0  0  0  0  0  0  0  0  0  0
   23.8670  -22.2761  -10.3973 O   0  0  0  0  0  0  0  0  0  0  0  0
  2  1  1  6
  2  3  1  0
  4  3  1  0
  5  4  1  0
  6  5  1  0
  7  6  1  0
  8  2  1  0
  9  8  2  0
 10  8  1  0
 11 10  1  0
 12 13  1  0
 11 12  1  6
 13 18  2  0
 14 15  2  0
 14 13  1  0
 15 16  1  0
 16 17  2  0
 18 17  1  0
 19 11  1  0
 19 21  1  0
 20 19  2  0
 22 21  1  0
 22 33  1  0
 22 23  1  1
 24 32  1  0
 24 23  1  0
 25 24  2  0
 26 25  1  0
 26 27  1  0
 27 32  2  0
 28 27  1  0
 28 29  2  0
 29 30  1  0
 30 31  2  0
 32 31  1  0
 33 35  1  0
 34 33  2  0
M  END
$$$$
