KFW.pdb
     RDKit          3D

 35 37  0  0  1  0  0  0  0  0999 V2000
   28.1132  -21.0426  -16.2747 N   0  0  0  0  0  0  0  0  0  0  0  0
   26.9516  -20.3090  -15.8618 C   0  0  1  0  0  0  0  0  0  0  0  0
   25.9609  -20.0629  -16.9643 C   0  0  0  0  0  0  0  0  0  0  0  0
   26.6527  -19.4107  -18.1638 C   0  0  0  0  0  0  0  0  0  0  0  0
   25.5698  -18.9328  -19.1062 C   0  0  0  0  0  0  0  0  0  0  0  0
   26.1458  -18.1904  -20.2908 C   0  0  0  0  0  0  0  0  0  0  0  0
   25.1693  -17.8545  -21.2842 N   0  0  0  0  0  0  0  0  0  0  0  0
   26.2732  -20.8753  -14.6859 C   0  0  0  0  0  0  0  0  0  0  0  0
   26.0543  -22.1175  -14.6916 O   0  0  0  0  0  0  0  0  0  0  0  0
   25.8527  -20.1433  -13.5641 N   0  0  0  0  0  0  0  0  0  0  0  0
   25.2731  -20.7342  -12.3788 C   0  0  1  0  0  0  0  0  0  0  0  0
   26.0016  -20.3475  -11.1174 C   0  0  0  0  0  0  0  0  0  0  0  0
   27.4624  -20.5700  -11.2225 C   0  0  0  0  0  0  0  0  0  0  0  0
   28.0974  -21.5306  -10.4662 C   0  0  0  0  0  0  0  0  0  0  0  0
   29.4684  -21.7477  -10.5568 C   0  0  0  0  0  0  0  0  0  0  0  0
   30.2488  -21.0000  -11.4171 C   0  0  0  0  0  0  0  0  0  0  0  0
   29.6219  -20.0441  -12.1708 C   0  0  0  0  0  0  0  0  0  0  0  0
   28.2682  -19.8341  -12.0773 C   0  0  0  0  0  0  0  0  0  0  0  0
   23.8433  -20.4332  -12.3444 C   0  0  0  0  0  0  0  0  0  0  0  0
   23.4592  -19.3408  -11.8622 O   0  0  0  0  0  0  0  0  0  0  0  0
   22.8253  -21.3041  -12.8271 N   0  0  0  0  0  0  0  0  0  0  0  0
   21.4223  -20.9358  -12.8937 C   0  0  1  0  0  0  0  0  0  0  0  0
   21.3478  -19.7181  -13.7999 C   0  0  0  0  0  0  0  0  0  0  0  0
   21.8774  -19.9664  -15.1455 C   0  0  0  0  0  0  0  0  0  0  0  0
   21.9515  -21.1347  -15.8762 C   0  0  0  0  0  0  0  0  0  0  0  0
   22.5205  -20.8555  -17.0618 N   0  0  0  0  0  0  0  0  0  0  0  0
   22.8257  -19.5423  -17.1410 C   0  0  0  0  0  0  0  0  0  0  0  0
   23.4160  -18.7652  -18.1371 C   0  0  0  0  0  0  0  0  0  0  0  0
   23.6081  -17.4046  -17.9308 C   0  0  0  0  0  0  0  0  0  0  0  0
   23.2162  -16.8181  -16.7416 C   0  0  0  0  0  0  0  0  0  0  0  0
   22.6366  -17.6177  -15.7811 C   0  0  0  0  0  0  0  0  0  0  0  0
   22.4281  -18.9768  -15.9487 C   0  0  0  0  0  0  0  0  0  0  0  0
   20.6408  -22.0673  -13.4458 C   0  0  0  0  0  0  0  0  0  0  0  0
   21.2313  -23.0755  -13.9111 O   0  0  0  0  0  0  0  0  0  0  0  0
   19.2626  -22.0652  -13.4733 O   0  0  0  0  0  0  0  0  0  0  0  0
  2  1  1  6
  2  3  1  0
  4  3  1  0
  5  4  1  0
  6  5  1  0
  7  6  1  0
  8  2  1  0
  9  8  2  0
 10  8  1  0
 11 10  1  0
 12 13  1  0
 11 12  1  1
 13 18  2  0
 14 15  2  0
 14 13  1  0
 15 16  1  0
 16 17  2  0
 18 17  1  0
 19 11  1  0
 19 21  1  0
 20 19  2  0
 22 21  1  0
 22 33  1  0
 22 23  1  6
 24 32  1  0
 24 23  1  0
 25 24  2  0
 26 25  1  0
 26 27  1  0
 27 32  2  0
 28 27  1  0
 28 29  2  0
 29 30  1  0
 30 31  2  0
 32 31  1  0
 33 35  1  0
 34 33  2  0
M  END
$$$$
