KFW.pdb
     RDKit          3D

 35 37  0  0  1  0  0  0  0  0999 V2000
   28.4070  -22.0008  -13.9218 N   0  0  0  0  0  0  0  0  0  0  0  0
   28.5584  -20.8844  -13.0337 C   0  0  1  0  0  0  0  0  0  0  0  0
   27.8736  -19.6324  -13.5041 C   0  0  0  0  0  0  0  0  0  0  0  0
   28.6769  -18.9797  -14.6317 C   0  0  0  0  0  0  0  0  0  0  0  0
   28.3147  -19.6919  -15.9165 C   0  0  0  0  0  0  0  0  0  0  0  0
   29.0354  -19.1008  -17.1070 C   0  0  0  0  0  0  0  0  0  0  0  0
   28.6512  -19.6876  -18.3565 N   0  0  0  0  0  0  0  0  0  0  0  0
   28.1868  -21.1740  -11.6402 C   0  0  0  0  0  0  0  0  0  0  0  0
   27.2007  -21.9383  -11.4555 O   0  0  0  0  0  0  0  0  0  0  0  0
   28.8420  -20.6674  -10.5065 N   0  0  0  0  0  0  0  0  0  0  0  0
   28.3580  -20.8196   -9.1527 C   0  0  1  0  0  0  0  0  0  0  0  0
   29.3130  -20.2678   -8.1256 C   0  0  0  0  0  0  0  0  0  0  0  0
   28.7097  -20.2073   -6.7740 C   0  0  0  0  0  0  0  0  0  0  0  0
   28.0341  -19.0878   -6.3401 C   0  0  0  0  0  0  0  0  0  0  0  0
   27.4640  -19.0200   -5.0731 C   0  0  0  0  0  0  0  0  0  0  0  0
   27.5565  -20.0840   -4.1968 C   0  0  0  0  0  0  0  0  0  0  0  0
   28.2271  -21.1987   -4.6238 C   0  0  0  0  0  0  0  0  0  0  0  0
   28.7879  -21.2600   -5.8756 C   0  0  0  0  0  0  0  0  0  0  0  0
   27.0113  -20.2591   -9.0602 C   0  0  0  0  0  0  0  0  0  0  0  0
   26.8090  -19.0846   -9.4515 O   0  0  0  0  0  0  0  0  0  0  0  0
   25.8816  -20.9583   -8.5478 N   0  0  0  0  0  0  0  0  0  0  0  0
   24.5158  -20.4866   -8.6913 C   0  0  1  0  0  0  0  0  0  0  0  0
   24.2523  -20.4037  -10.1857 C   0  0  0  0  0  0  0  0  0  0  0  0
   22.8654  -20.0506  -10.5089 C   0  0  0  0  0  0  0  0  0  0  0  0
   21.7780  -19.8490   -9.6836 C   0  0  0  0  0  0  0  0  0  0  0  0
   20.7173  -19.5424  -10.4505 N   0  0  0  0  0  0  0  0  0  0  0  0
   21.0652  -19.5341  -11.7554 C   0  0  0  0  0  0  0  0  0  0  0  0
   20.3494  -19.2817  -12.9252 C   0  0  0  0  0  0  0  0  0  0  0  0
   20.9898  -19.3485  -14.1565 C   0  0  0  0  0  0  0  0  0  0  0  0
   22.3341  -19.6643  -14.2265 C   0  0  0  0  0  0  0  0  0  0  0  0
   23.0081  -19.9071  -13.0498 C   0  0  0  0  0  0  0  0  0  0  0  0
   22.4058  -19.8504  -11.8037 C   0  0  0  0  0  0  0  0  0  0  0  0
   23.5925  -21.4407   -8.0332 C   0  0  0  0  0  0  0  0  0  0  0  0
   23.9568  -22.6247   -7.8161 O   0  0  0  0  0  0  0  0  0  0  0  0
   22.3216  -21.0811   -7.6387 O   0  0  0  0  0  0  0  0  0  0  0  0
  2  1  1  6
  2  3  1  0
  4  3  1  0
  5  4  1  0
  6  5  1  0
  7  6  1  0
  8  2  1  0
  9  8  2  0
 10  8  1  0
 11 10  1  0
 12 13  1  0
 11 12  1  1
 13 18  2  0
 14 15  2  0
 14 13  1  0
 15 16  1  0
 16 17  2  0
 18 17  1  0
 19 11  1  0
 19 21  1  0
 20 19  2  0
 22 21  1  0
 22 33  1  0
 22 23  1  6
 24 32  1  0
 24 23  1  0
 25 24  2  0
 26 25  1  0
 26 27  1  0
 27 32  2  0
 28 27  1  0
 28 29  2  0
 29 30  1  0
 30 31  2  0
 32 31  1  0
 33 35  1  0
 34 33  2  0
M  END
$$$$
