KFW.pdb
     RDKit          3D

 35 37  0  0  1  0  0  0  0  0999 V2000
   28.0020  -19.9929  -15.0289 N   0  0  0  0  0  0  0  0  0  0  0  0
   27.3445  -21.2674  -14.9898 C   0  0  1  0  0  0  0  0  0  0  0  0
   28.2397  -22.4269  -15.3241 C   0  0  0  0  0  0  0  0  0  0  0  0
   28.9790  -22.1651  -16.6385 C   0  0  0  0  0  0  0  0  0  0  0  0
   28.1116  -22.6952  -17.7591 C   0  0  0  0  0  0  0  0  0  0  0  0
   28.7612  -22.4997  -19.1105 C   0  0  0  0  0  0  0  0  0  0  0  0
   27.9643  -22.9769  -20.2016 N   0  0  0  0  0  0  0  0  0  0  0  0
   26.6208  -21.5289  -13.7363 C   0  0  0  0  0  0  0  0  0  0  0  0
   26.2937  -22.7240  -13.5002 O   0  0  0  0  0  0  0  0  0  0  0  0
   26.2680  -20.5557  -12.7879 N   0  0  0  0  0  0  0  0  0  0  0  0
   25.2013  -20.7095  -11.8241 C   0  0  1  0  0  0  0  0  0  0  0  0
   25.3905  -19.8491  -10.6013 C   0  0  0  0  0  0  0  0  0  0  0  0
   26.5549  -20.2748   -9.7905 C   0  0  0  0  0  0  0  0  0  0  0  0
   26.5610  -20.1411   -8.4193 C   0  0  0  0  0  0  0  0  0  0  0  0
   27.6490  -20.5373   -7.6484 C   0  0  0  0  0  0  0  0  0  0  0  0
   28.7727  -21.0842   -8.2370 C   0  0  0  0  0  0  0  0  0  0  0  0
   28.7710  -21.2190   -9.5996 C   0  0  0  0  0  0  0  0  0  0  0  0
   27.6943  -20.8262  -10.3555 C   0  0  0  0  0  0  0  0  0  0  0  0
   23.9185  -20.5015  -12.4930 C   0  0  0  0  0  0  0  0  0  0  0  0
   23.8082  -19.5746  -13.3308 O   0  0  0  0  0  0  0  0  0  0  0  0
   22.7538  -21.2879  -12.2632 N   0  0  0  0  0  0  0  0  0  0  0  0
   21.5075  -21.1023  -12.9849 C   0  0  1  0  0  0  0  0  0  0  0  0
   21.8113  -21.4172  -14.4403 C   0  0  0  0  0  0  0  0  0  0  0  0
   22.0367  -22.8458  -14.6871 C   0  0  0  0  0  0  0  0  0  0  0  0
   21.1704  -23.9164  -14.5990 C   0  0  0  0  0  0  0  0  0  0  0  0
   21.8450  -25.0329  -14.9239 N   0  0  0  0  0  0  0  0  0  0  0  0
   23.1284  -24.7382  -15.2242 C   0  0  0  0  0  0  0  0  0  0  0  0
   24.2142  -25.5216  -15.6137 C   0  0  0  0  0  0  0  0  0  0  0  0
   25.4448  -24.9253  -15.8602 C   0  0  0  0  0  0  0  0  0  0  0  0
   25.5970  -23.5581  -15.7208 C   0  0  0  0  0  0  0  0  0  0  0  0
   24.5019  -22.8171  -15.3343 C   0  0  0  0  0  0  0  0  0  0  0  0
   23.2593  -23.3738  -15.0795 C   0  0  0  0  0  0  0  0  0  0  0  0
   20.4795  -22.0188  -12.4382 C   0  0  0  0  0  0  0  0  0  0  0  0
   19.2909  -21.9488  -12.8434 O   0  0  0  0  0  0  0  0  0  0  0  0
   20.7735  -22.9677  -11.4825 O   0  0  0  0  0  0  0  0  0  0  0  0
  2  1  1  1
  2  3  1  0
  4  3  1  0
  5  4  1  0
  6  5  1  0
  7  6  1  0
  8  2  1  0
  9  8  2  0
 10  8  1  0
 11 10  1  0
 12 13  1  0
 11 12  1  1
 13 18  2  0
 14 15  2  0
 14 13  1  0
 15 16  1  0
 16 17  2  0
 18 17  1  0
 19 11  1  0
 19 21  1  0
 20 19  2  0
 22 21  1  0
 22 33  1  0
 22 23  1  6
 24 32  1  0
 24 23  1  0
 25 24  2  0
 26 25  1  0
 26 27  1  0
 27 32  2  0
 28 27  1  0
 28 29  2  0
 29 30  1  0
 30 31  2  0
 32 31  1  0
 33 35  1  0
 34 33  2  0
M  END
$$$$
