KFW.pdb
     RDKit          3D

 35 37  0  0  1  0  0  0  0  0999 V2000
   25.8273  -22.8467  -18.0408 N   0  0  0  0  0  0  0  0  0  0  0  0
   25.1239  -22.9195  -16.7926 C   0  0  1  0  0  0  0  0  0  0  0  0
   24.3334  -24.1842  -16.6099 C   0  0  0  0  0  0  0  0  0  0  0  0
   23.2796  -24.3155  -17.7122 C   0  0  0  0  0  0  0  0  0  0  0  0
   21.9584  -24.6213  -17.0413 C   0  0  0  0  0  0  0  0  0  0  0  0
   20.7850  -24.2269  -17.9094 C   0  0  0  0  0  0  0  0  0  0  0  0
   19.5140  -24.4382  -17.2823 N   0  0  0  0  0  0  0  0  0  0  0  0
   25.9694  -22.6740  -15.6143 C   0  0  0  0  0  0  0  0  0  0  0  0
   26.5856  -23.6636  -15.1329 O   0  0  0  0  0  0  0  0  0  0  0  0
   26.1420  -21.4294  -14.9878 N   0  0  0  0  0  0  0  0  0  0  0  0
   26.9549  -21.2179  -13.8112 C   0  0  1  0  0  0  0  0  0  0  0  0
   27.8187  -19.9869  -13.9117 C   0  0  0  0  0  0  0  0  0  0  0  0
   28.6171  -19.7601  -12.6847 C   0  0  0  0  0  0  0  0  0  0  0  0
   28.2846  -18.7703  -11.7860 C   0  0  0  0  0  0  0  0  0  0  0  0
   29.0274  -18.5484  -10.6310 C   0  0  0  0  0  0  0  0  0  0  0  0
   30.1355  -19.3209  -10.3420 C   0  0  0  0  0  0  0  0  0  0  0  0
   30.4697  -20.3060  -11.2324 C   0  0  0  0  0  0  0  0  0  0  0  0
   29.7329  -20.5204  -12.3709 C   0  0  0  0  0  0  0  0  0  0  0  0
   26.0975  -21.2359  -12.6277 C   0  0  0  0  0  0  0  0  0  0  0  0
   24.9490  -20.7363  -12.6962 O   0  0  0  0  0  0  0  0  0  0  0  0
   26.4720  -21.7899  -11.3705 N   0  0  0  0  0  0  0  0  0  0  0  0
   25.6329  -21.7285  -10.1869 C   0  0  1  0  0  0  0  0  0  0  0  0
   26.5656  -21.8956   -8.9988 C   0  0  0  0  0  0  0  0  0  0  0  0
   26.7955  -20.6462   -8.2648 C   0  0  0  0  0  0  0  0  0  0  0  0
   26.2032  -19.4072   -8.4001 C   0  0  0  0  0  0  0  0  0  0  0  0
   26.7509  -18.5767   -7.4961 N   0  0  0  0  0  0  0  0  0  0  0  0
   27.6858  -19.2233   -6.7668 C   0  0  0  0  0  0  0  0  0  0  0  0
   28.5226  -18.8197   -5.7270 C   0  0  0  0  0  0  0  0  0  0  0  0
   29.4053  -19.7284   -5.1563 C   0  0  0  0  0  0  0  0  0  0  0  0
   29.4571  -21.0316   -5.6155 C   0  0  0  0  0  0  0  0  0  0  0  0
   28.6153  -21.3936   -6.6441 C   0  0  0  0  0  0  0  0  0  0  0  0
   27.7220  -20.5177   -7.2388 C   0  0  0  0  0  0  0  0  0  0  0  0
   24.9344  -20.4223  -10.1445 C   0  0  0  0  0  0  0  0  0  0  0  0
   23.8014  -20.3289   -9.6066 O   0  0  0  0  0  0  0  0  0  0  0  0
   25.4831  -19.2771  -10.6807 O   0  0  0  0  0  0  0  0  0  0  0  0
  2  1  1  6
  2  3  1  0
  4  3  1  0
  5  4  1  0
  6  5  1  0
  7  6  1  0
  8  2  1  0
  9  8  2  0
 10  8  1  0
 11 10  1  0
 12 13  1  0
 11 12  1  6
 13 18  2  0
 14 15  2  0
 14 13  1  0
 15 16  1  0
 16 17  2  0
 18 17  1  0
 19 11  1  0
 19 21  1  0
 20 19  2  0
 22 21  1  0
 22 33  1  0
 22 23  1  1
 24 32  1  0
 24 23  1  0
 25 24  2  0
 26 25  1  0
 26 27  1  0
 27 32  2  0
 28 27  1  0
 28 29  2  0
 29 30  1  0
 30 31  2  0
 32 31  1  0
 33 35  1  0
 34 33  2  0
M  END
$$$$
