KFW.pdb
     RDKit          3D

 35 37  0  0  1  0  0  0  0  0999 V2000
   28.1085  -22.7240  -18.6493 N   0  0  0  0  0  0  0  0  0  0  0  0
   27.7183  -23.5298  -17.5283 C   0  0  1  0  0  0  0  0  0  0  0  0
   28.5418  -24.7746  -17.3549 C   0  0  0  0  0  0  0  0  0  0  0  0
   27.8259  -25.9757  -17.9775 C   0  0  0  0  0  0  0  0  0  0  0  0
   26.4870  -26.1129  -17.2863 C   0  0  0  0  0  0  0  0  0  0  0  0
   25.7435  -27.3468  -17.7456 C   0  0  0  0  0  0  0  0  0  0  0  0
   26.3466  -28.5719  -17.3109 N   0  0  0  0  0  0  0  0  0  0  0  0
   27.6405  -22.7909  -16.2588 C   0  0  0  0  0  0  0  0  0  0  0  0
   28.3709  -23.1948  -15.3132 O   0  0  0  0  0  0  0  0  0  0  0  0
   26.8198  -21.6770  -16.0203 N   0  0  0  0  0  0  0  0  0  0  0  0
   26.7677  -20.9599  -14.7661 C   0  0  1  0  0  0  0  0  0  0  0  0
   27.0061  -19.4807  -14.9287 C   0  0  0  0  0  0  0  0  0  0  0  0
   28.3437  -19.0711  -14.4411 C   0  0  0  0  0  0  0  0  0  0  0  0
   29.4616  -19.1800  -15.2388 C   0  0  0  0  0  0  0  0  0  0  0  0
   30.7222  -18.7986  -14.7910 C   0  0  0  0  0  0  0  0  0  0  0  0
   30.8987  -18.2924  -13.5179 C   0  0  0  0  0  0  0  0  0  0  0  0
   29.7902  -18.1824  -12.7216 C   0  0  0  0  0  0  0  0  0  0  0  0
   28.5483  -18.5604  -13.1688 C   0  0  0  0  0  0  0  0  0  0  0  0
   25.5149  -21.2791  -14.0842 C   0  0  0  0  0  0  0  0  0  0  0  0
   24.5080  -21.5867  -14.7660 O   0  0  0  0  0  0  0  0  0  0  0  0
   25.3421  -21.2683  -12.6707 N   0  0  0  0  0  0  0  0  0  0  0  0
   24.2156  -21.8895  -11.9973 C   0  0  1  0  0  0  0  0  0  0  0  0
   24.7353  -22.3562  -10.6477 C   0  0  0  0  0  0  0  0  0  0  0  0
   25.1971  -21.2554   -9.7946 C   0  0  0  0  0  0  0  0  0  0  0  0
   24.4855  -20.2652   -9.1486 C   0  0  0  0  0  0  0  0  0  0  0  0
   25.3559  -19.4848   -8.4848 N   0  0  0  0  0  0  0  0  0  0  0  0
   26.6195  -19.9245   -8.6692 C   0  0  0  0  0  0  0  0  0  0  0  0
   27.8560  -19.4747   -8.2075 C   0  0  0  0  0  0  0  0  0  0  0  0
   29.0168  -20.1457   -8.5721 C   0  0  0  0  0  0  0  0  0  0  0  0
   28.9506  -21.2577   -9.3912 C   0  0  0  0  0  0  0  0  0  0  0  0
   27.7114  -21.6723   -9.8275 C   0  0  0  0  0  0  0  0  0  0  0  0
   26.5320  -21.0309   -9.4864 C   0  0  0  0  0  0  0  0  0  0  0  0
   23.1256  -20.8977  -11.8418 C   0  0  0  0  0  0  0  0  0  0  0  0
   22.0040  -21.2557  -11.3997 O   0  0  0  0  0  0  0  0  0  0  0  0
   23.2890  -19.5682  -12.1674 O   0  0  0  0  0  0  0  0  0  0  0  0
  2  1  1  6
  2  3  1  0
  4  3  1  0
  5  4  1  0
  6  5  1  0
  7  6  1  0
  8  2  1  0
  9  8  2  0
 10  8  1  0
 11 10  1  0
 12 13  1  0
 11 12  1  6
 13 18  2  0
 14 15  2  0
 14 13  1  0
 15 16  1  0
 16 17  2  0
 18 17  1  0
 19 11  1  0
 19 21  1  0
 20 19  2  0
 22 21  1  0
 22 33  1  0
 22 23  1  1
 24 32  1  0
 24 23  1  0
 25 24  2  0
 26 25  1  0
 26 27  1  0
 27 32  2  0
 28 27  1  0
 28 29  2  0
 29 30  1  0
 30 31  2  0
 32 31  1  0
 33 35  1  0
 34 33  2  0
M  END
$$$$
