KFW.pdb
     RDKit          3D

 35 37  0  0  1  0  0  0  0  0999 V2000
   21.6334  -13.4131  -16.5265 N   0  0  0  0  0  0  0  0  0  0  0  0
   21.3022  -12.1725  -17.1663 C   0  0  1  0  0  0  0  0  0  0  0  0
   20.2027  -12.2846  -18.1842 C   0  0  0  0  0  0  0  0  0  0  0  0
   20.3551  -13.5770  -18.9900 C   0  0  0  0  0  0  0  0  0  0  0  0
   20.9284  -13.2041  -20.3396 C   0  0  0  0  0  0  0  0  0  0  0  0
   21.0489  -14.4065  -21.2485 C   0  0  0  0  0  0  0  0  0  0  0  0
   22.3845  -14.9159  -21.3478 N   0  0  0  0  0  0  0  0  0  0  0  0
   21.0181  -11.0740  -16.2302 C   0  0  0  0  0  0  0  0  0  0  0  0
   20.1301  -11.2775  -15.3580 O   0  0  0  0  0  0  0  0  0  0  0  0
   21.6560   -9.8233  -16.2334 N   0  0  0  0  0  0  0  0  0  0  0  0
   21.3696   -8.7628  -15.2934 C   0  0  1  0  0  0  0  0  0  0  0  0
   22.4569   -8.5845  -14.2651 C   0  0  0  0  0  0  0  0  0  0  0  0
   23.7762   -9.0432  -14.7582 C   0  0  0  0  0  0  0  0  0  0  0  0
   24.3656  -10.1885  -14.2694 C   0  0  0  0  0  0  0  0  0  0  0  0
   25.6041  -10.6282  -14.7251 C   0  0  0  0  0  0  0  0  0  0  0  0
   26.2932   -9.9244  -15.6937 C   0  0  0  0  0  0  0  0  0  0  0  0
   25.7113   -8.7855  -16.1824 C   0  0  0  0  0  0  0  0  0  0  0  0
   24.4885   -8.3562  -15.7289 C   0  0  0  0  0  0  0  0  0  0  0  0
   21.0565   -7.5408  -16.0317 C   0  0  0  0  0  0  0  0  0  0  0  0
   21.7285   -7.2521  -17.0507 O   0  0  0  0  0  0  0  0  0  0  0  0
   20.0225   -6.6283  -15.6768 N   0  0  0  0  0  0  0  0  0  0  0  0
   19.7252   -5.4232  -16.4303 C   0  0  1  0  0  0  0  0  0  0  0  0
   18.2153   -5.3930  -16.6000 C   0  0  0  0  0  0  0  0  0  0  0  0
   17.7320   -6.3130  -17.6357 C   0  0  0  0  0  0  0  0  0  0  0  0
   18.4282   -7.1424  -18.4910 C   0  0  0  0  0  0  0  0  0  0  0  0
   17.5406   -7.7944  -19.2620 N   0  0  0  0  0  0  0  0  0  0  0  0
   16.2805   -7.4249  -18.9464 C   0  0  0  0  0  0  0  0  0  0  0  0
   15.0315   -7.7995  -19.4405 C   0  0  0  0  0  0  0  0  0  0  0  0
   13.8787   -7.2364  -18.9069 C   0  0  0  0  0  0  0  0  0  0  0  0
   13.9652   -6.3060  -17.8877 C   0  0  0  0  0  0  0  0  0  0  0  0
   15.2163   -5.9609  -17.4255 C   0  0  0  0  0  0  0  0  0  0  0  0
   16.3882   -6.4993  -17.9310 C   0  0  0  0  0  0  0  0  0  0  0  0
   20.2070   -4.2401  -15.6793 C   0  0  0  0  0  0  0  0  0  0  0  0
   20.8192   -4.3891  -14.5908 O   0  0  0  0  0  0  0  0  0  0  0  0
   20.0101   -2.9525  -16.1301 O   0  0  0  0  0  0  0  0  0  0  0  0
  2  1  1  1
  2  3  1  0
  4  3  1  0
  5  4  1  0
  6  5  1  0
  7  6  1  0
  8  2  1  0
  9  8  2  0
 10  8  1  0
 11 10  1  0
 12 13  1  0
 11 12  1  1
 13 18  2  0
 14 15  2  0
 14 13  1  0
 15 16  1  0
 16 17  2  0
 18 17  1  0
 19 11  1  0
 19 21  1  0
 20 19  2  0
 22 21  1  0
 22 33  1  0
 22 23  1  1
 24 32  1  0
 24 23  1  0
 25 24  2  0
 26 25  1  0
 26 27  1  0
 27 32  2  0
 28 27  1  0
 28 29  2  0
 29 30  1  0
 30 31  2  0
 32 31  1  0
 33 35  1  0
 34 33  2  0
M  END
$$$$
