KFW.pdb
     RDKit          3D

 35 37  0  0  1  0  0  0  0  0999 V2000
   24.1564  -19.2250  -17.2833 N   0  0  0  0  0  0  0  0  0  0  0  0
   24.7111  -20.4916  -17.6658 C   0  0  1  0  0  0  0  0  0  0  0  0
   25.7462  -20.4023  -18.7512 C   0  0  0  0  0  0  0  0  0  0  0  0
   25.1194  -19.8631  -20.0393 C   0  0  0  0  0  0  0  0  0  0  0  0
   24.0878  -20.8707  -20.4972 C   0  0  0  0  0  0  0  0  0  0  0  0
   23.4439  -20.4595  -21.8020 C   0  0  0  0  0  0  0  0  0  0  0  0
   22.4195  -21.3597  -22.2420 N   0  0  0  0  0  0  0  0  0  0  0  0
   25.2240  -21.2849  -16.5383 C   0  0  0  0  0  0  0  0  0  0  0  0
   25.7672  -22.3895  -16.8131 O   0  0  0  0  0  0  0  0  0  0  0  0
   25.1555  -20.9089  -15.1874 N   0  0  0  0  0  0  0  0  0  0  0  0
   25.6901  -21.6940  -14.0974 C   0  0  1  0  0  0  0  0  0  0  0  0
   26.5659  -20.8888  -13.1722 C   0  0  0  0  0  0  0  0  0  0  0  0
   27.0879  -19.6628  -13.8195 C   0  0  0  0  0  0  0  0  0  0  0  0
   26.5358  -18.4267  -13.5641 C   0  0  0  0  0  0  0  0  0  0  0  0
   27.0179  -17.2693  -14.1666 C   0  0  0  0  0  0  0  0  0  0  0  0
   28.0780  -17.3197  -15.0509 C   0  0  0  0  0  0  0  0  0  0  0  0
   28.6298  -18.5462  -15.3077 C   0  0  0  0  0  0  0  0  0  0  0  0
   28.1498  -19.6854  -14.7102 C   0  0  0  0  0  0  0  0  0  0  0  0
   24.5920  -22.3772  -13.4164 C   0  0  0  0  0  0  0  0  0  0  0  0
   24.8347  -23.4101  -12.7474 O   0  0  0  0  0  0  0  0  0  0  0  0
   23.2333  -21.9524  -13.4530 N   0  0  0  0  0  0  0  0  0  0  0  0
   22.4963  -21.5252  -12.2771 C   0  0  1  0  0  0  0  0  0  0  0  0
   23.3849  -20.5196  -11.5640 C   0  0  0  0  0  0  0  0  0  0  0  0
   23.5068  -20.7754  -10.1244 C   0  0  0  0  0  0  0  0  0  0  0  0
   22.6260  -21.3694   -9.2436 C   0  0  0  0  0  0  0  0  0  0  0  0
   23.1897  -21.3758   -8.0232 N   0  0  0  0  0  0  0  0  0  0  0  0
   24.4136  -20.8063   -8.0658 C   0  0  0  0  0  0  0  0  0  0  0  0
   25.3842  -20.5727   -7.0922 C   0  0  0  0  0  0  0  0  0  0  0  0
   26.5773  -19.9510   -7.4396 C   0  0  0  0  0  0  0  0  0  0  0  0
   26.8060  -19.5631   -8.7469 C   0  0  0  0  0  0  0  0  0  0  0  0
   25.8239  -19.8105   -9.6808 C   0  0  0  0  0  0  0  0  0  0  0  0
   24.6221  -20.4273   -9.3743 C   0  0  0  0  0  0  0  0  0  0  0  0
   21.2141  -20.9108  -12.6946 C   0  0  0  0  0  0  0  0  0  0  0  0
   21.1067  -20.3837  -13.8314 O   0  0  0  0  0  0  0  0  0  0  0  0
   20.1068  -20.8901  -11.8738 O   0  0  0  0  0  0  0  0  0  0  0  0
  2  1  1  1
  2  3  1  0
  4  3  1  0
  5  4  1  0
  6  5  1  0
  7  6  1  0
  8  2  1  0
  9  8  2  0
 10  8  1  0
 11 10  1  0
 12 13  1  0
 11 12  1  1
 13 18  2  0
 14 15  2  0
 14 13  1  0
 15 16  1  0
 16 17  2  0
 18 17  1  0
 19 11  1  0
 19 21  1  0
 20 19  2  0
 22 21  1  0
 22 33  1  0
 22 23  1  6
 24 32  1  0
 24 23  1  0
 25 24  2  0
 26 25  1  0
 26 27  1  0
 27 32  2  0
 28 27  1  0
 28 29  2  0
 29 30  1  0
 30 31  2  0
 32 31  1  0
 33 35  1  0
 34 33  2  0
M  END
$$$$
