KFW.pdb
     RDKit          3D

 35 37  0  0  1  0  0  0  0  0999 V2000
   26.7767  -20.6092  -16.5161 N   0  0  0  0  0  0  0  0  0  0  0  0
   26.9920  -21.9362  -16.0153 C   0  0  1  0  0  0  0  0  0  0  0  0
   28.0579  -22.7002  -16.7486 C   0  0  0  0  0  0  0  0  0  0  0  0
   27.9151  -22.4943  -18.2585 C   0  0  0  0  0  0  0  0  0  0  0  0
   26.8489  -23.4501  -18.7470 C   0  0  0  0  0  0  0  0  0  0  0  0
   26.7225  -23.4257  -20.2535 C   0  0  0  0  0  0  0  0  0  0  0  0
   25.7072  -24.3033  -20.7558 N   0  0  0  0  0  0  0  0  0  0  0  0
   27.2298  -21.9969  -14.5649 C   0  0  0  0  0  0  0  0  0  0  0  0
   27.9817  -22.9179  -14.1440 O   0  0  0  0  0  0  0  0  0  0  0  0
   26.6868  -21.1133  -13.6187 N   0  0  0  0  0  0  0  0  0  0  0  0
   26.8405  -21.2595  -12.1885 C   0  0  1  0  0  0  0  0  0  0  0  0
   27.4922  -20.0622  -11.5458 C   0  0  0  0  0  0  0  0  0  0  0  0
   27.5652  -20.1872  -10.0715 C   0  0  0  0  0  0  0  0  0  0  0  0
   26.5631  -19.7013   -9.2605 C   0  0  0  0  0  0  0  0  0  0  0  0
   26.6215  -19.8131   -7.8752 C   0  0  0  0  0  0  0  0  0  0  0  0
   27.6974  -20.4214   -7.2582 C   0  0  0  0  0  0  0  0  0  0  0  0
   28.6958  -20.9059   -8.0604 C   0  0  0  0  0  0  0  0  0  0  0  0
   28.6328  -20.7927   -9.4273 C   0  0  0  0  0  0  0  0  0  0  0  0
   25.5480  -21.6075  -11.6016 C   0  0  0  0  0  0  0  0  0  0  0  0
   25.3635  -21.4235  -10.3746 O   0  0  0  0  0  0  0  0  0  0  0  0
   24.4533  -22.1531  -12.3307 N   0  0  0  0  0  0  0  0  0  0  0  0
   23.2227  -21.4270  -12.5895 C   0  0  1  0  0  0  0  0  0  0  0  0
   23.6271  -20.1578  -13.3210 C   0  0  0  0  0  0  0  0  0  0  0  0
   22.4848  -19.3116  -13.6842 C   0  0  0  0  0  0  0  0  0  0  0  0
   21.4205  -18.8712  -12.9242 C   0  0  0  0  0  0  0  0  0  0  0  0
   20.6283  -18.1162  -13.7051 N   0  0  0  0  0  0  0  0  0  0  0  0
   21.1317  -18.0418  -14.9561 C   0  0  0  0  0  0  0  0  0  0  0  0
   20.6991  -17.3976  -16.1147 C   0  0  0  0  0  0  0  0  0  0  0  0
   21.4425  -17.5030  -17.2839 C   0  0  0  0  0  0  0  0  0  0  0  0
   22.6095  -18.2442  -17.3031 C   0  0  0  0  0  0  0  0  0  0  0  0
   23.0050  -18.8663  -16.1393 C   0  0  0  0  0  0  0  0  0  0  0  0
   22.2921  -18.7854  -14.9544 C   0  0  0  0  0  0  0  0  0  0  0  0
   22.3215  -22.2626  -13.4175 C   0  0  0  0  0  0  0  0  0  0  0  0
   22.8002  -23.1092  -14.2149 O   0  0  0  0  0  0  0  0  0  0  0  0
   20.9491  -22.1515  -13.3521 O   0  0  0  0  0  0  0  0  0  0  0  0
  2  1  1  6
  2  3  1  0
  4  3  1  0
  5  4  1  0
  6  5  1  0
  7  6  1  0
  8  2  1  0
  9  8  2  0
 10  8  1  0
 11 10  1  0
 12 13  1  0
 11 12  1  1
 13 18  2  0
 14 15  2  0
 14 13  1  0
 15 16  1  0
 16 17  2  0
 18 17  1  0
 19 11  1  0
 19 21  1  0
 20 19  2  0
 22 21  1  0
 22 33  1  0
 22 23  1  6
 24 32  1  0
 24 23  1  0
 25 24  2  0
 26 25  1  0
 26 27  1  0
 27 32  2  0
 28 27  1  0
 28 29  2  0
 29 30  1  0
 30 31  2  0
 32 31  1  0
 33 35  1  0
 34 33  2  0
M  END
$$$$
