KFW.pdb
     RDKit          3D

 35 37  0  0  1  0  0  0  0  0999 V2000
   27.4638  -25.6397  -16.9057 N   0  0  0  0  0  0  0  0  0  0  0  0
   26.1075  -26.0405  -17.1462 C   0  0  1  0  0  0  0  0  0  0  0  0
   25.6204  -27.1277  -16.2306 C   0  0  0  0  0  0  0  0  0  0  0  0
   25.7007  -28.4866  -16.9304 C   0  0  0  0  0  0  0  0  0  0  0  0
   27.1370  -28.6904  -17.3600 C   0  0  0  0  0  0  0  0  0  0  0  0
   27.8244  -29.7517  -16.5309 C   0  0  0  0  0  0  0  0  0  0  0  0
   29.1171  -30.1177  -17.0293 N   0  0  0  0  0  0  0  0  0  0  0  0
   25.1488  -24.9251  -17.1659 C   0  0  0  0  0  0  0  0  0  0  0  0
   24.8841  -24.3754  -16.0621 O   0  0  0  0  0  0  0  0  0  0  0  0
   24.5091  -24.4286  -18.3129 N   0  0  0  0  0  0  0  0  0  0  0  0
   23.6061  -23.2996  -18.3150 C   0  0  1  0  0  0  0  0  0  0  0  0
   23.5993  -22.5598  -19.6281 C   0  0  0  0  0  0  0  0  0  0  0  0
   22.6528  -21.4202  -19.6250 C   0  0  0  0  0  0  0  0  0  0  0  0
   21.3945  -21.5320  -20.1748 C   0  0  0  0  0  0  0  0  0  0  0  0
   20.4980  -20.4684  -20.1776 C   0  0  0  0  0  0  0  0  0  0  0  0
   20.8417  -19.2507  -19.6233 C   0  0  0  0  0  0  0  0  0  0  0  0
   22.0913  -19.1350  -19.0757 C   0  0  0  0  0  0  0  0  0  0  0  0
   22.9722  -20.1882  -19.0758 C   0  0  0  0  0  0  0  0  0  0  0  0
   22.2814  -23.7456  -17.8879 C   0  0  0  0  0  0  0  0  0  0  0  0
   21.7127  -24.6677  -18.5201 O   0  0  0  0  0  0  0  0  0  0  0  0
   21.5666  -23.2026  -16.7825 N   0  0  0  0  0  0  0  0  0  0  0  0
   20.1967  -23.5612  -16.4611 C   0  0  1  0  0  0  0  0  0  0  0  0
   20.2468  -24.2486  -15.1067 C   0  0  0  0  0  0  0  0  0  0  0  0
   20.8450  -25.5872  -15.1602 C   0  0  0  0  0  0  0  0  0  0  0  0
   22.1681  -25.9777  -15.1264 C   0  0  0  0  0  0  0  0  0  0  0  0
   22.2142  -27.3191  -15.2033 N   0  0  0  0  0  0  0  0  0  0  0  0
   20.9668  -27.8300  -15.2870 C   0  0  0  0  0  0  0  0  0  0  0  0
   20.4815  -29.1336  -15.3848 C   0  0  0  0  0  0  0  0  0  0  0  0
   19.1124  -29.3589  -15.4570 C   0  0  0  0  0  0  0  0  0  0  0  0
   18.2290  -28.2954  -15.4324 C   0  0  0  0  0  0  0  0  0  0  0  0
   18.7456  -27.0220  -15.3350 C   0  0  0  0  0  0  0  0  0  0  0  0
   20.1030  -26.7564  -15.2608 C   0  0  0  0  0  0  0  0  0  0  0  0
   19.3642  -22.3363  -16.4136 C   0  0  0  0  0  0  0  0  0  0  0  0
   18.1117  -22.4260  -16.3436 O   0  0  0  0  0  0  0  0  0  0  0  0
   19.9132  -21.0722  -16.4435 O   0  0  0  0  0  0  0  0  0  0  0  0
  2  1  1  1
  2  3  1  0
  4  3  1  0
  5  4  1  0
  6  5  1  0
  7  6  1  0
  8  2  1  0
  9  8  2  0
 10  8  1  0
 11 10  1  0
 12 13  1  0
 11 12  1  6
 13 18  2  0
 14 15  2  0
 14 13  1  0
 15 16  1  0
 16 17  2  0
 18 17  1  0
 19 11  1  0
 19 21  1  0
 20 19  2  0
 22 21  1  0
 22 33  1  0
 22 23  1  1
 24 32  1  0
 24 23  1  0
 25 24  2  0
 26 25  1  0
 26 27  1  0
 27 32  2  0
 28 27  1  0
 28 29  2  0
 29 30  1  0
 30 31  2  0
 32 31  1  0
 33 35  1  0
 34 33  2  0
M  END
$$$$
