GSH.pdb
     RDKit          3D

 21 21  0  0  1  0  0  0  0  0999 V2000
   28.4022  -15.0298  -17.7020 N   0  0  0  0  0  0  0  0  0  0  0  0
   27.4919  -14.8106  -16.6012 C   0  0  0  0  0  0  0  0  0  0  0  0
   27.4973  -13.3874  -16.2342 C   0  0  0  0  0  0  0  0  0  0  0  0
   27.1656  -12.9855  -15.0804 O   0  0  0  0  0  0  0  0  0  0  0  0
   30.1042  -10.6142  -17.5515 O   0  0  0  0  0  0  0  0  0  0  0  0
   28.7779  -10.2131  -17.7538 C   0  0  0  0  0  0  0  0  0  0  0  0
   27.8301  -10.9999  -16.8789 C   0  0  2  0  0  0  0  0  0  0  0  0
   27.8809  -12.3972  -17.1762 N   0  0  0  0  0  0  0  0  0  0  0  0
   26.4691  -10.4251  -17.0780 C   0  0  0  0  0  0  0  0  0  0  0  0
   25.7940  -10.8342  -18.0570 O   0  0  0  0  0  0  0  0  0  0  0  0
   25.9065   -9.4457  -16.2196 N   0  0  0  0  0  0  0  0  0  0  0  0
   24.5435   -8.9596  -16.5034 C   0  0  1  0  0  0  0  0  0  0  0  0
   23.8190   -8.6508  -15.2461 C   0  0  0  0  0  0  0  0  0  0  0  0
   22.4623   -8.1480  -15.5158 C   0  0  0  0  0  0  0  0  0  0  0  0
   21.3256   -8.7851  -15.9295 C   0  0  0  0  0  0  0  0  0  0  0  0
   20.2754   -7.9090  -15.9610 N   0  0  0  0  0  0  0  0  0  0  0  0
   20.7521   -6.7231  -15.5657 C   0  0  0  0  0  0  0  0  0  0  0  0
   22.0468   -6.8526  -15.2988 N   0  0  0  0  0  0  0  0  0  0  0  0
   24.7289   -7.7156  -17.3105 C   0  0  0  0  0  0  0  0  0  0  0  0
   25.6959   -6.9527  -17.2426 O   0  0  0  0  0  0  0  0  0  0  0  0
   23.7257   -7.3777  -18.2242 O   0  0  0  0  0  0  0  0  0  0  0  0
  1  2  1  0
  3  2  1  0
  4  3  2  0
  5  6  1  0
  7  6  1  6
  7  9  1  0
  7  8  1  0
  8  3  1  0
  9 10  2  0
 11 12  1  0
 11  9  1  0
 12 13  1  1
 13 14  1  0
 14 15  2  0
 14 18  1  0
 15 16  1  0
 16 17  1  0
 18 17  2  0
 19 12  1  0
 20 19  2  0
 21 19  1  0
M  END
$$$$
