GSH.pdb
     RDKit          3D

 21 21  0  0  1  0  0  0  0  0999 V2000
   17.8166  -11.6019  -15.4800 N   0  0  0  0  0  0  0  0  0  0  0  0
   18.3812  -10.2736  -15.4076 C   0  0  0  0  0  0  0  0  0  0  0  0
   18.3794   -9.8135  -14.0117 C   0  0  0  0  0  0  0  0  0  0  0  0
   17.7593  -10.4312  -13.0970 O   0  0  0  0  0  0  0  0  0  0  0  0
   21.4883   -7.5468  -12.3838 O   0  0  0  0  0  0  0  0  0  0  0  0
   20.1894   -7.0982  -12.1146 C   0  0  0  0  0  0  0  0  0  0  0  0
   19.1827   -8.2137  -12.2734 C   0  0  2  0  0  0  0  0  0  0  0  0
   19.0848   -8.6410  -13.6340 N   0  0  0  0  0  0  0  0  0  0  0  0
   17.8840   -7.7124  -11.7397 C   0  0  0  0  0  0  0  0  0  0  0  0
   17.2039   -6.9459  -12.4688 O   0  0  0  0  0  0  0  0  0  0  0  0
   17.3858   -8.0587  -10.4574 N   0  0  0  0  0  0  0  0  0  0  0  0
   16.0559   -7.5602  -10.0604 C   0  0  1  0  0  0  0  0  0  0  0  0
   15.4352   -8.4537   -9.0517 C   0  0  0  0  0  0  0  0  0  0  0  0
   14.1109   -7.9619   -8.6387 C   0  0  0  0  0  0  0  0  0  0  0  0
   13.3506   -6.9190   -9.0900 C   0  0  0  0  0  0  0  0  0  0  0  0
   12.1412   -6.9023   -8.4509 N   0  0  0  0  0  0  0  0  0  0  0  0
   12.1415   -7.9350   -7.6003 C   0  0  0  0  0  0  0  0  0  0  0  0
   13.3034   -8.5704   -7.7031 N   0  0  0  0  0  0  0  0  0  0  0  0
   16.3015   -6.2091   -9.4708 C   0  0  0  0  0  0  0  0  0  0  0  0
   15.5514   -5.2349   -9.5699 O   0  0  0  0  0  0  0  0  0  0  0  0
   17.4804   -6.0221   -8.7422 O   0  0  0  0  0  0  0  0  0  0  0  0
  1  2  1  0
  3  2  1  0
  4  3  2  0
  5  6  1  0
  7  6  1  6
  7  9  1  0
  7  8  1  0
  8  3  1  0
  9 10  2  0
 11 12  1  0
 11  9  1  0
 12 13  1  1
 13 14  1  0
 14 15  2  0
 14 18  1  0
 15 16  1  0
 16 17  1  0
 18 17  2  0
 19 12  1  0
 20 19  2  0
 21 19  1  0
M  END
$$$$
