GSH.pdb
     RDKit          3D

 21 21  0  0  1  0  0  0  0  0999 V2000
   25.5486  -31.5895   -8.3749 N   0  0  0  0  0  0  0  0  0  0  0  0
   26.2844  -32.6410   -7.7106 C   0  0  0  0  0  0  0  0  0  0  0  0
   25.7546  -32.8304   -6.3528 C   0  0  0  0  0  0  0  0  0  0  0  0
   24.8234  -32.1121   -5.8841 O   0  0  0  0  0  0  0  0  0  0  0  0
   23.9428  -35.1515   -5.3709 O   0  0  0  0  0  0  0  0  0  0  0  0
   24.7322  -35.2051   -4.2156 C   0  0  0  0  0  0  0  0  0  0  0  0
   25.7523  -34.0907   -4.1992 C   0  0  2  0  0  0  0  0  0  0  0  0
   26.2773  -33.8421   -5.5053 N   0  0  0  0  0  0  0  0  0  0  0  0
   26.8116  -34.4793   -3.2249 C   0  0  0  0  0  0  0  0  0  0  0  0
   27.7723  -35.1740   -3.6447 O   0  0  0  0  0  0  0  0  0  0  0  0
   26.7843  -34.1037   -1.8571 N   0  0  0  0  0  0  0  0  0  0  0  0
   27.8832  -34.5517   -0.9817 C   0  0  1  0  0  0  0  0  0  0  0  0
   27.9419  -33.7339    0.2548 C   0  0  0  0  0  0  0  0  0  0  0  0
   29.0355  -34.1704    1.1379 C   0  0  0  0  0  0  0  0  0  0  0  0
   30.3046  -34.5990    0.8643 C   0  0  0  0  0  0  0  0  0  0  0  0
   30.9921  -34.8181    2.0265 N   0  0  0  0  0  0  0  0  0  0  0  0
   30.1559  -34.5254    3.0289 C   0  0  0  0  0  0  0  0  0  0  0  0
   28.9935  -34.1401    2.5144 N   0  0  0  0  0  0  0  0  0  0  0  0
   27.5647  -35.9726   -0.6454 C   0  0  0  0  0  0  0  0  0  0  0  0
   28.3059  -36.7511   -0.0404 O   0  0  0  0  0  0  0  0  0  0  0  0
   26.3222  -36.4730   -1.0470 O   0  0  0  0  0  0  0  0  0  0  0  0
  1  2  1  0
  3  2  1  0
  4  3  2  0
  5  6  1  0
  7  6  1  6
  7  9  1  0
  7  8  1  0
  8  3  1  0
  9 10  2  0
 11 12  1  0
 11  9  1  0
 12 13  1  1
 13 14  1  0
 14 15  2  0
 14 18  1  0
 15 16  1  0
 16 17  1  0
 18 17  2  0
 19 12  1  0
 20 19  2  0
 21 19  1  0
M  END
$$$$
