GSH.pdb
     RDKit          3D

 21 21  0  0  1  0  0  0  0  0999 V2000
   14.5990  -12.1962  -15.0151 N   0  0  0  0  0  0  0  0  0  0  0  0
   14.8428  -11.0214  -15.8206 C   0  0  0  0  0  0  0  0  0  0  0  0
   16.2459  -10.6082  -15.6761 C   0  0  0  0  0  0  0  0  0  0  0  0
   17.0318  -11.1604  -14.8514 O   0  0  0  0  0  0  0  0  0  0  0  0
   18.5233   -8.9682  -18.6856 O   0  0  0  0  0  0  0  0  0  0  0  0
   18.5443   -8.2376  -17.4912 C   0  0  0  0  0  0  0  0  0  0  0  0
   18.1213   -9.0935  -16.3201 C   0  0  2  0  0  0  0  0  0  0  0  0
   16.7777   -9.5580  -16.4693 N   0  0  0  0  0  0  0  0  0  0  0  0
   18.3065   -8.2746  -15.0882 C   0  0  0  0  0  0  0  0  0  0  0  0
   17.3342   -7.5850  -14.6872 O   0  0  0  0  0  0  0  0  0  0  0  0
   19.5202   -8.2391  -14.3545 N   0  0  0  0  0  0  0  0  0  0  0  0
   19.5657   -7.4557  -13.1059 C   0  0  1  0  0  0  0  0  0  0  0  0
   20.8035   -7.7482  -12.3423 C   0  0  0  0  0  0  0  0  0  0  0  0
   20.8811   -6.9427  -11.1129 C   0  0  0  0  0  0  0  0  0  0  0  0
   19.9104   -6.4946  -10.2607 C   0  0  0  0  0  0  0  0  0  0  0  0
   20.4756   -5.8471   -9.1964 N   0  0  0  0  0  0  0  0  0  0  0  0
   21.8002   -5.8903   -9.3794 C   0  0  0  0  0  0  0  0  0  0  0  0
   22.0523   -6.5374  -10.5116 N   0  0  0  0  0  0  0  0  0  0  0  0
   19.5522   -6.0250  -13.5377 C   0  0  0  0  0  0  0  0  0  0  0  0
   18.8351   -5.1390  -13.0662 O   0  0  0  0  0  0  0  0  0  0  0  0
   20.4235   -5.6474  -14.5643 O   0  0  0  0  0  0  0  0  0  0  0  0
  1  2  1  0
  3  2  1  0
  4  3  2  0
  5  6  1  0
  7  6  1  6
  7  9  1  0
  7  8  1  0
  8  3  1  0
  9 10  2  0
 11 12  1  0
 11  9  1  0
 12 13  1  6
 13 14  1  0
 14 15  2  0
 14 18  1  0
 15 16  1  0
 16 17  1  0
 18 17  2  0
 19 12  1  0
 20 19  2  0
 21 19  1  0
M  END
$$$$
