GSH.pdb
     RDKit          3D

 21 21  0  0  1  0  0  0  0  0999 V2000
   20.0075  -15.0993  -17.6625 N   0  0  0  0  0  0  0  0  0  0  0  0
   20.0004  -13.7067  -18.0487 C   0  0  0  0  0  0  0  0  0  0  0  0
   20.4190  -12.8779  -16.9093 C   0  0  0  0  0  0  0  0  0  0  0  0
   19.6903  -12.7168  -15.8867 O   0  0  0  0  0  0  0  0  0  0  0  0
   24.2247  -12.3207  -15.4779 O   0  0  0  0  0  0  0  0  0  0  0  0
   23.5737  -11.1377  -15.8484 C   0  0  0  0  0  0  0  0  0  0  0  0
   22.0746  -11.3245  -15.8739 C   0  0  2  0  0  0  0  0  0  0  0  0
   21.6758  -12.2182  -16.9159 N   0  0  0  0  0  0  0  0  0  0  0  0
   21.4659   -9.9715  -16.0210 C   0  0  0  0  0  0  0  0  0  0  0  0
   21.4024   -9.4763  -17.1753 O   0  0  0  0  0  0  0  0  0  0  0  0
   20.9596   -9.2246  -14.9264 N   0  0  0  0  0  0  0  0  0  0  0  0
   20.2786   -7.9457  -15.2013 C   0  0  1  0  0  0  0  0  0  0  0  0
   18.9650   -7.8872  -14.5141 C   0  0  0  0  0  0  0  0  0  0  0  0
   17.9588   -8.7100  -15.2045 C   0  0  0  0  0  0  0  0  0  0  0  0
   17.3887   -8.5951  -16.4418 C   0  0  0  0  0  0  0  0  0  0  0  0
   16.5576   -9.6550  -16.6814 N   0  0  0  0  0  0  0  0  0  0  0  0
   16.6072  -10.4355  -15.5960 C   0  0  0  0  0  0  0  0  0  0  0  0
   17.4346   -9.8858  -14.7143 N   0  0  0  0  0  0  0  0  0  0  0  0
   21.1897   -6.8905  -14.6629 C   0  0  0  0  0  0  0  0  0  0  0  0
   22.2178   -7.0928  -14.0121 O   0  0  0  0  0  0  0  0  0  0  0  0
   20.8572   -5.5553  -14.9123 O   0  0  0  0  0  0  0  0  0  0  0  0
  1  2  1  0
  3  2  1  0
  4  3  2  0
  5  6  1  0
  7  6  1  6
  7  9  1  0
  7  8  1  0
  8  3  1  0
  9 10  2  0
 11 12  1  0
 11  9  1  0
 12 13  1  1
 13 14  1  0
 14 15  2  0
 14 18  1  0
 15 16  1  0
 16 17  1  0
 18 17  2  0
 19 12  1  0
 20 19  2  0
 21 19  1  0
M  END
$$$$
