GSH.pdb
     RDKit          3D

 21 21  0  0  1  0  0  0  0  0999 V2000
   24.8671  -24.5706  -22.4806 N   0  0  0  0  0  0  0  0  0  0  0  0
   24.5322  -24.5551  -21.0749 C   0  0  0  0  0  0  0  0  0  0  0  0
   25.7404  -24.8116  -20.2783 C   0  0  0  0  0  0  0  0  0  0  0  0
   26.8135  -25.2394  -20.7962 O   0  0  0  0  0  0  0  0  0  0  0  0
   27.1169  -22.7517  -16.9899 O   0  0  0  0  0  0  0  0  0  0  0  0
   26.8536  -24.1087  -16.7660 C   0  0  0  0  0  0  0  0  0  0  0  0
   26.8782  -24.8901  -18.0589 C   0  0  2  0  0  0  0  0  0  0  0  0
   25.7465  -24.5847  -18.8771 N   0  0  0  0  0  0  0  0  0  0  0  0
   26.9454  -26.3349  -17.6975 C   0  0  0  0  0  0  0  0  0  0  0  0
   25.8793  -26.9065  -17.3535 O   0  0  0  0  0  0  0  0  0  0  0  0
   28.1480  -27.0870  -17.7243 N   0  0  0  0  0  0  0  0  0  0  0  0
   28.0898  -28.5208  -17.3842 C   0  0  1  0  0  0  0  0  0  0  0  0
   29.4292  -29.1476  -17.5021 C   0  0  0  0  0  0  0  0  0  0  0  0
   29.3770  -30.5892  -17.2097 C   0  0  0  0  0  0  0  0  0  0  0  0
   29.3668  -31.2736  -16.0262 C   0  0  0  0  0  0  0  0  0  0  0  0
   29.2246  -32.6149  -16.2552 N   0  0  0  0  0  0  0  0  0  0  0  0
   29.1438  -32.7720  -17.5813 C   0  0  0  0  0  0  0  0  0  0  0  0
   29.2325  -31.5784  -18.1573 N   0  0  0  0  0  0  0  0  0  0  0  0
   27.6202  -28.5706  -15.9663 C   0  0  0  0  0  0  0  0  0  0  0  0
   27.9648  -27.7989  -15.0679 O   0  0  0  0  0  0  0  0  0  0  0  0
   26.7119  -29.5749  -15.6170 O   0  0  0  0  0  0  0  0  0  0  0  0
  1  2  1  0
  3  2  1  0
  4  3  2  0
  5  6  1  0
  7  6  1  1
  7  9  1  0
  7  8  1  0
  8  3  1  0
  9 10  2  0
 11 12  1  0
 11  9  1  0
 12 13  1  1
 13 14  1  0
 14 15  2  0
 14 18  1  0
 15 16  1  0
 16 17  1  0
 18 17  2  0
 19 12  1  0
 20 19  2  0
 21 19  1  0
M  END
$$$$
