GSH.pdb
     RDKit          3D

 21 21  0  0  1  0  0  0  0  0999 V2000
   16.0317  -13.3201  -13.6311 N   0  0  0  0  0  0  0  0  0  0  0  0
   15.3683  -12.0469  -13.7967 C   0  0  0  0  0  0  0  0  0  0  0  0
   16.1633  -10.9905  -13.1546 C   0  0  0  0  0  0  0  0  0  0  0  0
   16.1403  -10.7925  -11.9044 O   0  0  0  0  0  0  0  0  0  0  0  0
   19.7835   -7.7764  -13.7050 O   0  0  0  0  0  0  0  0  0  0  0  0
   18.8976   -8.6740  -14.3135 C   0  0  0  0  0  0  0  0  0  0  0  0
   17.8670   -9.1758  -13.3291 C   0  0  2  0  0  0  0  0  0  0  0  0
   16.9986  -10.1413  -13.9266 N   0  0  0  0  0  0  0  0  0  0  0  0
   17.1288   -7.9845  -12.8207 C   0  0  0  0  0  0  0  0  0  0  0  0
   16.1835   -7.5351  -13.5180 O   0  0  0  0  0  0  0  0  0  0  0  0
   17.4426   -7.3409  -11.5960 N   0  0  0  0  0  0  0  0  0  0  0  0
   16.5670   -6.2500  -11.1291 C   0  0  1  0  0  0  0  0  0  0  0  0
   16.5777   -6.1596   -9.6483 C   0  0  0  0  0  0  0  0  0  0  0  0
   15.6034   -7.0834   -9.0452 C   0  0  0  0  0  0  0  0  0  0  0  0
   14.8004   -8.0414   -9.5990 C   0  0  0  0  0  0  0  0  0  0  0  0
   14.1180   -8.7117   -8.6209 N   0  0  0  0  0  0  0  0  0  0  0  0
   14.4936   -8.1760   -7.4540 C   0  0  0  0  0  0  0  0  0  0  0  0
   15.3738   -7.2104   -7.6929 N   0  0  0  0  0  0  0  0  0  0  0  0
   17.1374   -5.0042  -11.7258 C   0  0  0  0  0  0  0  0  0  0  0  0
   18.1939   -4.9290  -12.3580 O   0  0  0  0  0  0  0  0  0  0  0  0
   16.4200   -3.8156  -11.5586 O   0  0  0  0  0  0  0  0  0  0  0  0
  1  2  1  0
  3  2  1  0
  4  3  2  0
  5  6  1  0
  7  6  1  6
  7  9  1  0
  7  8  1  0
  8  3  1  0
  9 10  2  0
 11 12  1  0
 11  9  1  0
 12 13  1  1
 13 14  1  0
 14 15  2  0
 14 18  1  0
 15 16  1  0
 16 17  1  0
 18 17  2  0
 19 12  1  0
 20 19  2  0
 21 19  1  0
M  END
$$$$
