GSH.pdb
     RDKit          3D

 21 21  0  0  1  0  0  0  0  0999 V2000
   35.5021  -33.4697  -12.3866 N   0  0  0  0  0  0  0  0  0  0  0  0
   36.1024  -33.4231  -11.0729 C   0  0  0  0  0  0  0  0  0  0  0  0
   35.4692  -34.4274  -10.2065 C   0  0  0  0  0  0  0  0  0  0  0  0
   34.2996  -34.8627  -10.4190 O   0  0  0  0  0  0  0  0  0  0  0  0
   36.1137  -37.6601   -6.6189 O   0  0  0  0  0  0  0  0  0  0  0  0
   36.6569  -36.6251   -7.3898 C   0  0  0  0  0  0  0  0  0  0  0  0
   35.6014  -35.9776   -8.2557 C   0  0  2  0  0  0  0  0  0  0  0  0
   36.1585  -34.9532   -9.0825 N   0  0  0  0  0  0  0  0  0  0  0  0
   34.5424  -35.4591   -7.3434 C   0  0  0  0  0  0  0  0  0  0  0  0
   34.8066  -34.4428   -6.6513 O   0  0  0  0  0  0  0  0  0  0  0  0
   33.2612  -36.0561   -7.2223 N   0  0  0  0  0  0  0  0  0  0  0  0
   32.2918  -35.4591   -6.2849 C   0  0  1  0  0  0  0  0  0  0  0  0
   30.9501  -35.3508   -6.9086 C   0  0  0  0  0  0  0  0  0  0  0  0
   29.9431  -34.8835   -5.9423 C   0  0  0  0  0  0  0  0  0  0  0  0
   30.0045  -33.9402   -4.9546 C   0  0  0  0  0  0  0  0  0  0  0  0
   28.7795  -33.7912   -4.3641 N   0  0  0  0  0  0  0  0  0  0  0  0
   27.9493  -34.6390   -4.9819 C   0  0  0  0  0  0  0  0  0  0  0  0
   28.6275  -35.2914   -5.9192 N   0  0  0  0  0  0  0  0  0  0  0  0
   32.2446  -36.3931   -5.1192 C   0  0  0  0  0  0  0  0  0  0  0  0
   32.6505  -37.5580   -5.1151 O   0  0  0  0  0  0  0  0  0  0  0  0
   31.6946  -35.9158   -3.9254 O   0  0  0  0  0  0  0  0  0  0  0  0
  1  2  1  0
  3  2  1  0
  4  3  2  0
  5  6  1  0
  7  6  1  1
  7  9  1  0
  7  8  1  0
  8  3  1  0
  9 10  2  0
 11 12  1  0
 11  9  1  0
 12 13  1  6
 13 14  1  0
 14 15  2  0
 14 18  1  0
 15 16  1  0
 16 17  1  0
 18 17  2  0
 19 12  1  0
 20 19  2  0
 21 19  1  0
M  END
$$$$
