CGA.pdb
     RDKit          3D

 16 15  0  0  1  0  0  0  0  0999 V2000
   19.5725  -14.9513  -15.6816 N   0  0  0  0  0  0  0  0  0  0  0  0
   18.9809  -14.7805  -16.9873 C   0  0  1  0  0  0  0  0  0  0  0  0
   17.4931  -15.0407  -16.9403 C   0  0  0  0  0  0  0  0  0  0  0  0
   17.1386  -16.6685  -16.2279 S   0  0  0  0  0  0  0  0  0  0  0  0
   19.1959  -13.4250  -17.5262 C   0  0  0  0  0  0  0  0  0  0  0  0
   18.8440  -13.1949  -18.7088 O   0  0  0  0  0  0  0  0  0  0  0  0
   19.7819  -12.4070  -16.7381 N   0  0  0  0  0  0  0  0  0  0  0  0
   19.9753  -11.0984  -17.2675 C   0  0  0  0  0  0  0  0  0  0  0  0
   20.5912  -10.1567  -16.3266 C   0  0  0  0  0  0  0  0  0  0  0  0
   20.8743  -10.4374  -15.1319 O   0  0  0  0  0  0  0  0  0  0  0  0
   21.9181   -6.6338  -16.6403 C   0  0  0  0  0  0  0  0  0  0  0  0
   21.6239   -7.9189  -15.8973 C   0  0  2  0  0  0  0  0  0  0  0  0
   20.8961   -8.8401  -16.7692 N   0  0  0  0  0  0  0  0  0  0  0  0
   20.7696   -7.6266  -14.7173 C   0  0  0  0  0  0  0  0  0  0  0  0
   19.5169   -7.7289  -14.7895 O   0  0  0  0  0  0  0  0  0  0  0  0
   21.2913   -7.2311  -13.4885 O   0  0  0  0  0  0  0  0  0  0  0  0
  2  1  1  1
  3  2  1  0
  4  3  1  0
  5  2  1  0
  5  6  2  0
  7  5  1  0
  8  7  1  0
  9  8  1  0
 10  9  2  0
 12 13  1  0
 12 11  1  6
 13  9  1  0
 14 12  1  0
 15 14  2  0
 16 14  1  0
M  END
$$$$
