CGA.pdb
     RDKit          3D

 16 15  0  0  1  0  0  0  0  0999 V2000
   25.9093  -10.4559  -16.9699 N   0  0  0  0  0  0  0  0  0  0  0  0
   25.2243  -11.5443  -16.3141 C   0  0  1  0  0  0  0  0  0  0  0  0
   26.1803  -12.3412  -15.4571 C   0  0  0  0  0  0  0  0  0  0  0  0
   27.8451  -12.3481  -16.1722 S   0  0  0  0  0  0  0  0  0  0  0  0
   24.1187  -11.0751  -15.4586 C   0  0  0  0  0  0  0  0  0  0  0  0
   23.4366  -11.9339  -14.8480 O   0  0  0  0  0  0  0  0  0  0  0  0
   23.8290   -9.6972  -15.3248 N   0  0  0  0  0  0  0  0  0  0  0  0
   22.7519   -9.2572  -14.5022 C   0  0  0  0  0  0  0  0  0  0  0  0
   22.5259   -7.8083  -14.5355 C   0  0  0  0  0  0  0  0  0  0  0  0
   21.6585   -7.2141  -13.8422 O   0  0  0  0  0  0  0  0  0  0  0  0
   24.2688   -4.9011  -16.1755 C   0  0  0  0  0  0  0  0  0  0  0  0
   23.1017   -5.5624  -15.4751 C   0  0  2  0  0  0  0  0  0  0  0  0
   23.3240   -7.0056  -15.3963 N   0  0  0  0  0  0  0  0  0  0  0  0
   21.8574   -5.3279  -16.2526 C   0  0  0  0  0  0  0  0  0  0  0  0
   21.4553   -6.1747  -17.0929 O   0  0  0  0  0  0  0  0  0  0  0  0
   21.0789   -4.1834  -16.1021 O   0  0  0  0  0  0  0  0  0  0  0  0
  2  1  1  1
  3  2  1  0
  4  3  1  0
  5  2  1  0
  5  6  2  0
  7  5  1  0
  8  7  1  0
  9  8  1  0
 10  9  2  0
 12 13  1  0
 12 11  1  6
 13  9  1  0
 14 12  1  0
 15 14  2  0
 16 14  1  0
M  END
$$$$
