CGA.pdb
     RDKit          3D

 16 15  0  0  1  0  0  0  0  0999 V2000
   19.7447  -12.5559  -15.6330 N   0  0  0  0  0  0  0  0  0  0  0  0
   18.7117  -11.8958  -16.3952 C   0  0  1  0  0  0  0  0  0  0  0  0
   17.3974  -11.9186  -15.6499 C   0  0  0  0  0  0  0  0  0  0  0  0
   17.0595  -13.5661  -14.9755 S   0  0  0  0  0  0  0  0  0  0  0  0
   19.0481  -10.4918  -16.6951 C   0  0  0  0  0  0  0  0  0  0  0  0
   18.2177   -9.8090  -17.3428 O   0  0  0  0  0  0  0  0  0  0  0  0
   20.2710   -9.9235  -16.2680 N   0  0  0  0  0  0  0  0  0  0  0  0
   20.5754   -8.5597  -16.5466 C   0  0  0  0  0  0  0  0  0  0  0  0
   20.6655   -7.7104  -15.3542 C   0  0  0  0  0  0  0  0  0  0  0  0
   20.0476   -7.9355  -14.2800 O   0  0  0  0  0  0  0  0  0  0  0  0
   22.8318   -4.8388  -14.2982 C   0  0  0  0  0  0  0  0  0  0  0  0
   21.5603   -5.6574  -14.2392 C   0  0  2  0  0  0  0  0  0  0  0  0
   21.4958   -6.5565  -15.3908 N   0  0  0  0  0  0  0  0  0  0  0  0
   20.3832   -4.7523  -14.2927 C   0  0  0  0  0  0  0  0  0  0  0  0
   19.7990   -4.5213  -15.3836 O   0  0  0  0  0  0  0  0  0  0  0  0
   19.8672   -4.1195  -13.1649 O   0  0  0  0  0  0  0  0  0  0  0  0
  2  1  1  1
  3  2  1  0
  4  3  1  0
  5  2  1  0
  5  6  2  0
  7  5  1  0
  8  7  1  0
  9  8  1  0
 10  9  2  0
 12 13  1  0
 12 11  1  6
 13  9  1  0
 14 12  1  0
 15 14  2  0
 16 14  1  0
M  END
$$$$
