CGA.pdb
     RDKit          3D

 16 15  0  0  1  0  0  0  0  0999 V2000
   24.5694  -12.2166  -16.5517 N   0  0  0  0  0  0  0  0  0  0  0  0
   25.5771  -11.4575  -15.8501 C   0  0  1  0  0  0  0  0  0  0  0  0
   26.9632  -11.9010  -16.2571 C   0  0  0  0  0  0  0  0  0  0  0  0
   27.2012  -13.6687  -15.9387 S   0  0  0  0  0  0  0  0  0  0  0  0
   25.4632  -10.0091  -16.1020 C   0  0  0  0  0  0  0  0  0  0  0  0
   26.2336   -9.2372  -15.4806 O   0  0  0  0  0  0  0  0  0  0  0  0
   24.5143   -9.4964  -17.0172 N   0  0  0  0  0  0  0  0  0  0  0  0
   24.3259   -8.0912  -17.1584 C   0  0  0  0  0  0  0  0  0  0  0  0
   23.5454   -7.4799  -16.0774 C   0  0  0  0  0  0  0  0  0  0  0  0
   22.8439   -8.1314  -15.2590 O   0  0  0  0  0  0  0  0  0  0  0  0
   23.1242   -3.9685  -14.7713 C   0  0  0  0  0  0  0  0  0  0  0  0
   22.7197   -5.4186  -14.9251 C   0  0  2  0  0  0  0  0  0  0  0  0
   23.5673   -6.0662  -15.9256 N   0  0  0  0  0  0  0  0  0  0  0  0
   21.3114   -5.4952  -15.3927 C   0  0  0  0  0  0  0  0  0  0  0  0
   21.0472   -5.6621  -16.6122 O   0  0  0  0  0  0  0  0  0  0  0  0
   20.2239   -5.3894  -14.5297 O   0  0  0  0  0  0  0  0  0  0  0  0
  2  1  1  6
  3  2  1  0
  4  3  1  0
  5  2  1  0
  5  6  2  0
  7  5  1  0
  8  7  1  0
  9  8  1  0
 10  9  2  0
 12 13  1  0
 12 11  1  6
 13  9  1  0
 14 12  1  0
 15 14  2  0
 16 14  1  0
M  END
$$$$
