CGA.pdb
     RDKit          3D

 16 15  0  0  1  0  0  0  0  0999 V2000
   26.5692  -21.5535  -12.1469 N   0  0  0  0  0  0  0  0  0  0  0  0
   26.6806  -20.3011  -12.8560 C   0  0  1  0  0  0  0  0  0  0  0  0
   28.1031  -20.0655  -13.3083 C   0  0  0  0  0  0  0  0  0  0  0  0
   29.2190  -19.9023  -11.8902 S   0  0  0  0  0  0  0  0  0  0  0  0
   25.8046  -20.2489  -14.0409 C   0  0  0  0  0  0  0  0  0  0  0  0
   25.7423  -21.2639  -14.7767 O   0  0  0  0  0  0  0  0  0  0  0  0
   25.0525  -19.0906  -14.3463 N   0  0  0  0  0  0  0  0  0  0  0  0
   24.1450  -19.0817  -15.4447 C   0  0  0  0  0  0  0  0  0  0  0  0
   24.2206  -17.8745  -16.2744 C   0  0  0  0  0  0  0  0  0  0  0  0
   24.6605  -16.7664  -15.8682 O   0  0  0  0  0  0  0  0  0  0  0  0
   23.8922  -17.1597  -19.9284 C   0  0  0  0  0  0  0  0  0  0  0  0
   23.8308  -16.7474  -18.4736 C   0  0  2  0  0  0  0  0  0  0  0  0
   23.7752  -17.9361  -17.6235 N   0  0  0  0  0  0  0  0  0  0  0  0
   22.6003  -15.9497  -18.2343 C   0  0  0  0  0  0  0  0  0  0  0  0
   21.5163  -16.5147  -17.9333 O   0  0  0  0  0  0  0  0  0  0  0  0
   22.5727  -14.5607  -18.3264 O   0  0  0  0  0  0  0  0  0  0  0  0
  2  1  1  6
  3  2  1  0
  4  3  1  0
  5  2  1  0
  5  6  2  0
  7  5  1  0
  8  7  1  0
  9  8  1  0
 10  9  2  0
 12 13  1  0
 12 11  1  6
 13  9  1  0
 14 12  1  0
 15 14  2  0
 16 14  1  0
M  END
$$$$
