CGA.pdb
     RDKit          3D

 16 15  0  0  1  0  0  0  0  0999 V2000
   14.9690  -12.7821  -12.0925 N   0  0  0  0  0  0  0  0  0  0  0  0
   15.0286  -11.3440  -12.2038 C   0  0  1  0  0  0  0  0  0  0  0  0
   13.8435  -10.8163  -12.9788 C   0  0  0  0  0  0  0  0  0  0  0  0
   13.9090  -11.3466  -14.7102 S   0  0  0  0  0  0  0  0  0  0  0  0
   15.0513  -10.6812  -10.8868 C   0  0  0  0  0  0  0  0  0  0  0  0
   14.3409  -11.1608   -9.9699 O   0  0  0  0  0  0  0  0  0  0  0  0
   15.8491   -9.5363  -10.6558 N   0  0  0  0  0  0  0  0  0  0  0  0
   15.7670   -8.8301   -9.4211 C   0  0  0  0  0  0  0  0  0  0  0  0
   15.3369   -7.4344   -9.5567 C   0  0  0  0  0  0  0  0  0  0  0  0
   15.1289   -6.8650  -10.6607 O   0  0  0  0  0  0  0  0  0  0  0  0
   14.4490   -4.7015   -7.1058 C   0  0  0  0  0  0  0  0  0  0  0  0
   14.7271   -5.2574   -8.4856 C   0  0  2  0  0  0  0  0  0  0  0  0
   15.1363   -6.6576   -8.3826 N   0  0  0  0  0  0  0  0  0  0  0  0
   15.8376   -4.4960   -9.1139 C   0  0  0  0  0  0  0  0  0  0  0  0
   17.0129   -4.9468   -9.1030 O   0  0  0  0  0  0  0  0  0  0  0  0
   15.6493   -3.2660   -9.7386 O   0  0  0  0  0  0  0  0  0  0  0  0
  2  1  1  1
  3  2  1  0
  4  3  1  0
  5  2  1  0
  5  6  2  0
  7  5  1  0
  8  7  1  0
  9  8  1  0
 10  9  2  0
 12 13  1  0
 12 11  1  1
 13  9  1  0
 14 12  1  0
 15 14  2  0
 16 14  1  0
M  END
$$$$
