CGA.pdb
     RDKit          3D

 16 15  0  0  1  0  0  0  0  0999 V2000
   13.7683  -14.5757  -11.5912 N   0  0  0  0  0  0  0  0  0  0  0  0
   13.5042  -13.1737  -11.8113 C   0  0  1  0  0  0  0  0  0  0  0  0
   12.4884  -12.6568  -10.8190 C   0  0  0  0  0  0  0  0  0  0  0  0
   11.0089  -13.7026  -10.7968 S   0  0  0  0  0  0  0  0  0  0  0  0
   14.7219  -12.3501  -11.6970 C   0  0  0  0  0  0  0  0  0  0  0  0
   15.5905  -12.6902  -10.8573 O   0  0  0  0  0  0  0  0  0  0  0  0
   14.9127  -11.2069  -12.5079 N   0  0  0  0  0  0  0  0  0  0  0  0
   16.1218  -10.4568  -12.4341 C   0  0  0  0  0  0  0  0  0  0  0  0
   16.1905   -9.3368  -13.3786 C   0  0  0  0  0  0  0  0  0  0  0  0
   15.6810   -9.3536  -14.5304 O   0  0  0  0  0  0  0  0  0  0  0  0
   17.3329   -5.7615  -13.1147 C   0  0  0  0  0  0  0  0  0  0  0  0
   16.8950   -6.9898  -13.8827 C   0  0  2  0  0  0  0  0  0  0  0  0
   16.8692   -8.1487  -12.9911 N   0  0  0  0  0  0  0  0  0  0  0  0
   17.8656   -7.2667  -14.9731 C   0  0  0  0  0  0  0  0  0  0  0  0
   18.7553   -8.1465  -14.8337 O   0  0  0  0  0  0  0  0  0  0  0  0
   17.8500   -6.5853  -16.1872 O   0  0  0  0  0  0  0  0  0  0  0  0
  2  1  1  1
  3  2  1  0
  4  3  1  0
  5  2  1  0
  5  6  2  0
  7  5  1  0
  8  7  1  0
  9  8  1  0
 10  9  2  0
 12 13  1  0
 12 11  1  1
 13  9  1  0
 14 12  1  0
 15 14  2  0
 16 14  1  0
M  END
$$$$
