CGA.pdb
     RDKit          3D

 16 15  0  0  1  0  0  0  0  0999 V2000
   25.4162  -21.0505   -8.2314 N   0  0  0  0  0  0  0  0  0  0  0  0
   26.1693  -20.0501   -8.9496 C   0  0  1  0  0  0  0  0  0  0  0  0
   27.4432  -19.7062   -8.2131 C   0  0  0  0  0  0  0  0  0  0  0  0
   27.0831  -18.9863   -6.5898 S   0  0  0  0  0  0  0  0  0  0  0  0
   26.5272  -20.4894  -10.3109 C   0  0  0  0  0  0  0  0  0  0  0  0
   27.7170  -20.8222  -10.5324 O   0  0  0  0  0  0  0  0  0  0  0  0
   25.5618  -20.5369  -11.3436 N   0  0  0  0  0  0  0  0  0  0  0  0
   25.9607  -20.6416  -12.7074 C   0  0  0  0  0  0  0  0  0  0  0  0
   24.8513  -20.8647  -13.6406 C   0  0  0  0  0  0  0  0  0  0  0  0
   24.9685  -20.8382  -14.8943 O   0  0  0  0  0  0  0  0  0  0  0  0
   21.7559  -22.6082  -13.8304 C   0  0  0  0  0  0  0  0  0  0  0  0
   22.4098  -21.2568  -14.0205 C   0  0  2  0  0  0  0  0  0  0  0  0
   23.5547  -21.1290  -13.1196 N   0  0  0  0  0  0  0  0  0  0  0  0
   21.4380  -20.1829  -13.6884 C   0  0  0  0  0  0  0  0  0  0  0  0
   21.5186  -19.5575  -12.5989 O   0  0  0  0  0  0  0  0  0  0  0  0
   20.4032  -19.8122  -14.5430 O   0  0  0  0  0  0  0  0  0  0  0  0
  2  1  1  1
  3  2  1  0
  4  3  1  0
  5  2  1  0
  5  6  2  0
  7  5  1  0
  8  7  1  0
  9  8  1  0
 10  9  2  0
 12 13  1  0
 12 11  1  1
 13  9  1  0
 14 12  1  0
 15 14  2  0
 16 14  1  0
M  END
$$$$
