CGA.pdb
     RDKit          3D

 16 15  0  0  1  0  0  0  0  0999 V2000
   25.2823  -11.9248  -16.1176 N   0  0  0  0  0  0  0  0  0  0  0  0
   24.2460  -11.3055  -16.9089 C   0  0  1  0  0  0  0  0  0  0  0  0
   23.5529  -12.3276  -17.7798 C   0  0  0  0  0  0  0  0  0  0  0  0
   24.7354  -13.1664  -18.8666 S   0  0  0  0  0  0  0  0  0  0  0  0
   23.2266  -10.6419  -16.0754 C   0  0  0  0  0  0  0  0  0  0  0  0
   22.5960  -11.3389  -15.2435 O   0  0  0  0  0  0  0  0  0  0  0  0
   22.9613   -9.2585  -16.2042 N   0  0  0  0  0  0  0  0  0  0  0  0
   21.9943   -8.6232  -15.3726 C   0  0  0  0  0  0  0  0  0  0  0  0
   21.9594   -7.1626  -15.5027 C   0  0  0  0  0  0  0  0  0  0  0  0
   22.7384   -6.5017  -16.2394 O   0  0  0  0  0  0  0  0  0  0  0  0
   19.6644   -4.4588  -14.2271 C   0  0  0  0  0  0  0  0  0  0  0  0
   20.9379   -4.9697  -14.8655 C   0  0  2  0  0  0  0  0  0  0  0  0
   20.9948   -6.4272  -14.7604 N   0  0  0  0  0  0  0  0  0  0  0  0
   22.1128   -4.4081  -14.1500 C   0  0  0  0  0  0  0  0  0  0  0  0
   22.6225   -5.0179  -13.1736 O   0  0  0  0  0  0  0  0  0  0  0  0
   22.7072   -3.2011  -14.5082 O   0  0  0  0  0  0  0  0  0  0  0  0
  2  1  1  1
  3  2  1  0
  4  3  1  0
  5  2  1  0
  5  6  2  0
  7  5  1  0
  8  7  1  0
  9  8  1  0
 10  9  2  0
 12 13  1  0
 12 11  1  1
 13  9  1  0
 14 12  1  0
 15 14  2  0
 16 14  1  0
M  END
$$$$
