CGA.pdb
     RDKit          3D

 16 15  0  0  1  0  0  0  0  0999 V2000
   21.5578  -22.1392  -14.9928 N   0  0  0  0  0  0  0  0  0  0  0  0
   20.8408  -21.5726  -13.8753 C   0  0  1  0  0  0  0  0  0  0  0  0
   20.0903  -20.3296  -14.2940 C   0  0  0  0  0  0  0  0  0  0  0  0
   21.2209  -18.9325  -14.5236 S   0  0  0  0  0  0  0  0  0  0  0  0
   19.8743  -22.5210  -13.2916 C   0  0  0  0  0  0  0  0  0  0  0  0
   19.3077  -23.3369  -14.0589 O   0  0  0  0  0  0  0  0  0  0  0  0
   19.5886  -22.5173  -11.9063 N   0  0  0  0  0  0  0  0  0  0  0  0
   18.6981  -23.4776  -11.3451 C   0  0  0  0  0  0  0  0  0  0  0  0
   18.5210  -23.3543   -9.8943 C   0  0  0  0  0  0  0  0  0  0  0  0
   19.1169  -22.5042   -9.1811 O   0  0  0  0  0  0  0  0  0  0  0  0
   16.2932  -25.0349   -7.3557 C   0  0  0  0  0  0  0  0  0  0  0  0
   17.4567  -24.1655   -7.7806 C   0  0  2  0  0  0  0  0  0  0  0  0
   17.6263  -24.2387   -9.2313 N   0  0  0  0  0  0  0  0  0  0  0  0
   18.7050  -24.6590   -7.1435 C   0  0  0  0  0  0  0  0  0  0  0  0
   19.4980  -25.4047   -7.7758 O   0  0  0  0  0  0  0  0  0  0  0  0
   19.0646  -24.3338   -5.8383 O   0  0  0  0  0  0  0  0  0  0  0  0
  2  1  1  6
  3  2  1  0
  4  3  1  0
  5  2  1  0
  5  6  2  0
  7  5  1  0
  8  7  1  0
  9  8  1  0
 10  9  2  0
 12 13  1  0
 12 11  1  1
 13  9  1  0
 14 12  1  0
 15 14  2  0
 16 14  1  0
M  END
$$$$
