CGA.pdb
     RDKit          3D

 16 15  0  0  1  0  0  0  0  0999 V2000
   26.7695  -19.0252   -6.2737 N   0  0  0  0  0  0  0  0  0  0  0  0
   27.9481  -19.7049   -6.7562 C   0  0  1  0  0  0  0  0  0  0  0  0
   28.4397  -20.7117   -5.7422 C   0  0  0  0  0  0  0  0  0  0  0  0
   28.7968  -19.9157   -4.1542 S   0  0  0  0  0  0  0  0  0  0  0  0
   27.7058  -20.4109   -8.0279 C   0  0  0  0  0  0  0  0  0  0  0  0
   28.5974  -21.1839   -8.4556 O   0  0  0  0  0  0  0  0  0  0  0  0
   26.5043  -20.2271   -8.7512 N   0  0  0  0  0  0  0  0  0  0  0  0
   26.3450  -20.7887  -10.0510 C   0  0  0  0  0  0  0  0  0  0  0  0
   25.0653  -20.4652  -10.6906 C   0  0  0  0  0  0  0  0  0  0  0  0
   24.1169  -19.8733  -10.1104 O   0  0  0  0  0  0  0  0  0  0  0  0
   23.9215  -20.4742  -14.2665 C   0  0  0  0  0  0  0  0  0  0  0  0
   23.6893  -20.3468  -12.7766 C   0  0  2  0  0  0  0  0  0  0  0  0
   24.8609  -20.8331  -12.0489 N   0  0  0  0  0  0  0  0  0  0  0  0
   22.5223  -21.1778  -12.3824 C   0  0  0  0  0  0  0  0  0  0  0  0
   22.6852  -22.3413  -11.9301 O   0  0  0  0  0  0  0  0  0  0  0  0
   21.2083  -20.7297  -12.4870 O   0  0  0  0  0  0  0  0  0  0  0  0
  2  1  1  1
  3  2  1  0
  4  3  1  0
  5  2  1  0
  5  6  2  0
  7  5  1  0
  8  7  1  0
  9  8  1  0
 10  9  2  0
 12 13  1  0
 12 11  1  6
 13  9  1  0
 14 12  1  0
 15 14  2  0
 16 14  1  0
M  END
$$$$
