MFH.pdb
     RDKit          3D

 30 31  0  0  1  0  0  0  0  0999 V2000
   23.1094  -19.5765  -14.9293 C   0  0  0  0  0  0  0  0  0  0  0  0
   24.6381  -18.6497  -15.2885 S   0  0  0  0  0  0  0  0  0  0  0  0
   26.0245  -19.6767  -14.7388 C   0  0  0  0  0  0  0  0  0  0  0  0
   25.8425  -20.1547  -13.3161 C   0  0  0  0  0  0  0  0  0  0  0  0
   27.0188  -20.9733  -12.8329 C   0  0  2  0  0  0  0  0  0  0  0  0
   26.9869  -22.2271  -13.5656 N   0  0  0  0  0  0  0  0  0  0  0  0
   26.8375  -21.1820  -11.3791 C   0  0  0  0  0  0  0  0  0  0  0  0
   26.1673  -22.1362  -10.9228 O   0  0  0  0  0  0  0  0  0  0  0  0
   27.4357  -20.2812  -10.4725 N   0  0  0  0  0  0  0  0  0  0  0  0
   27.2886  -20.5029   -9.0502 C   0  0  1  0  0  0  0  0  0  0  0  0
   28.2596  -19.6981   -8.2299 C   0  0  0  0  0  0  0  0  0  0  0  0
   28.0599  -19.8206   -6.7864 C   0  0  0  0  0  0  0  0  0  0  0  0
   28.9548  -20.5775   -6.0459 C   0  0  0  0  0  0  0  0  0  0  0  0
   28.8582  -20.7566   -4.6856 C   0  0  0  0  0  0  0  0  0  0  0  0
   27.7943  -20.1342   -4.0341 C   0  0  0  0  0  0  0  0  0  0  0  0
   26.8834  -19.3745   -4.7294 C   0  0  0  0  0  0  0  0  0  0  0  0
   27.0302  -19.2315   -6.0834 C   0  0  0  0  0  0  0  0  0  0  0  0
   25.9075  -20.0132   -8.6931 C   0  0  0  0  0  0  0  0  0  0  0  0
   25.4551  -18.9117   -9.1402 O   0  0  0  0  0  0  0  0  0  0  0  0
   25.0569  -20.7565   -7.8470 N   0  0  0  0  0  0  0  0  0  0  0  0
   23.6127  -20.7886   -8.1109 C   0  0  1  0  0  0  0  0  0  0  0  0
   23.3529  -21.2858   -9.5180 C   0  0  0  0  0  0  0  0  0  0  0  0
   22.2186  -20.6011  -10.1544 C   0  0  0  0  0  0  0  0  0  0  0  0
   21.4522  -19.6120   -9.5888 C   0  0  0  0  0  0  0  0  0  0  0  0
   20.5141  -19.2568  -10.4818 N   0  0  0  0  0  0  0  0  0  0  0  0
   20.6712  -19.9894  -11.5792 C   0  0  0  0  0  0  0  0  0  0  0  0
   21.7208  -20.8155  -11.3743 N   0  0  0  0  0  0  0  0  0  0  0  0
   22.9799  -21.6120   -7.0669 C   0  0  0  0  0  0  0  0  0  0  0  0
   21.7351  -21.6899   -6.9831 O   0  0  0  0  0  0  0  0  0  0  0  0
   23.7516  -22.3123   -6.1643 O   0  0  0  0  0  0  0  0  0  0  0  0
  2  1  1  0
  3  2  1  0
  4  3  1  0
  5  4  1  0
  5  6  1  6
  7  5  1  0
  8  7  2  0
  9  7  1  0
 10  9  1  0
 11 12  1  0
 10 11  1  1
 12 13  2  0
 13 14  1  0
 15 14  2  0
 16 15  1  0
 17 16  2  0
 17 12  1  0
 18 10  1  0
 18 19  2  0
 20 18  1  0
 21 22  1  6
 21 20  1  0
 23 22  1  0
 24 23  2  0
 25 24  1  0
 25 26  1  0
 26 27  2  0
 27 23  1  0
 28 21  1  0
 29 28  2  0
 30 28  1  0
M  END
$$$$
