MFH.pdb
     RDKit          3D

 30 31  0  0  1  0  0  0  0  0999 V2000
   28.8837  -16.0161  -14.7519 C   0  0  0  0  0  0  0  0  0  0  0  0
   28.6676  -17.1658  -16.1505 S   0  0  0  0  0  0  0  0  0  0  0  0
   27.0357  -17.9283  -15.9652 C   0  0  0  0  0  0  0  0  0  0  0  0
   27.1356  -19.3891  -15.5886 C   0  0  0  0  0  0  0  0  0  0  0  0
   27.7129  -19.5847  -14.2044 C   0  0  2  0  0  0  0  0  0  0  0  0
   29.0186  -20.1971  -14.3769 N   0  0  0  0  0  0  0  0  0  0  0  0
   26.7847  -20.4693  -13.4655 C   0  0  0  0  0  0  0  0  0  0  0  0
   26.6115  -21.6673  -13.7856 O   0  0  0  0  0  0  0  0  0  0  0  0
   26.0688  -19.9532  -12.3645 N   0  0  0  0  0  0  0  0  0  0  0  0
   25.1759  -20.8218  -11.6280 C   0  0  1  0  0  0  0  0  0  0  0  0
   25.0541  -20.4402  -10.1778 C   0  0  0  0  0  0  0  0  0  0  0  0
   26.3094  -20.5327   -9.4333 C   0  0  0  0  0  0  0  0  0  0  0  0
   26.4561  -19.7950   -8.2687 C   0  0  0  0  0  0  0  0  0  0  0  0
   27.5934  -19.8102   -7.4953 C   0  0  0  0  0  0  0  0  0  0  0  0
   28.6455  -20.6187   -7.9235 C   0  0  0  0  0  0  0  0  0  0  0  0
   28.5429  -21.3668   -9.0724 C   0  0  0  0  0  0  0  0  0  0  0  0
   27.3856  -21.3119   -9.8025 C   0  0  0  0  0  0  0  0  0  0  0  0
   23.8116  -20.6344  -12.2430 C   0  0  0  0  0  0  0  0  0  0  0  0
   23.3119  -19.4777  -12.4156 O   0  0  0  0  0  0  0  0  0  0  0  0
   23.0300  -21.7355  -12.6537 N   0  0  0  0  0  0  0  0  0  0  0  0
   21.6947  -21.5102  -13.2218 C   0  0  1  0  0  0  0  0  0  0  0  0
   21.3168  -22.6607  -14.1319 C   0  0  0  0  0  0  0  0  0  0  0  0
   21.9506  -22.5616  -15.4543 C   0  0  0  0  0  0  0  0  0  0  0  0
   22.6735  -21.4931  -15.9250 C   0  0  0  0  0  0  0  0  0  0  0  0
   23.0727  -21.7844  -17.1738 N   0  0  0  0  0  0  0  0  0  0  0  0
   22.6237  -22.9933  -17.4937 C   0  0  0  0  0  0  0  0  0  0  0  0
   21.9337  -23.4687  -16.4335 N   0  0  0  0  0  0  0  0  0  0  0  0
   20.7561  -21.3068  -12.1056 C   0  0  0  0  0  0  0  0  0  0  0  0
   20.7057  -22.1206  -11.1581 O   0  0  0  0  0  0  0  0  0  0  0  0
   19.9173  -20.2128  -12.0871 O   0  0  0  0  0  0  0  0  0  0  0  0
  2  1  1  0
  3  2  1  0
  4  3  1  0
  5  4  1  0
  5  6  1  6
  7  5  1  0
  8  7  2  0
  9  7  1  0
 10  9  1  0
 11 12  1  0
 10 11  1  1
 12 13  2  0
 13 14  1  0
 15 14  2  0
 16 15  1  0
 17 16  2  0
 17 12  1  0
 18 10  1  0
 18 19  2  0
 20 18  1  0
 21 22  1  1
 21 20  1  0
 23 22  1  0
 24 23  2  0
 25 24  1  0
 25 26  1  0
 26 27  2  0
 27 23  1  0
 28 21  1  0
 29 28  2  0
 30 28  1  0
M  END
$$$$
