MFH.pdb
     RDKit          3D

 30 31  0  0  1  0  0  0  0  0999 V2000
   26.6951  -18.1712   -5.3094 C   0  0  0  0  0  0  0  0  0  0  0  0
   27.5936  -19.7058   -4.9069 S   0  0  0  0  0  0  0  0  0  0  0  0
   27.4342  -20.8062   -6.3361 C   0  0  0  0  0  0  0  0  0  0  0  0
   26.7753  -20.1155   -7.5085 C   0  0  0  0  0  0  0  0  0  0  0  0
   26.5552  -21.0530   -8.6747 C   0  0  2  0  0  0  0  0  0  0  0  0
   27.8602  -21.5674   -9.0518 N   0  0  0  0  0  0  0  0  0  0  0  0
   25.9422  -20.2594   -9.7630 C   0  0  0  0  0  0  0  0  0  0  0  0
   26.3822  -19.1353  -10.0952 O   0  0  0  0  0  0  0  0  0  0  0  0
   24.8263  -20.7796  -10.4524 N   0  0  0  0  0  0  0  0  0  0  0  0
   24.7454  -20.6277  -11.8892 C   0  0  1  0  0  0  0  0  0  0  0  0
   25.6172  -21.6048  -12.6299 C   0  0  0  0  0  0  0  0  0  0  0  0
   26.9500  -21.0906  -12.9431 C   0  0  0  0  0  0  0  0  0  0  0  0
   28.0279  -21.5059  -12.1766 C   0  0  0  0  0  0  0  0  0  0  0  0
   29.3200  -21.0838  -12.3867 C   0  0  0  0  0  0  0  0  0  0  0  0
   29.5365  -20.1887  -13.4335 C   0  0  0  0  0  0  0  0  0  0  0  0
   28.4964  -19.7508  -14.2188 C   0  0  0  0  0  0  0  0  0  0  0  0
   27.2304  -20.2054  -13.9626 C   0  0  0  0  0  0  0  0  0  0  0  0
   23.3195  -20.9477  -12.2621 C   0  0  0  0  0  0  0  0  0  0  0  0
   22.6727  -21.8780  -11.6844 O   0  0  0  0  0  0  0  0  0  0  0  0
   22.6410  -20.2282  -13.2690 N   0  0  0  0  0  0  0  0  0  0  0  0
   21.2308  -20.5240  -13.5520 C   0  0  1  0  0  0  0  0  0  0  0  0
   20.6301  -19.4240  -14.4028 C   0  0  0  0  0  0  0  0  0  0  0  0
   20.5249  -18.1490  -13.6790 C   0  0  0  0  0  0  0  0  0  0  0  0
   19.9579  -17.9676  -12.4416 C   0  0  0  0  0  0  0  0  0  0  0  0
   20.0479  -16.6632  -12.1349 N   0  0  0  0  0  0  0  0  0  0  0  0
   20.6495  -16.0304  -13.1364 C   0  0  0  0  0  0  0  0  0  0  0  0
   20.9416  -16.9476  -14.0849 N   0  0  0  0  0  0  0  0  0  0  0  0
   21.1638  -21.8564  -14.1753 C   0  0  0  0  0  0  0  0  0  0  0  0
   22.0549  -22.2367  -14.9653 O   0  0  0  0  0  0  0  0  0  0  0  0
   20.1160  -22.7078  -13.8963 O   0  0  0  0  0  0  0  0  0  0  0  0
  2  1  1  0
  3  2  1  0
  4  3  1  0
  5  4  1  0
  5  6  1  6
  7  5  1  0
  8  7  2  0
  9  7  1  0
 10  9  1  0
 11 12  1  0
 10 11  1  6
 12 13  2  0
 13 14  1  0
 15 14  2  0
 16 15  1  0
 17 16  2  0
 17 12  1  0
 18 10  1  0
 18 19  2  0
 20 18  1  0
 21 22  1  6
 21 20  1  0
 23 22  1  0
 24 23  2  0
 25 24  1  0
 25 26  1  0
 26 27  2  0
 27 23  1  0
 28 21  1  0
 29 28  2  0
 30 28  1  0
M  END
$$$$
