MFH.pdb
     RDKit          3D

 30 31  0  0  1  0  0  0  0  0999 V2000
   27.3600  -19.1352  -18.5062 C   0  0  0  0  0  0  0  0  0  0  0  0
   28.0181  -17.5334  -17.9355 S   0  0  0  0  0  0  0  0  0  0  0  0
   28.4517  -17.7285  -16.1882 C   0  0  0  0  0  0  0  0  0  0  0  0
   27.5535  -18.7258  -15.4925 C   0  0  0  0  0  0  0  0  0  0  0  0
   27.7857  -18.7598  -13.9984 C   0  0  2  0  0  0  0  0  0  0  0  0
   29.1771  -19.1252  -13.7981 N   0  0  0  0  0  0  0  0  0  0  0  0
   26.8653  -19.7734  -13.4366 C   0  0  0  0  0  0  0  0  0  0  0  0
   26.2475  -20.5854  -14.1623 O   0  0  0  0  0  0  0  0  0  0  0  0
   26.6730  -19.8325  -12.0399 N   0  0  0  0  0  0  0  0  0  0  0  0
   25.7615  -20.8124  -11.4897 C   0  0  1  0  0  0  0  0  0  0  0  0
   25.9063  -20.9737  -10.0009 C   0  0  0  0  0  0  0  0  0  0  0  0
   27.2921  -21.0964   -9.5502 C   0  0  0  0  0  0  0  0  0  0  0  0
   28.2188  -21.7034  -10.3838 C   0  0  0  0  0  0  0  0  0  0  0  0
   29.5445  -21.8688  -10.0568 C   0  0  0  0  0  0  0  0  0  0  0  0
   29.9593  -21.3929   -8.8137 C   0  0  0  0  0  0  0  0  0  0  0  0
   29.0739  -20.7845   -7.9558 C   0  0  0  0  0  0  0  0  0  0  0  0
   27.7652  -20.6475   -8.3353 C   0  0  0  0  0  0  0  0  0  0  0  0
   24.3740  -20.2748  -11.7358 C   0  0  0  0  0  0  0  0  0  0  0  0
   24.1266  -19.0278  -11.6988 O   0  0  0  0  0  0  0  0  0  0  0  0
   23.2896  -21.1329  -12.0180 N   0  0  0  0  0  0  0  0  0  0  0  0
   22.2869  -20.7370  -13.0151 C   0  0  1  0  0  0  0  0  0  0  0  0
   22.9314  -20.6181  -14.3807 C   0  0  0  0  0  0  0  0  0  0  0  0
   21.9510  -20.3493  -15.4424 C   0  0  0  0  0  0  0  0  0  0  0  0
   20.5927  -20.2343  -15.2766 C   0  0  0  0  0  0  0  0  0  0  0  0
   20.0493  -20.0002  -16.4822 N   0  0  0  0  0  0  0  0  0  0  0  0
   21.0206  -19.9662  -17.3882 C   0  0  0  0  0  0  0  0  0  0  0  0
   22.1895  -20.1814  -16.7450 N   0  0  0  0  0  0  0  0  0  0  0  0
   21.1869  -21.7145  -12.9639 C   0  0  0  0  0  0  0  0  0  0  0  0
   21.4025  -22.9009  -12.6339 O   0  0  0  0  0  0  0  0  0  0  0  0
   19.8991  -21.3361  -13.2787 O   0  0  0  0  0  0  0  0  0  0  0  0
  2  1  1  0
  3  2  1  0
  4  3  1  0
  5  4  1  0
  5  6  1  6
  7  5  1  0
  8  7  2  0
  9  7  1  0
 10  9  1  0
 11 12  1  0
 10 11  1  1
 12 13  2  0
 13 14  1  0
 15 14  2  0
 16 15  1  0
 17 16  2  0
 17 12  1  0
 18 10  1  0
 18 19  2  0
 20 18  1  0
 21 22  1  6
 21 20  1  0
 23 22  1  0
 24 23  2  0
 25 24  1  0
 25 26  1  0
 26 27  2  0
 27 23  1  0
 28 21  1  0
 29 28  2  0
 30 28  1  0
M  END
$$$$
