MFH.pdb
     RDKit          3D

 30 31  0  0  1  0  0  0  0  0999 V2000
   23.3267  -22.4198  -18.9463 C   0  0  0  0  0  0  0  0  0  0  0  0
   24.0303  -20.7562  -19.1955 S   0  0  0  0  0  0  0  0  0  0  0  0
   25.8323  -20.9277  -19.1457 C   0  0  0  0  0  0  0  0  0  0  0  0
   26.2674  -22.0359  -18.2139 C   0  0  0  0  0  0  0  0  0  0  0  0
   27.1027  -21.5206  -17.0631 C   0  0  2  0  0  0  0  0  0  0  0  0
   28.3619  -22.2435  -17.1017 N   0  0  0  0  0  0  0  0  0  0  0  0
   26.3493  -21.7958  -15.8194 C   0  0  0  0  0  0  0  0  0  0  0  0
   25.8264  -22.9104  -15.5917 O   0  0  0  0  0  0  0  0  0  0  0  0
   26.2119  -20.7746  -14.8553 N   0  0  0  0  0  0  0  0  0  0  0  0
   25.4076  -21.0147  -13.6766 C   0  0  1  0  0  0  0  0  0  0  0  0
   25.7400  -20.0832  -12.5429 C   0  0  0  0  0  0  0  0  0  0  0  0
   24.9544  -20.3193  -11.3322 C   0  0  0  0  0  0  0  0  0  0  0  0
   23.7156  -19.7099  -11.2053 C   0  0  0  0  0  0  0  0  0  0  0  0
   22.8985  -19.8655  -10.1098 C   0  0  0  0  0  0  0  0  0  0  0  0
   23.3599  -20.6855   -9.0810 C   0  0  0  0  0  0  0  0  0  0  0  0
   24.5822  -21.3093   -9.1653 C   0  0  0  0  0  0  0  0  0  0  0  0
   25.3531  -21.1174  -10.2807 C   0  0  0  0  0  0  0  0  0  0  0  0
   23.9836  -20.7211  -14.0772 C   0  0  0  0  0  0  0  0  0  0  0  0
   23.6758  -19.6663  -14.7178 O   0  0  0  0  0  0  0  0  0  0  0  0
   22.9303  -21.6048  -13.7585 N   0  0  0  0  0  0  0  0  0  0  0  0
   21.5439  -21.2250  -14.0586 C   0  0  1  0  0  0  0  0  0  0  0  0
   20.9502  -22.1839  -15.0700 C   0  0  0  0  0  0  0  0  0  0  0  0
   19.5490  -21.8709  -15.3845 C   0  0  0  0  0  0  0  0  0  0  0  0
   18.7876  -20.8935  -14.7923 C   0  0  0  0  0  0  0  0  0  0  0  0
   17.5644  -20.9330  -15.3454 N   0  0  0  0  0  0  0  0  0  0  0  0
   17.5402  -21.8985  -16.2579 C   0  0  0  0  0  0  0  0  0  0  0  0
   18.7629  -22.4736  -16.2794 N   0  0  0  0  0  0  0  0  0  0  0  0
   20.8030  -21.1739  -12.7871 C   0  0  0  0  0  0  0  0  0  0  0  0
   21.1068  -21.9322  -11.8408 O   0  0  0  0  0  0  0  0  0  0  0  0
   19.7613  -20.2866  -12.6192 O   0  0  0  0  0  0  0  0  0  0  0  0
  2  1  1  0
  3  2  1  0
  4  3  1  0
  5  4  1  0
  5  6  1  1
  7  5  1  0
  8  7  2  0
  9  7  1  0
 10  9  1  0
 11 12  1  0
 10 11  1  1
 12 13  2  0
 13 14  1  0
 15 14  2  0
 16 15  1  0
 17 16  2  0
 17 12  1  0
 18 10  1  0
 18 19  2  0
 20 18  1  0
 21 22  1  6
 21 20  1  0
 23 22  1  0
 24 23  2  0
 25 24  1  0
 25 26  1  0
 26 27  2  0
 27 23  1  0
 28 21  1  0
 29 28  2  0
 30 28  1  0
M  END
$$$$
