MFH.pdb
     RDKit          3D

 30 31  0  0  1  0  0  0  0  0999 V2000
   23.4674  -18.8446  -19.1758 C   0  0  0  0  0  0  0  0  0  0  0  0
   25.0018  -18.7310  -20.1542 S   0  0  0  0  0  0  0  0  0  0  0  0
   26.2473  -19.7379  -19.3094 C   0  0  0  0  0  0  0  0  0  0  0  0
   25.7877  -20.1663  -17.9343 C   0  0  0  0  0  0  0  0  0  0  0  0
   26.8518  -20.9433  -17.1918 C   0  0  2  0  0  0  0  0  0  0  0  0
   27.1278  -22.1332  -17.9778 N   0  0  0  0  0  0  0  0  0  0  0  0
   26.2978  -21.2802  -15.8614 C   0  0  0  0  0  0  0  0  0  0  0  0
   25.4962  -22.2275  -15.6955 O   0  0  0  0  0  0  0  0  0  0  0  0
   26.6808  -20.5138  -14.7402 N   0  0  0  0  0  0  0  0  0  0  0  0
   26.1146  -20.8200  -13.4442 C   0  0  1  0  0  0  0  0  0  0  0  0
   26.8671  -20.1770  -12.3112 C   0  0  0  0  0  0  0  0  0  0  0  0
   26.2487  -20.3755  -11.0009 C   0  0  0  0  0  0  0  0  0  0  0  0
   25.7431  -19.2770  -10.3229 C   0  0  0  0  0  0  0  0  0  0  0  0
   25.1430  -19.3540   -9.0877 C   0  0  0  0  0  0  0  0  0  0  0  0
   25.0477  -20.6157   -8.5021 C   0  0  0  0  0  0  0  0  0  0  0  0
   25.5357  -21.7320   -9.1392 C   0  0  0  0  0  0  0  0  0  0  0  0
   26.1235  -21.5944  -10.3684 C   0  0  0  0  0  0  0  0  0  0  0  0
   24.7306  -20.2208  -13.4423 C   0  0  0  0  0  0  0  0  0  0  0  0
   24.5327  -19.0005  -13.7412 O   0  0  0  0  0  0  0  0  0  0  0  0
   23.5945  -20.9889  -13.1087 N   0  0  0  0  0  0  0  0  0  0  0  0
   22.2770  -20.3451  -13.0288 C   0  0  1  0  0  0  0  0  0  0  0  0
   21.4326  -20.7408  -14.2226 C   0  0  0  0  0  0  0  0  0  0  0  0
   21.0640  -19.5875  -15.0560 C   0  0  0  0  0  0  0  0  0  0  0  0
   21.3414  -18.2711  -14.7808 C   0  0  0  0  0  0  0  0  0  0  0  0
   20.8304  -17.5263  -15.7747 N   0  0  0  0  0  0  0  0  0  0  0  0
   20.2469  -18.3327  -16.6549 C   0  0  0  0  0  0  0  0  0  0  0  0
   20.3925  -19.6002  -16.2096 N   0  0  0  0  0  0  0  0  0  0  0  0
   21.6751  -20.7048  -11.7340 C   0  0  0  0  0  0  0  0  0  0  0  0
   21.9004  -21.8186  -11.2131 O   0  0  0  0  0  0  0  0  0  0  0  0
   20.8527  -19.8168  -11.0737 O   0  0  0  0  0  0  0  0  0  0  0  0
  2  1  1  0
  3  2  1  0
  4  3  1  0
  5  4  1  0
  5  6  1  6
  7  5  1  0
  8  7  2  0
  9  7  1  0
 10  9  1  0
 11 12  1  0
 10 11  1  1
 12 13  2  0
 13 14  1  0
 15 14  2  0
 16 15  1  0
 17 16  2  0
 17 12  1  0
 18 10  1  0
 18 19  2  0
 20 18  1  0
 21 22  1  6
 21 20  1  0
 23 22  1  0
 24 23  2  0
 25 24  1  0
 25 26  1  0
 26 27  2  0
 27 23  1  0
 28 21  1  0
 29 28  2  0
 30 28  1  0
M  END
$$$$
