MFH.pdb
     RDKit          3D

 30 31  0  0  1  0  0  0  0  0999 V2000
   25.5364  -16.6120  -16.1077 C   0  0  0  0  0  0  0  0  0  0  0  0
   27.3029  -16.3451  -16.4720 S   0  0  0  0  0  0  0  0  0  0  0  0
   28.2354  -17.5553  -15.4999 C   0  0  0  0  0  0  0  0  0  0  0  0
   27.3326  -18.6010  -14.8858 C   0  0  0  0  0  0  0  0  0  0  0  0
   28.0868  -19.5447  -13.9758 C   0  0  2  0  0  0  0  0  0  0  0  0
   28.9954  -20.3031  -14.8178 N   0  0  0  0  0  0  0  0  0  0  0  0
   27.0844  -20.4170  -13.3244 C   0  0  0  0  0  0  0  0  0  0  0  0
   26.7998  -21.5515  -13.7710 O   0  0  0  0  0  0  0  0  0  0  0  0
   26.4246  -19.9624  -12.1628 N   0  0  0  0  0  0  0  0  0  0  0  0
   25.5345  -20.8576  -11.4556 C   0  0  1  0  0  0  0  0  0  0  0  0
   25.2587  -20.4133  -10.0450 C   0  0  0  0  0  0  0  0  0  0  0  0
   26.4230  -20.4847   -9.1629 C   0  0  0  0  0  0  0  0  0  0  0  0
   26.5642  -19.5398   -8.1583 C   0  0  0  0  0  0  0  0  0  0  0  0
   27.6194  -19.5170   -7.2764 C   0  0  0  0  0  0  0  0  0  0  0  0
   28.5902  -20.5077   -7.4174 C   0  0  0  0  0  0  0  0  0  0  0  0
   28.4899  -21.4644   -8.3997 C   0  0  0  0  0  0  0  0  0  0  0  0
   27.4163  -21.4372   -9.2495 C   0  0  0  0  0  0  0  0  0  0  0  0
   24.2197  -20.8057  -12.1927 C   0  0  0  0  0  0  0  0  0  0  0  0
   23.7870  -19.7263  -12.7077 O   0  0  0  0  0  0  0  0  0  0  0  0
   23.4123  -21.9535  -12.3429 N   0  0  0  0  0  0  0  0  0  0  0  0
   22.2029  -21.8905  -13.1734 C   0  0  1  0  0  0  0  0  0  0  0  0
   21.8569  -23.2708  -13.6925 C   0  0  0  0  0  0  0  0  0  0  0  0
   20.6215  -23.2775  -14.4889 C   0  0  0  0  0  0  0  0  0  0  0  0
   19.7688  -22.2156  -14.6649 C   0  0  0  0  0  0  0  0  0  0  0  0
   18.7558  -22.6261  -15.4451 N   0  0  0  0  0  0  0  0  0  0  0  0
   18.9496  -23.9027  -15.7587 C   0  0  0  0  0  0  0  0  0  0  0  0
   20.0984  -24.3003  -15.1686 N   0  0  0  0  0  0  0  0  0  0  0  0
   21.1330  -21.2762  -12.3694 C   0  0  0  0  0  0  0  0  0  0  0  0
   21.2311  -21.2045  -11.1252 O   0  0  0  0  0  0  0  0  0  0  0  0
   20.0044  -20.7685  -12.9771 O   0  0  0  0  0  0  0  0  0  0  0  0
  2  1  1  0
  3  2  1  0
  4  3  1  0
  5  4  1  0
  5  6  1  6
  7  5  1  0
  8  7  2  0
  9  7  1  0
 10  9  1  0
 11 12  1  0
 10 11  1  1
 12 13  2  0
 13 14  1  0
 15 14  2  0
 16 15  1  0
 17 16  2  0
 17 12  1  0
 18 10  1  0
 18 19  2  0
 20 18  1  0
 21 22  1  1
 21 20  1  0
 23 22  1  0
 24 23  2  0
 25 24  1  0
 25 26  1  0
 26 27  2  0
 27 23  1  0
 28 21  1  0
 29 28  2  0
 30 28  1  0
M  END
$$$$
