MFH.pdb
     RDKit          3D

 30 31  0  0  1  0  0  0  0  0999 V2000
   28.9554  -18.2927   -4.7917 C   0  0  0  0  0  0  0  0  0  0  0  0
   27.8695  -19.7360   -4.5417 S   0  0  0  0  0  0  0  0  0  0  0  0
   27.9990  -20.7629   -6.0275 C   0  0  0  0  0  0  0  0  0  0  0  0
   27.2149  -20.1838   -7.1830 C   0  0  0  0  0  0  0  0  0  0  0  0
   27.2240  -21.0918   -8.3926 C   0  0  2  0  0  0  0  0  0  0  0  0
   28.6123  -21.2469   -8.7906 N   0  0  0  0  0  0  0  0  0  0  0  0
   26.4224  -20.4265   -9.4437 C   0  0  0  0  0  0  0  0  0  0  0  0
   26.6826  -19.2698   -9.8461 O   0  0  0  0  0  0  0  0  0  0  0  0
   25.3288  -21.1113  -10.0150 N   0  0  0  0  0  0  0  0  0  0  0  0
   24.7265  -20.6007  -11.2276 C   0  0  1  0  0  0  0  0  0  0  0  0
   25.2491  -21.2734  -12.4676 C   0  0  0  0  0  0  0  0  0  0  0  0
   26.4865  -20.6883  -12.9825 C   0  0  0  0  0  0  0  0  0  0  0  0
   27.7005  -21.2338  -12.5940 C   0  0  0  0  0  0  0  0  0  0  0  0
   28.9197  -20.7600  -13.0194 C   0  0  0  0  0  0  0  0  0  0  0  0
   28.9126  -19.6703  -13.8890 C   0  0  0  0  0  0  0  0  0  0  0  0
   27.7318  -19.0983  -14.2998 C   0  0  0  0  0  0  0  0  0  0  0  0
   26.5477  -19.6128  -13.8433 C   0  0  0  0  0  0  0  0  0  0  0  0
   23.2589  -20.9360  -11.1367 C   0  0  0  0  0  0  0  0  0  0  0  0
   22.8558  -22.1370  -11.0230 O   0  0  0  0  0  0  0  0  0  0  0  0
   22.2687  -19.9310  -11.1738 N   0  0  0  0  0  0  0  0  0  0  0  0
   21.4598  -19.7490  -12.3858 C   0  0  1  0  0  0  0  0  0  0  0  0
   22.3183  -19.1966  -13.5050 C   0  0  0  0  0  0  0  0  0  0  0  0
   21.5658  -19.0222  -14.7555 C   0  0  0  0  0  0  0  0  0  0  0  0
   21.2870  -20.0045  -15.6736 C   0  0  0  0  0  0  0  0  0  0  0  0
   20.5931  -19.4444  -16.6778 N   0  0  0  0  0  0  0  0  0  0  0  0
   20.4321  -18.1518  -16.4156 C   0  0  0  0  0  0  0  0  0  0  0  0
   21.0318  -17.8953  -15.2320 N   0  0  0  0  0  0  0  0  0  0  0  0
   20.8289  -21.0401  -12.7072 C   0  0  0  0  0  0  0  0  0  0  0  0
   21.5151  -22.0815  -12.7936 O   0  0  0  0  0  0  0  0  0  0  0  0
   19.4688  -21.1215  -12.9172 O   0  0  0  0  0  0  0  0  0  0  0  0
  2  1  1  0
  3  2  1  0
  4  3  1  0
  5  4  1  0
  5  6  1  6
  7  5  1  0
  8  7  2  0
  9  7  1  0
 10  9  1  0
 11 12  1  0
 10 11  1  6
 12 13  2  0
 13 14  1  0
 15 14  2  0
 16 15  1  0
 17 16  2  0
 17 12  1  0
 18 10  1  0
 18 19  2  0
 20 18  1  0
 21 22  1  6
 21 20  1  0
 23 22  1  0
 24 23  2  0
 25 24  1  0
 25 26  1  0
 26 27  2  0
 27 23  1  0
 28 21  1  0
 29 28  2  0
 30 28  1  0
M  END
$$$$
