MFH.pdb
     RDKit          3D

 30 31  0  0  1  0  0  0  0  0999 V2000
   24.9883  -22.8730  -14.9155 C   0  0  0  0  0  0  0  0  0  0  0  0
   26.0727  -21.7337  -15.8378 S   0  0  0  0  0  0  0  0  0  0  0  0
   27.6818  -21.7416  -15.0075 C   0  0  0  0  0  0  0  0  0  0  0  0
   27.5554  -22.0663  -13.5364 C   0  0  0  0  0  0  0  0  0  0  0  0
   27.3452  -20.8283  -12.6934 C   0  0  2  0  0  0  0  0  0  0  0  0
   28.4218  -19.9098  -13.0208 N   0  0  0  0  0  0  0  0  0  0  0  0
   27.3963  -21.2514  -11.2762 C   0  0  0  0  0  0  0  0  0  0  0  0
   26.8645  -22.3134  -10.8798 O   0  0  0  0  0  0  0  0  0  0  0  0
   28.0635  -20.4374  -10.3364 N   0  0  0  0  0  0  0  0  0  0  0  0
   27.8507  -20.6640   -8.9231 C   0  0  1  0  0  0  0  0  0  0  0  0
   28.8742  -19.9770   -8.0606 C   0  0  0  0  0  0  0  0  0  0  0  0
   28.6259  -20.1109   -6.6257 C   0  0  0  0  0  0  0  0  0  0  0  0
   27.8042  -19.1883   -5.9967 C   0  0  0  0  0  0  0  0  0  0  0  0
   27.5064  -19.2237   -4.6544 C   0  0  0  0  0  0  0  0  0  0  0  0
   28.0723  -20.2521   -3.9022 C   0  0  0  0  0  0  0  0  0  0  0  0
   28.8929  -21.1885   -4.4852 C   0  0  0  0  0  0  0  0  0  0  0  0
   29.1541  -21.1030   -5.8268 C   0  0  0  0  0  0  0  0  0  0  0  0
   26.5174  -20.0387   -8.5973 C   0  0  0  0  0  0  0  0  0  0  0  0
   26.2607  -18.8276   -8.8887 O   0  0  0  0  0  0  0  0  0  0  0  0
   25.4964  -20.7711   -7.9546 N   0  0  0  0  0  0  0  0  0  0  0  0
   24.1012  -20.6061   -8.3820 C   0  0  1  0  0  0  0  0  0  0  0  0
   23.9864  -20.8269   -9.8762 C   0  0  0  0  0  0  0  0  0  0  0  0
   22.6011  -20.7157  -10.3549 C   0  0  0  0  0  0  0  0  0  0  0  0
   21.5003  -20.4364   -9.5831 C   0  0  0  0  0  0  0  0  0  0  0  0
   20.4242  -20.4337  -10.3866 N   0  0  0  0  0  0  0  0  0  0  0  0
   20.8180  -20.7010  -11.6272 C   0  0  0  0  0  0  0  0  0  0  0  0
   22.1580  -20.8740  -11.6041 N   0  0  0  0  0  0  0  0  0  0  0  0
   23.2715  -21.5240   -7.5836 C   0  0  0  0  0  0  0  0  0  0  0  0
   22.2389  -21.1151   -7.0099 O   0  0  0  0  0  0  0  0  0  0  0  0
   23.6204  -22.8518   -7.4566 O   0  0  0  0  0  0  0  0  0  0  0  0
  2  1  1  0
  3  2  1  0
  4  3  1  0
  5  4  1  0
  5  6  1  1
  7  5  1  0
  8  7  2  0
  9  7  1  0
 10  9  1  0
 11 12  1  0
 10 11  1  1
 12 13  2  0
 13 14  1  0
 15 14  2  0
 16 15  1  0
 17 16  2  0
 17 12  1  0
 18 10  1  0
 18 19  2  0
 20 18  1  0
 21 22  1  6
 21 20  1  0
 23 22  1  0
 24 23  2  0
 25 24  1  0
 25 26  1  0
 26 27  2  0
 27 23  1  0
 28 21  1  0
 29 28  2  0
 30 28  1  0
M  END
$$$$
