MFH.pdb
     RDKit          3D

 30 31  0  0  1  0  0  0  0  0999 V2000
   23.0183  -20.6695  -19.8332 C   0  0  0  0  0  0  0  0  0  0  0  0
   24.5486  -20.4352  -20.7964 S   0  0  0  0  0  0  0  0  0  0  0  0
   25.9251  -20.9634  -19.7451 C   0  0  0  0  0  0  0  0  0  0  0  0
   26.0819  -20.0738  -18.5328 C   0  0  0  0  0  0  0  0  0  0  0  0
   27.1928  -20.5422  -17.6195 C   0  0  2  0  0  0  0  0  0  0  0  0
   27.8968  -21.6000  -18.3232 N   0  0  0  0  0  0  0  0  0  0  0  0
   26.5575  -21.0369  -16.3778 C   0  0  0  0  0  0  0  0  0  0  0  0
   26.0219  -22.1665  -16.3094 O   0  0  0  0  0  0  0  0  0  0  0  0
   26.5515  -20.2149  -15.2308 N   0  0  0  0  0  0  0  0  0  0  0  0
   25.9418  -20.7014  -14.0120 C   0  0  1  0  0  0  0  0  0  0  0  0
   26.3952  -19.9484  -12.7910 C   0  0  0  0  0  0  0  0  0  0  0  0
   25.7223  -20.3575  -11.5587 C   0  0  0  0  0  0  0  0  0  0  0  0
   26.1509  -21.5041  -10.9077 C   0  0  0  0  0  0  0  0  0  0  0  0
   25.5879  -21.9755   -9.7447 C   0  0  0  0  0  0  0  0  0  0  0  0
   24.5288  -21.2455   -9.2069 C   0  0  0  0  0  0  0  0  0  0  0  0
   24.0717  -20.1027   -9.8195 C   0  0  0  0  0  0  0  0  0  0  0  0
   24.6714  -19.6810  -10.9762 C   0  0  0  0  0  0  0  0  0  0  0  0
   24.4624  -20.4462  -14.1558 C   0  0  0  0  0  0  0  0  0  0  0  0
   24.0153  -19.3206  -14.5441 O   0  0  0  0  0  0  0  0  0  0  0  0
   23.5095  -21.4461  -13.8655 N   0  0  0  0  0  0  0  0  0  0  0  0
   22.0789  -21.1151  -13.8767 C   0  0  1  0  0  0  0  0  0  0  0  0
   21.3367  -22.0510  -14.8083 C   0  0  0  0  0  0  0  0  0  0  0  0
   21.2898  -21.5479  -16.1886 C   0  0  0  0  0  0  0  0  0  0  0  0
   21.7233  -20.3164  -16.6141 C   0  0  0  0  0  0  0  0  0  0  0  0
   21.4987  -20.2350  -17.9357 N   0  0  0  0  0  0  0  0  0  0  0  0
   20.9421  -21.3704  -18.3441 C   0  0  0  0  0  0  0  0  0  0  0  0
   20.8150  -22.1759  -17.2666 N   0  0  0  0  0  0  0  0  0  0  0  0
   21.5935  -21.1570  -12.4871 C   0  0  0  0  0  0  0  0  0  0  0  0
   22.2231  -21.7873  -11.6102 O   0  0  0  0  0  0  0  0  0  0  0  0
   20.4354  -20.4997  -12.1302 O   0  0  0  0  0  0  0  0  0  0  0  0
  2  1  1  0
  3  2  1  0
  4  3  1  0
  5  4  1  0
  5  6  1  6
  7  5  1  0
  8  7  2  0
  9  7  1  0
 10  9  1  0
 11 12  1  0
 10 11  1  1
 12 13  2  0
 13 14  1  0
 15 14  2  0
 16 15  1  0
 17 16  2  0
 17 12  1  0
 18 10  1  0
 18 19  2  0
 20 18  1  0
 21 22  1  6
 21 20  1  0
 23 22  1  0
 24 23  2  0
 25 24  1  0
 25 26  1  0
 26 27  2  0
 27 23  1  0
 28 21  1  0
 29 28  2  0
 30 28  1  0
M  END
$$$$
