MFH.pdb
     RDKit          3D

 30 31  0  0  1  0  0  0  0  0999 V2000
   13.5236   -9.9589  -14.6843 C   0  0  0  0  0  0  0  0  0  0  0  0
   13.1231  -10.7089  -16.2972 S   0  0  0  0  0  0  0  0  0  0  0  0
   14.6675  -11.3670  -16.9761 C   0  0  0  0  0  0  0  0  0  0  0  0
   15.7952  -10.3641  -16.8865 C   0  0  0  0  0  0  0  0  0  0  0  0
   17.1510  -11.0316  -16.8279 C   0  0  2  0  0  0  0  0  0  0  0  0
   16.9296  -12.4511  -17.0413 N   0  0  0  0  0  0  0  0  0  0  0  0
   17.7140  -10.7591  -15.4866 C   0  0  0  0  0  0  0  0  0  0  0  0
   17.7448  -11.6312  -14.5888 O   0  0  0  0  0  0  0  0  0  0  0  0
   18.2343   -9.4783  -15.2036 N   0  0  0  0  0  0  0  0  0  0  0  0
   18.9361   -9.2566  -13.9577 C   0  0  1  0  0  0  0  0  0  0  0  0
   20.2370   -8.5238  -14.1424 C   0  0  0  0  0  0  0  0  0  0  0  0
   20.9858   -8.3241  -12.9022 C   0  0  0  0  0  0  0  0  0  0  0  0
   20.9992   -7.0658  -12.3203 C   0  0  0  0  0  0  0  0  0  0  0  0
   21.6707   -6.7716  -11.1565 C   0  0  0  0  0  0  0  0  0  0  0  0
   22.3705   -7.8100  -10.5437 C   0  0  0  0  0  0  0  0  0  0  0  0
   22.3841   -9.0732  -11.0862 C   0  0  0  0  0  0  0  0  0  0  0  0
   21.6969   -9.3074  -12.2474 C   0  0  0  0  0  0  0  0  0  0  0  0
   18.0462   -8.3615  -13.1322 C   0  0  0  0  0  0  0  0  0  0  0  0
   17.4399   -7.3683  -13.6457 O   0  0  0  0  0  0  0  0  0  0  0  0
   17.8478   -8.5875  -11.7532 N   0  0  0  0  0  0  0  0  0  0  0  0
   16.8866   -7.7625  -11.0102 C   0  0  1  0  0  0  0  0  0  0  0  0
   16.2821   -8.5641   -9.8760 C   0  0  0  0  0  0  0  0  0  0  0  0
   15.3888   -7.7572   -9.0325 C   0  0  0  0  0  0  0  0  0  0  0  0
   15.1225   -6.4191   -9.1879 C   0  0  0  0  0  0  0  0  0  0  0  0
   14.2716   -6.0532   -8.2154 N   0  0  0  0  0  0  0  0  0  0  0  0
   14.0013   -7.1150   -7.4637 C   0  0  0  0  0  0  0  0  0  0  0  0
   14.6904   -8.1618   -7.9692 N   0  0  0  0  0  0  0  0  0  0  0  0
   17.5839   -6.5438  -10.5664 C   0  0  0  0  0  0  0  0  0  0  0  0
   18.6224   -6.6191   -9.8746 O   0  0  0  0  0  0  0  0  0  0  0  0
   17.1023   -5.2981  -10.9083 O   0  0  0  0  0  0  0  0  0  0  0  0
  2  1  1  0
  3  2  1  0
  4  3  1  0
  5  4  1  0
  5  6  1  1
  7  5  1  0
  8  7  2  0
  9  7  1  0
 10  9  1  0
 11 12  1  0
 10 11  1  6
 12 13  2  0
 13 14  1  0
 15 14  2  0
 16 15  1  0
 17 16  2  0
 17 12  1  0
 18 10  1  0
 18 19  2  0
 20 18  1  0
 21 22  1  1
 21 20  1  0
 23 22  1  0
 24 23  2  0
 25 24  1  0
 25 26  1  0
 26 27  2  0
 27 23  1  0
 28 21  1  0
 29 28  2  0
 30 28  1  0
M  END
$$$$
