MFH.pdb
     RDKit          3D

 30 31  0  0  1  0  0  0  0  0999 V2000
   20.6291  -35.6642    5.0906 C   0  0  0  0  0  0  0  0  0  0  0  0
   21.8628  -36.5459    4.0781 S   0  0  0  0  0  0  0  0  0  0  0  0
   23.1304  -37.1718    5.2097 C   0  0  0  0  0  0  0  0  0  0  0  0
   23.9777  -36.0568    5.7793 C   0  0  0  0  0  0  0  0  0  0  0  0
   25.3061  -35.9273    5.0680 C   0  0  2  0  0  0  0  0  0  0  0  0
   26.0216  -37.1726    5.2851 N   0  0  0  0  0  0  0  0  0  0  0  0
   26.0133  -34.7754    5.6706 C   0  0  0  0  0  0  0  0  0  0  0  0
   26.6866  -34.8838    6.7205 O   0  0  0  0  0  0  0  0  0  0  0  0
   25.9305  -33.5119    5.0476 N   0  0  0  0  0  0  0  0  0  0  0  0
   26.6639  -32.3961    5.6051 C   0  0  1  0  0  0  0  0  0  0  0  0
   27.1168  -31.4137    4.5595 C   0  0  0  0  0  0  0  0  0  0  0  0
   27.7453  -30.2124    5.1077 C   0  0  0  0  0  0  0  0  0  0  0  0
   29.0586  -30.2815    5.5465 C   0  0  0  0  0  0  0  0  0  0  0  0
   29.7418  -29.2123    6.0775 C   0  0  0  0  0  0  0  0  0  0  0  0
   29.0580  -28.0010    6.1711 C   0  0  0  0  0  0  0  0  0  0  0  0
   27.7548  -27.8877    5.7480 C   0  0  0  0  0  0  0  0  0  0  0  0
   27.1250  -28.9867    5.2274 C   0  0  0  0  0  0  0  0  0  0  0  0
   25.6934  -31.6642    6.4979 C   0  0  0  0  0  0  0  0  0  0  0  0
   24.5902  -31.2131    6.0540 O   0  0  0  0  0  0  0  0  0  0  0  0
   25.9677  -31.4482    7.8654 N   0  0  0  0  0  0  0  0  0  0  0  0
   24.9535  -30.8206    8.7221 C   0  0  1  0  0  0  0  0  0  0  0  0
   24.9171  -31.5071   10.0719 C   0  0  0  0  0  0  0  0  0  0  0  0
   24.0290  -32.6783   10.0819 C   0  0  0  0  0  0  0  0  0  0  0  0
   22.9290  -32.8641    9.2813 C   0  0  0  0  0  0  0  0  0  0  0  0
   22.3819  -34.0480    9.6019 N   0  0  0  0  0  0  0  0  0  0  0  0
   23.1022  -34.6019   10.5713 C   0  0  0  0  0  0  0  0  0  0  0  0
   24.1149  -33.7564   10.8643 N   0  0  0  0  0  0  0  0  0  0  0  0
   25.2538  -29.3811    8.7991 C   0  0  0  0  0  0  0  0  0  0  0  0
   24.4385  -28.5859    9.3145 O   0  0  0  0  0  0  0  0  0  0  0  0
   26.4418  -28.8865    8.3042 O   0  0  0  0  0  0  0  0  0  0  0  0
  2  1  1  0
  3  2  1  0
  4  3  1  0
  5  4  1  0
  5  6  1  1
  7  5  1  0
  8  7  2  0
  9  7  1  0
 10  9  1  0
 11 12  1  0
 10 11  1  6
 12 13  2  0
 13 14  1  0
 15 14  2  0
 16 15  1  0
 17 16  2  0
 17 12  1  0
 18 10  1  0
 18 19  2  0
 20 18  1  0
 21 22  1  1
 21 20  1  0
 23 22  1  0
 24 23  2  0
 25 24  1  0
 25 26  1  0
 26 27  2  0
 27 23  1  0
 28 21  1  0
 29 28  2  0
 30 28  1  0
M  END
$$$$
