ETG.pdb
     RDKit          3D

 21 20  0  0  1  0  0  0  0  0999 V2000
   18.5701  -12.6855  -16.4772 N   0  0  0  0  0  0  0  0  0  0  0  0
   18.2736  -11.2824  -16.3447 C   0  0  1  0  0  0  0  0  0  0  0  0
   17.3149  -10.9952  -15.2239 C   0  0  0  0  0  0  0  0  0  0  0  0
   15.9421  -11.5476  -15.4128 C   0  0  0  0  0  0  0  0  0  0  0  0
   14.9707  -11.1882  -14.3804 C   0  0  0  0  0  0  0  0  0  0  0  0
   13.8355  -10.7909  -14.6992 O   0  0  0  0  0  0  0  0  0  0  0  0
   19.5683  -10.6140  -15.9502 C   0  0  0  0  0  0  0  0  0  0  0  0
   20.4350  -11.2784  -15.3312 O   0  0  0  0  0  0  0  0  0  0  0  0
   15.3364  -11.2981  -13.0544 O   0  0  0  0  0  0  0  0  0  0  0  0
   21.8246   -9.4368  -18.2322 C   0  0  0  0  0  0  0  0  0  0  0  0
   21.7357   -8.2605  -17.2992 C   0  0  1  0  0  0  0  0  0  0  0  0
   20.6902   -7.4260  -17.7874 O   0  0  0  0  0  0  0  0  0  0  0  0
   21.2041   -8.7620  -15.9576 C   0  0  2  0  0  0  0  0  0  0  0  0
   19.8471   -9.2648  -16.2500 N   0  0  0  0  0  0  0  0  0  0  0  0
   21.1599   -7.7435  -14.9079 C   0  0  0  0  0  0  0  0  0  0  0  0
   20.0561   -7.0992  -14.7612 O   0  0  0  0  0  0  0  0  0  0  0  0
   22.1728   -7.3670  -14.0220 N   0  0  0  0  0  0  0  0  0  0  0  0
   21.9619   -6.3786  -12.9763 C   0  0  0  0  0  0  0  0  0  0  0  0
   22.0005   -5.0142  -13.5805 C   0  0  0  0  0  0  0  0  0  0  0  0
   21.9208   -3.9628  -12.9071 O   0  0  0  0  0  0  0  0  0  0  0  0
   22.1302   -4.9052  -14.9464 O   0  0  0  0  0  0  0  0  0  0  0  0
  2  1  1  1
  3  2  1  0
  4  3  1  0
  5  6  2  0
  5  4  1  0
  7  8  2  0
  7  2  1  0
  9  5  1  0
 11 10  1  6
 11 13  1  0
 12 11  1  0
 13 14  1  6
 13 15  1  0
 14  7  1  0
 15 17  1  0
 16 15  2  0
 17 18  1  0
 19 21  1  0
 19 18  1  0
 20 19  2  0
M  END
$$$$
