ETG.pdb
     RDKit          3D

 21 20  0  0  1  0  0  0  0  0999 V2000
   19.4394  -12.8736  -16.1420 N   0  0  0  0  0  0  0  0  0  0  0  0
   18.9371  -11.5264  -16.0573 C   0  0  1  0  0  0  0  0  0  0  0  0
   17.6009  -11.4471  -15.3746 C   0  0  0  0  0  0  0  0  0  0  0  0
   16.4685  -12.0506  -16.1354 C   0  0  0  0  0  0  0  0  0  0  0  0
   15.1514  -11.9209  -15.5135 C   0  0  0  0  0  0  0  0  0  0  0  0
   15.0013  -12.1757  -14.3049 O   0  0  0  0  0  0  0  0  0  0  0  0
   19.8934  -10.7762  -15.1622 C   0  0  0  0  0  0  0  0  0  0  0  0
   20.3686  -11.3547  -14.1547 O   0  0  0  0  0  0  0  0  0  0  0  0
   14.0857  -11.5129  -16.2893 O   0  0  0  0  0  0  0  0  0  0  0  0
   22.6785  -10.7911  -15.0477 C   0  0  0  0  0  0  0  0  0  0  0  0
   22.6337   -9.2883  -15.0899 C   0  0  1  0  0  0  0  0  0  0  0  0
   22.5606   -8.9170  -16.4627 O   0  0  0  0  0  0  0  0  0  0  0  0
   21.2887   -8.8405  -14.5201 C   0  0  2  0  0  0  0  0  0  0  0  0
   20.2782   -9.4429  -15.4121 N   0  0  0  0  0  0  0  0  0  0  0  0
   21.1155   -7.3891  -14.4532 C   0  0  0  0  0  0  0  0  0  0  0  0
   20.3716   -6.8446  -15.3504 O   0  0  0  0  0  0  0  0  0  0  0  0
   21.6570   -6.4931  -13.5276 N   0  0  0  0  0  0  0  0  0  0  0  0
   21.3177   -5.0790  -13.5259 C   0  0  0  0  0  0  0  0  0  0  0  0
   22.0828   -4.3931  -14.6087 C   0  0  0  0  0  0  0  0  0  0  0  0
   22.8995   -4.9824  -15.3511 O   0  0  0  0  0  0  0  0  0  0  0  0
   21.8813   -3.0453  -14.8016 O   0  0  0  0  0  0  0  0  0  0  0  0
  2  1  1  1
  3  2  1  0
  4  3  1  0
  5  6  2  0
  5  4  1  0
  7  8  2  0
  7  2  1  0
  9  5  1  0
 11 10  1  6
 11 13  1  0
 12 11  1  0
 13 14  1  6
 13 15  1  0
 14  7  1  0
 15 17  1  0
 16 15  2  0
 17 18  1  0
 19 21  1  0
 19 18  1  0
 20 19  2  0
M  END
$$$$
