ETG.pdb
     RDKit          3D

 21 20  0  0  1  0  0  0  0  0999 V2000
   16.1871  -11.5840  -15.1852 N   0  0  0  0  0  0  0  0  0  0  0  0
   17.6156  -11.4884  -15.0279 C   0  0  1  0  0  0  0  0  0  0  0  0
   18.3671  -12.2972  -16.0472 C   0  0  0  0  0  0  0  0  0  0  0  0
   18.1795  -13.7734  -15.9420 C   0  0  0  0  0  0  0  0  0  0  0  0
   18.8915  -14.5717  -16.9392 C   0  0  0  0  0  0  0  0  0  0  0  0
   19.9491  -15.1534  -16.6374 O   0  0  0  0  0  0  0  0  0  0  0  0
   17.9746  -10.0495  -15.3093 C   0  0  0  0  0  0  0  0  0  0  0  0
   17.5276   -9.4997  -16.3455 O   0  0  0  0  0  0  0  0  0  0  0  0
   18.3696  -14.6660  -18.2131 O   0  0  0  0  0  0  0  0  0  0  0  0
   16.6074   -7.9314  -15.4328 C   0  0  0  0  0  0  0  0  0  0  0  0
   17.5801   -7.2441  -14.5142 C   0  0  1  0  0  0  0  0  0  0  0  0
   17.2509   -7.6484  -13.1891 O   0  0  0  0  0  0  0  0  0  0  0  0
   18.9610   -7.8545  -14.7480 C   0  0  2  0  0  0  0  0  0  0  0  0
   18.7971   -9.2914  -14.4509 N   0  0  0  0  0  0  0  0  0  0  0  0
   20.0229   -7.2769  -13.9233 C   0  0  0  0  0  0  0  0  0  0  0  0
   20.3306   -7.9005  -12.8410 O   0  0  0  0  0  0  0  0  0  0  0  0
   20.7666   -6.1169  -14.1551 N   0  0  0  0  0  0  0  0  0  0  0  0
   21.8706   -5.7179  -13.2967 C   0  0  0  0  0  0  0  0  0  0  0  0
   22.5101   -4.4936  -13.8627 C   0  0  0  0  0  0  0  0  0  0  0  0
   22.2094   -4.0159  -14.9792 O   0  0  0  0  0  0  0  0  0  0  0  0
   23.4790   -3.8570  -13.1209 O   0  0  0  0  0  0  0  0  0  0  0  0
  2  1  1  6
  3  2  1  0
  4  3  1  0
  5  6  2  0
  5  4  1  0
  7  8  2  0
  7  2  1  0
  9  5  1  0
 11 10  1  6
 11 13  1  0
 12 11  1  0
 13 14  1  1
 13 15  1  0
 14  7  1  0
 15 17  1  0
 16 15  2  0
 17 18  1  0
 19 21  1  0
 19 18  1  0
 20 19  2  0
M  END
$$$$
