ETG.pdb
     RDKit          3D

 21 20  0  0  1  0  0  0  0  0999 V2000
   22.7095  -13.1482  -18.6059 N   0  0  0  0  0  0  0  0  0  0  0  0
   22.8250  -11.7470  -18.9187 C   0  0  1  0  0  0  0  0  0  0  0  0
   21.5365  -11.1554  -19.4164 C   0  0  0  0  0  0  0  0  0  0  0  0
   21.0344  -11.7291  -20.6986 C   0  0  0  0  0  0  0  0  0  0  0  0
   19.7879  -11.1528  -21.2014 C   0  0  0  0  0  0  0  0  0  0  0  0
   18.6936  -11.5360  -20.7502 O   0  0  0  0  0  0  0  0  0  0  0  0
   23.1134  -11.0467  -17.6130 C   0  0  0  0  0  0  0  0  0  0  0  0
   22.4909  -11.3976  -16.5809 O   0  0  0  0  0  0  0  0  0  0  0  0
   19.8501  -10.1820  -22.1800 O   0  0  0  0  0  0  0  0  0  0  0  0
   26.1291  -11.0341  -15.9763 C   0  0  0  0  0  0  0  0  0  0  0  0
   25.7901   -9.5696  -15.9248 C   0  0  1  0  0  0  0  0  0  0  0  0
   26.3774   -8.9704  -17.0754 O   0  0  0  0  0  0  0  0  0  0  0  0
   24.2884   -9.4246  -16.1659 C   0  0  2  0  0  0  0  0  0  0  0  0
   24.0598  -10.0073  -17.5030 N   0  0  0  0  0  0  0  0  0  0  0  0
   23.8001   -8.0461  -16.1155 C   0  0  0  0  0  0  0  0  0  0  0  0
   23.9319   -7.3373  -17.1808 O   0  0  0  0  0  0  0  0  0  0  0  0
   23.1954   -7.3791  -15.0468 N   0  0  0  0  0  0  0  0  0  0  0  0
   22.9023   -5.9552  -15.0862 C   0  0  0  0  0  0  0  0  0  0  0  0
   22.2581   -5.5547  -13.8006 C   0  0  0  0  0  0  0  0  0  0  0  0
   21.9592   -6.3696  -12.8995 O   0  0  0  0  0  0  0  0  0  0  0  0
   21.9782   -4.2230  -13.5942 O   0  0  0  0  0  0  0  0  0  0  0  0
  2  1  1  1
  3  2  1  0
  4  3  1  0
  5  6  2  0
  5  4  1  0
  7  8  2  0
  7  2  1  0
  9  5  1  0
 11 10  1  6
 11 13  1  0
 12 11  1  0
 13 14  1  6
 13 15  1  0
 14  7  1  0
 15 17  1  0
 16 15  2  0
 17 18  1  0
 19 21  1  0
 19 18  1  0
 20 19  2  0
M  END
$$$$
