ETG.pdb
     RDKit          3D

 21 20  0  0  1  0  0  0  0  0999 V2000
   20.5637  -11.8984  -17.3328 N   0  0  0  0  0  0  0  0  0  0  0  0
   19.7335  -10.8397  -16.8186 C   0  0  1  0  0  0  0  0  0  0  0  0
   19.5975  -10.8833  -15.3228 C   0  0  0  0  0  0  0  0  0  0  0  0
   18.7413  -11.9875  -14.8005 C   0  0  0  0  0  0  0  0  0  0  0  0
   17.3268  -11.9142  -15.1646 C   0  0  0  0  0  0  0  0  0  0  0  0
   16.8580  -12.6907  -16.0162 O   0  0  0  0  0  0  0  0  0  0  0  0
   20.4592   -9.5511  -17.1210 C   0  0  0  0  0  0  0  0  0  0  0  0
   21.7123   -9.5584  -17.1945 O   0  0  0  0  0  0  0  0  0  0  0  0
   16.5283  -10.9726  -14.5483 O   0  0  0  0  0  0  0  0  0  0  0  0
   19.8319   -7.4319  -20.0373 C   0  0  0  0  0  0  0  0  0  0  0  0
   19.8008   -6.5032  -18.8546 C   0  0  1  0  0  0  0  0  0  0  0  0
   18.4603   -6.4932  -18.3742 O   0  0  0  0  0  0  0  0  0  0  0  0
   20.5884   -7.1575  -17.7207 C   0  0  2  0  0  0  0  0  0  0  0  0
   19.7836   -8.3306  -17.3260 N   0  0  0  0  0  0  0  0  0  0  0  0
   20.8250   -6.2855  -16.5696 C   0  0  0  0  0  0  0  0  0  0  0  0
   21.5069   -5.2142  -16.7750 O   0  0  0  0  0  0  0  0  0  0  0  0
   20.4016   -6.4587  -15.2493 N   0  0  0  0  0  0  0  0  0  0  0  0
   20.7616   -5.5293  -14.1902 C   0  0  0  0  0  0  0  0  0  0  0  0
   22.1197   -5.8773  -13.6776 C   0  0  0  0  0  0  0  0  0  0  0  0
   22.8429   -6.7584  -14.1932 O   0  0  0  0  0  0  0  0  0  0  0  0
   22.6021   -5.1959  -12.5833 O   0  0  0  0  0  0  0  0  0  0  0  0
  2  1  1  1
  3  2  1  0
  4  3  1  0
  5  6  2  0
  5  4  1  0
  7  8  2  0
  7  2  1  0
  9  5  1  0
 11 10  1  6
 11 13  1  0
 12 11  1  0
 13 14  1  1
 13 15  1  0
 14  7  1  0
 15 17  1  0
 16 15  2  0
 17 18  1  0
 19 21  1  0
 19 18  1  0
 20 19  2  0
M  END
$$$$
