ETG.pdb
     RDKit          3D

 21 20  0  0  1  0  0  0  0  0999 V2000
   18.2483  -10.5443  -14.2575 N   0  0  0  0  0  0  0  0  0  0  0  0
   18.5849  -10.3958  -15.6500 C   0  0  1  0  0  0  0  0  0  0  0  0
   17.5667  -11.0185  -16.5628 C   0  0  0  0  0  0  0  0  0  0  0  0
   17.2772  -12.4572  -16.2946 C   0  0  0  0  0  0  0  0  0  0  0  0
   18.3237  -13.3961  -16.6970 C   0  0  0  0  0  0  0  0  0  0  0  0
   19.2516  -13.6727  -15.9157 O   0  0  0  0  0  0  0  0  0  0  0  0
   18.5352   -8.9151  -15.9395 C   0  0  0  0  0  0  0  0  0  0  0  0
   18.7186   -8.5159  -17.1153 O   0  0  0  0  0  0  0  0  0  0  0  0
   18.2611  -13.9652  -17.9524 O   0  0  0  0  0  0  0  0  0  0  0  0
   16.9323   -4.5052  -15.1639 C   0  0  0  0  0  0  0  0  0  0  0  0
   17.0016   -5.9565  -14.7752 C   0  0  1  0  0  0  0  0  0  0  0  0
   15.9900   -6.6301  -15.5173 O   0  0  0  0  0  0  0  0  0  0  0  0
   18.3036   -6.5316  -15.3305 C   0  0  2  0  0  0  0  0  0  0  0  0
   18.2893   -7.9545  -14.9371 N   0  0  0  0  0  0  0  0  0  0  0  0
   19.5130   -5.8733  -14.8352 C   0  0  0  0  0  0  0  0  0  0  0  0
   19.6111   -4.6050  -15.0262 O   0  0  0  0  0  0  0  0  0  0  0  0
   20.5991   -6.4445  -14.1670 N   0  0  0  0  0  0  0  0  0  0  0  0
   21.6827   -5.6435  -13.6200 C   0  0  0  0  0  0  0  0  0  0  0  0
   22.4863   -5.0784  -14.7439 C   0  0  0  0  0  0  0  0  0  0  0  0
   22.2070   -5.2653  -15.9490 O   0  0  0  0  0  0  0  0  0  0  0  0
   23.5898   -4.3135  -14.4414 O   0  0  0  0  0  0  0  0  0  0  0  0
  2  1  1  1
  3  2  1  0
  4  3  1  0
  5  6  2  0
  5  4  1  0
  7  8  2  0
  7  2  1  0
  9  5  1  0
 11 10  1  6
 11 13  1  0
 12 11  1  0
 13 14  1  1
 13 15  1  0
 14  7  1  0
 15 17  1  0
 16 15  2  0
 17 18  1  0
 19 21  1  0
 19 18  1  0
 20 19  2  0
M  END
$$$$
