ETG.pdb
     RDKit          3D

 21 20  0  0  1  0  0  0  0  0999 V2000
   20.5996  -13.3343  -17.3742 N   0  0  0  0  0  0  0  0  0  0  0  0
   20.9823  -12.0615  -17.9293 C   0  0  1  0  0  0  0  0  0  0  0  0
   19.8018  -11.1847  -18.2383 C   0  0  0  0  0  0  0  0  0  0  0  0
   18.9098  -11.6890  -19.3224 C   0  0  0  0  0  0  0  0  0  0  0  0
   17.7751  -10.8289  -19.6560 C   0  0  0  0  0  0  0  0  0  0  0  0
   16.7971  -10.7569  -18.8902 O   0  0  0  0  0  0  0  0  0  0  0  0
   21.7470  -11.3422  -16.8447 C   0  0  0  0  0  0  0  0  0  0  0  0
   21.2993  -11.3522  -15.6720 O   0  0  0  0  0  0  0  0  0  0  0  0
   17.8111  -10.1038  -20.8294 O   0  0  0  0  0  0  0  0  0  0  0  0
   25.6700   -9.8169  -17.3171 C   0  0  0  0  0  0  0  0  0  0  0  0
   25.1080  -10.4894  -16.0947 C   0  0  1  0  0  0  0  0  0  0  0  0
   25.7560   -9.9055  -14.9691 O   0  0  0  0  0  0  0  0  0  0  0  0
   23.6520  -10.0520  -15.9434 C   0  0  2  0  0  0  0  0  0  0  0  0
   22.9521  -10.6544  -17.0953 N   0  0  0  0  0  0  0  0  0  0  0  0
   23.4570   -8.6019  -15.9244 C   0  0  0  0  0  0  0  0  0  0  0  0
   23.6220   -7.9728  -17.0343 O   0  0  0  0  0  0  0  0  0  0  0  0
   23.1069   -7.7884  -14.8436 N   0  0  0  0  0  0  0  0  0  0  0  0
   22.9444   -6.3492  -14.9758 C   0  0  0  0  0  0  0  0  0  0  0  0
   22.5397   -5.7814  -13.6559 C   0  0  0  0  0  0  0  0  0  0  0  0
   22.4318   -4.5536  -13.4410 O   0  0  0  0  0  0  0  0  0  0  0  0
   22.2715   -6.6502  -12.6226 O   0  0  0  0  0  0  0  0  0  0  0  0
  2  1  1  1
  3  2  1  0
  4  3  1  0
  5  6  2  0
  5  4  1  0
  7  8  2  0
  7  2  1  0
  9  5  1  0
 11 10  1  6
 11 13  1  0
 12 11  1  0
 13 14  1  6
 13 15  1  0
 14  7  1  0
 15 17  1  0
 16 15  2  0
 17 18  1  0
 19 21  1  0
 19 18  1  0
 20 19  2  0
M  END
$$$$
