ETG.pdb
     RDKit          3D

 21 20  0  0  1  0  0  0  0  0999 V2000
   20.9033  -13.1160  -16.9713 N   0  0  0  0  0  0  0  0  0  0  0  0
   20.1699  -11.8774  -16.9209 C   0  0  1  0  0  0  0  0  0  0  0  0
   19.0049  -11.9310  -15.9734 C   0  0  0  0  0  0  0  0  0  0  0  0
   17.9306  -12.8948  -16.3507 C   0  0  0  0  0  0  0  0  0  0  0  0
   16.7505  -12.8928  -15.4870 C   0  0  0  0  0  0  0  0  0  0  0  0
   15.8140  -12.1039  -15.7074 O   0  0  0  0  0  0  0  0  0  0  0  0
   21.1146  -10.8522  -16.3421 C   0  0  0  0  0  0  0  0  0  0  0  0
   21.9194  -11.2011  -15.4442 O   0  0  0  0  0  0  0  0  0  0  0  0
   16.6975  -13.7779  -14.4297 O   0  0  0  0  0  0  0  0  0  0  0  0
   23.7686   -9.3170  -17.7973 C   0  0  0  0  0  0  0  0  0  0  0  0
   23.0023   -8.1275  -17.2872 C   0  0  1  0  0  0  0  0  0  0  0  0
   22.0799   -7.7630  -18.3090 O   0  0  0  0  0  0  0  0  0  0  0  0
   22.1083   -8.5987  -16.1414 C   0  0  2  0  0  0  0  0  0  0  0  0
   21.1313   -9.5091  -16.7710 N   0  0  0  0  0  0  0  0  0  0  0  0
   21.4215   -7.5201  -15.4299 C   0  0  0  0  0  0  0  0  0  0  0  0
   20.1535   -7.4084  -15.6157 O   0  0  0  0  0  0  0  0  0  0  0  0
   21.9646   -6.5749  -14.5557 N   0  0  0  0  0  0  0  0  0  0  0  0
   21.1636   -5.5163  -13.9617 C   0  0  0  0  0  0  0  0  0  0  0  0
   22.0236   -4.7103  -13.0457 C   0  0  0  0  0  0  0  0  0  0  0  0
   22.1009   -3.4627  -13.0977 O   0  0  0  0  0  0  0  0  0  0  0  0
   22.7693   -5.3707  -12.0959 O   0  0  0  0  0  0  0  0  0  0  0  0
  2  1  1  1
  3  2  1  0
  4  3  1  0
  5  6  2  0
  5  4  1  0
  7  8  2  0
  7  2  1  0
  9  5  1  0
 11 10  1  6
 11 13  1  0
 12 11  1  0
 13 14  1  6
 13 15  1  0
 14  7  1  0
 15 17  1  0
 16 15  2  0
 17 18  1  0
 19 21  1  0
 19 18  1  0
 20 19  2  0
M  END
$$$$
