ETG.pdb
     RDKit          3D

 21 20  0  0  1  0  0  0  0  0999 V2000
   21.3178  -17.7479  -15.7634 N   0  0  0  0  0  0  0  0  0  0  0  0
   20.2920  -16.9346  -16.3639 C   0  0  1  0  0  0  0  0  0  0  0  0
   18.9160  -17.2733  -15.8639 C   0  0  0  0  0  0  0  0  0  0  0  0
   18.8690  -18.3464  -14.8287 C   0  0  0  0  0  0  0  0  0  0  0  0
   17.5380  -18.6701  -14.3167 C   0  0  0  0  0  0  0  0  0  0  0  0
   16.5343  -18.0918  -14.7707 O   0  0  0  0  0  0  0  0  0  0  0  0
   20.5524  -15.5208  -15.9035 C   0  0  0  0  0  0  0  0  0  0  0  0
   21.0599  -15.3306  -14.7713 O   0  0  0  0  0  0  0  0  0  0  0  0
   17.4190  -19.6236  -13.3264 O   0  0  0  0  0  0  0  0  0  0  0  0
   22.8959  -13.3694  -17.0897 C   0  0  0  0  0  0  0  0  0  0  0  0
   21.6487  -12.5360  -17.1991 C   0  0  1  0  0  0  0  0  0  0  0  0
   21.0591  -12.8408  -18.4590 O   0  0  0  0  0  0  0  0  0  0  0  0
   20.6363  -13.0674  -16.1858 C   0  0  2  0  0  0  0  0  0  0  0  0
   20.2474  -14.3964  -16.6978 N   0  0  0  0  0  0  0  0  0  0  0  0
   19.4570  -12.2190  -16.0102 C   0  0  0  0  0  0  0  0  0  0  0  0
   18.3542  -12.6322  -16.5278 O   0  0  0  0  0  0  0  0  0  0  0  0
   19.3609  -10.9958  -15.3416 N   0  0  0  0  0  0  0  0  0  0  0  0
   18.1040  -10.2745  -15.2192 C   0  0  0  0  0  0  0  0  0  0  0  0
   18.3534   -8.9747  -14.5288 C   0  0  0  0  0  0  0  0  0  0  0  0
   19.4728   -8.6381  -14.0830 O   0  0  0  0  0  0  0  0  0  0  0  0
   17.3006   -8.1017  -14.3740 O   0  0  0  0  0  0  0  0  0  0  0  0
  2  1  1  1
  3  2  1  0
  4  3  1  0
  5  6  2  0
  5  4  1  0
  7  8  2  0
  7  2  1  0
  9  5  1  0
 11 10  1  6
 11 13  1  0
 12 11  1  0
 13 14  1  6
 13 15  1  0
 14  7  1  0
 15 17  1  0
 16 15  2  0
 17 18  1  0
 19 21  1  0
 19 18  1  0
 20 19  2  0
M  END
$$$$
