ETG.pdb
     RDKit          3D

 21 20  0  0  1  0  0  0  0  0999 V2000
   29.5584  -20.8880  -17.0344 N   0  0  0  0  0  0  0  0  0  0  0  0
   28.3203  -20.9110  -17.7700 C   0  0  1  0  0  0  0  0  0  0  0  0
   27.7783  -22.3008  -17.9505 C   0  0  0  0  0  0  0  0  0  0  0  0
   28.2379  -23.2925  -16.9353 C   0  0  0  0  0  0  0  0  0  0  0  0
   27.8365  -24.6772  -17.1802 C   0  0  0  0  0  0  0  0  0  0  0  0
   28.1899  -25.5794  -16.3997 O   0  0  0  0  0  0  0  0  0  0  0  0
   27.3080  -20.1907  -16.9128 C   0  0  0  0  0  0  0  0  0  0  0  0
   27.7113  -19.4504  -15.9827 O   0  0  0  0  0  0  0  0  0  0  0  0
   27.0629  -24.9606  -18.2870 O   0  0  0  0  0  0  0  0  0  0  0  0
   26.8800  -17.8967  -16.5524 C   0  0  0  0  0  0  0  0  0  0  0  0
   25.3860  -18.0400  -16.6494 C   0  0  1  0  0  0  0  0  0  0  0  0
   25.0522  -17.9452  -18.0305 O   0  0  0  0  0  0  0  0  0  0  0  0
   25.0259  -19.4797  -16.2864 C   0  0  2  0  0  0  0  0  0  0  0  0
   25.9180  -20.3153  -17.1143 N   0  0  0  0  0  0  0  0  0  0  0  0
   23.6253  -19.8295  -16.5258 C   0  0  0  0  0  0  0  0  0  0  0  0
   23.3348  -20.3380  -17.6712 O   0  0  0  0  0  0  0  0  0  0  0  0
   22.5361  -19.6860  -15.6624 N   0  0  0  0  0  0  0  0  0  0  0  0
   21.1821  -20.0438  -16.0545 C   0  0  0  0  0  0  0  0  0  0  0  0
   20.2744  -19.8744  -14.8816 C   0  0  0  0  0  0  0  0  0  0  0  0
   20.6736  -19.5193  -13.7504 O   0  0  0  0  0  0  0  0  0  0  0  0
   18.9309  -20.1207  -15.0511 O   0  0  0  0  0  0  0  0  0  0  0  0
  2  1  1  1
  3  2  1  0
  4  3  1  0
  5  6  2  0
  5  4  1  0
  7  8  2  0
  7  2  1  0
  9  5  1  0
 11 10  1  6
 11 13  1  0
 12 11  1  0
 13 14  1  6
 13 15  1  0
 14  7  1  0
 15 17  1  0
 16 15  2  0
 17 18  1  0
 19 21  1  0
 19 18  1  0
 20 19  2  0
M  END
$$$$
