ETG.pdb
     RDKit          3D

 21 20  0  0  1  0  0  0  0  0999 V2000
   25.7512  -21.1722  -10.1935 N   0  0  0  0  0  0  0  0  0  0  0  0
   24.8827  -21.3606  -11.3269 C   0  0  1  0  0  0  0  0  0  0  0  0
   23.4589  -20.9778  -11.0368 C   0  0  0  0  0  0  0  0  0  0  0  0
   22.5156  -21.1497  -12.1796 C   0  0  0  0  0  0  0  0  0  0  0  0
   21.1313  -20.7570  -11.9186 C   0  0  0  0  0  0  0  0  0  0  0  0
   20.7196  -19.6382  -12.2749 O   0  0  0  0  0  0  0  0  0  0  0  0
   25.3542  -20.3918  -12.3841 C   0  0  0  0  0  0  0  0  0  0  0  0
   25.6511  -19.2190  -12.0493 O   0  0  0  0  0  0  0  0  0  0  0  0
   20.2969  -21.6466  -11.2735 O   0  0  0  0  0  0  0  0  0  0  0  0
   28.2582  -20.3021  -13.8364 C   0  0  0  0  0  0  0  0  0  0  0  0
   27.3972  -20.2784  -15.0693 C   0  0  1  0  0  0  0  0  0  0  0  0
   27.1454  -21.6349  -15.4218 O   0  0  0  0  0  0  0  0  0  0  0  0
   26.0216  -19.7443  -14.6735 C   0  0  2  0  0  0  0  0  0  0  0  0
   25.4761  -20.7515  -13.7420 N   0  0  0  0  0  0  0  0  0  0  0  0
   25.1089  -19.5367  -15.7983 C   0  0  0  0  0  0  0  0  0  0  0  0
   24.0828  -20.3091  -15.8719 O   0  0  0  0  0  0  0  0  0  0  0  0
   25.1990  -18.5933  -16.8251 N   0  0  0  0  0  0  0  0  0  0  0  0
   24.1859  -18.4748  -17.8617 C   0  0  0  0  0  0  0  0  0  0  0  0
   23.1685  -17.4689  -17.4359 C   0  0  0  0  0  0  0  0  0  0  0  0
   22.5628  -17.5258  -16.3427 O   0  0  0  0  0  0  0  0  0  0  0  0
   22.8812  -16.4261  -18.2869 O   0  0  0  0  0  0  0  0  0  0  0  0
  2  1  1  1
  3  2  1  0
  4  3  1  0
  5  6  2  0
  5  4  1  0
  7  8  2  0
  7  2  1  0
  9  5  1  0
 11 10  1  1
 11 13  1  0
 12 11  1  0
 13 14  1  1
 13 15  1  0
 14  7  1  0
 15 17  1  0
 16 15  2  0
 17 18  1  0
 19 21  1  0
 19 18  1  0
 20 19  2  0
M  END
$$$$
