ETG.pdb
     RDKit          3D

 21 20  0  0  1  0  0  0  0  0999 V2000
   20.5110  -14.2655  -16.7985 N   0  0  0  0  0  0  0  0  0  0  0  0
   20.0597  -12.9171  -17.0277 C   0  0  1  0  0  0  0  0  0  0  0  0
   18.5943  -12.7400  -16.7465 C   0  0  0  0  0  0  0  0  0  0  0  0
   17.6852  -13.5439  -17.6141 C   0  0  0  0  0  0  0  0  0  0  0  0
   16.2560  -13.2920  -17.4335 C   0  0  0  0  0  0  0  0  0  0  0  0
   15.4174  -13.9599  -18.0649 O   0  0  0  0  0  0  0  0  0  0  0  0
   20.7727  -12.0564  -16.0132 C   0  0  0  0  0  0  0  0  0  0  0  0
   20.8120  -12.4293  -14.8153 O   0  0  0  0  0  0  0  0  0  0  0  0
   15.8595  -12.3052  -16.5543 O   0  0  0  0  0  0  0  0  0  0  0  0
   23.7367  -11.7985  -15.2386 C   0  0  0  0  0  0  0  0  0  0  0  0
   23.5140  -10.3186  -15.3883 C   0  0  1  0  0  0  0  0  0  0  0  0
   23.8100   -9.9927  -16.7425 O   0  0  0  0  0  0  0  0  0  0  0  0
   22.0141  -10.0532  -15.2700 C   0  0  2  0  0  0  0  0  0  0  0  0
   21.4013  -10.8420  -16.3572 N   0  0  0  0  0  0  0  0  0  0  0  0
   21.6405   -8.6430  -15.3845 C   0  0  0  0  0  0  0  0  0  0  0  0
   20.9857   -8.2926  -16.4349 O   0  0  0  0  0  0  0  0  0  0  0  0
   21.9009   -7.6019  -14.4897 N   0  0  0  0  0  0  0  0  0  0  0  0
   21.5420   -6.2223  -14.7781 C   0  0  0  0  0  0  0  0  0  0  0  0
   21.9417   -5.3636  -13.6244 C   0  0  0  0  0  0  0  0  0  0  0  0
   22.3966   -5.8219  -12.5528 O   0  0  0  0  0  0  0  0  0  0  0  0
   21.8037   -3.9993  -13.7434 O   0  0  0  0  0  0  0  0  0  0  0  0
  2  1  1  1
  3  2  1  0
  4  3  1  0
  5  6  2  0
  5  4  1  0
  7  8  2  0
  7  2  1  0
  9  5  1  0
 11 10  1  6
 11 13  1  0
 12 11  1  0
 13 14  1  6
 13 15  1  0
 14  7  1  0
 15 17  1  0
 16 15  2  0
 17 18  1  0
 19 21  1  0
 19 18  1  0
 20 19  2  0
M  END
$$$$
