ETG.pdb
     RDKit          3D

 21 20  0  0  1  0  0  0  0  0999 V2000
   19.9257  -13.1797  -15.9794 N   0  0  0  0  0  0  0  0  0  0  0  0
   19.5455  -11.8543  -16.3956 C   0  0  1  0  0  0  0  0  0  0  0  0
   18.1221  -11.5226  -16.0469 C   0  0  0  0  0  0  0  0  0  0  0  0
   17.0982  -12.4130  -16.6668 C   0  0  0  0  0  0  0  0  0  0  0  0
   15.7081  -12.0978  -16.3399 C   0  0  0  0  0  0  0  0  0  0  0  0
   15.1104  -11.1934  -16.9505 O   0  0  0  0  0  0  0  0  0  0  0  0
   20.3922  -10.9005  -15.5883 C   0  0  0  0  0  0  0  0  0  0  0  0
   20.3291  -10.9382  -14.3352 O   0  0  0  0  0  0  0  0  0  0  0  0
   15.0773  -12.8191  -15.3471 O   0  0  0  0  0  0  0  0  0  0  0  0
   23.7952  -10.8206  -15.3178 C   0  0  0  0  0  0  0  0  0  0  0  0
   23.5082   -9.3846  -15.6607 C   0  0  1  0  0  0  0  0  0  0  0  0
   23.5270   -9.2889  -17.0813 O   0  0  0  0  0  0  0  0  0  0  0  0
   22.0532   -9.0945  -15.2960 C   0  0  2  0  0  0  0  0  0  0  0  0
   21.2575   -9.9619  -16.1871 N   0  0  0  0  0  0  0  0  0  0  0  0
   21.6593   -7.6943  -15.4555 C   0  0  0  0  0  0  0  0  0  0  0  0
   21.0257   -7.3815  -16.5305 O   0  0  0  0  0  0  0  0  0  0  0  0
   21.8797   -6.6267  -14.5813 N   0  0  0  0  0  0  0  0  0  0  0  0
   21.5147   -5.2597  -14.9176 C   0  0  0  0  0  0  0  0  0  0  0  0
   21.8299   -4.3723  -13.7595 C   0  0  0  0  0  0  0  0  0  0  0  0
   22.2254   -4.8022  -12.6531 O   0  0  0  0  0  0  0  0  0  0  0  0
   21.6784   -3.0131  -13.9144 O   0  0  0  0  0  0  0  0  0  0  0  0
  2  1  1  1
  3  2  1  0
  4  3  1  0
  5  6  2  0
  5  4  1  0
  7  8  2  0
  7  2  1  0
  9  5  1  0
 11 10  1  6
 11 13  1  0
 12 11  1  0
 13 14  1  6
 13 15  1  0
 14  7  1  0
 15 17  1  0
 16 15  2  0
 17 18  1  0
 19 21  1  0
 19 18  1  0
 20 19  2  0
M  END
$$$$
