KSC.pdb
     RDKit          3D

 22 21  0  0  1  0  0  0  0  0999 V2000
   12.7218  -20.4299   22.1220 N   0  0  0  0  0  0  0  0  0  0  0  0
   12.7987  -18.9997   22.1103 C   0  0  1  0  0  0  0  0  0  0  0  0
   12.6822  -18.4519   20.6814 C   0  0  0  0  0  0  0  0  0  0  0  0
   13.8406  -19.0486   19.9111 C   0  0  0  0  0  0  0  0  0  0  0  0
   13.6769  -18.8528   18.4191 C   0  0  0  0  0  0  0  0  0  0  0  0
   14.9785  -19.3131   17.7702 C   0  0  0  0  0  0  0  0  0  0  0  0
   14.9500  -19.0743   16.3389 N   0  0  0  0  0  0  0  0  0  0  0  0
   11.7262  -18.4256   22.9348 C   0  0  0  0  0  0  0  0  0  0  0  0
   10.7705  -17.8534   22.3482 O   0  0  0  0  0  0  0  0  0  0  0  0
   11.7378  -19.1481   26.9663 O   0  0  0  0  0  0  0  0  0  0  0  0
   10.5139  -19.0702   26.3223 C   0  0  0  0  0  0  0  0  0  0  0  0
   10.6369  -18.1148   25.1415 C   0  0  2  0  0  0  0  0  0  0  0  0
   11.7877  -18.5256   24.3455 N   0  0  0  0  0  0  0  0  0  0  0  0
   10.9093  -16.7594   25.6836 C   0  0  0  0  0  0  0  0  0  0  0  0
   12.0921  -16.2709   25.6280 O   0  0  0  0  0  0  0  0  0  0  0  0
    9.8826  -15.9810   26.2674 N   0  0  0  0  0  0  0  0  0  0  0  0
   10.1996  -14.6680   26.8308 C   0  0  1  0  0  0  0  0  0  0  0  0
    8.9672  -13.7972   26.7182 C   0  0  0  0  0  0  0  0  0  0  0  0
    9.1933  -12.1978   27.5074 S   0  0  0  0  0  0  0  0  0  0  0  0
   10.5395  -14.8544   28.2621 C   0  0  0  0  0  0  0  0  0  0  0  0
   11.3228  -13.9385   28.9445 O   0  0  0  0  0  0  0  0  0  0  0  0
   10.1313  -15.8495   28.9127 O   0  0  0  0  0  0  0  0  0  0  0  0
  2  1  1  6
  2  3  1  0
  2  8  1  0
  3  4  1  0
  5  4  1  0
  5  6  1  0
  6  7  1  0
  8 13  1  0
  9  8  2  0
 12 11  1  1
 11 10  1  0
 12 14  1  0
 13 12  1  0
 14 16  1  0
 14 15  2  0
 16 17  1  0
 17 18  1  1
 17 20  1  0
 18 19  1  0
 20 21  1  0
 22 20  2  0
M  END
$$$$
