KSC.pdb
     RDKit          3D

 22 21  0  0  1  0  0  0  0  0999 V2000
    9.0381  -17.7929   15.6503 N   0  0  0  0  0  0  0  0  0  0  0  0
    9.7218  -18.5471   16.6578 C   0  0  1  0  0  0  0  0  0  0  0  0
   11.1962  -18.7562   16.2861 C   0  0  0  0  0  0  0  0  0  0  0  0
   11.1967  -19.6885   15.0937 C   0  0  0  0  0  0  0  0  0  0  0  0
   11.8722  -21.0042   15.4158 C   0  0  0  0  0  0  0  0  0  0  0  0
   11.9437  -21.7923   14.1116 C   0  0  0  0  0  0  0  0  0  0  0  0
   12.5745  -23.0817   14.3260 N   0  0  0  0  0  0  0  0  0  0  0  0
    9.6452  -17.8546   17.9517 C   0  0  0  0  0  0  0  0  0  0  0  0
    9.9585  -16.6358   17.9902 O   0  0  0  0  0  0  0  0  0  0  0  0
    7.6903  -19.6192   20.9846 O   0  0  0  0  0  0  0  0  0  0  0  0
    7.8421  -18.2443   21.0582 C   0  0  0  0  0  0  0  0  0  0  0  0
    9.1514  -17.8550   20.3825 C   0  0  2  0  0  0  0  0  0  0  0  0
    9.2286  -18.5582   19.1072 N   0  0  0  0  0  0  0  0  0  0  0  0
   10.2632  -18.3334   21.2427 C   0  0  0  0  0  0  0  0  0  0  0  0
   10.6887  -19.5366   21.1328 O   0  0  0  0  0  0  0  0  0  0  0  0
   10.8752  -17.4836   22.1936 N   0  0  0  0  0  0  0  0  0  0  0  0
   11.8795  -18.0255   23.1099 C   0  0  1  0  0  0  0  0  0  0  0  0
   12.5805  -16.8642   23.7805 C   0  0  0  0  0  0  0  0  0  0  0  0
   13.5106  -15.8666   22.6091 S   0  0  0  0  0  0  0  0  0  0  0  0
   11.1749  -18.8318   24.1358 C   0  0  0  0  0  0  0  0  0  0  0  0
   11.8707  -19.5827   25.0687 O   0  0  0  0  0  0  0  0  0  0  0  0
    9.9200  -18.8664   24.2000 O   0  0  0  0  0  0  0  0  0  0  0  0
  2  1  1  6
  2  3  1  0
  2  8  1  0
  3  4  1  0
  5  4  1  0
  5  6  1  0
  6  7  1  0
  8 13  1  0
  9  8  2  0
 12 11  1  1
 11 10  1  0
 12 14  1  0
 13 12  1  0
 14 16  1  0
 14 15  2  0
 16 17  1  0
 17 18  1  1
 17 20  1  0
 18 19  1  0
 20 21  1  0
 22 20  2  0
M  END
$$$$
