KSC.pdb
     RDKit          3D

 22 21  0  0  1  0  0  0  0  0999 V2000
    8.2630  -15.7667   19.5261 N   0  0  0  0  0  0  0  0  0  0  0  0
    8.5785  -14.6099   20.3096 C   0  0  1  0  0  0  0  0  0  0  0  0
    7.7090  -13.4127   19.9020 C   0  0  0  0  0  0  0  0  0  0  0  0
    7.3498  -13.6348   18.4484 C   0  0  0  0  0  0  0  0  0  0  0  0
    8.5817  -13.8647   17.5993 C   0  0  0  0  0  0  0  0  0  0  0  0
    8.0993  -14.0326   16.1619 C   0  0  0  0  0  0  0  0  0  0  0  0
    9.2199  -14.2634   15.2690 N   0  0  0  0  0  0  0  0  0  0  0  0
    8.3725  -14.8906   21.7373 C   0  0  0  0  0  0  0  0  0  0  0  0
    7.9528  -13.9564   22.4695 O   0  0  0  0  0  0  0  0  0  0  0  0
    9.4485  -18.5399   23.2555 O   0  0  0  0  0  0  0  0  0  0  0  0
    8.3397  -17.9621   23.8518 C   0  0  0  0  0  0  0  0  0  0  0  0
    8.4093  -16.4513   23.6648 C   0  0  2  0  0  0  0  0  0  0  0  0
    8.6449  -16.1811   22.2512 N   0  0  0  0  0  0  0  0  0  0  0  0
    9.5796  -15.9546   24.4322 C   0  0  0  0  0  0  0  0  0  0  0  0
   10.7192  -15.8344   23.8599 O   0  0  0  0  0  0  0  0  0  0  0  0
    9.4682  -15.6044   25.7981 N   0  0  0  0  0  0  0  0  0  0  0  0
   10.6590  -15.1851   26.5385 C   0  0  1  0  0  0  0  0  0  0  0  0
   10.2076  -14.4024   27.7523 C   0  0  0  0  0  0  0  0  0  0  0  0
    9.1717  -13.0016   27.3083 S   0  0  0  0  0  0  0  0  0  0  0  0
   11.3760  -16.4056   26.9804 C   0  0  0  0  0  0  0  0  0  0  0  0
   12.5928  -16.3313   27.6378 O   0  0  0  0  0  0  0  0  0  0  0  0
   10.9092  -17.5548   26.7767 O   0  0  0  0  0  0  0  0  0  0  0  0
  2  1  1  6
  2  3  1  0
  2  8  1  0
  3  4  1  0
  5  4  1  0
  5  6  1  0
  6  7  1  0
  8 13  1  0
  9  8  2  0
 12 11  1  6
 11 10  1  0
 12 14  1  0
 13 12  1  0
 14 16  1  0
 14 15  2  0
 16 17  1  0
 17 18  1  1
 17 20  1  0
 18 19  1  0
 20 21  1  0
 22 20  2  0
M  END
$$$$
