KSC.pdb
     RDKit          3D

 22 21  0  0  1  0  0  0  0  0999 V2000
   10.7594  -17.8297   14.7095 N   0  0  0  0  0  0  0  0  0  0  0  0
   11.6335  -18.1984   15.7825 C   0  0  1  0  0  0  0  0  0  0  0  0
   13.0569  -17.6783   15.5389 C   0  0  0  0  0  0  0  0  0  0  0  0
   13.7787  -18.7770   14.7886 C   0  0  0  0  0  0  0  0  0  0  0  0
   14.7821  -19.4878   15.6713 C   0  0  0  0  0  0  0  0  0  0  0  0
   15.5762  -20.4254   14.7671 C   0  0  0  0  0  0  0  0  0  0  0  0
   16.5390  -21.1886   15.5397 N   0  0  0  0  0  0  0  0  0  0  0  0
   11.1345  -17.6573   17.0544 C   0  0  0  0  0  0  0  0  0  0  0  0
   11.1643  -16.4096   17.2192 O   0  0  0  0  0  0  0  0  0  0  0  0
    9.9095  -20.2232   20.0068 O   0  0  0  0  0  0  0  0  0  0  0  0
    9.1934  -19.0409   19.9152 C   0  0  0  0  0  0  0  0  0  0  0  0
   10.0766  -17.9767   19.2751 C   0  0  2  0  0  0  0  0  0  0  0  0
   10.6395  -18.5332   18.0502 N   0  0  0  0  0  0  0  0  0  0  0  0
   11.1942  -17.6944   20.2113 C   0  0  0  0  0  0  0  0  0  0  0  0
   12.3716  -18.1296   19.9562 O   0  0  0  0  0  0  0  0  0  0  0  0
   10.9912  -16.9458   21.3942 N   0  0  0  0  0  0  0  0  0  0  0  0
   12.1249  -16.6587   22.2740 C   0  0  1  0  0  0  0  0  0  0  0  0
   11.6536  -15.7108   23.3553 C   0  0  0  0  0  0  0  0  0  0  0  0
   10.0620  -16.1968   24.0356 S   0  0  0  0  0  0  0  0  0  0  0  0
   12.5571  -17.9345   22.8941 C   0  0  0  0  0  0  0  0  0  0  0  0
   13.7837  -18.0520   23.5264 O   0  0  0  0  0  0  0  0  0  0  0  0
   11.8290  -18.9589   22.8710 O   0  0  0  0  0  0  0  0  0  0  0  0
  2  1  1  6
  2  3  1  0
  2  8  1  0
  3  4  1  0
  5  4  1  0
  5  6  1  0
  6  7  1  0
  8 13  1  0
  9  8  2  0
 12 11  1  1
 11 10  1  0
 12 14  1  0
 13 12  1  0
 14 16  1  0
 14 15  2  0
 16 17  1  0
 17 18  1  1
 17 20  1  0
 18 19  1  0
 20 21  1  0
 22 20  2  0
M  END
$$$$
