KSC.pdb
     RDKit          3D

 22 21  0  0  1  0  0  0  0  0999 V2000
   -5.1447  -24.2298   26.8056 N   0  0  0  0  0  0  0  0  0  0  0  0
   -4.0002  -24.1796   27.6653 C   0  0  1  0  0  0  0  0  0  0  0  0
   -2.9900  -23.1312   27.1795 C   0  0  0  0  0  0  0  0  0  0  0  0
   -2.4824  -23.6299   25.8435 C   0  0  0  0  0  0  0  0  0  0  0  0
   -2.8492  -22.6839   24.7201 C   0  0  0  0  0  0  0  0  0  0  0  0
   -2.3874  -23.3417   23.4235 C   0  0  0  0  0  0  0  0  0  0  0  0
   -2.7109  -22.5063   22.2817 N   0  0  0  0  0  0  0  0  0  0  0  0
   -4.4092  -23.8539   29.0386 C   0  0  0  0  0  0  0  0  0  0  0  0
   -3.5080  -23.7064   29.9053 O   0  0  0  0  0  0  0  0  0  0  0  0
   -8.3736  -23.6659   29.8493 O   0  0  0  0  0  0  0  0  0  0  0  0
   -7.5936  -23.0001   30.7804 C   0  0  0  0  0  0  0  0  0  0  0  0
   -6.1844  -23.5795   30.7491 C   0  0  2  0  0  0  0  0  0  0  0  0
   -5.7822  -23.7151   29.3539 N   0  0  0  0  0  0  0  0  0  0  0  0
   -6.2409  -24.9370   31.3485 C   0  0  0  0  0  0  0  0  0  0  0  0
   -6.4604  -25.9581   30.6069 O   0  0  0  0  0  0  0  0  0  0  0  0
   -6.0550  -25.1363   32.7364 N   0  0  0  0  0  0  0  0  0  0  0  0
   -6.2249  -26.4737   33.3060 C   0  0  1  0  0  0  0  0  0  0  0  0
   -5.7047  -26.4500   34.7267 C   0  0  0  0  0  0  0  0  0  0  0  0
   -5.9448  -28.0237   35.5624 S   0  0  0  0  0  0  0  0  0  0  0  0
   -7.6749  -26.7842   33.3195 C   0  0  0  0  0  0  0  0  0  0  0  0
   -8.6136  -25.8372   33.6939 O   0  0  0  0  0  0  0  0  0  0  0  0
   -8.1098  -27.9173   32.9922 O   0  0  0  0  0  0  0  0  0  0  0  0
  2  1  1  6
  2  3  1  0
  2  8  1  0
  3  4  1  0
  5  4  1  0
  5  6  1  0
  6  7  1  0
  8 13  1  0
  9  8  2  0
 12 11  1  6
 11 10  1  0
 12 14  1  0
 13 12  1  0
 14 16  1  0
 14 15  2  0
 16 17  1  0
 17 18  1  1
 17 20  1  0
 18 19  1  0
 20 21  1  0
 22 20  2  0
M  END
$$$$
