KSC.pdb
     RDKit          3D

 22 21  0  0  1  0  0  0  0  0999 V2000
    8.4875  -16.5035   20.0794 N   0  0  0  0  0  0  0  0  0  0  0  0
    8.6033  -15.2357   20.7357 C   0  0  1  0  0  0  0  0  0  0  0  0
    7.9114  -14.1299   19.9271 C   0  0  0  0  0  0  0  0  0  0  0  0
    8.3054  -14.3607   18.4839 C   0  0  0  0  0  0  0  0  0  0  0  0
    7.6097  -13.3894   17.5546 C   0  0  0  0  0  0  0  0  0  0  0  0
    8.0470  -13.7474   16.1376 C   0  0  0  0  0  0  0  0  0  0  0  0
    7.3635  -12.9151   15.1648 N   0  0  0  0  0  0  0  0  0  0  0  0
    8.0033  -15.2995   22.0756 C   0  0  0  0  0  0  0  0  0  0  0  0
    7.3832  -14.2874   22.4952 O   0  0  0  0  0  0  0  0  0  0  0  0
    6.6473  -18.0509   25.7592 O   0  0  0  0  0  0  0  0  0  0  0  0
    7.3480  -17.9849   24.5661 C   0  0  0  0  0  0  0  0  0  0  0  0
    7.5333  -16.5218   24.1822 C   0  0  2  0  0  0  0  0  0  0  0  0
    8.1319  -16.4754   22.8532 N   0  0  0  0  0  0  0  0  0  0  0  0
    8.4927  -15.9208   25.1432 C   0  0  0  0  0  0  0  0  0  0  0  0
    9.7491  -16.1361   25.0164 O   0  0  0  0  0  0  0  0  0  0  0  0
    8.0506  -15.1038   26.2099 N   0  0  0  0  0  0  0  0  0  0  0  0
    9.0316  -14.4312   27.0626 C   0  0  1  0  0  0  0  0  0  0  0  0
    8.3279  -13.3103   27.7961 C   0  0  0  0  0  0  0  0  0  0  0  0
    7.4616  -12.2050   26.6735 S   0  0  0  0  0  0  0  0  0  0  0  0
    9.5370  -15.4196   28.0458 C   0  0  0  0  0  0  0  0  0  0  0  0
   10.5260  -15.0914   28.9581 O   0  0  0  0  0  0  0  0  0  0  0  0
    9.0890  -16.5933   28.0908 O   0  0  0  0  0  0  0  0  0  0  0  0
  2  1  1  6
  2  3  1  0
  2  8  1  0
  3  4  1  0
  5  4  1  0
  5  6  1  0
  6  7  1  0
  8 13  1  0
  9  8  2  0
 12 11  1  1
 11 10  1  0
 12 14  1  0
 13 12  1  0
 14 16  1  0
 14 15  2  0
 16 17  1  0
 17 18  1  1
 17 20  1  0
 18 19  1  0
 20 21  1  0
 22 20  2  0
M  END
$$$$
