KSC.pdb
     RDKit          3D

 22 21  0  0  1  0  0  0  0  0999 V2000
    5.5055  -17.2597   21.1940 N   0  0  0  0  0  0  0  0  0  0  0  0
    6.5997  -16.5553   21.7923 C   0  0  1  0  0  0  0  0  0  0  0  0
    6.5613  -15.0645   21.4296 C   0  0  0  0  0  0  0  0  0  0  0  0
    7.5036  -14.8969   20.2569 C   0  0  0  0  0  0  0  0  0  0  0  0
    7.4414  -13.4954   19.6885 C   0  0  0  0  0  0  0  0  0  0  0  0
    8.3265  -13.4856   18.4461 C   0  0  0  0  0  0  0  0  0  0  0  0
    8.2768  -12.1911   17.7918 N   0  0  0  0  0  0  0  0  0  0  0  0
    6.5572  -16.6963   23.2544 C   0  0  0  0  0  0  0  0  0  0  0  0
    5.4428  -16.5786   23.8282 O   0  0  0  0  0  0  0  0  0  0  0  0
    9.0963  -18.9913   25.1885 O   0  0  0  0  0  0  0  0  0  0  0  0
    7.9068  -18.5722   25.7615 C   0  0  0  0  0  0  0  0  0  0  0  0
    7.6872  -17.1023   25.4249 C   0  0  2  0  0  0  0  0  0  0  0  0
    7.7474  -16.9566   23.9750 N   0  0  0  0  0  0  0  0  0  0  0  0
    8.8110  -16.3311   26.0145 C   0  0  0  0  0  0  0  0  0  0  0  0
    9.8486  -16.0680   25.3110 O   0  0  0  0  0  0  0  0  0  0  0  0
    8.7656  -15.8714   27.3514 N   0  0  0  0  0  0  0  0  0  0  0  0
    9.9111  -15.1516   27.9098 C   0  0  1  0  0  0  0  0  0  0  0  0
    9.3958  -13.9028   28.5913 C   0  0  0  0  0  0  0  0  0  0  0  0
    8.3096  -12.9474   27.5236 S   0  0  0  0  0  0  0  0  0  0  0  0
   10.5562  -16.0291   28.9161 C   0  0  0  0  0  0  0  0  0  0  0  0
   10.0990  -17.3147   29.1537 O   0  0  0  0  0  0  0  0  0  0  0  0
   11.5423  -15.6423   29.5930 O   0  0  0  0  0  0  0  0  0  0  0  0
  2  1  1  6
  2  3  1  0
  2  8  1  0
  3  4  1  0
  5  4  1  0
  5  6  1  0
  6  7  1  0
  8 13  1  0
  9  8  2  0
 12 11  1  6
 11 10  1  0
 12 14  1  0
 13 12  1  0
 14 16  1  0
 14 15  2  0
 16 17  1  0
 17 18  1  1
 17 20  1  0
 18 19  1  0
 20 21  1  0
 22 20  2  0
M  END
$$$$
