KSC.pdb
     RDKit          3D

 22 21  0  0  1  0  0  0  0  0999 V2000
   10.7480  -18.9740   20.8207 N   0  0  0  0  0  0  0  0  0  0  0  0
   11.6142  -18.0172   21.4416 C   0  0  1  0  0  0  0  0  0  0  0  0
   12.0621  -16.9451   20.4388 C   0  0  0  0  0  0  0  0  0  0  0  0
   13.4030  -17.4055   19.9084 C   0  0  0  0  0  0  0  0  0  0  0  0
   13.2525  -18.2001   18.6288 C   0  0  0  0  0  0  0  0  0  0  0  0
   14.6521  -18.6545   18.2267 C   0  0  0  0  0  0  0  0  0  0  0  0
   14.6095  -19.4096   16.9880 N   0  0  0  0  0  0  0  0  0  0  0  0
   10.9301  -17.3669   22.5680 C   0  0  0  0  0  0  0  0  0  0  0  0
   10.5481  -16.1764   22.4208 O   0  0  0  0  0  0  0  0  0  0  0  0
   10.2714  -19.4020   26.1540 O   0  0  0  0  0  0  0  0  0  0  0  0
    9.2428  -18.6640   25.5919 C   0  0  0  0  0  0  0  0  0  0  0  0
    9.8405  -17.5132   24.7915 C   0  0  2  0  0  0  0  0  0  0  0  0
   10.7182  -18.0785   23.7732 N   0  0  0  0  0  0  0  0  0  0  0  0
   10.6698  -16.7014   25.7181 C   0  0  0  0  0  0  0  0  0  0  0  0
   11.9466  -16.7997   25.6914 O   0  0  0  0  0  0  0  0  0  0  0  0
   10.0793  -15.8083   26.6425 N   0  0  0  0  0  0  0  0  0  0  0  0
   10.9317  -14.9975   27.5131 C   0  0  1  0  0  0  0  0  0  0  0  0
   10.4040  -13.5794   27.5006 C   0  0  0  0  0  0  0  0  0  0  0  0
    8.6247  -13.5165   27.7508 S   0  0  0  0  0  0  0  0  0  0  0  0
   10.8342  -15.5452   28.8876 C   0  0  0  0  0  0  0  0  0  0  0  0
   11.6425  -15.0786   29.9109 O   0  0  0  0  0  0  0  0  0  0  0  0
   10.0156  -16.4535   29.1790 O   0  0  0  0  0  0  0  0  0  0  0  0
  2  1  1  6
  2  3  1  0
  2  8  1  0
  3  4  1  0
  5  4  1  0
  5  6  1  0
  6  7  1  0
  8 13  1  0
  9  8  2  0
 12 11  1  1
 11 10  1  0
 12 14  1  0
 13 12  1  0
 14 16  1  0
 14 15  2  0
 16 17  1  0
 17 18  1  1
 17 20  1  0
 18 19  1  0
 20 21  1  0
 22 20  2  0
M  END
$$$$
