KSC.pdb
     RDKit          3D

 22 21  0  0  1  0  0  0  0  0999 V2000
   11.0359  -16.4054    8.7675 N   0  0  0  0  0  0  0  0  0  0  0  0
   12.1388  -17.2953    8.9748 C   0  0  1  0  0  0  0  0  0  0  0  0
   13.4585  -16.6535    8.5255 C   0  0  0  0  0  0  0  0  0  0  0  0
   13.3761  -16.5440    7.0180 C   0  0  0  0  0  0  0  0  0  0  0  0
   14.6857  -16.0746    6.4214 C   0  0  0  0  0  0  0  0  0  0  0  0
   14.4659  -15.9579    4.9163 C   0  0  0  0  0  0  0  0  0  0  0  0
   15.6395  -15.4015    4.2688 N   0  0  0  0  0  0  0  0  0  0  0  0
   12.2394  -17.6588   10.3952 C   0  0  0  0  0  0  0  0  0  0  0  0
   11.8579  -16.8171   11.2500 O   0  0  0  0  0  0  0  0  0  0  0  0
   12.7873  -21.4981   11.2541 O   0  0  0  0  0  0  0  0  0  0  0  0
   12.2119  -20.7410   12.2614 C   0  0  0  0  0  0  0  0  0  0  0  0
   12.7422  -19.3151   12.1719 C   0  0  2  0  0  0  0  0  0  0  0  0
   12.7535  -18.9242   10.7669 N   0  0  0  0  0  0  0  0  0  0  0  0
   14.1442  -19.3230   12.6613 C   0  0  0  0  0  0  0  0  0  0  0  0
   15.1160  -19.3130   11.8270 O   0  0  0  0  0  0  0  0  0  0  0  0
   14.4400  -19.3403   14.0444 N   0  0  0  0  0  0  0  0  0  0  0  0
   15.8344  -19.3816   14.4870 C   0  0  1  0  0  0  0  0  0  0  0  0
   15.9089  -18.7649   15.8668 C   0  0  0  0  0  0  0  0  0  0  0  0
   15.7581  -16.9740   15.8175 S   0  0  0  0  0  0  0  0  0  0  0  0
   16.2485  -20.8035   14.5621 C   0  0  0  0  0  0  0  0  0  0  0  0
   17.5558  -21.1618   14.8463 O   0  0  0  0  0  0  0  0  0  0  0  0
   15.4313  -21.7393   14.3711 O   0  0  0  0  0  0  0  0  0  0  0  0
  2  1  1  1
  2  3  1  0
  2  8  1  0
  3  4  1  0
  5  4  1  0
  5  6  1  0
  6  7  1  0
  8 13  1  0
  9  8  2  0
 12 11  1  6
 11 10  1  0
 12 14  1  0
 13 12  1  0
 14 16  1  0
 14 15  2  0
 16 17  1  0
 17 18  1  1
 17 20  1  0
 18 19  1  0
 20 21  1  0
 22 20  2  0
M  END
$$$$
