KSC.pdb
     RDKit          3D

 22 21  0  0  1  0  0  0  0  0999 V2000
    5.7999  -20.1004   21.9874 N   0  0  0  0  0  0  0  0  0  0  0  0
    7.0307  -19.5202   22.4343 C   0  0  1  0  0  0  0  0  0  0  0  0
    7.7425  -18.7854   21.2902 C   0  0  0  0  0  0  0  0  0  0  0  0
    8.2461  -19.8625   20.3533 C   0  0  0  0  0  0  0  0  0  0  0  0
    9.0760  -19.2796   19.2296 C   0  0  0  0  0  0  0  0  0  0  0  0
    9.5515  -20.4539   18.3800 C   0  0  0  0  0  0  0  0  0  0  0  0
   10.3504  -19.9870   17.2618 N   0  0  0  0  0  0  0  0  0  0  0  0
    6.7791  -18.5747   23.5307 C   0  0  0  0  0  0  0  0  0  0  0  0
    5.7169  -17.8998   23.4983 O   0  0  0  0  0  0  0  0  0  0  0  0
    8.1869  -19.3769   26.9879 O   0  0  0  0  0  0  0  0  0  0  0  0
    7.2136  -18.3923   26.9417 C   0  0  0  0  0  0  0  0  0  0  0  0
    7.4264  -17.5455   25.6928 C   0  0  2  0  0  0  0  0  0  0  0  0
    7.7184  -18.4439   24.5817 N   0  0  0  0  0  0  0  0  0  0  0  0
    8.6196  -16.6921   25.9236 C   0  0  0  0  0  0  0  0  0  0  0  0
    9.7814  -17.1044   25.5758 O   0  0  0  0  0  0  0  0  0  0  0  0
    8.5062  -15.4169   26.5250 N   0  0  0  0  0  0  0  0  0  0  0  0
    9.7150  -14.6855   26.9072 C   0  0  1  0  0  0  0  0  0  0  0  0
    9.3226  -13.2579   27.2195 C   0  0  0  0  0  0  0  0  0  0  0  0
    7.7684  -13.1636   28.1183 S   0  0  0  0  0  0  0  0  0  0  0  0
   10.2671  -15.3209   28.1281 C   0  0  0  0  0  0  0  0  0  0  0  0
   11.5057  -14.9618   28.6330 O   0  0  0  0  0  0  0  0  0  0  0  0
    9.6344  -16.2095   28.7528 O   0  0  0  0  0  0  0  0  0  0  0  0
  2  1  1  6
  2  3  1  0
  2  8  1  0
  3  4  1  0
  5  4  1  0
  5  6  1  0
  6  7  1  0
  8 13  1  0
  9  8  2  0
 12 11  1  1
 11 10  1  0
 12 14  1  0
 13 12  1  0
 14 16  1  0
 14 15  2  0
 16 17  1  0
 17 18  1  1
 17 20  1  0
 18 19  1  0
 20 21  1  0
 22 20  2  0
M  END
$$$$
