KSC.pdb
     RDKit          3D

 22 21  0  0  1  0  0  0  0  0999 V2000
    6.8148  -17.1481   20.5464 N   0  0  0  0  0  0  0  0  0  0  0  0
    7.9038  -16.4087   21.1108 C   0  0  1  0  0  0  0  0  0  0  0  0
    7.8355  -14.9296   20.7067 C   0  0  0  0  0  0  0  0  0  0  0  0
    8.1097  -14.8916   19.2185 C   0  0  0  0  0  0  0  0  0  0  0  0
    8.0155  -13.4837   18.6708 C   0  0  0  0  0  0  0  0  0  0  0  0
    8.2270  -13.5837   17.1633 C   0  0  0  0  0  0  0  0  0  0  0  0
    8.0697  -12.2842   16.5365 N   0  0  0  0  0  0  0  0  0  0  0  0
    7.8813  -16.5087   22.5768 C   0  0  0  0  0  0  0  0  0  0  0  0
    6.7785  -16.3528   23.1638 O   0  0  0  0  0  0  0  0  0  0  0  0
   10.9072  -18.3667   24.4881 O   0  0  0  0  0  0  0  0  0  0  0  0
    9.6507  -18.2987   25.0672 C   0  0  0  0  0  0  0  0  0  0  0  0
    9.0251  -16.9498   24.7331 C   0  0  2  0  0  0  0  0  0  0  0  0
    9.0772  -16.7732   23.2864 N   0  0  0  0  0  0  0  0  0  0  0  0
    9.8636  -15.8958   25.3584 C   0  0  0  0  0  0  0  0  0  0  0  0
   10.9268  -15.4882   24.7716 O   0  0  0  0  0  0  0  0  0  0  0  0
    9.5145  -15.3202   26.6024 N   0  0  0  0  0  0  0  0  0  0  0  0
   10.4436  -14.4022   27.2627 C   0  0  1  0  0  0  0  0  0  0  0  0
    9.7857  -13.0417   27.3405 C   0  0  0  0  0  0  0  0  0  0  0  0
    8.0832  -13.1439   27.9092 S   0  0  0  0  0  0  0  0  0  0  0  0
   10.6884  -14.9080   28.6350 C   0  0  0  0  0  0  0  0  0  0  0  0
   11.6191  -14.3122   29.4699 O   0  0  0  0  0  0  0  0  0  0  0  0
   10.0623  -15.8961   29.0951 O   0  0  0  0  0  0  0  0  0  0  0  0
  2  1  1  6
  2  3  1  0
  2  8  1  0
  3  4  1  0
  5  4  1  0
  5  6  1  0
  6  7  1  0
  8 13  1  0
  9  8  2  0
 12 11  1  6
 11 10  1  0
 12 14  1  0
 13 12  1  0
 14 16  1  0
 14 15  2  0
 16 17  1  0
 17 18  1  1
 17 20  1  0
 18 19  1  0
 20 21  1  0
 22 20  2  0
M  END
$$$$
