KSC.pdb
     RDKit          3D

 22 21  0  0  1  0  0  0  0  0999 V2000
    7.7688  -20.1166   20.7944 N   0  0  0  0  0  0  0  0  0  0  0  0
    8.9700  -20.7901   20.4007 C   0  0  1  0  0  0  0  0  0  0  0  0
    8.7550  -21.5946   19.1115 C   0  0  0  0  0  0  0  0  0  0  0  0
    7.5091  -22.4232   19.3407 C   0  0  0  0  0  0  0  0  0  0  0  0
    7.1423  -23.2287   18.1128 C   0  0  0  0  0  0  0  0  0  0  0  0
    5.9369  -24.0833   18.4919 C   0  0  0  0  0  0  0  0  0  0  0  0
    5.4289  -24.7952   17.3337 N   0  0  0  0  0  0  0  0  0  0  0  0
   10.0515  -19.8184   20.1869 C   0  0  0  0  0  0  0  0  0  0  0  0
   11.1882  -20.2579   19.8714 O   0  0  0  0  0  0  0  0  0  0  0  0
    9.2462  -15.8346   19.9757 O   0  0  0  0  0  0  0  0  0  0  0  0
   10.4563  -16.2794   19.4693 C   0  0  0  0  0  0  0  0  0  0  0  0
   10.9111  -17.4932   20.2707 C   0  0  2  0  0  0  0  0  0  0  0  0
    9.7986  -18.4338   20.3373 N   0  0  0  0  0  0  0  0  0  0  0  0
   11.2134  -17.0357   21.6508 C   0  0  0  0  0  0  0  0  0  0  0  0
   10.4997  -16.1221   22.1956 O   0  0  0  0  0  0  0  0  0  0  0  0
   12.2832  -17.5903   22.3915 N   0  0  0  0  0  0  0  0  0  0  0  0
   12.4617  -17.2192   23.7959 C   0  0  1  0  0  0  0  0  0  0  0  0
   11.2606  -17.7163   24.5705 C   0  0  0  0  0  0  0  0  0  0  0  0
   11.4443  -17.4632   26.3410 S   0  0  0  0  0  0  0  0  0  0  0  0
   13.6826  -17.8961   24.2961 C   0  0  0  0  0  0  0  0  0  0  0  0
   14.4783  -17.3224   25.2738 O   0  0  0  0  0  0  0  0  0  0  0  0
   14.0440  -19.0159   23.8538 O   0  0  0  0  0  0  0  0  0  0  0  0
  2  1  1  6
  2  3  1  0
  2  8  1  0
  3  4  1  0
  5  4  1  0
  5  6  1  0
  6  7  1  0
  8 13  1  0
  9  8  2  0
 12 11  1  6
 11 10  1  0
 12 14  1  0
 13 12  1  0
 14 16  1  0
 14 15  2  0
 16 17  1  0
 17 18  1  1
 17 20  1  0
 18 19  1  0
 20 21  1  0
 22 20  2  0
M  END
$$$$
