SDP.pdb
     RDKit          3D

 22 22  0  0  1  0  0  0  0  0999 V2000
   15.9435  -10.5474  -16.1112 O   0  0  0  0  0  0  0  0  0  0  0  0
   16.6765   -9.4764  -15.6350 C   0  0  0  0  0  0  0  0  0  0  0  0
   17.3055   -9.8245  -14.3022 C   0  0  2  0  0  0  0  0  0  0  0  0
   16.2793  -10.1743  -13.3396 N   0  0  0  0  0  0  0  0  0  0  0  0
   18.1148   -8.6553  -13.8187 C   0  0  0  0  0  0  0  0  0  0  0  0
   18.2847   -8.5971  -12.5824 O   0  0  0  0  0  0  0  0  0  0  0  0
   18.6161   -7.7270  -14.7555 N   0  0  0  0  0  0  0  0  0  0  0  0
   19.6064   -6.7225  -14.3605 C   0  0  1  0  0  0  0  0  0  0  0  0
   20.8184   -7.5060  -13.9021 C   0  0  0  0  0  0  0  0  0  0  0  0
   21.9308   -6.5753  -13.5731 C   0  0  0  0  0  0  0  0  0  0  0  0
   23.0027   -6.6878  -14.2017 O   0  0  0  0  0  0  0  0  0  0  0  0
   19.8251   -5.7894  -15.4514 C   0  0  0  0  0  0  0  0  0  0  0  0
   20.2303   -6.2916  -16.5689 O   0  0  0  0  0  0  0  0  0  0  0  0
   21.8145   -5.6022  -12.6044 O   0  0  0  0  0  0  0  0  0  0  0  0
   19.6458   -4.3799  -15.4523 N   0  0  0  0  0  0  0  0  0  0  0  0
   19.1332   -3.6751  -14.2649 C   0  0  0  0  0  0  0  0  0  0  0  0
   18.4308   -2.4532  -14.8182 C   0  0  0  0  0  0  0  0  0  0  0  0
   19.1845   -2.1012  -16.0646 C   0  0  0  0  0  0  0  0  0  0  0  0
   19.8867   -3.3852  -16.4431 C   0  0  1  0  0  0  0  0  0  0  0  0
   21.3190   -3.1621  -16.7166 C   0  0  0  0  0  0  0  0  0  0  0  0
   21.6736   -2.5804  -17.7538 O   0  0  0  0  0  0  0  0  0  0  0  0
   22.2639   -3.5985  -15.8224 O   0  0  0  0  0  0  0  0  0  0  0  0
  1  2  1  0
  3  5  1  0
  3  2  1  0
  3  4  1  1
  5  7  1  0
  6  5  2  0
  7  8  1  0
  8 12  1  0
  9 10  1  0
  8  9  1  6
 10 14  1  0
 11 10  2  0
 12 13  2  0
 12 15  1  0
 15 19  1  0
 16 15  1  0
 16 17  1  0
 17 18  1  0
 19 18  1  0
 19 20  1  1
 20 22  1  0
 21 20  2  0
M  END
$$$$
