SDP.pdb
     RDKit          3D

 22 22  0  0  1  0  0  0  0  0999 V2000
   23.9068  -12.4991  -15.8766 O   0  0  0  0  0  0  0  0  0  0  0  0
   22.7752  -11.8088  -16.2692 C   0  0  0  0  0  0  0  0  0  0  0  0
   21.6610  -12.7783  -16.6037 C   0  0  2  0  0  0  0  0  0  0  0  0
   21.9954  -13.5350  -17.7943 N   0  0  0  0  0  0  0  0  0  0  0  0
   20.3835  -12.0128  -16.7989 C   0  0  0  0  0  0  0  0  0  0  0  0
   20.2065  -11.5515  -17.9463 O   0  0  0  0  0  0  0  0  0  0  0  0
   19.4930  -11.8661  -15.7144 N   0  0  0  0  0  0  0  0  0  0  0  0
   18.2377  -11.1271  -15.8688 C   0  0  1  0  0  0  0  0  0  0  0  0
   17.2617  -11.7815  -14.9138 C   0  0  0  0  0  0  0  0  0  0  0  0
   16.9516  -13.1624  -15.3708 C   0  0  0  0  0  0  0  0  0  0  0  0
   17.3577  -14.1196  -14.6813 O   0  0  0  0  0  0  0  0  0  0  0  0
   18.4726   -9.7082  -15.6682 C   0  0  0  0  0  0  0  0  0  0  0  0
   19.3732   -9.3884  -14.8011 O   0  0  0  0  0  0  0  0  0  0  0  0
   16.2362  -13.4139  -16.5215 O   0  0  0  0  0  0  0  0  0  0  0  0
   17.8368   -8.6122  -16.3111 N   0  0  0  0  0  0  0  0  0  0  0  0
   16.8204   -8.8252  -17.3557 C   0  0  0  0  0  0  0  0  0  0  0  0
   16.9186   -7.6010  -18.2411 C   0  0  0  0  0  0  0  0  0  0  0  0
   17.3380   -6.4907  -17.3263 C   0  0  0  0  0  0  0  0  0  0  0  0
   17.9640   -7.2027  -16.1489 C   0  0  1  0  0  0  0  0  0  0  0  0
   17.4293   -6.7076  -14.8663 C   0  0  0  0  0  0  0  0  0  0  0  0
   16.6616   -7.4146  -14.1951 O   0  0  0  0  0  0  0  0  0  0  0  0
   17.7808   -5.4614  -14.4122 O   0  0  0  0  0  0  0  0  0  0  0  0
  1  2  1  0
  3  5  1  0
  3  2  1  0
  3  4  1  6
  5  7  1  0
  6  5  2  0
  7  8  1  0
  8 12  1  0
  9 10  1  0
  8  9  1  1
 10 14  1  0
 11 10  2  0
 12 13  2  0
 12 15  1  0
 15 19  1  0
 16 15  1  0
 16 17  1  0
 17 18  1  0
 19 18  1  0
 19 20  1  1
 20 22  1  0
 21 20  2  0
M  END
$$$$
