SDP.pdb
     RDKit          3D

 22 22  0  0  1  0  0  0  0  0999 V2000
   22.0790   -8.6834  -12.6548 O   0  0  0  0  0  0  0  0  0  0  0  0
   21.0392   -7.8518  -12.2827 C   0  0  0  0  0  0  0  0  0  0  0  0
   20.0970   -7.6388  -13.4490 C   0  0  2  0  0  0  0  0  0  0  0  0
   20.7585   -6.8863  -14.4969 N   0  0  0  0  0  0  0  0  0  0  0  0
   18.8708   -6.9178  -12.9667 C   0  0  0  0  0  0  0  0  0  0  0  0
   18.7523   -5.7394  -13.3642 O   0  0  0  0  0  0  0  0  0  0  0  0
   17.9601   -7.5901  -12.1246 N   0  0  0  0  0  0  0  0  0  0  0  0
   16.6551   -7.0035  -11.8103 C   0  0  1  0  0  0  0  0  0  0  0  0
   15.9778   -6.7814  -13.1463 C   0  0  0  0  0  0  0  0  0  0  0  0
   15.5545   -5.3612  -13.2719 C   0  0  0  0  0  0  0  0  0  0  0  0
   14.5858   -4.9694  -12.5901 O   0  0  0  0  0  0  0  0  0  0  0  0
   15.9464   -7.8522  -10.8690 C   0  0  0  0  0  0  0  0  0  0  0  0
   15.9405   -9.1174  -11.1226 O   0  0  0  0  0  0  0  0  0  0  0  0
   16.1936   -4.4738  -14.1103 O   0  0  0  0  0  0  0  0  0  0  0  0
   15.2535   -7.4693   -9.6890 N   0  0  0  0  0  0  0  0  0  0  0  0
   15.3112   -6.0866   -9.1849 C   0  0  0  0  0  0  0  0  0  0  0  0
   15.1198   -6.2161   -7.6885 C   0  0  0  0  0  0  0  0  0  0  0  0
   14.2382   -7.4147   -7.5105 C   0  0  0  0  0  0  0  0  0  0  0  0
   14.4160   -8.1942   -8.7933 C   0  0  1  0  0  0  0  0  0  0  0  0
   13.1187   -8.5778   -9.3815 C   0  0  0  0  0  0  0  0  0  0  0  0
   12.5942   -7.8682  -10.2540 O   0  0  0  0  0  0  0  0  0  0  0  0
   12.4882   -9.7227   -8.9639 O   0  0  0  0  0  0  0  0  0  0  0  0
  1  2  1  0
  3  5  1  0
  3  2  1  0
  3  4  1  6
  5  7  1  0
  6  5  2  0
  7  8  1  0
  8 12  1  0
  9 10  1  0
  8  9  1  6
 10 14  1  0
 11 10  2  0
 12 13  2  0
 12 15  1  0
 15 19  1  0
 16 15  1  0
 16 17  1  0
 17 18  1  0
 19 18  1  0
 19 20  1  6
 20 22  1  0
 21 20  2  0
M  END
$$$$
