SDP.pdb
     RDKit          3D

 22 22  0  0  1  0  0  0  0  0999 V2000
   18.4047  -11.2538  -18.3309 O   0  0  0  0  0  0  0  0  0  0  0  0
   19.0636  -11.5669  -17.1567 C   0  0  0  0  0  0  0  0  0  0  0  0
   20.4107  -10.8765  -17.1128 C   0  0  2  0  0  0  0  0  0  0  0  0
   21.4524  -11.8301  -16.7852 N   0  0  0  0  0  0  0  0  0  0  0  0
   20.3638   -9.7682  -16.1001 C   0  0  0  0  0  0  0  0  0  0  0  0
   20.1104  -10.1237  -14.9296 O   0  0  0  0  0  0  0  0  0  0  0  0
   20.6000   -8.4410  -16.5165 N   0  0  0  0  0  0  0  0  0  0  0  0
   20.5582   -7.3348  -15.5571 C   0  0  1  0  0  0  0  0  0  0  0  0
   21.6651   -7.6177  -14.5633 C   0  0  0  0  0  0  0  0  0  0  0  0
   21.7294   -6.5303  -13.5507 C   0  0  0  0  0  0  0  0  0  0  0  0
   20.8723   -6.5136  -12.6442 O   0  0  0  0  0  0  0  0  0  0  0  0
   20.6414   -6.0676  -16.2612 C   0  0  0  0  0  0  0  0  0  0  0  0
   21.6301   -5.9241  -17.0780 O   0  0  0  0  0  0  0  0  0  0  0  0
   22.6976   -5.5502  -13.5833 O   0  0  0  0  0  0  0  0  0  0  0  0
   19.7652   -4.9526  -16.1715 N   0  0  0  0  0  0  0  0  0  0  0  0
   18.5734   -4.9862  -15.3067 C   0  0  0  0  0  0  0  0  0  0  0  0
   17.5900   -4.0474  -15.9729 C   0  0  0  0  0  0  0  0  0  0  0  0
   18.4359   -3.0044  -16.6380 C   0  0  0  0  0  0  0  0  0  0  0  0
   19.7866   -3.6670  -16.7846 C   0  0  1  0  0  0  0  0  0  0  0  0
   20.8745   -2.7996  -16.2944 C   0  0  0  0  0  0  0  0  0  0  0  0
   21.5085   -3.1094  -15.2737 O   0  0  0  0  0  0  0  0  0  0  0  0
   21.1879   -1.6459  -16.9679 O   0  0  0  0  0  0  0  0  0  0  0  0
  1  2  1  0
  3  5  1  0
  3  2  1  0
  3  4  1  1
  5  7  1  0
  6  5  2  0
  7  8  1  0
  8 12  1  0
  9 10  1  0
  8  9  1  1
 10 14  1  0
 11 10  2  0
 12 13  2  0
 12 15  1  0
 15 19  1  0
 16 15  1  0
 16 17  1  0
 17 18  1  0
 19 18  1  0
 19 20  1  1
 20 22  1  0
 21 20  2  0
M  END
$$$$
