SDP.pdb
     RDKit          3D

 22 22  0  0  1  0  0  0  0  0999 V2000
   14.6918   -5.1687   -7.5916 O   0  0  0  0  0  0  0  0  0  0  0  0
   15.6395   -5.9679   -8.2033 C   0  0  0  0  0  0  0  0  0  0  0  0
   14.9755   -7.1671   -8.8471 C   0  0  2  0  0  0  0  0  0  0  0  0
   14.4467   -8.0538   -7.8292 N   0  0  0  0  0  0  0  0  0  0  0  0
   15.9769   -7.8811   -9.7093 C   0  0  0  0  0  0  0  0  0  0  0  0
   16.5838   -8.8226   -9.1563 O   0  0  0  0  0  0  0  0  0  0  0  0
   16.1649   -7.4609  -11.0430 N   0  0  0  0  0  0  0  0  0  0  0  0
   17.0387   -8.2095  -11.9495 C   0  0  1  0  0  0  0  0  0  0  0  0
   16.1099   -8.9616  -12.8793 C   0  0  0  0  0  0  0  0  0  0  0  0
   16.2849  -10.4272  -12.6968 C   0  0  0  0  0  0  0  0  0  0  0  0
   17.1052  -10.8241  -11.8447 O   0  0  0  0  0  0  0  0  0  0  0  0
   17.9821   -7.3059  -12.5837 C   0  0  0  0  0  0  0  0  0  0  0  0
   17.5482   -6.1247  -12.8693 O   0  0  0  0  0  0  0  0  0  0  0  0
   15.5752  -11.3508  -13.4333 O   0  0  0  0  0  0  0  0  0  0  0  0
   19.3374   -7.5523  -12.9321 N   0  0  0  0  0  0  0  0  0  0  0  0
   20.0058   -8.8095  -12.5551 C   0  0  0  0  0  0  0  0  0  0  0  0
   21.4692   -8.4422  -12.4281 C   0  0  0  0  0  0  0  0  0  0  0  0
   21.6819   -7.3393  -13.4200 C   0  0  0  0  0  0  0  0  0  0  0  0
   20.2960   -6.7817  -13.6508 C   0  0  1  0  0  0  0  0  0  0  0  0
   19.9918   -6.6574  -15.0889 C   0  0  0  0  0  0  0  0  0  0  0  0
   19.3180   -7.5275  -15.6623 O   0  0  0  0  0  0  0  0  0  0  0  0
   20.4545   -5.5768  -15.7967 O   0  0  0  0  0  0  0  0  0  0  0  0
  1  2  1  0
  3  5  1  0
  3  2  1  0
  3  4  1  1
  5  7  1  0
  6  5  2  0
  7  8  1  0
  8 12  1  0
  9 10  1  0
  8  9  1  6
 10 14  1  0
 11 10  2  0
 12 13  2  0
 12 15  1  0
 15 19  1  0
 16 15  1  0
 16 17  1  0
 17 18  1  0
 19 18  1  0
 19 20  1  6
 20 22  1  0
 21 20  2  0
M  END
$$$$
