SDP.pdb
     RDKit          3D

 22 22  0  0  1  0  0  0  0  0999 V2000
   19.1450  -11.9435  -17.5364 O   0  0  0  0  0  0  0  0  0  0  0  0
   19.0268  -10.8513  -16.6972 C   0  0  0  0  0  0  0  0  0  0  0  0
   20.3872  -10.2353  -16.4458 C   0  0  2  0  0  0  0  0  0  0  0  0
   21.2462  -11.1801  -15.7590 N   0  0  0  0  0  0  0  0  0  0  0  0
   20.2186   -8.9812  -15.6367 C   0  0  0  0  0  0  0  0  0  0  0  0
   19.6153   -9.1217  -14.5519 O   0  0  0  0  0  0  0  0  0  0  0  0
   20.7328   -7.7645  -16.1325 N   0  0  0  0  0  0  0  0  0  0  0  0
   20.7119   -6.5512  -15.3119 C   0  0  1  0  0  0  0  0  0  0  0  0
   21.6347   -6.8345  -14.1452 C   0  0  0  0  0  0  0  0  0  0  0  0
   21.6935   -5.6523  -13.2448 C   0  0  0  0  0  0  0  0  0  0  0  0
   20.7703   -5.4882  -12.4217 O   0  0  0  0  0  0  0  0  0  0  0  0
   21.0501   -5.3982  -16.1273 C   0  0  0  0  0  0  0  0  0  0  0  0
   22.1456   -5.4711  -16.8054 O   0  0  0  0  0  0  0  0  0  0  0  0
   22.7268   -4.7418  -13.2916 O   0  0  0  0  0  0  0  0  0  0  0  0
   20.3232   -4.1871  -16.2823 N   0  0  0  0  0  0  0  0  0  0  0  0
   19.0596   -3.9579  -15.5610 C   0  0  0  0  0  0  0  0  0  0  0  0
   18.2766   -3.0151  -16.4501 C   0  0  0  0  0  0  0  0  0  0  0  0
   19.3121   -2.1834  -17.1441 C   0  0  0  0  0  0  0  0  0  0  0  0
   20.5720   -3.0133  -17.0500 C   0  0  1  0  0  0  0  0  0  0  0  0
   21.7120   -2.2180  -16.5558 C   0  0  0  0  0  0  0  0  0  0  0  0
   22.1828   -2.4348  -15.4284 O   0  0  0  0  0  0  0  0  0  0  0  0
   22.2549   -1.2348  -17.3440 O   0  0  0  0  0  0  0  0  0  0  0  0
  1  2  1  0
  3  5  1  0
  3  2  1  0
  3  4  1  1
  5  7  1  0
  6  5  2  0
  7  8  1  0
  8 12  1  0
  9 10  1  0
  8  9  1  1
 10 14  1  0
 11 10  2  0
 12 13  2  0
 12 15  1  0
 15 19  1  0
 16 15  1  0
 16 17  1  0
 17 18  1  0
 19 18  1  0
 19 20  1  1
 20 22  1  0
 21 20  2  0
M  END
$$$$
