SDP.pdb
     RDKit          3D

 22 22  0  0  1  0  0  0  0  0999 V2000
   21.7697   -9.3243  -20.3089 O   0  0  0  0  0  0  0  0  0  0  0  0
   21.1984   -8.2929  -19.5871 C   0  0  0  0  0  0  0  0  0  0  0  0
   21.3283   -8.5594  -18.1020 C   0  0  2  0  0  0  0  0  0  0  0  0
   20.5536   -9.7280  -17.7327 N   0  0  0  0  0  0  0  0  0  0  0  0
   20.8650   -7.3497  -17.3418 C   0  0  0  0  0  0  0  0  0  0  0  0
   19.6478   -7.0878  -17.4437 O   0  0  0  0  0  0  0  0  0  0  0  0
   21.7983   -6.6092  -16.5859 N   0  0  0  0  0  0  0  0  0  0  0  0
   21.3835   -5.4194  -15.8387 C   0  0  1  0  0  0  0  0  0  0  0  0
   22.0088   -5.5634  -14.4672 C   0  0  0  0  0  0  0  0  0  0  0  0
   21.2836   -6.5990  -13.6839 C   0  0  0  0  0  0  0  0  0  0  0  0
   20.1427   -6.3281  -13.2576 O   0  0  0  0  0  0  0  0  0  0  0  0
   21.7395   -4.2224  -16.5797 C   0  0  0  0  0  0  0  0  0  0  0  0
   22.8282   -4.2727  -17.2706 O   0  0  0  0  0  0  0  0  0  0  0  0
   21.8284   -7.8364  -13.4174 O   0  0  0  0  0  0  0  0  0  0  0  0
   21.0368   -2.9893  -16.6485 N   0  0  0  0  0  0  0  0  0  0  0  0
   19.7447   -2.8082  -15.9650 C   0  0  0  0  0  0  0  0  0  0  0  0
   19.0159   -1.7704  -16.7923 C   0  0  0  0  0  0  0  0  0  0  0  0
   20.0931   -0.8944  -17.3560 C   0  0  0  0  0  0  0  0  0  0  0  0
   21.3362   -1.7517  -17.2871 C   0  0  1  0  0  0  0  0  0  0  0  0
   22.4629   -1.0280  -16.6683 C   0  0  0  0  0  0  0  0  0  0  0  0
   22.6703   -1.1209  -15.4484 O   0  0  0  0  0  0  0  0  0  0  0  0
   23.2855   -0.2491  -17.4425 O   0  0  0  0  0  0  0  0  0  0  0  0
  1  2  1  0
  3  5  1  0
  3  2  1  0
  3  4  1  1
  5  7  1  0
  6  5  2  0
  7  8  1  0
  8 12  1  0
  9 10  1  0
  8  9  1  1
 10 14  1  0
 11 10  2  0
 12 13  2  0
 12 15  1  0
 15 19  1  0
 16 15  1  0
 16 17  1  0
 17 18  1  0
 19 18  1  0
 19 20  1  1
 20 22  1  0
 21 20  2  0
M  END
$$$$
