SDP.pdb
     RDKit          3D

 22 22  0  0  1  0  0  0  0  0999 V2000
   19.2367  -13.4801  -15.0964 O   0  0  0  0  0  0  0  0  0  0  0  0
   19.9636  -12.3241  -15.3117 C   0  0  0  0  0  0  0  0  0  0  0  0
   19.9691  -11.9767  -16.7856 C   0  0  2  0  0  0  0  0  0  0  0  0
   20.8088  -12.9056  -17.5165 N   0  0  0  0  0  0  0  0  0  0  0  0
   20.4571  -10.5667  -16.9580 C   0  0  0  0  0  0  0  0  0  0  0  0
   21.6946  -10.4392  -17.0712 O   0  0  0  0  0  0  0  0  0  0  0  0
   19.5226   -9.5099  -16.9807 N   0  0  0  0  0  0  0  0  0  0  0  0
   19.9530   -8.1331  -17.2355 C   0  0  1  0  0  0  0  0  0  0  0  0
   18.6819   -7.3522  -17.4954 C   0  0  0  0  0  0  0  0  0  0  0  0
   18.0187   -7.8560  -18.7277 C   0  0  0  0  0  0  0  0  0  0  0  0
   18.6794   -7.8868  -19.7855 O   0  0  0  0  0  0  0  0  0  0  0  0
   20.7773   -7.6624  -16.1366 C   0  0  0  0  0  0  0  0  0  0  0  0
   20.4948   -8.1216  -14.9642 O   0  0  0  0  0  0  0  0  0  0  0  0
   16.7093   -8.2855  -18.7360 O   0  0  0  0  0  0  0  0  0  0  0  0
   21.8699   -6.7551  -16.1828 N   0  0  0  0  0  0  0  0  0  0  0  0
   22.2964   -6.1382  -17.4505 C   0  0  0  0  0  0  0  0  0  0  0  0
   23.7759   -5.8730  -17.2687 C   0  0  0  0  0  0  0  0  0  0  0  0
   23.9471   -5.6054  -15.8042 C   0  0  0  0  0  0  0  0  0  0  0  0
   22.7313   -6.2422  -15.1708 C   0  0  1  0  0  0  0  0  0  0  0  0
   22.0578   -5.3198  -14.2372 C   0  0  0  0  0  0  0  0  0  0  0  0
   21.0211   -4.7305  -14.5804 O   0  0  0  0  0  0  0  0  0  0  0  0
   22.5778   -5.1114  -12.9846 O   0  0  0  0  0  0  0  0  0  0  0  0
  1  2  1  0
  3  5  1  0
  3  2  1  0
  3  4  1  6
  5  7  1  0
  6  5  2  0
  7  8  1  0
  8 12  1  0
  9 10  1  0
  8  9  1  1
 10 14  1  0
 11 10  2  0
 12 13  2  0
 12 15  1  0
 15 19  1  0
 16 15  1  0
 16 17  1  0
 17 18  1  0
 19 18  1  0
 19 20  1  6
 20 22  1  0
 21 20  2  0
M  END
$$$$
