SDP.pdb
     RDKit          3D

 22 22  0  0  1  0  0  0  0  0999 V2000
   18.1187  -11.8861  -16.2034 O   0  0  0  0  0  0  0  0  0  0  0  0
   18.1869  -10.5058  -16.1681 C   0  0  0  0  0  0  0  0  0  0  0  0
   18.5260  -10.0347  -14.7694 C   0  0  2  0  0  0  0  0  0  0  0  0
   17.4623  -10.3881  -13.8497 N   0  0  0  0  0  0  0  0  0  0  0  0
   18.7429   -8.5486  -14.7889 C   0  0  0  0  0  0  0  0  0  0  0  0
   17.7374   -7.8650  -15.0760 O   0  0  0  0  0  0  0  0  0  0  0  0
   20.0223   -8.0329  -14.4927 N   0  0  0  0  0  0  0  0  0  0  0  0
   20.2853   -6.5934  -14.5599 C   0  0  1  0  0  0  0  0  0  0  0  0
   21.3616   -6.3290  -13.5282 C   0  0  0  0  0  0  0  0  0  0  0  0
   21.6748   -4.8759  -13.4812 C   0  0  0  0  0  0  0  0  0  0  0  0
   22.7971   -4.4988  -13.8749 O   0  0  0  0  0  0  0  0  0  0  0  0
   20.6027   -6.2130  -15.9249 C   0  0  0  0  0  0  0  0  0  0  0  0
   21.4504   -6.9583  -16.5503 O   0  0  0  0  0  0  0  0  0  0  0  0
   20.7717   -3.9426  -13.0204 O   0  0  0  0  0  0  0  0  0  0  0  0
   20.0940   -5.1176  -16.6734 N   0  0  0  0  0  0  0  0  0  0  0  0
   19.0485   -4.2377  -16.1237 C   0  0  0  0  0  0  0  0  0  0  0  0
   18.3014   -3.7261  -17.3372 C   0  0  0  0  0  0  0  0  0  0  0  0
   19.3258   -3.6660  -18.4292 C   0  0  0  0  0  0  0  0  0  0  0  0
   20.4079   -4.6160  -17.9692 C   0  0  1  0  0  0  0  0  0  0  0  0
   21.7454   -3.9993  -18.0530 C   0  0  0  0  0  0  0  0  0  0  0  0
   22.2170   -3.6780  -19.1549 O   0  0  0  0  0  0  0  0  0  0  0  0
   22.4719   -3.7794  -16.9100 O   0  0  0  0  0  0  0  0  0  0  0  0
  1  2  1  0
  3  5  1  0
  3  2  1  0
  3  4  1  1
  5  7  1  0
  6  5  2  0
  7  8  1  0
  8 12  1  0
  9 10  1  0
  8  9  1  1
 10 14  1  0
 11 10  2  0
 12 13  2  0
 12 15  1  0
 15 19  1  0
 16 15  1  0
 16 17  1  0
 17 18  1  0
 19 18  1  0
 19 20  1  1
 20 22  1  0
 21 20  2  0
M  END
$$$$
