SDP.pdb
     RDKit          3D

 22 22  0  0  1  0  0  0  0  0999 V2000
   26.6169   -9.3218  -16.1182 O   0  0  0  0  0  0  0  0  0  0  0  0
   25.9764   -9.9214  -15.0499 C   0  0  0  0  0  0  0  0  0  0  0  0
   24.7500  -10.6697  -15.5286 C   0  0  2  0  0  0  0  0  0  0  0  0
   25.1046  -11.5805  -16.5994 N   0  0  0  0  0  0  0  0  0  0  0  0
   23.7176   -9.6807  -15.9890 C   0  0  0  0  0  0  0  0  0  0  0  0
   23.7395   -9.4136  -17.2091 O   0  0  0  0  0  0  0  0  0  0  0  0
   22.8181   -9.1329  -15.0501 N   0  0  0  0  0  0  0  0  0  0  0  0
   21.7869   -8.1796  -15.4666 C   0  0  1  0  0  0  0  0  0  0  0  0
   20.5088   -8.6493  -14.8041 C   0  0  0  0  0  0  0  0  0  0  0  0
   20.0481   -9.9174  -15.4298 C   0  0  0  0  0  0  0  0  0  0  0  0
   19.7094   -9.8966  -16.6304 O   0  0  0  0  0  0  0  0  0  0  0  0
   22.2092   -6.8266  -15.1508 C   0  0  0  0  0  0  0  0  0  0  0  0
   22.9603   -6.6834  -14.1113 O   0  0  0  0  0  0  0  0  0  0  0  0
   19.9847  -11.1030  -14.7303 O   0  0  0  0  0  0  0  0  0  0  0  0
   21.9043   -5.6254  -15.8459 N   0  0  0  0  0  0  0  0  0  0  0  0
   21.0958   -5.6404  -17.0770 C   0  0  0  0  0  0  0  0  0  0  0  0
   21.5695   -4.4347  -17.8610 C   0  0  0  0  0  0  0  0  0  0  0  0
   21.9753   -3.4308  -16.8251 C   0  0  0  0  0  0  0  0  0  0  0  0
   22.2275   -4.2622  -15.5881 C   0  0  1  0  0  0  0  0  0  0  0  0
   21.5368   -3.7069  -14.4088 C   0  0  0  0  0  0  0  0  0  0  0  0
   20.5237   -4.2642  -13.9584 O   0  0  0  0  0  0  0  0  0  0  0  0
   22.0145   -2.5704  -13.8065 O   0  0  0  0  0  0  0  0  0  0  0  0
  1  2  1  0
  3  5  1  0
  3  2  1  0
  3  4  1  6
  5  7  1  0
  6  5  2  0
  7  8  1  0
  8 12  1  0
  9 10  1  0
  8  9  1  1
 10 14  1  0
 11 10  2  0
 12 13  2  0
 12 15  1  0
 15 19  1  0
 16 15  1  0
 16 17  1  0
 17 18  1  0
 19 18  1  0
 19 20  1  1
 20 22  1  0
 21 20  2  0
M  END
$$$$
