SDP.pdb
     RDKit          3D

 22 22  0  0  1  0  0  0  0  0999 V2000
   16.3214  -24.5734  -12.0921 O   0  0  0  0  0  0  0  0  0  0  0  0
   17.2845  -23.5851  -12.0092 C   0  0  0  0  0  0  0  0  0  0  0  0
   18.0977  -23.5390  -13.2859 C   0  0  2  0  0  0  0  0  0  0  0  0
   19.0572  -24.6257  -13.3087 N   0  0  0  0  0  0  0  0  0  0  0  0
   18.7930  -22.2110  -13.3798 C   0  0  0  0  0  0  0  0  0  0  0  0
   18.8709  -21.5713  -12.3096 O   0  0  0  0  0  0  0  0  0  0  0  0
   19.2977  -21.7817  -14.6254 N   0  0  0  0  0  0  0  0  0  0  0  0
   20.0598  -20.5357  -14.7371 C   0  0  1  0  0  0  0  0  0  0  0  0
   20.9557  -20.7150  -15.9446 C   0  0  0  0  0  0  0  0  0  0  0  0
   22.3495  -20.3210  -15.6066 C   0  0  0  0  0  0  0  0  0  0  0  0
   22.7831  -20.5950  -14.4692 O   0  0  0  0  0  0  0  0  0  0  0  0
   19.1513  -19.4037  -14.7793 C   0  0  0  0  0  0  0  0  0  0  0  0
   18.0201  -19.5922  -15.3709 O   0  0  0  0  0  0  0  0  0  0  0  0
   23.1683  -19.6690  -16.5030 O   0  0  0  0  0  0  0  0  0  0  0  0
   19.3439  -18.1011  -14.2451 N   0  0  0  0  0  0  0  0  0  0  0  0
   20.5794  -17.7464  -13.5260 C   0  0  0  0  0  0  0  0  0  0  0  0
   20.1597  -16.6632  -12.5548 C   0  0  0  0  0  0  0  0  0  0  0  0
   19.0397  -15.9393  -13.2383 C   0  0  0  0  0  0  0  0  0  0  0  0
   18.5313  -16.9312  -14.2593 C   0  0  1  0  0  0  0  0  0  0  0  0
   18.4038  -16.3198  -15.5957 C   0  0  0  0  0  0  0  0  0  0  0  0
   19.2734  -16.5177  -16.4586 O   0  0  0  0  0  0  0  0  0  0  0  0
   17.3209  -15.5295  -15.8877 O   0  0  0  0  0  0  0  0  0  0  0  0
  1  2  1  0
  3  5  1  0
  3  2  1  0
  3  4  1  1
  5  7  1  0
  6  5  2  0
  7  8  1  0
  8 12  1  0
  9 10  1  0
  8  9  1  6
 10 14  1  0
 11 10  2  0
 12 13  2  0
 12 15  1  0
 15 19  1  0
 16 15  1  0
 16 17  1  0
 17 18  1  0
 19 18  1  0
 19 20  1  6
 20 22  1  0
 21 20  2  0
M  END
$$$$
