SDP.pdb
     RDKit          3D

 22 22  0  0  1  0  0  0  0  0999 V2000
   26.7802  -26.4897  -16.6117 O   0  0  0  0  0  0  0  0  0  0  0  0
   26.7406  -25.3234  -15.8705 C   0  0  0  0  0  0  0  0  0  0  0  0
   26.8533  -24.1200  -16.7828 C   0  0  2  0  0  0  0  0  0  0  0  0
   28.1857  -24.0431  -17.3491 N   0  0  0  0  0  0  0  0  0  0  0  0
   26.5327  -22.8777  -16.0017 C   0  0  0  0  0  0  0  0  0  0  0  0
   27.4308  -22.4868  -15.2264 O   0  0  0  0  0  0  0  0  0  0  0  0
   25.2823  -22.2500  -16.1841 N   0  0  0  0  0  0  0  0  0  0  0  0
   24.9097  -21.0754  -15.3922 C   0  0  1  0  0  0  0  0  0  0  0  0
   24.0206  -20.2442  -16.2931 C   0  0  0  0  0  0  0  0  0  0  0  0
   23.4521  -19.1004  -15.5312 C   0  0  0  0  0  0  0  0  0  0  0  0
   24.2211  -18.1839  -15.1772 O   0  0  0  0  0  0  0  0  0  0  0  0
   24.3255  -21.4956  -14.1310 C   0  0  0  0  0  0  0  0  0  0  0  0
   23.4295  -22.4224  -14.1894 O   0  0  0  0  0  0  0  0  0  0  0  0
   22.1148  -19.0231  -15.2078 O   0  0  0  0  0  0  0  0  0  0  0  0
   24.6166  -21.0182  -12.8247 N   0  0  0  0  0  0  0  0  0  0  0  0
   25.7367  -20.0931  -12.5823 C   0  0  0  0  0  0  0  0  0  0  0  0
   26.1677  -20.3778  -11.1590 C   0  0  0  0  0  0  0  0  0  0  0  0
   24.9165  -20.7981  -10.4495 C   0  0  0  0  0  0  0  0  0  0  0  0
   23.9970  -21.2463  -11.5624 C   0  0  1  0  0  0  0  0  0  0  0  0
   22.6603  -20.6336  -11.4441 C   0  0  0  0  0  0  0  0  0  0  0  0
   22.3032  -19.7545  -12.2439 O   0  0  0  0  0  0  0  0  0  0  0  0
   21.8076  -21.0356  -10.4472 O   0  0  0  0  0  0  0  0  0  0  0  0
  1  2  1  0
  3  5  1  0
  3  2  1  0
  3  4  1  1
  5  7  1  0
  6  5  2  0
  7  8  1  0
  8 12  1  0
  9 10  1  0
  8  9  1  6
 10 14  1  0
 11 10  2  0
 12 13  2  0
 12 15  1  0
 15 19  1  0
 16 15  1  0
 16 17  1  0
 17 18  1  0
 19 18  1  0
 19 20  1  6
 20 22  1  0
 21 20  2  0
M  END
$$$$
