SDP.pdb
     RDKit          3D

 22 22  0  0  1  0  0  0  0  0999 V2000
   14.9167  -11.8208  -13.1039 O   0  0  0  0  0  0  0  0  0  0  0  0
   15.9013  -11.3424  -13.9483 C   0  0  0  0  0  0  0  0  0  0  0  0
   15.3152  -10.3390  -14.9193 C   0  0  2  0  0  0  0  0  0  0  0  0
   14.4072  -10.9999  -15.8362 N   0  0  0  0  0  0  0  0  0  0  0  0
   16.4311   -9.6656  -15.6657 C   0  0  0  0  0  0  0  0  0  0  0  0
   16.4495   -9.8690  -16.8981 O   0  0  0  0  0  0  0  0  0  0  0  0
   17.3577   -8.8728  -14.9559 N   0  0  0  0  0  0  0  0  0  0  0  0
   18.4124   -8.1395  -15.6601 C   0  0  1  0  0  0  0  0  0  0  0  0
   17.6928   -7.2202  -16.6244 C   0  0  0  0  0  0  0  0  0  0  0  0
   18.6770   -6.3734  -17.3498 C   0  0  0  0  0  0  0  0  0  0  0  0
   19.5725   -6.9389  -18.0093 O   0  0  0  0  0  0  0  0  0  0  0  0
   19.2910   -7.4955  -14.6999 C   0  0  0  0  0  0  0  0  0  0  0  0
   18.7297   -6.7303  -13.8254 O   0  0  0  0  0  0  0  0  0  0  0  0
   18.6301   -4.9966  -17.3159 O   0  0  0  0  0  0  0  0  0  0  0  0
   20.7039   -7.6009  -14.5922 N   0  0  0  0  0  0  0  0  0  0  0  0
   21.4786   -8.4464  -15.5165 C   0  0  0  0  0  0  0  0  0  0  0  0
   22.6948   -8.8698  -14.7202 C   0  0  0  0  0  0  0  0  0  0  0  0
   22.9648   -7.7303  -13.7852 C   0  0  0  0  0  0  0  0  0  0  0  0
   21.6434   -7.0006  -13.7056 C   0  0  1  0  0  0  0  0  0  0  0  0
   21.8088   -5.5502  -13.9180 C   0  0  0  0  0  0  0  0  0  0  0  0
   22.3574   -4.8507  -13.0522 O   0  0  0  0  0  0  0  0  0  0  0  0
   21.3553   -4.9707  -15.0761 O   0  0  0  0  0  0  0  0  0  0  0  0
  1  2  1  0
  3  5  1  0
  3  2  1  0
  3  4  1  6
  5  7  1  0
  6  5  2  0
  7  8  1  0
  8 12  1  0
  9 10  1  0
  8  9  1  6
 10 14  1  0
 11 10  2  0
 12 13  2  0
 12 15  1  0
 15 19  1  0
 16 15  1  0
 16 17  1  0
 17 18  1  0
 19 18  1  0
 19 20  1  6
 20 22  1  0
 21 20  2  0
M  END
$$$$
