SDP.pdb
     RDKit          3D

 22 22  0  0  1  0  0  0  0  0999 V2000
   14.9216   -6.2880   -7.5399 O   0  0  0  0  0  0  0  0  0  0  0  0
   15.8854   -6.4784   -8.5126 C   0  0  0  0  0  0  0  0  0  0  0  0
   15.2897   -7.1960   -9.7056 C   0  0  2  0  0  0  0  0  0  0  0  0
   15.0930   -8.5994   -9.3996 N   0  0  0  0  0  0  0  0  0  0  0  0
   16.2025   -7.0301  -10.8868 C   0  0  0  0  0  0  0  0  0  0  0  0
   16.8471   -8.0495  -11.2120 O   0  0  0  0  0  0  0  0  0  0  0  0
   16.2744   -5.7785  -11.5343 N   0  0  0  0  0  0  0  0  0  0  0  0
   17.0348   -5.6187  -12.7761 C   0  0  1  0  0  0  0  0  0  0  0  0
   16.4509   -4.3975  -13.4550 C   0  0  0  0  0  0  0  0  0  0  0  0
   17.1829   -4.1201  -14.7195 C   0  0  0  0  0  0  0  0  0  0  0  0
   17.3202   -5.0495  -15.5405 O   0  0  0  0  0  0  0  0  0  0  0  0
   18.4557   -5.5665  -12.4814 C   0  0  0  0  0  0  0  0  0  0  0  0
   18.8032   -4.9116  -11.4252 O   0  0  0  0  0  0  0  0  0  0  0  0
   17.7087   -2.8796  -15.0089 O   0  0  0  0  0  0  0  0  0  0  0  0
   19.5268   -6.1517  -13.2090 N   0  0  0  0  0  0  0  0  0  0  0  0
   19.2847   -6.8962  -14.4566 C   0  0  0  0  0  0  0  0  0  0  0  0
   20.4129   -7.9036  -14.5266 C   0  0  0  0  0  0  0  0  0  0  0  0
   21.5733   -7.2371  -13.8522 C   0  0  0  0  0  0  0  0  0  0  0  0
   20.9339   -6.1740  -12.9884 C   0  0  1  0  0  0  0  0  0  0  0  0
   21.5793   -4.8607  -13.1745 C   0  0  0  0  0  0  0  0  0  0  0  0
   21.0109   -3.9725  -13.8286 O   0  0  0  0  0  0  0  0  0  0  0  0
   22.8122   -4.6183  -12.6232 O   0  0  0  0  0  0  0  0  0  0  0  0
  1  2  1  0
  3  5  1  0
  3  2  1  0
  3  4  1  1
  5  7  1  0
  6  5  2  0
  7  8  1  0
  8 12  1  0
  9 10  1  0
  8  9  1  1
 10 14  1  0
 11 10  2  0
 12 13  2  0
 12 15  1  0
 15 19  1  0
 16 15  1  0
 16 17  1  0
 17 18  1  0
 19 18  1  0
 19 20  1  6
 20 22  1  0
 21 20  2  0
M  END
$$$$
