LYA.pdb
     RDKit          3D

 26 26  0  0  1  0  0  0  0  0999 V2000
   26.1968  -33.8381  -17.8621 C   0  0  0  0  0  0  0  0  0  0  0  0
   26.5122  -33.0386  -16.6232 C   0  0  1  0  0  0  0  0  0  0  0  0
   26.0542  -31.6308  -16.8258 C   0  0  0  0  0  0  0  0  0  0  0  0
   25.9357  -33.6756  -15.3708 C   0  0  0  0  0  0  0  0  0  0  0  0
   26.2680  -32.7640  -14.2124 C   0  0  2  0  0  0  0  0  0  0  0  0
   27.6933  -32.7387  -14.0614 N   0  0  0  0  0  0  0  0  0  0  0  0
   25.5601  -33.1465  -12.9767 C   0  0  0  0  0  0  0  0  0  0  0  0
   24.3143  -33.2748  -13.0077 O   0  0  0  0  0  0  0  0  0  0  0  0
   22.0478  -37.8266   -6.9190 O   0  0  0  0  0  0  0  0  0  0  0  0
   22.7557  -37.1756   -7.9404 C   0  0  0  0  0  0  0  0  0  0  0  0
   22.0818  -36.3801   -8.8438 C   0  0  0  0  0  0  0  0  0  0  0  0
   22.8437  -35.7609   -9.8352 C   0  0  0  0  0  0  0  0  0  0  0  0
   24.2093  -35.9271   -9.9207 C   0  0  0  0  0  0  0  0  0  0  0  0
   24.9933  -35.2561  -10.9892 C   0  0  0  0  0  0  0  0  0  0  0  0
   25.5124  -33.9097  -10.6182 C   0  0  2  0  0  0  0  0  0  0  0  0
   26.2314  -33.3751  -11.7543 N   0  0  0  0  0  0  0  0  0  0  0  0
   26.4120  -33.8807   -9.4520 C   0  0  0  0  0  0  0  0  0  0  0  0
   27.4582  -34.5810   -9.5324 O   0  0  0  0  0  0  0  0  0  0  0  0
   24.8188  -36.7399   -8.9799 C   0  0  0  0  0  0  0  0  0  0  0  0
   24.1216  -37.3761   -7.9804 C   0  0  0  0  0  0  0  0  0  0  0  0
   25.9253  -34.6773   -6.3896 C   0  0  0  0  0  0  0  0  0  0  0  0
   26.7861  -33.6075   -7.0391 C   0  0  2  0  0  0  0  0  0  0  0  0
   26.1993  -33.1479   -8.2805 N   0  0  0  0  0  0  0  0  0  0  0  0
   28.1702  -34.1176   -7.2465 C   0  0  0  0  0  0  0  0  0  0  0  0
   29.2510  -33.4833   -6.6582 O   0  0  0  0  0  0  0  0  0  0  0  0
   28.4090  -35.1307   -7.9545 O   0  0  0  0  0  0  0  0  0  0  0  0
  2  1  1  6
  2  3  1  0
  4  2  1  0
  4  5  1  0
  5  6  1  1
  7  5  1  0
  7  8  2  0
  9 10  1  0
 10 11  2  0
 11 12  1  0
 13 12  2  0
 13 14  1  0
 15 14  1  6
 15 16  1  0
 16  7  1  0
 17 15  1  0
 18 17  2  0
 19 13  1  0
 20 10  1  0
 20 19  2  0
 22 21  1  6
 22 23  1  0
 23 17  1  0
 24 22  1  0
 25 24  1  0
 26 24  2  0
M  END
$$$$
