LYA.pdb
     RDKit          3D

 26 26  0  0  1  0  0  0  0  0999 V2000
   27.9964  -15.5274  -18.0510 C   0  0  0  0  0  0  0  0  0  0  0  0
   26.8467  -15.1027  -17.1727 C   0  0  1  0  0  0  0  0  0  0  0  0
   27.2699  -15.1957  -15.7427 C   0  0  0  0  0  0  0  0  0  0  0  0
   26.3196  -13.7285  -17.5473 C   0  0  0  0  0  0  0  0  0  0  0  0
   25.1134  -13.4603  -16.6773 C   0  0  2  0  0  0  0  0  0  0  0  0
   24.3645  -14.6778  -16.5685 N   0  0  0  0  0  0  0  0  0  0  0  0
   24.3091  -12.3259  -17.1679 C   0  0  0  0  0  0  0  0  0  0  0  0
   24.8482  -11.1993  -17.2660 O   0  0  0  0  0  0  0  0  0  0  0  0
   17.7847   -7.6952  -20.8916 O   0  0  0  0  0  0  0  0  0  0  0  0
   18.6003   -8.7181  -20.3853 C   0  0  0  0  0  0  0  0  0  0  0  0
   18.1479   -9.5072  -19.3480 C   0  0  0  0  0  0  0  0  0  0  0  0
   19.0070  -10.5068  -18.8903 C   0  0  0  0  0  0  0  0  0  0  0  0
   20.2548  -10.7087  -19.4400 C   0  0  0  0  0  0  0  0  0  0  0  0
   21.1480  -11.7802  -18.9296 C   0  0  0  0  0  0  0  0  0  0  0  0
   22.2056  -11.3056  -17.9935 C   0  0  2  0  0  0  0  0  0  0  0  0
   22.9504  -12.4577  -17.5334 N   0  0  0  0  0  0  0  0  0  0  0  0
   21.7188  -10.5732  -16.8118 C   0  0  0  0  0  0  0  0  0  0  0  0
   21.0617  -11.2423  -15.9680 O   0  0  0  0  0  0  0  0  0  0  0  0
   20.6425   -9.8788  -20.4783 C   0  0  0  0  0  0  0  0  0  0  0  0
   19.8404   -8.8774  -20.9719 C   0  0  0  0  0  0  0  0  0  0  0  0
   22.3612   -8.4287  -14.2802 C   0  0  0  0  0  0  0  0  0  0  0  0
   21.3309   -8.6140  -15.3808 C   0  0  2  0  0  0  0  0  0  0  0  0
   21.9255   -9.2142  -16.5567 N   0  0  0  0  0  0  0  0  0  0  0  0
   20.6827   -7.3119  -15.7022 C   0  0  0  0  0  0  0  0  0  0  0  0
   20.7663   -6.7782  -16.9768 O   0  0  0  0  0  0  0  0  0  0  0  0
   20.0424   -6.6545  -14.8405 O   0  0  0  0  0  0  0  0  0  0  0  0
  2  1  1  6
  2  3  1  0
  4  2  1  0
  4  5  1  0
  5  6  1  6
  7  5  1  0
  7  8  2  0
  9 10  1  0
 10 11  2  0
 11 12  1  0
 13 12  2  0
 13 14  1  0
 15 14  1  6
 15 16  1  0
 16  7  1  0
 17 15  1  0
 18 17  2  0
 19 13  1  0
 20 10  1  0
 20 19  2  0
 22 21  1  1
 22 23  1  0
 23 17  1  0
 24 22  1  0
 25 24  1  0
 26 24  2  0
M  END
$$$$
