LYA.pdb
     RDKit          3D

 26 26  0  0  1  0  0  0  0  0999 V2000
   23.0808  -36.3170  -14.2697 C   0  0  0  0  0  0  0  0  0  0  0  0
   23.9356  -35.1157  -13.9540 C   0  0  1  0  0  0  0  0  0  0  0  0
   23.0463  -33.9682  -13.6001 C   0  0  0  0  0  0  0  0  0  0  0  0
   24.9700  -35.4166  -12.8834 C   0  0  0  0  0  0  0  0  0  0  0  0
   25.7099  -34.1293  -12.6027 C   0  0  2  0  0  0  0  0  0  0  0  0
   26.5938  -33.8758  -13.7025 N   0  0  0  0  0  0  0  0  0  0  0  0
   26.3975  -34.1506  -11.2984 C   0  0  0  0  0  0  0  0  0  0  0  0
   27.5141  -34.7118  -11.2117 O   0  0  0  0  0  0  0  0  0  0  0  0
   27.3597  -32.8821   -2.5633 O   0  0  0  0  0  0  0  0  0  0  0  0
   27.1514  -32.7851   -3.9472 C   0  0  0  0  0  0  0  0  0  0  0  0
   28.1730  -33.0996   -4.8192 C   0  0  0  0  0  0  0  0  0  0  0  0
   27.9016  -32.9824   -6.1828 C   0  0  0  0  0  0  0  0  0  0  0  0
   26.6724  -32.5719   -6.6525 C   0  0  0  0  0  0  0  0  0  0  0  0
   26.4141  -32.4548   -8.1106 C   0  0  0  0  0  0  0  0  0  0  0  0
   26.4897  -33.7437   -8.8543 C   0  0  2  0  0  0  0  0  0  0  0  0
   25.8466  -33.5618  -10.1377 N   0  0  0  0  0  0  0  0  0  0  0  0
   25.8595  -34.8950   -8.1855 C   0  0  0  0  0  0  0  0  0  0  0  0
   24.6139  -35.0214   -8.3402 O   0  0  0  0  0  0  0  0  0  0  0  0
   25.6941  -32.2729   -5.7194 C   0  0  0  0  0  0  0  0  0  0  0  0
   25.9021  -32.3692   -4.3639 C   0  0  0  0  0  0  0  0  0  0  0  0
   25.8373  -38.1914   -7.3189 C   0  0  0  0  0  0  0  0  0  0  0  0
   25.7544  -36.8226   -6.6657 C   0  0  2  0  0  0  0  0  0  0  0  0
   26.5251  -35.8442   -7.4041 N   0  0  0  0  0  0  0  0  0  0  0  0
   26.1948  -36.9038   -5.2449 C   0  0  0  0  0  0  0  0  0  0  0  0
   25.4329  -37.5809   -4.3082 O   0  0  0  0  0  0  0  0  0  0  0  0
   27.2614  -36.3681   -4.8453 O   0  0  0  0  0  0  0  0  0  0  0  0
  2  1  1  1
  2  3  1  0
  4  2  1  0
  4  5  1  0
  5  6  1  6
  7  5  1  0
  7  8  2  0
  9 10  1  0
 10 11  2  0
 11 12  1  0
 13 12  2  0
 13 14  1  0
 15 14  1  1
 15 16  1  0
 16  7  1  0
 17 15  1  0
 18 17  2  0
 19 13  1  0
 20 10  1  0
 20 19  2  0
 22 21  1  6
 22 23  1  0
 23 17  1  0
 24 22  1  0
 25 24  1  0
 26 24  2  0
M  END
$$$$
