LYA.pdb
     RDKit          3D

 26 26  0  0  1  0  0  0  0  0999 V2000
   22.7588  -17.6743  -20.7133 C   0  0  0  0  0  0  0  0  0  0  0  0
   22.4615  -18.7608  -19.7111 C   0  0  1  0  0  0  0  0  0  0  0  0
   23.0353  -20.0479  -20.2080 C   0  0  0  0  0  0  0  0  0  0  0  0
   22.9399  -18.3973  -18.3163 C   0  0  0  0  0  0  0  0  0  0  0  0
   22.6890  -19.5962  -17.4312 C   0  0  2  0  0  0  0  0  0  0  0  0
   21.2813  -19.6691  -17.1703 N   0  0  0  0  0  0  0  0  0  0  0  0
   23.5062  -19.5684  -16.2041 C   0  0  0  0  0  0  0  0  0  0  0  0
   23.4736  -18.5479  -15.4782 O   0  0  0  0  0  0  0  0  0  0  0  0
   25.0771  -20.6432   -8.1742 O   0  0  0  0  0  0  0  0  0  0  0  0
   24.9951  -20.9134   -9.5484 C   0  0  0  0  0  0  0  0  0  0  0  0
   26.1150  -21.3384  -10.2327 C   0  0  0  0  0  0  0  0  0  0  0  0
   25.9669  -21.5901  -11.5971 C   0  0  0  0  0  0  0  0  0  0  0  0
   24.7619  -21.4258  -12.2458 C   0  0  0  0  0  0  0  0  0  0  0  0
   24.6360  -21.6998  -13.7004 C   0  0  0  0  0  0  0  0  0  0  0  0
   25.0804  -20.5807  -14.5780 C   0  0  2  0  0  0  0  0  0  0  0  0
   24.3276  -20.6493  -15.8118 N   0  0  0  0  0  0  0  0  0  0  0  0
   26.5141  -20.5762  -14.9160 C   0  0  0  0  0  0  0  0  0  0  0  0
   26.9010  -21.4557  -15.7334 O   0  0  0  0  0  0  0  0  0  0  0  0
   23.6803  -20.9965  -11.4955 C   0  0  0  0  0  0  0  0  0  0  0  0
   23.7646  -20.7327  -10.1489 C   0  0  0  0  0  0  0  0  0  0  0  0
   29.7333  -18.8462  -14.0345 C   0  0  0  0  0  0  0  0  0  0  0  0
   28.8692  -19.9188  -14.6749 C   0  0  2  0  0  0  0  0  0  0  0  0
   27.4652  -19.6859  -14.4086 N   0  0  0  0  0  0  0  0  0  0  0  0
   29.2957  -21.2680  -14.2093 C   0  0  0  0  0  0  0  0  0  0  0  0
   30.1946  -22.0176  -14.9488 O   0  0  0  0  0  0  0  0  0  0  0  0
   28.8625  -21.7730  -13.1408 O   0  0  0  0  0  0  0  0  0  0  0  0
  2  1  1  6
  2  3  1  0
  4  2  1  0
  4  5  1  0
  5  6  1  1
  7  5  1  0
  7  8  2  0
  9 10  1  0
 10 11  2  0
 11 12  1  0
 13 12  2  0
 13 14  1  0
 15 14  1  1
 15 16  1  0
 16  7  1  0
 17 15  1  0
 18 17  2  0
 19 13  1  0
 20 10  1  0
 20 19  2  0
 22 21  1  1
 22 23  1  0
 23 17  1  0
 24 22  1  0
 25 24  1  0
 26 24  2  0
M  END
$$$$
