LYA.pdb
     RDKit          3D

 26 26  0  0  1  0  0  0  0  0999 V2000
   26.1948  -19.0393  -21.0779 C   0  0  0  0  0  0  0  0  0  0  0  0
   27.2037  -19.5101  -20.0612 C   0  0  1  0  0  0  0  0  0  0  0  0
   28.0119  -18.3397  -19.6032 C   0  0  0  0  0  0  0  0  0  0  0  0
   26.5507  -20.2645  -18.9162 C   0  0  0  0  0  0  0  0  0  0  0  0
   27.6503  -20.6638  -17.9595 C   0  0  2  0  0  0  0  0  0  0  0  0
   28.4371  -21.6841  -18.5878 N   0  0  0  0  0  0  0  0  0  0  0  0
   27.1278  -21.0637  -16.6399 C   0  0  0  0  0  0  0  0  0  0  0  0
   26.7529  -22.2470  -16.4705 O   0  0  0  0  0  0  0  0  0  0  0  0
   25.3016  -20.8498   -7.9936 O   0  0  0  0  0  0  0  0  0  0  0  0
   25.8007  -20.6302   -9.2862 C   0  0  0  0  0  0  0  0  0  0  0  0
   26.7683  -21.4683   -9.8003 C   0  0  0  0  0  0  0  0  0  0  0  0
   27.2226  -21.1959  -11.0911 C   0  0  0  0  0  0  0  0  0  0  0  0
   26.7356  -20.1402  -11.8315 C   0  0  0  0  0  0  0  0  0  0  0  0
   27.2407  -19.8742  -13.2030 C   0  0  0  0  0  0  0  0  0  0  0  0
   26.5227  -20.6156  -14.2776 C   0  0  2  0  0  0  0  0  0  0  0  0
   27.0320  -20.1639  -15.5544 N   0  0  0  0  0  0  0  0  0  0  0  0
   25.0586  -20.4530  -14.2852 C   0  0  0  0  0  0  0  0  0  0  0  0
   24.6080  -19.4531  -14.9084 O   0  0  0  0  0  0  0  0  0  0  0  0
   25.7653  -19.3407  -11.2515 C   0  0  0  0  0  0  0  0  0  0  0  0
   25.2786  -19.5591   -9.9844 C   0  0  0  0  0  0  0  0  0  0  0  0
   22.5146  -19.5391  -13.2110 C   0  0  0  0  0  0  0  0  0  0  0  0
   22.7359  -20.9692  -13.6729 C   0  0  2  0  0  0  0  0  0  0  0  0
   24.1434  -21.3085  -13.6645 N   0  0  0  0  0  0  0  0  0  0  0  0
   22.1341  -21.1728  -15.0203 C   0  0  0  0  0  0  0  0  0  0  0  0
   20.7770  -20.9877  -15.2217 O   0  0  0  0  0  0  0  0  0  0  0  0
   22.8251  -21.5163  -16.0147 O   0  0  0  0  0  0  0  0  0  0  0  0
  2  1  1  6
  2  3  1  0
  4  2  1  0
  4  5  1  0
  5  6  1  6
  7  5  1  0
  7  8  2  0
  9 10  1  0
 10 11  2  0
 11 12  1  0
 13 12  2  0
 13 14  1  0
 15 14  1  1
 15 16  1  0
 16  7  1  0
 17 15  1  0
 18 17  2  0
 19 13  1  0
 20 10  1  0
 20 19  2  0
 22 21  1  6
 22 23  1  0
 23 17  1  0
 24 22  1  0
 25 24  1  0
 26 24  2  0
M  END
$$$$
