LYA.pdb
     RDKit          3D

 26 26  0  0  1  0  0  0  0  0999 V2000
   27.6116  -10.4331  -17.1002 C   0  0  0  0  0  0  0  0  0  0  0  0
   26.3210  -10.8919  -16.4699 C   0  0  1  0  0  0  0  0  0  0  0  0
   26.5500  -11.1244  -15.0118 C   0  0  0  0  0  0  0  0  0  0  0  0
   25.1780   -9.9303  -16.7450 C   0  0  0  0  0  0  0  0  0  0  0  0
   23.9331  -10.5292  -16.1324 C   0  0  2  0  0  0  0  0  0  0  0  0
   23.5794  -11.6923  -16.8920 N   0  0  0  0  0  0  0  0  0  0  0  0
   22.8352   -9.5509  -16.0237 C   0  0  0  0  0  0  0  0  0  0  0  0
   22.1900   -9.2480  -17.0540 O   0  0  0  0  0  0  0  0  0  0  0  0
   17.2229  -12.8013  -16.1101 O   0  0  0  0  0  0  0  0  0  0  0  0
   17.9786  -11.7622  -15.5470 C   0  0  0  0  0  0  0  0  0  0  0  0
   17.6084  -10.4504  -15.7598 C   0  0  0  0  0  0  0  0  0  0  0  0
   18.4016   -9.4643  -15.1724 C   0  0  0  0  0  0  0  0  0  0  0  0
   19.5086   -9.7718  -14.4110 C   0  0  0  0  0  0  0  0  0  0  0  0
   20.3351   -8.6992  -13.8000 C   0  0  0  0  0  0  0  0  0  0  0  0
   21.3195   -8.0764  -14.7291 C   0  0  2  0  0  0  0  0  0  0  0  0
   22.4794   -8.9385  -14.8008 N   0  0  0  0  0  0  0  0  0  0  0  0
   21.7746   -6.7269  -14.3528 C   0  0  0  0  0  0  0  0  0  0  0  0
   22.8847   -6.6543  -13.7579 O   0  0  0  0  0  0  0  0  0  0  0  0
   19.8205  -11.1099  -14.2398 C   0  0  0  0  0  0  0  0  0  0  0  0
   19.0774  -12.1255  -14.7932 C   0  0  0  0  0  0  0  0  0  0  0  0
   22.9933   -4.0561  -14.9740 C   0  0  0  0  0  0  0  0  0  0  0  0
   21.6858   -4.2745  -14.2324 C   0  0  2  0  0  0  0  0  0  0  0  0
   21.0819   -5.5380  -14.6002 N   0  0  0  0  0  0  0  0  0  0  0  0
   20.7587   -3.1350  -14.4790 C   0  0  0  0  0  0  0  0  0  0  0  0
   21.0223   -1.8839  -13.9480 O   0  0  0  0  0  0  0  0  0  0  0  0
   19.7141   -3.2620  -15.1698 O   0  0  0  0  0  0  0  0  0  0  0  0
  2  1  1  1
  2  3  1  0
  4  2  1  0
  4  5  1  0
  5  6  1  6
  7  5  1  0
  7  8  2  0
  9 10  1  0
 10 11  2  0
 11 12  1  0
 13 12  2  0
 13 14  1  0
 15 14  1  1
 15 16  1  0
 16  7  1  0
 17 15  1  0
 18 17  2  0
 19 13  1  0
 20 10  1  0
 20 19  2  0
 22 21  1  6
 22 23  1  0
 23 17  1  0
 24 22  1  0
 25 24  1  0
 26 24  2  0
M  END
$$$$
