LYA.pdb
     RDKit          3D

 26 26  0  0  1  0  0  0  0  0999 V2000
   24.8817  -15.0342  -17.1919 C   0  0  0  0  0  0  0  0  0  0  0  0
   24.7687  -13.6094  -16.7116 C   0  0  1  0  0  0  0  0  0  0  0  0
   26.1309  -12.9958  -16.6912 C   0  0  0  0  0  0  0  0  0  0  0  0
   23.7697  -12.8091  -17.5290 C   0  0  0  0  0  0  0  0  0  0  0  0
   23.7345  -11.4137  -16.9499 C   0  0  2  0  0  0  0  0  0  0  0  0
   23.5694  -11.5257  -15.5304 N   0  0  0  0  0  0  0  0  0  0  0  0
   22.7100  -10.5671  -17.5886 C   0  0  0  0  0  0  0  0  0  0  0  0
   22.7774  -10.3620  -18.8226 O   0  0  0  0  0  0  0  0  0  0  0  0
   14.9303   -7.1118  -19.5587 O   0  0  0  0  0  0  0  0  0  0  0  0
   16.0095   -7.7692  -18.9496 C   0  0  0  0  0  0  0  0  0  0  0  0
   16.1937   -7.6690  -17.5861 C   0  0  0  0  0  0  0  0  0  0  0  0
   17.2856   -8.3463  -17.0421 C   0  0  0  0  0  0  0  0  0  0  0  0
   18.1500   -9.0864  -17.8197 C   0  0  0  0  0  0  0  0  0  0  0  0
   19.3054   -9.7950  -17.2117 C   0  0  0  0  0  0  0  0  0  0  0  0
   20.6335   -9.2127  -17.5535 C   0  0  2  0  0  0  0  0  0  0  0  0
   21.6512   -9.9754  -16.8633 N   0  0  0  0  0  0  0  0  0  0  0  0
   20.8083   -7.7928  -17.2021 C   0  0  0  0  0  0  0  0  0  0  0  0
   21.0521   -7.5402  -15.9905 O   0  0  0  0  0  0  0  0  0  0  0  0
   17.9036   -9.1425  -19.1811 C   0  0  0  0  0  0  0  0  0  0  0  0
   16.8448   -8.4968  -19.7744 C   0  0  0  0  0  0  0  0  0  0  0  0
   21.2073   -4.4161  -18.7667 C   0  0  0  0  0  0  0  0  0  0  0  0
   20.9719   -5.3761  -17.6133 C   0  0  2  0  0  0  0  0  0  0  0  0
   20.7261   -6.7195  -18.0942 N   0  0  0  0  0  0  0  0  0  0  0  0
   19.8520   -4.8892  -16.7601 C   0  0  0  0  0  0  0  0  0  0  0  0
   20.1019   -4.0937  -15.6550 O   0  0  0  0  0  0  0  0  0  0  0  0
   18.6516   -5.1773  -17.0061 O   0  0  0  0  0  0  0  0  0  0  0  0
  2  1  1  6
  2  3  1  0
  4  2  1  0
  4  5  1  0
  5  6  1  1
  7  5  1  0
  7  8  2  0
  9 10  1  0
 10 11  2  0
 11 12  1  0
 13 12  2  0
 13 14  1  0
 15 14  1  1
 15 16  1  0
 16  7  1  0
 17 15  1  0
 18 17  2  0
 19 13  1  0
 20 10  1  0
 20 19  2  0
 22 21  1  6
 22 23  1  0
 23 17  1  0
 24 22  1  0
 25 24  1  0
 26 24  2  0
M  END
$$$$
