LYA.pdb
     RDKit          3D

 26 26  0  0  1  0  0  0  0  0999 V2000
   31.4501  -22.2384  -19.5876 C   0  0  0  0  0  0  0  0  0  0  0  0
   30.1041  -21.6250  -19.2953 C   0  0  1  0  0  0  0  0  0  0  0  0
   29.2033  -21.8541  -20.4652 C   0  0  0  0  0  0  0  0  0  0  0  0
   29.5187  -22.1297  -17.9880 C   0  0  0  0  0  0  0  0  0  0  0  0
   28.1800  -21.4524  -17.8068 C   0  0  2  0  0  0  0  0  0  0  0  0
   28.3582  -20.0482  -18.0339 N   0  0  0  0  0  0  0  0  0  0  0  0
   27.5701  -21.7562  -16.4992 C   0  0  0  0  0  0  0  0  0  0  0  0
   27.4460  -22.9536  -16.1526 O   0  0  0  0  0  0  0  0  0  0  0  0
   24.6069  -20.8819   -8.2459 O   0  0  0  0  0  0  0  0  0  0  0  0
   25.1556  -20.6707   -9.5197 C   0  0  0  0  0  0  0  0  0  0  0  0
   24.4651  -19.9207  -10.4491 C   0  0  0  0  0  0  0  0  0  0  0  0
   25.0651  -19.7480  -11.6968 C   0  0  0  0  0  0  0  0  0  0  0  0
   26.2925  -20.2962  -12.0016 C   0  0  0  0  0  0  0  0  0  0  0  0
   26.9051  -20.0965  -13.3401 C   0  0  0  0  0  0  0  0  0  0  0  0
   26.5013  -21.1065  -14.3584 C   0  0  2  0  0  0  0  0  0  0  0  0
   27.1180  -20.7485  -15.6174 N   0  0  0  0  0  0  0  0  0  0  0  0
   25.0503  -21.2335  -14.5791 C   0  0  0  0  0  0  0  0  0  0  0  0
   24.5003  -20.3112  -15.2410 O   0  0  0  0  0  0  0  0  0  0  0  0
   26.9281  -21.0372  -11.0198 C   0  0  0  0  0  0  0  0  0  0  0  0
   26.3872  -21.2420   -9.7726 C   0  0  0  0  0  0  0  0  0  0  0  0
   22.2528  -23.6819  -14.3391 C   0  0  0  0  0  0  0  0  0  0  0  0
   22.8331  -22.2809  -14.4272 C   0  0  2  0  0  0  0  0  0  0  0  0
   24.2477  -22.2815  -14.1186 N   0  0  0  0  0  0  0  0  0  0  0  0
   22.0808  -21.3562  -13.5339 C   0  0  0  0  0  0  0  0  0  0  0  0
   22.6824  -20.8169  -12.4097 O   0  0  0  0  0  0  0  0  0  0  0  0
   20.8859  -21.0328  -13.7621 O   0  0  0  0  0  0  0  0  0  0  0  0
  2  1  1  6
  2  3  1  0
  4  2  1  0
  4  5  1  0
  5  6  1  1
  7  5  1  0
  7  8  2  0
  9 10  1  0
 10 11  2  0
 11 12  1  0
 13 12  2  0
 13 14  1  0
 15 14  1  1
 15 16  1  0
 16  7  1  0
 17 15  1  0
 18 17  2  0
 19 13  1  0
 20 10  1  0
 20 19  2  0
 22 21  1  1
 22 23  1  0
 23 17  1  0
 24 22  1  0
 25 24  1  0
 26 24  2  0
M  END
$$$$
