LYA.pdb
     RDKit          3D

 26 26  0  0  1  0  0  0  0  0999 V2000
   20.1131  -10.6640  -21.1978 C   0  0  0  0  0  0  0  0  0  0  0  0
   20.5575  -10.9612  -19.7880 C   0  0  1  0  0  0  0  0  0  0  0  0
   22.0450  -10.8407  -19.7136 C   0  0  0  0  0  0  0  0  0  0  0  0
   19.8403  -10.0934  -18.7686 C   0  0  0  0  0  0  0  0  0  0  0  0
   20.3572  -10.4871  -17.4042 C   0  0  2  0  0  0  0  0  0  0  0  0
   19.9147  -11.8226  -17.1298 N   0  0  0  0  0  0  0  0  0  0  0  0
   19.9719   -9.5215  -16.3585 C   0  0  0  0  0  0  0  0  0  0  0  0
   18.7632   -9.4179  -16.0458 O   0  0  0  0  0  0  0  0  0  0  0  0
   19.2939   -4.7653   -9.1818 O   0  0  0  0  0  0  0  0  0  0  0  0
   19.7476   -5.5700  -10.2376 C   0  0  0  0  0  0  0  0  0  0  0  0
   19.2898   -6.8657  -10.3594 C   0  0  0  0  0  0  0  0  0  0  0  0
   19.7794   -7.6133  -11.4308 C   0  0  0  0  0  0  0  0  0  0  0  0
   20.6807   -7.0939  -12.3352 C   0  0  0  0  0  0  0  0  0  0  0  0
   21.1858   -7.9155  -13.4651 C   0  0  0  0  0  0  0  0  0  0  0  0
   20.4679   -7.6987  -14.7526 C   0  0  2  0  0  0  0  0  0  0  0  0
   20.9134   -8.7050  -15.6920 N   0  0  0  0  0  0  0  0  0  0  0  0
   20.6666   -6.3760  -15.3699 C   0  0  0  0  0  0  0  0  0  0  0  0
   21.8167   -6.1387  -15.8308 O   0  0  0  0  0  0  0  0  0  0  0  0
   21.0964   -5.7861  -12.1509 C   0  0  0  0  0  0  0  0  0  0  0  0
   20.6495   -5.0006  -11.1149 C   0  0  0  0  0  0  0  0  0  0  0  0
   18.8960   -3.5271  -16.8706 C   0  0  0  0  0  0  0  0  0  0  0  0
   20.0499   -4.1024  -16.0676 C   0  0  2  0  0  0  0  0  0  0  0  0
   19.6939   -5.3782  -15.4827 N   0  0  0  0  0  0  0  0  0  0  0  0
   20.4879   -3.1295  -15.0281 C   0  0  0  0  0  0  0  0  0  0  0  0
   21.2657   -2.0361  -15.3687 O   0  0  0  0  0  0  0  0  0  0  0  0
   20.1730   -3.2607  -13.8164 O   0  0  0  0  0  0  0  0  0  0  0  0
  2  1  1  6
  2  3  1  0
  4  2  1  0
  4  5  1  0
  5  6  1  1
  7  5  1  0
  7  8  2  0
  9 10  1  0
 10 11  2  0
 11 12  1  0
 13 12  2  0
 13 14  1  0
 15 14  1  1
 15 16  1  0
 16  7  1  0
 17 15  1  0
 18 17  2  0
 19 13  1  0
 20 10  1  0
 20 19  2  0
 22 21  1  1
 22 23  1  0
 23 17  1  0
 24 22  1  0
 25 24  1  0
 26 24  2  0
M  END
$$$$
