LYA.pdb
     RDKit          3D

 26 26  0  0  1  0  0  0  0  0999 V2000
   17.7178  -14.3172  -18.7841 C   0  0  0  0  0  0  0  0  0  0  0  0
   18.3771  -13.6207  -17.6207 C   0  0  1  0  0  0  0  0  0  0  0  0
   19.6813  -14.2900  -17.3314 C   0  0  0  0  0  0  0  0  0  0  0  0
   18.5162  -12.1265  -17.8544 C   0  0  0  0  0  0  0  0  0  0  0  0
   19.1156  -11.5320  -16.6010 C   0  0  2  0  0  0  0  0  0  0  0  0
   18.2692  -11.8773  -15.4968 N   0  0  0  0  0  0  0  0  0  0  0  0
   19.3468  -10.0809  -16.7236 C   0  0  0  0  0  0  0  0  0  0  0  0
   19.9668   -9.6490  -17.7229 O   0  0  0  0  0  0  0  0  0  0  0  0
   14.3146   -7.0988  -20.2728 O   0  0  0  0  0  0  0  0  0  0  0  0
   15.1415   -7.1179  -19.1397 C   0  0  0  0  0  0  0  0  0  0  0  0
   14.8417   -7.9547  -18.0848 C   0  0  0  0  0  0  0  0  0  0  0  0
   15.7035   -7.9262  -16.9879 C   0  0  0  0  0  0  0  0  0  0  0  0
   16.8088   -7.1038  -16.9459 C   0  0  0  0  0  0  0  0  0  0  0  0
   17.7070   -7.0942  -15.7627 C   0  0  0  0  0  0  0  0  0  0  0  0
   19.0335   -7.7327  -15.9920 C   0  0  2  0  0  0  0  0  0  0  0  0
   18.8963   -9.1538  -15.7568 N   0  0  0  0  0  0  0  0  0  0  0  0
   20.1289   -7.2319  -15.1440 C   0  0  0  0  0  0  0  0  0  0  0  0
   20.0495   -7.4925  -13.9123 O   0  0  0  0  0  0  0  0  0  0  0  0
   17.0479   -6.2906  -18.0407 C   0  0  0  0  0  0  0  0  0  0  0  0
   16.2352   -6.2747  -19.1495 C   0  0  0  0  0  0  0  0  0  0  0  0
   23.5384   -5.7185  -15.3385 C   0  0  0  0  0  0  0  0  0  0  0  0
   22.2387   -6.0782  -14.6395 C   0  0  2  0  0  0  0  0  0  0  0  0
   21.2334   -6.5010  -15.5919 N   0  0  0  0  0  0  0  0  0  0  0  0
   21.7625   -4.9304  -13.8179 C   0  0  0  0  0  0  0  0  0  0  0  0
   22.3042   -4.6855  -12.5677 O   0  0  0  0  0  0  0  0  0  0  0  0
   20.8620   -4.1490  -14.2215 O   0  0  0  0  0  0  0  0  0  0  0  0
  2  1  1  6
  2  3  1  0
  4  2  1  0
  4  5  1  0
  5  6  1  1
  7  5  1  0
  7  8  2  0
  9 10  1  0
 10 11  2  0
 11 12  1  0
 13 12  2  0
 13 14  1  0
 15 14  1  1
 15 16  1  0
 16  7  1  0
 17 15  1  0
 18 17  2  0
 19 13  1  0
 20 10  1  0
 20 19  2  0
 22 21  1  6
 22 23  1  0
 23 17  1  0
 24 22  1  0
 25 24  1  0
 26 24  2  0
M  END
$$$$
