LYA.pdb
     RDKit          3D

 26 26  0  0  1  0  0  0  0  0999 V2000
   31.4428  -16.7416  -19.7842 C   0  0  0  0  0  0  0  0  0  0  0  0
   30.5605  -17.2834  -18.6881 C   0  0  1  0  0  0  0  0  0  0  0  0
   31.1592  -16.9301  -17.3655 C   0  0  0  0  0  0  0  0  0  0  0  0
   29.1217  -16.8184  -18.8312 C   0  0  0  0  0  0  0  0  0  0  0  0
   28.3340  -17.4504  -17.7072 C   0  0  2  0  0  0  0  0  0  0  0  0
   28.4687  -18.8734  -17.8155 N   0  0  0  0  0  0  0  0  0  0  0  0
   26.9300  -17.0003  -17.6840 C   0  0  0  0  0  0  0  0  0  0  0  0
   26.1025  -17.5593  -18.4405 O   0  0  0  0  0  0  0  0  0  0  0  0
   22.1005  -20.4931  -14.0335 O   0  0  0  0  0  0  0  0  0  0  0  0
   22.6937  -19.2756  -14.3994 C   0  0  0  0  0  0  0  0  0  0  0  0
   22.0118  -18.3975  -15.2162 C   0  0  0  0  0  0  0  0  0  0  0  0
   22.6568  -17.2043  -15.5431 C   0  0  0  0  0  0  0  0  0  0  0  0
   23.9189  -16.9026  -15.0784 C   0  0  0  0  0  0  0  0  0  0  0  0
   24.5808  -15.6245  -15.4456 C   0  0  0  0  0  0  0  0  0  0  0  0
   25.0837  -15.5726  -16.8472 C   0  0  2  0  0  0  0  0  0  0  0  0
   26.4776  -15.9606  -16.8405 N   0  0  0  0  0  0  0  0  0  0  0  0
   24.9769  -14.2598  -17.5068 C   0  0  0  0  0  0  0  0  0  0  0  0
   25.8380  -13.3969  -17.1824 O   0  0  0  0  0  0  0  0  0  0  0  0
   24.5433  -17.8310  -14.2628 C   0  0  0  0  0  0  0  0  0  0  0  0
   23.9588  -19.0232  -13.9063 C   0  0  0  0  0  0  0  0  0  0  0  0
   24.0568  -12.6611  -20.5597 C   0  0  0  0  0  0  0  0  0  0  0  0
   24.0503  -12.5810  -19.0428 C   0  0  2  0  0  0  0  0  0  0  0  0
   24.0096  -13.9015  -18.4505 N   0  0  0  0  0  0  0  0  0  0  0  0
   22.9123  -11.7397  -18.5777 C   0  0  0  0  0  0  0  0  0  0  0  0
   22.9219  -10.3694  -18.7744 O   0  0  0  0  0  0  0  0  0  0  0  0
   21.9114  -12.2338  -17.9959 O   0  0  0  0  0  0  0  0  0  0  0  0
  2  1  1  6
  2  3  1  0
  4  2  1  0
  4  5  1  0
  5  6  1  6
  7  5  1  0
  7  8  2  0
  9 10  1  0
 10 11  2  0
 11 12  1  0
 13 12  2  0
 13 14  1  0
 15 14  1  1
 15 16  1  0
 16  7  1  0
 17 15  1  0
 18 17  2  0
 19 13  1  0
 20 10  1  0
 20 19  2  0
 22 21  1  6
 22 23  1  0
 23 17  1  0
 24 22  1  0
 25 24  1  0
 26 24  2  0
M  END
$$$$
