LYA.pdb
     RDKit          3D

 26 26  0  0  1  0  0  0  0  0999 V2000
   27.2510  -18.7125  -16.5442 C   0  0  0  0  0  0  0  0  0  0  0  0
   27.7027  -19.5330  -15.3627 C   0  0  1  0  0  0  0  0  0  0  0  0
   29.1830  -19.7205  -15.4410 C   0  0  0  0  0  0  0  0  0  0  0  0
   27.2499  -18.9316  -14.0436 C   0  0  0  0  0  0  0  0  0  0  0  0
   27.8144  -19.7969  -12.9408 C   0  0  2  0  0  0  0  0  0  0  0  0
   27.7916  -21.1585  -13.3886 N   0  0  0  0  0  0  0  0  0  0  0  0
   27.1166  -19.5961  -11.6575 C   0  0  0  0  0  0  0  0  0  0  0  0
   26.5710  -18.4913  -11.4315 O   0  0  0  0  0  0  0  0  0  0  0  0
   20.6713  -20.4077  -12.3419 O   0  0  0  0  0  0  0  0  0  0  0  0
   21.8079  -20.6282  -11.5497 C   0  0  0  0  0  0  0  0  0  0  0  0
   21.8806  -20.0811  -10.2854 C   0  0  0  0  0  0  0  0  0  0  0  0
   23.0375  -20.3378   -9.5489 C   0  0  0  0  0  0  0  0  0  0  0  0
   24.0699  -21.1019  -10.0490 C   0  0  0  0  0  0  0  0  0  0  0  0
   25.2905  -21.3559   -9.2413 C   0  0  0  0  0  0  0  0  0  0  0  0
   26.3654  -20.3387   -9.4143 C   0  0  2  0  0  0  0  0  0  0  0  0
   27.0377  -20.6023  -10.6682 N   0  0  0  0  0  0  0  0  0  0  0  0
   27.3811  -20.3077   -8.3479 C   0  0  0  0  0  0  0  0  0  0  0  0
   28.2118  -21.2570   -8.3360 O   0  0  0  0  0  0  0  0  0  0  0  0
   23.9280  -21.6190  -11.3256 C   0  0  0  0  0  0  0  0  0  0  0  0
   22.8125  -21.4007  -12.0988 C   0  0  0  0  0  0  0  0  0  0  0  0
   29.1441  -18.2137   -5.9351 C   0  0  0  0  0  0  0  0  0  0  0  0
   28.4300  -19.5107   -6.2739 C   0  0  2  0  0  0  0  0  0  0  0  0
   27.4942  -19.3223   -7.3626 N   0  0  0  0  0  0  0  0  0  0  0  0
   27.7551  -20.0570   -5.0635 C   0  0  0  0  0  0  0  0  0  0  0  0
   28.4907  -20.4103   -3.9451 O   0  0  0  0  0  0  0  0  0  0  0  0
   26.5077  -20.2169   -5.0099 O   0  0  0  0  0  0  0  0  0  0  0  0
  2  1  1  6
  2  3  1  0
  4  2  1  0
  4  5  1  0
  5  6  1  6
  7  5  1  0
  7  8  2  0
  9 10  1  0
 10 11  2  0
 11 12  1  0
 13 12  2  0
 13 14  1  0
 15 14  1  1
 15 16  1  0
 16  7  1  0
 17 15  1  0
 18 17  2  0
 19 13  1  0
 20 10  1  0
 20 19  2  0
 22 21  1  1
 22 23  1  0
 23 17  1  0
 24 22  1  0
 25 24  1  0
 26 24  2  0
M  END
$$$$
