HVI.pdb
     RDKit          3D

 26 26  0  0  1  0  0  0  0  0999 V2000
   13.4973  -14.6462   19.4725 N   0  0  0  0  0  0  0  0  0  0  0  0
   12.3488  -15.4662   19.7854 C   0  0  1  0  0  0  0  0  0  0  0  0
   12.8046  -16.6442   20.6268 C   0  0  0  0  0  0  0  0  0  0  0  0
   13.3688  -17.7044   19.7235 C   0  0  0  0  0  0  0  0  0  0  0  0
   13.4208  -17.6842   18.3513 C   0  0  0  0  0  0  0  0  0  0  0  0
   13.9988  -18.8157   17.9209 N   0  0  0  0  0  0  0  0  0  0  0  0
   14.3053  -19.5362   19.0111 C   0  0  0  0  0  0  0  0  0  0  0  0
   13.9274  -18.8695   20.0926 N   0  0  0  0  0  0  0  0  0  0  0  0
   11.4217  -14.6618   20.6121 C   0  0  0  0  0  0  0  0  0  0  0  0
   11.8445  -13.8434   21.4921 O   0  0  0  0  0  0  0  0  0  0  0  0
    6.7430  -13.0951   21.1193 C   0  0  0  0  0  0  0  0  0  0  0  0
    7.8339  -13.8101   20.3690 C   0  0  1  0  0  0  0  0  0  0  0  0
    8.1209  -13.0342   19.1107 C   0  0  0  0  0  0  0  0  0  0  0  0
    9.1092  -13.9070   21.2195 C   0  0  2  0  0  0  0  0  0  0  0  0
   10.0164  -14.7557   20.4726 N   0  0  0  0  0  0  0  0  0  0  0  0
    8.7649  -14.6139   22.5047 C   0  0  0  0  0  0  0  0  0  0  0  0
    9.0667  -15.8053   22.7117 O   0  0  0  0  0  0  0  0  0  0  0  0
    6.9369  -11.2809   26.5707 C   0  0  0  0  0  0  0  0  0  0  0  0
    7.8266  -12.3598   26.0840 C   0  0  0  0  0  0  0  0  0  0  0  0
    7.2118  -13.6796   25.7732 C   0  0  2  0  0  0  0  0  0  0  0  0
    6.8219  -14.3323   27.0837 C   0  0  0  0  0  0  0  0  0  0  0  0
    7.8736  -14.5762   24.8210 C   0  0  2  0  0  0  0  0  0  0  0  0
    8.0809  -13.9363   23.5249 N   0  0  0  0  0  0  0  0  0  0  0  0
    7.1055  -15.7968   24.5475 C   0  0  0  0  0  0  0  0  0  0  0  0
    7.2422  -17.0134   25.2006 O   0  0  0  0  0  0  0  0  0  0  0  0
    6.2250  -15.7371   23.6080 O   0  0  0  0  0  0  0  0  0  0  0  0
  2  1  1  1
  3  2  1  0
  3  4  1  0
  4  8  1  0
  5  6  1  0
  5  4  2  0
  6  7  1  0
  7  8  2  0
  9 10  2  0
  9  2  1  0
 12 11  1  1
 12 14  1  0
 13 12  1  0
 14 16  1  0
 14 15  1  6
 15  9  1  0
 16 17  2  0
 19 18  1  0
 20 21  1  1
 20 19  1  0
 22 20  1  0
 22 23  1  6
 23 16  1  0
 24 22  1  0
 25 24  1  0
 26 24  2  0
M  END
$$$$
