HVI.pdb
     RDKit          3D

 26 26  0  0  1  0  0  0  0  0999 V2000
   11.8832  -16.9168   19.3388 N   0  0  0  0  0  0  0  0  0  0  0  0
   10.9833  -17.5157   20.2984 C   0  0  1  0  0  0  0  0  0  0  0  0
   11.6672  -18.7165   20.9259 C   0  0  0  0  0  0  0  0  0  0  0  0
   11.4627  -19.9154   20.0434 C   0  0  0  0  0  0  0  0  0  0  0  0
   10.7682  -19.9660   18.8596 C   0  0  0  0  0  0  0  0  0  0  0  0
   10.8182  -21.2174   18.3788 N   0  0  0  0  0  0  0  0  0  0  0  0
   11.5358  -21.9421   19.2514 C   0  0  0  0  0  0  0  0  0  0  0  0
   11.9225  -21.1611   20.2501 N   0  0  0  0  0  0  0  0  0  0  0  0
   10.7385  -16.5306   21.3754 C   0  0  0  0  0  0  0  0  0  0  0  0
   11.6418  -15.7198   21.7620 O   0  0  0  0  0  0  0  0  0  0  0  0
    7.3982  -14.4481   21.7284 C   0  0  0  0  0  0  0  0  0  0  0  0
    7.7431  -15.1471   23.0156 C   0  0  1  0  0  0  0  0  0  0  0  0
    6.9540  -16.4282   23.0770 C   0  0  0  0  0  0  0  0  0  0  0  0
    9.2452  -15.4609   23.0818 C   0  0  2  0  0  0  0  0  0  0  0  0
    9.4903  -16.4335   22.0353 N   0  0  0  0  0  0  0  0  0  0  0  0
    9.5296  -16.1222   24.4054 C   0  0  0  0  0  0  0  0  0  0  0  0
    9.9271  -17.3004   24.4901 O   0  0  0  0  0  0  0  0  0  0  0  0
    9.7009  -12.4429   28.4289 C   0  0  0  0  0  0  0  0  0  0  0  0
   10.3346  -13.5436   27.6677 C   0  0  0  0  0  0  0  0  0  0  0  0
    9.8570  -14.9301   27.9243 C   0  0  2  0  0  0  0  0  0  0  0  0
   10.4491  -15.3909   29.2405 C   0  0  0  0  0  0  0  0  0  0  0  0
    9.9195  -15.9240   26.8487 C   0  0  2  0  0  0  0  0  0  0  0  0
    9.3510  -15.4150   25.6037 N   0  0  0  0  0  0  0  0  0  0  0  0
    9.1785  -17.1536   27.1548 C   0  0  0  0  0  0  0  0  0  0  0  0
    7.8473  -17.4035   26.8536 O   0  0  0  0  0  0  0  0  0  0  0  0
    9.8213  -18.0882   27.7670 O   0  0  0  0  0  0  0  0  0  0  0  0
  2  1  1  6
  3  2  1  0
  3  4  1  0
  4  8  1  0
  5  6  1  0
  5  4  2  0
  6  7  1  0
  7  8  2  0
  9 10  2  0
  9  2  1  0
 12 11  1  6
 12 14  1  0
 13 12  1  0
 14 16  1  0
 14 15  1  6
 15  9  1  0
 16 17  2  0
 19 18  1  0
 20 21  1  1
 20 19  1  0
 22 20  1  0
 22 23  1  6
 23 16  1  0
 24 22  1  0
 25 24  1  0
 26 24  2  0
M  END
$$$$
