HVI.pdb
     RDKit          3D

 26 26  0  0  1  0  0  0  0  0999 V2000
   12.0207  -17.3446   19.4798 N   0  0  0  0  0  0  0  0  0  0  0  0
   11.0153  -17.7584   20.4323 C   0  0  1  0  0  0  0  0  0  0  0  0
   11.6263  -18.7792   21.3747 C   0  0  0  0  0  0  0  0  0  0  0  0
   11.7718  -20.0892   20.6530 C   0  0  0  0  0  0  0  0  0  0  0  0
   10.8399  -21.0937   20.5602 C   0  0  0  0  0  0  0  0  0  0  0  0
   11.3520  -22.0965   19.8310 N   0  0  0  0  0  0  0  0  0  0  0  0
   12.5904  -21.7243   19.4713 C   0  0  0  0  0  0  0  0  0  0  0  0
   12.8423  -20.5200   19.9645 N   0  0  0  0  0  0  0  0  0  0  0  0
   10.6354  -16.5786   21.2408 C   0  0  0  0  0  0  0  0  0  0  0  0
   11.5060  -15.7668   21.6946 O   0  0  0  0  0  0  0  0  0  0  0  0
    7.8783  -14.1645   20.1086 C   0  0  0  0  0  0  0  0  0  0  0  0
    7.6049  -14.6009   21.5225 C   0  0  1  0  0  0  0  0  0  0  0  0
    6.6262  -15.7445   21.4770 C   0  0  0  0  0  0  0  0  0  0  0  0
    8.8989  -15.0545   22.2145 C   0  0  2  0  0  0  0  0  0  0  0  0
    9.2869  -16.2857   21.5550 N   0  0  0  0  0  0  0  0  0  0  0  0
    8.5757  -15.3792   23.6499 C   0  0  0  0  0  0  0  0  0  0  0  0
    8.8068  -16.4978   24.1486 O   0  0  0  0  0  0  0  0  0  0  0  0
    5.5649  -11.7372   27.1044 C   0  0  0  0  0  0  0  0  0  0  0  0
    6.0339  -12.8662   26.2691 C   0  0  0  0  0  0  0  0  0  0  0  0
    7.3288  -13.5060   26.6299 C   0  0  2  0  0  0  0  0  0  0  0  0
    8.3719  -12.4135   26.7470 C   0  0  0  0  0  0  0  0  0  0  0  0
    7.7737  -14.6949   25.8970 C   0  0  2  0  0  0  0  0  0  0  0  0
    7.9937  -14.4111   24.4816 N   0  0  0  0  0  0  0  0  0  0  0  0
    6.8039  -15.7960   25.9393 C   0  0  0  0  0  0  0  0  0  0  0  0
    6.5481  -16.6201   27.0259 O   0  0  0  0  0  0  0  0  0  0  0  0
    6.1297  -16.0249   24.8648 O   0  0  0  0  0  0  0  0  0  0  0  0
  2  1  1  6
  3  2  1  0
  3  4  1  0
  4  8  1  0
  5  6  1  0
  5  4  2  0
  6  7  1  0
  7  8  2  0
  9 10  2  0
  9  2  1  0
 12 11  1  6
 12 14  1  0
 13 12  1  0
 14 16  1  0
 14 15  1  6
 15  9  1  0
 16 17  2  0
 19 18  1  0
 20 21  1  6
 20 19  1  0
 22 20  1  0
 22 23  1  6
 23 16  1  0
 24 22  1  0
 25 24  1  0
 26 24  2  0
M  END
$$$$
