HVI.pdb
     RDKit          3D

 26 26  0  0  1  0  0  0  0  0999 V2000
   12.2119  -16.6589   19.4841 N   0  0  0  0  0  0  0  0  0  0  0  0
   11.4807  -17.0853   20.6558 C   0  0  1  0  0  0  0  0  0  0  0  0
   12.4690  -17.5881   21.6920 C   0  0  0  0  0  0  0  0  0  0  0  0
   12.7466  -19.0435   21.4412 C   0  0  0  0  0  0  0  0  0  0  0  0
   12.2013  -19.8355   20.4607 C   0  0  0  0  0  0  0  0  0  0  0  0
   12.7049  -21.0739   20.5713 N   0  0  0  0  0  0  0  0  0  0  0  0
   13.5559  -21.0576   21.6092 C   0  0  0  0  0  0  0  0  0  0  0  0
   13.5810  -19.8395   22.1311 N   0  0  0  0  0  0  0  0  0  0  0  0
   10.8000  -15.9024   21.2280 C   0  0  0  0  0  0  0  0  0  0  0  0
   11.4050  -14.7934   21.3921 O   0  0  0  0  0  0  0  0  0  0  0  0
    7.5943  -14.4277   19.9264 C   0  0  0  0  0  0  0  0  0  0  0  0
    7.4041  -14.7272   21.3887 C   0  0  1  0  0  0  0  0  0  0  0  0
    6.7305  -16.0689   21.5066 C   0  0  0  0  0  0  0  0  0  0  0  0
    8.7543  -14.7598   22.1202 C   0  0  2  0  0  0  0  0  0  0  0  0
    9.4417  -15.9358   21.6244 N   0  0  0  0  0  0  0  0  0  0  0  0
    8.4885  -14.9629   23.5893 C   0  0  0  0  0  0  0  0  0  0  0  0
    8.9541  -15.9294   24.2236 O   0  0  0  0  0  0  0  0  0  0  0  0
    6.6876  -10.4623   26.3547 C   0  0  0  0  0  0  0  0  0  0  0  0
    7.5387  -11.6600   26.1714 C   0  0  0  0  0  0  0  0  0  0  0  0
    6.9016  -12.9959   26.3324 C   0  0  2  0  0  0  0  0  0  0  0  0
    6.5094  -13.1530   27.7873 C   0  0  0  0  0  0  0  0  0  0  0  0
    7.5438  -14.1756   25.7453 C   0  0  2  0  0  0  0  0  0  0  0  0
    7.6930  -14.0504   24.2981 N   0  0  0  0  0  0  0  0  0  0  0  0
    6.7874  -15.4142   25.9650 C   0  0  0  0  0  0  0  0  0  0  0  0
    5.8039  -15.9311   25.1337 O   0  0  0  0  0  0  0  0  0  0  0  0
    7.0558  -16.0833   27.0335 O   0  0  0  0  0  0  0  0  0  0  0  0
  2  1  1  6
  3  2  1  0
  3  4  1  0
  4  8  1  0
  5  6  1  0
  5  4  2  0
  6  7  1  0
  7  8  2  0
  9 10  2  0
  9  2  1  0
 12 11  1  6
 12 14  1  0
 13 12  1  0
 14 16  1  0
 14 15  1  6
 15  9  1  0
 16 17  2  0
 19 18  1  0
 20 21  1  1
 20 19  1  0
 22 20  1  0
 22 23  1  6
 23 16  1  0
 24 22  1  0
 25 24  1  0
 26 24  2  0
M  END
$$$$
