HVI.pdb
     RDKit          3D

 26 26  0  0  1  0  0  0  0  0999 V2000
    9.6881  -18.2775   18.4852 N   0  0  0  0  0  0  0  0  0  0  0  0
   10.3363  -17.8668   19.7101 C   0  0  1  0  0  0  0  0  0  0  0  0
   11.5419  -17.0131   19.3620 C   0  0  0  0  0  0  0  0  0  0  0  0
   12.6761  -17.9088   18.9503 C   0  0  0  0  0  0  0  0  0  0  0  0
   13.4237  -18.7274   19.7609 C   0  0  0  0  0  0  0  0  0  0  0  0
   14.3388  -19.3624   19.0132 N   0  0  0  0  0  0  0  0  0  0  0  0
   14.1663  -18.9461   17.7489 C   0  0  0  0  0  0  0  0  0  0  0  0
   13.1688  -18.0741   17.7110 N   0  0  0  0  0  0  0  0  0  0  0  0
    9.3918  -17.0146   20.4662 C   0  0  0  0  0  0  0  0  0  0  0  0
    9.0680  -15.8501   20.0638 O   0  0  0  0  0  0  0  0  0  0  0  0
    5.9589  -18.0645   21.4355 C   0  0  0  0  0  0  0  0  0  0  0  0
    6.6502  -17.6137   22.6937 C   0  0  1  0  0  0  0  0  0  0  0  0
    7.1913  -18.8334   23.3916 C   0  0  0  0  0  0  0  0  0  0  0  0
    7.8011  -16.6496   22.3696 C   0  0  2  0  0  0  0  0  0  0  0  0
    8.7959  -17.4438   21.6761 N   0  0  0  0  0  0  0  0  0  0  0  0
    8.4038  -16.1830   23.6692 C   0  0  0  0  0  0  0  0  0  0  0  0
    9.5689  -16.4714   24.0053 O   0  0  0  0  0  0  0  0  0  0  0  0
    6.3051  -11.5002   25.6725 C   0  0  0  0  0  0  0  0  0  0  0  0
    7.2997  -12.5206   25.2699 C   0  0  0  0  0  0  0  0  0  0  0  0
    7.5759  -13.6336   26.2192 C   0  0  2  0  0  0  0  0  0  0  0  0
    8.1406  -13.0329   27.4902 C   0  0  0  0  0  0  0  0  0  0  0  0
    8.2832  -14.8265   25.7444 C   0  0  2  0  0  0  0  0  0  0  0  0
    7.6545  -15.3947   24.5551 N   0  0  0  0  0  0  0  0  0  0  0  0
    8.3193  -15.9090   26.7350 C   0  0  0  0  0  0  0  0  0  0  0  0
    9.3742  -16.2043   27.5867 O   0  0  0  0  0  0  0  0  0  0  0  0
    7.2763  -16.6617   26.8190 O   0  0  0  0  0  0  0  0  0  0  0  0
  2  1  1  6
  3  2  1  0
  3  4  1  0
  4  8  1  0
  5  6  1  0
  5  4  2  0
  6  7  1  0
  7  8  2  0
  9 10  2  0
  9  2  1  0
 12 11  1  6
 12 14  1  0
 13 12  1  0
 14 16  1  0
 14 15  1  6
 15  9  1  0
 16 17  2  0
 19 18  1  0
 20 21  1  1
 20 19  1  0
 22 20  1  0
 22 23  1  6
 23 16  1  0
 24 22  1  0
 25 24  1  0
 26 24  2  0
M  END
$$$$
