HVI.pdb
     RDKit          3D

 26 26  0  0  1  0  0  0  0  0999 V2000
    8.2016  -15.4132   20.8916 N   0  0  0  0  0  0  0  0  0  0  0  0
    7.4028  -15.5055   22.0927 C   0  0  1  0  0  0  0  0  0  0  0  0
    7.1212  -16.9688   22.3805 C   0  0  0  0  0  0  0  0  0  0  0  0
    6.2108  -17.5129   21.3158 C   0  0  0  0  0  0  0  0  0  0  0  0
    5.7385  -16.8502   20.2095 C   0  0  0  0  0  0  0  0  0  0  0  0
    4.9550  -17.6813   19.5060 N   0  0  0  0  0  0  0  0  0  0  0  0
    4.9369  -18.8509   20.1641 C   0  0  0  0  0  0  0  0  0  0  0  0
    5.6903  -18.7500   21.2500 N   0  0  0  0  0  0  0  0  0  0  0  0
    8.2044  -14.9774   23.2190 C   0  0  0  0  0  0  0  0  0  0  0  0
    9.4656  -15.1454   23.2828 O   0  0  0  0  0  0  0  0  0  0  0  0
    7.2079  -11.5722   25.1504 C   0  0  0  0  0  0  0  0  0  0  0  0
    7.5170  -12.7061   26.0899 C   0  0  1  0  0  0  0  0  0  0  0  0
    6.2136  -13.3305   26.5128 C   0  0  0  0  0  0  0  0  0  0  0  0
    8.3972  -13.7608   25.4028 C   0  0  2  0  0  0  0  0  0  0  0  0
    7.6170  -14.2574   24.2866 N   0  0  0  0  0  0  0  0  0  0  0  0
    8.6052  -14.9000   26.3667 C   0  0  0  0  0  0  0  0  0  0  0  0
    7.7316  -15.7640   26.5759 O   0  0  0  0  0  0  0  0  0  0  0  0
   12.5356  -17.9221   25.3000 C   0  0  0  0  0  0  0  0  0  0  0  0
   11.2845  -17.3478   25.8457 C   0  0  0  0  0  0  0  0  0  0  0  0
   11.2721  -16.9464   27.2792 C   0  0  2  0  0  0  0  0  0  0  0  0
   11.7209  -18.1376   28.1007 C   0  0  0  0  0  0  0  0  0  0  0  0
   10.1068  -16.2401   27.8194 C   0  0  2  0  0  0  0  0  0  0  0  0
    9.8130  -15.0220   27.0695 N   0  0  0  0  0  0  0  0  0  0  0  0
   10.2819  -15.8197   29.2148 C   0  0  0  0  0  0  0  0  0  0  0  0
   10.4227  -14.5148   29.6651 O   0  0  0  0  0  0  0  0  0  0  0  0
   10.3149  -16.7492   30.1072 O   0  0  0  0  0  0  0  0  0  0  0  0
  2  1  1  6
  3  2  1  0
  3  4  1  0
  4  8  1  0
  5  6  1  0
  5  4  2  0
  6  7  1  0
  7  8  2  0
  9 10  2  0
  9  2  1  0
 12 11  1  6
 12 14  1  0
 13 12  1  0
 14 16  1  0
 14 15  1  6
 15  9  1  0
 16 17  2  0
 19 18  1  0
 20 21  1  1
 20 19  1  0
 22 20  1  0
 22 23  1  6
 23 16  1  0
 24 22  1  0
 25 24  1  0
 26 24  2  0
M  END
$$$$
