HVI.pdb
     RDKit          3D

 26 26  0  0  1  0  0  0  0  0999 V2000
   10.1265  -15.8245   18.4660 N   0  0  0  0  0  0  0  0  0  0  0  0
   10.6631  -15.7579   19.8065 C   0  0  1  0  0  0  0  0  0  0  0  0
   11.4273  -14.4560   19.9625 C   0  0  0  0  0  0  0  0  0  0  0  0
   12.7893  -14.6086   19.3461 C   0  0  0  0  0  0  0  0  0  0  0  0
   13.9008  -15.1765   19.9190 C   0  0  0  0  0  0  0  0  0  0  0  0
   14.9175  -15.1202   19.0457 N   0  0  0  0  0  0  0  0  0  0  0  0
   14.4481  -14.5238   17.9386 C   0  0  0  0  0  0  0  0  0  0  0  0
   13.1713  -14.2169   18.1188 N   0  0  0  0  0  0  0  0  0  0  0  0
    9.5273  -15.7228   20.7546 C   0  0  0  0  0  0  0  0  0  0  0  0
    8.5075  -14.9861   20.5541 O   0  0  0  0  0  0  0  0  0  0  0  0
    6.9931  -18.0987   24.1767 C   0  0  0  0  0  0  0  0  0  0  0  0
    8.0589  -17.9718   23.1221 C   0  0  1  0  0  0  0  0  0  0  0  0
    7.5496  -18.6222   21.8631 C   0  0  0  0  0  0  0  0  0  0  0  0
    8.3831  -16.4958   22.8474 C   0  0  2  0  0  0  0  0  0  0  0  0
    9.5093  -16.5037   21.9349 N   0  0  0  0  0  0  0  0  0  0  0  0
    8.8367  -15.8656   24.1386 C   0  0  0  0  0  0  0  0  0  0  0  0
   10.0259  -15.8910   24.5110 O   0  0  0  0  0  0  0  0  0  0  0  0
    5.6297  -11.7279   25.9936 C   0  0  0  0  0  0  0  0  0  0  0  0
    6.8129  -12.5187   25.5846 C   0  0  0  0  0  0  0  0  0  0  0  0
    7.3840  -13.4752   26.5722 C   0  0  2  0  0  0  0  0  0  0  0  0
    7.7818  -12.6900   27.8053 C   0  0  0  0  0  0  0  0  0  0  0  0
    8.3776  -14.4585   26.1311 C   0  0  2  0  0  0  0  0  0  0  0  0
    7.9138  -15.2196   24.9744 N   0  0  0  0  0  0  0  0  0  0  0  0
    8.7032  -15.4524   27.1610 C   0  0  0  0  0  0  0  0  0  0  0  0
    9.7819  -15.4049   28.0324 O   0  0  0  0  0  0  0  0  0  0  0  0
    7.9179  -16.4695   27.2630 O   0  0  0  0  0  0  0  0  0  0  0  0
  2  1  1  6
  3  2  1  0
  3  4  1  0
  4  8  1  0
  5  6  1  0
  5  4  2  0
  6  7  1  0
  7  8  2  0
  9 10  2  0
  9  2  1  0
 12 11  1  1
 12 14  1  0
 13 12  1  0
 14 16  1  0
 14 15  1  6
 15  9  1  0
 16 17  2  0
 19 18  1  0
 20 21  1  1
 20 19  1  0
 22 20  1  0
 22 23  1  6
 23 16  1  0
 24 22  1  0
 25 24  1  0
 26 24  2  0
M  END
$$$$
