HVI.pdb
     RDKit          3D

 26 26  0  0  1  0  0  0  0  0999 V2000
    7.3716  -17.0176   18.4484 N   0  0  0  0  0  0  0  0  0  0  0  0
    7.9681  -16.0328   19.3223 C   0  0  1  0  0  0  0  0  0  0  0  0
    7.4093  -14.6661   18.9712 C   0  0  0  0  0  0  0  0  0  0  0  0
    7.9700  -14.2312   17.6466 C   0  0  0  0  0  0  0  0  0  0  0  0
    7.3552  -13.4454   16.7028 C   0  0  0  0  0  0  0  0  0  0  0  0
    8.1855  -13.2862   15.6612 N   0  0  0  0  0  0  0  0  0  0  0  0
    9.3073  -13.9646   15.9494 C   0  0  0  0  0  0  0  0  0  0  0  0
    9.1780  -14.5315   17.1405 N   0  0  0  0  0  0  0  0  0  0  0  0
    7.5542  -16.3392   20.7097 C   0  0  0  0  0  0  0  0  0  0  0  0
    6.3402  -16.5814   21.0105 O   0  0  0  0  0  0  0  0  0  0  0  0
    8.0543  -19.0816   22.6109 C   0  0  0  0  0  0  0  0  0  0  0  0
    8.6392  -18.0178   23.4999 C   0  0  1  0  0  0  0  0  0  0  0  0
   10.1326  -18.0170   23.3064 C   0  0  0  0  0  0  0  0  0  0  0  0
    8.0707  -16.6357   23.1452 C   0  0  2  0  0  0  0  0  0  0  0  0
    8.4810  -16.3806   21.7785 N   0  0  0  0  0  0  0  0  0  0  0  0
    8.7369  -15.6125   24.0280 C   0  0  0  0  0  0  0  0  0  0  0  0
    9.8876  -15.1884   23.8059 O   0  0  0  0  0  0  0  0  0  0  0  0
    5.9749  -11.6047   27.1240 C   0  0  0  0  0  0  0  0  0  0  0  0
    6.5132  -12.8596   26.5513 C   0  0  0  0  0  0  0  0  0  0  0  0
    7.8883  -12.8292   25.9816 C   0  0  2  0  0  0  0  0  0  0  0  0
    7.8275  -12.0987   24.6557 C   0  0  0  0  0  0  0  0  0  0  0  0
    8.6873  -14.0579   25.9624 C   0  0  2  0  0  0  0  0  0  0  0  0
    8.0661  -15.0984   25.1476 N   0  0  0  0  0  0  0  0  0  0  0  0
    8.8717  -14.6478   27.2939 C   0  0  0  0  0  0  0  0  0  0  0  0
    9.6874  -14.1541   28.3020 O   0  0  0  0  0  0  0  0  0  0  0  0
    8.2205  -15.7300   27.5508 O   0  0  0  0  0  0  0  0  0  0  0  0
  2  1  1  6
  3  2  1  0
  3  4  1  0
  4  8  1  0
  5  6  1  0
  5  4  2  0
  6  7  1  0
  7  8  2  0
  9 10  2  0
  9  2  1  0
 12 11  1  6
 12 14  1  0
 13 12  1  0
 14 16  1  0
 14 15  1  6
 15  9  1  0
 16 17  2  0
 19 18  1  0
 20 21  1  6
 20 19  1  0
 22 20  1  0
 22 23  1  6
 23 16  1  0
 24 22  1  0
 25 24  1  0
 26 24  2  0
M  END
$$$$
