HVI.pdb
     RDKit          3D

 26 26  0  0  1  0  0  0  0  0999 V2000
   10.3152  -18.4626   19.8659 N   0  0  0  0  0  0  0  0  0  0  0  0
   10.1957  -17.0221   19.8553 C   0  0  1  0  0  0  0  0  0  0  0  0
    9.7453  -16.5797   18.4751 C   0  0  0  0  0  0  0  0  0  0  0  0
   10.8022  -16.9466   17.4719 C   0  0  0  0  0  0  0  0  0  0  0  0
   10.7403  -17.9415   16.5273 C   0  0  0  0  0  0  0  0  0  0  0  0
   11.8843  -17.9483   15.8267 N   0  0  0  0  0  0  0  0  0  0  0  0
   12.6538  -16.9688   16.3270 C   0  0  0  0  0  0  0  0  0  0  0  0
   12.0047  -16.3678   17.3140 N   0  0  0  0  0  0  0  0  0  0  0  0
    9.1330  -16.6424   20.8126 C   0  0  0  0  0  0  0  0  0  0  0  0
    8.6695  -15.4570   20.8661 O   0  0  0  0  0  0  0  0  0  0  0  0
    6.0933  -18.2259   24.4263 C   0  0  0  0  0  0  0  0  0  0  0  0
    6.9988  -18.4894   23.2537 C   0  0  1  0  0  0  0  0  0  0  0  0
    6.1821  -19.1441   22.1711 C   0  0  0  0  0  0  0  0  0  0  0  0
    7.6039  -17.1802   22.7254 C   0  0  2  0  0  0  0  0  0  0  0  0
    8.5727  -17.5720   21.7208 N   0  0  0  0  0  0  0  0  0  0  0  0
    8.3490  -16.5171   23.8546 C   0  0  0  0  0  0  0  0  0  0  0  0
    9.5584  -16.7279   24.0697 O   0  0  0  0  0  0  0  0  0  0  0  0
    6.3193  -11.7120   25.7066 C   0  0  0  0  0  0  0  0  0  0  0  0
    7.3624  -12.6818   25.3017 C   0  0  0  0  0  0  0  0  0  0  0  0
    7.7167  -13.7622   26.2628 C   0  0  2  0  0  0  0  0  0  0  0  0
    8.3385  -13.1148   27.4833 C   0  0  0  0  0  0  0  0  0  0  0  0
    8.4228  -14.9526   25.7801 C   0  0  2  0  0  0  0  0  0  0  0  0
    7.6881  -15.6257   24.7127 N   0  0  0  0  0  0  0  0  0  0  0  0
    8.6303  -15.9638   26.8237 C   0  0  0  0  0  0  0  0  0  0  0  0
    7.7120  -16.9215   27.2296 O   0  0  0  0  0  0  0  0  0  0  0  0
    9.7701  -15.9595   27.4256 O   0  0  0  0  0  0  0  0  0  0  0  0
  2  1  1  6
  3  2  1  0
  3  4  1  0
  4  8  1  0
  5  6  1  0
  5  4  2  0
  6  7  1  0
  7  8  2  0
  9 10  2  0
  9  2  1  0
 12 11  1  1
 12 14  1  0
 13 12  1  0
 14 16  1  0
 14 15  1  6
 15  9  1  0
 16 17  2  0
 19 18  1  0
 20 21  1  1
 20 19  1  0
 22 20  1  0
 22 23  1  6
 23 16  1  0
 24 22  1  0
 25 24  1  0
 26 24  2  0
M  END
$$$$
