HVI.pdb
     RDKit          3D

 26 26  0  0  1  0  0  0  0  0999 V2000
    8.7991  -16.8538   18.9772 N   0  0  0  0  0  0  0  0  0  0  0  0
    8.5929  -15.6753   19.7884 C   0  0  1  0  0  0  0  0  0  0  0  0
    7.4076  -14.9043   19.2370 C   0  0  0  0  0  0  0  0  0  0  0  0
    7.7723  -14.3361   17.8945 C   0  0  0  0  0  0  0  0  0  0  0  0
    8.2907  -13.0915   17.6330 C   0  0  0  0  0  0  0  0  0  0  0  0
    8.4781  -12.9671   16.3105 N   0  0  0  0  0  0  0  0  0  0  0  0
    8.0816  -14.1205   15.7503 C   0  0  0  0  0  0  0  0  0  0  0  0
    7.6581  -14.9419   16.7005 N   0  0  0  0  0  0  0  0  0  0  0  0
    8.2393  -16.1155   21.1563 C   0  0  0  0  0  0  0  0  0  0  0  0
    7.0415  -16.4034   21.4807 O   0  0  0  0  0  0  0  0  0  0  0  0
    9.4286  -19.0172   22.6815 C   0  0  0  0  0  0  0  0  0  0  0  0
    9.7286  -17.9758   23.7254 C   0  0  1  0  0  0  0  0  0  0  0  0
   11.1883  -17.6197   23.6234 C   0  0  0  0  0  0  0  0  0  0  0  0
    8.8729  -16.7194   23.5059 C   0  0  2  0  0  0  0  0  0  0  0  0
    9.2092  -16.2413   22.1794 N   0  0  0  0  0  0  0  0  0  0  0  0
    9.3084  -15.6741   24.4998 C   0  0  0  0  0  0  0  0  0  0  0  0
   10.3320  -14.9825   24.3344 O   0  0  0  0  0  0  0  0  0  0  0  0
    6.0492  -11.9449   26.1826 C   0  0  0  0  0  0  0  0  0  0  0  0
    7.2621  -12.7274   25.8526 C   0  0  0  0  0  0  0  0  0  0  0  0
    7.9128  -13.4955   26.9494 C   0  0  2  0  0  0  0  0  0  0  0  0
    8.2404  -12.5259   28.0665 C   0  0  0  0  0  0  0  0  0  0  0  0
    8.9879  -14.4388   26.6287 C   0  0  2  0  0  0  0  0  0  0  0  0
    8.5580  -15.4461   25.6628 N   0  0  0  0  0  0  0  0  0  0  0  0
    9.4702  -15.1840   27.7977 C   0  0  0  0  0  0  0  0  0  0  0  0
   10.4542  -14.7695   28.6838 O   0  0  0  0  0  0  0  0  0  0  0  0
    8.9351  -16.3354   28.0205 O   0  0  0  0  0  0  0  0  0  0  0  0
  2  1  1  6
  3  2  1  0
  3  4  1  0
  4  8  1  0
  5  6  1  0
  5  4  2  0
  6  7  1  0
  7  8  2  0
  9 10  2  0
  9  2  1  0
 12 11  1  6
 12 14  1  0
 13 12  1  0
 14 16  1  0
 14 15  1  6
 15  9  1  0
 16 17  2  0
 19 18  1  0
 20 21  1  1
 20 19  1  0
 22 20  1  0
 22 23  1  6
 23 16  1  0
 24 22  1  0
 25 24  1  0
 26 24  2  0
M  END
$$$$
