HVI.pdb
     RDKit          3D

 26 26  0  0  1  0  0  0  0  0999 V2000
   10.9059  -15.4113   18.0254 N   0  0  0  0  0  0  0  0  0  0  0  0
   11.2594  -15.3501   19.4256 C   0  0  1  0  0  0  0  0  0  0  0  0
   12.1822  -14.1653   19.6449 C   0  0  0  0  0  0  0  0  0  0  0  0
   13.5686  -14.5324   19.1962 C   0  0  0  0  0  0  0  0  0  0  0  0
   14.3405  -15.5725   19.6525 C   0  0  0  0  0  0  0  0  0  0  0  0
   15.5135  -15.5621   19.0017 N   0  0  0  0  0  0  0  0  0  0  0  0
   15.4766  -14.5273   18.1477 C   0  0  0  0  0  0  0  0  0  0  0  0
   14.3097  -13.9094   18.2643 N   0  0  0  0  0  0  0  0  0  0  0  0
   10.0237  -15.1005   20.2008 C   0  0  0  0  0  0  0  0  0  0  0  0
    9.2116  -14.1698   19.8888 O   0  0  0  0  0  0  0  0  0  0  0  0
    7.1961  -17.0606   20.4737 C   0  0  0  0  0  0  0  0  0  0  0  0
    7.5988  -16.8886   21.9133 C   0  0  1  0  0  0  0  0  0  0  0  0
    8.3786  -18.1080   22.3287 C   0  0  0  0  0  0  0  0  0  0  0  0
    8.4664  -15.6339   22.0920 C   0  0  2  0  0  0  0  0  0  0  0  0
    9.6747  -15.8794   21.3298 N   0  0  0  0  0  0  0  0  0  0  0  0
    8.8484  -15.5293   23.5457 C   0  0  0  0  0  0  0  0  0  0  0  0
    9.9933  -15.8025   23.9554 O   0  0  0  0  0  0  0  0  0  0  0  0
    6.1175  -11.4718   25.9503 C   0  0  0  0  0  0  0  0  0  0  0  0
    7.1806  -12.3957   25.4933 C   0  0  0  0  0  0  0  0  0  0  0  0
    7.4707  -13.5903   26.3331 C   0  0  2  0  0  0  0  0  0  0  0  0
    7.8331  -13.1065   27.7223 C   0  0  0  0  0  0  0  0  0  0  0  0
    8.3447  -14.6439   25.8092 C   0  0  2  0  0  0  0  0  0  0  0  0
    7.9060  -15.1129   24.4978 N   0  0  0  0  0  0  0  0  0  0  0  0
    8.3913  -15.8348   26.6662 C   0  0  0  0  0  0  0  0  0  0  0  0
    9.3365  -16.1014   27.6464 O   0  0  0  0  0  0  0  0  0  0  0  0
    7.4721  -16.7209   26.4888 O   0  0  0  0  0  0  0  0  0  0  0  0
  2  1  1  6
  3  2  1  0
  3  4  1  0
  4  8  1  0
  5  6  1  0
  5  4  2  0
  6  7  1  0
  7  8  2  0
  9 10  2  0
  9  2  1  0
 12 11  1  6
 12 14  1  0
 13 12  1  0
 14 16  1  0
 14 15  1  6
 15  9  1  0
 16 17  2  0
 19 18  1  0
 20 21  1  1
 20 19  1  0
 22 20  1  0
 22 23  1  6
 23 16  1  0
 24 22  1  0
 25 24  1  0
 26 24  2  0
M  END
$$$$
