HVI.pdb
     RDKit          3D

 26 26  0  0  1  0  0  0  0  0999 V2000
    9.0174  -18.7496   18.8749 N   0  0  0  0  0  0  0  0  0  0  0  0
    9.7593  -17.9196   19.7969 C   0  0  1  0  0  0  0  0  0  0  0  0
   10.4306  -16.8037   19.0176 C   0  0  0  0  0  0  0  0  0  0  0  0
   11.7526  -17.2936   18.4974 C   0  0  0  0  0  0  0  0  0  0  0  0
   12.6372  -18.1289   19.1344 C   0  0  0  0  0  0  0  0  0  0  0  0
   13.6986  -18.3274   18.3384 N   0  0  0  0  0  0  0  0  0  0  0  0
   13.4812  -17.6244   17.2159 C   0  0  0  0  0  0  0  0  0  0  0  0
   12.3137  -17.0041   17.3112 N   0  0  0  0  0  0  0  0  0  0  0  0
    8.7952  -17.2934   20.7288 C   0  0  0  0  0  0  0  0  0  0  0  0
    7.9359  -16.4402   20.3331 O   0  0  0  0  0  0  0  0  0  0  0  0
    6.3182  -19.0229   22.5243 C   0  0  0  0  0  0  0  0  0  0  0  0
    7.0354  -18.2550   23.6014 C   0  0  1  0  0  0  0  0  0  0  0  0
    8.0175  -19.1855   24.2628 C   0  0  0  0  0  0  0  0  0  0  0  0
    7.7820  -17.0504   23.0093 C   0  0  2  0  0  0  0  0  0  0  0  0
    8.7731  -17.6057   22.1090 N   0  0  0  0  0  0  0  0  0  0  0  0
    8.5109  -16.3526   24.1281 C   0  0  0  0  0  0  0  0  0  0  0  0
    9.7494  -16.4111   24.2554 O   0  0  0  0  0  0  0  0  0  0  0  0
    5.9635  -11.8705   25.9300 C   0  0  0  0  0  0  0  0  0  0  0  0
    7.1123  -12.7023   25.5043 C   0  0  0  0  0  0  0  0  0  0  0  0
    7.6956  -13.6427   26.5002 C   0  0  2  0  0  0  0  0  0  0  0  0
    8.3246  -12.8196   27.6057 C   0  0  0  0  0  0  0  0  0  0  0  0
    8.5160  -14.7653   26.0364 C   0  0  2  0  0  0  0  0  0  0  0  0
    7.8008  -15.6021   25.0770 N   0  0  0  0  0  0  0  0  0  0  0  0
    8.9317  -15.6634   27.1204 C   0  0  0  0  0  0  0  0  0  0  0  0
   10.1100  -15.5775   27.8481 O   0  0  0  0  0  0  0  0  0  0  0  0
    8.1312  -16.6276   27.4223 O   0  0  0  0  0  0  0  0  0  0  0  0
  2  1  1  6
  3  2  1  0
  3  4  1  0
  4  8  1  0
  5  6  1  0
  5  4  2  0
  6  7  1  0
  7  8  2  0
  9 10  2  0
  9  2  1  0
 12 11  1  6
 12 14  1  0
 13 12  1  0
 14 16  1  0
 14 15  1  6
 15  9  1  0
 16 17  2  0
 19 18  1  0
 20 21  1  1
 20 19  1  0
 22 20  1  0
 22 23  1  6
 23 16  1  0
 24 22  1  0
 25 24  1  0
 26 24  2  0
M  END
$$$$
