PTM.pdb
     RDKit          3D

 23 23  0  0  1  0  0  0  0  0999 V2000
    8.9134  -14.8987   17.9484 N   0  0  0  0  0  0  0  0  0  0  0  0
    8.9921  -14.1185   16.7280 C   0  0  0  0  0  0  0  0  0  0  0  0
    7.7988  -13.1894   16.9094 C   0  0  0  0  0  0  0  0  0  0  0  0
    7.8913  -12.8404   18.3739 C   0  0  0  0  0  0  0  0  0  0  0  0
    8.8572  -13.8444   18.9552 C   0  0  1  0  0  0  0  0  0  0  0  0
    8.4350  -14.3505   20.2646 C   0  0  0  0  0  0  0  0  0  0  0  0
    8.3096  -13.5410   21.2178 O   0  0  0  0  0  0  0  0  0  0  0  0
    6.7492  -18.1737   20.4778 C   0  0  0  0  0  0  0  0  0  0  0  0
    7.6012  -17.7813   21.6672 C   0  0  1  0  0  0  0  0  0  0  0  0
    8.8299  -18.4055   21.4972 O   0  0  0  0  0  0  0  0  0  0  0  0
    7.7310  -16.2761   21.7257 C   0  0  2  0  0  0  0  0  0  0  0  0
    8.1692  -15.7016   20.4828 N   0  0  0  0  0  0  0  0  0  0  0  0
    8.5605  -15.8635   22.8726 C   0  0  0  0  0  0  0  0  0  0  0  0
    9.7564  -15.4692   22.7478 O   0  0  0  0  0  0  0  0  0  0  0  0
    5.6995  -12.2337   26.7307 C   0  0  0  0  0  0  0  0  0  0  0  0
    7.3505  -11.9933   27.4316 S   0  0  0  0  0  0  0  0  0  0  0  0
    8.4274  -13.4133   26.9964 C   0  0  0  0  0  0  0  0  0  0  0  0
    7.8921  -14.0700   25.7471 C   0  0  0  0  0  0  0  0  0  0  0  0
    8.7287  -15.2331   25.3190 C   0  0  2  0  0  0  0  0  0  0  0  0
    8.0517  -15.8858   24.2098 N   0  0  0  0  0  0  0  0  0  0  0  0
    9.0726  -16.1893   26.3660 C   0  0  0  0  0  0  0  0  0  0  0  0
    8.5079  -17.2947   26.5705 O   0  0  0  0  0  0  0  0  0  0  0  0
   10.1295  -15.8651   27.2377 O   0  0  0  0  0  0  0  0  0  0  0  0
  1  5  1  0
  1  2  1  0
  2  3  1  0
  4  3  1  0
  5  4  1  0
  5  6  1  1
  7  6  2  0
  9  8  1  6
  9 11  1  0
 10  9  1  0
 11 12  1  6
 11 13  1  0
 12  6  1  0
 13 20  1  0
 14 13  2  0
 15 16  1  0
 17 16  1  0
 18 17  1  0
 19 18  1  1
 19 21  1  0
 20 19  1  0
 21 23  1  0
 22 21  2  0
M  END
$$$$
