PTM.pdb
     RDKit          3D

 23 23  0  0  1  0  0  0  0  0999 V2000
    9.2146  -14.6122   18.6637 N   0  0  0  0  0  0  0  0  0  0  0  0
    9.0186  -13.7722   17.4974 C   0  0  0  0  0  0  0  0  0  0  0  0
    7.5680  -13.3511   17.6932 C   0  0  0  0  0  0  0  0  0  0  0  0
    7.5119  -13.0964   19.1789 C   0  0  0  0  0  0  0  0  0  0  0  0
    8.7694  -13.7229   19.7311 C   0  0  1  0  0  0  0  0  0  0  0  0
    8.5450  -14.4381   20.9909 C   0  0  0  0  0  0  0  0  0  0  0  0
    8.0014  -13.8299   21.9469 O   0  0  0  0  0  0  0  0  0  0  0  0
    7.8478  -18.4458   21.0359 C   0  0  0  0  0  0  0  0  0  0  0  0
    8.8281  -18.0357   22.1155 C   0  0  1  0  0  0  0  0  0  0  0  0
   10.0885  -18.4093   21.6683 O   0  0  0  0  0  0  0  0  0  0  0  0
    8.7278  -16.5463   22.3549 C   0  0  2  0  0  0  0  0  0  0  0  0
    8.9166  -15.7713   21.1588 N   0  0  0  0  0  0  0  0  0  0  0  0
    9.6159  -16.1290   23.4553 C   0  0  0  0  0  0  0  0  0  0  0  0
   10.7673  -15.6417   23.2604 O   0  0  0  0  0  0  0  0  0  0  0  0
    7.9839  -11.9568   27.5531 C   0  0  0  0  0  0  0  0  0  0  0  0
    8.9037  -12.9814   28.7275 S   0  0  0  0  0  0  0  0  0  0  0  0
    9.9975  -14.1424   27.8214 C   0  0  0  0  0  0  0  0  0  0  0  0
    9.2291  -14.7416   26.6685 C   0  0  0  0  0  0  0  0  0  0  0  0
   10.0317  -15.7614   25.9256 C   0  0  2  0  0  0  0  0  0  0  0  0
    9.2191  -16.2533   24.8244 N   0  0  0  0  0  0  0  0  0  0  0  0
   10.5609  -16.8608   26.7256 C   0  0  0  0  0  0  0  0  0  0  0  0
   10.1173  -18.0379   26.7475 O   0  0  0  0  0  0  0  0  0  0  0  0
   11.6684  -16.6027   27.5554 O   0  0  0  0  0  0  0  0  0  0  0  0
  1  5  1  0
  1  2  1  0
  2  3  1  0
  4  3  1  0
  5  4  1  0
  5  6  1  1
  7  6  2  0
  9  8  1  6
  9 11  1  0
 10  9  1  0
 11 12  1  6
 11 13  1  0
 12  6  1  0
 13 20  1  0
 14 13  2  0
 15 16  1  0
 17 16  1  0
 18 17  1  0
 19 18  1  1
 19 21  1  0
 20 19  1  0
 21 23  1  0
 22 21  2  0
M  END
$$$$
