PTM.pdb
     RDKit          3D

 23 23  0  0  1  0  0  0  0  0999 V2000
    9.0112  -14.9571   17.5862 N   0  0  0  0  0  0  0  0  0  0  0  0
    9.0204  -14.2071   16.3446 C   0  0  0  0  0  0  0  0  0  0  0  0
    7.6796  -13.4903   16.4377 C   0  0  0  0  0  0  0  0  0  0  0  0
    7.6355  -13.0926   17.8919 C   0  0  0  0  0  0  0  0  0  0  0  0
    8.7255  -13.9018   18.5522 C   0  0  1  0  0  0  0  0  0  0  0  0
    8.3272  -14.4380   19.8572 C   0  0  0  0  0  0  0  0  0  0  0  0
    7.9920  -13.6380   20.7666 O   0  0  0  0  0  0  0  0  0  0  0  0
    7.0567  -18.4140   20.0840 C   0  0  0  0  0  0  0  0  0  0  0  0
    7.8600  -17.9315   21.2742 C   0  0  1  0  0  0  0  0  0  0  0  0
    9.1473  -18.4255   21.1095 O   0  0  0  0  0  0  0  0  0  0  0  0
    7.8329  -16.4208   21.3277 C   0  0  2  0  0  0  0  0  0  0  0  0
    8.3098  -15.8074   20.1181 N   0  0  0  0  0  0  0  0  0  0  0  0
    8.5216  -15.9243   22.5331 C   0  0  0  0  0  0  0  0  0  0  0  0
    9.7280  -15.5426   22.5258 O   0  0  0  0  0  0  0  0  0  0  0  0
    6.5479  -11.0267   28.2028 C   0  0  0  0  0  0  0  0  0  0  0  0
    6.0845  -12.2440   26.9465 S   0  0  0  0  0  0  0  0  0  0  0  0
    7.5469  -13.2485   26.4797 C   0  0  0  0  0  0  0  0  0  0  0  0
    7.1895  -14.1143   25.2960 C   0  0  0  0  0  0  0  0  0  0  0  0
    8.3229  -14.9969   24.8806 C   0  0  2  0  0  0  0  0  0  0  0  0
    7.8542  -15.8450   23.7963 N   0  0  0  0  0  0  0  0  0  0  0  0
    8.9370  -15.7865   25.9428 C   0  0  0  0  0  0  0  0  0  0  0  0
    9.5630  -15.3301   26.9340 O   0  0  0  0  0  0  0  0  0  0  0  0
    8.8310  -17.1885   25.8714 O   0  0  0  0  0  0  0  0  0  0  0  0
  1  5  1  0
  1  2  1  0
  2  3  1  0
  4  3  1  0
  5  4  1  0
  5  6  1  1
  7  6  2  0
  9  8  1  6
  9 11  1  0
 10  9  1  0
 11 12  1  6
 11 13  1  0
 12  6  1  0
 13 20  1  0
 14 13  2  0
 15 16  1  0
 17 16  1  0
 18 17  1  0
 19 18  1  1
 19 21  1  0
 20 19  1  0
 21 23  1  0
 22 21  2  0
M  END
$$$$
