PTM.pdb
     RDKit          3D

 23 23  0  0  1  0  0  0  0  0999 V2000
    8.8122  -18.5865   18.9068 N   0  0  0  0  0  0  0  0  0  0  0  0
    9.0023  -19.2125   17.6121 C   0  0  0  0  0  0  0  0  0  0  0  0
    8.9402  -17.9956   16.6982 C   0  0  0  0  0  0  0  0  0  0  0  0
    9.7226  -16.9722   17.4829 C   0  0  0  0  0  0  0  0  0  0  0  0
    9.8377  -17.5494   18.8731 C   0  0  1  0  0  0  0  0  0  0  0  0
    9.6463  -16.5464   19.9250 C   0  0  0  0  0  0  0  0  0  0  0  0
   10.4790  -15.6112   20.0322 O   0  0  0  0  0  0  0  0  0  0  0  0
    6.4694  -14.5951   20.5716 C   0  0  0  0  0  0  0  0  0  0  0  0
    6.8544  -15.2143   21.8993 C   0  0  1  0  0  0  0  0  0  0  0  0
    5.9906  -16.2821   22.1036 O   0  0  0  0  0  0  0  0  0  0  0  0
    8.3008  -15.6527   21.8561 C   0  0  2  0  0  0  0  0  0  0  0  0
    8.5691  -16.6000   20.8085 N   0  0  0  0  0  0  0  0  0  0  0  0
    8.7492  -16.1195   23.1807 C   0  0  0  0  0  0  0  0  0  0  0  0
    9.0702  -17.3214   23.4121 O   0  0  0  0  0  0  0  0  0  0  0  0
   10.6793  -13.7758   30.5270 C   0  0  0  0  0  0  0  0  0  0  0  0
   10.1083  -13.3421   28.8655 S   0  0  0  0  0  0  0  0  0  0  0  0
    9.7153  -14.8655   27.9219 C   0  0  0  0  0  0  0  0  0  0  0  0
    9.4015  -14.4904   26.4937 C   0  0  0  0  0  0  0  0  0  0  0  0
    9.0934  -15.6870   25.6515 C   0  0  2  0  0  0  0  0  0  0  0  0
    8.8481  -15.2264   24.2942 N   0  0  0  0  0  0  0  0  0  0  0  0
    8.0068  -16.5370   26.1267 C   0  0  0  0  0  0  0  0  0  0  0  0
    6.7896  -16.4108   25.8353 O   0  0  0  0  0  0  0  0  0  0  0  0
    8.3279  -17.6009   26.9909 O   0  0  0  0  0  0  0  0  0  0  0  0
  1  5  1  0
  1  2  1  0
  2  3  1  0
  4  3  1  0
  5  4  1  0
  5  6  1  1
  7  6  2  0
  9  8  1  6
  9 11  1  0
 10  9  1  0
 11 12  1  6
 11 13  1  0
 12  6  1  0
 13 20  1  0
 14 13  2  0
 15 16  1  0
 17 16  1  0
 18 17  1  0
 19 18  1  1
 19 21  1  0
 20 19  1  0
 21 23  1  0
 22 21  2  0
M  END
$$$$
