PTM.pdb
     RDKit          3D

 23 23  0  0  1  0  0  0  0  0999 V2000
    9.3222  -14.7735   18.2758 N   0  0  0  0  0  0  0  0  0  0  0  0
    9.2218  -14.0083   17.0475 C   0  0  0  0  0  0  0  0  0  0  0  0
    7.7326  -13.6890   17.0346 C   0  0  0  0  0  0  0  0  0  0  0  0
    7.4670  -13.3674   18.4841 C   0  0  0  0  0  0  0  0  0  0  0  0
    8.6824  -13.8694   19.2254 C   0  0  1  0  0  0  0  0  0  0  0  0
    8.3462  -14.5375   20.4863 C   0  0  0  0  0  0  0  0  0  0  0  0
    7.6507  -13.9226   21.3335 O   0  0  0  0  0  0  0  0  0  0  0  0
    8.5819  -18.6917   20.6147 C   0  0  0  0  0  0  0  0  0  0  0  0
    8.9588  -18.0052   21.9113 C   0  0  1  0  0  0  0  0  0  0  0  0
   10.3460  -18.0129   21.9746 O   0  0  0  0  0  0  0  0  0  0  0  0
    8.3964  -16.6019   21.9264 C   0  0  2  0  0  0  0  0  0  0  0  0
    8.7750  -15.8329   20.7722 N   0  0  0  0  0  0  0  0  0  0  0  0
    8.7102  -15.9226   23.1967 C   0  0  0  0  0  0  0  0  0  0  0  0
    9.7582  -15.2339   23.3658 O   0  0  0  0  0  0  0  0  0  0  0  0
    6.8696  -10.8738   28.0851 C   0  0  0  0  0  0  0  0  0  0  0  0
    6.7136  -11.9069   26.6076 S   0  0  0  0  0  0  0  0  0  0  0  0
    6.7930  -13.6797   27.0729 C   0  0  0  0  0  0  0  0  0  0  0  0
    6.7201  -14.5191   25.8205 C   0  0  0  0  0  0  0  0  0  0  0  0
    8.0174  -15.2006   25.5225 C   0  0  2  0  0  0  0  0  0  0  0  0
    7.8342  -16.0052   24.3251 N   0  0  0  0  0  0  0  0  0  0  0  0
    8.5857  -15.9906   26.6095 C   0  0  0  0  0  0  0  0  0  0  0  0
    8.5637  -17.2451   26.7000 O   0  0  0  0  0  0  0  0  0  0  0  0
    9.2211  -15.3065   27.6632 O   0  0  0  0  0  0  0  0  0  0  0  0
  1  5  1  0
  1  2  1  0
  2  3  1  0
  4  3  1  0
  5  4  1  0
  5  6  1  1
  7  6  2  0
  9  8  1  6
  9 11  1  0
 10  9  1  0
 11 12  1  6
 11 13  1  0
 12  6  1  0
 13 20  1  0
 14 13  2  0
 15 16  1  0
 17 16  1  0
 18 17  1  0
 19 18  1  1
 19 21  1  0
 20 19  1  0
 21 23  1  0
 22 21  2  0
M  END
$$$$
