PTM.pdb
     RDKit          3D

 23 23  0  0  1  0  0  0  0  0999 V2000
    8.6129  -14.9431   18.5464 N   0  0  0  0  0  0  0  0  0  0  0  0
    8.7254  -14.1437   17.3411 C   0  0  0  0  0  0  0  0  0  0  0  0
    7.5430  -13.1998   17.5169 C   0  0  0  0  0  0  0  0  0  0  0  0
    7.6139  -12.8770   18.9886 C   0  0  0  0  0  0  0  0  0  0  0  0
    8.5540  -13.9051   19.5699 C   0  0  1  0  0  0  0  0  0  0  0  0
    8.1005  -14.4268   20.8627 C   0  0  0  0  0  0  0  0  0  0  0  0
    7.9395  -13.6267   21.8185 O   0  0  0  0  0  0  0  0  0  0  0  0
    6.1904  -18.1007   20.9126 C   0  0  0  0  0  0  0  0  0  0  0  0
    7.0438  -17.8451   22.1378 C   0  0  1  0  0  0  0  0  0  0  0  0
    8.2103  -18.5789   21.9679 O   0  0  0  0  0  0  0  0  0  0  0  0
    7.3173  -16.3637   22.2674 C   0  0  2  0  0  0  0  0  0  0  0  0
    7.8433  -15.7824   21.0622 N   0  0  0  0  0  0  0  0  0  0  0  0
    8.1509  -16.0839   23.4507 C   0  0  0  0  0  0  0  0  0  0  0  0
    9.4043  -15.9226   23.3845 O   0  0  0  0  0  0  0  0  0  0  0  0
    6.2867  -11.5191   26.6141 C   0  0  0  0  0  0  0  0  0  0  0  0
    7.3193  -12.0470   28.0033 S   0  0  0  0  0  0  0  0  0  0  0  0
    8.2350  -13.5729   27.5573 C   0  0  0  0  0  0  0  0  0  0  0  0
    7.5877  -14.1965   26.3446 C   0  0  0  0  0  0  0  0  0  0  0  0
    8.3084  -15.4255   25.8905 C   0  0  2  0  0  0  0  0  0  0  0  0
    7.5807  -15.9772   24.7587 N   0  0  0  0  0  0  0  0  0  0  0  0
    8.5447  -16.4391   26.9130 C   0  0  0  0  0  0  0  0  0  0  0  0
    7.9626  -17.5510   26.9986 O   0  0  0  0  0  0  0  0  0  0  0  0
    9.5078  -16.1684   27.9036 O   0  0  0  0  0  0  0  0  0  0  0  0
  1  5  1  0
  1  2  1  0
  2  3  1  0
  4  3  1  0
  5  4  1  0
  5  6  1  1
  7  6  2  0
  9  8  1  6
  9 11  1  0
 10  9  1  0
 11 12  1  6
 11 13  1  0
 12  6  1  0
 13 20  1  0
 14 13  2  0
 15 16  1  0
 17 16  1  0
 18 17  1  0
 19 18  1  1
 19 21  1  0
 20 19  1  0
 21 23  1  0
 22 21  2  0
M  END
$$$$
