PTM.pdb
     RDKit          3D

 23 23  0  0  1  0  0  0  0  0999 V2000
    9.0548  -14.7727   18.2949 N   0  0  0  0  0  0  0  0  0  0  0  0
    9.1270  -13.9431   17.1071 C   0  0  0  0  0  0  0  0  0  0  0  0
    7.8116  -13.1826   17.2134 C   0  0  0  0  0  0  0  0  0  0  0  0
    7.7409  -12.8805   18.6894 C   0  0  0  0  0  0  0  0  0  0  0  0
    8.7810  -13.7733   19.3219 C   0  0  1  0  0  0  0  0  0  0  0  0
    8.3262  -14.3788   20.5771 C   0  0  0  0  0  0  0  0  0  0  0  0
    7.9266  -13.6298   21.5038 O   0  0  0  0  0  0  0  0  0  0  0  0
    7.3083  -18.4336   20.5079 C   0  0  0  0  0  0  0  0  0  0  0  0
    7.8946  -17.9447   21.8162 C   0  0  1  0  0  0  0  0  0  0  0  0
    9.2223  -18.3514   21.8316 O   0  0  0  0  0  0  0  0  0  0  0  0
    7.7591  -16.4415   21.9046 C   0  0  2  0  0  0  0  0  0  0  0  0
    8.3243  -15.7593   20.7723 N   0  0  0  0  0  0  0  0  0  0  0  0
    8.2745  -15.9412   23.1921 C   0  0  0  0  0  0  0  0  0  0  0  0
    9.4589  -15.5212   23.3404 O   0  0  0  0  0  0  0  0  0  0  0  0
    7.2282  -10.7579   28.0923 C   0  0  0  0  0  0  0  0  0  0  0  0
    7.0661  -11.8411   26.6518 S   0  0  0  0  0  0  0  0  0  0  0  0
    6.7273  -13.5597   27.1966 C   0  0  0  0  0  0  0  0  0  0  0  0
    6.5081  -14.4258   25.9798 C   0  0  0  0  0  0  0  0  0  0  0  0
    7.7710  -15.0809   25.5195 C   0  0  2  0  0  0  0  0  0  0  0  0
    7.4520  -15.9017   24.3622 N   0  0  0  0  0  0  0  0  0  0  0  0
    8.4950  -15.8468   26.5285 C   0  0  0  0  0  0  0  0  0  0  0  0
    9.1245  -15.3686   27.5071 O   0  0  0  0  0  0  0  0  0  0  0  0
    8.5026  -17.2501   26.4154 O   0  0  0  0  0  0  0  0  0  0  0  0
  1  5  1  0
  1  2  1  0
  2  3  1  0
  4  3  1  0
  5  4  1  0
  5  6  1  1
  7  6  2  0
  9  8  1  6
  9 11  1  0
 10  9  1  0
 11 12  1  6
 11 13  1  0
 12  6  1  0
 13 20  1  0
 14 13  2  0
 15 16  1  0
 17 16  1  0
 18 17  1  0
 19 18  1  1
 19 21  1  0
 20 19  1  0
 21 23  1  0
 22 21  2  0
M  END
$$$$
