PTM.pdb
     RDKit          3D

 23 23  0  0  1  0  0  0  0  0999 V2000
    8.9608  -14.8764   18.5776 N   0  0  0  0  0  0  0  0  0  0  0  0
    9.0740  -14.1681   17.3168 C   0  0  0  0  0  0  0  0  0  0  0  0
    7.8473  -13.2680   17.3873 C   0  0  0  0  0  0  0  0  0  0  0  0
    7.8609  -12.8298   18.8305 C   0  0  0  0  0  0  0  0  0  0  0  0
    8.8270  -13.7663   19.5148 C   0  0  1  0  0  0  0  0  0  0  0  0
    8.3587  -14.2067   20.8323 C   0  0  0  0  0  0  0  0  0  0  0  0
    8.0430  -13.3403   21.6862 O   0  0  0  0  0  0  0  0  0  0  0  0
    6.5432  -17.8876   21.2446 C   0  0  0  0  0  0  0  0  0  0  0  0
    7.5009  -17.5629   22.3724 C   0  0  1  0  0  0  0  0  0  0  0  0
    8.6611  -18.2853   22.1270 O   0  0  0  0  0  0  0  0  0  0  0  0
    7.7557  -16.0731   22.4106 C   0  0  2  0  0  0  0  0  0  0  0  0
    8.2538  -15.5565   21.1648 N   0  0  0  0  0  0  0  0  0  0  0  0
    8.6045  -15.7135   23.5613 C   0  0  0  0  0  0  0  0  0  0  0  0
    9.8507  -15.5189   23.4603 O   0  0  0  0  0  0  0  0  0  0  0  0
    5.9798  -10.5688   26.4230 C   0  0  0  0  0  0  0  0  0  0  0  0
    6.4666  -12.1070   27.2424 S   0  0  0  0  0  0  0  0  0  0  0  0
    7.6346  -13.0397   26.1787 C   0  0  0  0  0  0  0  0  0  0  0  0
    8.0539  -14.2991   26.8976 C   0  0  0  0  0  0  0  0  0  0  0  0
    8.8694  -15.2003   26.0264 C   0  0  2  0  0  0  0  0  0  0  0  0
    8.0581  -15.5621   24.8750 N   0  0  0  0  0  0  0  0  0  0  0  0
    9.4235  -16.3831   26.6764 C   0  0  0  0  0  0  0  0  0  0  0  0
    9.0510  -17.5702   26.4905 O   0  0  0  0  0  0  0  0  0  0  0  0
   10.4712  -16.2019   27.5992 O   0  0  0  0  0  0  0  0  0  0  0  0
  1  5  1  0
  1  2  1  0
  2  3  1  0
  4  3  1  0
  5  4  1  0
  5  6  1  1
  7  6  2  0
  9  8  1  6
  9 11  1  0
 10  9  1  0
 11 12  1  6
 11 13  1  0
 12  6  1  0
 13 20  1  0
 14 13  2  0
 15 16  1  0
 17 16  1  0
 18 17  1  0
 19 18  1  1
 19 21  1  0
 20 19  1  0
 21 23  1  0
 22 21  2  0
M  END
$$$$
