PTM.pdb
     RDKit          3D

 23 23  0  0  1  0  0  0  0  0999 V2000
    8.8811  -14.9578   18.7323 N   0  0  0  0  0  0  0  0  0  0  0  0
    9.0002  -14.2821   17.4542 C   0  0  0  0  0  0  0  0  0  0  0  0
    7.7800  -13.3716   17.5013 C   0  0  0  0  0  0  0  0  0  0  0  0
    7.7960  -12.8975   18.9332 C   0  0  0  0  0  0  0  0  0  0  0  0
    8.7549  -13.8237   19.6413 C   0  0  1  0  0  0  0  0  0  0  0  0
    8.2827  -14.2276   20.9691 C   0  0  0  0  0  0  0  0  0  0  0  0
    8.0292  -13.3387   21.8207 O   0  0  0  0  0  0  0  0  0  0  0  0
    6.1064  -17.6495   21.3682 C   0  0  0  0  0  0  0  0  0  0  0  0
    7.1119  -17.4852   22.4890 C   0  0  1  0  0  0  0  0  0  0  0  0
    8.1606  -18.3517   22.2103 O   0  0  0  0  0  0  0  0  0  0  0  0
    7.5669  -16.0449   22.5576 C   0  0  2  0  0  0  0  0  0  0  0  0
    8.1070  -15.5670   21.3139 N   0  0  0  0  0  0  0  0  0  0  0  0
    8.4778  -15.8343   23.6975 C   0  0  0  0  0  0  0  0  0  0  0  0
    9.7353  -15.7753   23.5691 O   0  0  0  0  0  0  0  0  0  0  0  0
    5.7204  -12.3685   26.7164 C   0  0  0  0  0  0  0  0  0  0  0  0
    7.3891  -11.6964   26.9128 S   0  0  0  0  0  0  0  0  0  0  0  0
    8.6299  -12.9369   26.3770 C   0  0  0  0  0  0  0  0  0  0  0  0
    8.2531  -14.2840   26.9443 C   0  0  0  0  0  0  0  0  0  0  0  0
    8.8525  -15.4111   26.1655 C   0  0  2  0  0  0  0  0  0  0  0  0
    7.9833  -15.6821   25.0315 N   0  0  0  0  0  0  0  0  0  0  0  0
    9.1330  -16.6278   26.9203 C   0  0  0  0  0  0  0  0  0  0  0  0
    8.5213  -17.7217   26.8111 O   0  0  0  0  0  0  0  0  0  0  0  0
   10.1793  -16.5966   27.8617 O   0  0  0  0  0  0  0  0  0  0  0  0
  1  5  1  0
  1  2  1  0
  2  3  1  0
  4  3  1  0
  5  4  1  0
  5  6  1  1
  7  6  2  0
  9  8  1  6
  9 11  1  0
 10  9  1  0
 11 12  1  6
 11 13  1  0
 12  6  1  0
 13 20  1  0
 14 13  2  0
 15 16  1  0
 17 16  1  0
 18 17  1  0
 19 18  1  1
 19 21  1  0
 20 19  1  0
 21 23  1  0
 22 21  2  0
M  END
$$$$
