PTM.pdb
     RDKit          3D

 23 23  0  0  1  0  0  0  0  0999 V2000
    9.0868  -14.8047   18.2829 N   0  0  0  0  0  0  0  0  0  0  0  0
    9.0678  -14.0173   17.0647 C   0  0  0  0  0  0  0  0  0  0  0  0
    7.7242  -13.3135   17.2043 C   0  0  0  0  0  0  0  0  0  0  0  0
    7.7046  -12.9604   18.6705 C   0  0  0  0  0  0  0  0  0  0  0  0
    8.8122  -13.7813   19.2857 C   0  0  1  0  0  0  0  0  0  0  0  0
    8.4420  -14.3597   20.5808 C   0  0  0  0  0  0  0  0  0  0  0  0
    8.0528  -13.5952   21.4992 O   0  0  0  0  0  0  0  0  0  0  0  0
    7.6166  -18.4515   20.8278 C   0  0  0  0  0  0  0  0  0  0  0  0
    8.3604  -17.8771   22.0157 C   0  0  1  0  0  0  0  0  0  0  0  0
    9.6943  -18.2279   21.8551 O   0  0  0  0  0  0  0  0  0  0  0  0
    8.1678  -16.3781   22.0604 C   0  0  2  0  0  0  0  0  0  0  0  0
    8.5092  -15.7311   20.8228 N   0  0  0  0  0  0  0  0  0  0  0  0
    8.8592  -15.7930   23.2237 C   0  0  0  0  0  0  0  0  0  0  0  0
   10.0189  -15.2917   23.1519 O   0  0  0  0  0  0  0  0  0  0  0  0
    5.8745  -11.7756   26.2871 C   0  0  0  0  0  0  0  0  0  0  0  0
    7.0998  -11.8692   27.6154 S   0  0  0  0  0  0  0  0  0  0  0  0
    8.2930  -13.2196   27.2715 C   0  0  0  0  0  0  0  0  0  0  0  0
    7.8381  -13.9759   26.0468 C   0  0  0  0  0  0  0  0  0  0  0  0
    8.8195  -15.0268   25.6366 C   0  0  2  0  0  0  0  0  0  0  0  0
    8.2482  -15.7585   24.5171 N   0  0  0  0  0  0  0  0  0  0  0  0
    9.2599  -15.9330   26.6919 C   0  0  0  0  0  0  0  0  0  0  0  0
    9.8546  -15.6007   27.7495 O   0  0  0  0  0  0  0  0  0  0  0  0
    9.0060  -17.3085   26.5322 O   0  0  0  0  0  0  0  0  0  0  0  0
  1  5  1  0
  1  2  1  0
  2  3  1  0
  4  3  1  0
  5  4  1  0
  5  6  1  1
  7  6  2  0
  9  8  1  6
  9 11  1  0
 10  9  1  0
 11 12  1  6
 11 13  1  0
 12  6  1  0
 13 20  1  0
 14 13  2  0
 15 16  1  0
 17 16  1  0
 18 17  1  0
 19 18  1  1
 19 21  1  0
 20 19  1  0
 21 23  1  0
 22 21  2  0
M  END
$$$$
