PTM.pdb
     RDKit          3D

 23 23  0  0  1  0  0  0  0  0999 V2000
    9.1089  -14.6562   18.8111 N   0  0  0  0  0  0  0  0  0  0  0  0
    8.8299  -13.7669   17.6995 C   0  0  0  0  0  0  0  0  0  0  0  0
    7.4440  -13.2636   18.0814 C   0  0  0  0  0  0  0  0  0  0  0  0
    7.5834  -13.0559   19.5689 C   0  0  0  0  0  0  0  0  0  0  0  0
    8.8543  -13.7773   19.9474 C   0  0  1  0  0  0  0  0  0  0  0  0
    8.7362  -14.5191   21.2062 C   0  0  0  0  0  0  0  0  0  0  0  0
    8.3203  -13.9188   22.2291 O   0  0  0  0  0  0  0  0  0  0  0  0
    8.0357  -18.5368   21.1183 C   0  0  0  0  0  0  0  0  0  0  0  0
    9.0356  -18.1615   22.1924 C   0  0  1  0  0  0  0  0  0  0  0  0
   10.2875  -18.5208   21.7108 O   0  0  0  0  0  0  0  0  0  0  0  0
    8.9407  -16.6804   22.4811 C   0  0  2  0  0  0  0  0  0  0  0  0
    9.0714  -15.8690   21.3015 N   0  0  0  0  0  0  0  0  0  0  0  0
    9.8768  -16.2917   23.5517 C   0  0  0  0  0  0  0  0  0  0  0  0
   11.0156  -15.7914   23.3191 O   0  0  0  0  0  0  0  0  0  0  0  0
    8.5602  -12.3949   27.8703 C   0  0  0  0  0  0  0  0  0  0  0  0
    9.6114  -13.3598   28.9832 S   0  0  0  0  0  0  0  0  0  0  0  0
   10.5594  -14.6045   28.0253 C   0  0  0  0  0  0  0  0  0  0  0  0
    9.7478  -15.0196   26.8221 C   0  0  0  0  0  0  0  0  0  0  0  0
   10.4394  -16.0676   26.0101 C   0  0  2  0  0  0  0  0  0  0  0  0
    9.5446  -16.4605   24.9331 N   0  0  0  0  0  0  0  0  0  0  0  0
   10.9214  -17.2299   26.7487 C   0  0  0  0  0  0  0  0  0  0  0  0
   11.8251  -17.2255   27.6238 O   0  0  0  0  0  0  0  0  0  0  0  0
   10.3352  -18.4797   26.4724 O   0  0  0  0  0  0  0  0  0  0  0  0
  1  5  1  0
  1  2  1  0
  2  3  1  0
  4  3  1  0
  5  4  1  0
  5  6  1  1
  7  6  2  0
  9  8  1  6
  9 11  1  0
 10  9  1  0
 11 12  1  6
 11 13  1  0
 12  6  1  0
 13 20  1  0
 14 13  2  0
 15 16  1  0
 17 16  1  0
 18 17  1  0
 19 18  1  1
 19 21  1  0
 20 19  1  0
 21 23  1  0
 22 21  2  0
M  END
$$$$
