PTM.pdb
     RDKit          3D

 23 23  0  0  1  0  0  0  0  0999 V2000
    9.0263  -14.7018   18.0474 N   0  0  0  0  0  0  0  0  0  0  0  0
    8.9791  -13.8891   16.8467 C   0  0  0  0  0  0  0  0  0  0  0  0
    7.5737  -13.3113   16.9518 C   0  0  0  0  0  0  0  0  0  0  0  0
    7.4714  -12.9980   18.4237 C   0  0  0  0  0  0  0  0  0  0  0  0
    8.6260  -13.7323   19.0613 C   0  0  1  0  0  0  0  0  0  0  0  0
    8.2644  -14.3735   20.3290 C   0  0  0  0  0  0  0  0  0  0  0  0
    7.7796  -13.6691   21.2501 O   0  0  0  0  0  0  0  0  0  0  0  0
    7.5104  -18.4544   20.3168 C   0  0  0  0  0  0  0  0  0  0  0  0
    8.2009  -17.9607   21.5713 C   0  0  1  0  0  0  0  0  0  0  0  0
    9.5402  -18.3062   21.4482 O   0  0  0  0  0  0  0  0  0  0  0  0
    8.0086  -16.4670   21.7039 C   0  0  2  0  0  0  0  0  0  0  0  0
    8.4424  -15.7397   20.5421 N   0  0  0  0  0  0  0  0  0  0  0  0
    8.6127  -15.9672   22.9524 C   0  0  0  0  0  0  0  0  0  0  0  0
    9.7322  -15.3781   22.9852 O   0  0  0  0  0  0  0  0  0  0  0  0
    7.0424  -10.7363   26.6666 C   0  0  0  0  0  0  0  0  0  0  0  0
    6.3857  -12.3228   27.2379 S   0  0  0  0  0  0  0  0  0  0  0  0
    7.6406  -13.6402   27.0028 C   0  0  0  0  0  0  0  0  0  0  0  0
    7.3481  -14.3720   25.7154 C   0  0  0  0  0  0  0  0  0  0  0  0
    8.3787  -15.4120   25.4117 C   0  0  2  0  0  0  0  0  0  0  0  0
    7.9569  -16.1222   24.2147 N   0  0  0  0  0  0  0  0  0  0  0  0
    8.6868  -16.3383   26.4960 C   0  0  0  0  0  0  0  0  0  0  0  0
    8.4007  -17.5630   26.5243 O   0  0  0  0  0  0  0  0  0  0  0  0
    9.3658  -15.8366   27.6226 O   0  0  0  0  0  0  0  0  0  0  0  0
  1  5  1  0
  1  2  1  0
  2  3  1  0
  4  3  1  0
  5  4  1  0
  5  6  1  1
  7  6  2  0
  9  8  1  6
  9 11  1  0
 10  9  1  0
 11 12  1  6
 11 13  1  0
 12  6  1  0
 13 20  1  0
 14 13  2  0
 15 16  1  0
 17 16  1  0
 18 17  1  0
 19 18  1  1
 19 21  1  0
 20 19  1  0
 21 23  1  0
 22 21  2  0
M  END
$$$$
