PTM.pdb
     RDKit          3D

 23 23  0  0  1  0  0  0  0  0999 V2000
    8.9176  -14.7871   18.5579 N   0  0  0  0  0  0  0  0  0  0  0  0
    9.1461  -13.9960   17.3636 C   0  0  0  0  0  0  0  0  0  0  0  0
    7.8891  -13.1360   17.3497 C   0  0  0  0  0  0  0  0  0  0  0  0
    7.7271  -12.7917   18.8092 C   0  0  0  0  0  0  0  0  0  0  0  0
    8.6426  -13.7439   19.5400 C   0  0  1  0  0  0  0  0  0  0  0  0
    8.0459  -14.2809   20.7666 C   0  0  0  0  0  0  0  0  0  0  0  0
    7.6474  -13.4806   21.6499 O   0  0  0  0  0  0  0  0  0  0  0  0
    6.0671  -17.8983   20.7752 C   0  0  0  0  0  0  0  0  0  0  0  0
    7.0090  -17.7266   21.9490 C   0  0  1  0  0  0  0  0  0  0  0  0
    8.1471  -18.4659   21.6548 O   0  0  0  0  0  0  0  0  0  0  0  0
    7.3182  -16.2594   22.1430 C   0  0  2  0  0  0  0  0  0  0  0  0
    7.9082  -15.6516   20.9814 N   0  0  0  0  0  0  0  0  0  0  0  0
    8.1109  -16.0459   23.3676 C   0  0  0  0  0  0  0  0  0  0  0  0
    9.3644  -15.8739   23.3522 O   0  0  0  0  0  0  0  0  0  0  0  0
    6.6513  -10.7229   26.9473 C   0  0  0  0  0  0  0  0  0  0  0  0
    6.4943  -12.4670   27.4035 S   0  0  0  0  0  0  0  0  0  0  0  0
    7.5588  -13.4952   26.3194 C   0  0  0  0  0  0  0  0  0  0  0  0
    7.4878  -14.9306   26.7811 C   0  0  0  0  0  0  0  0  0  0  0  0
    8.2587  -15.8489   25.8875 C   0  0  2  0  0  0  0  0  0  0  0  0
    7.4977  -16.0204   24.6602 N   0  0  0  0  0  0  0  0  0  0  0  0
    8.6291  -17.1364   26.4652 C   0  0  0  0  0  0  0  0  0  0  0  0
    8.1170  -18.2490   26.1780 O   0  0  0  0  0  0  0  0  0  0  0  0
    9.6503  -17.1583   27.4340 O   0  0  0  0  0  0  0  0  0  0  0  0
  1  5  1  0
  1  2  1  0
  2  3  1  0
  4  3  1  0
  5  4  1  0
  5  6  1  1
  7  6  2  0
  9  8  1  6
  9 11  1  0
 10  9  1  0
 11 12  1  6
 11 13  1  0
 12  6  1  0
 13 20  1  0
 14 13  2  0
 15 16  1  0
 17 16  1  0
 18 17  1  0
 19 18  1  1
 19 21  1  0
 20 19  1  0
 21 23  1  0
 22 21  2  0
M  END
$$$$
