RYC.pdb
     RDKit          3D

 30 30  0  0  1  0  0  0  0  0999 V2000
   31.8881  -24.5342  -15.7037 N   0  0  0  0  0  0  0  0  0  0  0  0
   32.1533  -24.1640  -17.0740 C   0  0  0  0  0  0  0  0  0  0  0  0
   33.3475  -24.2771  -17.5382 N   0  0  0  0  0  0  0  0  0  0  0  0
   31.1351  -23.6810  -17.9201 N   0  0  0  0  0  0  0  0  0  0  0  0
   29.7412  -23.7546  -17.5408 C   0  0  0  0  0  0  0  0  0  0  0  0
   29.3155  -22.3440  -17.1592 C   0  0  0  0  0  0  0  0  0  0  0  0
   27.8675  -22.3542  -16.8096 C   0  0  0  0  0  0  0  0  0  0  0  0
   27.4090  -23.5627  -16.0401 C   0  0  2  0  0  0  0  0  0  0  0  0
   26.9415  -24.5881  -16.9491 N   0  0  0  0  0  0  0  0  0  0  0  0
   26.2583  -23.1509  -15.1562 C   0  0  0  0  0  0  0  0  0  0  0  0
   25.1334  -23.6671  -15.4058 O   0  0  0  0  0  0  0  0  0  0  0  0
   33.6485  -24.1395  -18.5075 O   0  0  0  0  0  0  0  0  0  0  0  0
   21.7660  -19.5670   -8.4434 C   0  0  0  0  0  0  0  0  0  0  0  0
   22.7597  -19.9713   -9.3281 C   0  0  0  0  0  0  0  0  0  0  0  0
   22.7295  -19.5621  -10.6492 C   0  0  0  0  0  0  0  0  0  0  0  0
   23.7080  -19.9615  -11.5178 C   0  0  0  0  0  0  0  0  0  0  0  0
   24.7582  -20.7852  -11.1082 C   0  0  0  0  0  0  0  0  0  0  0  0
   25.7470  -21.2329  -12.0810 C   0  0  2  0  0  0  0  0  0  0  0  0
   25.2079  -21.8526  -13.3129 N   0  0  0  0  0  0  0  0  0  0  0  0
   26.4215  -22.2367  -14.1035 C   0  0  0  0  0  0  0  0  0  0  0  0
   24.4118  -20.9369  -14.1383 O   0  0  0  0  0  0  0  0  0  0  0  0
   24.9689  -19.9080  -14.6934 C   0  0  0  0  0  0  0  0  0  0  0  0
   24.7918  -21.1904   -9.8061 C   0  0  0  0  0  0  0  0  0  0  0  0
   23.8061  -20.7857   -8.9410 N   0  0  0  0  0  0  0  0  0  0  0  0
   23.0355  -21.0291  -14.4401 C   0  0  2  0  0  0  0  0  0  0  0  0
   22.3275  -20.0092  -15.1757 C   0  0  0  0  0  0  0  0  0  0  0  0
   21.8119  -20.5457  -16.5070 S   0  0  0  0  0  0  0  0  0  0  0  0
   20.8947  -19.1805  -17.2778 C   0  0  0  0  0  0  0  0  0  0  0  0
   21.1483  -19.5690  -14.4399 O   0  0  0  0  0  0  0  0  0  0  0  0
   20.6175  -18.4642  -14.7159 O   0  0  0  0  0  0  0  0  0  0  0  0
  1  2  1  0
  2  3  2  0
  4  2  1  0
  4  5  1  0
  6  5  1  0
  7  8  1  0
  7  6  1  0
  8 10  1  0
  8  9  1  6
 10 11  2  0
 12 13  1  0
 13 23  2  0
 13 14  1  0
 14 15  2  0
 15 16  1  0
 16 17  1  0
 18 17  1  1
 19 18  1  0
 19 10  1  0
 20 21  2  0
 20 18  1  0
 22 16  2  0
 23 22  1  0
 24 20  1  0
 25 28  1  0
 25 24  1  0
 25 26  1  1
 27 26  1  0
 28 30  1  0
 29 28  2  0
M  END
$$$$
