RYC.pdb
     RDKit          3D

 30 30  0  0  1  0  0  0  0  0999 V2000
   13.1934  -20.0725   -7.9131 N   0  0  0  0  0  0  0  0  0  0  0  0
   11.9497  -20.2787   -7.2088 C   0  0  0  0  0  0  0  0  0  0  0  0
   11.1257  -19.2989   -7.0838 N   0  0  0  0  0  0  0  0  0  0  0  0
   11.6125  -21.5291   -6.6534 N   0  0  0  0  0  0  0  0  0  0  0  0
   12.5136  -22.6578   -6.7341 C   0  0  0  0  0  0  0  0  0  0  0  0
   12.3828  -23.2238   -8.1410 C   0  0  0  0  0  0  0  0  0  0  0  0
   13.2883  -24.3989   -8.2751 C   0  0  0  0  0  0  0  0  0  0  0  0
   14.6558  -24.0876   -8.8190 C   0  0  2  0  0  0  0  0  0  0  0  0
   14.6703  -24.2436  -10.2584 N   0  0  0  0  0  0  0  0  0  0  0  0
   15.6348  -25.0692   -8.2249 C   0  0  0  0  0  0  0  0  0  0  0  0
   15.5117  -26.2777   -8.5693 O   0  0  0  0  0  0  0  0  0  0  0  0
   10.2299  -19.3055   -6.5873 O   0  0  0  0  0  0  0  0  0  0  0  0
   20.0283  -26.2271  -12.7200 C   0  0  0  0  0  0  0  0  0  0  0  0
   19.7669  -25.9674  -11.3791 C   0  0  0  0  0  0  0  0  0  0  0  0
   19.9956  -26.9383  -10.4206 C   0  0  0  0  0  0  0  0  0  0  0  0
   19.7371  -26.6807   -9.1022 C   0  0  0  0  0  0  0  0  0  0  0  0
   19.2401  -25.4457   -8.6819 C   0  0  0  0  0  0  0  0  0  0  0  0
   18.9249  -25.2347   -7.2745 C   0  0  2  0  0  0  0  0  0  0  0  0
   17.5937  -25.7082   -6.8317 N   0  0  0  0  0  0  0  0  0  0  0  0
   16.6386  -24.6667   -7.3300 C   0  0  0  0  0  0  0  0  0  0  0  0
   17.4460  -25.7850   -5.3737 O   0  0  0  0  0  0  0  0  0  0  0  0
   17.6208  -24.7295   -4.6442 C   0  0  0  0  0  0  0  0  0  0  0  0
   19.0138  -24.4854   -9.6240 C   0  0  0  0  0  0  0  0  0  0  0  0
   19.2752  -24.7519  -10.9448 N   0  0  0  0  0  0  0  0  0  0  0  0
   17.1097  -26.9195   -4.6032 C   0  0  2  0  0  0  0  0  0  0  0  0
   17.1207  -26.9143   -3.1602 C   0  0  0  0  0  0  0  0  0  0  0  0
   16.1153  -27.9131   -2.5965 S   0  0  0  0  0  0  0  0  0  0  0  0
   16.3668  -27.9185   -0.7976 C   0  0  0  0  0  0  0  0  0  0  0  0
   18.4229  -27.3310   -2.6540 O   0  0  0  0  0  0  0  0  0  0  0  0
   19.0458  -28.2606   -3.2253 O   0  0  0  0  0  0  0  0  0  0  0  0
  1  2  1  0
  2  3  2  0
  4  2  1  0
  4  5  1  0
  6  5  1  0
  7  8  1  0
  7  6  1  0
  8 10  1  0
  8  9  1  6
 10 11  2  0
 12 13  1  0
 13 23  2  0
 13 14  1  0
 14 15  2  0
 15 16  1  0
 16 17  1  0
 18 17  1  6
 19 18  1  0
 19 10  1  0
 20 21  2  0
 20 18  1  0
 22 16  2  0
 23 22  1  0
 24 20  1  0
 25 28  1  0
 25 24  1  0
 25 26  1  6
 27 26  1  0
 28 30  1  0
 29 28  2  0
M  END
$$$$
