RYC.pdb
     RDKit          3D

 30 30  0  0  1  0  0  0  0  0999 V2000
   24.4879  -19.6872  -21.6762 N   0  0  0  0  0  0  0  0  0  0  0  0
   23.5477  -20.3546  -20.8069 C   0  0  0  0  0  0  0  0  0  0  0  0
   22.4559  -20.8231  -21.2996 N   0  0  0  0  0  0  0  0  0  0  0  0
   23.7952  -20.5079  -19.4281 N   0  0  0  0  0  0  0  0  0  0  0  0
   25.0063  -20.0037  -18.8186 C   0  0  0  0  0  0  0  0  0  0  0  0
   26.0853  -21.0507  -19.0558 C   0  0  0  0  0  0  0  0  0  0  0  0
   26.1314  -21.9709  -17.8853 C   0  0  0  0  0  0  0  0  0  0  0  0
   26.9235  -21.4646  -16.7109 C   0  0  2  0  0  0  0  0  0  0  0  0
   28.1853  -22.1684  -16.6164 N   0  0  0  0  0  0  0  0  0  0  0  0
   26.1327  -21.7367  -15.4557 C   0  0  0  0  0  0  0  0  0  0  0  0
   26.1465  -22.9208  -15.0175 O   0  0  0  0  0  0  0  0  0  0  0  0
   21.6925  -21.2760  -20.7885 O   0  0  0  0  0  0  0  0  0  0  0  0
   30.4547  -21.0908  -10.5838 C   0  0  0  0  0  0  0  0  0  0  0  0
   29.1804  -20.8146  -11.0670 C   0  0  0  0  0  0  0  0  0  0  0  0
   28.0659  -21.3551  -10.4512 C   0  0  0  0  0  0  0  0  0  0  0  0
   26.8133  -21.0823  -10.9287 C   0  0  0  0  0  0  0  0  0  0  0  0
   26.6169  -20.2598  -12.0395 C   0  0  0  0  0  0  0  0  0  0  0  0
   25.2684  -20.0429  -12.5487 C   0  0  2  0  0  0  0  0  0  0  0  0
   24.7612  -21.0647  -13.4924 N   0  0  0  0  0  0  0  0  0  0  0  0
   25.4120  -20.7266  -14.7992 C   0  0  0  0  0  0  0  0  0  0  0  0
   23.3085  -21.0169  -13.6944 O   0  0  0  0  0  0  0  0  0  0  0  0
   22.7668  -20.0062  -14.2961 C   0  0  0  0  0  0  0  0  0  0  0  0
   27.7134  -19.7244  -12.6493 C   0  0  0  0  0  0  0  0  0  0  0  0
   28.9668  -20.0033  -12.1644 N   0  0  0  0  0  0  0  0  0  0  0  0
   22.3554  -21.9844  -13.3078 C   0  0  2  0  0  0  0  0  0  0  0  0
   20.9414  -21.8274  -13.5497 C   0  0  0  0  0  0  0  0  0  0  0  0
   20.1579  -23.0368  -13.0501 S   0  0  0  0  0  0  0  0  0  0  0  0
   18.4109  -22.6834  -13.4001 C   0  0  0  0  0  0  0  0  0  0  0  0
   20.4177  -20.6821  -12.8152 O   0  0  0  0  0  0  0  0  0  0  0  0
   19.6297  -19.8847  -13.3824 O   0  0  0  0  0  0  0  0  0  0  0  0
  1  2  1  0
  2  3  2  0
  4  2  1  0
  4  5  1  0
  6  5  1  0
  7  8  1  0
  7  6  1  0
  8 10  1  0
  8  9  1  1
 10 11  2  0
 12 13  1  0
 13 23  2  0
 13 14  1  0
 14 15  2  0
 15 16  1  0
 16 17  1  0
 18 17  1  1
 19 18  1  0
 19 10  1  0
 20 21  2  0
 20 18  1  0
 22 16  2  0
 23 22  1  0
 24 20  1  0
 25 28  1  0
 25 24  1  0
 25 26  1  1
 27 26  1  0
 28 30  1  0
 29 28  2  0
M  END
$$$$
