RYC.pdb
     RDKit          3D

 30 30  0  0  1  0  0  0  0  0999 V2000
   21.7303  -14.0798  -20.6017 N   0  0  0  0  0  0  0  0  0  0  0  0
   20.8099  -14.5648  -19.6003 C   0  0  0  0  0  0  0  0  0  0  0  0
   19.6653  -13.9936  -19.4660 N   0  0  0  0  0  0  0  0  0  0  0  0
   21.1326  -15.6517  -18.7633 N   0  0  0  0  0  0  0  0  0  0  0  0
   22.4094  -16.3246  -18.8597 C   0  0  0  0  0  0  0  0  0  0  0  0
   22.1952  -17.5476  -19.7402 C   0  0  0  0  0  0  0  0  0  0  0  0
   22.3333  -18.7738  -18.9058 C   0  0  0  0  0  0  0  0  0  0  0  0
   23.5386  -18.7967  -18.0060 C   0  0  2  0  0  0  0  0  0  0  0  0
   24.6364  -19.4814  -18.6559 N   0  0  0  0  0  0  0  0  0  0  0  0
   23.1788  -19.5574  -16.7542 C   0  0  0  0  0  0  0  0  0  0  0  0
   23.4121  -20.7982  -16.7532 O   0  0  0  0  0  0  0  0  0  0  0  0
   18.9399  -14.2189  -18.7789 O   0  0  0  0  0  0  0  0  0  0  0  0
   21.4378  -21.2131   -8.2693 C   0  0  0  0  0  0  0  0  0  0  0  0
   21.7677  -20.6527   -9.4985 C   0  0  0  0  0  0  0  0  0  0  0  0
   20.9504  -19.6964  -10.0736 C   0  0  0  0  0  0  0  0  0  0  0  0
   21.2768  -19.1470  -11.2833 C   0  0  0  0  0  0  0  0  0  0  0  0
   22.4306  -19.5261  -11.9715 C   0  0  0  0  0  0  0  0  0  0  0  0
   22.7091  -18.9567  -13.2841 C   0  0  1  0  0  0  0  0  0  0  0  0
   22.2773  -19.7671  -14.4455 N   0  0  0  0  0  0  0  0  0  0  0  0
   22.6104  -18.9233  -15.6383 C   0  0  0  0  0  0  0  0  0  0  0  0
   20.8347  -20.0340  -14.4795 O   0  0  0  0  0  0  0  0  0  0  0  0
   20.0020  -19.0825  -14.7592 C   0  0  0  0  0  0  0  0  0  0  0  0
   23.2395  -20.4686  -11.4073 C   0  0  0  0  0  0  0  0  0  0  0  0
   22.9048  -21.0154  -10.1937 N   0  0  0  0  0  0  0  0  0  0  0  0
   20.1832  -21.2642  -14.2432 C   0  0  2  0  0  0  0  0  0  0  0  0
   18.7505  -21.4168  -14.3234 C   0  0  0  0  0  0  0  0  0  0  0  0
   18.3672  -22.8438  -14.7015 S   0  0  0  0  0  0  0  0  0  0  0  0
   19.2051  -23.9232  -13.5048 C   0  0  0  0  0  0  0  0  0  0  0  0
   18.1332  -21.1690  -13.0260 O   0  0  0  0  0  0  0  0  0  0  0  0
   18.8536  -21.0674  -12.0017 O   0  0  0  0  0  0  0  0  0  0  0  0
  1  2  1  0
  2  3  2  0
  4  2  1  0
  4  5  1  0
  6  5  1  0
  7  8  1  0
  7  6  1  0
  8 10  1  0
  8  9  1  6
 10 11  2  0
 12 13  1  0
 13 23  2  0
 13 14  1  0
 14 15  2  0
 15 16  1  0
 16 17  1  0
 18 17  1  6
 19 18  1  0
 19 10  1  0
 20 21  2  0
 20 18  1  0
 22 16  2  0
 23 22  1  0
 24 20  1  0
 25 28  1  0
 25 24  1  0
 25 26  1  6
 27 26  1  0
 28 30  1  0
 29 28  2  0
M  END
$$$$
