RYC.pdb
     RDKit          3D

 30 30  0  0  1  0  0  0  0  0999 V2000
   28.1650  -24.1960  -20.3129 N   0  0  0  0  0  0  0  0  0  0  0  0
   28.2422  -23.0859  -21.2332 C   0  0  0  0  0  0  0  0  0  0  0  0
   28.0553  -23.2933  -22.4888 N   0  0  0  0  0  0  0  0  0  0  0  0
   28.5169  -21.7763  -20.7912 N   0  0  0  0  0  0  0  0  0  0  0  0
   28.6514  -21.4678  -19.3844 C   0  0  0  0  0  0  0  0  0  0  0  0
   27.4212  -20.6617  -18.9927 C   0  0  0  0  0  0  0  0  0  0  0  0
   26.5824  -21.4774  -18.0708 C   0  0  0  0  0  0  0  0  0  0  0  0
   27.3131  -22.0500  -16.8872 C   0  0  2  0  0  0  0  0  0  0  0  0
   27.7544  -23.3986  -17.1749 N   0  0  0  0  0  0  0  0  0  0  0  0
   26.3568  -22.1016  -15.7219 C   0  0  0  0  0  0  0  0  0  0  0  0
   25.4708  -23.0007  -15.7498 O   0  0  0  0  0  0  0  0  0  0  0  0
   28.0693  -22.5954  -23.2384 O   0  0  0  0  0  0  0  0  0  0  0  0
   22.9000  -20.4557   -7.7387 C   0  0  0  0  0  0  0  0  0  0  0  0
   23.6907  -20.4743   -8.8825 C   0  0  0  0  0  0  0  0  0  0  0  0
   23.3843  -19.6607   -9.9584 C   0  0  0  0  0  0  0  0  0  0  0  0
   24.1633  -19.6812  -11.0828 C   0  0  0  0  0  0  0  0  0  0  0  0
   25.2803  -20.5124  -11.1838 C   0  0  0  0  0  0  0  0  0  0  0  0
   26.0481  -20.5438  -12.4225 C   0  0  1  0  0  0  0  0  0  0  0  0
   25.4749  -21.3579  -13.5183 N   0  0  0  0  0  0  0  0  0  0  0  0
   26.4405  -21.1959  -14.6527 C   0  0  0  0  0  0  0  0  0  0  0  0
   24.1633  -20.8903  -13.9814 O   0  0  0  0  0  0  0  0  0  0  0  0
   24.0585  -19.7658  -14.6151 C   0  0  0  0  0  0  0  0  0  0  0  0
   25.5861  -21.3158  -10.1246 C   0  0  0  0  0  0  0  0  0  0  0  0
   24.7993  -21.2898   -9.0003 N   0  0  0  0  0  0  0  0  0  0  0  0
   22.9182  -21.5394  -13.8318 C   0  0  2  0  0  0  0  0  0  0  0  0
   21.6645  -20.9108  -14.1716 C   0  0  0  0  0  0  0  0  0  0  0  0
   20.7877  -21.8411  -15.0035 S   0  0  0  0  0  0  0  0  0  0  0  0
   21.6950  -22.1385  -16.5487 C   0  0  0  0  0  0  0  0  0  0  0  0
   20.8971  -20.6099  -12.9689 O   0  0  0  0  0  0  0  0  0  0  0  0
   20.1947  -19.5693  -12.9213 O   0  0  0  0  0  0  0  0  0  0  0  0
  1  2  1  0
  2  3  2  0
  4  2  1  0
  4  5  1  0
  6  5  1  0
  7  8  1  0
  7  6  1  0
  8 10  1  0
  8  9  1  6
 10 11  2  0
 12 13  1  0
 13 23  2  0
 13 14  1  0
 14 15  2  0
 15 16  1  0
 16 17  1  0
 18 17  1  1
 19 18  1  0
 19 10  1  0
 20 21  2  0
 20 18  1  0
 22 16  2  0
 23 22  1  0
 24 20  1  0
 25 28  1  0
 25 24  1  0
 25 26  1  6
 27 26  1  0
 28 30  1  0
 29 28  2  0
M  END
$$$$
