RYC.pdb
     RDKit          3D

 30 30  0  0  1  0  0  0  0  0999 V2000
   24.3801  -21.1282   -9.6417 N   0  0  0  0  0  0  0  0  0  0  0  0
   25.8169  -21.0753   -9.5079 C   0  0  0  0  0  0  0  0  0  0  0  0
   26.3658  -21.5012   -8.4254 N   0  0  0  0  0  0  0  0  0  0  0  0
   26.6373  -20.5683  -10.5354 N   0  0  0  0  0  0  0  0  0  0  0  0
   26.1374  -20.3903  -11.8810 C   0  0  0  0  0  0  0  0  0  0  0  0
   26.0668  -21.7748  -12.5095 C   0  0  0  0  0  0  0  0  0  0  0  0
   25.0761  -21.7506  -13.6216 C   0  0  0  0  0  0  0  0  0  0  0  0
   24.0546  -20.6496  -13.5378 C   0  0  2  0  0  0  0  0  0  0  0  0
   22.7240  -21.1840  -13.7384 N   0  0  0  0  0  0  0  0  0  0  0  0
   24.3388  -19.6573  -14.6376 C   0  0  0  0  0  0  0  0  0  0  0  0
   23.8877  -19.9316  -15.7846 O   0  0  0  0  0  0  0  0  0  0  0  0
   27.3662  -21.5197   -8.2067 O   0  0  0  0  0  0  0  0  0  0  0  0
   27.4853  -12.3790  -18.6267 C   0  0  0  0  0  0  0  0  0  0  0  0
   27.0541  -13.3321  -17.7105 C   0  0  0  0  0  0  0  0  0  0  0  0
   27.9711  -14.0960  -17.0112 C   0  0  0  0  0  0  0  0  0  0  0  0
   27.5444  -15.0334  -16.1108 C   0  0  0  0  0  0  0  0  0  0  0  0
   26.1868  -15.2500  -15.8682 C   0  0  0  0  0  0  0  0  0  0  0  0
   25.7765  -16.2988  -14.9428 C   0  0  1  0  0  0  0  0  0  0  0  0
   25.2928  -17.5541  -15.5612 N   0  0  0  0  0  0  0  0  0  0  0  0
   25.0699  -18.4817  -14.4056 C   0  0  0  0  0  0  0  0  0  0  0  0
   26.2667  -18.1876  -16.4577 O   0  0  0  0  0  0  0  0  0  0  0  0
   27.3508  -18.7094  -15.9785 C   0  0  0  0  0  0  0  0  0  0  0  0
   25.2794  -14.4983  -16.5554 C   0  0  0  0  0  0  0  0  0  0  0  0
   25.7155  -13.5602  -17.4575 N   0  0  0  0  0  0  0  0  0  0  0  0
   26.1798  -18.3258  -17.8602 C   0  0  2  0  0  0  0  0  0  0  0  0
   27.2435  -18.8886  -18.6566 C   0  0  0  0  0  0  0  0  0  0  0  0
   26.6905  -19.6726  -19.8422 S   0  0  0  0  0  0  0  0  0  0  0  0
   28.1343  -20.2379  -20.7884 C   0  0  0  0  0  0  0  0  0  0  0  0
   28.0720  -17.8337  -19.2280 O   0  0  0  0  0  0  0  0  0  0  0  0
   27.5347  -16.7819  -19.6566 O   0  0  0  0  0  0  0  0  0  0  0  0
  1  2  1  0
  2  3  2  0
  4  2  1  0
  4  5  1  0
  6  5  1  0
  7  8  1  0
  7  6  1  0
  8 10  1  0
  8  9  1  6
 10 11  2  0
 12 13  1  0
 13 23  2  0
 13 14  1  0
 14 15  2  0
 15 16  1  0
 16 17  1  0
 18 17  1  1
 19 18  1  0
 19 10  1  0
 20 21  2  0
 20 18  1  0
 22 16  2  0
 23 22  1  0
 24 20  1  0
 25 28  1  0
 25 24  1  0
 25 26  1  6
 27 26  1  0
 28 30  1  0
 29 28  2  0
M  END
$$$$
