RYC.pdb
     RDKit          3D

 30 30  0  0  1  0  0  0  0  0999 V2000
   29.0397  -19.7563  -18.7172 N   0  0  0  0  0  0  0  0  0  0  0  0
   27.8395  -18.9662  -18.5737 C   0  0  0  0  0  0  0  0  0  0  0  0
   27.4561  -18.2188  -19.5477 N   0  0  0  0  0  0  0  0  0  0  0  0
   27.0735  -18.9926  -17.3911 N   0  0  0  0  0  0  0  0  0  0  0  0
   27.2893  -19.9994  -16.3751 C   0  0  0  0  0  0  0  0  0  0  0  0
   26.7955  -21.3182  -16.9527 C   0  0  0  0  0  0  0  0  0  0  0  0
   25.4626  -21.6333  -16.3671 C   0  0  0  0  0  0  0  0  0  0  0  0
   25.4835  -22.0207  -14.9138 C   0  0  2  0  0  0  0  0  0  0  0  0
   25.8323  -23.4188  -14.7726 N   0  0  0  0  0  0  0  0  0  0  0  0
   24.0988  -21.8175  -14.3512 C   0  0  0  0  0  0  0  0  0  0  0  0
   23.3670  -22.8415  -14.2517 O   0  0  0  0  0  0  0  0  0  0  0  0
   26.6144  -17.6363  -19.5843 O   0  0  0  0  0  0  0  0  0  0  0  0
   24.2565  -21.5869   -7.2142 C   0  0  0  0  0  0  0  0  0  0  0  0
   23.8172  -21.0934   -8.4379 C   0  0  0  0  0  0  0  0  0  0  0  0
   24.7108  -20.5135   -9.3203 C   0  0  0  0  0  0  0  0  0  0  0  0
   24.2761  -20.0282  -10.5232 C   0  0  0  0  0  0  0  0  0  0  0  0
   22.9335  -20.0998  -10.8989 C   0  0  0  0  0  0  0  0  0  0  0  0
   22.5055  -19.5184  -12.1651 C   0  0  2  0  0  0  0  0  0  0  0  0
   22.3022  -20.4724  -13.2790 N   0  0  0  0  0  0  0  0  0  0  0  0
   23.6373  -20.5524  -13.9547 C   0  0  0  0  0  0  0  0  0  0  0  0
   21.3260  -20.0201  -14.2769 O   0  0  0  0  0  0  0  0  0  0  0  0
   21.6094  -19.0328  -15.0656 C   0  0  0  0  0  0  0  0  0  0  0  0
   22.0492  -20.6715  -10.0316 C   0  0  0  0  0  0  0  0  0  0  0  0
   22.4932  -21.1555   -8.8264 N   0  0  0  0  0  0  0  0  0  0  0  0
   20.0398  -20.5491  -14.5212 C   0  0  2  0  0  0  0  0  0  0  0  0
   19.1751  -20.0493  -15.5629 C   0  0  0  0  0  0  0  0  0  0  0  0
   18.4065  -21.1829  -16.2341 S   0  0  0  0  0  0  0  0  0  0  0  0
   17.3792  -20.4047  -17.5141 C   0  0  0  0  0  0  0  0  0  0  0  0
   18.1647  -19.1563  -15.0086 O   0  0  0  0  0  0  0  0  0  0  0  0
   17.8400  -19.2562  -13.7990 O   0  0  0  0  0  0  0  0  0  0  0  0
  1  2  1  0
  2  3  2  0
  4  2  1  0
  4  5  1  0
  6  5  1  0
  7  8  1  0
  7  6  1  0
  8 10  1  0
  8  9  1  6
 10 11  2  0
 12 13  1  0
 13 23  2  0
 13 14  1  0
 14 15  2  0
 15 16  1  0
 16 17  1  0
 18 17  1  1
 19 18  1  0
 19 10  1  0
 20 21  2  0
 20 18  1  0
 22 16  2  0
 23 22  1  0
 24 20  1  0
 25 28  1  0
 25 24  1  0
 25 26  1  6
 27 26  1  0
 28 30  1  0
 29 28  2  0
M  END
$$$$
