RYC.pdb
     RDKit          3D

 30 30  0  0  1  0  0  0  0  0999 V2000
   20.5837  -26.3758  -13.4267 N   0  0  0  0  0  0  0  0  0  0  0  0
   21.3438  -27.3465  -14.1786 C   0  0  0  0  0  0  0  0  0  0  0  0
   20.8939  -28.5457  -14.2967 N   0  0  0  0  0  0  0  0  0  0  0  0
   22.5694  -27.0140  -14.7894 N   0  0  0  0  0  0  0  0  0  0  0  0
   23.1301  -25.6850  -14.6811 C   0  0  0  0  0  0  0  0  0  0  0  0
   22.7033  -24.9259  -15.9294 C   0  0  0  0  0  0  0  0  0  0  0  0
   22.9822  -23.4759  -15.7322 C   0  0  0  0  0  0  0  0  0  0  0  0
   23.2458  -23.0683  -14.3084 C   0  0  2  0  0  0  0  0  0  0  0  0
   21.9964  -22.8580  -13.6077 N   0  0  0  0  0  0  0  0  0  0  0  0
   24.0071  -21.7663  -14.3234 C   0  0  0  0  0  0  0  0  0  0  0  0
   23.3250  -20.7054  -14.2645 O   0  0  0  0  0  0  0  0  0  0  0  0
   21.3248  -29.3184  -14.8128 O   0  0  0  0  0  0  0  0  0  0  0  0
   25.0041  -20.5247   -7.9170 C   0  0  0  0  0  0  0  0  0  0  0  0
   25.4918  -20.5197   -9.2193 C   0  0  0  0  0  0  0  0  0  0  0  0
   25.8149  -21.7076   -9.8502 C   0  0  0  0  0  0  0  0  0  0  0  0
   26.2950  -21.7001  -11.1312 C   0  0  0  0  0  0  0  0  0  0  0  0
   26.4738  -20.5098  -11.8385 C   0  0  0  0  0  0  0  0  0  0  0  0
   27.0421  -20.5450  -13.1803 C   0  0  2  0  0  0  0  0  0  0  0  0
   26.0795  -20.3912  -14.2947 N   0  0  0  0  0  0  0  0  0  0  0  0
   25.4082  -21.7268  -14.3995 C   0  0  0  0  0  0  0  0  0  0  0  0
   26.7105  -20.1086  -15.5891 O   0  0  0  0  0  0  0  0  0  0  0  0
   27.3293  -21.0474  -16.2316 C   0  0  0  0  0  0  0  0  0  0  0  0
   26.1557  -19.3363  -11.2199 C   0  0  0  0  0  0  0  0  0  0  0  0
   25.6751  -19.3523   -9.9344 N   0  0  0  0  0  0  0  0  0  0  0  0
   26.7328  -18.8793  -16.2834 C   0  0  2  0  0  0  0  0  0  0  0  0
   27.3461  -18.7265  -17.5807 C   0  0  0  0  0  0  0  0  0  0  0  0
   26.4148  -18.0066  -18.5506 S   0  0  0  0  0  0  0  0  0  0  0  0
   27.3093  -17.9107  -20.1286 C   0  0  0  0  0  0  0  0  0  0  0  0
   28.5433  -17.8994  -17.4898 O   0  0  0  0  0  0  0  0  0  0  0  0
   28.6329  -17.0289  -16.5883 O   0  0  0  0  0  0  0  0  0  0  0  0
  1  2  1  0
  2  3  2  0
  4  2  1  0
  4  5  1  0
  6  5  1  0
  7  8  1  0
  7  6  1  0
  8 10  1  0
  8  9  1  1
 10 11  2  0
 12 13  1  0
 13 23  2  0
 13 14  1  0
 14 15  2  0
 15 16  1  0
 16 17  1  0
 18 17  1  1
 19 18  1  0
 19 10  1  0
 20 21  2  0
 20 18  1  0
 22 16  2  0
 23 22  1  0
 24 20  1  0
 25 28  1  0
 25 24  1  0
 25 26  1  6
 27 26  1  0
 28 30  1  0
 29 28  2  0
M  END
$$$$
