RYC.pdb
     RDKit          3D

 30 30  0  0  1  0  0  0  0  0999 V2000
   18.9788  -24.8369   -7.6937 N   0  0  0  0  0  0  0  0  0  0  0  0
   17.7837  -24.7799   -8.5023 C   0  0  0  0  0  0  0  0  0  0  0  0
   16.6888  -25.2767   -8.0455 N   0  0  0  0  0  0  0  0  0  0  0  0
   17.7843  -24.1915   -9.7828 N   0  0  0  0  0  0  0  0  0  0  0  0
   19.0060  -24.0394  -10.5423 C   0  0  0  0  0  0  0  0  0  0  0  0
   18.6283  -23.3539  -11.8477 C   0  0  0  0  0  0  0  0  0  0  0  0
   19.8236  -22.6455  -12.3848 C   0  0  0  0  0  0  0  0  0  0  0  0
   20.3370  -21.5242  -11.5235 C   0  0  2  0  0  0  0  0  0  0  0  0
   19.2525  -20.6388  -11.1543 N   0  0  0  0  0  0  0  0  0  0  0  0
   21.3421  -20.7354  -12.3251 C   0  0  0  0  0  0  0  0  0  0  0  0
   20.9493  -19.6393  -12.8134 O   0  0  0  0  0  0  0  0  0  0  0  0
   15.7816  -25.3113   -8.5199 O   0  0  0  0  0  0  0  0  0  0  0  0
   29.1023  -18.6420  -16.1007 C   0  0  0  0  0  0  0  0  0  0  0  0
   28.0829  -19.1532  -15.3048 C   0  0  0  0  0  0  0  0  0  0  0  0
   27.7491  -20.4940  -15.3705 C   0  0  0  0  0  0  0  0  0  0  0  0
   26.7456  -20.9944  -14.5870 C   0  0  0  0  0  0  0  0  0  0  0  0
   26.0318  -20.1814  -13.7047 C   0  0  0  0  0  0  0  0  0  0  0  0
   24.9324  -20.7451  -12.9313 C   0  0  1  0  0  0  0  0  0  0  0  0
   23.5712  -20.3499  -13.3592 N   0  0  0  0  0  0  0  0  0  0  0  0
   22.6547  -21.1915  -12.5242 C   0  0  0  0  0  0  0  0  0  0  0  0
   23.2834  -20.6436  -14.7679 O   0  0  0  0  0  0  0  0  0  0  0  0
   23.0630  -21.8617  -15.1481 C   0  0  0  0  0  0  0  0  0  0  0  0
   26.3585  -18.8587  -13.6365 C   0  0  0  0  0  0  0  0  0  0  0  0
   27.3662  -18.3642  -14.4263 N   0  0  0  0  0  0  0  0  0  0  0  0
   23.1985  -19.7247  -15.8366 C   0  0  2  0  0  0  0  0  0  0  0  0
   22.8616  -20.1217  -17.1825 C   0  0  0  0  0  0  0  0  0  0  0  0
   21.7958  -19.2074  -17.7777 S   0  0  0  0  0  0  0  0  0  0  0  0
   22.2952  -17.5125  -17.3565 C   0  0  0  0  0  0  0  0  0  0  0  0
   24.0210  -20.0054  -18.0588 O   0  0  0  0  0  0  0  0  0  0  0  0
   25.0412  -19.3872  -17.6646 O   0  0  0  0  0  0  0  0  0  0  0  0
  1  2  1  0
  2  3  2  0
  4  2  1  0
  4  5  1  0
  6  5  1  0
  7  8  1  0
  7  6  1  0
  8 10  1  0
  8  9  1  6
 10 11  2  0
 12 13  1  0
 13 23  2  0
 13 14  1  0
 14 15  2  0
 15 16  1  0
 16 17  1  0
 18 17  1  1
 19 18  1  0
 19 10  1  0
 20 21  2  0
 20 18  1  0
 22 16  2  0
 23 22  1  0
 24 20  1  0
 25 28  1  0
 25 24  1  0
 25 26  1  1
 27 26  1  0
 28 30  1  0
 29 28  2  0
M  END
$$$$
