RYC.pdb
     RDKit          3D

 30 30  0  0  1  0  0  0  0  0999 V2000
   14.6313  -15.8279  -16.2046 N   0  0  0  0  0  0  0  0  0  0  0  0
   13.7609  -14.7704  -15.7471 C   0  0  0  0  0  0  0  0  0  0  0  0
   12.5032  -15.0029  -15.6112 N   0  0  0  0  0  0  0  0  0  0  0  0
   14.2542  -13.4857  -15.4435 N   0  0  0  0  0  0  0  0  0  0  0  0
   15.5284  -13.0275  -15.9521 C   0  0  0  0  0  0  0  0  0  0  0  0
   15.2532  -11.7579  -16.7453 C   0  0  0  0  0  0  0  0  0  0  0  0
   15.8763  -10.6030  -16.0402 C   0  0  0  0  0  0  0  0  0  0  0  0
   17.3756  -10.5331  -16.1390 C   0  0  2  0  0  0  0  0  0  0  0  0
   17.9101  -11.8097  -16.5642 N   0  0  0  0  0  0  0  0  0  0  0  0
   17.9248  -10.2206  -14.7694 C   0  0  0  0  0  0  0  0  0  0  0  0
   18.0809  -11.1945  -13.9810 O   0  0  0  0  0  0  0  0  0  0  0  0
   11.7820  -14.3404  -15.3111 O   0  0  0  0  0  0  0  0  0  0  0  0
   23.1661   -6.7422   -8.6659 C   0  0  0  0  0  0  0  0  0  0  0  0
   22.4183   -7.1034   -9.7812 C   0  0  0  0  0  0  0  0  0  0  0  0
   22.2694   -8.4357  -10.1225 C   0  0  0  0  0  0  0  0  0  0  0  0
   21.5337   -8.7886  -11.2206 C   0  0  0  0  0  0  0  0  0  0  0  0
   20.9149   -7.8303  -12.0254 C   0  0  0  0  0  0  0  0  0  0  0  0
   20.1888   -8.2482  -13.2182 C   0  0  1  0  0  0  0  0  0  0  0  0
   18.7966   -8.7035  -13.0016 N   0  0  0  0  0  0  0  0  0  0  0  0
   18.2494   -8.9113  -14.3811 C   0  0  0  0  0  0  0  0  0  0  0  0
   17.9460   -7.7134  -12.3310 O   0  0  0  0  0  0  0  0  0  0  0  0
   17.5617   -6.6498  -12.9620 C   0  0  0  0  0  0  0  0  0  0  0  0
   21.0588   -6.5154  -11.6917 C   0  0  0  0  0  0  0  0  0  0  0  0
   21.7990   -6.1695  -10.5888 N   0  0  0  0  0  0  0  0  0  0  0  0
   17.4472   -7.7632  -11.0110 C   0  0  2  0  0  0  0  0  0  0  0  0
   16.6977   -6.6817  -10.4185 C   0  0  0  0  0  0  0  0  0  0  0  0
   15.9373   -7.1492   -9.1817 S   0  0  0  0  0  0  0  0  0  0  0  0
   14.9923   -5.7114   -8.5994 C   0  0  0  0  0  0  0  0  0  0  0  0
   17.5927   -5.6258   -9.9605 O   0  0  0  0  0  0  0  0  0  0  0  0
   17.1166   -4.5314   -9.5680 O   0  0  0  0  0  0  0  0  0  0  0  0
  1  2  1  0
  2  3  2  0
  4  2  1  0
  4  5  1  0
  6  5  1  0
  7  8  1  0
  7  6  1  0
  8 10  1  0
  8  9  1  1
 10 11  2  0
 12 13  1  0
 13 23  2  0
 13 14  1  0
 14 15  2  0
 15 16  1  0
 16 17  1  0
 18 17  1  1
 19 18  1  0
 19 10  1  0
 20 21  2  0
 20 18  1  0
 22 16  2  0
 23 22  1  0
 24 20  1  0
 25 28  1  0
 25 24  1  0
 25 26  1  1
 27 26  1  0
 28 30  1  0
 29 28  2  0
M  END
$$$$
