RYC.pdb
     RDKit          3D

 30 30  0  0  1  0  0  0  0  0999 V2000
   29.4170  -31.7853  -15.5786 N   0  0  0  0  0  0  0  0  0  0  0  0
   28.0042  -31.9896  -15.3610 C   0  0  0  0  0  0  0  0  0  0  0  0
   27.6175  -32.7471  -14.3961 N   0  0  0  0  0  0  0  0  0  0  0  0
   27.0337  -31.3786  -16.1800 N   0  0  0  0  0  0  0  0  0  0  0  0
   27.4085  -30.5864  -17.3307 C   0  0  0  0  0  0  0  0  0  0  0  0
   27.4888  -29.1409  -16.8607 C   0  0  0  0  0  0  0  0  0  0  0  0
   26.3193  -28.3919  -17.3995 C   0  0  0  0  0  0  0  0  0  0  0  0
   26.3569  -28.1373  -18.8816 C   0  0  2  0  0  0  0  0  0  0  0  0
   27.3148  -27.0955  -19.1872 N   0  0  0  0  0  0  0  0  0  0  0  0
   24.9904  -27.6682  -19.3148 C   0  0  0  0  0  0  0  0  0  0  0  0
   24.7324  -26.4419  -19.1609 O   0  0  0  0  0  0  0  0  0  0  0  0
   26.6524  -32.9659  -14.1319 O   0  0  0  0  0  0  0  0  0  0  0  0
   24.6111  -28.1246  -26.4893 C   0  0  0  0  0  0  0  0  0  0  0  0
   24.0440  -28.2904  -25.2304 C   0  0  0  0  0  0  0  0  0  0  0  0
   24.3394  -29.4084  -24.4714 C   0  0  0  0  0  0  0  0  0  0  0  0
   23.7799  -29.5695  -23.2335 C   0  0  0  0  0  0  0  0  0  0  0  0
   22.9027  -28.6243  -22.6985 C   0  0  0  0  0  0  0  0  0  0  0  0
   22.2854  -28.8648  -21.4002 C   0  0  2  0  0  0  0  0  0  0  0  0
   22.7276  -27.9786  -20.2996 N   0  0  0  0  0  0  0  0  0  0  0  0
   24.0437  -28.5473  -19.8638 C   0  0  0  0  0  0  0  0  0  0  0  0
   21.8335  -27.9862  -19.1360 O   0  0  0  0  0  0  0  0  0  0  0  0
   21.9069  -28.9404  -18.2636 C   0  0  0  0  0  0  0  0  0  0  0  0
   22.6094  -27.5200  -23.4437 C   0  0  0  0  0  0  0  0  0  0  0  0
   23.1744  -27.3661  -24.6851 N   0  0  0  0  0  0  0  0  0  0  0  0
   20.8451  -27.0333  -18.8062 C   0  0  2  0  0  0  0  0  0  0  0  0
   20.0753  -27.0969  -17.5873 C   0  0  0  0  0  0  0  0  0  0  0  0
   20.1858  -25.7978  -16.7957 S   0  0  0  0  0  0  0  0  0  0  0  0
   19.2276  -26.0535  -15.2740 C   0  0  0  0  0  0  0  0  0  0  0  0
   18.6573  -27.2643  -17.8823 O   0  0  0  0  0  0  0  0  0  0  0  0
   18.1262  -26.5857  -18.7966 O   0  0  0  0  0  0  0  0  0  0  0  0
  1  2  1  0
  2  3  2  0
  4  2  1  0
  4  5  1  0
  6  5  1  0
  7  8  1  0
  7  6  1  0
  8 10  1  0
  8  9  1  1
 10 11  2  0
 12 13  1  0
 13 23  2  0
 13 14  1  0
 14 15  2  0
 15 16  1  0
 16 17  1  0
 18 17  1  6
 19 18  1  0
 19 10  1  0
 20 21  2  0
 20 18  1  0
 22 16  2  0
 23 22  1  0
 24 20  1  0
 25 28  1  0
 25 24  1  0
 25 26  1  1
 27 26  1  0
 28 30  1  0
 29 28  2  0
M  END
$$$$
