RYC.pdb
     RDKit          3D

 30 30  0  0  1  0  0  0  0  0999 V2000
   30.1135  -25.4174  -16.2286 N   0  0  0  0  0  0  0  0  0  0  0  0
   29.4169  -24.3945  -16.9727 C   0  0  0  0  0  0  0  0  0  0  0  0
   30.0907  -23.4547  -17.5358 N   0  0  0  0  0  0  0  0  0  0  0  0
   28.0134  -24.3984  -17.0998 N   0  0  0  0  0  0  0  0  0  0  0  0
   27.2292  -25.5671  -16.7659 C   0  0  0  0  0  0  0  0  0  0  0  0
   25.7884  -25.2503  -17.1411 C   0  0  0  0  0  0  0  0  0  0  0  0
   25.3550  -24.0294  -16.4059 C   0  0  0  0  0  0  0  0  0  0  0  0
   25.0016  -24.2508  -14.9606 C   0  0  2  0  0  0  0  0  0  0  0  0
   24.2700  -25.4908  -14.8077 N   0  0  0  0  0  0  0  0  0  0  0  0
   24.1134  -23.1169  -14.5129 C   0  0  0  0  0  0  0  0  0  0  0  0
   22.8807  -23.3669  -14.4019 O   0  0  0  0  0  0  0  0  0  0  0  0
   29.7279  -22.7132  -18.1421 O   0  0  0  0  0  0  0  0  0  0  0  0
   24.3702  -21.2758   -7.5344 C   0  0  0  0  0  0  0  0  0  0  0  0
   24.3988  -20.9120   -8.8762 C   0  0  0  0  0  0  0  0  0  0  0  0
   23.2575  -20.4377   -9.4974 C   0  0  0  0  0  0  0  0  0  0  0  0
   23.2880  -20.0810  -10.8177 C   0  0  0  0  0  0  0  0  0  0  0  0
   24.4560  -20.1813  -11.5758 C   0  0  0  0  0  0  0  0  0  0  0  0
   24.4283  -19.8446  -12.9937 C   0  0  2  0  0  0  0  0  0  0  0  0
   23.6537  -20.7610  -13.8611 N   0  0  0  0  0  0  0  0  0  0  0  0
   24.6249  -21.8405  -14.2311 C   0  0  0  0  0  0  0  0  0  0  0  0
   23.1817  -20.1428  -15.1055 O   0  0  0  0  0  0  0  0  0  0  0  0
   23.9137  -20.1849  -16.1729 C   0  0  0  0  0  0  0  0  0  0  0  0
   25.5838  -20.6481  -10.9667 C   0  0  0  0  0  0  0  0  0  0  0  0
   25.5449  -21.0044   -9.6418 N   0  0  0  0  0  0  0  0  0  0  0  0
   21.9581  -19.4718  -15.3208 C   0  0  1  0  0  0  0  0  0  0  0  0
   21.2664  -19.4968  -16.5870 C   0  0  0  0  0  0  0  0  0  0  0  0
   20.9501  -20.9259  -17.0156 S   0  0  0  0  0  0  0  0  0  0  0  0
   20.0996  -20.7944  -18.6152 C   0  0  0  0  0  0  0  0  0  0  0  0
   19.9802  -18.8178  -16.4843 O   0  0  0  0  0  0  0  0  0  0  0  0
   19.3181  -18.8939  -15.4192 O   0  0  0  0  0  0  0  0  0  0  0  0
  1  2  1  0
  2  3  2  0
  4  2  1  0
  4  5  1  0
  6  5  1  0
  7  8  1  0
  7  6  1  0
  8 10  1  0
  8  9  1  6
 10 11  2  0
 12 13  1  0
 13 23  2  0
 13 14  1  0
 14 15  2  0
 15 16  1  0
 16 17  1  0
 18 17  1  1
 19 18  1  0
 19 10  1  0
 20 21  2  0
 20 18  1  0
 22 16  2  0
 23 22  1  0
 24 20  1  0
 25 28  1  0
 25 24  1  0
 25 26  1  6
 27 26  1  0
 28 30  1  0
 29 28  2  0
M  END
$$$$
