YVP.pdb
     RDKit          3D

 27 28  0  0  1  0  0  0  0  0999 V2000
    7.2865  -14.6611   15.5304 O   0  0  0  0  0  0  0  0  0  0  0  0
    7.6749  -14.4236   16.8427 C   0  0  0  0  0  0  0  0  0  0  0  0
    8.6889  -15.1717   17.4045 C   0  0  0  0  0  0  0  0  0  0  0  0
    9.0861  -14.9449   18.7124 C   0  0  0  0  0  0  0  0  0  0  0  0
    8.4988  -13.9785   19.5029 C   0  0  0  0  0  0  0  0  0  0  0  0
    8.9147  -13.7350   20.8837 C   0  0  0  0  0  0  0  0  0  0  0  0
    9.3726  -14.9801   21.6091 C   0  0  2  0  0  0  0  0  0  0  0  0
    8.7788  -16.1681   21.0530 N   0  0  0  0  0  0  0  0  0  0  0  0
    8.9683  -14.7943   23.0436 C   0  0  0  0  0  0  0  0  0  0  0  0
    9.0587  -13.6745   23.6143 O   0  0  0  0  0  0  0  0  0  0  0  0
    7.4794  -13.2279   18.9349 C   0  0  0  0  0  0  0  0  0  0  0  0
    7.0866  -13.4569   17.6315 C   0  0  0  0  0  0  0  0  0  0  0  0
    7.9581  -18.1700   25.6290 C   0  0  0  0  0  0  0  0  0  0  0  0
    7.2093  -16.8611   25.5400 C   0  0  2  0  0  0  0  0  0  0  0  0
    6.3554  -16.9653   24.2649 C   0  0  0  0  0  0  0  0  0  0  0  0
    8.1966  -15.7048   25.2725 C   0  0  2  0  0  0  0  0  0  0  0  0
    8.4674  -15.8693   23.8191 N   0  0  0  0  0  0  0  0  0  0  0  0
    9.3996  -15.9057   26.0540 C   0  0  0  0  0  0  0  0  0  0  0  0
   10.1147  -16.9249   25.7558 O   0  0  0  0  0  0  0  0  0  0  0  0
    9.8113  -15.0444   27.1091 N   0  0  0  0  0  0  0  0  0  0  0  0
    9.1351  -13.7946   27.4024 C   0  0  0  0  0  0  0  0  0  0  0  0
    9.3858  -13.5806   28.8659 C   0  0  0  0  0  0  0  0  0  0  0  0
   10.8886  -13.9033   28.9013 C   0  0  0  0  0  0  0  0  0  0  0  0
   10.9081  -15.1896   28.0322 C   0  0  1  0  0  0  0  0  0  0  0  0
   10.7365  -16.3438   28.9409 C   0  0  0  0  0  0  0  0  0  0  0  0
    9.6562  -16.9532   29.0076 O   0  0  0  0  0  0  0  0  0  0  0  0
   11.7907  -16.7499   29.7257 O   0  0  0  0  0  0  0  0  0  0  0  0
  1  2  1  0
  2  3  2  0
  3  4  1  0
  5  4  2  0
  5  6  1  0
  6  7  1  0
  7  8  1  6
  7  9  1  0
  9 10  2  0
 11  5  1  0
 12  2  1  0
 12 11  2  0
 14 16  1  0
 14 13  1  6
 15 14  1  0
 16 18  1  0
 17  9  1  0
 16 17  1  6
 18 20  1  0
 19 18  2  0
 20 24  1  0
 20 21  1  0
 21 22  1  0
 23 22  1  0
 24 23  1  0
 24 25  1  1
 26 25  2  0
 27 25  1  0
M  END
$$$$
