YVP.pdb
     RDKit          3D

 27 28  0  0  1  0  0  0  0  0999 V2000
   11.8104  -20.8749   30.2728 O   0  0  0  0  0  0  0  0  0  0  0  0
   11.0529  -20.2217   29.3091 C   0  0  0  0  0  0  0  0  0  0  0  0
   10.5048  -20.9379   28.2650 C   0  0  0  0  0  0  0  0  0  0  0  0
    9.7471  -20.2985   27.2971 C   0  0  0  0  0  0  0  0  0  0  0  0
    9.5074  -18.9401   27.3285 C   0  0  0  0  0  0  0  0  0  0  0  0
    8.7080  -18.2606   26.3096 C   0  0  0  0  0  0  0  0  0  0  0  0
    7.2928  -17.9593   26.7485 C   0  0  2  0  0  0  0  0  0  0  0  0
    6.4586  -19.1317   26.6951 N   0  0  0  0  0  0  0  0  0  0  0  0
    6.7894  -16.8947   25.8163 C   0  0  0  0  0  0  0  0  0  0  0  0
    6.2185  -17.1848   24.7311 O   0  0  0  0  0  0  0  0  0  0  0  0
   10.0600  -18.2227   28.3799 C   0  0  0  0  0  0  0  0  0  0  0  0
   10.8143  -18.8635   29.3421 C   0  0  0  0  0  0  0  0  0  0  0  0
    5.8545  -12.8844   26.7297 C   0  0  0  0  0  0  0  0  0  0  0  0
    7.0442  -13.1838   25.8482 C   0  0  2  0  0  0  0  0  0  0  0  0
    7.0630  -12.0641   24.7938 C   0  0  0  0  0  0  0  0  0  0  0  0
    6.7988  -14.4842   25.0533 C   0  0  2  0  0  0  0  0  0  0  0  0
    6.9339  -15.5171   26.1152 N   0  0  0  0  0  0  0  0  0  0  0  0
    7.8267  -14.6352   24.0440 C   0  0  0  0  0  0  0  0  0  0  0  0
    9.0193  -14.8357   24.4644 O   0  0  0  0  0  0  0  0  0  0  0  0
    7.5774  -14.5732   22.6445 N   0  0  0  0  0  0  0  0  0  0  0  0
    6.2986  -14.1574   22.0994 C   0  0  0  0  0  0  0  0  0  0  0  0
    6.6441  -13.5903   20.7543 C   0  0  0  0  0  0  0  0  0  0  0  0
    7.5953  -14.6950   20.2656 C   0  0  0  0  0  0  0  0  0  0  0  0
    8.4499  -14.8997   21.5454 C   0  0  1  0  0  0  0  0  0  0  0  0
    9.6132  -13.9908   21.4542 C   0  0  0  0  0  0  0  0  0  0  0  0
    9.6253  -12.9019   22.0519 O   0  0  0  0  0  0  0  0  0  0  0  0
   10.7002  -14.3568   20.6950 O   0  0  0  0  0  0  0  0  0  0  0  0
  1  2  1  0
  2  3  2  0
  3  4  1  0
  5  4  2  0
  5  6  1  0
  6  7  1  0
  7  8  1  6
  7  9  1  0
  9 10  2  0
 11  5  1  0
 12  2  1  0
 12 11  2  0
 14 16  1  0
 14 13  1  1
 15 14  1  0
 16 18  1  0
 17  9  1  0
 16 17  1  1
 18 20  1  0
 19 18  2  0
 20 24  1  0
 20 21  1  0
 21 22  1  0
 23 22  1  0
 24 23  1  0
 24 25  1  6
 26 25  2  0
 27 25  1  0
M  END
$$$$
