YVP.pdb
     RDKit          3D

 27 28  0  0  1  0  0  0  0  0999 V2000
   10.5537  -14.2609   30.6505 O   0  0  0  0  0  0  0  0  0  0  0  0
   10.2251  -14.6099   29.3469 C   0  0  0  0  0  0  0  0  0  0  0  0
   10.3306  -15.9242   28.9407 C   0  0  0  0  0  0  0  0  0  0  0  0
   10.0058  -16.2857   27.6432 C   0  0  0  0  0  0  0  0  0  0  0  0
    9.5693  -15.3674   26.7106 C   0  0  0  0  0  0  0  0  0  0  0  0
    9.2249  -15.7440   25.3400 C   0  0  0  0  0  0  0  0  0  0  0  0
    7.7535  -15.6024   25.0222 C   0  0  2  0  0  0  0  0  0  0  0  0
    6.9465  -16.4665   25.8440 N   0  0  0  0  0  0  0  0  0  0  0  0
    7.6099  -15.9502   23.5682 C   0  0  0  0  0  0  0  0  0  0  0  0
    7.3935  -17.1329   23.1916 O   0  0  0  0  0  0  0  0  0  0  0  0
    9.4644  -14.0465   27.1222 C   0  0  0  0  0  0  0  0  0  0  0  0
    9.7888  -13.6903   28.4158 C   0  0  0  0  0  0  0  0  0  0  0  0
    9.0726  -13.3150   20.8739 C   0  0  0  0  0  0  0  0  0  0  0  0
    7.7784  -13.9568   20.4321 C   0  0  2  0  0  0  0  0  0  0  0  0
    6.6639  -13.0735   21.0182 C   0  0  0  0  0  0  0  0  0  0  0  0
    7.6089  -15.3299   21.1171 C   0  0  2  0  0  0  0  0  0  0  0  0
    7.7113  -14.9643   22.5554 N   0  0  0  0  0  0  0  0  0  0  0  0
    8.6938  -16.2045   20.7220 C   0  0  0  0  0  0  0  0  0  0  0  0
    9.8460  -15.9513   21.2195 O   0  0  0  0  0  0  0  0  0  0  0  0
    8.5407  -17.3029   19.8306 N   0  0  0  0  0  0  0  0  0  0  0  0
    7.2583  -17.6677   19.2579 C   0  0  0  0  0  0  0  0  0  0  0  0
    7.6154  -18.3329   17.9616 C   0  0  0  0  0  0  0  0  0  0  0  0
    8.7490  -19.2424   18.4632 C   0  0  0  0  0  0  0  0  0  0  0  0
    9.5288  -18.2355   19.3510 C   0  0  1  0  0  0  0  0  0  0  0  0
   10.5523  -17.5908   18.4998 C   0  0  0  0  0  0  0  0  0  0  0  0
   10.3676  -16.4607   18.0184 O   0  0  0  0  0  0  0  0  0  0  0  0
   11.7286  -18.2533   18.2364 O   0  0  0  0  0  0  0  0  0  0  0  0
  1  2  1  0
  2  3  2  0
  3  4  1  0
  5  4  2  0
  5  6  1  0
  6  7  1  0
  7  8  1  1
  7  9  1  0
  9 10  2  0
 11  5  1  0
 12  2  1  0
 12 11  2  0
 14 16  1  0
 14 13  1  1
 15 14  1  0
 16 18  1  0
 17  9  1  0
 16 17  1  1
 18 20  1  0
 19 18  2  0
 20 24  1  0
 20 21  1  0
 21 22  1  0
 23 22  1  0
 24 23  1  0
 24 25  1  6
 26 25  2  0
 27 25  1  0
M  END
$$$$
