YVP.pdb
     RDKit          3D

 27 28  0  0  1  0  0  0  0  0999 V2000
   11.1225  -21.3462   29.5313 O   0  0  0  0  0  0  0  0  0  0  0  0
   11.1773  -20.2738   28.6503 C   0  0  0  0  0  0  0  0  0  0  0  0
   12.3731  -19.9403   28.0484 C   0  0  0  0  0  0  0  0  0  0  0  0
   12.4415  -18.8729   27.1676 C   0  0  0  0  0  0  0  0  0  0  0  0
   11.3386  -18.1051   26.8545 C   0  0  0  0  0  0  0  0  0  0  0  0
   11.4056  -16.9779   25.9252 C   0  0  0  0  0  0  0  0  0  0  0  0
   11.2796  -17.3791   24.4729 C   0  0  2  0  0  0  0  0  0  0  0  0
   12.5341  -17.8416   23.9383 N   0  0  0  0  0  0  0  0  0  0  0  0
   10.8009  -16.1549   23.7464 C   0  0  0  0  0  0  0  0  0  0  0  0
   11.5307  -15.1355   23.6205 O   0  0  0  0  0  0  0  0  0  0  0  0
   10.1376  -18.4431   27.4616 C   0  0  0  0  0  0  0  0  0  0  0  0
   10.0737  -19.5073   28.3386 C   0  0  0  0  0  0  0  0  0  0  0  0
    6.8856  -13.8497   21.7741 C   0  0  0  0  0  0  0  0  0  0  0  0
    7.7424  -15.0736   21.9977 C   0  0  2  0  0  0  0  0  0  0  0  0
    6.7833  -16.1513   22.5312 C   0  0  0  0  0  0  0  0  0  0  0  0
    8.7414  -14.8165   23.1461 C   0  0  2  0  0  0  0  0  0  0  0  0
    9.5077  -16.0913   23.1705 N   0  0  0  0  0  0  0  0  0  0  0  0
    8.0151  -14.6199   24.3838 C   0  0  0  0  0  0  0  0  0  0  0  0
    7.4937  -15.6613   24.9155 O   0  0  0  0  0  0  0  0  0  0  0  0
    7.8600  -13.3559   25.0185 N   0  0  0  0  0  0  0  0  0  0  0  0
    8.4216  -12.1355   24.4702 C   0  0  0  0  0  0  0  0  0  0  0  0
    7.5158  -11.0558   24.9843 C   0  0  0  0  0  0  0  0  0  0  0  0
    7.4155  -11.5054   26.4512 C   0  0  0  0  0  0  0  0  0  0  0  0
    7.1893  -13.0282   26.2509 C   0  0  1  0  0  0  0  0  0  0  0  0
    5.7297  -13.2563   26.1813 C   0  0  0  0  0  0  0  0  0  0  0  0
    5.1537  -13.3991   25.0900 O   0  0  0  0  0  0  0  0  0  0  0  0
    4.9970  -13.3114   27.3441 O   0  0  0  0  0  0  0  0  0  0  0  0
  1  2  1  0
  2  3  2  0
  3  4  1  0
  5  4  2  0
  5  6  1  0
  6  7  1  0
  7  8  1  6
  7  9  1  0
  9 10  2  0
 11  5  1  0
 12  2  1  0
 12 11  2  0
 14 16  1  0
 14 13  1  1
 15 14  1  0
 16 18  1  0
 17  9  1  0
 16 17  1  1
 18 20  1  0
 19 18  2  0
 20 24  1  0
 20 21  1  0
 21 22  1  0
 23 22  1  0
 24 23  1  0
 24 25  1  6
 26 25  2  0
 27 25  1  0
M  END
$$$$
