YVP.pdb
     RDKit          3D

 27 28  0  0  1  0  0  0  0  0999 V2000
   10.6656  -19.7333   30.4217 O   0  0  0  0  0  0  0  0  0  0  0  0
    9.9516  -19.5264   29.2484 C   0  0  0  0  0  0  0  0  0  0  0  0
   10.5558  -18.8983   28.1788 C   0  0  0  0  0  0  0  0  0  0  0  0
    9.8548  -18.6859   27.0027 C   0  0  0  0  0  0  0  0  0  0  0  0
    8.5432  -19.0841   26.8453 C   0  0  0  0  0  0  0  0  0  0  0  0
    7.7992  -18.8626   25.6059 C   0  0  0  0  0  0  0  0  0  0  0  0
    6.3740  -18.4080   25.8254 C   0  0  2  0  0  0  0  0  0  0  0  0
    5.4261  -19.3786   25.3430 N   0  0  0  0  0  0  0  0  0  0  0  0
    6.2377  -17.1065   25.0882 C   0  0  0  0  0  0  0  0  0  0  0  0
    5.7988  -17.0602   23.9080 O   0  0  0  0  0  0  0  0  0  0  0  0
    7.9385  -19.7155   27.9229 C   0  0  0  0  0  0  0  0  0  0  0  0
    8.6403  -19.9252   29.0929 C   0  0  0  0  0  0  0  0  0  0  0  0
    5.9282  -13.2164   26.7030 C   0  0  0  0  0  0  0  0  0  0  0  0
    7.1700  -13.6068   25.9363 C   0  0  2  0  0  0  0  0  0  0  0  0
    7.5788  -12.3476   25.1532 C   0  0  0  0  0  0  0  0  0  0  0  0
    6.8183  -14.6563   24.8602 C   0  0  2  0  0  0  0  0  0  0  0  0
    6.5963  -15.8731   25.6866 N   0  0  0  0  0  0  0  0  0  0  0  0
    7.9457  -14.8298   23.9674 C   0  0  0  0  0  0  0  0  0  0  0  0
    9.0216  -15.2929   24.4842 O   0  0  0  0  0  0  0  0  0  0  0  0
    7.9119  -14.5178   22.5796 N   0  0  0  0  0  0  0  0  0  0  0  0
    6.8357  -13.7510   21.9802 C   0  0  0  0  0  0  0  0  0  0  0  0
    7.4751  -13.0946   20.7924 C   0  0  0  0  0  0  0  0  0  0  0  0
    8.2349  -14.3067   20.2289 C   0  0  0  0  0  0  0  0  0  0  0  0
    8.8419  -14.8765   21.5392 C   0  0  1  0  0  0  0  0  0  0  0  0
   10.1695  -14.2513   21.7239 C   0  0  0  0  0  0  0  0  0  0  0  0
   11.1354  -14.5739   21.0125 O   0  0  0  0  0  0  0  0  0  0  0  0
   10.3382  -13.2964   22.6994 O   0  0  0  0  0  0  0  0  0  0  0  0
  1  2  1  0
  2  3  2  0
  3  4  1  0
  5  4  2  0
  5  6  1  0
  6  7  1  0
  7  8  1  6
  7  9  1  0
  9 10  2  0
 11  5  1  0
 12  2  1  0
 12 11  2  0
 14 16  1  0
 14 13  1  1
 15 14  1  0
 16 18  1  0
 17  9  1  0
 16 17  1  1
 18 20  1  0
 19 18  2  0
 20 24  1  0
 20 21  1  0
 21 22  1  0
 23 22  1  0
 24 23  1  0
 24 25  1  1
 26 25  2  0
 27 25  1  0
M  END
$$$$
