YVP.pdb
     RDKit          3D

 27 28  0  0  1  0  0  0  0  0999 V2000
   11.4093  -14.4573   31.1537 O   0  0  0  0  0  0  0  0  0  0  0  0
   10.8231  -15.2818   30.2019 C   0  0  0  0  0  0  0  0  0  0  0  0
   10.4067  -16.5490   30.5543 C   0  0  0  0  0  0  0  0  0  0  0  0
    9.8204  -17.3815   29.6145 C   0  0  0  0  0  0  0  0  0  0  0  0
    9.6276  -16.9924   28.3049 C   0  0  0  0  0  0  0  0  0  0  0  0
    9.0090  -17.8671   27.3094 C   0  0  0  0  0  0  0  0  0  0  0  0
    7.5011  -17.7652   27.2640 C   0  0  2  0  0  0  0  0  0  0  0  0
    6.8801  -19.0643   27.2651 N   0  0  0  0  0  0  0  0  0  0  0  0
    7.1760  -17.0117   26.0060 C   0  0  0  0  0  0  0  0  0  0  0  0
    6.9076  -17.6099   24.9300 O   0  0  0  0  0  0  0  0  0  0  0  0
   10.0476  -15.7174   27.9538 C   0  0  0  0  0  0  0  0  0  0  0  0
   10.6313  -14.8911   28.8930 C   0  0  0  0  0  0  0  0  0  0  0  0
    8.3431  -13.2602   26.0274 C   0  0  0  0  0  0  0  0  0  0  0  0
    7.1234  -13.3944   25.1463 C   0  0  2  0  0  0  0  0  0  0  0  0
    5.9225  -13.1171   26.0665 C   0  0  0  0  0  0  0  0  0  0  0  0
    6.9569  -14.8612   24.6946 C   0  0  2  0  0  0  0  0  0  0  0  0
    7.1568  -15.5952   25.9729 N   0  0  0  0  0  0  0  0  0  0  0  0
    7.9905  -15.1919   23.7351 C   0  0  0  0  0  0  0  0  0  0  0  0
    9.1018  -15.6137   24.2107 O   0  0  0  0  0  0  0  0  0  0  0  0
    7.8304  -15.0731   22.3263 N   0  0  0  0  0  0  0  0  0  0  0  0
    6.6275  -14.5308   21.7227 C   0  0  0  0  0  0  0  0  0  0  0  0
    7.1002  -13.9638   20.4167 C   0  0  0  0  0  0  0  0  0  0  0  0
    7.9773  -15.1370   19.9496 C   0  0  0  0  0  0  0  0  0  0  0  0
    8.7338  -15.4492   21.2688 C   0  0  1  0  0  0  0  0  0  0  0  0
    9.9760  -14.6464   21.2707 C   0  0  0  0  0  0  0  0  0  0  0  0
   10.0635  -13.6008   21.9356 O   0  0  0  0  0  0  0  0  0  0  0  0
   11.0529  -15.0640   20.5238 O   0  0  0  0  0  0  0  0  0  0  0  0
  1  2  1  0
  2  3  2  0
  3  4  1  0
  5  4  2  0
  5  6  1  0
  6  7  1  0
  7  8  1  6
  7  9  1  0
  9 10  2  0
 11  5  1  0
 12  2  1  0
 12 11  2  0
 14 16  1  0
 14 13  1  1
 15 14  1  0
 16 18  1  0
 17  9  1  0
 16 17  1  1
 18 20  1  0
 19 18  2  0
 20 24  1  0
 20 21  1  0
 21 22  1  0
 23 22  1  0
 24 23  1  0
 24 25  1  6
 26 25  2  0
 27 25  1  0
M  END
$$$$
