YVP.pdb
     RDKit          3D

 27 28  0  0  1  0  0  0  0  0999 V2000
   10.7714  -18.4423   27.2362 O   0  0  0  0  0  0  0  0  0  0  0  0
   11.1666  -18.1351   25.9405 C   0  0  0  0  0  0  0  0  0  0  0  0
   10.6674  -18.8627   24.8798 C   0  0  0  0  0  0  0  0  0  0  0  0
   11.0534  -18.5665   23.5825 C   0  0  0  0  0  0  0  0  0  0  0  0
   11.9390  -17.5491   23.2921 C   0  0  0  0  0  0  0  0  0  0  0  0
   12.3491  -17.2324   21.9245 C   0  0  0  0  0  0  0  0  0  0  0  0
   11.1939  -16.9193   21.0006 C   0  0  2  0  0  0  0  0  0  0  0  0
   11.6483  -16.5841   19.6760 N   0  0  0  0  0  0  0  0  0  0  0  0
   10.4631  -15.7675   21.6291 C   0  0  0  0  0  0  0  0  0  0  0  0
   11.0310  -14.6626   21.8399 O   0  0  0  0  0  0  0  0  0  0  0  0
   12.4391  -16.8194   24.3611 C   0  0  0  0  0  0  0  0  0  0  0  0
   12.0521  -17.1175   25.6521 C   0  0  0  0  0  0  0  0  0  0  0  0
    6.2885  -16.0238   22.2831 C   0  0  0  0  0  0  0  0  0  0  0  0
    7.0339  -14.7584   21.9292 C   0  0  2  0  0  0  0  0  0  0  0  0
    7.3729  -14.8888   20.4345 C   0  0  0  0  0  0  0  0  0  0  0  0
    8.3975  -14.7287   22.6524 C   0  0  2  0  0  0  0  0  0  0  0  0
    9.1031  -15.8717   22.0131 N   0  0  0  0  0  0  0  0  0  0  0  0
    8.1992  -14.9631   24.0680 C   0  0  0  0  0  0  0  0  0  0  0  0
    8.3231  -16.1713   24.4730 O   0  0  0  0  0  0  0  0  0  0  0  0
    7.8823  -13.9388   25.0033 N   0  0  0  0  0  0  0  0  0  0  0  0
    7.6097  -12.5723   24.5985 C   0  0  0  0  0  0  0  0  0  0  0  0
    6.7077  -12.0473   25.6761 C   0  0  0  0  0  0  0  0  0  0  0  0
    7.4769  -12.5614   26.9041 C   0  0  0  0  0  0  0  0  0  0  0  0
    7.7886  -14.0095   26.4394 C   0  0  1  0  0  0  0  0  0  0  0  0
    6.6768  -14.8723   26.8942 C   0  0  0  0  0  0  0  0  0  0  0  0
    5.7187  -15.1317   26.1473 O   0  0  0  0  0  0  0  0  0  0  0  0
    6.7035  -15.3968   28.1655 O   0  0  0  0  0  0  0  0  0  0  0  0
  1  2  1  0
  2  3  2  0
  3  4  1  0
  5  4  2  0
  5  6  1  0
  6  7  1  0
  7  8  1  6
  7  9  1  0
  9 10  2  0
 11  5  1  0
 12  2  1  0
 12 11  2  0
 14 16  1  0
 14 13  1  1
 15 14  1  0
 16 18  1  0
 17  9  1  0
 16 17  1  6
 18 20  1  0
 19 18  2  0
 20 24  1  0
 20 21  1  0
 21 22  1  0
 23 22  1  0
 24 23  1  0
 24 25  1  6
 26 25  2  0
 27 25  1  0
M  END
$$$$
