YVP.pdb
     RDKit          3D

 27 28  0  0  1  0  0  0  0  0999 V2000
   11.4984  -14.7526   31.0657 O   0  0  0  0  0  0  0  0  0  0  0  0
   10.8485  -15.5188   30.1066 C   0  0  0  0  0  0  0  0  0  0  0  0
   10.4974  -14.9531   28.8982 C   0  0  0  0  0  0  0  0  0  0  0  0
    9.8488  -15.7064   27.9330 C   0  0  0  0  0  0  0  0  0  0  0  0
    9.5280  -17.0341   28.1282 C   0  0  0  0  0  0  0  0  0  0  0  0
    8.8439  -17.8335   27.1124 C   0  0  0  0  0  0  0  0  0  0  0  0
    7.3400  -17.6787   27.1283 C   0  0  2  0  0  0  0  0  0  0  0  0
    6.6734  -18.9458   26.9742 N   0  0  0  0  0  0  0  0  0  0  0  0
    7.0084  -16.7519   25.9938 C   0  0  0  0  0  0  0  0  0  0  0  0
    6.6245  -17.1891   24.8761 O   0  0  0  0  0  0  0  0  0  0  0  0
    9.8825  -17.6000   29.3445 C   0  0  0  0  0  0  0  0  0  0  0  0
   10.5285  -16.8461   30.3035 C   0  0  0  0  0  0  0  0  0  0  0  0
    5.9766  -12.6646   26.3915 C   0  0  0  0  0  0  0  0  0  0  0  0
    7.1918  -13.0593   25.5857 C   0  0  2  0  0  0  0  0  0  0  0  0
    7.2339  -12.0770   24.4028 C   0  0  0  0  0  0  0  0  0  0  0  0
    6.9756  -14.4493   24.9500 C   0  0  2  0  0  0  0  0  0  0  0  0
    7.1124  -15.3453   26.1296 N   0  0  0  0  0  0  0  0  0  0  0  0
    8.0183  -14.7036   23.9772 C   0  0  0  0  0  0  0  0  0  0  0  0
    9.2121  -14.8062   24.4284 O   0  0  0  0  0  0  0  0  0  0  0  0
    7.7819  -14.8415   22.5809 N   0  0  0  0  0  0  0  0  0  0  0  0
    6.4894  -14.5700   21.9798 C   0  0  0  0  0  0  0  0  0  0  0  0
    6.8203  -14.1693   20.5725 C   0  0  0  0  0  0  0  0  0  0  0  0
    7.8328  -15.2775   20.2396 C   0  0  0  0  0  0  0  0  0  0  0  0
    8.6824  -15.2647   21.5388 C   0  0  1  0  0  0  0  0  0  0  0  0
    9.7980  -14.3159   21.3322 C   0  0  0  0  0  0  0  0  0  0  0  0
    9.6887  -13.1187   21.6449 O   0  0  0  0  0  0  0  0  0  0  0  0
   10.9768  -14.7661   20.7846 O   0  0  0  0  0  0  0  0  0  0  0  0
  1  2  1  0
  2  3  2  0
  3  4  1  0
  5  4  2  0
  5  6  1  0
  6  7  1  0
  7  8  1  6
  7  9  1  0
  9 10  2  0
 11  5  1  0
 12  2  1  0
 12 11  2  0
 14 16  1  0
 14 13  1  1
 15 14  1  0
 16 18  1  0
 17  9  1  0
 16 17  1  1
 18 20  1  0
 19 18  2  0
 20 24  1  0
 20 21  1  0
 21 22  1  0
 23 22  1  0
 24 23  1  0
 24 25  1  6
 26 25  2  0
 27 25  1  0
M  END
$$$$
