YVP.pdb
     RDKit          3D

 27 28  0  0  1  0  0  0  0  0999 V2000
   11.2096  -21.7489   29.4120 O   0  0  0  0  0  0  0  0  0  0  0  0
   11.1214  -20.6198   28.6079 C   0  0  0  0  0  0  0  0  0  0  0  0
   12.1514  -19.7020   28.5977 C   0  0  0  0  0  0  0  0  0  0  0  0
   12.0760  -18.5716   27.8001 C   0  0  0  0  0  0  0  0  0  0  0  0
   10.9882  -18.3123   26.9919 C   0  0  0  0  0  0  0  0  0  0  0  0
   10.9040  -17.1209   26.1480 C   0  0  0  0  0  0  0  0  0  0  0  0
   10.8584  -17.4264   24.6678 C   0  0  2  0  0  0  0  0  0  0  0  0
   12.1291  -17.8995   24.1832 N   0  0  0  0  0  0  0  0  0  0  0  0
   10.4663  -16.1430   23.9933 C   0  0  0  0  0  0  0  0  0  0  0  0
   11.2886  -15.2005   23.8408 O   0  0  0  0  0  0  0  0  0  0  0  0
    9.9540  -19.2373   27.0045 C   0  0  0  0  0  0  0  0  0  0  0  0
   10.0330  -20.3623   27.8005 C   0  0  0  0  0  0  0  0  0  0  0  0
    6.3488  -15.4800   22.7139 C   0  0  0  0  0  0  0  0  0  0  0  0
    7.5678  -14.7006   22.2796 C   0  0  2  0  0  0  0  0  0  0  0  0
    8.2781  -15.5947   21.2491 C   0  0  0  0  0  0  0  0  0  0  0  0
    8.5594  -14.5722   23.4558 C   0  0  2  0  0  0  0  0  0  0  0  0
    9.1549  -15.9347   23.4986 N   0  0  0  0  0  0  0  0  0  0  0  0
    7.8302  -14.2825   24.6735 C   0  0  0  0  0  0  0  0  0  0  0  0
    7.2350  -15.2673   25.2347 O   0  0  0  0  0  0  0  0  0  0  0  0
    7.7485  -12.9879   25.2583 N   0  0  0  0  0  0  0  0  0  0  0  0
    8.4947  -11.8539   24.7459 C   0  0  0  0  0  0  0  0  0  0  0  0
    7.6635  -10.6668   25.1341 C   0  0  0  0  0  0  0  0  0  0  0  0
    7.3613  -11.0522   26.5915 C   0  0  0  0  0  0  0  0  0  0  0  0
    6.9921  -12.5483   26.4031 C   0  0  1  0  0  0  0  0  0  0  0  0
    5.5317  -12.6223   26.1815 C   0  0  0  0  0  0  0  0  0  0  0  0
    5.0639  -12.8238   25.0486 O   0  0  0  0  0  0  0  0  0  0  0  0
    4.6765  -12.4654   27.2473 O   0  0  0  0  0  0  0  0  0  0  0  0
  1  2  1  0
  2  3  2  0
  3  4  1  0
  5  4  2  0
  5  6  1  0
  6  7  1  0
  7  8  1  6
  7  9  1  0
  9 10  2  0
 11  5  1  0
 12  2  1  0
 12 11  2  0
 14 16  1  0
 14 13  1  1
 15 14  1  0
 16 18  1  0
 17  9  1  0
 16 17  1  1
 18 20  1  0
 19 18  2  0
 20 24  1  0
 20 21  1  0
 21 22  1  0
 23 22  1  0
 24 23  1  0
 24 25  1  6
 26 25  2  0
 27 25  1  0
M  END
$$$$
