YVP.pdb
     RDKit          3D

 27 28  0  0  1  0  0  0  0  0999 V2000
   11.8983  -22.3487   26.4510 O   0  0  0  0  0  0  0  0  0  0  0  0
   12.1149  -21.1136   25.8536 C   0  0  0  0  0  0  0  0  0  0  0  0
   11.0571  -20.2489   25.6618 C   0  0  0  0  0  0  0  0  0  0  0  0
   11.2596  -19.0139   25.0672 C   0  0  0  0  0  0  0  0  0  0  0  0
   12.5048  -18.5953   24.6454 C   0  0  0  0  0  0  0  0  0  0  0  0
   12.7237  -17.2926   24.0177 C   0  0  0  0  0  0  0  0  0  0  0  0
   12.0096  -17.1275   22.6953 C   0  0  2  0  0  0  0  0  0  0  0  0
   12.9346  -16.8903   21.6175 N   0  0  0  0  0  0  0  0  0  0  0  0
   11.0764  -15.9641   22.8726 C   0  0  0  0  0  0  0  0  0  0  0  0
   11.5074  -14.8011   23.0949 O   0  0  0  0  0  0  0  0  0  0  0  0
   13.5664  -19.4673   24.8398 C   0  0  0  0  0  0  0  0  0  0  0  0
   13.3606  -20.6969   25.4326 C   0  0  0  0  0  0  0  0  0  0  0  0
    8.0136  -14.9236   20.7300 C   0  0  0  0  0  0  0  0  0  0  0  0
    7.5871  -15.2513   22.1417 C   0  0  2  0  0  0  0  0  0  0  0  0
    6.5223  -14.2010   22.5006 C   0  0  0  0  0  0  0  0  0  0  0  0
    8.7542  -14.9949   23.1191 C   0  0  2  0  0  0  0  0  0  0  0  0
    9.6702  -16.1221   22.7978 N   0  0  0  0  0  0  0  0  0  0  0  0
    8.2722  -15.0857   24.4821 C   0  0  0  0  0  0  0  0  0  0  0  0
    8.1277  -16.2635   24.9629 O   0  0  0  0  0  0  0  0  0  0  0  0
    7.9611  -13.9557   25.2888 N   0  0  0  0  0  0  0  0  0  0  0  0
    7.9902  -12.5997   24.7734 C   0  0  0  0  0  0  0  0  0  0  0  0
    7.0052  -11.8632   25.6324 C   0  0  0  0  0  0  0  0  0  0  0  0
    7.4468  -12.3891   27.0080 C   0  0  0  0  0  0  0  0  0  0  0  0
    7.5995  -13.8993   26.6824 C   0  0  1  0  0  0  0  0  0  0  0  0
    6.2994  -14.5482   26.9586 C   0  0  0  0  0  0  0  0  0  0  0  0
    5.4511  -14.6926   26.0628 O   0  0  0  0  0  0  0  0  0  0  0  0
    6.0245  -14.9995   28.2284 O   0  0  0  0  0  0  0  0  0  0  0  0
  1  2  1  0
  2  3  2  0
  3  4  1  0
  5  4  2  0
  5  6  1  0
  6  7  1  0
  7  8  1  6
  7  9  1  0
  9 10  2  0
 11  5  1  0
 12  2  1  0
 12 11  2  0
 14 16  1  0
 14 13  1  6
 15 14  1  0
 16 18  1  0
 17  9  1  0
 16 17  1  1
 18 20  1  0
 19 18  2  0
 20 24  1  0
 20 21  1  0
 21 22  1  0
 23 22  1  0
 24 23  1  0
 24 25  1  6
 26 25  2  0
 27 25  1  0
M  END
$$$$
