YVP.pdb
     RDKit          3D

 27 28  0  0  1  0  0  0  0  0999 V2000
   11.5550  -14.7250   30.9518 O   0  0  0  0  0  0  0  0  0  0  0  0
   10.9392  -15.5686   30.0361 C   0  0  0  0  0  0  0  0  0  0  0  0
   10.6384  -16.8669   30.3932 C   0  0  0  0  0  0  0  0  0  0  0  0
   10.0241  -17.7186   29.4893 C   0  0  0  0  0  0  0  0  0  0  0  0
    9.6891  -17.3188   28.2119 C   0  0  0  0  0  0  0  0  0  0  0  0
    9.0403  -18.2139   27.2544 C   0  0  0  0  0  0  0  0  0  0  0  0
    7.5357  -18.0710   27.2120 C   0  0  2  0  0  0  0  0  0  0  0  0
    6.8873  -19.3381   26.9946 N   0  0  0  0  0  0  0  0  0  0  0  0
    7.2433  -17.1148   26.0914 C   0  0  0  0  0  0  0  0  0  0  0  0
    7.0977  -17.5140   24.9052 O   0  0  0  0  0  0  0  0  0  0  0  0
    9.9930  -16.0126   27.8561 C   0  0  0  0  0  0  0  0  0  0  0  0
   10.6050  -15.1671   28.7594 C   0  0  0  0  0  0  0  0  0  0  0  0
    6.6834  -12.2972   24.9394 C   0  0  0  0  0  0  0  0  0  0  0  0
    7.0364  -13.4095   25.8986 C   0  0  2  0  0  0  0  0  0  0  0  0
    8.5328  -13.2260   26.2037 C   0  0  0  0  0  0  0  0  0  0  0  0
    6.9332  -14.7747   25.1854 C   0  0  2  0  0  0  0  0  0  0  0  0
    7.1181  -15.7215   26.3177 N   0  0  0  0  0  0  0  0  0  0  0  0
    8.0065  -14.8984   24.2205 C   0  0  0  0  0  0  0  0  0  0  0  0
    9.1837  -15.0777   24.6907 O   0  0  0  0  0  0  0  0  0  0  0  0
    7.8163  -14.8322   22.8119 N   0  0  0  0  0  0  0  0  0  0  0  0
    6.5804  -14.3620   22.2146 C   0  0  0  0  0  0  0  0  0  0  0  0
    7.0047  -13.8177   20.8826 C   0  0  0  0  0  0  0  0  0  0  0  0
    7.9237  -14.9666   20.4360 C   0  0  0  0  0  0  0  0  0  0  0  0
    8.7164  -15.2031   21.7497 C   0  0  1  0  0  0  0  0  0  0  0  0
    9.9222  -14.3480   21.7024 C   0  0  0  0  0  0  0  0  0  0  0  0
    9.9819  -13.2865   22.3447 O   0  0  0  0  0  0  0  0  0  0  0  0
   10.9961  -14.7342   20.9346 O   0  0  0  0  0  0  0  0  0  0  0  0
  1  2  1  0
  2  3  2  0
  3  4  1  0
  5  4  2  0
  5  6  1  0
  6  7  1  0
  7  8  1  6
  7  9  1  0
  9 10  2  0
 11  5  1  0
 12  2  1  0
 12 11  2  0
 14 16  1  0
 14 13  1  6
 15 14  1  0
 16 18  1  0
 17  9  1  0
 16 17  1  1
 18 20  1  0
 19 18  2  0
 20 24  1  0
 20 21  1  0
 21 22  1  0
 23 22  1  0
 24 23  1  0
 24 25  1  6
 26 25  2  0
 27 25  1  0
M  END
$$$$
