YVP.pdb
     RDKit          3D

 27 28  0  0  1  0  0  0  0  0999 V2000
   10.7736  -20.8122   30.6535 O   0  0  0  0  0  0  0  0  0  0  0  0
   10.1412  -20.2952   29.5300 C   0  0  0  0  0  0  0  0  0  0  0  0
   10.5858  -20.6428   28.2710 C   0  0  0  0  0  0  0  0  0  0  0  0
    9.9638  -20.1342   27.1422 C   0  0  0  0  0  0  0  0  0  0  0  0
    8.8897  -19.2716   27.2192 C   0  0  0  0  0  0  0  0  0  0  0  0
    8.2296  -18.7325   26.0308 C   0  0  0  0  0  0  0  0  0  0  0  0
    6.7654  -18.4177   26.2389 C   0  0  2  0  0  0  0  0  0  0  0  0
    5.9229  -19.5105   25.8275 N   0  0  0  0  0  0  0  0  0  0  0  0
    6.4884  -17.1857   25.4257 C   0  0  0  0  0  0  0  0  0  0  0  0
    6.1083  -17.2590   24.2266 O   0  0  0  0  0  0  0  0  0  0  0  0
    8.4451  -18.9241   28.4868 C   0  0  0  0  0  0  0  0  0  0  0  0
    9.0674  -19.4329   29.6090 C   0  0  0  0  0  0  0  0  0  0  0  0
    6.8810  -12.2149   25.4212 C   0  0  0  0  0  0  0  0  0  0  0  0
    6.9130  -13.5556   26.1166 C   0  0  2  0  0  0  0  0  0  0  0  0
    8.3609  -13.7267   26.6069 C   0  0  0  0  0  0  0  0  0  0  0  0
    6.6968  -14.6883   25.0902 C   0  0  2  0  0  0  0  0  0  0  0  0
    6.6422  -15.8865   25.9702 N   0  0  0  0  0  0  0  0  0  0  0  0
    7.8321  -14.7507   24.1927 C   0  0  0  0  0  0  0  0  0  0  0  0
    8.9182  -15.2292   24.6729 O   0  0  0  0  0  0  0  0  0  0  0  0
    7.7953  -14.3166   22.8382 N   0  0  0  0  0  0  0  0  0  0  0  0
    6.6857  -13.5559   22.2946 C   0  0  0  0  0  0  0  0  0  0  0  0
    7.3009  -12.7623   21.1800 C   0  0  0  0  0  0  0  0  0  0  0  0
    8.1296  -13.8771   20.5210 C   0  0  0  0  0  0  0  0  0  0  0  0
    8.7532  -14.5308   21.7835 C   0  0  1  0  0  0  0  0  0  0  0  0
   10.0438  -13.8566   22.0428 C   0  0  0  0  0  0  0  0  0  0  0  0
   10.1490  -12.9900   22.9265 O   0  0  0  0  0  0  0  0  0  0  0  0
   11.1465  -14.1944   21.2933 O   0  0  0  0  0  0  0  0  0  0  0  0
  1  2  1  0
  2  3  2  0
  3  4  1  0
  5  4  2  0
  5  6  1  0
  6  7  1  0
  7  8  1  6
  7  9  1  0
  9 10  2  0
 11  5  1  0
 12  2  1  0
 12 11  2  0
 14 16  1  0
 14 13  1  6
 15 14  1  0
 16 18  1  0
 17  9  1  0
 16 17  1  1
 18 20  1  0
 19 18  2  0
 20 24  1  0
 20 21  1  0
 21 22  1  0
 23 22  1  0
 24 23  1  0
 24 25  1  1
 26 25  2  0
 27 25  1  0
M  END
$$$$
