ISW.pdb
     RDKit          3D

 29 30  0  0  1  0  0  0  0  0999 V2000
    7.9896  -11.4652   19.0884 C   0  0  0  0  0  0  0  0  0  0  0  0
    8.1837  -12.9438   18.8916 C   0  0  0  0  0  0  0  0  0  0  0  0
    8.0751  -13.7306   20.1652 C   0  0  2  0  0  0  0  0  0  0  0  0
    9.1241  -13.2493   21.1124 C   0  0  0  0  0  0  0  0  0  0  0  0
    8.1858  -15.2175   19.9576 C   0  0  2  0  0  0  0  0  0  0  0  0
    7.1610  -15.5956   19.0025 N   0  0  0  0  0  0  0  0  0  0  0  0
    8.0500  -16.0045   21.1847 C   0  0  0  0  0  0  0  0  0  0  0  0
    6.9783  -16.1252   21.8335 O   0  0  0  0  0  0  0  0  0  0  0  0
   11.0443  -18.4841   22.0427 O   0  0  0  0  0  0  0  0  0  0  0  0
    9.8276  -18.7885   22.6410 C   0  0  0  0  0  0  0  0  0  0  0  0
    9.0573  -17.5058   22.9060 C   0  0  2  0  0  0  0  0  0  0  0  0
    9.1820  -16.6900   21.7053 N   0  0  0  0  0  0  0  0  0  0  0  0
    9.7110  -16.8161   24.0674 C   0  0  0  0  0  0  0  0  0  0  0  0
   10.6660  -16.0434   23.8140 O   0  0  0  0  0  0  0  0  0  0  0  0
    9.2996  -17.0025   25.3944 N   0  0  0  0  0  0  0  0  0  0  0  0
   10.2089  -16.6076   26.4791 C   0  0  1  0  0  0  0  0  0  0  0  0
    9.4737  -15.7127   27.4520 C   0  0  0  0  0  0  0  0  0  0  0  0
    8.1770  -15.3310   26.8515 C   0  0  0  0  0  0  0  0  0  0  0  0
    7.1725  -16.1645   26.3934 C   0  0  0  0  0  0  0  0  0  0  0  0
    6.1543  -15.4310   25.9106 N   0  0  0  0  0  0  0  0  0  0  0  0
    6.4962  -14.1284   26.0545 C   0  0  0  0  0  0  0  0  0  0  0  0
    5.7996  -12.9889   25.7171 C   0  0  0  0  0  0  0  0  0  0  0  0
    6.3572  -11.7690   25.9628 C   0  0  0  0  0  0  0  0  0  0  0  0
    7.6064  -11.6522   26.5430 C   0  0  0  0  0  0  0  0  0  0  0  0
    8.3116  -12.7879   26.8845 C   0  0  0  0  0  0  0  0  0  0  0  0
    7.7434  -14.0193   26.6341 C   0  0  0  0  0  0  0  0  0  0  0  0
   10.6417  -17.8231   27.1855 C   0  0  0  0  0  0  0  0  0  0  0  0
   10.1650  -18.9313   26.8728 O   0  0  0  0  0  0  0  0  0  0  0  0
   11.5741  -17.7449   28.1939 O   0  0  0  0  0  0  0  0  0  0  0  0
  2  1  1  0
  3  5  1  0
  3  2  1  0
  3  4  1  1
  5  7  1  0
  5  6  1  6
  7  8  2  0
  9 10  1  0
 11 10  1  6
 11 13  1  0
 12 11  1  0
 12  7  1  0
 13 15  1  0
 13 14  2  0
 15 16  1  0
 16 27  1  0
 16 17  1  1
 18 17  1  0
 19 18  2  0
 20 19  1  0
 21 20  1  0
 21 26  2  0
 22 21  1  0
 23 22  2  0
 23 24  1  0
 24 25  2  0
 25 26  1  0
 26 18  1  0
 27 28  2  0
 27 29  1  0
M  END
$$$$
