ISW.pdb
     RDKit          3D

 29 30  0  0  1  0  0  0  0  0999 V2000
    7.0628  -11.9867   18.9181 C   0  0  0  0  0  0  0  0  0  0  0  0
    7.6589  -13.3137   18.5357 C   0  0  0  0  0  0  0  0  0  0  0  0
    8.2505  -14.0551   19.6991 C   0  0  2  0  0  0  0  0  0  0  0  0
    9.3074  -13.2018   20.3189 C   0  0  0  0  0  0  0  0  0  0  0  0
    8.8053  -15.4038   19.3255 C   0  0  2  0  0  0  0  0  0  0  0  0
    7.7657  -16.1103   18.6005 N   0  0  0  0  0  0  0  0  0  0  0  0
    9.2584  -16.2012   20.4667 C   0  0  0  0  0  0  0  0  0  0  0  0
    8.4900  -16.7208   21.3173 O   0  0  0  0  0  0  0  0  0  0  0  0
   13.3060  -16.3576   21.3213 O   0  0  0  0  0  0  0  0  0  0  0  0
   12.5739  -17.5162   21.5513 C   0  0  0  0  0  0  0  0  0  0  0  0
   11.1236  -17.1545   21.8245 C   0  0  2  0  0  0  0  0  0  0  0  0
   10.6503  -16.4229   20.6569 N   0  0  0  0  0  0  0  0  0  0  0  0
   11.0981  -16.2664   23.0340 C   0  0  0  0  0  0  0  0  0  0  0  0
   11.3249  -15.0457   22.8559 O   0  0  0  0  0  0  0  0  0  0  0  0
   10.8353  -16.7447   24.3252 N   0  0  0  0  0  0  0  0  0  0  0  0
    9.8083  -16.0724   25.1331 C   0  0  1  0  0  0  0  0  0  0  0  0
    8.5468  -15.9139   24.3138 C   0  0  0  0  0  0  0  0  0  0  0  0
    7.5471  -15.1871   25.1263 C   0  0  0  0  0  0  0  0  0  0  0  0
    6.3356  -15.6540   25.6035 C   0  0  0  0  0  0  0  0  0  0  0  0
    5.7122  -14.6842   26.2954 N   0  0  0  0  0  0  0  0  0  0  0  0
    6.5149  -13.5936   26.2673 C   0  0  0  0  0  0  0  0  0  0  0  0
    6.3330  -12.3472   26.8251 C   0  0  0  0  0  0  0  0  0  0  0  0
    7.2959  -11.3958   26.6601 C   0  0  0  0  0  0  0  0  0  0  0  0
    8.4500  -11.6560   25.9453 C   0  0  0  0  0  0  0  0  0  0  0  0
    8.6411  -12.9014   25.3831 C   0  0  0  0  0  0  0  0  0  0  0  0
    7.6645  -13.8603   25.5527 C   0  0  0  0  0  0  0  0  0  0  0  0
    9.5133  -16.9160   26.3014 C   0  0  0  0  0  0  0  0  0  0  0  0
    9.3249  -16.3947   27.4176 O   0  0  0  0  0  0  0  0  0  0  0  0
    9.4430  -18.2835   26.1699 O   0  0  0  0  0  0  0  0  0  0  0  0
  2  1  1  0
  3  5  1  0
  3  2  1  0
  3  4  1  6
  5  7  1  0
  5  6  1  1
  7  8  2  0
  9 10  1  0
 11 10  1  6
 11 13  1  0
 12 11  1  0
 12  7  1  0
 13 15  1  0
 13 14  2  0
 15 16  1  0
 16 27  1  0
 16 17  1  6
 18 17  1  0
 19 18  2  0
 20 19  1  0
 21 20  1  0
 21 26  2  0
 22 21  1  0
 23 22  2  0
 23 24  1  0
 24 25  2  0
 25 26  1  0
 26 18  1  0
 27 28  2  0
 27 29  1  0
M  END
$$$$
