ISW.pdb
     RDKit          3D

 29 30  0  0  1  0  0  0  0  0999 V2000
    8.0465  -11.7802   18.6370 C   0  0  0  0  0  0  0  0  0  0  0  0
    8.4594  -13.2256   18.5837 C   0  0  0  0  0  0  0  0  0  0  0  0
    7.7867  -14.0730   19.6241 C   0  0  2  0  0  0  0  0  0  0  0  0
    8.1232  -13.5271   20.9725 C   0  0  0  0  0  0  0  0  0  0  0  0
    8.1525  -15.5303   19.5324 C   0  0  2  0  0  0  0  0  0  0  0  0
    7.9002  -15.9518   18.1670 N   0  0  0  0  0  0  0  0  0  0  0  0
    7.4269  -16.3894   20.4700 C   0  0  0  0  0  0  0  0  0  0  0  0
    6.1737  -16.4997   20.5048 O   0  0  0  0  0  0  0  0  0  0  0  0
    9.2131  -19.3686   22.5483 O   0  0  0  0  0  0  0  0  0  0  0  0
    7.8309  -19.2268   22.5708 C   0  0  0  0  0  0  0  0  0  0  0  0
    7.4719  -17.7503   22.5622 C   0  0  2  0  0  0  0  0  0  0  0  0
    8.1537  -17.1631   21.4164 N   0  0  0  0  0  0  0  0  0  0  0  0
    7.9928  -17.1497   23.8349 C   0  0  0  0  0  0  0  0  0  0  0  0
    7.1613  -16.5904   24.5893 O   0  0  0  0  0  0  0  0  0  0  0  0
    9.3456  -17.1920   24.1998 N   0  0  0  0  0  0  0  0  0  0  0  0
    9.8970  -16.0904   25.0008 C   0  0  1  0  0  0  0  0  0  0  0  0
    9.2020  -16.0469   26.3435 C   0  0  0  0  0  0  0  0  0  0  0  0
    7.9547  -15.2647   26.2018 C   0  0  0  0  0  0  0  0  0  0  0  0
    6.6797  -15.7345   25.9429 C   0  0  0  0  0  0  0  0  0  0  0  0
    5.8168  -14.7052   25.8809 N   0  0  0  0  0  0  0  0  0  0  0  0
    6.5281  -13.5733   26.0984 C   0  0  0  0  0  0  0  0  0  0  0  0
    6.1114  -12.2609   26.1374 C   0  0  0  0  0  0  0  0  0  0  0  0
    7.0254  -11.2778   26.3777 C   0  0  0  0  0  0  0  0  0  0  0  0
    8.3606  -11.5708   26.5827 C   0  0  0  0  0  0  0  0  0  0  0  0
    8.7873  -12.8823   26.5456 C   0  0  0  0  0  0  0  0  0  0  0  0
    7.8592  -13.8730   26.3023 C   0  0  0  0  0  0  0  0  0  0  0  0
   11.3295  -16.3464   25.2153 C   0  0  0  0  0  0  0  0  0  0  0  0
   11.8383  -17.4163   24.8287 O   0  0  0  0  0  0  0  0  0  0  0  0
   12.1158  -15.4079   25.8426 O   0  0  0  0  0  0  0  0  0  0  0  0
  2  1  1  0
  3  5  1  0
  3  2  1  0
  3  4  1  1
  5  7  1  0
  5  6  1  6
  7  8  2  0
  9 10  1  0
 11 10  1  1
 11 13  1  0
 12 11  1  0
 12  7  1  0
 13 15  1  0
 13 14  2  0
 15 16  1  0
 16 27  1  0
 16 17  1  1
 18 17  1  0
 19 18  2  0
 20 19  1  0
 21 20  1  0
 21 26  2  0
 22 21  1  0
 23 22  2  0
 23 24  1  0
 24 25  2  0
 25 26  1  0
 26 18  1  0
 27 28  2  0
 27 29  1  0
M  END
$$$$
