ISW.pdb
     RDKit          3D

 29 30  0  0  1  0  0  0  0  0999 V2000
    7.9970  -11.9282   20.1681 C   0  0  0  0  0  0  0  0  0  0  0  0
    7.7837  -13.3771   19.8249 C   0  0  0  0  0  0  0  0  0  0  0  0
    8.9063  -13.9677   19.0225 C   0  0  2  0  0  0  0  0  0  0  0  0
    9.0799  -13.1582   17.7799 C   0  0  0  0  0  0  0  0  0  0  0  0
    8.6984  -15.4206   18.6876 C   0  0  2  0  0  0  0  0  0  0  0  0
    7.6087  -15.4897   17.7319 N   0  0  0  0  0  0  0  0  0  0  0  0
    8.4097  -16.2664   19.8472 C   0  0  0  0  0  0  0  0  0  0  0  0
    7.2663  -16.4072   20.3539 O   0  0  0  0  0  0  0  0  0  0  0  0
   11.2353  -18.8753   21.1914 O   0  0  0  0  0  0  0  0  0  0  0  0
    9.9111  -19.0579   21.5713 C   0  0  0  0  0  0  0  0  0  0  0  0
    9.2327  -17.7056   21.7134 C   0  0  2  0  0  0  0  0  0  0  0  0
    9.4661  -16.9900   20.4660 N   0  0  0  0  0  0  0  0  0  0  0  0
    9.8928  -16.9847   22.8521 C   0  0  0  0  0  0  0  0  0  0  0  0
   10.9604  -16.3746   22.6047 O   0  0  0  0  0  0  0  0  0  0  0  0
    9.3682  -16.9711   24.1519 N   0  0  0  0  0  0  0  0  0  0  0  0
   10.1850  -16.4129   25.2386 C   0  0  1  0  0  0  0  0  0  0  0  0
    9.8418  -14.9519   25.4272 C   0  0  0  0  0  0  0  0  0  0  0  0
    8.3850  -14.8371   25.6554 C   0  0  0  0  0  0  0  0  0  0  0  0
    7.4304  -15.8356   25.5824 C   0  0  0  0  0  0  0  0  0  0  0  0
    6.2149  -15.3269   25.8504 N   0  0  0  0  0  0  0  0  0  0  0  0
    6.3799  -14.0051   26.0960 C   0  0  0  0  0  0  0  0  0  0  0  0
    5.4485  -13.0426   26.4179 C   0  0  0  0  0  0  0  0  0  0  0  0
    5.8597  -11.7587   26.6228 C   0  0  0  0  0  0  0  0  0  0  0  0
    7.1911  -11.4032   26.5141 C   0  0  0  0  0  0  0  0  0  0  0  0
    8.1312  -12.3604   26.1922 C   0  0  0  0  0  0  0  0  0  0  0  0
    7.7105  -13.6575   25.9860 C   0  0  0  0  0  0  0  0  0  0  0  0
    9.8661  -17.1396   26.4771 C   0  0  0  0  0  0  0  0  0  0  0  0
   10.4359  -16.8377   27.5436 O   0  0  0  0  0  0  0  0  0  0  0  0
    8.9382  -18.1551   26.4665 O   0  0  0  0  0  0  0  0  0  0  0  0
  2  1  1  0
  3  5  1  0
  3  2  1  0
  3  4  1  6
  5  7  1  0
  5  6  1  6
  7  8  2  0
  9 10  1  0
 11 10  1  6
 11 13  1  0
 12 11  1  0
 12  7  1  0
 13 15  1  0
 13 14  2  0
 15 16  1  0
 16 27  1  0
 16 17  1  1
 18 17  1  0
 19 18  2  0
 20 19  1  0
 21 20  1  0
 21 26  2  0
 22 21  1  0
 23 22  2  0
 23 24  1  0
 24 25  2  0
 25 26  1  0
 26 18  1  0
 27 28  2  0
 27 29  1  0
M  END
$$$$
