ISW.pdb
     RDKit          3D

 29 30  0  0  1  0  0  0  0  0999 V2000
    7.4498  -11.4700   19.1540 C   0  0  0  0  0  0  0  0  0  0  0  0
    7.8366  -12.8909   18.8477 C   0  0  0  0  0  0  0  0  0  0  0  0
    7.8942  -13.7654   20.0662 C   0  0  2  0  0  0  0  0  0  0  0  0
    8.8926  -13.1916   21.0166 C   0  0  0  0  0  0  0  0  0  0  0  0
    8.2201  -15.2015   19.7534 C   0  0  2  0  0  0  0  0  0  0  0  0
    7.2454  -15.6617   18.7820 N   0  0  0  0  0  0  0  0  0  0  0  0
    8.2246  -16.0823   20.9229 C   0  0  0  0  0  0  0  0  0  0  0  0
    7.1878  -16.4656   21.5246 O   0  0  0  0  0  0  0  0  0  0  0  0
   11.6343  -18.0028   21.7413 O   0  0  0  0  0  0  0  0  0  0  0  0
   10.4705  -18.5545   22.2629 C   0  0  0  0  0  0  0  0  0  0  0  0
    9.4856  -17.4450   22.5915 C   0  0  2  0  0  0  0  0  0  0  0  0
    9.4630  -16.5540   21.4390 N   0  0  0  0  0  0  0  0  0  0  0  0
   10.0082  -16.7168   23.7952 C   0  0  0  0  0  0  0  0  0  0  0  0
   10.9781  -15.9407   23.6215 O   0  0  0  0  0  0  0  0  0  0  0  0
    9.4612  -16.8717   25.0765 N   0  0  0  0  0  0  0  0  0  0  0  0
   10.3130  -16.6121   26.2454 C   0  0  1  0  0  0  0  0  0  0  0  0
    9.8197  -15.3756   26.9634 C   0  0  0  0  0  0  0  0  0  0  0  0
    8.4310  -15.1046   26.5324 C   0  0  0  0  0  0  0  0  0  0  0  0
    7.4691  -16.0163   26.1362 C   0  0  0  0  0  0  0  0  0  0  0  0
    6.3339  -15.3722   25.8132 N   0  0  0  0  0  0  0  0  0  0  0  0
    6.5579  -14.0494   25.9987 C   0  0  0  0  0  0  0  0  0  0  0  0
    5.7166  -12.9751   25.8099 C   0  0  0  0  0  0  0  0  0  0  0  0
    6.1738  -11.7165   26.0679 C   0  0  0  0  0  0  0  0  0  0  0  0
    7.4633  -11.4966   26.5146 C   0  0  0  0  0  0  0  0  0  0  0  0
    8.3132  -12.5663   26.7067 C   0  0  0  0  0  0  0  0  0  0  0  0
    7.8462  -13.8372   26.4446 C   0  0  0  0  0  0  0  0  0  0  0  0
   10.2118  -17.7626   27.1562 C   0  0  0  0  0  0  0  0  0  0  0  0
    9.4063  -18.6825   26.9147 O   0  0  0  0  0  0  0  0  0  0  0  0
   11.0044  -17.8312   28.2785 O   0  0  0  0  0  0  0  0  0  0  0  0
  2  1  1  0
  3  5  1  0
  3  2  1  0
  3  4  1  1
  5  7  1  0
  5  6  1  6
  7  8  2  0
  9 10  1  0
 11 10  1  6
 11 13  1  0
 12 11  1  0
 12  7  1  0
 13 15  1  0
 13 14  2  0
 15 16  1  0
 16 27  1  0
 16 17  1  1
 18 17  1  0
 19 18  2  0
 20 19  1  0
 21 20  1  0
 21 26  2  0
 22 21  1  0
 23 22  2  0
 23 24  1  0
 24 25  2  0
 25 26  1  0
 26 18  1  0
 27 28  2  0
 27 29  1  0
M  END
$$$$
