ISW.pdb
     RDKit          3D

 29 30  0  0  1  0  0  0  0  0999 V2000
    8.0689  -11.7262   18.8487 C   0  0  0  0  0  0  0  0  0  0  0  0
    8.1849  -13.2058   18.6042 C   0  0  0  0  0  0  0  0  0  0  0  0
    8.2140  -14.0149   19.8681 C   0  0  2  0  0  0  0  0  0  0  0  0
    9.3813  -13.5742   20.6881 C   0  0  0  0  0  0  0  0  0  0  0  0
    8.2644  -15.4995   19.6235 C   0  0  2  0  0  0  0  0  0  0  0  0
    7.1265  -15.8363   18.7884 N   0  0  0  0  0  0  0  0  0  0  0  0
    8.2537  -16.3076   20.8443 C   0  0  0  0  0  0  0  0  0  0  0  0
    7.2499  -16.4510   21.5898 O   0  0  0  0  0  0  0  0  0  0  0  0
   11.6061  -18.5030   21.7373 O   0  0  0  0  0  0  0  0  0  0  0  0
   10.3691  -18.9965   22.1342 C   0  0  0  0  0  0  0  0  0  0  0  0
    9.4305  -17.8379   22.4269 C   0  0  2  0  0  0  0  0  0  0  0  0
    9.4369  -16.9882   21.2434 N   0  0  0  0  0  0  0  0  0  0  0  0
    9.9876  -17.0888   23.6018 C   0  0  0  0  0  0  0  0  0  0  0  0
   10.8455  -16.2048   23.3658 O   0  0  0  0  0  0  0  0  0  0  0  0
    9.5904  -17.3385   24.9227 N   0  0  0  0  0  0  0  0  0  0  0  0
   10.3184  -16.6807   26.0167 C   0  0  1  0  0  0  0  0  0  0  0  0
    9.9669  -15.2098   26.0427 C   0  0  0  0  0  0  0  0  0  0  0  0
    8.5045  -15.0793   26.2214 C   0  0  0  0  0  0  0  0  0  0  0  0
    7.5500  -16.0799   26.1887 C   0  0  0  0  0  0  0  0  0  0  0  0
    6.3287  -15.5537   26.3876 N   0  0  0  0  0  0  0  0  0  0  0  0
    6.4898  -14.2186   26.5485 C   0  0  0  0  0  0  0  0  0  0  0  0
    5.5520  -13.2362   26.7787 C   0  0  0  0  0  0  0  0  0  0  0  0
    5.9604  -11.9416   26.9084 C   0  0  0  0  0  0  0  0  0  0  0  0
    7.2951  -11.5949   26.8138 C   0  0  0  0  0  0  0  0  0  0  0  0
    8.2416  -12.5719   26.5835 C   0  0  0  0  0  0  0  0  0  0  0  0
    7.8238  -13.8797   26.4530 C   0  0  0  0  0  0  0  0  0  0  0  0
    9.8971  -17.2924   27.2863 C   0  0  0  0  0  0  0  0  0  0  0  0
    9.0345  -18.1919   27.2912 O   0  0  0  0  0  0  0  0  0  0  0  0
   10.4517  -16.8768   28.4746 O   0  0  0  0  0  0  0  0  0  0  0  0
  2  1  1  0
  3  5  1  0
  3  2  1  0
  3  4  1  6
  5  7  1  0
  5  6  1  6
  7  8  2  0
  9 10  1  0
 11 10  1  6
 11 13  1  0
 12 11  1  0
 12  7  1  0
 13 15  1  0
 13 14  2  0
 15 16  1  0
 16 27  1  0
 16 17  1  1
 18 17  1  0
 19 18  2  0
 20 19  1  0
 21 20  1  0
 21 26  2  0
 22 21  1  0
 23 22  2  0
 23 24  1  0
 24 25  2  0
 25 26  1  0
 26 18  1  0
 27 28  2  0
 27 29  1  0
M  END
$$$$
