ISW.pdb
     RDKit          3D

 29 30  0  0  1  0  0  0  0  0999 V2000
    7.5742  -11.6092   19.3249 C   0  0  0  0  0  0  0  0  0  0  0  0
    7.9331  -13.0229   18.9574 C   0  0  0  0  0  0  0  0  0  0  0  0
    7.9938  -13.9456   20.1398 C   0  0  2  0  0  0  0  0  0  0  0  0
    8.9875  -13.4049   21.1143 C   0  0  0  0  0  0  0  0  0  0  0  0
    8.3282  -15.3660   19.7700 C   0  0  2  0  0  0  0  0  0  0  0  0
    7.3486  -15.7970   18.7901 N   0  0  0  0  0  0  0  0  0  0  0  0
    8.3499  -16.2905   20.9051 C   0  0  0  0  0  0  0  0  0  0  0  0
    7.3232  -16.6844   21.5172 O   0  0  0  0  0  0  0  0  0  0  0  0
   11.7733  -18.2794   21.7175 O   0  0  0  0  0  0  0  0  0  0  0  0
   10.5881  -18.7858   22.2371 C   0  0  0  0  0  0  0  0  0  0  0  0
    9.6443  -17.6393   22.5593 C   0  0  2  0  0  0  0  0  0  0  0  0
    9.5944  -16.7955   21.3726 N   0  0  0  0  0  0  0  0  0  0  0  0
   10.2339  -16.8763   23.7092 C   0  0  0  0  0  0  0  0  0  0  0  0
   11.3027  -16.2544   23.4990 O   0  0  0  0  0  0  0  0  0  0  0  0
    9.6437  -16.8368   24.9801 N   0  0  0  0  0  0  0  0  0  0  0  0
   10.4606  -16.4154   26.1266 C   0  0  1  0  0  0  0  0  0  0  0  0
   10.0696  -15.0125   26.5352 C   0  0  0  0  0  0  0  0  0  0  0  0
    8.6114  -14.8565   26.3432 C   0  0  0  0  0  0  0  0  0  0  0  0
    7.6715  -15.8460   26.1175 C   0  0  0  0  0  0  0  0  0  0  0  0
    6.4511  -15.2967   25.9882 N   0  0  0  0  0  0  0  0  0  0  0  0
    6.5982  -13.9577   26.1293 C   0  0  0  0  0  0  0  0  0  0  0  0
    5.6551  -12.9547   26.0816 C   0  0  0  0  0  0  0  0  0  0  0  0
    6.0486  -11.6606   26.2550 C   0  0  0  0  0  0  0  0  0  0  0  0
    7.3733  -11.3346   26.4776 C   0  0  0  0  0  0  0  0  0  0  0  0
    8.3249  -12.3324   26.5272 C   0  0  0  0  0  0  0  0  0  0  0  0
    7.9221  -13.6396   26.3512 C   0  0  0  0  0  0  0  0  0  0  0  0
   10.1911  -17.3292   27.2473 C   0  0  0  0  0  0  0  0  0  0  0  0
    9.3366  -18.2286   27.1293 O   0  0  0  0  0  0  0  0  0  0  0  0
   10.8797  -17.1977   28.4309 O   0  0  0  0  0  0  0  0  0  0  0  0
  2  1  1  0
  3  5  1  0
  3  2  1  0
  3  4  1  1
  5  7  1  0
  5  6  1  6
  7  8  2  0
  9 10  1  0
 11 10  1  6
 11 13  1  0
 12 11  1  0
 12  7  1  0
 13 15  1  0
 13 14  2  0
 15 16  1  0
 16 27  1  0
 16 17  1  1
 18 17  1  0
 19 18  2  0
 20 19  1  0
 21 20  1  0
 21 26  2  0
 22 21  1  0
 23 22  2  0
 23 24  1  0
 24 25  2  0
 25 26  1  0
 26 18  1  0
 27 28  2  0
 27 29  1  0
M  END
$$$$
