ISW.pdb
     RDKit          3D

 29 30  0  0  1  0  0  0  0  0999 V2000
    7.6709  -12.0708   20.3619 C   0  0  0  0  0  0  0  0  0  0  0  0
    7.5540  -13.5356   20.0406 C   0  0  0  0  0  0  0  0  0  0  0  0
    8.6688  -14.0428   19.1729 C   0  0  2  0  0  0  0  0  0  0  0  0
    8.6760  -13.2596   17.9016 C   0  0  0  0  0  0  0  0  0  0  0  0
    8.5782  -15.5185   18.8894 C   0  0  2  0  0  0  0  0  0  0  0  0
    7.4176  -15.7231   18.0428 N   0  0  0  0  0  0  0  0  0  0  0  0
    8.4842  -16.3533   20.0884 C   0  0  0  0  0  0  0  0  0  0  0  0
    7.4040  -16.6472   20.6637 O   0  0  0  0  0  0  0  0  0  0  0  0
   11.8495  -18.3839   21.5514 O   0  0  0  0  0  0  0  0  0  0  0  0
   10.5498  -18.8604   21.6734 C   0  0  0  0  0  0  0  0  0  0  0  0
    9.5981  -17.6933   21.8759 C   0  0  2  0  0  0  0  0  0  0  0  0
    9.6703  -16.8831   20.6671 N   0  0  0  0  0  0  0  0  0  0  0  0
   10.0913  -16.9054   23.0541 C   0  0  0  0  0  0  0  0  0  0  0  0
   10.9253  -15.9960   22.8293 O   0  0  0  0  0  0  0  0  0  0  0  0
    9.6608  -17.1466   24.3662 N   0  0  0  0  0  0  0  0  0  0  0  0
   10.3281  -16.4428   25.4702 C   0  0  1  0  0  0  0  0  0  0  0  0
    9.9834  -14.9712   25.4109 C   0  0  0  0  0  0  0  0  0  0  0  0
    8.5317  -14.8187   25.6495 C   0  0  0  0  0  0  0  0  0  0  0  0
    7.5390  -15.7697   25.4957 C   0  0  0  0  0  0  0  0  0  0  0  0
    6.3438  -15.2376   25.8061 N   0  0  0  0  0  0  0  0  0  0  0  0
    6.5598  -13.9480   26.1595 C   0  0  0  0  0  0  0  0  0  0  0  0
    5.6661  -12.9796   26.5607 C   0  0  0  0  0  0  0  0  0  0  0  0
    6.1268  -11.7340   26.8701 C   0  0  0  0  0  0  0  0  0  0  0  0
    7.4712  -11.4231   26.7895 C   0  0  0  0  0  0  0  0  0  0  0  0
    8.3739  -12.3866   26.3887 C   0  0  0  0  0  0  0  0  0  0  0  0
    7.9032  -13.6448   26.0770 C   0  0  0  0  0  0  0  0  0  0  0  0
    9.8312  -16.9964   26.7392 C   0  0  0  0  0  0  0  0  0  0  0  0
    8.9369  -17.8644   26.7352 O   0  0  0  0  0  0  0  0  0  0  0  0
   10.3499  -16.5611   27.9366 O   0  0  0  0  0  0  0  0  0  0  0  0
  2  1  1  0
  3  5  1  0
  3  2  1  0
  3  4  1  6
  5  7  1  0
  5  6  1  6
  7  8  2  0
  9 10  1  0
 11 10  1  6
 11 13  1  0
 12 11  1  0
 12  7  1  0
 13 15  1  0
 13 14  2  0
 15 16  1  0
 16 27  1  0
 16 17  1  1
 18 17  1  0
 19 18  2  0
 20 19  1  0
 21 20  1  0
 21 26  2  0
 22 21  1  0
 23 22  2  0
 23 24  1  0
 24 25  2  0
 25 26  1  0
 26 18  1  0
 27 28  2  0
 27 29  1  0
M  END
$$$$
