ISW.pdb
     RDKit          3D

 29 30  0  0  1  0  0  0  0  0999 V2000
    7.8518  -11.4265   19.6465 C   0  0  0  0  0  0  0  0  0  0  0  0
    7.9029  -12.8856   19.2850 C   0  0  0  0  0  0  0  0  0  0  0  0
    8.0729  -13.7854   20.4744 C   0  0  2  0  0  0  0  0  0  0  0  0
    9.3093  -13.3782   21.2058 C   0  0  0  0  0  0  0  0  0  0  0  0
    8.1237  -15.2460   20.1134 C   0  0  2  0  0  0  0  0  0  0  0  0
    6.9282  -15.5408   19.3458 N   0  0  0  0  0  0  0  0  0  0  0  0
    8.2201  -16.1440   21.2658 C   0  0  0  0  0  0  0  0  0  0  0  0
    7.2764  -16.3721   22.0666 O   0  0  0  0  0  0  0  0  0  0  0  0
   11.8305  -17.9646   22.0118 O   0  0  0  0  0  0  0  0  0  0  0  0
   10.6892  -18.6739   22.3660 C   0  0  0  0  0  0  0  0  0  0  0  0
    9.5642  -17.7017   22.6794 C   0  0  2  0  0  0  0  0  0  0  0  0
    9.4446  -16.8184   21.5269 N   0  0  0  0  0  0  0  0  0  0  0  0
    9.9694  -16.9150   23.8914 C   0  0  0  0  0  0  0  0  0  0  0  0
   10.7344  -15.9372   23.7129 O   0  0  0  0  0  0  0  0  0  0  0  0
    9.5315  -17.2293   25.1854 N   0  0  0  0  0  0  0  0  0  0  0  0
   10.0423  -16.4416   26.3159 C   0  0  1  0  0  0  0  0  0  0  0  0
    8.9339  -16.2286   27.3229 C   0  0  0  0  0  0  0  0  0  0  0  0
    7.8071  -15.5514   26.6451 C   0  0  0  0  0  0  0  0  0  0  0  0
    6.6964  -16.1288   26.0566 C   0  0  0  0  0  0  0  0  0  0  0  0
    5.9036  -15.1733   25.5403 N   0  0  0  0  0  0  0  0  0  0  0  0
    6.4968  -13.9821   25.7924 C   0  0  0  0  0  0  0  0  0  0  0  0
    6.0890  -12.7059   25.4721 C   0  0  0  0  0  0  0  0  0  0  0  0
    6.8655  -11.6462   25.8377 C   0  0  0  0  0  0  0  0  0  0  0  0
    8.0525  -11.8259   26.5227 C   0  0  0  0  0  0  0  0  0  0  0  0
    8.4691  -13.1004   26.8480 C   0  0  0  0  0  0  0  0  0  0  0  0
    7.6805  -14.1689   26.4761 C   0  0  0  0  0  0  0  0  0  0  0  0
   11.1267  -17.2013   26.9565 C   0  0  0  0  0  0  0  0  0  0  0  0
   11.3778  -18.3649   26.5875 O   0  0  0  0  0  0  0  0  0  0  0  0
   11.8701  -16.6333   27.9651 O   0  0  0  0  0  0  0  0  0  0  0  0
  2  1  1  0
  3  5  1  0
  3  2  1  0
  3  4  1  6
  5  7  1  0
  5  6  1  1
  7  8  2  0
  9 10  1  0
 11 10  1  6
 11 13  1  0
 12 11  1  0
 12  7  1  0
 13 15  1  0
 13 14  2  0
 15 16  1  0
 16 27  1  0
 16 17  1  1
 18 17  1  0
 19 18  2  0
 20 19  1  0
 21 20  1  0
 21 26  2  0
 22 21  1  0
 23 22  2  0
 23 24  1  0
 24 25  2  0
 25 26  1  0
 26 18  1  0
 27 28  2  0
 27 29  1  0
M  END
$$$$
