ISW.pdb
     RDKit          3D

 29 30  0  0  1  0  0  0  0  0999 V2000
    7.8285  -11.5791   20.5593 C   0  0  0  0  0  0  0  0  0  0  0  0
    7.6146  -13.0668   20.5006 C   0  0  0  0  0  0  0  0  0  0  0  0
    8.6539  -13.7835   19.6888 C   0  0  2  0  0  0  0  0  0  0  0  0
    8.7302  -13.1434   18.3420 C   0  0  0  0  0  0  0  0  0  0  0  0
    8.3962  -15.2613   19.5628 C   0  0  2  0  0  0  0  0  0  0  0  0
    7.1996  -15.4218   18.7579 N   0  0  0  0  0  0  0  0  0  0  0  0
    8.2415  -15.9530   20.8439 C   0  0  0  0  0  0  0  0  0  0  0  0
    7.1827  -15.9547   21.5244 O   0  0  0  0  0  0  0  0  0  0  0  0
   11.2348  -18.4497   21.9776 O   0  0  0  0  0  0  0  0  0  0  0  0
    9.9515  -18.7368   22.4267 C   0  0  0  0  0  0  0  0  0  0  0  0
    9.1780  -17.4425   22.6147 C   0  0  2  0  0  0  0  0  0  0  0  0
    9.3383  -16.6795   21.3839 N   0  0  0  0  0  0  0  0  0  0  0  0
    9.8016  -16.7045   23.7630 C   0  0  0  0  0  0  0  0  0  0  0  0
   10.7218  -15.8955   23.4948 O   0  0  0  0  0  0  0  0  0  0  0  0
    9.3992  -16.8851   25.0936 N   0  0  0  0  0  0  0  0  0  0  0  0
   10.3556  -16.5868   26.1686 C   0  0  1  0  0  0  0  0  0  0  0  0
    9.7375  -15.5988   27.1328 C   0  0  0  0  0  0  0  0  0  0  0  0
    8.3583  -15.3062   26.6859 C   0  0  0  0  0  0  0  0  0  0  0  0
    7.3946  -16.2008   26.2562 C   0  0  0  0  0  0  0  0  0  0  0  0
    6.2704  -15.5397   25.9290 N   0  0  0  0  0  0  0  0  0  0  0  0
    6.5033  -14.2231   26.1450 C   0  0  0  0  0  0  0  0  0  0  0  0
    5.6747  -13.1374   25.9653 C   0  0  0  0  0  0  0  0  0  0  0  0
    6.1390  -11.8887   26.2560 C   0  0  0  0  0  0  0  0  0  0  0  0
    7.4232  -11.6898   26.7271 C   0  0  0  0  0  0  0  0  0  0  0  0
    8.2604  -12.7710   26.9104 C   0  0  0  0  0  0  0  0  0  0  0  0
    7.7862  -14.0320   26.6150 C   0  0  0  0  0  0  0  0  0  0  0  0
   10.6459  -17.8358   26.8892 C   0  0  0  0  0  0  0  0  0  0  0  0
    9.9784  -18.8621   26.6558 O   0  0  0  0  0  0  0  0  0  0  0  0
   11.6546  -17.8796   27.8235 O   0  0  0  0  0  0  0  0  0  0  0  0
  2  1  1  0
  3  5  1  0
  3  2  1  0
  3  4  1  6
  5  7  1  0
  5  6  1  6
  7  8  2  0
  9 10  1  0
 11 10  1  6
 11 13  1  0
 12 11  1  0
 12  7  1  0
 13 15  1  0
 13 14  2  0
 15 16  1  0
 16 27  1  0
 16 17  1  1
 18 17  1  0
 19 18  2  0
 20 19  1  0
 21 20  1  0
 21 26  2  0
 22 21  1  0
 23 22  2  0
 23 24  1  0
 24 25  2  0
 25 26  1  0
 26 18  1  0
 27 28  2  0
 27 29  1  0
M  END
$$$$
