ISW.pdb
     RDKit          3D

 29 30  0  0  1  0  0  0  0  0999 V2000
    7.8045  -11.5994   19.1152 C   0  0  0  0  0  0  0  0  0  0  0  0
    8.1878  -13.0391   18.9083 C   0  0  0  0  0  0  0  0  0  0  0  0
    8.1680  -13.8456   20.1740 C   0  0  2  0  0  0  0  0  0  0  0  0
    9.3877  -13.5135   20.9686 C   0  0  0  0  0  0  0  0  0  0  0  0
    8.0759  -15.3288   19.9335 C   0  0  2  0  0  0  0  0  0  0  0  0
    6.9077  -15.5579   19.1037 N   0  0  0  0  0  0  0  0  0  0  0  0
    7.9933  -16.1292   21.1566 C   0  0  0  0  0  0  0  0  0  0  0  0
    7.1108  -15.9811   22.0416 O   0  0  0  0  0  0  0  0  0  0  0  0
   10.9033  -18.9055   21.7618 O   0  0  0  0  0  0  0  0  0  0  0  0
    9.6845  -19.2061   22.3580 C   0  0  0  0  0  0  0  0  0  0  0  0
    8.9205  -17.9205   22.6273 C   0  0  2  0  0  0  0  0  0  0  0  0
    8.9565  -17.1487   21.3921 N   0  0  0  0  0  0  0  0  0  0  0  0
    9.6431  -17.1834   23.7165 C   0  0  0  0  0  0  0  0  0  0  0  0
   10.6373  -16.4950   23.3833 O   0  0  0  0  0  0  0  0  0  0  0  0
    9.2530  -17.2374   25.0618 N   0  0  0  0  0  0  0  0  0  0  0  0
   10.1947  -16.7743   26.0905 C   0  0  1  0  0  0  0  0  0  0  0  0
    9.8929  -15.3333   26.4374 C   0  0  0  0  0  0  0  0  0  0  0  0
    8.4463  -15.0958   26.2414 C   0  0  0  0  0  0  0  0  0  0  0  0
    7.4519  -16.0319   26.0213 C   0  0  0  0  0  0  0  0  0  0  0  0
    6.2649  -15.4150   25.8854 N   0  0  0  0  0  0  0  0  0  0  0  0
    6.4879  -14.0855   26.0167 C   0  0  0  0  0  0  0  0  0  0  0  0
    5.6036  -13.0308   25.9595 C   0  0  0  0  0  0  0  0  0  0  0  0
    6.0699  -11.7599   26.1239 C   0  0  0  0  0  0  0  0  0  0  0  0
    7.4107  -11.5082   26.3466 C   0  0  0  0  0  0  0  0  0  0  0  0
    8.3038  -12.5582   26.4057 C   0  0  0  0  0  0  0  0  0  0  0  0
    7.8275  -13.8416   26.2388 C   0  0  0  0  0  0  0  0  0  0  0  0
   10.0098  -17.6012   27.2929 C   0  0  0  0  0  0  0  0  0  0  0  0
    9.0847  -18.4348   27.3423 O   0  0  0  0  0  0  0  0  0  0  0  0
   10.8556  -17.4606   28.3686 O   0  0  0  0  0  0  0  0  0  0  0  0
  2  1  1  0
  3  5  1  0
  3  2  1  0
  3  4  1  6
  5  7  1  0
  5  6  1  6
  7  8  2  0
  9 10  1  0
 11 10  1  6
 11 13  1  0
 12 11  1  0
 12  7  1  0
 13 15  1  0
 13 14  2  0
 15 16  1  0
 16 27  1  0
 16 17  1  1
 18 17  1  0
 19 18  2  0
 20 19  1  0
 21 20  1  0
 21 26  2  0
 22 21  1  0
 23 22  2  0
 23 24  1  0
 24 25  2  0
 25 26  1  0
 26 18  1  0
 27 28  2  0
 27 29  1  0
M  END
$$$$
