ISW.pdb
     RDKit          3D

 29 30  0  0  1  0  0  0  0  0999 V2000
    7.7154  -11.9776   18.7341 C   0  0  0  0  0  0  0  0  0  0  0  0
    7.8928  -13.4444   18.4519 C   0  0  0  0  0  0  0  0  0  0  0  0
    8.2903  -14.2371   19.6630 C   0  0  2  0  0  0  0  0  0  0  0  0
    9.5627  -13.6733   20.2038 C   0  0  0  0  0  0  0  0  0  0  0  0
    8.4339  -15.7104   19.3893 C   0  0  2  0  0  0  0  0  0  0  0  0
    7.1623  -16.1767   18.8685 N   0  0  0  0  0  0  0  0  0  0  0  0
    8.8230  -16.5009   20.5586 C   0  0  0  0  0  0  0  0  0  0  0  0
    8.0413  -16.8131   21.4943 O   0  0  0  0  0  0  0  0  0  0  0  0
   12.8874  -17.1750   21.5319 O   0  0  0  0  0  0  0  0  0  0  0  0
   11.9770  -18.2237   21.5793 C   0  0  0  0  0  0  0  0  0  0  0  0
   10.5892  -17.6784   21.8721 C   0  0  2  0  0  0  0  0  0  0  0  0
   10.1630  -16.9623   20.6770 N   0  0  0  0  0  0  0  0  0  0  0  0
   10.7101  -16.7276   23.0267 C   0  0  0  0  0  0  0  0  0  0  0  0
   10.6834  -15.5008   22.7666 O   0  0  0  0  0  0  0  0  0  0  0  0
   10.8487  -17.1548   24.3546 N   0  0  0  0  0  0  0  0  0  0  0  0
   10.5716  -16.2007   25.4373 C   0  0  1  0  0  0  0  0  0  0  0  0
    9.0976  -15.8612   25.4444 C   0  0  0  0  0  0  0  0  0  0  0  0
    8.8368  -14.9238   26.5584 C   0  0  0  0  0  0  0  0  0  0  0  0
    9.3842  -14.9375   27.8287 C   0  0  0  0  0  0  0  0  0  0  0  0
    8.8858  -13.9199   28.5525 N   0  0  0  0  0  0  0  0  0  0  0  0
    8.0194  -13.2494   27.7561 C   0  0  0  0  0  0  0  0  0  0  0  0
    7.2531  -12.1362   28.0232 C   0  0  0  0  0  0  0  0  0  0  0  0
    6.4441  -11.6336   27.0472 C   0  0  0  0  0  0  0  0  0  0  0  0
    6.3771  -12.2177   25.7962 C   0  0  0  0  0  0  0  0  0  0  0  0
    7.1409  -13.3328   25.5194 C   0  0  0  0  0  0  0  0  0  0  0  0
    7.9576  -13.8373   26.5096 C   0  0  0  0  0  0  0  0  0  0  0  0
   10.9184  -16.8390   26.7163 C   0  0  0  0  0  0  0  0  0  0  0  0
   10.6834  -18.0498   26.8950 O   0  0  0  0  0  0  0  0  0  0  0  0
   11.5039  -16.1051   27.7218 O   0  0  0  0  0  0  0  0  0  0  0  0
  2  1  1  0
  3  5  1  0
  3  2  1  0
  3  4  1  6
  5  7  1  0
  5  6  1  1
  7  8  2  0
  9 10  1  0
 11 10  1  6
 11 13  1  0
 12 11  1  0
 12  7  1  0
 13 15  1  0
 13 14  2  0
 15 16  1  0
 16 27  1  0
 16 17  1  1
 18 17  1  0
 19 18  2  0
 20 19  1  0
 21 20  1  0
 21 26  2  0
 22 21  1  0
 23 22  2  0
 23 24  1  0
 24 25  2  0
 25 26  1  0
 26 18  1  0
 27 28  2  0
 27 29  1  0
M  END
$$$$
