ISW.pdb
     RDKit          3D

 29 30  0  0  1  0  0  0  0  0999 V2000
    8.0364  -11.8599   20.1877 C   0  0  0  0  0  0  0  0  0  0  0  0
    7.7390  -13.3095   19.9180 C   0  0  0  0  0  0  0  0  0  0  0  0
    8.7773  -13.9790   19.0655 C   0  0  2  0  0  0  0  0  0  0  0  0
    8.8155  -13.2959   17.7384 C   0  0  0  0  0  0  0  0  0  0  0  0
    8.5471  -15.4572   18.8979 C   0  0  2  0  0  0  0  0  0  0  0  0
    7.3563  -15.6171   18.0843 N   0  0  0  0  0  0  0  0  0  0  0  0
    8.4009  -16.1867   20.1588 C   0  0  0  0  0  0  0  0  0  0  0  0
    7.3417  -16.2222   20.8376 O   0  0  0  0  0  0  0  0  0  0  0  0
   11.5573  -18.5230   21.5563 O   0  0  0  0  0  0  0  0  0  0  0  0
   10.2388  -18.8946   21.7901 C   0  0  0  0  0  0  0  0  0  0  0  0
    9.3778  -17.6504   21.9293 C   0  0  2  0  0  0  0  0  0  0  0  0
    9.5072  -16.9129   20.6795 N   0  0  0  0  0  0  0  0  0  0  0  0
    9.9315  -16.8406   23.0649 C   0  0  0  0  0  0  0  0  0  0  0  0
   10.8189  -15.9976   22.7909 O   0  0  0  0  0  0  0  0  0  0  0  0
    9.5001  -16.9917   24.3901 N   0  0  0  0  0  0  0  0  0  0  0  0
   10.3299  -16.4420   25.4711 C   0  0  1  0  0  0  0  0  0  0  0  0
    9.9704  -14.9896   25.6932 C   0  0  0  0  0  0  0  0  0  0  0  0
    8.5066  -14.8915   25.8817 C   0  0  0  0  0  0  0  0  0  0  0  0
    7.5679  -15.9043   25.8008 C   0  0  0  0  0  0  0  0  0  0  0  0
    6.3391  -15.4082   26.0287 N   0  0  0  0  0  0  0  0  0  0  0  0
    6.4797  -14.0804   26.2563 C   0  0  0  0  0  0  0  0  0  0  0  0
    5.5272  -13.1259   26.5378 C   0  0  0  0  0  0  0  0  0  0  0  0
    5.9156  -11.8331   26.7317 C   0  0  0  0  0  0  0  0  0  0  0  0
    7.2444  -11.4610   26.6515 C   0  0  0  0  0  0  0  0  0  0  0  0
    8.2055  -12.4100   26.3701 C   0  0  0  0  0  0  0  0  0  0  0  0
    7.8078  -13.7161   26.1749 C   0  0  0  0  0  0  0  0  0  0  0  0
   10.0450  -17.1955   26.7018 C   0  0  0  0  0  0  0  0  0  0  0  0
   10.6002  -16.8789   27.7717 O   0  0  0  0  0  0  0  0  0  0  0  0
    9.1649  -18.2526   26.6803 O   0  0  0  0  0  0  0  0  0  0  0  0
  2  1  1  0
  3  5  1  0
  3  2  1  0
  3  4  1  6
  5  7  1  0
  5  6  1  6
  7  8  2  0
  9 10  1  0
 11 10  1  6
 11 13  1  0
 12 11  1  0
 12  7  1  0
 13 15  1  0
 13 14  2  0
 15 16  1  0
 16 27  1  0
 16 17  1  1
 18 17  1  0
 19 18  2  0
 20 19  1  0
 21 20  1  0
 21 26  2  0
 22 21  1  0
 23 22  2  0
 23 24  1  0
 24 25  2  0
 25 26  1  0
 26 18  1  0
 27 28  2  0
 27 29  1  0
M  END
$$$$
