ISW.pdb
     RDKit          3D

 29 30  0  0  1  0  0  0  0  0999 V2000
    7.3572  -11.6790   19.3935 C   0  0  0  0  0  0  0  0  0  0  0  0
    7.8970  -13.0475   19.0800 C   0  0  0  0  0  0  0  0  0  0  0  0
    7.8512  -13.9853   20.2511 C   0  0  2  0  0  0  0  0  0  0  0  0
    8.6168  -13.3757   21.3787 C   0  0  0  0  0  0  0  0  0  0  0  0
    8.3747  -15.3605   19.9333 C   0  0  2  0  0  0  0  0  0  0  0  0
    7.5836  -15.8777   18.8322 N   0  0  0  0  0  0  0  0  0  0  0  0
    8.3387  -16.2904   21.0636 C   0  0  0  0  0  0  0  0  0  0  0  0
    7.2826  -16.7665   21.5554 O   0  0  0  0  0  0  0  0  0  0  0  0
   11.7393  -18.0671   22.0519 O   0  0  0  0  0  0  0  0  0  0  0  0
   10.5901  -18.6633   22.5568 C   0  0  0  0  0  0  0  0  0  0  0  0
    9.5388  -17.5979   22.8190 C   0  0  2  0  0  0  0  0  0  0  0  0
    9.5574  -16.7033   21.6692 N   0  0  0  0  0  0  0  0  0  0  0  0
    9.9462  -16.8541   24.0570 C   0  0  0  0  0  0  0  0  0  0  0  0
   10.8167  -15.9600   23.9303 O   0  0  0  0  0  0  0  0  0  0  0  0
    9.3990  -17.1191   25.3201 N   0  0  0  0  0  0  0  0  0  0  0  0
   10.0356  -16.5276   26.5050 C   0  0  1  0  0  0  0  0  0  0  0  0
    8.9696  -16.1053   27.4915 C   0  0  0  0  0  0  0  0  0  0  0  0
    7.8850  -15.4266   26.7494 C   0  0  0  0  0  0  0  0  0  0  0  0
    6.7962  -16.0009   26.1183 C   0  0  0  0  0  0  0  0  0  0  0  0
    6.0412  -15.0451   25.5486 N   0  0  0  0  0  0  0  0  0  0  0  0
    6.6370  -13.8569   25.8086 C   0  0  0  0  0  0  0  0  0  0  0  0
    6.2613  -12.5817   25.4476 C   0  0  0  0  0  0  0  0  0  0  0  0
    7.0330  -11.5251   25.8319 C   0  0  0  0  0  0  0  0  0  0  0  0
    8.1838  -11.7071   26.5757 C   0  0  0  0  0  0  0  0  0  0  0  0
    8.5681  -12.9805   26.9420 C   0  0  0  0  0  0  0  0  0  0  0  0
    7.7843  -14.0458   26.5511 C   0  0  0  0  0  0  0  0  0  0  0  0
   10.8854  -17.5509   27.1330 C   0  0  0  0  0  0  0  0  0  0  0  0
   10.8974  -18.7142   26.6859 O   0  0  0  0  0  0  0  0  0  0  0  0
   11.6716  -17.2312   28.2156 O   0  0  0  0  0  0  0  0  0  0  0  0
  2  1  1  0
  3  5  1  0
  3  2  1  0
  3  4  1  1
  5  7  1  0
  5  6  1  6
  7  8  2  0
  9 10  1  0
 11 10  1  6
 11 13  1  0
 12 11  1  0
 12  7  1  0
 13 15  1  0
 13 14  2  0
 15 16  1  0
 16 27  1  0
 16 17  1  1
 18 17  1  0
 19 18  2  0
 20 19  1  0
 21 20  1  0
 21 26  2  0
 22 21  1  0
 23 22  2  0
 23 24  1  0
 24 25  2  0
 25 26  1  0
 26 18  1  0
 27 28  2  0
 27 29  1  0
M  END
$$$$
