ISW.pdb
     RDKit          3D

 29 30  0  0  1  0  0  0  0  0999 V2000
    7.5692  -11.4574   19.7804 C   0  0  0  0  0  0  0  0  0  0  0  0
    7.8951  -12.8759   19.4006 C   0  0  0  0  0  0  0  0  0  0  0  0
    7.9000  -13.8165   20.5703 C   0  0  2  0  0  0  0  0  0  0  0  0
    8.9011  -13.3317   21.5663 C   0  0  0  0  0  0  0  0  0  0  0  0
    8.1801  -15.2444   20.1846 C   0  0  2  0  0  0  0  0  0  0  0  0
    7.1404  -15.6512   19.2577 N   0  0  0  0  0  0  0  0  0  0  0  0
    8.2389  -16.1697   21.3178 C   0  0  0  0  0  0  0  0  0  0  0  0
    7.2277  -16.6335   21.9064 O   0  0  0  0  0  0  0  0  0  0  0  0
   10.7269  -19.4730   23.6241 O   0  0  0  0  0  0  0  0  0  0  0  0
   10.6329  -18.5433   22.5955 C   0  0  0  0  0  0  0  0  0  0  0  0
    9.5815  -17.5036   22.9455 C   0  0  2  0  0  0  0  0  0  0  0  0
    9.5039  -16.5923   21.8113 N   0  0  0  0  0  0  0  0  0  0  0  0
   10.0583  -16.7693   24.1644 C   0  0  0  0  0  0  0  0  0  0  0  0
   10.9560  -15.9084   24.0026 O   0  0  0  0  0  0  0  0  0  0  0  0
    9.5457  -17.0082   25.4470 N   0  0  0  0  0  0  0  0  0  0  0  0
   10.2237  -16.4058   26.6032 C   0  0  1  0  0  0  0  0  0  0  0  0
    9.1907  -15.8868   27.5787 C   0  0  0  0  0  0  0  0  0  0  0  0
    8.0304  -15.3843   26.8112 C   0  0  0  0  0  0  0  0  0  0  0  0
    7.0039  -16.1168   26.2426 C   0  0  0  0  0  0  0  0  0  0  0  0
    6.1429  -15.2917   25.6215 N   0  0  0  0  0  0  0  0  0  0  0  0
    6.6082  -14.0304   25.7861 C   0  0  0  0  0  0  0  0  0  0  0  0
    6.0916  -12.8326   25.3435 C   0  0  0  0  0  0  0  0  0  0  0  0
    6.7477  -11.6739   25.6380 C   0  0  0  0  0  0  0  0  0  0  0  0
    7.9196  -11.6765   26.3709 C   0  0  0  0  0  0  0  0  0  0  0  0
    8.4445  -12.8713   26.8186 C   0  0  0  0  0  0  0  0  0  0  0  0
    7.7775  -14.0404   26.5183 C   0  0  0  0  0  0  0  0  0  0  0  0
   11.0217  -17.4484   27.2664 C   0  0  0  0  0  0  0  0  0  0  0  0
   10.9377  -18.6338   26.8909 O   0  0  0  0  0  0  0  0  0  0  0  0
   11.8651  -17.1224   28.3032 O   0  0  0  0  0  0  0  0  0  0  0  0
  2  1  1  0
  3  5  1  0
  3  2  1  0
  3  4  1  1
  5  7  1  0
  5  6  1  6
  7  8  2  0
  9 10  1  0
 11 10  1  6
 11 13  1  0
 12 11  1  0
 12  7  1  0
 13 15  1  0
 13 14  2  0
 15 16  1  0
 16 27  1  0
 16 17  1  1
 18 17  1  0
 19 18  2  0
 20 19  1  0
 21 20  1  0
 21 26  2  0
 22 21  1  0
 23 22  2  0
 23 24  1  0
 24 25  2  0
 25 26  1  0
 26 18  1  0
 27 28  2  0
 27 29  1  0
M  END
$$$$
