LNN.pdb
     RDKit          3D

 25 24  0  0  1  0  0  0  0  0999 V2000
   27.3890  -14.7598  -14.8697 C   0  0  0  0  0  0  0  0  0  0  0  0
   27.3817  -14.1108  -16.2168 C   0  0  2  0  0  0  0  0  0  0  0  0
   28.4694  -13.0255  -16.1847 C   0  0  0  0  0  0  0  0  0  0  0  0
   26.1168  -13.4332  -16.6045 C   0  0  0  0  0  0  0  0  0  0  0  0
   24.8827  -14.2789  -16.5963 C   0  0  2  0  0  0  0  0  0  0  0  0
   25.0226  -15.3733  -17.4919 N   0  0  0  0  0  0  0  0  0  0  0  0
   23.7268  -13.3914  -16.8450 C   0  0  0  0  0  0  0  0  0  0  0  0
   23.5611  -13.0040  -18.0513 O   0  0  0  0  0  0  0  0  0  0  0  0
   19.2045  -10.8423  -16.9219 N   0  0  0  0  0  0  0  0  0  0  0  0
   19.2300  -11.9554  -16.0360 C   0  0  0  0  0  0  0  0  0  0  0  0
   18.1239  -12.3312  -15.5473 O   0  0  0  0  0  0  0  0  0  0  0  0
   20.4575  -12.6881  -15.6596 C   0  0  0  0  0  0  0  0  0  0  0  0
   21.6931  -12.0868  -16.3171 C   0  0  2  0  0  0  0  0  0  0  0  0
   22.7996  -12.9348  -15.8974 N   0  0  0  0  0  0  0  0  0  0  0  0
   21.8766  -10.6903  -15.8749 C   0  0  0  0  0  0  0  0  0  0  0  0
   22.3331  -10.4879  -14.7235 O   0  0  0  0  0  0  0  0  0  0  0  0
   21.8259   -4.8687  -18.1203 N   0  0  0  0  0  0  0  0  0  0  0  0
   21.7949   -5.8571  -17.1032 C   0  0  0  0  0  0  0  0  0  0  0  0
   21.9174   -5.5015  -15.9182 O   0  0  0  0  0  0  0  0  0  0  0  0
   21.6217   -7.2533  -17.4610 C   0  0  0  0  0  0  0  0  0  0  0  0
   21.6917   -8.2062  -16.2899 C   0  0  2  0  0  0  0  0  0  0  0  0
   21.5590   -9.5793  -16.6959 N   0  0  0  0  0  0  0  0  0  0  0  0
   20.6959   -7.8610  -15.2428 C   0  0  0  0  0  0  0  0  0  0  0  0
   19.4658   -7.9270  -15.4725 O   0  0  0  0  0  0  0  0  0  0  0  0
   21.0917   -7.4545  -13.9765 O   0  0  0  0  0  0  0  0  0  0  0  0
  2  1  1  1
  3  2  1  0
  4  2  1  0
  4  5  1  0
  5  6  1  6
  7  5  1  0
  7  8  2  0
 10 12  1  0
 10  9  1  0
 11 10  2  0
 13 12  1  1
 13 14  1  0
 14  7  1  0
 15 13  1  0
 16 15  2  0
 18 17  1  0
 19 18  2  0
 20 18  1  0
 21 20  1  6
 21 22  1  0
 22 15  1  0
 23 21  1  0
 24 23  2  0
 25 23  1  0
M  END
$$$$
