LNN.pdb
     RDKit          3D

 25 24  0  0  1  0  0  0  0  0999 V2000
   18.7611  -15.3555  -15.3300 C   0  0  0  0  0  0  0  0  0  0  0  0
   18.3351  -14.8045  -16.6532 C   0  0  2  0  0  0  0  0  0  0  0  0
   18.7573  -15.8354  -17.7120 C   0  0  0  0  0  0  0  0  0  0  0  0
   18.9538  -13.5121  -17.0483 C   0  0  0  0  0  0  0  0  0  0  0  0
   18.8026  -12.3817  -16.0799 C   0  0  2  0  0  0  0  0  0  0  0  0
   17.4299  -12.1510  -15.7938 N   0  0  0  0  0  0  0  0  0  0  0  0
   19.5479  -11.2241  -16.6187 C   0  0  0  0  0  0  0  0  0  0  0  0
   20.2719  -11.4476  -17.6476 O   0  0  0  0  0  0  0  0  0  0  0  0
   18.9664   -7.3339  -20.2504 N   0  0  0  0  0  0  0  0  0  0  0  0
   19.7646   -7.9152  -19.2261 C   0  0  0  0  0  0  0  0  0  0  0  0
   20.9816   -7.5691  -19.1745 O   0  0  0  0  0  0  0  0  0  0  0  0
   19.2605   -8.8862  -18.2321 C   0  0  0  0  0  0  0  0  0  0  0  0
   20.0563   -8.8246  -16.9345 C   0  0  2  0  0  0  0  0  0  0  0  0
   19.5407   -9.9143  -16.1184 N   0  0  0  0  0  0  0  0  0  0  0  0
   19.8647   -7.5146  -16.2814 C   0  0  0  0  0  0  0  0  0  0  0  0
   18.6929   -7.1458  -16.0242 O   0  0  0  0  0  0  0  0  0  0  0  0
   20.7283   -2.9707  -13.9112 N   0  0  0  0  0  0  0  0  0  0  0  0
   21.9112   -3.7447  -13.7931 C   0  0  0  0  0  0  0  0  0  0  0  0
   22.8046   -3.3594  -13.0191 O   0  0  0  0  0  0  0  0  0  0  0  0
   22.0558   -4.9620  -14.5707 C   0  0  0  0  0  0  0  0  0  0  0  0
   20.8007   -5.3850  -15.2988 C   0  0  2  0  0  0  0  0  0  0  0  0
   20.9460   -6.6653  -15.9370 N   0  0  0  0  0  0  0  0  0  0  0  0
   20.3568   -4.3522  -16.2702 C   0  0  0  0  0  0  0  0  0  0  0  0
   20.1662   -3.1665  -15.9124 O   0  0  0  0  0  0  0  0  0  0  0  0
   20.1384   -4.6632  -17.6047 O   0  0  0  0  0  0  0  0  0  0  0  0
  2  1  1  1
  3  2  1  0
  4  2  1  0
  4  5  1  0
  5  6  1  6
  7  5  1  0
  7  8  2  0
 10 12  1  0
 10  9  1  0
 11 10  2  0
 13 12  1  6
 13 14  1  0
 14  7  1  0
 15 13  1  0
 16 15  2  0
 18 17  1  0
 19 18  2  0
 20 18  1  0
 21 20  1  6
 21 22  1  0
 22 15  1  0
 23 21  1  0
 24 23  2  0
 25 23  1  0
M  END
$$$$
