LNN.pdb
     RDKit          3D

 25 24  0  0  1  0  0  0  0  0999 V2000
   20.9947  -15.1046  -18.9626 C   0  0  0  0  0  0  0  0  0  0  0  0
   19.5896  -14.6182  -18.8046 C   0  0  2  0  0  0  0  0  0  0  0  0
   18.8461  -15.0048  -20.0930 C   0  0  0  0  0  0  0  0  0  0  0  0
   19.4248  -13.1498  -18.6433 C   0  0  0  0  0  0  0  0  0  0  0  0
   20.0860  -12.5361  -17.4499 C   0  0  2  0  0  0  0  0  0  0  0  0
   19.7270  -13.2360  -16.2664 N   0  0  0  0  0  0  0  0  0  0  0  0
   19.7772  -11.0903  -17.4575 C   0  0  0  0  0  0  0  0  0  0  0  0
   20.1269  -10.4434  -18.5026 O   0  0  0  0  0  0  0  0  0  0  0  0
   17.0660   -8.8369  -18.7815 N   0  0  0  0  0  0  0  0  0  0  0  0
   16.5812   -8.7117  -17.4498 C   0  0  0  0  0  0  0  0  0  0  0  0
   15.3308   -8.5804  -17.2992 O   0  0  0  0  0  0  0  0  0  0  0  0
   17.4427   -8.7266  -16.2486 C   0  0  0  0  0  0  0  0  0  0  0  0
   18.9074   -8.9353  -16.6117 C   0  0  2  0  0  0  0  0  0  0  0  0
   19.1435  -10.3616  -16.4410 N   0  0  0  0  0  0  0  0  0  0  0  0
   19.7713   -8.1286  -15.7271 C   0  0  0  0  0  0  0  0  0  0  0  0
   20.0333   -8.5767  -14.5844 O   0  0  0  0  0  0  0  0  0  0  0  0
   22.7996   -4.3219  -13.8736 N   0  0  0  0  0  0  0  0  0  0  0  0
   22.9980   -4.3974  -15.2762 C   0  0  0  0  0  0  0  0  0  0  0  0
   23.9131   -3.7298  -15.7887 O   0  0  0  0  0  0  0  0  0  0  0  0
   22.1373   -5.2456  -16.0806 C   0  0  0  0  0  0  0  0  0  0  0  0
   21.1438   -6.0565  -15.2807 C   0  0  2  0  0  0  0  0  0  0  0  0
   20.3110   -6.8774  -16.1175 N   0  0  0  0  0  0  0  0  0  0  0  0
   20.3223   -5.1943  -14.3925 C   0  0  0  0  0  0  0  0  0  0  0  0
   19.3191   -4.5841  -14.8300 O   0  0  0  0  0  0  0  0  0  0  0  0
   20.6360   -5.0347  -13.0502 O   0  0  0  0  0  0  0  0  0  0  0  0
  2  1  1  6
  3  2  1  0
  4  2  1  0
  4  5  1  0
  5  6  1  1
  7  5  1  0
  7  8  2  0
 10 12  1  0
 10  9  1  0
 11 10  2  0
 13 12  1  1
 13 14  1  0
 14  7  1  0
 15 13  1  0
 16 15  2  0
 18 17  1  0
 19 18  2  0
 20 18  1  0
 21 20  1  6
 21 22  1  0
 22 15  1  0
 23 21  1  0
 24 23  2  0
 25 23  1  0
M  END
$$$$
