LNN.pdb
     RDKit          3D

 25 24  0  0  1  0  0  0  0  0999 V2000
   26.6854  -13.3706  -15.6729 C   0  0  0  0  0  0  0  0  0  0  0  0
   26.9372  -12.2885  -16.6736 C   0  0  2  0  0  0  0  0  0  0  0  0
   28.1225  -11.4679  -16.1407 C   0  0  0  0  0  0  0  0  0  0  0  0
   25.8209  -11.3312  -16.8899 C   0  0  0  0  0  0  0  0  0  0  0  0
   24.5380  -11.9125  -17.3941 C   0  0  2  0  0  0  0  0  0  0  0  0
   24.7520  -12.6092  -18.6141 N   0  0  0  0  0  0  0  0  0  0  0  0
   23.5392  -10.8237  -17.4451 C   0  0  0  0  0  0  0  0  0  0  0  0
   23.5553  -10.0907  -18.4917 O   0  0  0  0  0  0  0  0  0  0  0  0
   18.5067   -8.8056  -17.7453 N   0  0  0  0  0  0  0  0  0  0  0  0
   19.1970   -9.0121  -16.5185 C   0  0  0  0  0  0  0  0  0  0  0  0
   18.8556   -8.2921  -15.5343 O   0  0  0  0  0  0  0  0  0  0  0  0
   20.2747  -10.0062  -16.3301 C   0  0  0  0  0  0  0  0  0  0  0  0
   21.6374   -9.4317  -16.6955 C   0  0  2  0  0  0  0  0  0  0  0  0
   22.5821  -10.5158  -16.4678 N   0  0  0  0  0  0  0  0  0  0  0  0
   21.9382   -8.2583  -15.8516 C   0  0  0  0  0  0  0  0  0  0  0  0
   22.9503   -8.3043  -15.1109 O   0  0  0  0  0  0  0  0  0  0  0  0
   22.3451   -3.3545  -14.3313 N   0  0  0  0  0  0  0  0  0  0  0  0
   23.2574   -4.0826  -15.1375 C   0  0  0  0  0  0  0  0  0  0  0  0
   24.3785   -3.5950  -15.3635 O   0  0  0  0  0  0  0  0  0  0  0  0
   22.8694   -5.3725  -15.6787 C   0  0  0  0  0  0  0  0  0  0  0  0
   21.5079   -5.8495  -15.2278 C   0  0  2  0  0  0  0  0  0  0  0  0
   21.1330   -7.0918  -15.8473 N   0  0  0  0  0  0  0  0  0  0  0  0
   20.4661   -4.8118  -15.4403 C   0  0  0  0  0  0  0  0  0  0  0  0
   19.8994   -4.6813  -16.5502 O   0  0  0  0  0  0  0  0  0  0  0  0
   20.0847   -3.9526  -14.4196 O   0  0  0  0  0  0  0  0  0  0  0  0
  2  1  1  1
  3  2  1  0
  4  2  1  0
  4  5  1  0
  5  6  1  6
  7  5  1  0
  7  8  2  0
 10 12  1  0
 10  9  1  0
 11 10  2  0
 13 12  1  1
 13 14  1  0
 14  7  1  0
 15 13  1  0
 16 15  2  0
 18 17  1  0
 19 18  2  0
 20 18  1  0
 21 20  1  6
 21 22  1  0
 22 15  1  0
 23 21  1  0
 24 23  2  0
 25 23  1  0
M  END
$$$$
