LNN.pdb
     RDKit          3D

 25 24  0  0  1  0  0  0  0  0999 V2000
   26.1242  -22.6115  -10.4481 C   0  0  0  0  0  0  0  0  0  0  0  0
   26.3597  -21.1596  -10.7174 C   0  0  2  0  0  0  0  0  0  0  0  0
   25.9339  -20.4052   -9.4478 C   0  0  0  0  0  0  0  0  0  0  0  0
   25.5830  -20.5730  -11.8407 C   0  0  0  0  0  0  0  0  0  0  0  0
   25.6992  -21.2678  -13.1606 C   0  0  2  0  0  0  0  0  0  0  0  0
   26.9739  -21.0260  -13.7404 N   0  0  0  0  0  0  0  0  0  0  0  0
   24.5360  -20.8713  -13.9824 C   0  0  0  0  0  0  0  0  0  0  0  0
   24.6355  -19.7588  -14.6030 O   0  0  0  0  0  0  0  0  0  0  0  0
   20.4578  -20.6398  -17.1739 N   0  0  0  0  0  0  0  0  0  0  0  0
   21.0571  -21.9235  -17.0423 C   0  0  0  0  0  0  0  0  0  0  0  0
   20.7650  -22.7908  -17.9175 O   0  0  0  0  0  0  0  0  0  0  0  0
   21.9890  -22.2966  -15.9572 C   0  0  0  0  0  0  0  0  0  0  0  0
   22.3295  -21.1021  -15.0751 C   0  0  2  0  0  0  0  0  0  0  0  0
   23.3424  -21.5879  -14.1491 N   0  0  0  0  0  0  0  0  0  0  0  0
   21.1225  -20.6315  -14.3671 C   0  0  0  0  0  0  0  0  0  0  0  0
   20.7232  -21.2879  -13.3747 O   0  0  0  0  0  0  0  0  0  0  0  0
   17.0869  -17.7428  -12.8287 N   0  0  0  0  0  0  0  0  0  0  0  0
   17.9975  -16.8884  -13.5019 C   0  0  0  0  0  0  0  0  0  0  0  0
   17.7860  -15.6633  -13.4955 O   0  0  0  0  0  0  0  0  0  0  0  0
   19.1496  -17.4546  -14.1795 C   0  0  0  0  0  0  0  0  0  0  0  0
   19.2538  -18.9587  -14.0729 C   0  0  2  0  0  0  0  0  0  0  0  0
   20.4042  -19.4756  -14.7636 N   0  0  0  0  0  0  0  0  0  0  0  0
   18.0099  -19.6277  -14.5337 C   0  0  0  0  0  0  0  0  0  0  0  0
   17.7025  -19.6571  -15.7481 O   0  0  0  0  0  0  0  0  0  0  0  0
   17.1467  -20.2424  -13.6378 O   0  0  0  0  0  0  0  0  0  0  0  0
  2  1  1  1
  3  2  1  0
  4  2  1  0
  4  5  1  0
  5  6  1  6
  7  5  1  0
  7  8  2  0
 10 12  1  0
 10  9  1  0
 11 10  2  0
 13 12  1  6
 13 14  1  0
 14  7  1  0
 15 13  1  0
 16 15  2  0
 18 17  1  0
 19 18  2  0
 20 18  1  0
 21 20  1  6
 21 22  1  0
 22 15  1  0
 23 21  1  0
 24 23  2  0
 25 23  1  0
M  END
$$$$
