LNN.pdb
     RDKit          3D

 25 24  0  0  1  0  0  0  0  0999 V2000
   26.0983  -18.2919  -17.0609 C   0  0  0  0  0  0  0  0  0  0  0  0
   26.7438  -19.0802  -15.9664 C   0  0  2  0  0  0  0  0  0  0  0  0
   27.9546  -18.2603  -15.4932 C   0  0  0  0  0  0  0  0  0  0  0  0
   27.2614  -20.4199  -16.3492 C   0  0  0  0  0  0  0  0  0  0  0  0
   27.4110  -21.4138  -15.2411 C   0  0  2  0  0  0  0  0  0  0  0  0
   27.8612  -22.6623  -15.7489 N   0  0  0  0  0  0  0  0  0  0  0  0
   26.1368  -21.4488  -14.4922 C   0  0  0  0  0  0  0  0  0  0  0  0
   25.2649  -22.2894  -14.8997 O   0  0  0  0  0  0  0  0  0  0  0  0
   23.4638  -21.5729   -9.4129 N   0  0  0  0  0  0  0  0  0  0  0  0
   23.5877  -20.5657  -10.4101 C   0  0  0  0  0  0  0  0  0  0  0  0
   22.6060  -19.7809  -10.5650 O   0  0  0  0  0  0  0  0  0  0  0  0
   24.7814  -20.3856  -11.2634 C   0  0  0  0  0  0  0  0  0  0  0  0
   24.5494  -20.9182  -12.6716 C   0  0  2  0  0  0  0  0  0  0  0  0
   25.7903  -20.6585  -13.3871 N   0  0  0  0  0  0  0  0  0  0  0  0
   23.4038  -20.2267  -13.2952 C   0  0  0  0  0  0  0  0  0  0  0  0
   23.5603  -19.0392  -13.6701 O   0  0  0  0  0  0  0  0  0  0  0  0
   20.3218  -20.1144  -17.9538 N   0  0  0  0  0  0  0  0  0  0  0  0
   20.4251  -19.7873  -16.5774 C   0  0  0  0  0  0  0  0  0  0  0  0
   20.0086  -18.6812  -16.1915 O   0  0  0  0  0  0  0  0  0  0  0  0
   21.0092  -20.7415  -15.6523 C   0  0  0  0  0  0  0  0  0  0  0  0
   21.0536  -20.2666  -14.2181 C   0  0  2  0  0  0  0  0  0  0  0  0
   22.1445  -20.8493  -13.4847 N   0  0  0  0  0  0  0  0  0  0  0  0
   19.7604  -20.4982  -13.5244 C   0  0  0  0  0  0  0  0  0  0  0  0
   18.9854  -19.5481  -13.2657 O   0  0  0  0  0  0  0  0  0  0  0  0
   19.3660  -21.7716  -13.1395 O   0  0  0  0  0  0  0  0  0  0  0  0
  2  1  1  6
  3  2  1  0
  4  2  1  0
  4  5  1  0
  5  6  1  6
  7  5  1  0
  7  8  2  0
 10 12  1  0
 10  9  1  0
 11 10  2  0
 13 12  1  1
 13 14  1  0
 14  7  1  0
 15 13  1  0
 16 15  2  0
 18 17  1  0
 19 18  2  0
 20 18  1  0
 21 20  1  6
 21 22  1  0
 22 15  1  0
 23 21  1  0
 24 23  2  0
 25 23  1  0
M  END
$$$$
