LNN.pdb
     RDKit          3D

 25 24  0  0  1  0  0  0  0  0999 V2000
   17.9422  -13.3656  -16.9426 C   0  0  0  0  0  0  0  0  0  0  0  0
   19.3735  -13.4070  -16.5117 C   0  0  2  0  0  0  0  0  0  0  0  0
   19.4399  -14.3606  -15.3083 C   0  0  0  0  0  0  0  0  0  0  0  0
   19.9541  -12.1147  -16.0622 C   0  0  0  0  0  0  0  0  0  0  0  0
   20.0636  -11.0414  -17.0987 C   0  0  2  0  0  0  0  0  0  0  0  0
   20.5508  -11.5772  -18.3214 N   0  0  0  0  0  0  0  0  0  0  0  0
   20.8591   -9.9370  -16.5214 C   0  0  0  0  0  0  0  0  0  0  0  0
   20.4525   -9.4726  -15.4025 O   0  0  0  0  0  0  0  0  0  0  0  0
   24.3663   -6.1935  -15.3936 N   0  0  0  0  0  0  0  0  0  0  0  0
   24.9030   -7.1916  -16.2537 C   0  0  0  0  0  0  0  0  0  0  0  0
   26.1419   -7.1301  -16.5090 O   0  0  0  0  0  0  0  0  0  0  0  0
   24.1076   -8.2815  -16.8575 C   0  0  0  0  0  0  0  0  0  0  0  0
   22.6601   -8.2477  -16.3841 C   0  0  2  0  0  0  0  0  0  0  0  0
   22.0072   -9.3513  -17.0734 N   0  0  0  0  0  0  0  0  0  0  0  0
   22.0435   -6.9499  -16.7235 C   0  0  0  0  0  0  0  0  0  0  0  0
   22.0384   -6.5923  -17.9265 O   0  0  0  0  0  0  0  0  0  0  0  0
   17.2949   -3.5224  -15.5873 N   0  0  0  0  0  0  0  0  0  0  0  0
   18.5693   -3.7480  -16.1682 C   0  0  0  0  0  0  0  0  0  0  0  0
   19.0419   -2.8860  -16.9292 O   0  0  0  0  0  0  0  0  0  0  0  0
   19.2923   -4.9699  -15.8658 C   0  0  0  0  0  0  0  0  0  0  0  0
   20.7892   -4.8651  -16.0474 C   0  0  2  0  0  0  0  0  0  0  0  0
   21.4621   -6.1004  -15.7491 N   0  0  0  0  0  0  0  0  0  0  0  0
   21.3593   -3.7431  -15.2580 C   0  0  0  0  0  0  0  0  0  0  0  0
   21.7810   -3.9210  -14.0915 O   0  0  0  0  0  0  0  0  0  0  0  0
   21.4449   -2.4616  -15.7832 O   0  0  0  0  0  0  0  0  0  0  0  0
  2  1  1  1
  3  2  1  0
  4  2  1  0
  4  5  1  0
  5  6  1  6
  7  5  1  0
  7  8  2  0
 10 12  1  0
 10  9  1  0
 11 10  2  0
 13 12  1  6
 13 14  1  0
 14  7  1  0
 15 13  1  0
 16 15  2  0
 18 17  1  0
 19 18  2  0
 20 18  1  0
 21 20  1  1
 21 22  1  0
 22 15  1  0
 23 21  1  0
 24 23  2  0
 25 23  1  0
M  END
$$$$
