LNN.pdb
     RDKit          3D

 25 24  0  0  1  0  0  0  0  0999 V2000
   30.2500    6.0998  -96.3436 C   0  0  0  0  0  0  0  0  0  0  0  0
   29.2756    7.0289  -96.9942 C   0  0  2  0  0  0  0  0  0  0  0  0
   30.0543    7.7875  -98.0807 C   0  0  0  0  0  0  0  0  0  0  0  0
   28.6692    8.0579  -96.1095 C   0  0  0  0  0  0  0  0  0  0  0  0
   27.6123    7.5798  -95.1648 C   0  0  2  0  0  0  0  0  0  0  0  0
   27.3798    8.5445  -94.1476 N   0  0  0  0  0  0  0  0  0  0  0  0
   28.0039    6.2342  -94.6941 C   0  0  0  0  0  0  0  0  0  0  0  0
   29.1808    6.1260  -94.2082 O   0  0  0  0  0  0  0  0  0  0  0  0
   26.4147    1.5437  -91.7863 N   0  0  0  0  0  0  0  0  0  0  0  0
   26.7187    1.7528  -93.1604 C   0  0  0  0  0  0  0  0  0  0  0  0
   27.2730    0.7989  -93.7820 O   0  0  0  0  0  0  0  0  0  0  0  0
   26.4275    3.0031  -93.8935 C   0  0  0  0  0  0  0  0  0  0  0  0
   27.6684    3.8764  -94.0274 C   0  0  2  0  0  0  0  0  0  0  0  0
   27.2200    5.0722  -94.7262 N   0  0  0  0  0  0  0  0  0  0  0  0
   28.7152    3.1614  -94.7840 C   0  0  0  0  0  0  0  0  0  0  0  0
   28.5548    3.0095  -96.0195 O   0  0  0  0  0  0  0  0  0  0  0  0
   29.4783    3.0056  -97.0076 N   0  0  0  0  0  0  0  0  0  0  0  0
   30.3022    1.8533  -97.0829 C   0  0  0  0  0  0  0  0  0  0  0  0
   30.3167    1.1950  -98.1374 O   0  0  0  0  0  0  0  0  0  0  0  0
   31.1069    1.4673  -95.9380 C   0  0  0  0  0  0  0  0  0  0  0  0
   31.1518    2.5005  -94.8357 C   0  0  2  0  0  0  0  0  0  0  0  0
   29.8845    2.6446  -94.1718 N   0  0  0  0  0  0  0  0  0  0  0  0
   31.6455    3.8105  -95.3329 C   0  0  0  0  0  0  0  0  0  0  0  0
   32.7025    3.8927  -96.0009 O   0  0  0  0  0  0  0  0  0  0  0  0
   30.9552    4.9865  -95.0760 O   0  0  0  0  0  0  0  0  0  0  0  0
  2  1  1  1
  3  2  1  0
  4  2  1  0
  4  5  1  0
  5  6  1  1
  7  5  1  0
  7  8  2  0
 10 12  1  0
 10  9  1  0
 11 10  2  0
 13 12  1  6
 13 14  1  0
 14  7  1  0
 15 13  1  0
 16 15  2  0
 18 17  1  0
 19 18  2  0
 20 18  1  0
 21 20  1  6
 21 22  1  0
 22 15  1  0
 23 21  1  0
 24 23  2  0
 25 23  1  0
M  END
$$$$
