LNN.pdb
     RDKit          3D

 25 24  0  0  1  0  0  0  0  0999 V2000
   26.2666  -17.4028  -20.0224 C   0  0  0  0  0  0  0  0  0  0  0  0
   25.4013  -17.1869  -18.8221 C   0  0  2  0  0  0  0  0  0  0  0  0
   25.8793  -15.8806  -18.1683 C   0  0  0  0  0  0  0  0  0  0  0  0
   25.4718  -18.2375  -17.7731 C   0  0  0  0  0  0  0  0  0  0  0  0
   24.1952  -18.5443  -17.0558 C   0  0  2  0  0  0  0  0  0  0  0  0
   23.5942  -17.3496  -16.5752 N   0  0  0  0  0  0  0  0  0  0  0  0
   24.4886  -19.5703  -16.0326 C   0  0  0  0  0  0  0  0  0  0  0  0
   25.0227  -20.6519  -16.4540 O   0  0  0  0  0  0  0  0  0  0  0  0
   25.3413  -22.4228  -11.7447 N   0  0  0  0  0  0  0  0  0  0  0  0
   25.3648  -21.0246  -11.4826 C   0  0  0  0  0  0  0  0  0  0  0  0
   25.7302  -20.6587  -10.3267 O   0  0  0  0  0  0  0  0  0  0  0  0
   24.9925  -19.9891  -12.4698 C   0  0  0  0  0  0  0  0  0  0  0  0
   24.5436  -20.6068  -13.7880 C   0  0  2  0  0  0  0  0  0  0  0  0
   24.2419  -19.4774  -14.6555 N   0  0  0  0  0  0  0  0  0  0  0  0
   23.3597  -21.4621  -13.5725 C   0  0  0  0  0  0  0  0  0  0  0  0
   23.5013  -22.5126  -12.9006 O   0  0  0  0  0  0  0  0  0  0  0  0
   18.6175  -23.5321  -13.8224 N   0  0  0  0  0  0  0  0  0  0  0  0
   18.5865  -22.2295  -13.2614 C   0  0  0  0  0  0  0  0  0  0  0  0
   17.5600  -21.8574  -12.6668 O   0  0  0  0  0  0  0  0  0  0  0  0
   19.7437  -21.3624  -13.3900 C   0  0  0  0  0  0  0  0  0  0  0  0
   20.9410  -22.0191  -14.0378 C   0  0  2  0  0  0  0  0  0  0  0  0
   22.0800  -21.1431  -14.0920 N   0  0  0  0  0  0  0  0  0  0  0  0
   20.6118  -22.5499  -15.3858 C   0  0  0  0  0  0  0  0  0  0  0  0
   20.4938  -21.7852  -16.3714 O   0  0  0  0  0  0  0  0  0  0  0  0
   20.4240  -23.9078  -15.6005 O   0  0  0  0  0  0  0  0  0  0  0  0
  2  1  1  6
  3  2  1  0
  4  2  1  0
  4  5  1  0
  5  6  1  1
  7  5  1  0
  7  8  2  0
 10 12  1  0
 10  9  1  0
 11 10  2  0
 13 12  1  1
 13 14  1  0
 14  7  1  0
 15 13  1  0
 16 15  2  0
 18 17  1  0
 19 18  2  0
 20 18  1  0
 21 20  1  6
 21 22  1  0
 22 15  1  0
 23 21  1  0
 24 23  2  0
 25 23  1  0
M  END
$$$$
