LNN.pdb
     RDKit          3D

 25 24  0  0  1  0  0  0  0  0999 V2000
   23.5447  -36.6012  -16.3852 C   0  0  0  0  0  0  0  0  0  0  0  0
   24.8999  -36.7319  -15.7670 C   0  0  2  0  0  0  0  0  0  0  0  0
   24.9152  -38.0800  -15.0290 C   0  0  0  0  0  0  0  0  0  0  0  0
   25.2595  -35.6949  -14.7647 C   0  0  0  0  0  0  0  0  0  0  0  0
   25.2210  -34.2757  -15.2368 C   0  0  2  0  0  0  0  0  0  0  0  0
   26.4115  -33.9529  -15.9424 N   0  0  0  0  0  0  0  0  0  0  0  0
   24.9162  -33.4208  -14.0698 C   0  0  0  0  0  0  0  0  0  0  0  0
   25.8828  -32.7193  -13.6154 O   0  0  0  0  0  0  0  0  0  0  0  0
   22.4577  -31.5132  -14.6929 N   0  0  0  0  0  0  0  0  0  0  0  0
   21.6586  -31.5000  -13.5158 C   0  0  0  0  0  0  0  0  0  0  0  0
   20.4945  -31.0110  -13.6122 O   0  0  0  0  0  0  0  0  0  0  0  0
   22.1040  -32.0183  -12.2050 C   0  0  0  0  0  0  0  0  0  0  0  0
   23.5642  -32.4511  -12.2400 C   0  0  2  0  0  0  0  0  0  0  0  0
   23.6819  -33.3022  -13.4153 N   0  0  0  0  0  0  0  0  0  0  0  0
   23.9098  -33.1777  -11.0022 C   0  0  0  0  0  0  0  0  0  0  0  0
   23.8852  -34.4323  -11.0244 O   0  0  0  0  0  0  0  0  0  0  0  0
   25.8132  -34.3779   -6.3528 N   0  0  0  0  0  0  0  0  0  0  0  0
   26.1916  -33.0377   -6.6232 C   0  0  0  0  0  0  0  0  0  0  0  0
   26.9486  -32.4565   -5.8265 O   0  0  0  0  0  0  0  0  0  0  0  0
   25.6930  -32.3752   -7.8148 C   0  0  0  0  0  0  0  0  0  0  0  0
   24.6876  -33.1859   -8.5997 C   0  0  2  0  0  0  0  0  0  0  0  0
   24.2654  -32.5161   -9.8001 N   0  0  0  0  0  0  0  0  0  0  0  0
   23.5205  -33.5685   -7.7639 C   0  0  0  0  0  0  0  0  0  0  0  0
   22.3935  -33.0539   -7.9515 O   0  0  0  0  0  0  0  0  0  0  0  0
   23.6367  -34.5070   -6.7485 O   0  0  0  0  0  0  0  0  0  0  0  0
  2  1  1  1
  3  2  1  0
  4  2  1  0
  4  5  1  0
  5  6  1  1
  7  5  1  0
  7  8  2  0
 10 12  1  0
 10  9  1  0
 11 10  2  0
 13 12  1  1
 13 14  1  0
 14  7  1  0
 15 13  1  0
 16 15  2  0
 18 17  1  0
 19 18  2  0
 20 18  1  0
 21 20  1  1
 21 22  1  0
 22 15  1  0
 23 21  1  0
 24 23  2  0
 25 23  1  0
M  END
$$$$
