LNN.pdb
     RDKit          3D

 25 24  0  0  1  0  0  0  0  0999 V2000
   17.8962  -10.3279  -15.4832 C   0  0  0  0  0  0  0  0  0  0  0  0
   17.4429  -11.0395  -14.2487 C   0  0  2  0  0  0  0  0  0  0  0  0
   16.3735  -12.0494  -14.6944 C   0  0  0  0  0  0  0  0  0  0  0  0
   16.8155  -10.1902  -13.2026 C   0  0  0  0  0  0  0  0  0  0  0  0
   17.6051   -9.0020  -12.7523 C   0  0  2  0  0  0  0  0  0  0  0  0
   18.6794   -9.4061  -11.9144 N   0  0  0  0  0  0  0  0  0  0  0  0
   16.6604   -8.0316  -12.1595 C   0  0  0  0  0  0  0  0  0  0  0  0
   15.5751   -7.8335  -12.8041 O   0  0  0  0  0  0  0  0  0  0  0  0
   14.6690   -8.5985   -9.0578 N   0  0  0  0  0  0  0  0  0  0  0  0
   15.2488   -7.5104   -8.3478 C   0  0  0  0  0  0  0  0  0  0  0  0
   15.1662   -7.5342   -7.0844 O   0  0  0  0  0  0  0  0  0  0  0  0
   15.9333   -6.3698   -8.9926 C   0  0  0  0  0  0  0  0  0  0  0  0
   15.7858   -6.4115  -10.5082 C   0  0  2  0  0  0  0  0  0  0  0  0
   16.8334   -7.3113  -10.9690 N   0  0  0  0  0  0  0  0  0  0  0  0
   15.9421   -5.0563  -11.0725 C   0  0  0  0  0  0  0  0  0  0  0  0
   17.0959   -4.5654  -11.1258 O   0  0  0  0  0  0  0  0  0  0  0  0
   13.1673   -4.1719  -15.1181 N   0  0  0  0  0  0  0  0  0  0  0  0
   14.2217   -3.4921  -14.4558 C   0  0  0  0  0  0  0  0  0  0  0  0
   15.3649   -3.5413  -14.9419 O   0  0  0  0  0  0  0  0  0  0  0  0
   13.9492   -2.7573  -13.2339 C   0  0  0  0  0  0  0  0  0  0  0  0
   14.9609   -2.9860  -12.1346 C   0  0  2  0  0  0  0  0  0  0  0  0
   14.8463   -4.2957  -11.5523 N   0  0  0  0  0  0  0  0  0  0  0  0
   14.8848   -1.9303  -11.0921 C   0  0  0  0  0  0  0  0  0  0  0  0
   14.4290   -2.1786   -9.9516 O   0  0  0  0  0  0  0  0  0  0  0  0
   15.3147   -0.6352  -11.3437 O   0  0  0  0  0  0  0  0  0  0  0  0
  2  1  1  6
  3  2  1  0
  4  2  1  0
  4  5  1  0
  5  6  1  1
  7  5  1  0
  7  8  2  0
 10 12  1  0
 10  9  1  0
 11 10  2  0
 13 12  1  1
 13 14  1  0
 14  7  1  0
 15 13  1  0
 16 15  2  0
 18 17  1  0
 19 18  2  0
 20 18  1  0
 21 20  1  6
 21 22  1  0
 22 15  1  0
 23 21  1  0
 24 23  2  0
 25 23  1  0
M  END
$$$$
