RWH.pdb
     RDKit          3D

 36 38  0  0  1  0  0  0  0  0999 V2000
   24.5184  -34.8384  -10.2261 N   0  0  0  0  0  0  0  0  0  0  0  0
   24.6606  -34.6389  -11.6523 C   0  0  0  0  0  0  0  0  0  0  0  0
   25.2925  -35.5193  -12.3335 N   0  0  0  0  0  0  0  0  0  0  0  0
   24.1203  -33.4900  -12.2715 N   0  0  0  0  0  0  0  0  0  0  0  0
   23.4830  -32.4751  -11.4685 C   0  0  0  0  0  0  0  0  0  0  0  0
   22.0460  -32.2167  -11.8727 C   0  0  0  0  0  0  0  0  0  0  0  0
   21.4573  -31.1098  -11.0464 C   0  0  0  0  0  0  0  0  0  0  0  0
   20.1155  -31.5687  -10.5067 C   0  0  2  0  0  0  0  0  0  0  0  0
   19.0877  -30.6930  -11.0292 N   0  0  0  0  0  0  0  0  0  0  0  0
   20.1260  -31.7013   -9.0456 C   0  0  0  0  0  0  0  0  0  0  0  0
   20.8220  -30.8489   -8.3952 O   0  0  0  0  0  0  0  0  0  0  0  0
   25.4695  -35.3686  -13.3422 N   0  0  0  0  0  0  0  0  0  0  0  0
   19.4500  -32.6689   -8.2683 C   0  0  2  0  0  0  0  0  0  0  0  0
   19.6650  -32.7690   -6.8254 C   0  0  0  0  0  0  0  0  0  0  0  0
   18.4189  -33.3954   -6.2240 C   0  0  0  0  0  0  0  0  0  0  0  0
   17.2526  -32.5160   -6.2681 C   0  0  0  0  0  0  0  0  0  0  0  0
   16.6569  -32.0311   -7.4149 N   0  0  0  0  0  0  0  0  0  0  0  0
   15.5993  -31.2473   -7.0620 C   0  0  0  0  0  0  0  0  0  0  0  0
   15.4779  -31.2004   -5.7265 C   0  0  0  0  0  0  0  0  0  0  0  0
   14.6073  -30.5736   -4.8683 C   0  0  0  0  0  0  0  0  0  0  0  0
   14.7681  -30.7397   -3.5066 C   0  0  0  0  0  0  0  0  0  0  0  0
   15.7768  -31.5167   -2.9822 C   0  0  0  0  0  0  0  0  0  0  0  0
   16.6336  -32.1312   -3.8712 C   0  0  0  0  0  0  0  0  0  0  0  0
   16.5183  -31.9983   -5.2287 C   0  0  0  0  0  0  0  0  0  0  0  0
   20.8811  -33.4997   -6.5014 O   0  0  0  0  0  0  0  0  0  0  0  0
   21.2796  -34.5125   -7.1491 N   0  0  0  0  0  0  0  0  0  0  0  0
   21.6808  -33.0707   -5.4091 C   0  0  1  0  0  0  0  0  0  0  0  0
   22.9595  -33.7204   -5.0525 C   0  0  0  0  0  0  0  0  0  0  0  0
   24.0515  -32.7531   -5.3256 C   0  0  0  0  0  0  0  0  0  0  0  0
   24.6982  -32.8655   -6.6449 C   0  0  0  0  0  0  0  0  0  0  0  0
   24.2440  -32.7703   -7.9232 N   0  0  0  0  0  0  0  0  0  0  0  0
   25.3210  -32.8852   -8.7387 C   0  0  0  0  0  0  0  0  0  0  0  0
   26.4195  -33.0459   -8.0175 N   0  0  0  0  0  0  0  0  0  0  0  0
   26.0561  -33.0355   -6.7392 C   0  0  0  0  0  0  0  0  0  0  0  0
   22.8626  -34.1300   -3.6228 O   0  0  0  0  0  0  0  0  0  0  0  0
   21.9170  -33.6512   -2.7807 O   0  0  0  0  0  0  0  0  0  0  0  0
  1  2  1  0
  2  3  2  0
  4  5  1  0
  4  2  1  0
  5  6  1  0
  7  6  1  0
  8  9  1  1
  8  7  1  0
 10  8  1  0
 11 10  2  0
 12 10  1  0
 13 12  1  0
 13 14  1  6
 15 14  1  0
 16 15  2  0
 17 16  1  0
 18 17  1  0
 18 23  2  0
 19 20  2  0
 19 18  1  0
 20 21  1  0
 21 22  2  0
 23 22  1  0
 23 15  1  0
 24 25  2  0
 24 13  1  0
 26 24  1  0
 27 26  1  0
 27 28  1  1
 28 29  1  0
 29 33  1  0
 30 29  2  0
 30 31  1  0
 31 32  1  0
 33 32  2  0
 34 27  1  0
 35 34  1  0
 36 34  2  0
M  END
$$$$
