RWH.pdb
     RDKit          3D

 36 38  0  0  1  0  0  0  0  0999 V2000
   28.8385  -24.5742  -19.2817 N   0  0  0  0  0  0  0  0  0  0  0  0
   28.3871  -25.7933  -19.9176 C   0  0  0  0  0  0  0  0  0  0  0  0
   29.2436  -26.5123  -20.5404 N   0  0  0  0  0  0  0  0  0  0  0  0
   27.0272  -26.1706  -19.8571 N   0  0  0  0  0  0  0  0  0  0  0  0
   26.2015  -25.7057  -18.7694 C   0  0  0  0  0  0  0  0  0  0  0  0
   26.9014  -25.7671  -17.4272 C   0  0  0  0  0  0  0  0  0  0  0  0
   25.9542  -25.3990  -16.3219 C   0  0  0  0  0  0  0  0  0  0  0  0
   25.6237  -23.9227  -16.4382 C   0  0  2  0  0  0  0  0  0  0  0  0
   26.8644  -23.1784  -16.4940 N   0  0  0  0  0  0  0  0  0  0  0  0
   24.6899  -23.4838  -15.3951 C   0  0  0  0  0  0  0  0  0  0  0  0
   24.2376  -24.3860  -14.6106 O   0  0  0  0  0  0  0  0  0  0  0  0
   28.9444  -27.3786  -21.0214 N   0  0  0  0  0  0  0  0  0  0  0  0
   24.2297  -22.1692  -15.1552 C   0  0  1  0  0  0  0  0  0  0  0  0
   23.3011  -21.8770  -14.0641 C   0  0  0  0  0  0  0  0  0  0  0  0
   23.6740  -20.5154  -13.5042 C   0  0  0  0  0  0  0  0  0  0  0  0
   24.8427  -20.5526  -12.6277 C   0  0  0  0  0  0  0  0  0  0  0  0
   26.1579  -20.4937  -13.0421 N   0  0  0  0  0  0  0  0  0  0  0  0
   26.9662  -20.5536  -11.9464 C   0  0  0  0  0  0  0  0  0  0  0  0
   26.2306  -20.6487  -10.8282 C   0  0  0  0  0  0  0  0  0  0  0  0
   26.5330  -20.7370   -9.4910 C   0  0  0  0  0  0  0  0  0  0  0  0
   25.5048  -20.8244   -8.5728 C   0  0  0  0  0  0  0  0  0  0  0  0
   24.1829  -20.8251   -8.9583 C   0  0  0  0  0  0  0  0  0  0  0  0
   23.9141  -20.7357  -10.3081 C   0  0  0  0  0  0  0  0  0  0  0  0
   24.8956  -20.6482  -11.2582 C   0  0  0  0  0  0  0  0  0  0  0  0
   21.9119  -21.9549  -14.4905 O   0  0  0  0  0  0  0  0  0  0  0  0
   21.5123  -21.5894  -15.6354 N   0  0  0  0  0  0  0  0  0  0  0  0
   20.9366  -22.4681  -13.5950 C   0  0  1  0  0  0  0  0  0  0  0  0
   19.5073  -22.5845  -13.9527 C   0  0  0  0  0  0  0  0  0  0  0  0
   18.8990  -23.6056  -13.0637 C   0  0  0  0  0  0  0  0  0  0  0  0
   17.4534  -23.8334  -13.2374 C   0  0  0  0  0  0  0  0  0  0  0  0
   16.4443  -23.0922  -13.7680 N   0  0  0  0  0  0  0  0  0  0  0  0
   15.3244  -23.8553  -13.7262 C   0  0  0  0  0  0  0  0  0  0  0  0
   15.6007  -25.0355  -13.1936 N   0  0  0  0  0  0  0  0  0  0  0  0
   16.8947  -25.0375  -12.8910 C   0  0  0  0  0  0  0  0  0  0  0  0
   18.9052  -21.2286  -13.8111 O   0  0  0  0  0  0  0  0  0  0  0  0
   17.8809  -20.7921  -14.5812 O   0  0  0  0  0  0  0  0  0  0  0  0
  1  2  1  0
  2  3  2  0
  4  5  1  0
  4  2  1  0
  5  6  1  0
  7  6  1  0
  8  9  1  1
  8  7  1  0
 10  8  1  0
 11 10  2  0
 12 10  1  0
 13 12  1  0
 13 14  1  1
 15 14  1  0
 16 15  2  0
 17 16  1  0
 18 17  1  0
 18 23  2  0
 19 20  2  0
 19 18  1  0
 20 21  1  0
 21 22  2  0
 23 22  1  0
 23 15  1  0
 24 25  2  0
 24 13  1  0
 26 24  1  0
 27 26  1  0
 27 28  1  1
 28 29  1  0
 29 33  1  0
 30 29  2  0
 30 31  1  0
 31 32  1  0
 33 32  2  0
 34 27  1  0
 35 34  1  0
 36 34  2  0
M  END
$$$$
