RWH.pdb
     RDKit          3D

 36 38  0  0  1  0  0  0  0  0999 V2000
   20.2863  -10.8023    7.3652 N   0  0  0  0  0  0  0  0  0  0  0  0
   20.7964  -11.4745    6.1895 C   0  0  0  0  0  0  0  0  0  0  0  0
   22.0498  -11.4037    5.9394 N   0  0  0  0  0  0  0  0  0  0  0  0
   19.9230  -12.1832    5.3351 N   0  0  0  0  0  0  0  0  0  0  0  0
   18.4959  -12.0627    5.5081 C   0  0  0  0  0  0  0  0  0  0  0  0
   17.7331  -13.2627    4.9853 C   0  0  0  0  0  0  0  0  0  0  0  0
   18.0321  -14.4788    5.8139 C   0  0  0  0  0  0  0  0  0  0  0  0
   17.2337  -15.6469    5.2659 C   0  0  2  0  0  0  0  0  0  0  0  0
   15.8252  -15.3649    5.4479 N   0  0  0  0  0  0  0  0  0  0  0  0
   17.6809  -16.9287    5.8225 C   0  0  0  0  0  0  0  0  0  0  0  0
   17.2507  -17.2320    6.9873 O   0  0  0  0  0  0  0  0  0  0  0  0
   22.4434  -11.8859    5.1124 N   0  0  0  0  0  0  0  0  0  0  0  0
   18.5381  -17.8740    5.2150 C   0  0  2  0  0  0  0  0  0  0  0  0
   19.0969  -18.9911    5.9751 C   0  0  0  0  0  0  0  0  0  0  0  0
   19.5090  -20.0581    4.9759 C   0  0  0  0  0  0  0  0  0  0  0  0
   18.3846  -20.6054    4.2199 C   0  0  0  0  0  0  0  0  0  0  0  0
   17.2610  -19.9033    3.8330 N   0  0  0  0  0  0  0  0  0  0  0  0
   16.4342  -20.7420    3.1472 C   0  0  0  0  0  0  0  0  0  0  0  0
   16.9735  -21.9683    3.0688 C   0  0  0  0  0  0  0  0  0  0  0  0
   16.5705  -23.1543    2.5046 C   0  0  0  0  0  0  0  0  0  0  0  0
   17.3893  -24.2617    2.6092 C   0  0  0  0  0  0  0  0  0  0  0  0
   18.6002  -24.2125    3.2630 C   0  0  0  0  0  0  0  0  0  0  0  0
   18.9743  -23.0069    3.8185 C   0  0  0  0  0  0  0  0  0  0  0  0
   18.1996  -21.8808    3.7440 C   0  0  0  0  0  0  0  0  0  0  0  0
   20.1882  -18.5731    6.8423 O   0  0  0  0  0  0  0  0  0  0  0  0
   21.1437  -17.8373    6.4554 N   0  0  0  0  0  0  0  0  0  0  0  0
   20.2014  -18.9962    8.1979 C   0  0  1  0  0  0  0  0  0  0  0  0
   21.3406  -18.7381    9.1034 C   0  0  0  0  0  0  0  0  0  0  0  0
   20.8086  -18.0905   10.3284 C   0  0  0  0  0  0  0  0  0  0  0  0
   20.5545  -16.6420   10.2341 C   0  0  0  0  0  0  0  0  0  0  0  0
   20.5618  -15.7536    9.2045 N   0  0  0  0  0  0  0  0  0  0  0  0
   20.1707  -14.5569    9.7076 C   0  0  0  0  0  0  0  0  0  0  0  0
   19.9216  -14.6703   11.0029 N   0  0  0  0  0  0  0  0  0  0  0  0
   20.1506  -15.9356   11.3385 C   0  0  0  0  0  0  0  0  0  0  0  0
   22.0081  -20.0464    9.3564 O   0  0  0  0  0  0  0  0  0  0  0  0
   21.5319  -21.2216    8.8825 O   0  0  0  0  0  0  0  0  0  0  0  0
  1  2  1  0
  2  3  2  0
  4  5  1  0
  4  2  1  0
  5  6  1  0
  7  6  1  0
  8  9  1  1
  8  7  1  0
 10  8  1  0
 11 10  2  0
 12 10  1  0
 13 12  1  0
 13 14  1  6
 15 14  1  0
 16 15  2  0
 17 16  1  0
 18 17  1  0
 18 23  2  0
 19 20  2  0
 19 18  1  0
 20 21  1  0
 21 22  2  0
 23 22  1  0
 23 15  1  0
 24 25  2  0
 24 13  1  0
 26 24  1  0
 27 26  1  0
 27 28  1  1
 28 29  1  0
 29 33  1  0
 30 29  2  0
 30 31  1  0
 31 32  1  0
 33 32  2  0
 34 27  1  0
 35 34  1  0
 36 34  2  0
M  END
$$$$
