RWH.pdb
     RDKit          3D

 36 38  0  0  1  0  0  0  0  0999 V2000
   27.6332  -20.3563  -18.4311 N   0  0  0  0  0  0  0  0  0  0  0  0
   28.9943  -20.1458  -17.9871 C   0  0  0  0  0  0  0  0  0  0  0  0
   29.9291  -20.8275  -18.5347 N   0  0  0  0  0  0  0  0  0  0  0  0
   29.2772  -19.2139  -16.9640 N   0  0  0  0  0  0  0  0  0  0  0  0
   28.1962  -18.6187  -16.2169 C   0  0  0  0  0  0  0  0  0  0  0  0
   27.4935  -19.6044  -15.3060 C   0  0  0  0  0  0  0  0  0  0  0  0
   27.9223  -19.4030  -13.8812 C   0  0  0  0  0  0  0  0  0  0  0  0
   28.1180  -20.7627  -13.2369 C   0  0  2  0  0  0  0  0  0  0  0  0
   28.2099  -21.7574  -14.2851 N   0  0  0  0  0  0  0  0  0  0  0  0
   27.1025  -21.0388  -12.2146 C   0  0  0  0  0  0  0  0  0  0  0  0
   26.1302  -21.7942  -12.5582 O   0  0  0  0  0  0  0  0  0  0  0  0
   30.9013  -20.7502  -18.1879 N   0  0  0  0  0  0  0  0  0  0  0  0
   27.0751  -20.5633  -10.8840 C   0  0  1  0  0  0  0  0  0  0  0  0
   25.8902  -20.7279  -10.0431 C   0  0  0  0  0  0  0  0  0  0  0  0
   26.1868  -20.0674   -8.7080 C   0  0  0  0  0  0  0  0  0  0  0  0
   27.4246  -20.5412   -8.0925 C   0  0  0  0  0  0  0  0  0  0  0  0
   28.3479  -21.3761   -8.6886 N   0  0  0  0  0  0  0  0  0  0  0  0
   29.3687  -21.5975   -7.8131 C   0  0  0  0  0  0  0  0  0  0  0  0
   29.1502  -20.9382   -6.6649 C   0  0  0  0  0  0  0  0  0  0  0  0
   29.8434  -20.8207   -5.4846 C   0  0  0  0  0  0  0  0  0  0  0  0
   29.3215  -20.0388   -4.4727 C   0  0  0  0  0  0  0  0  0  0  0  0
   28.1249  -19.3718   -4.6117 C   0  0  0  0  0  0  0  0  0  0  0  0
   27.4543  -19.5117   -5.8088 C   0  0  0  0  0  0  0  0  0  0  0  0
   27.9274  -20.2748   -6.8420 C   0  0  0  0  0  0  0  0  0  0  0  0
   24.6893  -20.2081  -10.6798 O   0  0  0  0  0  0  0  0  0  0  0  0
   24.7109  -19.4044  -11.6583 N   0  0  0  0  0  0  0  0  0  0  0  0
   23.4157  -20.6123  -10.1987 C   0  0  1  0  0  0  0  0  0  0  0  0
   22.1913  -20.5395  -11.0231 C   0  0  0  0  0  0  0  0  0  0  0  0
   22.3467  -21.4913  -12.1513 C   0  0  0  0  0  0  0  0  0  0  0  0
   22.4085  -20.8929  -13.4965 C   0  0  0  0  0  0  0  0  0  0  0  0
   22.2962  -19.6205  -13.9631 N   0  0  0  0  0  0  0  0  0  0  0  0
   22.5199  -19.6645  -15.2995 C   0  0  0  0  0  0  0  0  0  0  0  0
   22.7666  -20.9096  -15.6762 N   0  0  0  0  0  0  0  0  0  0  0  0
   22.7027  -21.6699  -14.5881 C   0  0  0  0  0  0  0  0  0  0  0  0
   21.0390  -20.8488  -10.1299 O   0  0  0  0  0  0  0  0  0  0  0  0
   19.8177  -20.2843  -10.2790 O   0  0  0  0  0  0  0  0  0  0  0  0
  1  2  1  0
  2  3  2  0
  4  5  1  0
  4  2  1  0
  5  6  1  0
  7  6  1  0
  8  9  1  6
  8  7  1  0
 10  8  1  0
 11 10  2  0
 12 10  1  0
 13 12  1  0
 13 14  1  1
 15 14  1  0
 16 15  2  0
 17 16  1  0
 18 17  1  0
 18 23  2  0
 19 20  2  0
 19 18  1  0
 20 21  1  0
 21 22  2  0
 23 22  1  0
 23 15  1  0
 24 25  2  0
 24 13  1  0
 26 24  1  0
 27 26  1  0
 27 28  1  6
 28 29  1  0
 29 33  1  0
 30 29  2  0
 30 31  1  0
 31 32  1  0
 33 32  2  0
 34 27  1  0
 35 34  1  0
 36 34  2  0
M  END
$$$$
