RWH.pdb
     RDKit          3D

 36 38  0  0  1  0  0  0  0  0999 V2000
   31.0570  -17.7045  -17.3343 N   0  0  0  0  0  0  0  0  0  0  0  0
   30.8159  -19.0687  -17.7531 C   0  0  0  0  0  0  0  0  0  0  0  0
   31.8116  -19.7771  -18.1342 N   0  0  0  0  0  0  0  0  0  0  0  0
   29.5061  -19.5975  -17.7486 N   0  0  0  0  0  0  0  0  0  0  0  0
   28.4265  -18.8348  -17.1709 C   0  0  0  0  0  0  0  0  0  0  0  0
   27.0694  -19.4721  -17.3883 C   0  0  0  0  0  0  0  0  0  0  0  0
   26.4350  -19.8220  -16.0730 C   0  0  0  0  0  0  0  0  0  0  0  0
   27.2332  -20.9423  -15.4326 C   0  0  2  0  0  0  0  0  0  0  0  0
   27.3005  -22.0480  -16.3649 N   0  0  0  0  0  0  0  0  0  0  0  0
   26.7232  -21.2904  -14.1017 C   0  0  0  0  0  0  0  0  0  0  0  0
   25.5805  -21.8613  -14.0543 O   0  0  0  0  0  0  0  0  0  0  0  0
   31.6681  -20.7568  -18.4356 N   0  0  0  0  0  0  0  0  0  0  0  0
   27.3541  -21.0665  -12.8570 C   0  0  1  0  0  0  0  0  0  0  0  0
   26.6279  -21.2264  -11.5980 C   0  0  0  0  0  0  0  0  0  0  0  0
   27.6334  -21.0647  -10.4712 C   0  0  0  0  0  0  0  0  0  0  0  0
   27.0108  -20.7927   -9.1774 C   0  0  0  0  0  0  0  0  0  0  0  0
   25.6616  -20.8849   -8.9016 N   0  0  0  0  0  0  0  0  0  0  0  0
   25.4578  -20.5586   -7.5942 C   0  0  0  0  0  0  0  0  0  0  0  0
   26.6231  -20.2564   -7.0012 C   0  0  0  0  0  0  0  0  0  0  0  0
   26.9762  -19.8713   -5.7307 C   0  0  0  0  0  0  0  0  0  0  0  0
   28.3062  -19.6317   -5.4454 C   0  0  0  0  0  0  0  0  0  0  0  0
   29.2910  -19.7678   -6.3981 C   0  0  0  0  0  0  0  0  0  0  0  0
   28.9024  -20.1552   -7.6635 C   0  0  0  0  0  0  0  0  0  0  0  0
   27.5985  -20.4038   -7.9980 C   0  0  0  0  0  0  0  0  0  0  0  0
   25.5040  -20.3079  -11.4926 O   0  0  0  0  0  0  0  0  0  0  0  0
   25.6192  -19.0506  -11.5925 N   0  0  0  0  0  0  0  0  0  0  0  0
   24.2004  -20.8255  -11.2707 C   0  0  1  0  0  0  0  0  0  0  0  0
   22.9797  -20.1497  -11.7581 C   0  0  0  0  0  0  0  0  0  0  0  0
   23.1218  -19.9573  -13.2229 C   0  0  0  0  0  0  0  0  0  0  0  0
   22.0038  -19.2720  -13.8952 C   0  0  0  0  0  0  0  0  0  0  0  0
   21.6825  -17.9641  -14.0835 N   0  0  0  0  0  0  0  0  0  0  0  0
   20.5662  -17.9343  -14.8523 C   0  0  0  0  0  0  0  0  0  0  0  0
   20.1866  -19.1680  -15.1469 N   0  0  0  0  0  0  0  0  0  0  0  0
   21.0534  -19.9945  -14.5709 C   0  0  0  0  0  0  0  0  0  0  0  0
   21.8197  -21.0028  -11.3735 O   0  0  0  0  0  0  0  0  0  0  0  0
   21.9388  -22.3166  -11.0694 O   0  0  0  0  0  0  0  0  0  0  0  0
  1  2  1  0
  2  3  2  0
  4  5  1  0
  4  2  1  0
  5  6  1  0
  7  6  1  0
  8  9  1  6
  8  7  1  0
 10  8  1  0
 11 10  2  0
 12 10  1  0
 13 12  1  0
 13 14  1  1
 15 14  1  0
 16 15  2  0
 17 16  1  0
 18 17  1  0
 18 23  2  0
 19 20  2  0
 19 18  1  0
 20 21  1  0
 21 22  2  0
 23 22  1  0
 23 15  1  0
 24 25  2  0
 24 13  1  0
 26 24  1  0
 27 26  1  0
 27 28  1  1
 28 29  1  0
 29 33  1  0
 30 29  2  0
 30 31  1  0
 31 32  1  0
 33 32  2  0
 34 27  1  0
 35 34  1  0
 36 34  2  0
M  END
$$$$
