RWH.pdb
     RDKit          3D

 36 38  0  0  1  0  0  0  0  0999 V2000
   29.7722  -18.0366  -19.3403 N   0  0  0  0  0  0  0  0  0  0  0  0
   29.5925  -16.6968  -18.8236 C   0  0  0  0  0  0  0  0  0  0  0  0
   29.7387  -15.7078  -19.6229 N   0  0  0  0  0  0  0  0  0  0  0  0
   29.2728  -16.4915  -17.4631 N   0  0  0  0  0  0  0  0  0  0  0  0
   29.0526  -17.6254  -16.5990 C   0  0  0  0  0  0  0  0  0  0  0  0
   27.9120  -18.5089  -17.0613 C   0  0  0  0  0  0  0  0  0  0  0  0
   27.1218  -19.0071  -15.8857 C   0  0  0  0  0  0  0  0  0  0  0  0
   27.8397  -20.2044  -15.2914 C   0  0  2  0  0  0  0  0  0  0  0  0
   28.2451  -21.0785  -16.3721 N   0  0  0  0  0  0  0  0  0  0  0  0
   27.0496  -20.8534  -14.2391 C   0  0  0  0  0  0  0  0  0  0  0  0
   25.9673  -21.4277  -14.6033 O   0  0  0  0  0  0  0  0  0  0  0  0
   29.5921  -14.7402  -19.2858 N   0  0  0  0  0  0  0  0  0  0  0  0
   27.3494  -20.9181  -12.8595 C   0  0  2  0  0  0  0  0  0  0  0  0
   26.4761  -21.6270  -11.9251 C   0  0  0  0  0  0  0  0  0  0  0  0
   27.3125  -21.9917  -10.7109 C   0  0  0  0  0  0  0  0  0  0  0  0
   27.0124  -21.1743   -9.5373 C   0  0  0  0  0  0  0  0  0  0  0  0
   25.7697  -20.6742   -9.2051 N   0  0  0  0  0  0  0  0  0  0  0  0
   25.8782  -19.9631   -8.0475 C   0  0  0  0  0  0  0  0  0  0  0  0
   27.1456  -19.9786   -7.6071 C   0  0  0  0  0  0  0  0  0  0  0  0
   27.7851  -19.4353   -6.5192 C   0  0  0  0  0  0  0  0  0  0  0  0
   29.1402  -19.6495   -6.3590 C   0  0  0  0  0  0  0  0  0  0  0  0
   29.8709  -20.3932   -7.2585 C   0  0  0  0  0  0  0  0  0  0  0  0
   29.1985  -20.9237   -8.3396 C   0  0  0  0  0  0  0  0  0  0  0  0
   27.8576  -20.7403   -8.5450 C   0  0  0  0  0  0  0  0  0  0  0  0
   25.2912  -20.8528  -11.5869 O   0  0  0  0  0  0  0  0  0  0  0  0
   25.3345  -19.6571  -11.1719 N   0  0  0  0  0  0  0  0  0  0  0  0
   24.0087  -21.4467  -11.7257 C   0  0  1  0  0  0  0  0  0  0  0  0
   22.8238  -20.6898  -12.1809 C   0  0  0  0  0  0  0  0  0  0  0  0
   23.1365  -20.1158  -13.5134 C   0  0  0  0  0  0  0  0  0  0  0  0
   22.0474  -19.3670  -14.1652 C   0  0  0  0  0  0  0  0  0  0  0  0
   21.2854  -18.3043  -13.7916 N   0  0  0  0  0  0  0  0  0  0  0  0
   20.4865  -17.9971  -14.8430 C   0  0  0  0  0  0  0  0  0  0  0  0
   20.7246  -18.8243  -15.8490 N   0  0  0  0  0  0  0  0  0  0  0  0
   21.6740  -19.6648  -15.4511 C   0  0  0  0  0  0  0  0  0  0  0  0
   21.6723  -21.6359  -12.1890 O   0  0  0  0  0  0  0  0  0  0  0  0
   21.7408  -22.8770  -12.7254 O   0  0  0  0  0  0  0  0  0  0  0  0
  1  2  1  0
  2  3  2  0
  4  5  1  0
  4  2  1  0
  5  6  1  0
  7  6  1  0
  8  9  1  6
  8  7  1  0
 10  8  1  0
 11 10  2  0
 12 10  1  0
 13 12  1  0
 13 14  1  6
 15 14  1  0
 16 15  2  0
 17 16  1  0
 18 17  1  0
 18 23  2  0
 19 20  2  0
 19 18  1  0
 20 21  1  0
 21 22  2  0
 23 22  1  0
 23 15  1  0
 24 25  2  0
 24 13  1  0
 26 24  1  0
 27 26  1  0
 27 28  1  1
 28 29  1  0
 29 33  1  0
 30 29  2  0
 30 31  1  0
 31 32  1  0
 33 32  2  0
 34 27  1  0
 35 34  1  0
 36 34  2  0
M  END
$$$$
