RWH.pdb
     RDKit          3D

 36 38  0  0  1  0  0  0  0  0999 V2000
   32.9196  -24.4751  -15.3609 N   0  0  0  0  0  0  0  0  0  0  0  0
   32.8620  -24.8544  -16.7563 C   0  0  0  0  0  0  0  0  0  0  0  0
   33.6826  -25.7384  -17.1847 N   0  0  0  0  0  0  0  0  0  0  0  0
   31.9248  -24.2506  -17.6237 N   0  0  0  0  0  0  0  0  0  0  0  0
   31.0306  -23.2369  -17.1201 C   0  0  0  0  0  0  0  0  0  0  0  0
   30.0578  -22.7332  -18.1665 C   0  0  0  0  0  0  0  0  0  0  0  0
   28.7983  -22.2350  -17.5184 C   0  0  0  0  0  0  0  0  0  0  0  0
   28.1170  -23.3995  -16.8241 C   0  0  2  0  0  0  0  0  0  0  0  0
   27.7620  -24.3849  -17.8237 N   0  0  0  0  0  0  0  0  0  0  0  0
   27.0060  -22.9593  -15.9730 C   0  0  0  0  0  0  0  0  0  0  0  0
   25.8259  -23.2425  -16.3745 O   0  0  0  0  0  0  0  0  0  0  0  0
   33.6961  -25.9934  -18.1878 N   0  0  0  0  0  0  0  0  0  0  0  0
   27.0901  -22.2538  -14.7512 C   0  0  1  0  0  0  0  0  0  0  0  0
   25.8882  -21.8153  -14.0433 C   0  0  0  0  0  0  0  0  0  0  0  0
   26.2053  -21.8332  -12.5580 C   0  0  0  0  0  0  0  0  0  0  0  0
   25.0963  -21.3712  -11.7260 C   0  0  0  0  0  0  0  0  0  0  0  0
   25.1799  -20.4075  -10.7415 N   0  0  0  0  0  0  0  0  0  0  0  0
   23.9475  -20.2423  -10.1836 C   0  0  0  0  0  0  0  0  0  0  0  0
   23.0578  -21.0609  -10.7659 C   0  0  0  0  0  0  0  0  0  0  0  0
   21.7151  -21.2922  -10.5895 C   0  0  0  0  0  0  0  0  0  0  0  0
   21.0848  -22.2327  -11.3806 C   0  0  0  0  0  0  0  0  0  0  0  0
   21.7630  -22.9467  -12.3431 C   0  0  0  0  0  0  0  0  0  0  0  0
   23.1098  -22.6906  -12.4937 C   0  0  0  0  0  0  0  0  0  0  0  0
   23.7817  -21.7702  -11.7352 C   0  0  0  0  0  0  0  0  0  0  0  0
   25.4200  -20.5184  -14.5086 O   0  0  0  0  0  0  0  0  0  0  0  0
   25.9555  -19.4215  -14.1710 N   0  0  0  0  0  0  0  0  0  0  0  0
   24.3093  -20.4550  -15.3912 C   0  0  1  0  0  0  0  0  0  0  0  0
   23.6285  -19.1870  -15.7275 C   0  0  0  0  0  0  0  0  0  0  0  0
   22.6483  -19.4704  -16.8053 C   0  0  0  0  0  0  0  0  0  0  0  0
   21.9070  -18.3078  -17.3255 C   0  0  0  0  0  0  0  0  0  0  0  0
   22.0114  -16.9658  -17.1317 N   0  0  0  0  0  0  0  0  0  0  0  0
   21.1008  -16.3738  -17.9431 C   0  0  0  0  0  0  0  0  0  0  0  0
   20.4407  -17.2935  -18.6294 N   0  0  0  0  0  0  0  0  0  0  0  0
   20.9213  -18.4775  -18.2642 C   0  0  0  0  0  0  0  0  0  0  0  0
   23.0105  -18.6718  -14.4730 O   0  0  0  0  0  0  0  0  0  0  0  0
   23.1435  -17.3904  -14.0572 O   0  0  0  0  0  0  0  0  0  0  0  0
  1  2  1  0
  2  3  2  0
  4  5  1  0
  4  2  1  0
  5  6  1  0
  7  6  1  0
  8  9  1  6
  8  7  1  0
 10  8  1  0
 11 10  2  0
 12 10  1  0
 13 12  1  0
 13 14  1  6
 15 14  1  0
 16 15  2  0
 17 16  1  0
 18 17  1  0
 18 23  2  0
 19 20  2  0
 19 18  1  0
 20 21  1  0
 21 22  2  0
 23 22  1  0
 23 15  1  0
 24 25  2  0
 24 13  1  0
 26 24  1  0
 27 26  1  0
 27 28  1  1
 28 29  1  0
 29 33  1  0
 30 29  2  0
 30 31  1  0
 31 32  1  0
 33 32  2  0
 34 27  1  0
 35 34  1  0
 36 34  2  0
M  END
$$$$
