RWH.pdb
     RDKit          3D

 36 38  0  0  1  0  0  0  0  0999 V2000
   31.5202  -22.4679  -18.4557 N   0  0  0  0  0  0  0  0  0  0  0  0
   30.8063  -23.5572  -17.8247 C   0  0  0  0  0  0  0  0  0  0  0  0
   31.4492  -24.3366  -17.0389 N   0  0  0  0  0  0  0  0  0  0  0  0
   29.4319  -23.7565  -18.0829 N   0  0  0  0  0  0  0  0  0  0  0  0
   28.6941  -22.7739  -18.8386 C   0  0  0  0  0  0  0  0  0  0  0  0
   28.2751  -21.5796  -18.0061 C   0  0  0  0  0  0  0  0  0  0  0  0
   26.9078  -21.7965  -17.4246 C   0  0  0  0  0  0  0  0  0  0  0  0
   27.0344  -22.6998  -16.2120 C   0  0  2  0  0  0  0  0  0  0  0  0
   27.0705  -24.0742  -16.6662 N   0  0  0  0  0  0  0  0  0  0  0  0
   26.0095  -22.4127  -15.2022 C   0  0  0  0  0  0  0  0  0  0  0  0
   24.9752  -23.1638  -15.2020 O   0  0  0  0  0  0  0  0  0  0  0  0
   30.9595  -25.1130  -16.5605 N   0  0  0  0  0  0  0  0  0  0  0  0
   26.0340  -21.3947  -14.2221 C   0  0  1  0  0  0  0  0  0  0  0  0
   24.9693  -21.2728  -13.2273 C   0  0  0  0  0  0  0  0  0  0  0  0
   25.5241  -20.4656  -12.0665 C   0  0  0  0  0  0  0  0  0  0  0  0
   24.7253  -20.5830  -10.8485 C   0  0  0  0  0  0  0  0  0  0  0  0
   25.1531  -21.1382   -9.6595 N   0  0  0  0  0  0  0  0  0  0  0  0
   24.1373  -21.0707   -8.7533 C   0  0  0  0  0  0  0  0  0  0  0  0
   23.0590  -20.4911   -9.3029 C   0  0  0  0  0  0  0  0  0  0  0  0
   21.8010  -20.1852   -8.8434 C   0  0  0  0  0  0  0  0  0  0  0  0
   20.9044  -19.5706   -9.6955 C   0  0  0  0  0  0  0  0  0  0  0  0
   21.2344  -19.2541  -10.9944 C   0  0  0  0  0  0  0  0  0  0  0  0
   22.5050  -19.5754  -11.4239 C   0  0  0  0  0  0  0  0  0  0  0  0
   23.4302  -20.1853  -10.6204 C   0  0  0  0  0  0  0  0  0  0  0  0
   23.7561  -20.6987  -13.7898 O   0  0  0  0  0  0  0  0  0  0  0  0
   23.7436  -19.6435  -14.4900 N   0  0  0  0  0  0  0  0  0  0  0  0
   22.5104  -21.3402  -13.5586 C   0  0  1  0  0  0  0  0  0  0  0  0
   21.2429  -20.8569  -14.1451 C   0  0  0  0  0  0  0  0  0  0  0  0
   21.2927  -21.1124  -15.6063 C   0  0  0  0  0  0  0  0  0  0  0  0
   20.5082  -20.1928  -16.4492 C   0  0  0  0  0  0  0  0  0  0  0  0
   19.7660  -19.0835  -16.1880 N   0  0  0  0  0  0  0  0  0  0  0  0
   19.3355  -18.6020  -17.3800 C   0  0  0  0  0  0  0  0  0  0  0  0
   19.7818  -19.3663  -18.3646 N   0  0  0  0  0  0  0  0  0  0  0  0
   20.4986  -20.3399  -17.8131 C   0  0  0  0  0  0  0  0  0  0  0  0
   20.1345  -21.5685  -13.4478 O   0  0  0  0  0  0  0  0  0  0  0  0
   18.8952  -21.0430  -13.3045 O   0  0  0  0  0  0  0  0  0  0  0  0
  1  2  1  0
  2  3  2  0
  4  5  1  0
  4  2  1  0
  5  6  1  0
  7  6  1  0
  8  9  1  6
  8  7  1  0
 10  8  1  0
 11 10  2  0
 12 10  1  0
 13 12  1  0
 13 14  1  6
 15 14  1  0
 16 15  2  0
 17 16  1  0
 18 17  1  0
 18 23  2  0
 19 20  2  0
 19 18  1  0
 20 21  1  0
 21 22  2  0
 23 22  1  0
 23 15  1  0
 24 25  2  0
 24 13  1  0
 26 24  1  0
 27 26  1  0
 27 28  1  1
 28 29  1  0
 29 33  1  0
 30 29  2  0
 30 31  1  0
 31 32  1  0
 33 32  2  0
 34 27  1  0
 35 34  1  0
 36 34  2  0
M  END
$$$$
