RWH.pdb
     RDKit          3D

 36 38  0  0  1  0  0  0  0  0999 V2000
   30.8777  -17.9780  -16.7947 N   0  0  0  0  0  0  0  0  0  0  0  0
   29.9950  -17.6586  -17.8960 C   0  0  0  0  0  0  0  0  0  0  0  0
   30.5104  -17.4034  -19.0395 N   0  0  0  0  0  0  0  0  0  0  0  0
   28.5960  -17.6208  -17.7039 N   0  0  0  0  0  0  0  0  0  0  0  0
   27.9777  -18.5160  -16.7567 C   0  0  0  0  0  0  0  0  0  0  0  0
   27.6854  -19.8837  -17.3390 C   0  0  0  0  0  0  0  0  0  0  0  0
   26.9084  -20.7174  -16.3614 C   0  0  0  0  0  0  0  0  0  0  0  0
   27.5929  -20.6430  -15.0093 C   0  0  2  0  0  0  0  0  0  0  0  0
   28.8073  -21.4294  -15.0667 N   0  0  0  0  0  0  0  0  0  0  0  0
   26.6843  -20.9942  -13.9122 C   0  0  0  0  0  0  0  0  0  0  0  0
   25.9270  -22.0079  -14.0939 O   0  0  0  0  0  0  0  0  0  0  0  0
   29.9063  -17.1227  -19.8318 N   0  0  0  0  0  0  0  0  0  0  0  0
   26.5489  -20.3370  -12.6683 C   0  0  2  0  0  0  0  0  0  0  0  0
   25.5501  -20.7631  -11.6892 C   0  0  0  0  0  0  0  0  0  0  0  0
   25.8420  -20.0258  -10.3938 C   0  0  0  0  0  0  0  0  0  0  0  0
   27.1165  -20.4061   -9.7884 C   0  0  0  0  0  0  0  0  0  0  0  0
   28.1680  -21.0110  -10.4468 N   0  0  0  0  0  0  0  0  0  0  0  0
   29.1836  -21.2112   -9.5603 C   0  0  0  0  0  0  0  0  0  0  0  0
   28.8383  -20.7596   -8.3448 C   0  0  0  0  0  0  0  0  0  0  0  0
   29.4719  -20.7167   -7.1266 C   0  0  0  0  0  0  0  0  0  0  0  0
   28.8128  -20.1676   -6.0441 C   0  0  0  0  0  0  0  0  0  0  0  0
   27.5370  -19.6602   -6.1496 C   0  0  0  0  0  0  0  0  0  0  0  0
   26.9295  -19.7194   -7.3864 C   0  0  0  0  0  0  0  0  0  0  0  0
   27.5382  -20.2539   -8.4898 C   0  0  0  0  0  0  0  0  0  0  0  0
   24.1909  -20.5564  -12.1666 O   0  0  0  0  0  0  0  0  0  0  0  0
   23.7831  -19.4624  -12.6574 N   0  0  0  0  0  0  0  0  0  0  0  0
   23.2572  -21.6237  -12.0924 C   0  0  1  0  0  0  0  0  0  0  0  0
   21.8485  -21.4826  -12.5166 C   0  0  0  0  0  0  0  0  0  0  0  0
   21.3498  -22.8300  -12.8891 C   0  0  0  0  0  0  0  0  0  0  0  0
   19.9274  -22.9101  -13.2660 C   0  0  0  0  0  0  0  0  0  0  0  0
   18.9348  -21.9879  -13.3833 N   0  0  0  0  0  0  0  0  0  0  0  0
   17.8389  -22.6382  -13.8460 C   0  0  0  0  0  0  0  0  0  0  0  0
   18.1142  -23.9214  -14.0203 N   0  0  0  0  0  0  0  0  0  0  0  0
   19.3837  -24.1025  -13.6714 C   0  0  0  0  0  0  0  0  0  0  0  0
   21.1071  -20.8590  -11.3840 O   0  0  0  0  0  0  0  0  0  0  0  0
   19.9862  -20.1193  -11.5542 O   0  0  0  0  0  0  0  0  0  0  0  0
  1  2  1  0
  2  3  2  0
  4  5  1  0
  4  2  1  0
  5  6  1  0
  7  6  1  0
  8  9  1  6
  8  7  1  0
 10  8  1  0
 11 10  2  0
 12 10  1  0
 13 12  1  0
 13 14  1  6
 15 14  1  0
 16 15  2  0
 17 16  1  0
 18 17  1  0
 18 23  2  0
 19 20  2  0
 19 18  1  0
 20 21  1  0
 21 22  2  0
 23 22  1  0
 23 15  1  0
 24 25  2  0
 24 13  1  0
 26 24  1  0
 27 26  1  0
 27 28  1  1
 28 29  1  0
 29 33  1  0
 30 29  2  0
 30 31  1  0
 31 32  1  0
 33 32  2  0
 34 27  1  0
 35 34  1  0
 36 34  2  0
M  END
$$$$
