RWH.pdb
     RDKit          3D

 36 38  0  0  1  0  0  0  0  0999 V2000
   36.9031  -36.3808  -12.6299 N   0  0  0  0  0  0  0  0  0  0  0  0
   36.1682  -35.7368  -11.5624 C   0  0  0  0  0  0  0  0  0  0  0  0
   35.3648  -36.4432  -10.8596 N   0  0  0  0  0  0  0  0  0  0  0  0
   36.3311  -34.3560  -11.3133 N   0  0  0  0  0  0  0  0  0  0  0  0
   37.1057  -33.5492  -12.2243 C   0  0  0  0  0  0  0  0  0  0  0  0
   37.1965  -32.0980  -11.7989 C   0  0  0  0  0  0  0  0  0  0  0  0
   36.2394  -31.2557  -12.5921 C   0  0  0  0  0  0  0  0  0  0  0  0
   36.9105  -30.8529  -13.8919 C   0  0  2  0  0  0  0  0  0  0  0  0
   36.9511  -29.4071  -13.9578 N   0  0  0  0  0  0  0  0  0  0  0  0
   36.2956  -31.5044  -15.0539 C   0  0  0  0  0  0  0  0  0  0  0  0
   35.2322  -30.9684  -15.5186 O   0  0  0  0  0  0  0  0  0  0  0  0
   34.8218  -36.0069  -10.0939 N   0  0  0  0  0  0  0  0  0  0  0  0
   36.7467  -32.6640  -15.7242 C   0  0  2  0  0  0  0  0  0  0  0  0
   36.0923  -33.1400  -16.9420 C   0  0  0  0  0  0  0  0  0  0  0  0
   37.0354  -34.1277  -17.6068 C   0  0  0  0  0  0  0  0  0  0  0  0
   36.5178  -34.6622  -18.8645 C   0  0  0  0  0  0  0  0  0  0  0  0
   36.0567  -33.9101  -19.9259 N   0  0  0  0  0  0  0  0  0  0  0  0
   35.6572  -34.7527  -20.9198 C   0  0  0  0  0  0  0  0  0  0  0  0
   35.8398  -36.0299  -20.5507 C   0  0  0  0  0  0  0  0  0  0  0  0
   35.6108  -37.2411  -21.1572 C   0  0  0  0  0  0  0  0  0  0  0  0
   35.9211  -38.4031  -20.4781 C   0  0  0  0  0  0  0  0  0  0  0  0
   36.4548  -38.3840  -19.2089 C   0  0  0  0  0  0  0  0  0  0  0  0
   36.6717  -37.1516  -18.6288 C   0  0  0  0  0  0  0  0  0  0  0  0
   36.3807  -35.9713  -19.2581 C   0  0  0  0  0  0  0  0  0  0  0  0
   34.7772  -33.7026  -16.6741 O   0  0  0  0  0  0  0  0  0  0  0  0
   34.5613  -34.5779  -15.7846 N   0  0  0  0  0  0  0  0  0  0  0  0
   33.6624  -33.2591  -17.4338 C   0  0  1  0  0  0  0  0  0  0  0  0
   32.3001  -33.7991  -17.2418 C   0  0  0  0  0  0  0  0  0  0  0  0
   31.5614  -32.8630  -16.3581 C   0  0  0  0  0  0  0  0  0  0  0  0
   30.1209  -33.1286  -16.1972 C   0  0  0  0  0  0  0  0  0  0  0  0
   29.2999  -34.1304  -16.6116 N   0  0  0  0  0  0  0  0  0  0  0  0
   28.0720  -33.8795  -16.0944 C   0  0  0  0  0  0  0  0  0  0  0  0
   28.1017  -32.7666  -15.3779 N   0  0  0  0  0  0  0  0  0  0  0  0
   29.3440  -32.2975  -15.4307 C   0  0  0  0  0  0  0  0  0  0  0  0
   31.6928  -33.9551  -18.5939 O   0  0  0  0  0  0  0  0  0  0  0  0
   32.0778  -33.2218  -19.6647 O   0  0  0  0  0  0  0  0  0  0  0  0
  1  2  1  0
  2  3  2  0
  4  5  1  0
  4  2  1  0
  5  6  1  0
  7  6  1  0
  8  9  1  6
  8  7  1  0
 10  8  1  0
 11 10  2  0
 12 10  1  0
 13 12  1  0
 13 14  1  1
 15 14  1  0
 16 15  2  0
 17 16  1  0
 18 17  1  0
 18 23  2  0
 19 20  2  0
 19 18  1  0
 20 21  1  0
 21 22  2  0
 23 22  1  0
 23 15  1  0
 24 25  2  0
 24 13  1  0
 26 24  1  0
 27 26  1  0
 27 28  1  6
 28 29  1  0
 29 33  1  0
 30 29  2  0
 30 31  1  0
 31 32  1  0
 33 32  2  0
 34 27  1  0
 35 34  1  0
 36 34  2  0
M  END
$$$$
