RWH.pdb
     RDKit          3D

 36 38  0  0  1  0  0  0  0  0999 V2000
   28.3925  -22.1491  -18.8836 N   0  0  0  0  0  0  0  0  0  0  0  0
   28.6183  -23.1334  -17.8471 C   0  0  0  0  0  0  0  0  0  0  0  0
   28.4561  -24.3707  -18.1320 N   0  0  0  0  0  0  0  0  0  0  0  0
   28.9995  -22.7299  -16.5481 N   0  0  0  0  0  0  0  0  0  0  0  0
   29.1375  -21.3264  -16.2445 C   0  0  0  0  0  0  0  0  0  0  0  0
   29.5864  -21.0705  -14.8204 C   0  0  0  0  0  0  0  0  0  0  0  0
   28.4811  -21.3874  -13.8547 C   0  0  0  0  0  0  0  0  0  0  0  0
   28.9506  -21.0481  -12.4523 C   0  0  2  0  0  0  0  0  0  0  0  0
   30.1230  -21.8447  -12.1563 N   0  0  0  0  0  0  0  0  0  0  0  0
   27.8682  -21.1577  -11.4679 C   0  0  0  0  0  0  0  0  0  0  0  0
   27.0831  -22.1596  -11.5846 O   0  0  0  0  0  0  0  0  0  0  0  0
   28.6010  -25.0950  -17.4069 N   0  0  0  0  0  0  0  0  0  0  0  0
   27.5917  -20.2776  -10.3972 C   0  0  1  0  0  0  0  0  0  0  0  0
   26.3603  -20.3938   -9.6174 C   0  0  0  0  0  0  0  0  0  0  0  0
   26.5835  -19.6609   -8.3060 C   0  0  0  0  0  0  0  0  0  0  0  0
   27.7815  -20.1025   -7.5952 C   0  0  0  0  0  0  0  0  0  0  0  0
   28.8415  -20.7847   -8.1573 N   0  0  0  0  0  0  0  0  0  0  0  0
   29.7712  -21.0245   -7.1900 C   0  0  0  0  0  0  0  0  0  0  0  0
   29.3614  -20.5244   -6.0142 C   0  0  0  0  0  0  0  0  0  0  0  0
   29.9003  -20.4909   -4.7509 C   0  0  0  0  0  0  0  0  0  0  0  0
   29.1945  -19.8779   -3.7342 C   0  0  0  0  0  0  0  0  0  0  0  0
   27.9644  -19.2976   -3.9493 C   0  0  0  0  0  0  0  0  0  0  0  0
   27.4519  -19.3494   -5.2287 C   0  0  0  0  0  0  0  0  0  0  0  0
   28.1101  -19.9453   -6.2705 C   0  0  0  0  0  0  0  0  0  0  0  0
   25.1998  -19.9083  -10.3491 O   0  0  0  0  0  0  0  0  0  0  0  0
   25.2727  -19.0685  -11.2944 N   0  0  0  0  0  0  0  0  0  0  0  0
   23.9088  -20.3902  -10.0060 C   0  0  1  0  0  0  0  0  0  0  0  0
   22.7569  -20.3132  -10.9287 C   0  0  0  0  0  0  0  0  0  0  0  0
   23.1050  -21.0756  -12.1536 C   0  0  0  0  0  0  0  0  0  0  0  0
   22.0595  -21.1443  -13.1898 C   0  0  0  0  0  0  0  0  0  0  0  0
   20.7856  -20.6750  -13.2693 N   0  0  0  0  0  0  0  0  0  0  0  0
   20.3262  -20.9766  -14.5087 C   0  0  0  0  0  0  0  0  0  0  0  0
   21.2630  -21.6105  -15.1967 N   0  0  0  0  0  0  0  0  0  0  0  0
   22.3257  -21.7199  -14.4062 C   0  0  0  0  0  0  0  0  0  0  0  0
   21.5725  -20.8516  -10.2016 O   0  0  0  0  0  0  0  0  0  0  0  0
   20.3180  -20.3753  -10.3802 O   0  0  0  0  0  0  0  0  0  0  0  0
  1  2  1  0
  2  3  2  0
  4  5  1  0
  4  2  1  0
  5  6  1  0
  7  6  1  0
  8  9  1  1
  8  7  1  0
 10  8  1  0
 11 10  2  0
 12 10  1  0
 13 12  1  0
 13 14  1  1
 15 14  1  0
 16 15  2  0
 17 16  1  0
 18 17  1  0
 18 23  2  0
 19 20  2  0
 19 18  1  0
 20 21  1  0
 21 22  2  0
 23 22  1  0
 23 15  1  0
 24 25  2  0
 24 13  1  0
 26 24  1  0
 27 26  1  0
 27 28  1  1
 28 29  1  0
 29 33  1  0
 30 29  2  0
 30 31  1  0
 31 32  1  0
 33 32  2  0
 34 27  1  0
 35 34  1  0
 36 34  2  0
M  END
$$$$
