ETP.pdb
     RDKit          3D

 24 24  0  0  1  0  0  0  0  0999 V2000
   16.8366  -11.2210  -18.3923 N   0  0  0  0  0  0  0  0  0  0  0  0
   17.7465  -10.9964  -17.3198 C   0  0  1  0  0  0  0  0  0  0  0  0
   18.7451  -12.0707  -17.0711 C   0  0  0  0  0  0  0  0  0  0  0  0
   18.2314  -13.3987  -16.6385 C   0  0  0  0  0  0  0  0  0  0  0  0
   17.4870  -13.4510  -15.3797 C   0  0  0  0  0  0  0  0  0  0  0  0
   16.2553  -13.3039  -15.2866 O   0  0  0  0  0  0  0  0  0  0  0  0
   18.4050   -9.6451  -17.3713 C   0  0  0  0  0  0  0  0  0  0  0  0
   18.9193   -9.2290  -18.4398 O   0  0  0  0  0  0  0  0  0  0  0  0
   18.1549  -13.6808  -14.1525 O   0  0  0  0  0  0  0  0  0  0  0  0
   16.9592   -6.6720  -17.4483 C   0  0  0  0  0  0  0  0  0  0  0  0
   17.8974   -6.4101  -16.2927 C   0  0  1  0  0  0  0  0  0  0  0  0
   17.1340   -6.5962  -15.1359 O   0  0  0  0  0  0  0  0  0  0  0  0
   19.0131   -7.4459  -16.3581 C   0  0  2  0  0  0  0  0  0  0  0  0
   18.4848   -8.7775  -16.2470 N   0  0  0  0  0  0  0  0  0  0  0  0
   20.1081   -7.1057  -15.4554 C   0  0  0  0  0  0  0  0  0  0  0  0
   20.0272   -7.5079  -14.2265 O   0  0  0  0  0  0  0  0  0  0  0  0
   21.2868   -6.3741  -15.7387 N   0  0  0  0  0  0  0  0  0  0  0  0
   21.6471   -5.8197  -17.0090 C   0  0  0  0  0  0  0  0  0  0  0  0
   22.8435   -4.9017  -16.7400 C   0  0  0  0  0  0  0  0  0  0  0  0
   23.4817   -5.5235  -15.5087 C   0  0  0  0  0  0  0  0  0  0  0  0
   22.3166   -6.0837  -14.7622 C   0  0  1  0  0  0  0  0  0  0  0  0
   21.8132   -5.1557  -13.7161 C   0  0  0  0  0  0  0  0  0  0  0  0
   22.4535   -5.0810  -12.4986 O   0  0  0  0  0  0  0  0  0  0  0  0
   20.8151   -4.4457  -13.9371 O   0  0  0  0  0  0  0  0  0  0  0  0
  2  1  1  6
  3  2  1  0
  3  4  1  0
  4  5  1  0
  5  6  2  0
  5  9  1  0
  7  2  1  0
  7  8  2  0
 11 10  1  6
 11 13  1  0
 12 11  1  0
 13 14  1  1
 13 15  1  0
 14  7  1  0
 15 17  1  0
 16 15  2  0
 17 21  1  0
 17 18  1  0
 18 19  1  0
 20 21  1  0
 20 19  1  0
 21 22  1  1
 22 24  2  0
 22 23  1  0
M  END
$$$$
