ETP.pdb
     RDKit          3D

 24 24  0  0  1  0  0  0  0  0999 V2000
   20.0455  -21.5162  -15.5440 N   0  0  0  0  0  0  0  0  0  0  0  0
   21.1616  -20.6825  -15.2478 C   0  0  1  0  0  0  0  0  0  0  0  0
   21.2232  -20.1355  -13.8657 C   0  0  0  0  0  0  0  0  0  0  0  0
   20.1429  -19.2008  -13.4486 C   0  0  0  0  0  0  0  0  0  0  0  0
   18.7631  -19.6150  -13.7051 C   0  0  0  0  0  0  0  0  0  0  0  0
   18.1960  -20.5603  -13.1287 O   0  0  0  0  0  0  0  0  0  0  0  0
   22.4788  -21.2860  -15.6515 C   0  0  0  0  0  0  0  0  0  0  0  0
   23.0233  -22.1620  -14.9335 O   0  0  0  0  0  0  0  0  0  0  0  0
   17.9686  -18.9356  -14.6601 O   0  0  0  0  0  0  0  0  0  0  0  0
   23.3957  -23.3737  -18.4275 C   0  0  0  0  0  0  0  0  0  0  0  0
   24.3294  -22.1929  -18.5626 C   0  0  1  0  0  0  0  0  0  0  0  0
   23.7222  -21.3339  -19.4839 O   0  0  0  0  0  0  0  0  0  0  0  0
   24.4239  -21.5191  -17.1992 C   0  0  2  0  0  0  0  0  0  0  0  0
   23.1716  -20.9148  -16.8371 N   0  0  0  0  0  0  0  0  0  0  0  0
   25.6050  -20.6668  -17.1080 C   0  0  0  0  0  0  0  0  0  0  0  0
   25.4732  -19.4143  -17.4120 O   0  0  0  0  0  0  0  0  0  0  0  0
   26.9197  -21.0238  -16.7220 N   0  0  0  0  0  0  0  0  0  0  0  0
   27.3306  -22.2997  -16.2180 C   0  0  0  0  0  0  0  0  0  0  0  0
   28.8622  -22.2743  -16.2153 C   0  0  0  0  0  0  0  0  0  0  0  0
   29.1795  -20.7959  -16.0623 C   0  0  0  0  0  0  0  0  0  0  0  0
   28.0550  -20.1259  -16.7799 C   0  0  1  0  0  0  0  0  0  0  0  0
   28.3986  -19.7904  -18.1864 C   0  0  0  0  0  0  0  0  0  0  0  0
   29.2999  -18.7828  -18.4515 O   0  0  0  0  0  0  0  0  0  0  0  0
   27.8748  -20.4175  -19.1252 O   0  0  0  0  0  0  0  0  0  0  0  0
  2  1  1  1
  3  2  1  0
  3  4  1  0
  4  5  1  0
  5  6  2  0
  5  9  1  0
  7  2  1  0
  7  8  2  0
 11 10  1  1
 11 13  1  0
 12 11  1  0
 13 14  1  6
 13 15  1  0
 14  7  1  0
 15 17  1  0
 16 15  2  0
 17 21  1  0
 17 18  1  0
 18 19  1  0
 20 21  1  0
 20 19  1  0
 21 22  1  6
 22 24  2  0
 22 23  1  0
M  END
$$$$
