ETP.pdb
     RDKit          3D

 24 24  0  0  1  0  0  0  0  0999 V2000
   17.2700  -15.7790  -17.6426 N   0  0  0  0  0  0  0  0  0  0  0  0
   17.2639  -14.6774  -16.7397 C   0  0  1  0  0  0  0  0  0  0  0  0
   16.7240  -14.9468  -15.3800 C   0  0  0  0  0  0  0  0  0  0  0  0
   16.2375  -16.3240  -15.0950 C   0  0  0  0  0  0  0  0  0  0  0  0
   17.1199  -17.1994  -14.3227 C   0  0  0  0  0  0  0  0  0  0  0  0
   16.8475  -18.3730  -14.0129 O   0  0  0  0  0  0  0  0  0  0  0  0
   18.5842  -13.9606  -16.6670 C   0  0  0  0  0  0  0  0  0  0  0  0
   19.6557  -14.6102  -16.5723 O   0  0  0  0  0  0  0  0  0  0  0  0
   18.3799  -16.7397  -13.8690 O   0  0  0  0  0  0  0  0  0  0  0  0
   20.2072  -12.0978  -19.1145 C   0  0  0  0  0  0  0  0  0  0  0  0
   20.2110  -11.1098  -17.9708 C   0  0  1  0  0  0  0  0  0  0  0  0
   19.1357  -10.2487  -18.2112 O   0  0  0  0  0  0  0  0  0  0  0  0
   19.9807  -11.8912  -16.6831 C   0  0  2  0  0  0  0  0  0  0  0  0
   18.7005  -12.5433  -16.7001 N   0  0  0  0  0  0  0  0  0  0  0  0
   20.2788  -11.0791  -15.5078 C   0  0  0  0  0  0  0  0  0  0  0  0
   19.2864  -10.5202  -14.8902 O   0  0  0  0  0  0  0  0  0  0  0  0
   21.5396  -10.8043  -14.9251 N   0  0  0  0  0  0  0  0  0  0  0  0
   22.7926  -11.3691  -15.3274 C   0  0  0  0  0  0  0  0  0  0  0  0
   23.8691  -10.5615  -14.5958 C   0  0  0  0  0  0  0  0  0  0  0  0
   23.1468  -10.0799  -13.3483 C   0  0  0  0  0  0  0  0  0  0  0  0
   21.7400   -9.8976  -13.8132 C   0  0  1  0  0  0  0  0  0  0  0  0
   21.4504   -8.4948  -14.2099 C   0  0  0  0  0  0  0  0  0  0  0  0
   21.1654   -7.5534  -13.2454 O   0  0  0  0  0  0  0  0  0  0  0  0
   21.4650   -8.1684  -15.4109 O   0  0  0  0  0  0  0  0  0  0  0  0
  2  1  1  1
  3  2  1  0
  3  4  1  0
  4  5  1  0
  5  6  2  0
  5  9  1  0
  7  2  1  0
  7  8  2  0
 11 10  1  6
 11 13  1  0
 12 11  1  0
 13 14  1  1
 13 15  1  0
 14  7  1  0
 15 17  1  0
 16 15  2  0
 17 21  1  0
 17 18  1  0
 18 19  1  0
 20 21  1  0
 20 19  1  0
 21 22  1  6
 22 24  2  0
 22 23  1  0
M  END
$$$$
