ETP.pdb
     RDKit          3D

 24 24  0  0  1  0  0  0  0  0999 V2000
   35.7396  -37.2824   -3.5132 N   0  0  0  0  0  0  0  0  0  0  0  0
   35.5033  -35.9445   -3.0858 C   0  0  1  0  0  0  0  0  0  0  0  0
   34.0808  -35.5117   -3.0412 C   0  0  0  0  0  0  0  0  0  0  0  0
   33.0953  -36.4530   -2.4432 C   0  0  0  0  0  0  0  0  0  0  0  0
   32.2294  -35.9325   -1.3845 C   0  0  0  0  0  0  0  0  0  0  0  0
   31.5316  -36.6413   -0.6374 O   0  0  0  0  0  0  0  0  0  0  0  0
   36.2176  -35.5927   -1.8097 C   0  0  0  0  0  0  0  0  0  0  0  0
   36.3716  -36.4554   -0.9090 O   0  0  0  0  0  0  0  0  0  0  0  0
   32.1359  -34.5402   -1.1445 O   0  0  0  0  0  0  0  0  0  0  0  0
   39.0856  -32.6118    0.8297 C   0  0  0  0  0  0  0  0  0  0  0  0
   38.3754  -32.8230   -0.4876 C   0  0  1  0  0  0  0  0  0  0  0  0
   39.3752  -33.1541   -1.4075 O   0  0  0  0  0  0  0  0  0  0  0  0
   37.4141  -33.9924   -0.3130 C   0  0  2  0  0  0  0  0  0  0  0  0
   36.7490  -34.2993   -1.5491 N   0  0  0  0  0  0  0  0  0  0  0  0
   36.5587  -33.8076    0.8548 C   0  0  0  0  0  0  0  0  0  0  0  0
   35.4811  -33.1028    0.7109 O   0  0  0  0  0  0  0  0  0  0  0  0
   36.7429  -34.3047    2.1677 N   0  0  0  0  0  0  0  0  0  0  0  0
   37.8437  -35.1026    2.6176 C   0  0  0  0  0  0  0  0  0  0  0  0
   37.7323  -35.1449    4.1448 C   0  0  0  0  0  0  0  0  0  0  0  0
   36.2429  -34.9604    4.3845 C   0  0  0  0  0  0  0  0  0  0  0  0
   35.8200  -34.0740    3.2602 C   0  0  1  0  0  0  0  0  0  0  0  0
   35.7981  -32.6389    3.6460 C   0  0  0  0  0  0  0  0  0  0  0  0
   34.7780  -32.1557    4.4359 O   0  0  0  0  0  0  0  0  0  0  0  0
   36.6989  -31.8728    3.2579 O   0  0  0  0  0  0  0  0  0  0  0  0
  2  1  1  1
  3  2  1  0
  3  4  1  0
  4  5  1  0
  5  6  2  0
  5  9  1  0
  7  2  1  0
  7  8  2  0
 11 10  1  1
 11 13  1  0
 12 11  1  0
 13 14  1  6
 13 15  1  0
 14  7  1  0
 15 17  1  0
 16 15  2  0
 17 21  1  0
 17 18  1  0
 18 19  1  0
 20 21  1  0
 20 19  1  0
 21 22  1  1
 22 24  2  0
 22 23  1  0
M  END
$$$$
