ETP.pdb
     RDKit          3D

 24 24  0  0  1  0  0  0  0  0999 V2000
   16.8259  -12.5195  -15.1577 N   0  0  0  0  0  0  0  0  0  0  0  0
   17.3640  -11.5014  -15.9959 C   0  0  1  0  0  0  0  0  0  0  0  0
   16.8599  -11.4694  -17.3951 C   0  0  0  0  0  0  0  0  0  0  0  0
   17.1287  -12.6582  -18.2490 C   0  0  0  0  0  0  0  0  0  0  0  0
   16.6251  -12.6236  -19.6225 C   0  0  0  0  0  0  0  0  0  0  0  0
   17.3470  -12.6521  -20.6351 O   0  0  0  0  0  0  0  0  0  0  0  0
   17.3214  -10.1333  -15.3724 C   0  0  0  0  0  0  0  0  0  0  0  0
   16.2301   -9.6454  -14.9845 O   0  0  0  0  0  0  0  0  0  0  0  0
   15.2350  -12.5531  -19.8826 O   0  0  0  0  0  0  0  0  0  0  0  0
   18.5671   -9.2148  -12.3153 C   0  0  0  0  0  0  0  0  0  0  0  0
   17.7413   -8.2457  -13.1296 C   0  0  1  0  0  0  0  0  0  0  0  0
   17.7681   -7.0392  -12.4232 O   0  0  0  0  0  0  0  0  0  0  0  0
   18.4238   -8.0781  -14.4816 C   0  0  2  0  0  0  0  0  0  0  0  0
   18.4794   -9.3284  -15.1873 N   0  0  0  0  0  0  0  0  0  0  0  0
   19.6814   -7.3485  -14.3556 C   0  0  0  0  0  0  0  0  0  0  0  0
   20.6760   -7.9501  -13.7833 O   0  0  0  0  0  0  0  0  0  0  0  0
   19.9816   -6.0325  -14.7832 N   0  0  0  0  0  0  0  0  0  0  0  0
   19.0476   -5.0901  -15.3219 C   0  0  0  0  0  0  0  0  0  0  0  0
   19.7857   -3.7485  -15.3651 C   0  0  0  0  0  0  0  0  0  0  0  0
   21.2418   -4.1632  -15.4986 C   0  0  0  0  0  0  0  0  0  0  0  0
   21.3057   -5.4466  -14.7388 C   0  0  1  0  0  0  0  0  0  0  0  0
   21.7570   -5.2539  -13.3359 C   0  0  0  0  0  0  0  0  0  0  0  0
   23.0594   -4.8862  -13.0778 O   0  0  0  0  0  0  0  0  0  0  0  0
   20.9615   -5.4234  -12.3938 O   0  0  0  0  0  0  0  0  0  0  0  0
  2  1  1  1
  3  2  1  0
  3  4  1  0
  4  5  1  0
  5  6  2  0
  5  9  1  0
  7  2  1  0
  7  8  2  0
 11 10  1  1
 11 13  1  0
 12 11  1  0
 13 14  1  1
 13 15  1  0
 14  7  1  0
 15 17  1  0
 16 15  2  0
 17 21  1  0
 17 18  1  0
 18 19  1  0
 20 21  1  0
 20 19  1  0
 21 22  1  1
 22 24  2  0
 22 23  1  0
M  END
$$$$
