ETP.pdb
     RDKit          3D

 24 24  0  0  1  0  0  0  0  0999 V2000
   20.6087  -12.2649  -18.4932 N   0  0  0  0  0  0  0  0  0  0  0  0
   20.6718  -10.8518  -18.6600 C   0  0  1  0  0  0  0  0  0  0  0  0
   19.8374  -10.2824  -19.7519 C   0  0  0  0  0  0  0  0  0  0  0  0
   20.0165  -10.8455  -21.1177 C   0  0  0  0  0  0  0  0  0  0  0  0
   19.2758  -10.2084  -22.2071 C   0  0  0  0  0  0  0  0  0  0  0  0
   19.5235   -9.0744  -22.6545 O   0  0  0  0  0  0  0  0  0  0  0  0
   20.4778  -10.0920  -17.3765 C   0  0  0  0  0  0  0  0  0  0  0  0
   19.4532  -10.2819  -16.6741 O   0  0  0  0  0  0  0  0  0  0  0  0
   18.1954  -10.8745  -22.8349 O   0  0  0  0  0  0  0  0  0  0  0  0
   21.6380  -10.4225  -14.3522 C   0  0  0  0  0  0  0  0  0  0  0  0
   22.0249   -8.9728  -14.5340 C   0  0  1  0  0  0  0  0  0  0  0  0
   23.3769   -8.9840  -14.8911 O   0  0  0  0  0  0  0  0  0  0  0  0
   21.1852   -8.4089  -15.6736 C   0  0  2  0  0  0  0  0  0  0  0  0
   21.4144   -9.1383  -16.8901 N   0  0  0  0  0  0  0  0  0  0  0  0
   21.3069   -6.9570  -15.7558 C   0  0  0  0  0  0  0  0  0  0  0  0
   22.3306   -6.4695  -16.3827 O   0  0  0  0  0  0  0  0  0  0  0  0
   20.4376   -5.9702  -15.2310 N   0  0  0  0  0  0  0  0  0  0  0  0
   19.1912   -6.2140  -14.5694 C   0  0  0  0  0  0  0  0  0  0  0  0
   18.7772   -4.8748  -13.9516 C   0  0  0  0  0  0  0  0  0  0  0  0
   19.4401   -3.8571  -14.8652 C   0  0  0  0  0  0  0  0  0  0  0  0
   20.6922   -4.5457  -15.2972 C   0  0  1  0  0  0  0  0  0  0  0  0
   21.8626   -4.1735  -14.4601 C   0  0  0  0  0  0  0  0  0  0  0  0
   22.4772   -2.9541  -14.6424 O   0  0  0  0  0  0  0  0  0  0  0  0
   22.2885   -4.9602  -13.5948 O   0  0  0  0  0  0  0  0  0  0  0  0
  2  1  1  1
  3  2  1  0
  3  4  1  0
  4  5  1  0
  5  6  2  0
  5  9  1  0
  7  2  1  0
  7  8  2  0
 11 10  1  6
 11 13  1  0
 12 11  1  0
 13 14  1  6
 13 15  1  0
 14  7  1  0
 15 17  1  0
 16 15  2  0
 17 21  1  0
 17 18  1  0
 18 19  1  0
 20 21  1  0
 20 19  1  0
 21 22  1  1
 22 24  2  0
 22 23  1  0
M  END
$$$$
