ETP.pdb
     RDKit          3D

 24 24  0  0  1  0  0  0  0  0999 V2000
   19.0399  -21.2242  -16.7190 N   0  0  0  0  0  0  0  0  0  0  0  0
   19.6223  -20.7029  -15.5283 C   0  0  1  0  0  0  0  0  0  0  0  0
   18.7462  -20.6778  -14.3263 C   0  0  0  0  0  0  0  0  0  0  0  0
   17.3130  -21.0320  -14.5138 C   0  0  0  0  0  0  0  0  0  0  0  0
   16.9969  -22.4412  -14.7499 C   0  0  0  0  0  0  0  0  0  0  0  0
   17.5002  -23.3880  -14.1194 O   0  0  0  0  0  0  0  0  0  0  0  0
   20.9636  -21.3041  -15.2096 C   0  0  0  0  0  0  0  0  0  0  0  0
   21.3566  -22.3358  -15.8099 O   0  0  0  0  0  0  0  0  0  0  0  0
   16.0648  -22.8169  -15.7474 O   0  0  0  0  0  0  0  0  0  0  0  0
   23.8143  -19.1322  -15.6432 C   0  0  0  0  0  0  0  0  0  0  0  0
   23.8965  -20.6387  -15.5548 C   0  0  1  0  0  0  0  0  0  0  0  0
   25.2613  -20.9431  -15.5420 O   0  0  0  0  0  0  0  0  0  0  0  0
   23.2516  -21.0613  -14.2405 C   0  0  2  0  0  0  0  0  0  0  0  0
   21.8470  -20.7589  -14.2371 N   0  0  0  0  0  0  0  0  0  0  0  0
   24.0197  -20.5859  -13.0943 C   0  0  0  0  0  0  0  0  0  0  0  0
   23.9736  -19.3212  -12.8168 O   0  0  0  0  0  0  0  0  0  0  0  0
   24.8363  -21.3332  -12.2115 N   0  0  0  0  0  0  0  0  0  0  0  0
   25.4240  -22.6097  -12.4875 C   0  0  0  0  0  0  0  0  0  0  0  0
   26.4239  -22.8628  -11.3550 C   0  0  0  0  0  0  0  0  0  0  0  0
   25.8413  -22.0656  -10.1996 C   0  0  0  0  0  0  0  0  0  0  0  0
   25.1935  -20.9027  -10.8753 C   0  0  1  0  0  0  0  0  0  0  0  0
   26.0756  -19.7073  -10.9179 C   0  0  0  0  0  0  0  0  0  0  0  0
   26.7872  -19.4195  -12.0619 O   0  0  0  0  0  0  0  0  0  0  0  0
   26.1728  -18.9655   -9.9232 O   0  0  0  0  0  0  0  0  0  0  0  0
  2  1  1  6
  3  2  1  0
  3  4  1  0
  4  5  1  0
  5  6  2  0
  5  9  1  0
  7  2  1  0
  7  8  2  0
 11 10  1  1
 11 13  1  0
 12 11  1  0
 13 14  1  1
 13 15  1  0
 14  7  1  0
 15 17  1  0
 16 15  2  0
 17 21  1  0
 17 18  1  0
 18 19  1  0
 20 21  1  0
 20 19  1  0
 21 22  1  6
 22 24  2  0
 22 23  1  0
M  END
$$$$
