ETP.pdb
     RDKit          3D

 24 24  0  0  1  0  0  0  0  0999 V2000
   16.1599  -10.9779  -17.7892 N   0  0  0  0  0  0  0  0  0  0  0  0
   16.8865   -9.7536  -17.8318 C   0  0  1  0  0  0  0  0  0  0  0  0
   16.1066   -8.5181  -17.5520 C   0  0  0  0  0  0  0  0  0  0  0  0
   14.8433   -8.3167  -18.3125 C   0  0  0  0  0  0  0  0  0  0  0  0
   14.0672   -7.1125  -18.0145 C   0  0  0  0  0  0  0  0  0  0  0  0
   12.9729   -6.8362  -18.5375 O   0  0  0  0  0  0  0  0  0  0  0  0
   18.1567   -9.7872  -17.0269 C   0  0  0  0  0  0  0  0  0  0  0  0
   18.2739  -10.5781  -16.0574 O   0  0  0  0  0  0  0  0  0  0  0  0
   14.5385   -6.1602  -17.0786 O   0  0  0  0  0  0  0  0  0  0  0  0
   21.6536  -10.4026  -17.9611 C   0  0  0  0  0  0  0  0  0  0  0  0
   21.7093   -9.0699  -17.2503 C   0  0  1  0  0  0  0  0  0  0  0  0
   21.7600   -8.1042  -18.2604 O   0  0  0  0  0  0  0  0  0  0  0  0
   20.4245   -8.9207  -16.4448 C   0  0  2  0  0  0  0  0  0  0  0  0
   19.2733   -8.9508  -17.3040 N   0  0  0  0  0  0  0  0  0  0  0  0
   20.5083   -7.8010  -15.5126 C   0  0  0  0  0  0  0  0  0  0  0  0
   20.1491   -6.6310  -15.9375 O   0  0  0  0  0  0  0  0  0  0  0  0
   20.9407   -7.8093  -14.1644 N   0  0  0  0  0  0  0  0  0  0  0  0
   21.3609   -8.9605  -13.4234 C   0  0  0  0  0  0  0  0  0  0  0  0
   21.9862   -8.4215  -12.1331 C   0  0  0  0  0  0  0  0  0  0  0  0
   21.2698   -7.0961  -11.9334 C   0  0  0  0  0  0  0  0  0  0  0  0
   21.0142   -6.6288  -13.3280 C   0  0  1  0  0  0  0  0  0  0  0  0
   22.0627   -5.6946  -13.8148 C   0  0  0  0  0  0  0  0  0  0  0  0
   22.1104   -4.4047  -13.3333 O   0  0  0  0  0  0  0  0  0  0  0  0
   22.8978   -6.0746  -14.6559 O   0  0  0  0  0  0  0  0  0  0  0  0
  2  1  1  1
  3  2  1  0
  3  4  1  0
  4  5  1  0
  5  6  2  0
  5  9  1  0
  7  2  1  0
  7  8  2  0
 11 10  1  6
 11 13  1  0
 12 11  1  0
 13 14  1  6
 13 15  1  0
 14  7  1  0
 15 17  1  0
 16 15  2  0
 17 21  1  0
 17 18  1  0
 18 19  1  0
 20 21  1  0
 20 19  1  0
 21 22  1  6
 22 24  2  0
 22 23  1  0
M  END
$$$$
