ETP.pdb
     RDKit          3D

 24 24  0  0  1  0  0  0  0  0999 V2000
   16.8447  -11.6797  -18.0669 N   0  0  0  0  0  0  0  0  0  0  0  0
   17.1859  -10.3106  -17.8729 C   0  0  1  0  0  0  0  0  0  0  0  0
   16.1231   -9.4455  -17.2941 C   0  0  0  0  0  0  0  0  0  0  0  0
   15.5562   -9.8428  -15.9768 C   0  0  0  0  0  0  0  0  0  0  0  0
   15.7328   -8.9100  -14.8631 C   0  0  0  0  0  0  0  0  0  0  0  0
   15.1037   -7.8447  -14.7341 O   0  0  0  0  0  0  0  0  0  0  0  0
   18.4928  -10.1193  -17.1532 C   0  0  0  0  0  0  0  0  0  0  0  0
   18.8955  -10.9775  -16.3282 O   0  0  0  0  0  0  0  0  0  0  0  0
   16.6654   -9.1808  -13.8327 O   0  0  0  0  0  0  0  0  0  0  0  0
   21.7873   -9.6749  -18.7027 C   0  0  0  0  0  0  0  0  0  0  0  0
   21.7006   -8.5325  -17.7170 C   0  0  1  0  0  0  0  0  0  0  0  0
   21.3310   -7.4122  -18.4678 O   0  0  0  0  0  0  0  0  0  0  0  0
   20.6096   -8.8726  -16.7090 C   0  0  2  0  0  0  0  0  0  0  0  0
   19.3315   -8.9884  -17.3550 N   0  0  0  0  0  0  0  0  0  0  0  0
   20.6699   -7.9956  -15.5441 C   0  0  0  0  0  0  0  0  0  0  0  0
   19.9294   -6.9324  -15.5473 O   0  0  0  0  0  0  0  0  0  0  0  0
   21.4479   -8.1441  -14.3704 N   0  0  0  0  0  0  0  0  0  0  0  0
   22.3711   -9.2056  -14.1027 C   0  0  0  0  0  0  0  0  0  0  0  0
   23.1527   -8.7753  -12.8575 C   0  0  0  0  0  0  0  0  0  0  0  0
   22.1731   -7.8639  -12.1367 C   0  0  0  0  0  0  0  0  0  0  0  0
   21.4125   -7.2252  -13.2512 C   0  0  1  0  0  0  0  0  0  0  0  0
   21.9679   -5.9000  -13.6312 C   0  0  0  0  0  0  0  0  0  0  0  0
   21.7805   -4.8142  -12.8043 O   0  0  0  0  0  0  0  0  0  0  0  0
   22.6019   -5.7687  -14.6941 O   0  0  0  0  0  0  0  0  0  0  0  0
  2  1  1  1
  3  2  1  0
  3  4  1  0
  4  5  1  0
  5  6  2  0
  5  9  1  0
  7  2  1  0
  7  8  2  0
 11 10  1  6
 11 13  1  0
 12 11  1  0
 13 14  1  6
 13 15  1  0
 14  7  1  0
 15 17  1  0
 16 15  2  0
 17 21  1  0
 17 18  1  0
 18 19  1  0
 20 21  1  0
 20 19  1  0
 21 22  1  6
 22 24  2  0
 22 23  1  0
M  END
$$$$
