ETP.pdb
     RDKit          3D

 24 24  0  0  1  0  0  0  0  0999 V2000
   19.4809  -15.3936  -18.5829 N   0  0  0  0  0  0  0  0  0  0  0  0
   19.3992  -14.0831  -18.0312 C   0  0  1  0  0  0  0  0  0  0  0  0
   18.5309  -13.9288  -16.8332 C   0  0  0  0  0  0  0  0  0  0  0  0
   18.4816  -12.5882  -16.1891 C   0  0  0  0  0  0  0  0  0  0  0  0
   17.7670  -12.4826  -14.9164 C   0  0  0  0  0  0  0  0  0  0  0  0
   16.5779  -12.8080  -14.7507 O   0  0  0  0  0  0  0  0  0  0  0  0
   20.7434  -13.4445  -17.8129 C   0  0  0  0  0  0  0  0  0  0  0  0
   21.6655  -14.0827  -17.2458 O   0  0  0  0  0  0  0  0  0  0  0  0
   18.4162  -11.9852  -13.7605 O   0  0  0  0  0  0  0  0  0  0  0  0
   22.0753   -9.8330  -19.7413 C   0  0  0  0  0  0  0  0  0  0  0  0
   22.9292  -10.9996  -19.3008 C   0  0  1  0  0  0  0  0  0  0  0  0
   24.2036  -10.4710  -19.0730 O   0  0  0  0  0  0  0  0  0  0  0  0
   22.3435  -11.5374  -18.0010 C   0  0  2  0  0  0  0  0  0  0  0  0
   21.0475  -12.1168  -18.2227 N   0  0  0  0  0  0  0  0  0  0  0  0
   22.4384  -10.5532  -16.9277 C   0  0  0  0  0  0  0  0  0  0  0  0
   21.4462   -9.7361  -16.7657 O   0  0  0  0  0  0  0  0  0  0  0  0
   23.4951  -10.3557  -16.0062 N   0  0  0  0  0  0  0  0  0  0  0  0
   24.7307  -11.0790  -15.9764 C   0  0  0  0  0  0  0  0  0  0  0  0
   25.6350  -10.3213  -14.9994 C   0  0  0  0  0  0  0  0  0  0  0  0
   24.6423   -9.6572  -14.0594 C   0  0  0  0  0  0  0  0  0  0  0  0
   23.4694   -9.3764  -14.9390 C   0  0  1  0  0  0  0  0  0  0  0  0
   23.4862   -7.9936  -15.4834 C   0  0  0  0  0  0  0  0  0  0  0  0
   23.1388   -6.9332  -14.6754 O   0  0  0  0  0  0  0  0  0  0  0  0
   23.8135   -7.7910  -16.6670 O   0  0  0  0  0  0  0  0  0  0  0  0
  2  1  1  1
  3  2  1  0
  3  4  1  0
  4  5  1  0
  5  6  2  0
  5  9  1  0
  7  2  1  0
  7  8  2  0
 11 10  1  1
 11 13  1  0
 12 11  1  0
 13 14  1  6
 13 15  1  0
 14  7  1  0
 15 17  1  0
 16 15  2  0
 17 21  1  0
 17 18  1  0
 18 19  1  0
 20 21  1  0
 20 19  1  0
 21 22  1  6
 22 24  2  0
 22 23  1  0
M  END
$$$$
