ETP.pdb
     RDKit          3D

 24 24  0  0  1  0  0  0  0  0999 V2000
   20.9478  -15.5780  -18.5749 N   0  0  0  0  0  0  0  0  0  0  0  0
   20.9393  -14.1784  -18.8391 C   0  0  1  0  0  0  0  0  0  0  0  0
   19.6731  -13.6222  -19.3872 C   0  0  0  0  0  0  0  0  0  0  0  0
   18.9726  -14.4133  -20.4350 C   0  0  0  0  0  0  0  0  0  0  0  0
   17.8626  -13.7644  -21.1338 C   0  0  0  0  0  0  0  0  0  0  0  0
   17.1995  -14.2955  -22.0424 O   0  0  0  0  0  0  0  0  0  0  0  0
   21.4407  -13.3524  -17.6865 C   0  0  0  0  0  0  0  0  0  0  0  0
   21.1707  -13.6811  -16.5041 O   0  0  0  0  0  0  0  0  0  0  0  0
   17.4688  -12.4458  -20.8003 O   0  0  0  0  0  0  0  0  0  0  0  0
   24.7703  -12.7382  -16.6385 C   0  0  0  0  0  0  0  0  0  0  0  0
   24.2261  -11.3319  -16.7412 C   0  0  1  0  0  0  0  0  0  0  0  0
   24.6732  -10.8422  -17.9724 O   0  0  0  0  0  0  0  0  0  0  0  0
   22.7050  -11.4224  -16.7329 C   0  0  2  0  0  0  0  0  0  0  0  0
   22.2295  -12.1810  -17.8566 N   0  0  0  0  0  0  0  0  0  0  0  0
   22.0956  -10.1119  -16.5311 C   0  0  0  0  0  0  0  0  0  0  0  0
   21.9452   -9.3478  -17.5665 O   0  0  0  0  0  0  0  0  0  0  0  0
   21.6289   -9.5350  -15.3251 N   0  0  0  0  0  0  0  0  0  0  0  0
   21.7337  -10.1152  -14.0201 C   0  0  0  0  0  0  0  0  0  0  0  0
   21.3474   -9.0056  -13.0373 C   0  0  0  0  0  0  0  0  0  0  0  0
   20.4168   -8.1292  -13.8594 C   0  0  0  0  0  0  0  0  0  0  0  0
   20.9612   -8.2520  -15.2439 C   0  0  1  0  0  0  0  0  0  0  0  0
   21.8902   -7.1444  -15.5890 C   0  0  0  0  0  0  0  0  0  0  0  0
   21.3959   -5.8782  -15.8130 O   0  0  0  0  0  0  0  0  0  0  0  0
   23.1133   -7.3577  -15.6758 O   0  0  0  0  0  0  0  0  0  0  0  0
  2  1  1  1
  3  2  1  0
  3  4  1  0
  4  5  1  0
  5  6  2  0
  5  9  1  0
  7  2  1  0
  7  8  2  0
 11 10  1  6
 11 13  1  0
 12 11  1  0
 13 14  1  6
 13 15  1  0
 14  7  1  0
 15 17  1  0
 16 15  2  0
 17 21  1  0
 17 18  1  0
 18 19  1  0
 20 21  1  0
 20 19  1  0
 21 22  1  1
 22 24  2  0
 22 23  1  0
M  END
$$$$
