ETP.pdb
     RDKit          3D

 24 24  0  0  1  0  0  0  0  0999 V2000
   18.9747  -15.7249  -18.3010 N   0  0  0  0  0  0  0  0  0  0  0  0
   18.5845  -14.5476  -17.6007 C   0  0  1  0  0  0  0  0  0  0  0  0
   17.9187  -14.7563  -16.2869 C   0  0  0  0  0  0  0  0  0  0  0  0
   16.6789  -15.5792  -16.2686 C   0  0  0  0  0  0  0  0  0  0  0  0
   16.0095  -15.7529  -14.9790 C   0  0  0  0  0  0  0  0  0  0  0  0
   16.2589  -15.0796  -13.9631 O   0  0  0  0  0  0  0  0  0  0  0  0
   19.6833  -13.5260  -17.4959 C   0  0  0  0  0  0  0  0  0  0  0  0
   20.8854  -13.8886  -17.4438 O   0  0  0  0  0  0  0  0  0  0  0  0
   15.0029  -16.7346  -14.8119 O   0  0  0  0  0  0  0  0  0  0  0  0
   20.6506  -10.9593  -19.7898 C   0  0  0  0  0  0  0  0  0  0  0  0
   20.4675  -10.1817  -18.5068 C   0  0  1  0  0  0  0  0  0  0  0  0
   19.1982   -9.6014  -18.5940 O   0  0  0  0  0  0  0  0  0  0  0  0
   20.5126  -11.1755  -17.3526 C   0  0  2  0  0  0  0  0  0  0  0  0
   19.4391  -12.1254  -17.4505 N   0  0  0  0  0  0  0  0  0  0  0  0
   20.6606  -10.4948  -16.0703 C   0  0  0  0  0  0  0  0  0  0  0  0
   19.5850  -10.0931  -15.4700 O   0  0  0  0  0  0  0  0  0  0  0  0
   21.8513  -10.1997  -15.3632 N   0  0  0  0  0  0  0  0  0  0  0  0
   23.1820  -10.5120  -15.7905 C   0  0  0  0  0  0  0  0  0  0  0  0
   24.1145   -9.7537  -14.8409 C   0  0  0  0  0  0  0  0  0  0  0  0
   23.2881   -9.6369  -13.5707 C   0  0  0  0  0  0  0  0  0  0  0  0
   21.8884   -9.5310  -14.0787 C   0  0  1  0  0  0  0  0  0  0  0  0
   21.4327   -8.1214  -14.1978 C   0  0  0  0  0  0  0  0  0  0  0  0
   21.0435   -7.4281  -13.0727 O   0  0  0  0  0  0  0  0  0  0  0  0
   21.4022   -7.5655  -15.3110 O   0  0  0  0  0  0  0  0  0  0  0  0
  2  1  1  1
  3  2  1  0
  3  4  1  0
  4  5  1  0
  5  6  2  0
  5  9  1  0
  7  2  1  0
  7  8  2  0
 11 10  1  6
 11 13  1  0
 12 11  1  0
 13 14  1  1
 13 15  1  0
 14  7  1  0
 15 17  1  0
 16 15  2  0
 17 21  1  0
 17 18  1  0
 18 19  1  0
 20 21  1  0
 20 19  1  0
 21 22  1  6
 22 24  2  0
 22 23  1  0
M  END
$$$$
