ETP.pdb
     RDKit          3D

 24 24  0  0  1  0  0  0  0  0999 V2000
   20.1922  -22.1334  -17.9141 N   0  0  0  0  0  0  0  0  0  0  0  0
   20.3802  -21.5621  -16.6230 C   0  0  1  0  0  0  0  0  0  0  0  0
   19.4892  -22.0696  -15.5452 C   0  0  0  0  0  0  0  0  0  0  0  0
   18.0289  -22.1178  -15.8276 C   0  0  0  0  0  0  0  0  0  0  0  0
   17.1638  -22.6751  -14.7871 C   0  0  0  0  0  0  0  0  0  0  0  0
   16.0483  -22.2164  -14.4826 O   0  0  0  0  0  0  0  0  0  0  0  0
   21.8174  -21.5537  -16.1797 C   0  0  0  0  0  0  0  0  0  0  0  0
   22.5983  -22.4710  -16.5376 O   0  0  0  0  0  0  0  0  0  0  0  0
   17.5657  -23.8103  -14.0425 O   0  0  0  0  0  0  0  0  0  0  0  0
   24.5219  -19.2809  -16.7979 C   0  0  0  0  0  0  0  0  0  0  0  0
   24.4931  -19.3401  -15.2879 C   0  0  1  0  0  0  0  0  0  0  0  0
   23.7967  -18.1989  -14.8778 O   0  0  0  0  0  0  0  0  0  0  0  0
   23.7269  -20.5951  -14.8883 C   0  0  2  0  0  0  0  0  0  0  0  0
   22.3681  -20.5366  -15.3517 N   0  0  0  0  0  0  0  0  0  0  0  0
   23.9169  -20.9067  -13.4753 C   0  0  0  0  0  0  0  0  0  0  0  0
   22.9400  -20.6541  -12.6626 O   0  0  0  0  0  0  0  0  0  0  0  0
   25.0542  -21.4644  -12.8426 N   0  0  0  0  0  0  0  0  0  0  0  0
   26.2900  -21.8037  -13.4819 C   0  0  0  0  0  0  0  0  0  0  0  0
   27.2786  -22.0995  -12.3499 C   0  0  0  0  0  0  0  0  0  0  0  0
   26.3755  -22.5679  -11.2207 C   0  0  0  0  0  0  0  0  0  0  0  0
   25.1245  -21.7809  -11.4308 C   0  0  1  0  0  0  0  0  0  0  0  0
   25.0852  -20.5459  -10.6047 C   0  0  0  0  0  0  0  0  0  0  0  0
   24.7136  -20.6174   -9.2801 O   0  0  0  0  0  0  0  0  0  0  0  0
   25.3875  -19.4477  -11.1063 O   0  0  0  0  0  0  0  0  0  0  0  0
  2  1  1  6
  3  2  1  0
  3  4  1  0
  4  5  1  0
  5  6  2  0
  5  9  1  0
  7  2  1  0
  7  8  2  0
 11 10  1  6
 11 13  1  0
 12 11  1  0
 13 14  1  1
 13 15  1  0
 14  7  1  0
 15 17  1  0
 16 15  2  0
 17 21  1  0
 17 18  1  0
 18 19  1  0
 20 21  1  0
 20 19  1  0
 21 22  1  1
 22 24  2  0
 22 23  1  0
M  END
$$$$
