DWD.pdb
     RDKit          3D

 31 32  0  0  1  0  0  0  0  0999 V2000
   29.0154  -20.9372  -16.3524 N   0  0  0  0  0  0  0  0  0  0  0  0
   27.8381  -21.7917  -16.5120 C   0  0  1  0  0  0  0  0  0  0  0  0
   28.3370  -23.0954  -17.0959 C   0  0  0  0  0  0  0  0  0  0  0  0
   28.9752  -22.7691  -18.3974 C   0  0  0  0  0  0  0  0  0  0  0  0
   28.4135  -21.9640  -19.2104 O   0  0  0  0  0  0  0  0  0  0  0  0
   27.1354  -21.9664  -15.2367 C   0  0  0  0  0  0  0  0  0  0  0  0
   26.2054  -22.8183  -15.1338 O   0  0  0  0  0  0  0  0  0  0  0  0
   30.1871  -23.3070  -18.7937 O   0  0  0  0  0  0  0  0  0  0  0  0
   27.4461  -21.2163  -14.0848 N   0  0  0  0  0  0  0  0  0  0  0  0
   26.6942  -21.3403  -12.8367 C   0  0  1  0  0  0  0  0  0  0  0  0
   27.6056  -20.7921  -11.7423 C   0  0  0  0  0  0  0  0  0  0  0  0
   26.8926  -20.6326  -10.4503 C   0  0  0  0  0  0  0  0  0  0  0  0
   25.5369  -20.4959  -10.2361 C   0  0  0  0  0  0  0  0  0  0  0  0
   25.2713  -20.3741   -8.9292 N   0  0  0  0  0  0  0  0  0  0  0  0
   26.4445  -20.4299   -8.2804 C   0  0  0  0  0  0  0  0  0  0  0  0
   26.7366  -20.3568   -6.9191 C   0  0  0  0  0  0  0  0  0  0  0  0
   28.0529  -20.4455   -6.4988 C   0  0  0  0  0  0  0  0  0  0  0  0
   29.0861  -20.6052   -7.4037 C   0  0  0  0  0  0  0  0  0  0  0  0
   28.7846  -20.6759   -8.7469 C   0  0  0  0  0  0  0  0  0  0  0  0
   27.4687  -20.5887   -9.1839 C   0  0  0  0  0  0  0  0  0  0  0  0
   25.4167  -20.6319  -12.8853 C   0  0  0  0  0  0  0  0  0  0  0  0
   25.3674  -19.3808  -13.0579 O   0  0  0  0  0  0  0  0  0  0  0  0
   24.2028  -21.3246  -12.7399 N   0  0  0  0  0  0  0  0  0  0  0  0
   22.9105  -20.6990  -13.0573 C   0  0  1  0  0  0  0  0  0  0  0  0
   22.3637  -21.4872  -14.2178 C   0  0  0  0  0  0  0  0  0  0  0  0
   21.0058  -21.1367  -14.6284 C   0  0  0  0  0  0  0  0  0  0  0  0
   20.4975  -20.0644  -14.1841 O   0  0  0  0  0  0  0  0  0  0  0  0
   22.0263  -20.7540  -11.8666 C   0  0  0  0  0  0  0  0  0  0  0  0
   22.3861  -21.6133  -10.8195 O   0  0  0  0  0  0  0  0  0  0  0  0
   20.2202  -21.8896  -15.4711 O   0  0  0  0  0  0  0  0  0  0  0  0
   20.9857  -20.0903  -11.7304 O   0  0  0  0  0  0  0  0  0  0  0  0
  2  1  1  1
  2  6  1  0
  2  3  1  0
  3  4  1  0
  4  5  2  0
  4  8  1  0
  6  9  1  0
  6  7  2  0
  9 10  1  0
 10 11  1  1
 11 12  1  0
 12 13  2  0
 14 13  1  0
 15 14  1  0
 16 15  2  0
 17 16  1  0
 18 17  2  0
 18 19  1  0
 19 20  2  0
 20 15  1  0
 20 12  1  0
 21 23  1  0
 21 10  1  0
 22 21  2  0
 24 28  1  0
 24 23  1  0
 24 25  1  6
 26 25  1  0
 27 26  2  0
 28 29  1  0
 30 26  1  0
 31 28  2  0
M  END
$$$$
