DWD.pdb
     RDKit          3D

 31 32  0  0  1  0  0  0  0  0999 V2000
   28.1629  -21.6156  -15.3612 N   0  0  0  0  0  0  0  0  0  0  0  0
   27.3969  -20.5555  -14.7047 C   0  0  1  0  0  0  0  0  0  0  0  0
   26.6819  -19.8049  -15.8069 C   0  0  0  0  0  0  0  0  0  0  0  0
   27.7255  -19.1040  -16.5990 C   0  0  0  0  0  0  0  0  0  0  0  0
   27.6805  -17.8396  -16.7541 O   0  0  0  0  0  0  0  0  0  0  0  0
   26.4819  -21.1089  -13.7010 C   0  0  0  0  0  0  0  0  0  0  0  0
   25.8705  -22.1937  -13.9263 O   0  0  0  0  0  0  0  0  0  0  0  0
   28.7815  -19.7663  -17.1999 O   0  0  0  0  0  0  0  0  0  0  0  0
   26.2373  -20.4821  -12.4628 N   0  0  0  0  0  0  0  0  0  0  0  0
   25.2501  -20.9826  -11.5071 C   0  0  1  0  0  0  0  0  0  0  0  0
   25.6360  -20.3875  -10.1559 C   0  0  0  0  0  0  0  0  0  0  0  0
   26.9608  -20.8699   -9.6916 C   0  0  0  0  0  0  0  0  0  0  0  0
   27.8361  -21.7147  -10.3418 C   0  0  0  0  0  0  0  0  0  0  0  0
   28.9343  -21.9218   -9.6041 N   0  0  0  0  0  0  0  0  0  0  0  0
   28.7881  -21.2181   -8.4709 C   0  0  0  0  0  0  0  0  0  0  0  0
   29.6317  -21.0799   -7.3697 C   0  0  0  0  0  0  0  0  0  0  0  0
   29.2432  -20.2778   -6.3100 C   0  0  0  0  0  0  0  0  0  0  0  0
   28.0327  -19.6097   -6.3216 C   0  0  0  0  0  0  0  0  0  0  0  0
   27.2072  -19.7546   -7.4161 C   0  0  0  0  0  0  0  0  0  0  0  0
   27.5833  -20.5557   -8.4870 C   0  0  0  0  0  0  0  0  0  0  0  0
   23.8830  -20.6305  -11.8853 C   0  0  0  0  0  0  0  0  0  0  0  0
   23.5444  -19.4275  -12.0740 O   0  0  0  0  0  0  0  0  0  0  0  0
   22.9024  -21.6236  -12.0496 N   0  0  0  0  0  0  0  0  0  0  0  0
   21.5390  -21.3006  -12.4955 C   0  0  1  0  0  0  0  0  0  0  0  0
   21.0047  -22.5761  -13.0908 C   0  0  0  0  0  0  0  0  0  0  0  0
   20.1609  -22.4104  -14.2723 C   0  0  0  0  0  0  0  0  0  0  0  0
   19.8787  -21.2355  -14.6538 O   0  0  0  0  0  0  0  0  0  0  0  0
   20.7355  -20.8338  -11.3383 C   0  0  0  0  0  0  0  0  0  0  0  0
   19.6695  -19.9589  -11.5881 O   0  0  0  0  0  0  0  0  0  0  0  0
   19.6377  -23.4435  -15.0161 O   0  0  0  0  0  0  0  0  0  0  0  0
   20.9404  -21.1643  -10.1590 O   0  0  0  0  0  0  0  0  0  0  0  0
  2  1  1  6
  2  6  1  0
  2  3  1  0
  3  4  1  0
  4  5  2  0
  4  8  1  0
  6  9  1  0
  6  7  2  0
  9 10  1  0
 10 11  1  1
 11 12  1  0
 12 13  2  0
 14 13  1  0
 15 14  1  0
 16 15  2  0
 17 16  1  0
 18 17  2  0
 18 19  1  0
 19 20  2  0
 20 15  1  0
 20 12  1  0
 21 23  1  0
 21 10  1  0
 22 21  2  0
 24 28  1  0
 24 23  1  0
 24 25  1  1
 26 25  1  0
 27 26  2  0
 28 29  1  0
 30 26  1  0
 31 28  2  0
M  END
$$$$
