DWD.pdb
     RDKit          3D

 31 32  0  0  1  0  0  0  0  0999 V2000
   29.0165  -20.0345  -14.3050 N   0  0  0  0  0  0  0  0  0  0  0  0
   27.7435  -20.6887  -14.6102 C   0  0  1  0  0  0  0  0  0  0  0  0
   28.0800  -21.8939  -15.4609 C   0  0  0  0  0  0  0  0  0  0  0  0
   28.7596  -21.3853  -16.6804 C   0  0  0  0  0  0  0  0  0  0  0  0
   29.7004  -22.0523  -17.2233 O   0  0  0  0  0  0  0  0  0  0  0  0
   27.0209  -21.0371  -13.3825 C   0  0  0  0  0  0  0  0  0  0  0  0
   25.8888  -21.5988  -13.4478 O   0  0  0  0  0  0  0  0  0  0  0  0
   28.4195  -20.1871  -17.2835 O   0  0  0  0  0  0  0  0  0  0  0  0
   27.5309  -20.7735  -12.0955 N   0  0  0  0  0  0  0  0  0  0  0  0
   26.7419  -20.9680  -10.8797 C   0  0  1  0  0  0  0  0  0  0  0  0
   27.6333  -20.5186   -9.7255 C   0  0  0  0  0  0  0  0  0  0  0  0
   26.9095  -20.5166   -8.4296 C   0  0  0  0  0  0  0  0  0  0  0  0
   25.5952  -20.8574   -8.1868 C   0  0  0  0  0  0  0  0  0  0  0  0
   25.3025  -20.7289   -6.8863 N   0  0  0  0  0  0  0  0  0  0  0  0
   26.4167  -20.3052   -6.2702 C   0  0  0  0  0  0  0  0  0  0  0  0
   26.6618  -20.0173   -4.9283 C   0  0  0  0  0  0  0  0  0  0  0  0
   27.9215  -19.5923   -4.5415 C   0  0  0  0  0  0  0  0  0  0  0  0
   28.9437  -19.4469   -5.4611 C   0  0  0  0  0  0  0  0  0  0  0  0
   28.6889  -19.7344   -6.7850 C   0  0  0  0  0  0  0  0  0  0  0  0
   27.4302  -20.1621   -7.1883 C   0  0  0  0  0  0  0  0  0  0  0  0
   25.4811  -20.2294  -10.9119 C   0  0  0  0  0  0  0  0  0  0  0  0
   25.4591  -18.9674  -10.8446 O   0  0  0  0  0  0  0  0  0  0  0  0
   24.2532  -20.9043  -11.0182 N   0  0  0  0  0  0  0  0  0  0  0  0
   22.9784  -20.1808  -11.1340 C   0  0  1  0  0  0  0  0  0  0  0  0
   22.8203  -19.8902  -12.6028 C   0  0  0  0  0  0  0  0  0  0  0  0
   21.5194  -19.3555  -12.9989 C   0  0  0  0  0  0  0  0  0  0  0  0
   20.8984  -19.9183  -13.9493 O   0  0  0  0  0  0  0  0  0  0  0  0
   21.8791  -21.0229  -10.6002 C   0  0  0  0  0  0  0  0  0  0  0  0
   21.9602  -22.4089  -10.7914 O   0  0  0  0  0  0  0  0  0  0  0  0
   20.9039  -18.2717  -12.4153 O   0  0  0  0  0  0  0  0  0  0  0  0
   20.8877  -20.5859   -9.9934 O   0  0  0  0  0  0  0  0  0  0  0  0
  2  1  1  1
  2  6  1  0
  2  3  1  0
  3  4  1  0
  4  5  2  0
  4  8  1  0
  6  9  1  0
  6  7  2  0
  9 10  1  0
 10 11  1  1
 11 12  1  0
 12 13  2  0
 14 13  1  0
 15 14  1  0
 16 15  2  0
 17 16  1  0
 18 17  2  0
 18 19  1  0
 19 20  2  0
 20 15  1  0
 20 12  1  0
 21 23  1  0
 21 10  1  0
 22 21  2  0
 24 28  1  0
 24 23  1  0
 24 25  1  6
 26 25  1  0
 27 26  2  0
 28 29  1  0
 30 26  1  0
 31 28  2  0
M  END
$$$$
