DWD.pdb
     RDKit          3D

 31 32  0  0  1  0  0  0  0  0999 V2000
   28.1934  -23.0669  -16.5772 N   0  0  0  0  0  0  0  0  0  0  0  0
   27.8604  -21.7471  -16.0398 C   0  0  1  0  0  0  0  0  0  0  0  0
   27.0784  -21.0343  -17.1214 C   0  0  0  0  0  0  0  0  0  0  0  0
   28.0447  -20.6879  -18.1956 C   0  0  0  0  0  0  0  0  0  0  0  0
   27.9448  -21.2157  -19.3515 O   0  0  0  0  0  0  0  0  0  0  0  0
   27.1211  -21.8614  -14.7785 C   0  0  0  0  0  0  0  0  0  0  0  0
   25.9910  -22.4302  -14.7522 O   0  0  0  0  0  0  0  0  0  0  0  0
   29.0843  -19.7938  -18.0088 O   0  0  0  0  0  0  0  0  0  0  0  0
   27.6123  -21.3581  -13.5573 N   0  0  0  0  0  0  0  0  0  0  0  0
   26.8003  -21.3064  -12.3421 C   0  0  1  0  0  0  0  0  0  0  0  0
   27.6645  -20.6173  -11.2899 C   0  0  0  0  0  0  0  0  0  0  0  0
   26.9604  -20.4835   -9.9901 C   0  0  0  0  0  0  0  0  0  0  0  0
   25.6014  -20.4530   -9.7560 C   0  0  0  0  0  0  0  0  0  0  0  0
   25.3464  -20.3196   -8.4481 N   0  0  0  0  0  0  0  0  0  0  0  0
   26.5299  -20.2621   -7.8184 C   0  0  0  0  0  0  0  0  0  0  0  0
   26.8355  -20.1301   -6.4645 C   0  0  0  0  0  0  0  0  0  0  0  0
   28.1609  -20.0996   -6.0649 C   0  0  0  0  0  0  0  0  0  0  0  0
   29.1899  -20.1973   -6.9832 C   0  0  0  0  0  0  0  0  0  0  0  0
   28.8750  -20.3272   -8.3189 C   0  0  0  0  0  0  0  0  0  0  0  0
   27.5500  -20.3597   -8.7352 C   0  0  0  0  0  0  0  0  0  0  0  0
   25.5346  -20.6057  -12.5495 C   0  0  0  0  0  0  0  0  0  0  0  0
   25.5066  -19.3777  -12.8478 O   0  0  0  0  0  0  0  0  0  0  0  0
   24.3084  -21.2800  -12.4217 N   0  0  0  0  0  0  0  0  0  0  0  0
   23.0236  -20.6023  -12.6499 C   0  0  1  0  0  0  0  0  0  0  0  0
   22.4323  -21.2727  -13.8614 C   0  0  0  0  0  0  0  0  0  0  0  0
   22.6254  -20.5653  -15.1253 C   0  0  0  0  0  0  0  0  0  0  0  0
   22.5993  -19.2984  -15.1193 O   0  0  0  0  0  0  0  0  0  0  0  0
   22.1663  -20.7449  -11.4469 C   0  0  0  0  0  0  0  0  0  0  0  0
   21.2515  -19.7209  -11.1661 O   0  0  0  0  0  0  0  0  0  0  0  0
   22.8352  -21.1727  -16.3424 O   0  0  0  0  0  0  0  0  0  0  0  0
   22.2010  -21.7109  -10.6674 O   0  0  0  0  0  0  0  0  0  0  0  0
  2  1  1  6
  2  6  1  0
  2  3  1  0
  3  4  1  0
  4  5  2  0
  4  8  1  0
  6  9  1  0
  6  7  2  0
  9 10  1  0
 10 11  1  1
 11 12  1  0
 12 13  2  0
 14 13  1  0
 15 14  1  0
 16 15  2  0
 17 16  1  0
 18 17  2  0
 18 19  1  0
 19 20  2  0
 20 15  1  0
 20 12  1  0
 21 23  1  0
 21 10  1  0
 22 21  2  0
 24 28  1  0
 24 23  1  0
 24 25  1  6
 26 25  1  0
 27 26  2  0
 28 29  1  0
 30 26  1  0
 31 28  2  0
M  END
$$$$
