DWD.pdb
     RDKit          3D

 31 32  0  0  1  0  0  0  0  0999 V2000
   28.5646  -18.3561  -14.2944 N   0  0  0  0  0  0  0  0  0  0  0  0
   27.3151  -18.7538  -14.9441 C   0  0  1  0  0  0  0  0  0  0  0  0
   27.5229  -18.5416  -16.4278 C   0  0  0  0  0  0  0  0  0  0  0  0
   27.8784  -17.1109  -16.6135 C   0  0  0  0  0  0  0  0  0  0  0  0
   27.5222  -16.2384  -15.7553 O   0  0  0  0  0  0  0  0  0  0  0  0
   26.9610  -20.1364  -14.6067 C   0  0  0  0  0  0  0  0  0  0  0  0
   26.9470  -21.0273  -15.5052 O   0  0  0  0  0  0  0  0  0  0  0  0
   28.5995  -16.6530  -17.7023 O   0  0  0  0  0  0  0  0  0  0  0  0
   26.6249  -20.5410  -13.2994 N   0  0  0  0  0  0  0  0  0  0  0  0
   26.2867  -21.9238  -12.9645 C   0  0  1  0  0  0  0  0  0  0  0  0
   26.9824  -22.2158  -11.6380 C   0  0  0  0  0  0  0  0  0  0  0  0
   26.6269  -21.2249  -10.5916 C   0  0  0  0  0  0  0  0  0  0  0  0
   25.4589  -20.5025  -10.4633 C   0  0  0  0  0  0  0  0  0  0  0  0
   25.5079  -19.7049   -9.3887 N   0  0  0  0  0  0  0  0  0  0  0  0
   26.7020  -19.8975   -8.8075 C   0  0  0  0  0  0  0  0  0  0  0  0
   27.2619  -19.3256   -7.6659 C   0  0  0  0  0  0  0  0  0  0  0  0
   28.5330  -19.7037   -7.2677 C   0  0  0  0  0  0  0  0  0  0  0  0
   29.2602  -20.6387   -7.9808 C   0  0  0  0  0  0  0  0  0  0  0  0
   28.6959  -21.1967   -9.1079 C   0  0  0  0  0  0  0  0  0  0  0  0
   27.4215  -20.8278   -9.5199 C   0  0  0  0  0  0  0  0  0  0  0  0
   24.8433  -22.1373  -12.8796 C   0  0  0  0  0  0  0  0  0  0  0  0
   24.3653  -23.2586  -12.5451 O   0  0  0  0  0  0  0  0  0  0  0  0
   23.9430  -21.0981  -13.1695 N   0  0  0  0  0  0  0  0  0  0  0  0
   22.4933  -21.3294  -13.2538 C   0  0  1  0  0  0  0  0  0  0  0  0
   21.8641  -20.1607  -12.5430 C   0  0  0  0  0  0  0  0  0  0  0  0
   20.7104  -20.4838  -11.7065 C   0  0  0  0  0  0  0  0  0  0  0  0
   20.1576  -19.5502  -11.0521 O   0  0  0  0  0  0  0  0  0  0  0  0
   22.0858  -21.4138  -14.6784 C   0  0  0  0  0  0  0  0  0  0  0  0
   20.9494  -22.1711  -14.9935 O   0  0  0  0  0  0  0  0  0  0  0  0
   20.1671  -21.7407  -11.5678 O   0  0  0  0  0  0  0  0  0  0  0  0
   22.6820  -20.8592  -15.6159 O   0  0  0  0  0  0  0  0  0  0  0  0
  2  1  1  1
  2  6  1  0
  2  3  1  0
  3  4  1  0
  4  5  2  0
  4  8  1  0
  6  9  1  0
  6  7  2  0
  9 10  1  0
 10 11  1  1
 11 12  1  0
 12 13  2  0
 14 13  1  0
 15 14  1  0
 16 15  2  0
 17 16  1  0
 18 17  2  0
 18 19  1  0
 19 20  2  0
 20 15  1  0
 20 12  1  0
 21 23  1  0
 21 10  1  0
 22 21  2  0
 24 28  1  0
 24 23  1  0
 24 25  1  6
 26 25  1  0
 27 26  2  0
 28 29  1  0
 30 26  1  0
 31 28  2  0
M  END
$$$$
