DWD.pdb
     RDKit          3D

 31 32  0  0  1  0  0  0  0  0999 V2000
   28.6396  -21.9293  -15.3404 N   0  0  0  0  0  0  0  0  0  0  0  0
   27.4173  -21.1250  -15.3642 C   0  0  1  0  0  0  0  0  0  0  0  0
   26.7896  -21.3485  -16.7227 C   0  0  0  0  0  0  0  0  0  0  0  0
   27.5758  -20.5498  -17.6982 C   0  0  0  0  0  0  0  0  0  0  0  0
   28.2400  -19.5314  -17.3154 O   0  0  0  0  0  0  0  0  0  0  0  0
   26.5272  -21.4836  -14.2552 C   0  0  0  0  0  0  0  0  0  0  0  0
   25.9589  -22.6141  -14.2350 O   0  0  0  0  0  0  0  0  0  0  0  0
   27.6316  -20.8569  -19.0463 O   0  0  0  0  0  0  0  0  0  0  0  0
   26.2605  -20.6143  -13.1786 N   0  0  0  0  0  0  0  0  0  0  0  0
   25.2806  -20.9250  -12.1385 C   0  0  1  0  0  0  0  0  0  0  0  0
   25.6701  -20.0786  -10.9298 C   0  0  0  0  0  0  0  0  0  0  0  0
   26.9259  -20.5539  -10.2971 C   0  0  0  0  0  0  0  0  0  0  0  0
   27.9632  -21.2514  -10.8802 C   0  0  0  0  0  0  0  0  0  0  0  0
   28.9279  -21.5052   -9.9868 N   0  0  0  0  0  0  0  0  0  0  0  0
   28.5324  -20.9787   -8.8175 C   0  0  0  0  0  0  0  0  0  0  0  0
   29.1572  -20.9559   -7.5714 C   0  0  0  0  0  0  0  0  0  0  0  0
   28.5292  -20.3340   -6.5055 C   0  0  0  0  0  0  0  0  0  0  0  0
   27.2922  -19.7340   -6.6519 C   0  0  0  0  0  0  0  0  0  0  0  0
   26.6846  -19.7633   -7.8889 C   0  0  0  0  0  0  0  0  0  0  0  0
   27.3022  -20.3832   -8.9679 C   0  0  0  0  0  0  0  0  0  0  0  0
   23.9098  -20.6584  -12.5696 C   0  0  0  0  0  0  0  0  0  0  0  0
   23.5923  -19.5559  -13.0998 O   0  0  0  0  0  0  0  0  0  0  0  0
   22.9021  -21.6240  -12.4051 N   0  0  0  0  0  0  0  0  0  0  0  0
   21.4972  -21.3420  -12.7346 C   0  0  1  0  0  0  0  0  0  0  0  0
   20.8066  -22.6795  -12.7009 C   0  0  0  0  0  0  0  0  0  0  0  0
   19.3655  -22.6464  -12.9403 C   0  0  0  0  0  0  0  0  0  0  0  0
   18.8123  -21.5252  -13.1461 O   0  0  0  0  0  0  0  0  0  0  0  0
   20.9366  -20.3884  -11.7451 C   0  0  0  0  0  0  0  0  0  0  0  0
   21.2588  -20.5773  -10.3943 O   0  0  0  0  0  0  0  0  0  0  0  0
   18.5460  -23.7520  -12.9594 O   0  0  0  0  0  0  0  0  0  0  0  0
   20.1992  -19.4305  -12.0290 O   0  0  0  0  0  0  0  0  0  0  0  0
  2  1  1  6
  2  6  1  0
  2  3  1  0
  3  4  1  0
  4  5  2  0
  4  8  1  0
  6  9  1  0
  6  7  2  0
  9 10  1  0
 10 11  1  1
 11 12  1  0
 12 13  2  0
 14 13  1  0
 15 14  1  0
 16 15  2  0
 17 16  1  0
 18 17  2  0
 18 19  1  0
 19 20  2  0
 20 15  1  0
 20 12  1  0
 21 23  1  0
 21 10  1  0
 22 21  2  0
 24 28  1  0
 24 23  1  0
 24 25  1  1
 26 25  1  0
 27 26  2  0
 28 29  1  0
 30 26  1  0
 31 28  2  0
M  END
$$$$
