DWD.pdb
     RDKit          3D

 31 32  0  0  1  0  0  0  0  0999 V2000
   19.2276  -13.8758  -18.0947 N   0  0  0  0  0  0  0  0  0  0  0  0
   19.3799  -12.4771  -18.4971 C   0  0  1  0  0  0  0  0  0  0  0  0
   18.3178  -12.2194  -19.5436 C   0  0  0  0  0  0  0  0  0  0  0  0
   18.7145  -12.9792  -20.7573 C   0  0  0  0  0  0  0  0  0  0  0  0
   19.8592  -12.7997  -21.2884 O   0  0  0  0  0  0  0  0  0  0  0  0
   19.2755  -11.5804  -17.3414 C   0  0  0  0  0  0  0  0  0  0  0  0
   18.3149  -11.7014  -16.5265 O   0  0  0  0  0  0  0  0  0  0  0  0
   17.8848  -13.9036  -21.3674 O   0  0  0  0  0  0  0  0  0  0  0  0
   20.2121  -10.5608  -17.0791 N   0  0  0  0  0  0  0  0  0  0  0  0
   20.0449   -9.5971  -15.9919 C   0  0  1  0  0  0  0  0  0  0  0  0
   21.4545   -9.1900  -15.5724 C   0  0  0  0  0  0  0  0  0  0  0  0
   21.4434   -8.1196  -14.5441 C   0  0  0  0  0  0  0  0  0  0  0  0
   21.2167   -8.2417  -13.1890 C   0  0  0  0  0  0  0  0  0  0  0  0
   21.2873   -7.0486  -12.5850 N   0  0  0  0  0  0  0  0  0  0  0  0
   21.5594   -6.1403  -13.5345 C   0  0  0  0  0  0  0  0  0  0  0  0
   21.7392   -4.7603  -13.4497 C   0  0  0  0  0  0  0  0  0  0  0  0
   22.0195   -4.0378  -14.5972 C   0  0  0  0  0  0  0  0  0  0  0  0
   22.1247   -4.6583  -15.8283 C   0  0  0  0  0  0  0  0  0  0  0  0
   21.9445   -6.0231  -15.8993 C   0  0  0  0  0  0  0  0  0  0  0  0
   21.6631   -6.7616  -14.7567 C   0  0  0  0  0  0  0  0  0  0  0  0
   19.2422   -8.4429  -16.3916 C   0  0  0  0  0  0  0  0  0  0  0  0
   19.3687   -7.9215  -17.5360 O   0  0  0  0  0  0  0  0  0  0  0  0
   18.3043   -7.8778  -15.5109 N   0  0  0  0  0  0  0  0  0  0  0  0
   17.6691   -6.5800  -15.7832 C   0  0  1  0  0  0  0  0  0  0  0  0
   16.1887   -6.8542  -15.7738 C   0  0  0  0  0  0  0  0  0  0  0  0
   15.3330   -5.6771  -15.9059 C   0  0  0  0  0  0  0  0  0  0  0  0
   14.5858   -5.3605  -14.9327 O   0  0  0  0  0  0  0  0  0  0  0  0
   18.0720   -5.6017  -14.7425 C   0  0  0  0  0  0  0  0  0  0  0  0
   18.2427   -4.2649  -15.1274 O   0  0  0  0  0  0  0  0  0  0  0  0
   15.2701   -4.8717  -17.0201 O   0  0  0  0  0  0  0  0  0  0  0  0
   18.2697   -5.8833  -13.5494 O   0  0  0  0  0  0  0  0  0  0  0  0
  2  1  1  1
  2  6  1  0
  2  3  1  0
  3  4  1  0
  4  5  2  0
  4  8  1  0
  6  9  1  0
  6  7  2  0
  9 10  1  0
 10 11  1  6
 11 12  1  0
 12 13  2  0
 14 13  1  0
 15 14  1  0
 16 15  2  0
 17 16  1  0
 18 17  2  0
 18 19  1  0
 19 20  2  0
 20 15  1  0
 20 12  1  0
 21 23  1  0
 21 10  1  0
 22 21  2  0
 24 28  1  0
 24 23  1  0
 24 25  1  1
 26 25  1  0
 27 26  2  0
 28 29  1  0
 30 26  1  0
 31 28  2  0
M  END
$$$$
