DWD.pdb
     RDKit          3D

 31 32  0  0  1  0  0  0  0  0999 V2000
   28.4798  -21.0737  -16.6284 N   0  0  0  0  0  0  0  0  0  0  0  0
   27.5836  -22.2297  -16.5829 C   0  0  1  0  0  0  0  0  0  0  0  0
   28.4679  -23.4547  -16.6661 C   0  0  0  0  0  0  0  0  0  0  0  0
   29.2967  -23.3064  -17.8904 C   0  0  0  0  0  0  0  0  0  0  0  0
   28.7561  -23.0130  -19.0068 O   0  0  0  0  0  0  0  0  0  0  0  0
   26.7502  -22.2050  -15.3764 C   0  0  0  0  0  0  0  0  0  0  0  0
   26.3172  -23.2852  -14.8796 O   0  0  0  0  0  0  0  0  0  0  0  0
   30.6703  -23.4740  -17.8904 O   0  0  0  0  0  0  0  0  0  0  0  0
   26.3932  -21.0104  -14.7196 N   0  0  0  0  0  0  0  0  0  0  0  0
   25.6156  -20.9937  -13.4811 C   0  0  1  0  0  0  0  0  0  0  0  0
   26.2232  -19.8901  -12.6199 C   0  0  0  0  0  0  0  0  0  0  0  0
   27.2785  -20.4071  -11.7132 C   0  0  0  0  0  0  0  0  0  0  0  0
   28.5136  -20.9216  -12.0486 C   0  0  0  0  0  0  0  0  0  0  0  0
   29.1905  -21.2876  -10.9526 N   0  0  0  0  0  0  0  0  0  0  0  0
   28.4085  -21.0173   -9.8962 C   0  0  0  0  0  0  0  0  0  0  0  0
   28.6272  -21.1986   -8.5313 C   0  0  0  0  0  0  0  0  0  0  0  0
   27.6449  -20.8279   -7.6285 C   0  0  0  0  0  0  0  0  0  0  0  0
   26.4487  -20.2805   -8.0540 C   0  0  0  0  0  0  0  0  0  0  0  0
   26.2442  -20.1064   -9.4061 C   0  0  0  0  0  0  0  0  0  0  0  0
   27.2204  -20.4732  -10.3240 C   0  0  0  0  0  0  0  0  0  0  0  0
   24.1913  -20.7723  -13.7227 C   0  0  0  0  0  0  0  0  0  0  0  0
   23.7874  -19.7859  -14.4019 O   0  0  0  0  0  0  0  0  0  0  0  0
   23.2271  -21.6531  -13.2038 N   0  0  0  0  0  0  0  0  0  0  0  0
   21.7867  -21.4205  -13.3862 C   0  0  1  0  0  0  0  0  0  0  0  0
   21.1293  -22.7355  -13.0617 C   0  0  0  0  0  0  0  0  0  0  0  0
   19.6750  -22.7601  -13.2022 C   0  0  0  0  0  0  0  0  0  0  0  0
   19.0476  -23.7913  -12.8167 O   0  0  0  0  0  0  0  0  0  0  0  0
   21.3425  -20.3265  -12.4871 C   0  0  0  0  0  0  0  0  0  0  0  0
   21.9345  -20.2355  -11.2200 O   0  0  0  0  0  0  0  0  0  0  0  0
   18.9185  -21.7382  -13.7292 O   0  0  0  0  0  0  0  0  0  0  0  0
   20.4801  -19.4817  -12.7778 O   0  0  0  0  0  0  0  0  0  0  0  0
  2  1  1  1
  2  6  1  0
  2  3  1  0
  3  4  1  0
  4  5  2  0
  4  8  1  0
  6  9  1  0
  6  7  2  0
  9 10  1  0
 10 11  1  1
 11 12  1  0
 12 13  2  0
 14 13  1  0
 15 14  1  0
 16 15  2  0
 17 16  1  0
 18 17  2  0
 18 19  1  0
 19 20  2  0
 20 15  1  0
 20 12  1  0
 21 23  1  0
 21 10  1  0
 22 21  2  0
 24 28  1  0
 24 23  1  0
 24 25  1  1
 26 25  1  0
 27 26  2  0
 28 29  1  0
 30 26  1  0
 31 28  2  0
M  END
$$$$
