DWD.pdb
     RDKit          3D

 31 32  0  0  1  0  0  0  0  0999 V2000
   27.5126  -23.2759  -16.1240 N   0  0  0  0  0  0  0  0  0  0  0  0
   26.0993  -23.2757  -16.5036 C   0  0  1  0  0  0  0  0  0  0  0  0
   25.7718  -24.6937  -16.9178 C   0  0  0  0  0  0  0  0  0  0  0  0
   26.3939  -24.9089  -18.2498 C   0  0  0  0  0  0  0  0  0  0  0  0
   26.4309  -23.9665  -19.1072 O   0  0  0  0  0  0  0  0  0  0  0  0
   25.2574  -22.7901  -15.4053 C   0  0  0  0  0  0  0  0  0  0  0  0
   25.0646  -23.5118  -14.3839 O   0  0  0  0  0  0  0  0  0  0  0  0
   26.9559  -26.1155  -18.6284 O   0  0  0  0  0  0  0  0  0  0  0  0
   24.6316  -21.5276  -15.4238 N   0  0  0  0  0  0  0  0  0  0  0  0
   23.8263  -21.0304  -14.3090 C   0  0  1  0  0  0  0  0  0  0  0  0
   24.5144  -19.7547  -13.8314 C   0  0  0  0  0  0  0  0  0  0  0  0
   25.5989  -20.0366  -12.8579 C   0  0  0  0  0  0  0  0  0  0  0  0
   26.9567  -20.1047  -13.0906 C   0  0  0  0  0  0  0  0  0  0  0  0
   27.6200  -20.3829  -11.9610 N   0  0  0  0  0  0  0  0  0  0  0  0
   26.7068  -20.4987  -10.9846 C   0  0  0  0  0  0  0  0  0  0  0  0
   26.8562  -20.7757   -9.6264 C   0  0  0  0  0  0  0  0  0  0  0  0
   25.7350  -20.8382   -8.8163 C   0  0  0  0  0  0  0  0  0  0  0  0
   24.4673  -20.6312   -9.3280 C   0  0  0  0  0  0  0  0  0  0  0  0
   24.3326  -20.3583  -10.6725 C   0  0  0  0  0  0  0  0  0  0  0  0
   25.4481  -20.2921  -11.4979 C   0  0  0  0  0  0  0  0  0  0  0  0
   22.4371  -20.7875  -14.6925 C   0  0  0  0  0  0  0  0  0  0  0  0
   22.1476  -20.2404  -15.7945 O   0  0  0  0  0  0  0  0  0  0  0  0
   21.3801  -21.1561  -13.8430 N   0  0  0  0  0  0  0  0  0  0  0  0
   19.9783  -20.8658  -14.1788 C   0  0  1  0  0  0  0  0  0  0  0  0
   19.1635  -21.7664  -13.2890 C   0  0  0  0  0  0  0  0  0  0  0  0
   19.0529  -23.1536  -13.7346 C   0  0  0  0  0  0  0  0  0  0  0  0
   19.5470  -23.4690  -14.8580 O   0  0  0  0  0  0  0  0  0  0  0  0
   19.6982  -19.4279  -13.9410 C   0  0  0  0  0  0  0  0  0  0  0  0
   18.7300  -18.8055  -14.7407 O   0  0  0  0  0  0  0  0  0  0  0  0
   18.4444  -24.1621  -13.0227 O   0  0  0  0  0  0  0  0  0  0  0  0
   20.2623  -18.7331  -13.0802 O   0  0  0  0  0  0  0  0  0  0  0  0
  2  1  1  1
  2  6  1  0
  2  3  1  0
  3  4  1  0
  4  5  2  0
  4  8  1  0
  6  9  1  0
  6  7  2  0
  9 10  1  0
 10 11  1  6
 11 12  1  0
 12 13  2  0
 14 13  1  0
 15 14  1  0
 16 15  2  0
 17 16  1  0
 18 17  2  0
 18 19  1  0
 19 20  2  0
 20 15  1  0
 20 12  1  0
 21 23  1  0
 21 10  1  0
 22 21  2  0
 24 28  1  0
 24 23  1  0
 24 25  1  1
 26 25  1  0
 27 26  2  0
 28 29  1  0
 30 26  1  0
 31 28  2  0
M  END
$$$$
