DWD.pdb
     RDKit          3D

 31 32  0  0  1  0  0  0  0  0999 V2000
   27.7874  -20.5506  -16.2570 N   0  0  0  0  0  0  0  0  0  0  0  0
   27.4317  -21.9454  -15.9932 C   0  0  1  0  0  0  0  0  0  0  0  0
   28.7377  -22.6929  -15.8351 C   0  0  0  0  0  0  0  0  0  0  0  0
   29.3351  -22.8095  -17.1905 C   0  0  0  0  0  0  0  0  0  0  0  0
   28.6640  -22.4839  -18.2242 O   0  0  0  0  0  0  0  0  0  0  0  0
   26.5620  -22.0555  -14.8174 C   0  0  0  0  0  0  0  0  0  0  0  0
   26.2579  -23.1934  -14.3549 O   0  0  0  0  0  0  0  0  0  0  0  0
   30.6233  -23.2670  -17.4051 O   0  0  0  0  0  0  0  0  0  0  0  0
   26.0294  -20.9321  -14.1539 N   0  0  0  0  0  0  0  0  0  0  0  0
   25.1472  -21.0469  -12.9932 C   0  0  1  0  0  0  0  0  0  0  0  0
   25.6519  -20.0228  -11.9806 C   0  0  0  0  0  0  0  0  0  0  0  0
   26.8632  -20.4959  -11.2650 C   0  0  0  0  0  0  0  0  0  0  0  0
   28.0477  -20.9529  -11.8041 C   0  0  0  0  0  0  0  0  0  0  0  0
   28.9106  -21.2929  -10.8381 N   0  0  0  0  0  0  0  0  0  0  0  0
   28.3016  -21.0625   -9.6648 C   0  0  0  0  0  0  0  0  0  0  0  0
   28.7490  -21.2398   -8.3564 C   0  0  0  0  0  0  0  0  0  0  0  0
   27.9130  -20.9174   -7.3007 C   0  0  0  0  0  0  0  0  0  0  0  0
   26.6405  -20.4225   -7.5181 C   0  0  0  0  0  0  0  0  0  0  0  0
   26.2095  -20.2519   -8.8163 C   0  0  0  0  0  0  0  0  0  0  0  0
   27.0368  -20.5705   -9.8859 C   0  0  0  0  0  0  0  0  0  0  0  0
   23.7444  -20.8245  -13.3379 C   0  0  0  0  0  0  0  0  0  0  0  0
   23.3922  -19.8397  -14.0476 O   0  0  0  0  0  0  0  0  0  0  0  0
   22.7439  -21.7023  -12.8873 N   0  0  0  0  0  0  0  0  0  0  0  0
   21.3256  -21.4952  -13.2154 C   0  0  1  0  0  0  0  0  0  0  0  0
   20.6970  -22.8608  -13.1340 C   0  0  0  0  0  0  0  0  0  0  0  0
   20.8427  -23.6895  -14.3287 C   0  0  0  0  0  0  0  0  0  0  0  0
   21.3064  -23.1573  -15.3809 O   0  0  0  0  0  0  0  0  0  0  0  0
   20.7280  -20.5367  -12.2528 C   0  0  0  0  0  0  0  0  0  0  0  0
   19.6836  -19.7176  -12.7030 O   0  0  0  0  0  0  0  0  0  0  0  0
   20.5105  -25.0229  -14.4061 O   0  0  0  0  0  0  0  0  0  0  0  0
   21.0881  -20.4074  -11.0715 O   0  0  0  0  0  0  0  0  0  0  0  0
  2  1  1  1
  2  6  1  0
  2  3  1  0
  3  4  1  0
  4  5  2  0
  4  8  1  0
  6  9  1  0
  6  7  2  0
  9 10  1  0
 10 11  1  1
 11 12  1  0
 12 13  2  0
 14 13  1  0
 15 14  1  0
 16 15  2  0
 17 16  1  0
 18 17  2  0
 18 19  1  0
 19 20  2  0
 20 15  1  0
 20 12  1  0
 21 23  1  0
 21 10  1  0
 22 21  2  0
 24 28  1  0
 24 23  1  0
 24 25  1  1
 26 25  1  0
 27 26  2  0
 28 29  1  0
 30 26  1  0
 31 28  2  0
M  END
$$$$
