DWD.pdb
     RDKit          3D

 31 32  0  0  1  0  0  0  0  0999 V2000
   19.6390  -10.5719  -18.3792 N   0  0  0  0  0  0  0  0  0  0  0  0
   18.7179  -10.4407  -17.2497 C   0  0  1  0  0  0  0  0  0  0  0  0
   18.7242  -11.7773  -16.5406 C   0  0  0  0  0  0  0  0  0  0  0  0
   18.0516  -12.7477  -17.4427 C   0  0  0  0  0  0  0  0  0  0  0  0
   18.6398  -13.8238  -17.7902 O   0  0  0  0  0  0  0  0  0  0  0  0
   19.1062   -9.3272  -16.3779 C   0  0  0  0  0  0  0  0  0  0  0  0
   18.4639   -9.0997  -15.3115 O   0  0  0  0  0  0  0  0  0  0  0  0
   16.7786  -12.5452  -17.9461 O   0  0  0  0  0  0  0  0  0  0  0  0
   20.1862   -8.4702  -16.6693 N   0  0  0  0  0  0  0  0  0  0  0  0
   20.5683   -7.3592  -15.7985 C   0  0  1  0  0  0  0  0  0  0  0  0
   22.0912   -7.4017  -15.7091 C   0  0  0  0  0  0  0  0  0  0  0  0
   22.5706   -8.5464  -14.8948 C   0  0  0  0  0  0  0  0  0  0  0  0
   23.3552   -9.6078  -15.2952 C   0  0  0  0  0  0  0  0  0  0  0  0
   23.5799  -10.4453  -14.2746 N   0  0  0  0  0  0  0  0  0  0  0  0
   22.9478   -9.9418  -13.2034 C   0  0  0  0  0  0  0  0  0  0  0  0
   22.8600  -10.4116  -11.8937 C   0  0  0  0  0  0  0  0  0  0  0  0
   22.1359   -9.6917  -10.9585 C   0  0  0  0  0  0  0  0  0  0  0  0
   21.4962   -8.5138  -11.2978 C   0  0  0  0  0  0  0  0  0  0  0  0
   21.5902   -8.0598  -12.5959 C   0  0  0  0  0  0  0  0  0  0  0  0
   22.3133   -8.7708  -13.5454 C   0  0  0  0  0  0  0  0  0  0  0  0
   20.0890   -6.0720  -16.2979 C   0  0  0  0  0  0  0  0  0  0  0  0
   20.2277   -5.7473  -17.5116 O   0  0  0  0  0  0  0  0  0  0  0  0
   19.4590   -5.1554  -15.4392 N   0  0  0  0  0  0  0  0  0  0  0  0
   18.9521   -3.8625  -15.9226 C   0  0  1  0  0  0  0  0  0  0  0  0
   17.6968   -3.6086  -15.1312 C   0  0  0  0  0  0  0  0  0  0  0  0
   17.0413   -2.3286  -15.3902 C   0  0  0  0  0  0  0  0  0  0  0  0
   16.6839   -1.6213  -14.4015 O   0  0  0  0  0  0  0  0  0  0  0  0
   19.9805   -2.8142  -15.7079 C   0  0  0  0  0  0  0  0  0  0  0  0
   20.0377   -1.7524  -16.6208 O   0  0  0  0  0  0  0  0  0  0  0  0
   16.7746   -1.8207  -16.6412 O   0  0  0  0  0  0  0  0  0  0  0  0
   20.7979   -2.8099  -14.7731 O   0  0  0  0  0  0  0  0  0  0  0  0
  2  1  1  6
  2  6  1  0
  2  3  1  0
  3  4  1  0
  4  5  2  0
  4  8  1  0
  6  9  1  0
  6  7  2  0
  9 10  1  0
 10 11  1  6
 11 12  1  0
 12 13  2  0
 14 13  1  0
 15 14  1  0
 16 15  2  0
 17 16  1  0
 18 17  2  0
 18 19  1  0
 19 20  2  0
 20 15  1  0
 20 12  1  0
 21 23  1  0
 21 10  1  0
 22 21  2  0
 24 28  1  0
 24 23  1  0
 24 25  1  1
 26 25  1  0
 27 26  2  0
 28 29  1  0
 30 26  1  0
 31 28  2  0
M  END
$$$$
