DWD.pdb
     RDKit          3D

 31 32  0  0  1  0  0  0  0  0999 V2000
   29.2465  -20.3054  -13.9120 N   0  0  0  0  0  0  0  0  0  0  0  0
   28.1324  -20.5024  -14.8403 C   0  0  1  0  0  0  0  0  0  0  0  0
   28.6695  -21.3504  -15.9725 C   0  0  0  0  0  0  0  0  0  0  0  0
   28.3799  -20.6201  -17.2337 C   0  0  0  0  0  0  0  0  0  0  0  0
   28.1427  -19.3678  -17.2170 O   0  0  0  0  0  0  0  0  0  0  0  0
   26.9824  -21.1110  -14.1637 C   0  0  0  0  0  0  0  0  0  0  0  0
   25.9979  -21.5336  -14.8372 O   0  0  0  0  0  0  0  0  0  0  0  0
   28.3514  -21.2412  -18.4699 O   0  0  0  0  0  0  0  0  0  0  0  0
   26.9091  -21.2559  -12.7639 N   0  0  0  0  0  0  0  0  0  0  0  0
   25.7677  -21.8786  -12.0944 C   0  0  1  0  0  0  0  0  0  0  0  0
   26.2383  -22.2039  -10.6796 C   0  0  0  0  0  0  0  0  0  0  0  0
   26.3514  -20.9880   -9.8358 C   0  0  0  0  0  0  0  0  0  0  0  0
   25.6160  -19.8238   -9.9155 C   0  0  0  0  0  0  0  0  0  0  0  0
   26.0086  -18.9478   -8.9817 N   0  0  0  0  0  0  0  0  0  0  0  0
   26.9988  -19.5282   -8.2865 C   0  0  0  0  0  0  0  0  0  0  0  0
   27.7523  -19.0597   -7.2111 C   0  0  0  0  0  0  0  0  0  0  0  0
   28.7309  -19.8699   -6.6603 C   0  0  0  0  0  0  0  0  0  0  0  0
   28.9768  -21.1369   -7.1563 C   0  0  0  0  0  0  0  0  0  0  0  0
   28.2253  -21.5886   -8.2200 C   0  0  0  0  0  0  0  0  0  0  0  0
   27.2398  -20.7875   -8.7831 C   0  0  0  0  0  0  0  0  0  0  0  0
   24.5882  -21.0156  -12.0897 C   0  0  0  0  0  0  0  0  0  0  0  0
   24.6968  -19.7577  -12.0300 O   0  0  0  0  0  0  0  0  0  0  0  0
   23.2952  -21.5624  -12.1507 N   0  0  0  0  0  0  0  0  0  0  0  0
   22.1213  -20.7415  -12.4828 C   0  0  1  0  0  0  0  0  0  0  0  0
   22.0087  -20.8006  -13.9830 C   0  0  0  0  0  0  0  0  0  0  0  0
   20.7800  -20.2403  -14.5413 C   0  0  0  0  0  0  0  0  0  0  0  0
   20.4817  -19.0406  -14.2633 O   0  0  0  0  0  0  0  0  0  0  0  0
   20.9226  -21.2903  -11.8013 C   0  0  0  0  0  0  0  0  0  0  0  0
   21.0492  -22.5160  -11.1335 O   0  0  0  0  0  0  0  0  0  0  0  0
   19.9050  -20.9210  -15.3569 O   0  0  0  0  0  0  0  0  0  0  0  0
   19.8100  -20.7393  -11.7800 O   0  0  0  0  0  0  0  0  0  0  0  0
  2  1  1  1
  2  6  1  0
  2  3  1  0
  3  4  1  0
  4  5  2  0
  4  8  1  0
  6  9  1  0
  6  7  2  0
  9 10  1  0
 10 11  1  1
 11 12  1  0
 12 13  2  0
 14 13  1  0
 15 14  1  0
 16 15  2  0
 17 16  1  0
 18 17  2  0
 18 19  1  0
 19 20  2  0
 20 15  1  0
 20 12  1  0
 21 23  1  0
 21 10  1  0
 22 21  2  0
 24 28  1  0
 24 23  1  0
 24 25  1  6
 26 25  1  0
 27 26  2  0
 28 29  1  0
 30 26  1  0
 31 28  2  0
M  END
$$$$
