DWD.pdb
     RDKit          3D

 31 32  0  0  1  0  0  0  0  0999 V2000
   29.0447  -21.8637  -14.9046 N   0  0  0  0  0  0  0  0  0  0  0  0
   27.7032  -21.3713  -15.2203 C   0  0  1  0  0  0  0  0  0  0  0  0
   27.2954  -22.0501  -16.5097 C   0  0  0  0  0  0  0  0  0  0  0  0
   26.8273  -20.9821  -17.4304 C   0  0  0  0  0  0  0  0  0  0  0  0
   27.3819  -19.8345  -17.4263 O   0  0  0  0  0  0  0  0  0  0  0  0
   26.7724  -21.6298  -14.1170 C   0  0  0  0  0  0  0  0  0  0  0  0
   26.0451  -22.6653  -14.1269 O   0  0  0  0  0  0  0  0  0  0  0  0
   25.7872  -21.1661  -18.3245 O   0  0  0  0  0  0  0  0  0  0  0  0
   26.6374  -20.7639  -13.0133 N   0  0  0  0  0  0  0  0  0  0  0  0
   25.6189  -20.9548  -11.9814 C   0  0  1  0  0  0  0  0  0  0  0  0
   26.0674  -20.1139  -10.7895 C   0  0  0  0  0  0  0  0  0  0  0  0
   27.2926  -20.6580  -10.1522 C   0  0  0  0  0  0  0  0  0  0  0  0
   28.2905  -21.4141  -10.7309 C   0  0  0  0  0  0  0  0  0  0  0  0
   29.2368  -21.7201   -9.8341 N   0  0  0  0  0  0  0  0  0  0  0  0
   28.8682  -21.1698   -8.6670 C   0  0  0  0  0  0  0  0  0  0  0  0
   29.4897  -21.1799   -7.4191 C   0  0  0  0  0  0  0  0  0  0  0  0
   28.8948  -20.5215   -6.3562 C   0  0  0  0  0  0  0  0  0  0  0  0
   27.6941  -19.8528   -6.5074 C   0  0  0  0  0  0  0  0  0  0  0  0
   27.0893  -19.8503   -7.7461 C   0  0  0  0  0  0  0  0  0  0  0  0
   27.6740  -20.5062   -8.8222 C   0  0  0  0  0  0  0  0  0  0  0  0
   24.2843  -20.5766  -12.4417 C   0  0  0  0  0  0  0  0  0  0  0  0
   24.0886  -19.4955  -13.0666 O   0  0  0  0  0  0  0  0  0  0  0  0
   23.1768  -21.4073  -12.2008 N   0  0  0  0  0  0  0  0  0  0  0  0
   21.8256  -21.0493  -12.6568 C   0  0  1  0  0  0  0  0  0  0  0  0
   21.5029  -22.0337  -13.7494 C   0  0  0  0  0  0  0  0  0  0  0  0
   20.1770  -21.8933  -14.3473 C   0  0  0  0  0  0  0  0  0  0  0  0
   19.4354  -20.9427  -13.9573 O   0  0  0  0  0  0  0  0  0  0  0  0
   20.8781  -21.1345  -11.5177 C   0  0  0  0  0  0  0  0  0  0  0  0
   19.8102  -20.2276  -11.4814 O   0  0  0  0  0  0  0  0  0  0  0  0
   19.6586  -22.7238  -15.3146 O   0  0  0  0  0  0  0  0  0  0  0  0
   20.9635  -21.9555  -10.5900 O   0  0  0  0  0  0  0  0  0  0  0  0
  2  1  1  1
  2  6  1  0
  2  3  1  0
  3  4  1  0
  4  5  2  0
  4  8  1  0
  6  9  1  0
  6  7  2  0
  9 10  1  0
 10 11  1  1
 11 12  1  0
 12 13  2  0
 14 13  1  0
 15 14  1  0
 16 15  2  0
 17 16  1  0
 18 17  2  0
 18 19  1  0
 19 20  2  0
 20 15  1  0
 20 12  1  0
 21 23  1  0
 21 10  1  0
 22 21  2  0
 24 28  1  0
 24 23  1  0
 24 25  1  6
 26 25  1  0
 27 26  2  0
 28 29  1  0
 30 26  1  0
 31 28  2  0
M  END
$$$$
