KMD.pdb
     RDKit          3D

 26 25  0  0  1  0  0  0  0  0999 V2000
    7.2590  -15.7342   20.2241 N   0  0  0  0  0  0  0  0  0  0  0  0
    8.3264  -14.7805   20.0650 C   0  0  1  0  0  0  0  0  0  0  0  0
    7.9399  -13.6336   19.1588 C   0  0  0  0  0  0  0  0  0  0  0  0
    7.5039  -14.1030   17.7988 C   0  0  0  0  0  0  0  0  0  0  0  0
    8.6099  -14.0038   16.7750 C   0  0  0  0  0  0  0  0  0  0  0  0
    8.0531  -14.4658   15.4406 C   0  0  0  0  0  0  0  0  0  0  0  0
    9.1241  -14.4381   14.4649 N   0  0  0  0  0  0  0  0  0  0  0  0
    8.6915  -14.1892   21.3860 C   0  0  0  0  0  0  0  0  0  0  0  0
    9.7075  -13.4305   21.5064 O   0  0  0  0  0  0  0  0  0  0  0  0
    6.1456  -11.7370   28.4365 C   0  0  0  0  0  0  0  0  0  0  0  0
    5.8484  -12.4919   26.8312 S   0  0  0  0  0  0  0  0  0  0  0  0
    7.4071  -12.9399   25.9969 C   0  0  0  0  0  0  0  0  0  0  0  0
    7.1490  -13.4622   24.6167 C   0  0  0  0  0  0  0  0  0  0  0  0
    8.3523  -13.8981   23.8526 C   0  0  2  0  0  0  0  0  0  0  0  0
    7.9426  -14.4368   22.5483 N   0  0  0  0  0  0  0  0  0  0  0  0
    9.1052  -14.9350   24.5881 C   0  0  0  0  0  0  0  0  0  0  0  0
    9.4784  -14.6892   25.7928 O   0  0  0  0  0  0  0  0  0  0  0  0
    9.4660  -16.2043   24.1090 N   0  0  0  0  0  0  0  0  0  0  0  0
   10.2999  -17.1206   24.9276 C   0  0  1  0  0  0  0  0  0  0  0  0
    9.4986  -18.4135   24.9300 C   0  0  0  0  0  0  0  0  0  0  0  0
    9.3257  -18.9352   26.2850 C   0  0  0  0  0  0  0  0  0  0  0  0
    9.7801  -18.4223   27.3232 O   0  0  0  0  0  0  0  0  0  0  0  0
   11.5737  -17.2794   24.1904 C   0  0  0  0  0  0  0  0  0  0  0  0
   11.7532  -16.8106   22.8813 O   0  0  0  0  0  0  0  0  0  0  0  0
    8.5837  -20.1252   26.4767 O   0  0  0  0  0  0  0  0  0  0  0  0
   12.5847  -17.8526   24.6996 O   0  0  0  0  0  0  0  0  0  0  0  0
  2  1  1  1
  2  3  1  0
  4  3  1  0
  5  4  1  0
  6  5  1  0
  7  6  1  0
  8  2  1  0
  9  8  2  0
 10 11  1  0
 11 12  1  0
 12 13  1  0
 14 13  1  1
 14 15  1  0
 15  8  1  0
 16 14  1  0
 16 17  2  0
 18 16  1  0
 19 20  1  6
 19 18  1  0
 20 21  1  0
 21 25  1  0
 21 22  2  0
 23 19  1  0
 24 23  1  0
 26 23  2  0
M  END
$$$$
