KMD.pdb
     RDKit          3D

 26 25  0  0  1  0  0  0  0  0999 V2000
    7.1228  -16.2611   20.6781 N   0  0  0  0  0  0  0  0  0  0  0  0
    8.3538  -15.5178   20.7572 C   0  0  1  0  0  0  0  0  0  0  0  0
    8.2688  -14.1901   20.0390 C   0  0  0  0  0  0  0  0  0  0  0  0
    7.9544  -14.3511   18.5777 C   0  0  0  0  0  0  0  0  0  0  0  0
    7.9427  -13.0310   17.8438 C   0  0  0  0  0  0  0  0  0  0  0  0
    7.4113  -13.2804   16.4440 C   0  0  0  0  0  0  0  0  0  0  0  0
    7.2587  -12.0020   15.7791 N   0  0  0  0  0  0  0  0  0  0  0  0
    8.6881  -15.2230   22.1818 C   0  0  0  0  0  0  0  0  0  0  0  0
    9.7818  -14.6494   22.4934 O   0  0  0  0  0  0  0  0  0  0  0  0
    6.7638  -10.7306   26.2122 C   0  0  0  0  0  0  0  0  0  0  0  0
    7.2979  -12.4289   26.4683 S   0  0  0  0  0  0  0  0  0  0  0  0
    6.5666  -13.5595   25.2381 C   0  0  0  0  0  0  0  0  0  0  0  0
    7.0408  -14.9649   25.4486 C   0  0  0  0  0  0  0  0  0  0  0  0
    8.2227  -15.3786   24.6400 C   0  0  2  0  0  0  0  0  0  0  0  0
    7.8244  -15.5592   23.2371 N   0  0  0  0  0  0  0  0  0  0  0  0
    8.7992  -16.6418   25.1445 C   0  0  0  0  0  0  0  0  0  0  0  0
    8.1032  -17.7180   25.0531 O   0  0  0  0  0  0  0  0  0  0  0  0
   10.0662  -16.8095   25.7255 N   0  0  0  0  0  0  0  0  0  0  0  0
   10.5093  -18.1376   26.2206 C   0  0  1  0  0  0  0  0  0  0  0  0
   11.7454  -18.4278   25.3830 C   0  0  0  0  0  0  0  0  0  0  0  0
   12.4699  -19.5956   25.8822 C   0  0  0  0  0  0  0  0  0  0  0  0
   11.9662  -20.6996   26.1553 O   0  0  0  0  0  0  0  0  0  0  0  0
   10.8593  -17.9444   27.6459 C   0  0  0  0  0  0  0  0  0  0  0  0
   10.9158  -19.0048   28.5611 O   0  0  0  0  0  0  0  0  0  0  0  0
   13.8676  -19.5048   26.0867 O   0  0  0  0  0  0  0  0  0  0  0  0
   11.1297  -16.8025   28.1288 O   0  0  0  0  0  0  0  0  0  0  0  0
  2  1  1  1
  2  3  1  0
  4  3  1  0
  5  4  1  0
  6  5  1  0
  7  6  1  0
  8  2  1  0
  9  8  2  0
 10 11  1  0
 11 12  1  0
 12 13  1  0
 14 13  1  1
 14 15  1  0
 15  8  1  0
 16 14  1  0
 16 17  2  0
 18 16  1  0
 19 20  1  6
 19 18  1  0
 20 21  1  0
 21 25  1  0
 21 22  2  0
 23 19  1  0
 24 23  1  0
 26 23  2  0
M  END
$$$$
