KMD.pdb
     RDKit          3D

 26 25  0  0  1  0  0  0  0  0999 V2000
    7.2215  -16.0202   20.3533 N   0  0  0  0  0  0  0  0  0  0  0  0
    8.0461  -14.8401   20.3161 C   0  0  1  0  0  0  0  0  0  0  0  0
    7.3262  -13.6568   19.7098 C   0  0  0  0  0  0  0  0  0  0  0  0
    7.9128  -13.2486   18.3872 C   0  0  0  0  0  0  0  0  0  0  0  0
    7.4742  -14.1536   17.2604 C   0  0  0  0  0  0  0  0  0  0  0  0
    8.2013  -13.7169   16.0015 C   0  0  0  0  0  0  0  0  0  0  0  0
    7.8664  -14.6413   14.9371 N   0  0  0  0  0  0  0  0  0  0  0  0
    8.4460  -14.4460   21.6991 C   0  0  0  0  0  0  0  0  0  0  0  0
    9.4700  -13.7164   21.9027 O   0  0  0  0  0  0  0  0  0  0  0  0
    6.5904  -11.0841   26.0466 C   0  0  0  0  0  0  0  0  0  0  0  0
    6.5701  -12.4745   27.1874 S   0  0  0  0  0  0  0  0  0  0  0  0
    7.4382  -13.9240   26.5005 C   0  0  0  0  0  0  0  0  0  0  0  0
    7.1071  -14.1141   25.0518 C   0  0  0  0  0  0  0  0  0  0  0  0
    8.2210  -14.6036   24.1908 C   0  0  2  0  0  0  0  0  0  0  0  0
    7.7226  -14.8550   22.8315 N   0  0  0  0  0  0  0  0  0  0  0  0
    8.8042  -15.8496   24.7291 C   0  0  0  0  0  0  0  0  0  0  0  0
    8.0934  -16.9200   24.7160 O   0  0  0  0  0  0  0  0  0  0  0  0
   10.0922  -16.0067   25.2651 N   0  0  0  0  0  0  0  0  0  0  0  0
   10.5987  -17.3470   25.6551 C   0  0  1  0  0  0  0  0  0  0  0  0
   12.1091  -17.1871   25.5724 C   0  0  0  0  0  0  0  0  0  0  0  0
   12.5525  -16.9833   24.1941 C   0  0  0  0  0  0  0  0  0  0  0  0
   12.0935  -17.5594   23.1918 O   0  0  0  0  0  0  0  0  0  0  0  0
   10.1564  -17.5585   27.0519 C   0  0  0  0  0  0  0  0  0  0  0  0
   10.2788  -18.7929   27.7051 O   0  0  0  0  0  0  0  0  0  0  0  0
   13.5922  -16.0589   23.9334 O   0  0  0  0  0  0  0  0  0  0  0  0
    9.6364  -16.6322   27.7459 O   0  0  0  0  0  0  0  0  0  0  0  0
  2  1  1  1
  2  3  1  0
  4  3  1  0
  5  4  1  0
  6  5  1  0
  7  6  1  0
  8  2  1  0
  9  8  2  0
 10 11  1  0
 11 12  1  0
 12 13  1  0
 14 13  1  1
 14 15  1  0
 15  8  1  0
 16 14  1  0
 16 17  2  0
 18 16  1  0
 19 20  1  1
 19 18  1  0
 20 21  1  0
 21 25  1  0
 21 22  2  0
 23 19  1  0
 24 23  1  0
 26 23  2  0
M  END
$$$$
