KMD.pdb
     RDKit          3D

 26 25  0  0  1  0  0  0  0  0999 V2000
    7.0596  -15.5543   20.1773 N   0  0  0  0  0  0  0  0  0  0  0  0
    8.2552  -14.7561   20.2637 C   0  0  1  0  0  0  0  0  0  0  0  0
    8.0958  -13.4106   19.5928 C   0  0  0  0  0  0  0  0  0  0  0  0
    7.4944  -13.5255   18.2197 C   0  0  0  0  0  0  0  0  0  0  0  0
    8.5391  -13.7472   17.1517 C   0  0  0  0  0  0  0  0  0  0  0  0
    7.8185  -14.0030   15.8405 C   0  0  0  0  0  0  0  0  0  0  0  0
    8.8115  -14.1566   14.7963 N   0  0  0  0  0  0  0  0  0  0  0  0
    8.5985  -14.4935   21.6924 C   0  0  0  0  0  0  0  0  0  0  0  0
    9.6681  -13.8778   22.0072 O   0  0  0  0  0  0  0  0  0  0  0  0
    5.5725  -12.0534   27.3712 C   0  0  0  0  0  0  0  0  0  0  0  0
    7.0914  -11.8955   26.4209 S   0  0  0  0  0  0  0  0  0  0  0  0
    6.9816  -12.7674   24.8227 C   0  0  0  0  0  0  0  0  0  0  0  0
    7.1771  -14.2423   24.9988 C   0  0  0  0  0  0  0  0  0  0  0  0
    8.2281  -14.8638   24.1439 C   0  0  2  0  0  0  0  0  0  0  0  0
    7.7699  -14.9073   22.7484 N   0  0  0  0  0  0  0  0  0  0  0  0
    8.5389  -16.2366   24.5928 C   0  0  0  0  0  0  0  0  0  0  0  0
    7.9387  -17.2219   24.0272 O   0  0  0  0  0  0  0  0  0  0  0  0
    9.4511  -16.6021   25.5954 N   0  0  0  0  0  0  0  0  0  0  0  0
   10.2416  -17.8547   25.4887 C   0  0  1  0  0  0  0  0  0  0  0  0
   11.0685  -17.6395   24.2302 C   0  0  0  0  0  0  0  0  0  0  0  0
   11.3383  -18.9017   23.5431 C   0  0  0  0  0  0  0  0  0  0  0  0
   11.7702  -19.9395   24.0755 O   0  0  0  0  0  0  0  0  0  0  0  0
   11.0993  -17.8986   26.6943 C   0  0  0  0  0  0  0  0  0  0  0  0
   11.3393  -19.0807   27.4089 O   0  0  0  0  0  0  0  0  0  0  0  0
   11.1011  -18.9935   22.1507 O   0  0  0  0  0  0  0  0  0  0  0  0
   11.6713  -16.8649   27.1573 O   0  0  0  0  0  0  0  0  0  0  0  0
  2  1  1  1
  2  3  1  0
  4  3  1  0
  5  4  1  0
  6  5  1  0
  7  6  1  0
  8  2  1  0
  9  8  2  0
 10 11  1  0
 11 12  1  0
 12 13  1  0
 14 13  1  1
 14 15  1  0
 15  8  1  0
 16 14  1  0
 16 17  2  0
 18 16  1  0
 19 20  1  6
 19 18  1  0
 20 21  1  0
 21 25  1  0
 21 22  2  0
 23 19  1  0
 24 23  1  0
 26 23  2  0
M  END
$$$$
