KMD.pdb
     RDKit          3D

 26 25  0  0  1  0  0  0  0  0999 V2000
    5.7275  -14.4866   19.9529 N   0  0  0  0  0  0  0  0  0  0  0  0
    7.1123  -14.8673   20.0604 C   0  0  1  0  0  0  0  0  0  0  0  0
    7.9873  -14.1322   19.0705 C   0  0  0  0  0  0  0  0  0  0  0  0
    7.5965  -14.4119   17.6460 C   0  0  0  0  0  0  0  0  0  0  0  0
    8.4770  -13.6870   16.6559 C   0  0  0  0  0  0  0  0  0  0  0  0
    7.9119  -13.9254   15.2674 C   0  0  0  0  0  0  0  0  0  0  0  0
    8.7249  -13.1990   14.3128 N   0  0  0  0  0  0  0  0  0  0  0  0
    7.6311  -14.5480   21.4231 C   0  0  0  0  0  0  0  0  0  0  0  0
    7.5492  -13.3682   21.8959 O   0  0  0  0  0  0  0  0  0  0  0  0
    8.2070  -11.8092   27.5342 C   0  0  0  0  0  0  0  0  0  0  0  0
    7.7022  -12.3482   25.8942 S   0  0  0  0  0  0  0  0  0  0  0  0
    7.7045  -14.1663   25.7506 C   0  0  0  0  0  0  0  0  0  0  0  0
    7.4482  -14.5959   24.3384 C   0  0  0  0  0  0  0  0  0  0  0  0
    8.6000  -15.2266   23.6332 C   0  0  2  0  0  0  0  0  0  0  0  0
    8.2285  -15.5202   22.2421 N   0  0  0  0  0  0  0  0  0  0  0  0
    9.0115  -16.4803   24.2978 C   0  0  0  0  0  0  0  0  0  0  0  0
    8.9350  -17.5815   23.6402 O   0  0  0  0  0  0  0  0  0  0  0  0
    9.5002  -16.6111   25.6073 N   0  0  0  0  0  0  0  0  0  0  0  0
   10.4833  -17.6690   25.9532 C   0  0  1  0  0  0  0  0  0  0  0  0
   11.6687  -17.3513   25.0546 C   0  0  0  0  0  0  0  0  0  0  0  0
   12.8185  -18.2005   25.3628 C   0  0  0  0  0  0  0  0  0  0  0  0
   12.8620  -19.4370   25.2350 O   0  0  0  0  0  0  0  0  0  0  0  0
   10.8195  -17.4613   27.3797 C   0  0  0  0  0  0  0  0  0  0  0  0
   10.6847  -16.2190   28.0153 O   0  0  0  0  0  0  0  0  0  0  0  0
   14.0054  -17.6039   25.8513 O   0  0  0  0  0  0  0  0  0  0  0  0
   11.2531  -18.3983   28.1174 O   0  0  0  0  0  0  0  0  0  0  0  0
  2  1  1  1
  2  3  1  0
  4  3  1  0
  5  4  1  0
  6  5  1  0
  7  6  1  0
  8  2  1  0
  9  8  2  0
 10 11  1  0
 11 12  1  0
 12 13  1  0
 14 13  1  1
 14 15  1  0
 15  8  1  0
 16 14  1  0
 16 17  2  0
 18 16  1  0
 19 20  1  6
 19 18  1  0
 20 21  1  0
 21 25  1  0
 21 22  2  0
 23 19  1  0
 24 23  1  0
 26 23  2  0
M  END
$$$$
