KMD.pdb
     RDKit          3D

 26 25  0  0  1  0  0  0  0  0999 V2000
    7.1654  -15.8476   20.2121 N   0  0  0  0  0  0  0  0  0  0  0  0
    8.0700  -14.7271   20.2294 C   0  0  1  0  0  0  0  0  0  0  0  0
    7.3950  -13.4392   19.8152 C   0  0  0  0  0  0  0  0  0  0  0  0
    7.9589  -12.8852   18.5364 C   0  0  0  0  0  0  0  0  0  0  0  0
    7.6054  -13.7333   17.3377 C   0  0  0  0  0  0  0  0  0  0  0  0
    8.2011  -13.0733   16.1074 C   0  0  0  0  0  0  0  0  0  0  0  0
    8.1611  -14.0242   15.0148 N   0  0  0  0  0  0  0  0  0  0  0  0
    8.6045  -14.5164   21.6070 C   0  0  0  0  0  0  0  0  0  0  0  0
    9.5865  -13.7328   21.8165 O   0  0  0  0  0  0  0  0  0  0  0  0
    5.7286  -11.1129   26.8711 C   0  0  0  0  0  0  0  0  0  0  0  0
    5.9956  -12.8623   26.5495 S   0  0  0  0  0  0  0  0  0  0  0  0
    7.2790  -13.1274   25.2810 C   0  0  0  0  0  0  0  0  0  0  0  0
    7.4688  -14.5872   25.0032 C   0  0  0  0  0  0  0  0  0  0  0  0
    8.5866  -14.9315   24.0791 C   0  0  2  0  0  0  0  0  0  0  0  0
    8.0584  -15.1637   22.7277 N   0  0  0  0  0  0  0  0  0  0  0  0
    9.3008  -16.1426   24.5328 C   0  0  0  0  0  0  0  0  0  0  0  0
    8.7070  -17.2788   24.4451 O   0  0  0  0  0  0  0  0  0  0  0  0
   10.6007  -16.1987   25.0600 N   0  0  0  0  0  0  0  0  0  0  0  0
   11.1688  -17.4778   25.5565 C   0  0  1  0  0  0  0  0  0  0  0  0
   12.6702  -17.2498   25.4700 C   0  0  0  0  0  0  0  0  0  0  0  0
   13.1016  -17.0339   24.0897 C   0  0  0  0  0  0  0  0  0  0  0  0
   14.0440  -16.3062   23.7296 O   0  0  0  0  0  0  0  0  0  0  0  0
   10.7242  -17.6018   26.9629 C   0  0  0  0  0  0  0  0  0  0  0  0
   10.9199  -18.7667   27.7179 O   0  0  0  0  0  0  0  0  0  0  0  0
   12.4143  -17.6912   23.0413 O   0  0  0  0  0  0  0  0  0  0  0  0
   10.1355  -16.6580   27.5735 O   0  0  0  0  0  0  0  0  0  0  0  0
  2  1  1  1
  2  3  1  0
  4  3  1  0
  5  4  1  0
  6  5  1  0
  7  6  1  0
  8  2  1  0
  9  8  2  0
 10 11  1  0
 11 12  1  0
 12 13  1  0
 14 13  1  1
 14 15  1  0
 15  8  1  0
 16 14  1  0
 16 17  2  0
 18 16  1  0
 19 20  1  1
 19 18  1  0
 20 21  1  0
 21 25  1  0
 21 22  2  0
 23 19  1  0
 24 23  1  0
 26 23  2  0
M  END
$$$$
