KMD.pdb
     RDKit          3D

 26 25  0  0  1  0  0  0  0  0999 V2000
    9.2144  -15.8745   19.2266 N   0  0  0  0  0  0  0  0  0  0  0  0
    8.5252  -16.4704   20.3420 C   0  0  1  0  0  0  0  0  0  0  0  0
    8.7912  -17.9546   20.4533 C   0  0  0  0  0  0  0  0  0  0  0  0
    7.5666  -18.7770   20.1629 C   0  0  0  0  0  0  0  0  0  0  0  0
    7.8370  -20.2604   20.2497 C   0  0  0  0  0  0  0  0  0  0  0  0
    6.5377  -20.9891   19.9581 C   0  0  0  0  0  0  0  0  0  0  0  0
    6.8021  -22.4138   19.9642 N   0  0  0  0  0  0  0  0  0  0  0  0
    8.9786  -15.8485   21.6209 C   0  0  0  0  0  0  0  0  0  0  0  0
   10.2179  -15.6977   21.8734 O   0  0  0  0  0  0  0  0  0  0  0  0
    6.6455  -11.4850   27.8684 C   0  0  0  0  0  0  0  0  0  0  0  0
    6.2669  -12.3855   26.3582 S   0  0  0  0  0  0  0  0  0  0  0  0
    7.7081  -13.3253   25.7532 C   0  0  0  0  0  0  0  0  0  0  0  0
    7.4209  -13.9572   24.4255 C   0  0  0  0  0  0  0  0  0  0  0  0
    8.5350  -14.7473   23.8288 C   0  0  2  0  0  0  0  0  0  0  0  0
    8.0728  -15.4041   22.5981 N   0  0  0  0  0  0  0  0  0  0  0  0
    9.0244  -15.7756   24.7700 C   0  0  0  0  0  0  0  0  0  0  0  0
    8.3345  -16.8484   24.9258 O   0  0  0  0  0  0  0  0  0  0  0  0
   10.2003  -15.7175   25.5346 N   0  0  0  0  0  0  0  0  0  0  0  0
   10.6690  -16.8971   26.3054 C   0  0  1  0  0  0  0  0  0  0  0  0
   12.1567  -16.9498   25.9929 C   0  0  0  0  0  0  0  0  0  0  0  0
   12.5206  -18.1977   25.3234 C   0  0  0  0  0  0  0  0  0  0  0  0
   11.7387  -19.1216   25.0364 O   0  0  0  0  0  0  0  0  0  0  0  0
   10.4302  -16.5734   27.7299 C   0  0  0  0  0  0  0  0  0  0  0  0
    9.9472  -15.3266   28.1514 O   0  0  0  0  0  0  0  0  0  0  0  0
   13.8693  -18.4137   24.9524 O   0  0  0  0  0  0  0  0  0  0  0  0
   10.6501  -17.4074   28.6607 O   0  0  0  0  0  0  0  0  0  0  0  0
  2  1  1  6
  2  3  1  0
  4  3  1  0
  5  4  1  0
  6  5  1  0
  7  6  1  0
  8  2  1  0
  9  8  2  0
 10 11  1  0
 11 12  1  0
 12 13  1  0
 14 13  1  1
 14 15  1  0
 15  8  1  0
 16 14  1  0
 16 17  2  0
 18 16  1  0
 19 20  1  1
 19 18  1  0
 20 21  1  0
 21 25  1  0
 21 22  2  0
 23 19  1  0
 24 23  1  0
 26 23  2  0
M  END
$$$$
