KMD.pdb
     RDKit          3D

 26 25  0  0  1  0  0  0  0  0999 V2000
    6.9476  -15.5665   19.5374 N   0  0  0  0  0  0  0  0  0  0  0  0
    8.3385  -15.1960   19.5831 C   0  0  1  0  0  0  0  0  0  0  0  0
    8.6931  -14.1696   18.5310 C   0  0  0  0  0  0  0  0  0  0  0  0
    7.7255  -14.1744   17.3804 C   0  0  0  0  0  0  0  0  0  0  0  0
    8.4080  -13.9323   16.0550 C   0  0  0  0  0  0  0  0  0  0  0  0
    7.3323  -13.8245   14.9894 C   0  0  0  0  0  0  0  0  0  0  0  0
    7.9662  -13.4719   13.7350 N   0  0  0  0  0  0  0  0  0  0  0  0
    8.6692  -14.5946   20.9086 C   0  0  0  0  0  0  0  0  0  0  0  0
    9.7320  -13.9119   21.0721 O   0  0  0  0  0  0  0  0  0  0  0  0
    6.5399  -11.8462   27.9473 C   0  0  0  0  0  0  0  0  0  0  0  0
    6.1278  -12.4253   26.2951 S   0  0  0  0  0  0  0  0  0  0  0  0
    7.4956  -13.3760   25.5522 C   0  0  0  0  0  0  0  0  0  0  0  0
    7.1939  -13.7318   24.1286 C   0  0  0  0  0  0  0  0  0  0  0  0
    8.2956  -14.4008   23.3798 C   0  0  2  0  0  0  0  0  0  0  0  0
    7.8356  -14.7495   22.0285 N   0  0  0  0  0  0  0  0  0  0  0  0
    8.7415  -15.6287   24.0698 C   0  0  0  0  0  0  0  0  0  0  0  0
    7.9833  -16.6656   24.0364 O   0  0  0  0  0  0  0  0  0  0  0  0
    9.9425  -15.8020   24.7758 N   0  0  0  0  0  0  0  0  0  0  0  0
   10.3066  -17.1220   25.3505 C   0  0  1  0  0  0  0  0  0  0  0  0
   11.6926  -17.3809   24.7798 C   0  0  0  0  0  0  0  0  0  0  0  0
   12.3062  -18.5661   25.3771 C   0  0  0  0  0  0  0  0  0  0  0  0
   11.7132  -19.6186   25.6733 O   0  0  0  0  0  0  0  0  0  0  0  0
   10.3572  -16.9273   26.8170 C   0  0  0  0  0  0  0  0  0  0  0  0
   10.4540  -17.9963   27.7188 O   0  0  0  0  0  0  0  0  0  0  0  0
   13.6932  -18.5571   25.6590 O   0  0  0  0  0  0  0  0  0  0  0  0
   10.3147  -15.7765   27.3499 O   0  0  0  0  0  0  0  0  0  0  0  0
  2  1  1  1
  2  3  1  0
  4  3  1  0
  5  4  1  0
  6  5  1  0
  7  6  1  0
  8  2  1  0
  9  8  2  0
 10 11  1  0
 11 12  1  0
 12 13  1  0
 14 13  1  1
 14 15  1  0
 15  8  1  0
 16 14  1  0
 16 17  2  0
 18 16  1  0
 19 20  1  6
 19 18  1  0
 20 21  1  0
 21 25  1  0
 21 22  2  0
 23 19  1  0
 24 23  1  0
 26 23  2  0
M  END
$$$$
