KMD.pdb
     RDKit          3D

 26 25  0  0  1  0  0  0  0  0999 V2000
    7.6716  -16.8532   21.0395 N   0  0  0  0  0  0  0  0  0  0  0  0
    8.9571  -16.2470   20.8070 C   0  0  1  0  0  0  0  0  0  0  0  0
    8.9265  -15.2595   19.6625 C   0  0  0  0  0  0  0  0  0  0  0  0
    8.0817  -15.7411   18.5159 C   0  0  0  0  0  0  0  0  0  0  0  0
    8.4456  -15.0700   17.2127 C   0  0  0  0  0  0  0  0  0  0  0  0
    7.5365  -15.6262   16.1319 C   0  0  0  0  0  0  0  0  0  0  0  0
    7.8854  -14.9976   14.8738 N   0  0  0  0  0  0  0  0  0  0  0  0
    9.4011  -15.4972   22.0189 C   0  0  0  0  0  0  0  0  0  0  0  0
   10.5195  -14.8882   22.0398 O   0  0  0  0  0  0  0  0  0  0  0  0
    5.7732  -11.7274   25.9780 C   0  0  0  0  0  0  0  0  0  0  0  0
    6.6990  -12.7439   27.1375 S   0  0  0  0  0  0  0  0  0  0  0  0
    8.2150  -13.4198   26.3817 C   0  0  0  0  0  0  0  0  0  0  0  0
    7.9016  -14.1704   25.1235 C   0  0  0  0  0  0  0  0  0  0  0  0
    9.0768  -14.6953   24.3717 C   0  0  2  0  0  0  0  0  0  0  0  0
    8.6177  -15.4265   23.1826 N   0  0  0  0  0  0  0  0  0  0  0  0
    9.8874  -15.6006   25.2119 C   0  0  0  0  0  0  0  0  0  0  0  0
   10.3670  -15.1532   26.3168 O   0  0  0  0  0  0  0  0  0  0  0  0
   10.1988  -16.9416   24.9369 N   0  0  0  0  0  0  0  0  0  0  0  0
   11.1145  -17.7091   25.8187 C   0  0  1  0  0  0  0  0  0  0  0  0
   10.3991  -19.0403   25.9909 C   0  0  0  0  0  0  0  0  0  0  0  0
    9.6148  -19.0725   27.2245 C   0  0  0  0  0  0  0  0  0  0  0  0
    8.4707  -18.6061   27.3690 O   0  0  0  0  0  0  0  0  0  0  0  0
   12.3733  -17.8702   25.0566 C   0  0  0  0  0  0  0  0  0  0  0  0
   12.3951  -18.1664   23.6865 O   0  0  0  0  0  0  0  0  0  0  0  0
   10.1682  -19.6775   28.3783 O   0  0  0  0  0  0  0  0  0  0  0  0
   13.5141  -17.7506   25.5990 O   0  0  0  0  0  0  0  0  0  0  0  0
  2  1  1  1
  2  3  1  0
  4  3  1  0
  5  4  1  0
  6  5  1  0
  7  6  1  0
  8  2  1  0
  9  8  2  0
 10 11  1  0
 11 12  1  0
 12 13  1  0
 14 13  1  1
 14 15  1  0
 15  8  1  0
 16 14  1  0
 16 17  2  0
 18 16  1  0
 19 20  1  6
 19 18  1  0
 20 21  1  0
 21 25  1  0
 21 22  2  0
 23 19  1  0
 24 23  1  0
 26 23  2  0
M  END
$$$$
