KMD.pdb
     RDKit          3D

 26 25  0  0  1  0  0  0  0  0999 V2000
    8.9700  -14.8999   19.7518 N   0  0  0  0  0  0  0  0  0  0  0  0
    8.5611  -15.9531   20.6450 C   0  0  1  0  0  0  0  0  0  0  0  0
    9.1739  -17.2857   20.2782 C   0  0  0  0  0  0  0  0  0  0  0  0
    8.1929  -18.1952   19.5921 C   0  0  0  0  0  0  0  0  0  0  0  0
    8.7546  -19.5786   19.3640 C   0  0  0  0  0  0  0  0  0  0  0  0
    7.6538  -20.4362   18.7667 C   0  0  0  0  0  0  0  0  0  0  0  0
    8.2139  -21.7302   18.4325 N   0  0  0  0  0  0  0  0  0  0  0  0
    8.9925  -15.6434   22.0400 C   0  0  0  0  0  0  0  0  0  0  0  0
   10.2133  -15.4003   22.3100 O   0  0  0  0  0  0  0  0  0  0  0  0
    5.9625  -10.8154   26.3656 C   0  0  0  0  0  0  0  0  0  0  0  0
    6.2597  -12.5802   26.5453 S   0  0  0  0  0  0  0  0  0  0  0  0
    7.0217  -13.2922   25.0490 C   0  0  0  0  0  0  0  0  0  0  0  0
    7.3571  -14.7384   25.2509 C   0  0  0  0  0  0  0  0  0  0  0  0
    8.5192  -15.2497   24.4700 C   0  0  2  0  0  0  0  0  0  0  0  0
    8.0854  -15.6051   23.1117 N   0  0  0  0  0  0  0  0  0  0  0  0
    9.1132  -16.4394   25.1136 C   0  0  0  0  0  0  0  0  0  0  0  0
    8.6837  -17.6027   24.7769 O   0  0  0  0  0  0  0  0  0  0  0  0
   10.1329  -16.4467   26.0785 N   0  0  0  0  0  0  0  0  0  0  0  0
   10.7051  -17.7239   26.5751 C   0  0  1  0  0  0  0  0  0  0  0  0
   12.1494  -17.6669   26.1014 C   0  0  0  0  0  0  0  0  0  0  0  0
   12.4649  -18.7792   25.2062 C   0  0  0  0  0  0  0  0  0  0  0  0
   11.6636  -19.6482   24.8188 O   0  0  0  0  0  0  0  0  0  0  0  0
   10.6210  -17.6606   28.0516 C   0  0  0  0  0  0  0  0  0  0  0  0
   10.5053  -18.8056   28.8522 O   0  0  0  0  0  0  0  0  0  0  0  0
   13.7851  -18.9160   24.7146 O   0  0  0  0  0  0  0  0  0  0  0  0
   10.6474  -16.5617   28.6856 O   0  0  0  0  0  0  0  0  0  0  0  0
  2  1  1  6
  2  3  1  0
  4  3  1  0
  5  4  1  0
  6  5  1  0
  7  6  1  0
  8  2  1  0
  9  8  2  0
 10 11  1  0
 11 12  1  0
 12 13  1  0
 14 13  1  1
 14 15  1  0
 15  8  1  0
 16 14  1  0
 16 17  2  0
 18 16  1  0
 19 20  1  1
 19 18  1  0
 20 21  1  0
 21 25  1  0
 21 22  2  0
 23 19  1  0
 24 23  1  0
 26 23  2  0
M  END
$$$$
