KMD.pdb
     RDKit          3D

 26 25  0  0  1  0  0  0  0  0999 V2000
    6.3922  -16.8773   21.3927 N   0  0  0  0  0  0  0  0  0  0  0  0
    7.3384  -15.8508   21.0393 C   0  0  1  0  0  0  0  0  0  0  0  0
    6.6615  -14.5960   20.5360 C   0  0  0  0  0  0  0  0  0  0  0  0
    7.6330  -13.6372   19.9060 C   0  0  0  0  0  0  0  0  0  0  0  0
    7.8296  -13.9038   18.4325 C   0  0  0  0  0  0  0  0  0  0  0  0
    8.8138  -12.8781   17.9002 C   0  0  0  0  0  0  0  0  0  0  0  0
    8.9096  -13.0401   16.4634 N   0  0  0  0  0  0  0  0  0  0  0  0
    8.1476  -15.4619   22.2318 C   0  0  0  0  0  0  0  0  0  0  0  0
    9.2527  -14.8424   22.1006 O   0  0  0  0  0  0  0  0  0  0  0  0
    6.3827  -10.7102   26.7555 C   0  0  0  0  0  0  0  0  0  0  0  0
    6.5357  -12.4960   26.9058 S   0  0  0  0  0  0  0  0  0  0  0  0
    7.5511  -13.2018   25.5652 C   0  0  0  0  0  0  0  0  0  0  0  0
    7.6822  -14.6869   25.7130 C   0  0  0  0  0  0  0  0  0  0  0  0
    8.5456  -15.3653   24.7049 C   0  0  2  0  0  0  0  0  0  0  0  0
    7.7363  -15.7560   23.5423 N   0  0  0  0  0  0  0  0  0  0  0  0
    9.1859  -16.5690   25.2737 C   0  0  0  0  0  0  0  0  0  0  0  0
    8.4805  -17.6331   25.4194 O   0  0  0  0  0  0  0  0  0  0  0  0
   10.5239  -16.6913   25.6806 N   0  0  0  0  0  0  0  0  0  0  0  0
   11.0686  -17.9972   26.1314 C   0  0  1  0  0  0  0  0  0  0  0  0
   12.5705  -17.8263   25.9618 C   0  0  0  0  0  0  0  0  0  0  0  0
   12.9405  -17.6992   24.5529 C   0  0  0  0  0  0  0  0  0  0  0  0
   12.3546  -18.2390   23.5976 O   0  0  0  0  0  0  0  0  0  0  0  0
   10.6998  -18.1208   27.5596 C   0  0  0  0  0  0  0  0  0  0  0  0
   10.0296  -17.1066   28.2580 O   0  0  0  0  0  0  0  0  0  0  0  0
   14.0561  -16.9020   24.2018 O   0  0  0  0  0  0  0  0  0  0  0  0
   10.9695  -19.1558   28.2423 O   0  0  0  0  0  0  0  0  0  0  0  0
  2  1  1  1
  2  3  1  0
  4  3  1  0
  5  4  1  0
  6  5  1  0
  7  6  1  0
  8  2  1  0
  9  8  2  0
 10 11  1  0
 11 12  1  0
 12 13  1  0
 14 13  1  1
 14 15  1  0
 15  8  1  0
 16 14  1  0
 16 17  2  0
 18 16  1  0
 19 20  1  1
 19 18  1  0
 20 21  1  0
 21 25  1  0
 21 22  2  0
 23 19  1  0
 24 23  1  0
 26 23  2  0
M  END
$$$$
