KMD.pdb
     RDKit          3D

 26 25  0  0  1  0  0  0  0  0999 V2000
    6.9765  -16.9316   20.5873 N   0  0  0  0  0  0  0  0  0  0  0  0
    8.4131  -16.8335   20.5675 C   0  0  1  0  0  0  0  0  0  0  0  0
    8.9166  -16.0293   19.3903 C   0  0  0  0  0  0  0  0  0  0  0  0
    8.1492  -14.7501   19.2034 C   0  0  0  0  0  0  0  0  0  0  0  0
    8.4540  -14.0853   17.8819 C   0  0  0  0  0  0  0  0  0  0  0  0
    7.6809  -12.7801   17.8272 C   0  0  0  0  0  0  0  0  0  0  0  0
    7.9361  -12.1518   16.5466 N   0  0  0  0  0  0  0  0  0  0  0  0
    8.9010  -16.1518   21.8025 C   0  0  0  0  0  0  0  0  0  0  0  0
   10.1308  -15.8518   21.9435 O   0  0  0  0  0  0  0  0  0  0  0  0
    6.8613  -11.5813   27.9299 C   0  0  0  0  0  0  0  0  0  0  0  0
    6.3777  -12.6497   26.5662 S   0  0  0  0  0  0  0  0  0  0  0  0
    7.7685  -13.6786   25.9887 C   0  0  0  0  0  0  0  0  0  0  0  0
    7.4200  -14.3923   24.7184 C   0  0  0  0  0  0  0  0  0  0  0  0
    8.5356  -15.1325   24.0634 C   0  0  2  0  0  0  0  0  0  0  0  0
    8.0394  -15.8115   22.8583 N   0  0  0  0  0  0  0  0  0  0  0  0
    9.1195  -16.1362   24.9769 C   0  0  0  0  0  0  0  0  0  0  0  0
    8.4372  -17.1889   25.2549 O   0  0  0  0  0  0  0  0  0  0  0  0
   10.3801  -16.0741   25.5917 N   0  0  0  0  0  0  0  0  0  0  0  0
   10.8713  -17.1893   26.4405 C   0  0  1  0  0  0  0  0  0  0  0  0
   12.3808  -17.1228   26.2649 C   0  0  0  0  0  0  0  0  0  0  0  0
   12.7834  -17.5339   24.9207 C   0  0  0  0  0  0  0  0  0  0  0  0
   12.2811  -18.4646   24.2659 O   0  0  0  0  0  0  0  0  0  0  0  0
   10.4760  -16.8506   27.8262 C   0  0  0  0  0  0  0  0  0  0  0  0
   10.6227  -17.7463   28.8947 O   0  0  0  0  0  0  0  0  0  0  0  0
   13.8320  -16.8390   24.2719 O   0  0  0  0  0  0  0  0  0  0  0  0
    9.9772  -15.7249   28.1329 O   0  0  0  0  0  0  0  0  0  0  0  0
  2  1  1  1
  2  3  1  0
  4  3  1  0
  5  4  1  0
  6  5  1  0
  7  6  1  0
  8  2  1  0
  9  8  2  0
 10 11  1  0
 11 12  1  0
 12 13  1  0
 14 13  1  1
 14 15  1  0
 15  8  1  0
 16 14  1  0
 16 17  2  0
 18 16  1  0
 19 20  1  1
 19 18  1  0
 20 21  1  0
 21 25  1  0
 21 22  2  0
 23 19  1  0
 24 23  1  0
 26 23  2  0
M  END
$$$$
