KMD.pdb
     RDKit          3D

 26 25  0  0  1  0  0  0  0  0999 V2000
    8.5915  -15.1263   18.8351 N   0  0  0  0  0  0  0  0  0  0  0  0
    8.3872  -16.0378   19.9313 C   0  0  1  0  0  0  0  0  0  0  0  0
    9.1712  -17.3198   19.7644 C   0  0  0  0  0  0  0  0  0  0  0  0
    8.6832  -18.1397   18.6026 C   0  0  0  0  0  0  0  0  0  0  0  0
    9.5191  -19.3783   18.3823 C   0  0  0  0  0  0  0  0  0  0  0  0
    8.8696  -20.1883   17.2750 C   0  0  0  0  0  0  0  0  0  0  0  0
    9.6326  -21.4067   17.0930 N   0  0  0  0  0  0  0  0  0  0  0  0
    8.8365  -15.4148   21.2111 C   0  0  0  0  0  0  0  0  0  0  0  0
    9.9214  -14.7502   21.2714 O   0  0  0  0  0  0  0  0  0  0  0  0
    6.3824  -11.3938   27.4025 C   0  0  0  0  0  0  0  0  0  0  0  0
    6.0456  -12.4966   26.0222 S   0  0  0  0  0  0  0  0  0  0  0  0
    7.5480  -13.3762   25.4787 C   0  0  0  0  0  0  0  0  0  0  0  0
    7.3110  -14.1023   24.1899 C   0  0  0  0  0  0  0  0  0  0  0  0
    8.4903  -14.8140   23.6201 C   0  0  2  0  0  0  0  0  0  0  0  0
    8.0949  -15.5287   22.3985 N   0  0  0  0  0  0  0  0  0  0  0  0
    9.0479  -15.7822   24.5867 C   0  0  0  0  0  0  0  0  0  0  0  0
    8.4733  -16.9240   24.7182 O   0  0  0  0  0  0  0  0  0  0  0  0
   10.1763  -15.5956   25.4008 N   0  0  0  0  0  0  0  0  0  0  0  0
   10.8366  -16.7473   26.0663 C   0  0  1  0  0  0  0  0  0  0  0  0
   12.3152  -16.4020   25.9760 C   0  0  0  0  0  0  0  0  0  0  0  0
   12.9759  -17.1471   24.9053 C   0  0  0  0  0  0  0  0  0  0  0  0
   12.4230  -17.9487   24.1314 O   0  0  0  0  0  0  0  0  0  0  0  0
   10.3657  -16.7311   27.4695 C   0  0  0  0  0  0  0  0  0  0  0  0
    9.4436  -15.7891   27.9469 O   0  0  0  0  0  0  0  0  0  0  0  0
   14.3647  -16.9702   24.6971 O   0  0  0  0  0  0  0  0  0  0  0  0
   10.7702  -17.5713   28.3301 O   0  0  0  0  0  0  0  0  0  0  0  0
  2  1  1  6
  2  3  1  0
  4  3  1  0
  5  4  1  0
  6  5  1  0
  7  6  1  0
  8  2  1  0
  9  8  2  0
 10 11  1  0
 11 12  1  0
 12 13  1  0
 14 13  1  1
 14 15  1  0
 15  8  1  0
 16 14  1  0
 16 17  2  0
 18 16  1  0
 19 20  1  1
 19 18  1  0
 20 21  1  0
 21 25  1  0
 21 22  2  0
 23 19  1  0
 24 23  1  0
 26 23  2  0
M  END
$$$$
