VST.pdb
     RDKit          3D

 21 20  0  0  1  0  0  0  0  0999 V2000
   15.2453  -10.6015  -17.4346 C   0  0  0  0  0  0  0  0  0  0  0  0
   16.2141  -10.1519  -16.3631 C   0  0  2  0  0  0  0  0  0  0  0  0
   16.4472   -8.6699  -16.5683 C   0  0  0  0  0  0  0  0  0  0  0  0
   17.5180  -10.9063  -16.5096 C   0  0  2  0  0  0  0  0  0  0  0  0
   17.2996  -12.3300  -16.3427 N   0  0  0  0  0  0  0  0  0  0  0  0
   18.5588  -10.3976  -15.5812 C   0  0  0  0  0  0  0  0  0  0  0  0
   18.7180  -10.9181  -14.4471 O   0  0  0  0  0  0  0  0  0  0  0  0
   22.1707   -9.9647  -16.2943 O   0  0  0  0  0  0  0  0  0  0  0  0
   21.6733   -9.7333  -15.0366 C   0  0  0  0  0  0  0  0  0  0  0  0
   20.4642   -8.8262  -15.0361 C   0  0  2  0  0  0  0  0  0  0  0  0
   19.4208   -9.3149  -15.9090 N   0  0  0  0  0  0  0  0  0  0  0  0
   20.9171   -7.4668  -15.4071 C   0  0  0  0  0  0  0  0  0  0  0  0
   21.4028   -7.1882  -16.5238 O   0  0  0  0  0  0  0  0  0  0  0  0
   18.8288   -4.5535  -15.3692 C   0  0  0  0  0  0  0  0  0  0  0  0
   19.9277   -4.2222  -14.3523 C   0  0  1  0  0  0  0  0  0  0  0  0
   19.4749   -4.6945  -13.1113 O   0  0  0  0  0  0  0  0  0  0  0  0
   21.1522   -5.0623  -14.6963 C   0  0  2  0  0  0  0  0  0  0  0  0
   20.7846   -6.4413  -14.4316 N   0  0  0  0  0  0  0  0  0  0  0  0
   22.2296   -4.7037  -13.7305 C   0  0  0  0  0  0  0  0  0  0  0  0
   22.6339   -5.5787  -12.7231 O   0  0  0  0  0  0  0  0  0  0  0  0
   22.8331   -3.5894  -13.7725 O   0  0  0  0  0  0  0  0  0  0  0  0
  2  1  1  6
  2  4  1  0
  3  2  1  0
  4  5  1  1
  6 11  1  0
  6  4  1  0
  7  6  2  0
  8  9  1  0
 10  9  1  6
 10 11  1  0
 10 12  1  0
 12 18  1  0
 12 13  2  0
 15 16  1  0
 15 14  1  6
 17 15  1  0
 17 18  1  1
 19 17  1  0
 19 20  1  0
 21 19  2  0
M  END
$$$$
