VST.pdb
     RDKit          3D

 21 20  0  0  1  0  0  0  0  0999 V2000
   16.1620  -10.4102  -17.9277 C   0  0  0  0  0  0  0  0  0  0  0  0
   16.8801   -9.4404  -17.0151 C   0  0  2  0  0  0  0  0  0  0  0  0
   17.6642   -8.4947  -17.9003 C   0  0  0  0  0  0  0  0  0  0  0  0
   17.8225  -10.2014  -16.1076 C   0  0  2  0  0  0  0  0  0  0  0  0
   17.0868  -11.1557  -15.3011 N   0  0  0  0  0  0  0  0  0  0  0  0
   18.6405   -9.2889  -15.2695 C   0  0  0  0  0  0  0  0  0  0  0  0
   18.0988   -8.5481  -14.4092 O   0  0  0  0  0  0  0  0  0  0  0  0
   22.8965   -9.2257  -15.5095 O   0  0  0  0  0  0  0  0  0  0  0  0
   22.2536   -8.8770  -14.3486 C   0  0  0  0  0  0  0  0  0  0  0  0
   20.8711   -8.3132  -14.5841 C   0  0  2  0  0  0  0  0  0  0  0  0
   20.0552   -9.1980  -15.3846 N   0  0  0  0  0  0  0  0  0  0  0  0
   21.0253   -6.9773  -15.2023 C   0  0  0  0  0  0  0  0  0  0  0  0
   21.1608   -6.8037  -16.4320 O   0  0  0  0  0  0  0  0  0  0  0  0
   18.9816   -4.2807  -15.6251 C   0  0  0  0  0  0  0  0  0  0  0  0
   20.0125   -3.7121  -14.6426 C   0  0  1  0  0  0  0  0  0  0  0  0
   19.5407   -4.0111  -13.3557 O   0  0  0  0  0  0  0  0  0  0  0  0
   21.3035   -4.5057  -14.8079 C   0  0  2  0  0  0  0  0  0  0  0  0
   21.0163   -5.8486  -14.3381 N   0  0  0  0  0  0  0  0  0  0  0  0
   22.3119   -3.9230  -13.8773 C   0  0  0  0  0  0  0  0  0  0  0  0
   22.9362   -2.7045  -14.1406 O   0  0  0  0  0  0  0  0  0  0  0  0
   22.6544   -4.5010  -12.8021 O   0  0  0  0  0  0  0  0  0  0  0  0
  2  1  1  6
  2  4  1  0
  3  2  1  0
  4  5  1  1
  6 11  1  0
  6  4  1  0
  7  6  2  0
  8  9  1  0
 10  9  1  6
 10 11  1  0
 10 12  1  0
 12 18  1  0
 12 13  2  0
 15 16  1  0
 15 14  1  6
 17 15  1  0
 17 18  1  1
 19 17  1  0
 19 20  1  0
 21 19  2  0
M  END
$$$$
