VST.pdb
     RDKit          3D

 21 20  0  0  1  0  0  0  0  0999 V2000
   18.7518  -10.2646  -20.0423 C   0  0  0  0  0  0  0  0  0  0  0  0
   18.9037   -9.2804  -18.9034 C   0  0  2  0  0  0  0  0  0  0  0  0
   19.9899   -8.3037  -19.3018 C   0  0  0  0  0  0  0  0  0  0  0  0
   19.3074  -10.0191  -17.6455 C   0  0  2  0  0  0  0  0  0  0  0  0
   18.3051  -11.0067  -17.2958 N   0  0  0  0  0  0  0  0  0  0  0  0
   19.5781   -9.0889  -16.5206 C   0  0  0  0  0  0  0  0  0  0  0  0
   18.6535   -8.3961  -16.0230 O   0  0  0  0  0  0  0  0  0  0  0  0
   21.8179   -9.7246  -13.1857 O   0  0  0  0  0  0  0  0  0  0  0  0
   22.2345   -8.6504  -13.9308 C   0  0  0  0  0  0  0  0  0  0  0  0
   21.1441   -8.0810  -14.8092 C   0  0  2  0  0  0  0  0  0  0  0  0
   20.8702   -8.9271  -15.9487 N   0  0  0  0  0  0  0  0  0  0  0  0
   21.5501   -6.7146  -15.2078 C   0  0  0  0  0  0  0  0  0  0  0  0
   22.3160   -6.4805  -16.1665 O   0  0  0  0  0  0  0  0  0  0  0  0
   19.1175   -3.7982  -15.7071 C   0  0  0  0  0  0  0  0  0  0  0  0
   20.0650   -3.4563  -14.5509 C   0  0  1  0  0  0  0  0  0  0  0  0
   19.4755   -3.9754  -13.3885 O   0  0  0  0  0  0  0  0  0  0  0  0
   21.3534   -4.2456  -14.7529 C   0  0  2  0  0  0  0  0  0  0  0  0
   21.0327   -5.6285  -14.4506 N   0  0  0  0  0  0  0  0  0  0  0  0
   22.3279   -3.7871  -13.7222 C   0  0  0  0  0  0  0  0  0  0  0  0
   22.9148   -2.5235  -13.7772 O   0  0  0  0  0  0  0  0  0  0  0  0
   22.6740   -4.5174  -12.7453 O   0  0  0  0  0  0  0  0  0  0  0  0
  2  1  1  6
  2  4  1  0
  3  2  1  0
  4  5  1  1
  6 11  1  0
  6  4  1  0
  7  6  2  0
  8  9  1  0
 10  9  1  6
 10 11  1  0
 10 12  1  0
 12 18  1  0
 12 13  2  0
 15 16  1  0
 15 14  1  6
 17 15  1  0
 17 18  1  1
 19 17  1  0
 19 20  1  0
 21 19  2  0
M  END
$$$$
