VST.pdb
     RDKit          3D

 21 20  0  0  1  0  0  0  0  0999 V2000
   19.3558  -12.8697  -18.7007 C   0  0  0  0  0  0  0  0  0  0  0  0
   19.2562  -11.4381  -18.2216 C   0  0  2  0  0  0  0  0  0  0  0  0
   20.6712  -10.9246  -18.0582 C   0  0  0  0  0  0  0  0  0  0  0  0
   18.5338  -11.3976  -16.8921 C   0  0  2  0  0  0  0  0  0  0  0  0
   17.2291  -12.0195  -17.0068 N   0  0  0  0  0  0  0  0  0  0  0  0
   18.4390  -10.0164  -16.3561 C   0  0  0  0  0  0  0  0  0  0  0  0
   17.7051   -9.1600  -16.9132 O   0  0  0  0  0  0  0  0  0  0  0  0
   18.7551   -8.8706  -12.4389 O   0  0  0  0  0  0  0  0  0  0  0  0
   18.3270   -8.0689  -13.4669 C   0  0  0  0  0  0  0  0  0  0  0  0
   19.1549   -8.2235  -14.7220 C   0  0  2  0  0  0  0  0  0  0  0  0
   19.1555   -9.5857  -15.2054 N   0  0  0  0  0  0  0  0  0  0  0  0
   20.5192   -7.7301  -14.4290 C   0  0  0  0  0  0  0  0  0  0  0  0
   21.4225   -8.4539  -13.9591 O   0  0  0  0  0  0  0  0  0  0  0  0
   22.8192   -6.1962  -16.7796 C   0  0  0  0  0  0  0  0  0  0  0  0
   22.5107   -5.0943  -15.7589 C   0  0  1  0  0  0  0  0  0  0  0  0
   21.3680   -4.4287  -16.2271 O   0  0  0  0  0  0  0  0  0  0  0  0
   22.0963   -5.7669  -14.4552 C   0  0  2  0  0  0  0  0  0  0  0  0
   20.7962   -6.3629  -14.7025 N   0  0  0  0  0  0  0  0  0  0  0  0
   21.8997   -4.6946  -13.4385 C   0  0  0  0  0  0  0  0  0  0  0  0
   22.9776   -4.0634  -12.8191 O   0  0  0  0  0  0  0  0  0  0  0  0
   20.7479   -4.3007  -13.0839 O   0  0  0  0  0  0  0  0  0  0  0  0
  2  1  1  1
  2  4  1  0
  3  2  1  0
  4  5  1  6
  6 11  1  0
  6  4  1  0
  7  6  2  0
  8  9  1  0
 10  9  1  1
 10 11  1  0
 10 12  1  0
 12 18  1  0
 12 13  2  0
 15 16  1  0
 15 14  1  6
 17 15  1  0
 17 18  1  6
 19 17  1  0
 19 20  1  0
 21 19  2  0
M  END
$$$$
