VST.pdb
     RDKit          3D

 21 20  0  0  1  0  0  0  0  0999 V2000
   18.5694  -12.5678  -15.7464 C   0  0  0  0  0  0  0  0  0  0  0  0
   17.9104  -11.7399  -16.8276 C   0  0  2  0  0  0  0  0  0  0  0  0
   17.5171  -12.6911  -17.9381 C   0  0  0  0  0  0  0  0  0  0  0  0
   18.8922  -10.7128  -17.3490 C   0  0  2  0  0  0  0  0  0  0  0  0
   20.0039  -11.3670  -18.0111 N   0  0  0  0  0  0  0  0  0  0  0  0
   19.3540   -9.7952  -16.2772 C   0  0  0  0  0  0  0  0  0  0  0  0
   18.5637   -8.9668  -15.7560 O   0  0  0  0  0  0  0  0  0  0  0  0
   22.7378   -8.7651  -12.9181 O   0  0  0  0  0  0  0  0  0  0  0  0
   22.3130   -9.5417  -13.9665 C   0  0  0  0  0  0  0  0  0  0  0  0
   21.1518   -8.9347  -14.7200 C   0  0  2  0  0  0  0  0  0  0  0  0
   20.6882   -9.7958  -15.7844 N   0  0  0  0  0  0  0  0  0  0  0  0
   21.5775   -7.6067  -15.2159 C   0  0  0  0  0  0  0  0  0  0  0  0
   22.3326   -7.4532  -16.1992 O   0  0  0  0  0  0  0  0  0  0  0  0
   19.5041   -4.8195  -16.2827 C   0  0  0  0  0  0  0  0  0  0  0  0
   20.2288   -4.3029  -15.0340 C   0  0  1  0  0  0  0  0  0  0  0  0
   19.4181   -4.6364  -13.9387 O   0  0  0  0  0  0  0  0  0  0  0  0
   21.5089   -5.1137  -14.8671 C   0  0  2  0  0  0  0  0  0  0  0  0
   21.0929   -6.4619  -14.5266 N   0  0  0  0  0  0  0  0  0  0  0  0
   22.2356   -4.5685  -13.6852 C   0  0  0  0  0  0  0  0  0  0  0  0
   22.8220   -3.3037  -13.7030 O   0  0  0  0  0  0  0  0  0  0  0  0
   22.3592   -5.2220  -12.6058 O   0  0  0  0  0  0  0  0  0  0  0  0
  2  1  1  1
  2  4  1  0
  3  2  1  0
  4  5  1  1
  6 11  1  0
  6  4  1  0
  7  6  2  0
  8  9  1  0
 10  9  1  6
 10 11  1  0
 10 12  1  0
 12 18  1  0
 12 13  2  0
 15 16  1  0
 15 14  1  6
 17 15  1  0
 17 18  1  1
 19 17  1  0
 19 20  1  0
 21 19  2  0
M  END
$$$$
