VST.pdb
     RDKit          3D

 21 20  0  0  1  0  0  0  0  0999 V2000
   17.8548  -11.8168  -18.3975 C   0  0  0  0  0  0  0  0  0  0  0  0
   19.3327  -12.1346  -18.3354 C   0  0  2  0  0  0  0  0  0  0  0  0
   19.5598  -13.3618  -19.1928 C   0  0  0  0  0  0  0  0  0  0  0  0
   19.7296  -12.4226  -16.9035 C   0  0  2  0  0  0  0  0  0  0  0  0
   19.0261  -13.5902  -16.4093 N   0  0  0  0  0  0  0  0  0  0  0  0
   19.5233  -11.2440  -16.0246 C   0  0  0  0  0  0  0  0  0  0  0  0
   18.3747  -10.9484  -15.6054 O   0  0  0  0  0  0  0  0  0  0  0  0
   21.3493   -7.6756  -13.2656 O   0  0  0  0  0  0  0  0  0  0  0  0
   21.5271   -8.8444  -13.9621 C   0  0  0  0  0  0  0  0  0  0  0  0
   20.3926   -9.1440  -14.9149 C   0  0  2  0  0  0  0  0  0  0  0  0
   20.5873  -10.3955  -15.6115 N   0  0  0  0  0  0  0  0  0  0  0  0
   20.2648   -7.9979  -15.8425 C   0  0  0  0  0  0  0  0  0  0  0  0
   21.0060   -7.8345  -16.8348 O   0  0  0  0  0  0  0  0  0  0  0  0
   17.3945   -6.9948  -17.8367 C   0  0  0  0  0  0  0  0  0  0  0  0
   17.5829   -5.8709  -16.8108 C   0  0  1  0  0  0  0  0  0  0  0  0
   16.8590   -6.2498  -15.6703 O   0  0  0  0  0  0  0  0  0  0  0  0
   19.0482   -5.8621  -16.3903 C   0  0  2  0  0  0  0  0  0  0  0  0
   19.2427   -7.0469  -15.5749 N   0  0  0  0  0  0  0  0  0  0  0  0
   19.2544   -4.6819  -15.5034 C   0  0  0  0  0  0  0  0  0  0  0  0
   19.3649   -4.8135  -14.1197 O   0  0  0  0  0  0  0  0  0  0  0  0
   19.3400   -3.5009  -15.9568 O   0  0  0  0  0  0  0  0  0  0  0  0
  2  1  1  1
  2  4  1  0
  3  2  1  0
  4  5  1  1
  6 11  1  0
  6  4  1  0
  7  6  2  0
  8  9  1  0
 10  9  1  1
 10 11  1  0
 10 12  1  0
 12 18  1  0
 12 13  2  0
 15 16  1  0
 15 14  1  6
 17 15  1  0
 17 18  1  1
 19 17  1  0
 19 20  1  0
 21 19  2  0
M  END
$$$$
