VST.pdb
     RDKit          3D

 21 20  0  0  1  0  0  0  0  0999 V2000
   17.0366  -13.7775  -14.6201 C   0  0  0  0  0  0  0  0  0  0  0  0
   15.8883  -13.2556  -15.4556 C   0  0  2  0  0  0  0  0  0  0  0  0
   14.7931  -14.3000  -15.4074 C   0  0  0  0  0  0  0  0  0  0  0  0
   16.3501  -13.0550  -16.8829 C   0  0  2  0  0  0  0  0  0  0  0  0
   16.7397  -14.3219  -17.4708 N   0  0  0  0  0  0  0  0  0  0  0  0
   17.4375  -12.0486  -16.9761 C   0  0  0  0  0  0  0  0  0  0  0  0
   18.6387  -12.4081  -17.0784 O   0  0  0  0  0  0  0  0  0  0  0  0
   16.7810   -7.7775  -16.6773 O   0  0  0  0  0  0  0  0  0  0  0  0
   17.6707   -8.3220  -17.5687 C   0  0  0  0  0  0  0  0  0  0  0  0
   18.2289   -9.6501  -17.1112 C   0  0  2  0  0  0  0  0  0  0  0  0
   17.1942  -10.6474  -16.9562 N   0  0  0  0  0  0  0  0  0  0  0  0
   18.9793   -9.4186  -15.8566 C   0  0  0  0  0  0  0  0  0  0  0  0
   18.4832   -9.5832  -14.7220 O   0  0  0  0  0  0  0  0  0  0  0  0
   22.6053  -10.6629  -15.1753 C   0  0  0  0  0  0  0  0  0  0  0  0
   22.5683   -9.1300  -15.1734 C   0  0  1  0  0  0  0  0  0  0  0  0
   22.7629   -8.7271  -16.5030 O   0  0  0  0  0  0  0  0  0  0  0  0
   21.1528   -8.6966  -14.8095 C   0  0  2  0  0  0  0  0  0  0  0  0
   20.3295   -8.9882  -15.9687 N   0  0  0  0  0  0  0  0  0  0  0  0
   21.1648   -7.2153  -14.6429 C   0  0  0  0  0  0  0  0  0  0  0  0
   20.4772   -6.3726  -15.5153 O   0  0  0  0  0  0  0  0  0  0  0  0
   21.7976   -6.6447  -13.7040 O   0  0  0  0  0  0  0  0  0  0  0  0
  2  1  1  1
  2  4  1  0
  3  2  1  0
  4  5  1  1
  6 11  1  0
  6  4  1  0
  7  6  2  0
  8  9  1  0
 10  9  1  1
 10 11  1  0
 10 12  1  0
 12 18  1  0
 12 13  2  0
 15 16  1  0
 15 14  1  6
 17 15  1  0
 17 18  1  6
 19 17  1  0
 19 20  1  0
 21 19  2  0
M  END
$$$$
