VST.pdb
     RDKit          3D

 21 20  0  0  1  0  0  0  0  0999 V2000
   16.4650  -11.6847  -18.4261 C   0  0  0  0  0  0  0  0  0  0  0  0
   16.7716  -10.6608  -17.3553 C   0  0  2  0  0  0  0  0  0  0  0  0
   15.6730   -9.6202  -17.4079 C   0  0  0  0  0  0  0  0  0  0  0  0
   18.1106  -10.0151  -17.6397 C   0  0  2  0  0  0  0  0  0  0  0  0
   19.1223  -11.0287  -17.8665 N   0  0  0  0  0  0  0  0  0  0  0  0
   18.5092   -9.0718  -16.5649 C   0  0  0  0  0  0  0  0  0  0  0  0
   17.7346   -8.1508  -16.1985 O   0  0  0  0  0  0  0  0  0  0  0  0
   22.3272   -9.2603  -14.5160 O   0  0  0  0  0  0  0  0  0  0  0  0
   21.1583   -8.8927  -13.8987 C   0  0  0  0  0  0  0  0  0  0  0  0
   20.1680   -8.2490  -14.8419 C   0  0  2  0  0  0  0  0  0  0  0  0
   19.7630   -9.1491  -15.8979 N   0  0  0  0  0  0  0  0  0  0  0  0
   20.7811   -7.0077  -15.3653 C   0  0  0  0  0  0  0  0  0  0  0  0
   21.3924   -6.9524  -16.4533 O   0  0  0  0  0  0  0  0  0  0  0  0
   19.1066   -3.7797  -15.8623 C   0  0  0  0  0  0  0  0  0  0  0  0
   20.1830   -3.5100  -14.8041 C   0  0  1  0  0  0  0  0  0  0  0  0
   19.5843   -3.7525  -13.5588 O   0  0  0  0  0  0  0  0  0  0  0  0
   21.2672   -4.5704  -14.9588 C   0  0  2  0  0  0  0  0  0  0  0  0
   20.6578   -5.8312  -14.5770 N   0  0  0  0  0  0  0  0  0  0  0  0
   22.3300   -4.2767  -13.9556 C   0  0  0  0  0  0  0  0  0  0  0  0
   23.1905   -3.1885  -14.0947 O   0  0  0  0  0  0  0  0  0  0  0  0
   22.5080   -4.9967  -12.9273 O   0  0  0  0  0  0  0  0  0  0  0  0
  2  1  1  6
  2  4  1  0
  3  2  1  0
  4  5  1  1
  6 11  1  0
  6  4  1  0
  7  6  2  0
  8  9  1  0
 10  9  1  1
 10 11  1  0
 10 12  1  0
 12 18  1  0
 12 13  2  0
 15 16  1  0
 15 14  1  6
 17 15  1  0
 17 18  1  1
 19 17  1  0
 19 20  1  0
 21 19  2  0
M  END
$$$$
