VST.pdb
     RDKit          3D

 21 20  0  0  1  0  0  0  0  0999 V2000
   16.6937   -9.6879  -17.3460 C   0  0  0  0  0  0  0  0  0  0  0  0
   17.8063  -10.1508  -18.2608 C   0  0  2  0  0  0  0  0  0  0  0  0
   17.1629  -10.9525  -19.3726 C   0  0  0  0  0  0  0  0  0  0  0  0
   18.7707  -11.0222  -17.4853 C   0  0  2  0  0  0  0  0  0  0  0  0
   18.0866  -12.1859  -16.9560 N   0  0  0  0  0  0  0  0  0  0  0  0
   19.4675  -10.2616  -16.4176 C   0  0  0  0  0  0  0  0  0  0  0  0
   18.9566  -10.1449  -15.2740 O   0  0  0  0  0  0  0  0  0  0  0  0
   23.5653   -9.3417  -16.5547 O   0  0  0  0  0  0  0  0  0  0  0  0
   22.8307   -9.3263  -15.3959 C   0  0  0  0  0  0  0  0  0  0  0  0
   21.4082   -8.8590  -15.6031 C   0  0  2  0  0  0  0  0  0  0  0  0
   20.7272   -9.6321  -16.6170 N   0  0  0  0  0  0  0  0  0  0  0  0
   21.4479   -7.4157  -15.9284 C   0  0  0  0  0  0  0  0  0  0  0  0
   21.6523   -6.9792  -17.0809 O   0  0  0  0  0  0  0  0  0  0  0  0
   19.1851   -4.9752  -16.1848 C   0  0  0  0  0  0  0  0  0  0  0  0
   19.9613   -4.4917  -14.9539 C   0  0  1  0  0  0  0  0  0  0  0  0
   19.3648   -5.1059  -13.8426 O   0  0  0  0  0  0  0  0  0  0  0  0
   21.3727   -5.0616  -15.0373 C   0  0  2  0  0  0  0  0  0  0  0  0
   21.2410   -6.4966  -14.8639 N   0  0  0  0  0  0  0  0  0  0  0  0
   22.1353   -4.5474  -13.8641 C   0  0  0  0  0  0  0  0  0  0  0  0
   22.5791   -3.2273  -13.7981 O   0  0  0  0  0  0  0  0  0  0  0  0
   22.4202   -5.2788  -12.8684 O   0  0  0  0  0  0  0  0  0  0  0  0
  2  1  1  1
  2  4  1  0
  3  2  1  0
  4  5  1  1
  6 11  1  0
  6  4  1  0
  7  6  2  0
  8  9  1  0
 10  9  1  6
 10 11  1  0
 10 12  1  0
 12 18  1  0
 12 13  2  0
 15 16  1  0
 15 14  1  6
 17 15  1  0
 17 18  1  1
 19 17  1  0
 19 20  1  0
 21 19  2  0
M  END
$$$$
