VST.pdb
     RDKit          3D

 21 20  0  0  1  0  0  0  0  0999 V2000
   16.7505   -9.4342  -17.3742 C   0  0  0  0  0  0  0  0  0  0  0  0
   17.8044  -10.3381  -17.9753 C   0  0  2  0  0  0  0  0  0  0  0  0
   17.1187  -11.1792  -19.0312 C   0  0  0  0  0  0  0  0  0  0  0  0
   18.3819  -11.2300  -16.8974 C   0  0  2  0  0  0  0  0  0  0  0  0
   17.3509  -12.0860  -16.3437 N   0  0  0  0  0  0  0  0  0  0  0  0
   19.0709  -10.4462  -15.8414 C   0  0  0  0  0  0  0  0  0  0  0  0
   18.4386  -10.0229  -14.8397 O   0  0  0  0  0  0  0  0  0  0  0  0
   23.2825   -9.9832  -15.6985 O   0  0  0  0  0  0  0  0  0  0  0  0
   22.4987   -9.7119  -14.6054 C   0  0  0  0  0  0  0  0  0  0  0  0
   21.1137   -9.2324  -14.9748 C   0  0  2  0  0  0  0  0  0  0  0  0
   20.4572  -10.1326  -15.8956 N   0  0  0  0  0  0  0  0  0  0  0  0
   21.2387   -7.8623  -15.5204 C   0  0  0  0  0  0  0  0  0  0  0  0
   21.4442   -7.6231  -16.7292 O   0  0  0  0  0  0  0  0  0  0  0  0
   19.2244   -5.3963  -16.2785 C   0  0  0  0  0  0  0  0  0  0  0  0
   19.9642   -4.7540  -15.0989 C   0  0  1  0  0  0  0  0  0  0  0  0
   19.2763   -5.1435  -13.9400 O   0  0  0  0  0  0  0  0  0  0  0  0
   21.3416   -5.3999  -15.0028 C   0  0  2  0  0  0  0  0  0  0  0  0
   21.1158   -6.7785  -14.6089 N   0  0  0  0  0  0  0  0  0  0  0  0
   22.0713   -4.7389  -13.8835 C   0  0  0  0  0  0  0  0  0  0  0  0
   22.5460   -3.4320  -13.9867 O   0  0  0  0  0  0  0  0  0  0  0  0
   22.2984   -5.3263  -12.7830 O   0  0  0  0  0  0  0  0  0  0  0  0
  2  1  1  1
  2  4  1  0
  3  2  1  0
  4  5  1  1
  6 11  1  0
  6  4  1  0
  7  6  2  0
  8  9  1  0
 10  9  1  6
 10 11  1  0
 10 12  1  0
 12 18  1  0
 12 13  2  0
 15 16  1  0
 15 14  1  6
 17 15  1  0
 17 18  1  1
 19 17  1  0
 19 20  1  0
 21 19  2  0
M  END
$$$$
