VST.pdb
     RDKit          3D

 21 20  0  0  1  0  0  0  0  0999 V2000
   18.8898  -12.5081  -17.5998 C   0  0  0  0  0  0  0  0  0  0  0  0
   19.5949  -11.9746  -18.8275 C   0  0  2  0  0  0  0  0  0  0  0  0
   20.1259  -13.1703  -19.5898 C   0  0  0  0  0  0  0  0  0  0  0  0
   20.7400  -11.0793  -18.4056 C   0  0  2  0  0  0  0  0  0  0  0  0
   21.7284  -11.8385  -17.6646 N   0  0  0  0  0  0  0  0  0  0  0  0
   20.2661   -9.8992  -17.6396 C   0  0  0  0  0  0  0  0  0  0  0  0
   19.5675   -9.0119  -18.1935 O   0  0  0  0  0  0  0  0  0  0  0  0
   20.5684   -9.5577  -13.3608 O   0  0  0  0  0  0  0  0  0  0  0  0
   19.6218   -8.9353  -14.1350 C   0  0  0  0  0  0  0  0  0  0  0  0
   20.1359   -8.5511  -15.5035 C   0  0  2  0  0  0  0  0  0  0  0  0
   20.5657   -9.7033  -16.2630 N   0  0  0  0  0  0  0  0  0  0  0  0
   21.2215   -7.5622  -15.3189 C   0  0  0  0  0  0  0  0  0  0  0  0
   22.4328   -7.8473  -15.4278 O   0  0  0  0  0  0  0  0  0  0  0  0
   20.6814   -3.9036  -16.6370 C   0  0  0  0  0  0  0  0  0  0  0  0
   21.0885   -3.8649  -15.1591 C   0  0  1  0  0  0  0  0  0  0  0  0
   19.8976   -3.9056  -14.4186 O   0  0  0  0  0  0  0  0  0  0  0  0
   21.8212   -5.1634  -14.8415 C   0  0  2  0  0  0  0  0  0  0  0  0
   20.8476   -6.2276  -15.0027 N   0  0  0  0  0  0  0  0  0  0  0  0
   22.1952   -5.1275  -13.3989 C   0  0  0  0  0  0  0  0  0  0  0  0
   23.1842   -4.2705  -12.9178 O   0  0  0  0  0  0  0  0  0  0  0  0
   21.6373   -5.8703  -12.5361 O   0  0  0  0  0  0  0  0  0  0  0  0
  2  1  1  1
  2  4  1  0
  3  2  1  0
  4  5  1  1
  6 11  1  0
  6  4  1  0
  7  6  2  0
  8  9  1  0
 10  9  1  1
 10 11  1  0
 10 12  1  0
 12 18  1  0
 12 13  2  0
 15 16  1  0
 15 14  1  6
 17 15  1  0
 17 18  1  1
 19 17  1  0
 19 20  1  0
 21 19  2  0
M  END
$$$$
