VST.pdb
     RDKit          3D

 21 20  0  0  1  0  0  0  0  0999 V2000
   17.0165  -11.7239  -18.6516 C   0  0  0  0  0  0  0  0  0  0  0  0
   17.7649  -10.8933  -17.6323 C   0  0  2  0  0  0  0  0  0  0  0  0
   17.9897   -9.5290  -18.2495 C   0  0  0  0  0  0  0  0  0  0  0  0
   19.0944  -11.5472  -17.3231 C   0  0  2  0  0  0  0  0  0  0  0  0
   18.8924  -12.9008  -16.8442 N   0  0  0  0  0  0  0  0  0  0  0  0
   19.8987  -10.7416  -16.3702 C   0  0  0  0  0  0  0  0  0  0  0  0
   19.4685  -10.4958  -15.2139 O   0  0  0  0  0  0  0  0  0  0  0  0
   23.7623  -10.9299  -15.3824 O   0  0  0  0  0  0  0  0  0  0  0  0
   23.4365   -9.7002  -15.8967 C   0  0  0  0  0  0  0  0  0  0  0  0
   21.9600   -9.3910  -15.8009 C   0  0  2  0  0  0  0  0  0  0  0  0
   21.1765  -10.2099  -16.6980 N   0  0  0  0  0  0  0  0  0  0  0  0
   21.7819   -7.9446  -16.0594 C   0  0  0  0  0  0  0  0  0  0  0  0
   21.8801   -7.4353  -17.1959 O   0  0  0  0  0  0  0  0  0  0  0  0
   19.1091   -5.9538  -15.9737 C   0  0  0  0  0  0  0  0  0  0  0  0
   19.9206   -5.3198  -14.8376 C   0  0  1  0  0  0  0  0  0  0  0  0
   19.5439   -5.9857  -13.6617 O   0  0  0  0  0  0  0  0  0  0  0  0
   21.3881   -5.6665  -15.0609 C   0  0  2  0  0  0  0  0  0  0  0  0
   21.4849   -7.1103  -14.9475 N   0  0  0  0  0  0  0  0  0  0  0  0
   22.1648   -5.0857  -13.9288 C   0  0  0  0  0  0  0  0  0  0  0  0
   22.3570   -3.7109  -13.7991 O   0  0  0  0  0  0  0  0  0  0  0  0
   22.6898   -5.8066  -13.0276 O   0  0  0  0  0  0  0  0  0  0  0  0
  2  1  1  6
  2  4  1  0
  3  2  1  0
  4  5  1  1
  6 11  1  0
  6  4  1  0
  7  6  2  0
  8  9  1  0
 10  9  1  6
 10 11  1  0
 10 12  1  0
 12 18  1  0
 12 13  2  0
 15 16  1  0
 15 14  1  6
 17 15  1  0
 17 18  1  1
 19 17  1  0
 19 20  1  0
 21 19  2  0
M  END
$$$$
