VST.pdb
     RDKit          3D

 21 20  0  0  1  0  0  0  0  0999 V2000
   17.7613  -11.2043  -19.9074 C   0  0  0  0  0  0  0  0  0  0  0  0
   18.2408  -10.3201  -18.7773 C   0  0  2  0  0  0  0  0  0  0  0  0
   19.3505   -9.4522  -19.3322 C   0  0  0  0  0  0  0  0  0  0  0  0
   18.7707  -11.1805  -17.6504 C   0  0  2  0  0  0  0  0  0  0  0  0
   17.7436  -12.0917  -17.1844 N   0  0  0  0  0  0  0  0  0  0  0  0
   19.3227  -10.3616  -16.5419 C   0  0  0  0  0  0  0  0  0  0  0  0
   18.5743   -9.6144  -15.8607 O   0  0  0  0  0  0  0  0  0  0  0  0
   23.4938  -10.3650  -15.5806 O   0  0  0  0  0  0  0  0  0  0  0  0
   22.5614  -10.0388  -14.6283 C   0  0  0  0  0  0  0  0  0  0  0  0
   21.2867   -9.4776  -15.2159 C   0  0  2  0  0  0  0  0  0  0  0  0
   20.7005  -10.3711  -16.1892 N   0  0  0  0  0  0  0  0  0  0  0  0
   21.5979   -8.1485  -15.7881 C   0  0  0  0  0  0  0  0  0  0  0  0
   21.7219   -7.9432  -17.0141 O   0  0  0  0  0  0  0  0  0  0  0  0
   19.5407   -5.3884  -14.9472 C   0  0  0  0  0  0  0  0  0  0  0  0
   20.6580   -5.2699  -15.9907 C   0  0  1  0  0  0  0  0  0  0  0  0
   20.7997   -3.9016  -16.2661 O   0  0  0  0  0  0  0  0  0  0  0  0
   21.9628   -5.6993  -15.3298 C   0  0  2  0  0  0  0  0  0  0  0  0
   21.7598   -7.0650  -14.8823 N   0  0  0  0  0  0  0  0  0  0  0  0
   22.1461   -4.8619  -14.1102 C   0  0  0  0  0  0  0  0  0  0  0  0
   22.5506   -3.5299  -14.1881 O   0  0  0  0  0  0  0  0  0  0  0  0
   21.9452   -5.3133  -12.9426 O   0  0  0  0  0  0  0  0  0  0  0  0
  2  1  1  6
  2  4  1  0
  3  2  1  0
  4  5  1  1
  6 11  1  0
  6  4  1  0
  7  6  2  0
  8  9  1  0
 10  9  1  6
 10 11  1  0
 10 12  1  0
 12 18  1  0
 12 13  2  0
 15 16  1  0
 15 14  1  1
 17 15  1  0
 17 18  1  1
 19 17  1  0
 19 20  1  0
 21 19  2  0
M  END
$$$$
