VST.pdb
     RDKit          3D

 21 20  0  0  1  0  0  0  0  0999 V2000
   12.9054  -12.4904  -13.9688 C   0  0  0  0  0  0  0  0  0  0  0  0
   13.7533  -11.3150  -13.5348 C   0  0  2  0  0  0  0  0  0  0  0  0
   13.1632  -10.0790  -14.1804 C   0  0  0  0  0  0  0  0  0  0  0  0
   15.1775  -11.5157  -14.0064 C   0  0  2  0  0  0  0  0  0  0  0  0
   15.7215  -12.7446  -13.4621 N   0  0  0  0  0  0  0  0  0  0  0  0
   16.0354  -10.3467  -13.6882 C   0  0  0  0  0  0  0  0  0  0  0  0
   16.2831  -10.0375  -12.4943 O   0  0  0  0  0  0  0  0  0  0  0  0
   18.5288   -8.6721  -16.5416 O   0  0  0  0  0  0  0  0  0  0  0  0
   18.7382   -8.4088  -15.2114 C   0  0  0  0  0  0  0  0  0  0  0  0
   17.4601   -8.3836  -14.4048 C   0  0  2  0  0  0  0  0  0  0  0  0
   16.6174   -9.5226  -14.6907 N   0  0  0  0  0  0  0  0  0  0  0  0
   16.7787   -7.0978  -14.6751 C   0  0  0  0  0  0  0  0  0  0  0  0
   15.7912   -6.9926  -15.4329 O   0  0  0  0  0  0  0  0  0  0  0  0
   15.5896   -2.7172  -13.2295 C   0  0  0  0  0  0  0  0  0  0  0  0
   16.0713   -4.1579  -13.0207 C   0  0  1  0  0  0  0  0  0  0  0  0
   14.9183   -4.9500  -12.9141 O   0  0  0  0  0  0  0  0  0  0  0  0
   16.7691   -4.6077  -14.2992 C   0  0  2  0  0  0  0  0  0  0  0  0
   17.2873   -5.9368  -14.0316 N   0  0  0  0  0  0  0  0  0  0  0  0
   17.9438   -3.7142  -14.5087 C   0  0  0  0  0  0  0  0  0  0  0  0
   17.8425   -2.5249  -15.2294 O   0  0  0  0  0  0  0  0  0  0  0  0
   19.0923   -3.9859  -14.0454 O   0  0  0  0  0  0  0  0  0  0  0  0
  2  1  1  6
  2  4  1  0
  3  2  1  0
  4  5  1  1
  6 11  1  0
  6  4  1  0
  7  6  2  0
  8  9  1  0
 10  9  1  6
 10 11  1  0
 10 12  1  0
 12 18  1  0
 12 13  2  0
 15 16  1  0
 15 14  1  6
 17 15  1  0
 17 18  1  1
 19 17  1  0
 19 20  1  0
 21 19  2  0
M  END
$$$$
