KYM.pdb
     RDKit          3D

 30 30  0  0  1  0  0  0  0  0999 V2000
   29.9086  -31.1901  -15.9950 N   0  0  0  0  0  0  0  0  0  0  0  0
   29.8448  -32.2166  -16.9903 C   0  0  1  0  0  0  0  0  0  0  0  0
   30.9799  -33.1882  -16.8515 C   0  0  0  0  0  0  0  0  0  0  0  0
   32.2467  -32.5163  -17.3400 C   0  0  0  0  0  0  0  0  0  0  0  0
   33.2083  -32.2217  -16.2228 C   0  0  0  0  0  0  0  0  0  0  0  0
   34.5161  -31.6522  -16.7315 C   0  0  0  0  0  0  0  0  0  0  0  0
   35.5092  -31.5791  -15.6717 N   0  0  0  0  0  0  0  0  0  0  0  0
   28.5299  -32.9160  -17.0052 C   0  0  0  0  0  0  0  0  0  0  0  0
   27.7321  -32.7099  -16.0492 O   0  0  0  0  0  0  0  0  0  0  0  0
   24.0968  -28.5806  -17.5709 O   0  0  0  0  0  0  0  0  0  0  0  0
   24.5430  -29.8504  -17.9247 C   0  0  0  0  0  0  0  0  0  0  0  0
   24.0417  -30.9814  -17.3157 C   0  0  0  0  0  0  0  0  0  0  0  0
   24.4803  -32.2472  -17.6622 C   0  0  0  0  0  0  0  0  0  0  0  0
   25.4396  -32.4311  -18.6335 C   0  0  0  0  0  0  0  0  0  0  0  0
   25.9515  -33.7433  -19.0526 C   0  0  0  0  0  0  0  0  0  0  0  0
   26.8534  -34.4037  -18.0627 C   0  0  2  0  0  0  0  0  0  0  0  0
   28.1527  -33.7957  -18.0486 N   0  0  0  0  0  0  0  0  0  0  0  0
   27.0209  -35.8294  -18.5025 C   0  0  0  0  0  0  0  0  0  0  0  0
   27.8850  -36.1348  -19.3437 O   0  0  0  0  0  0  0  0  0  0  0  0
   25.9407  -31.2928  -19.2428 C   0  0  0  0  0  0  0  0  0  0  0  0
   25.5037  -30.0293  -18.8979 C   0  0  0  0  0  0  0  0  0  0  0  0
   28.0149  -41.4025  -14.2692 C   0  0  0  0  0  0  0  0  0  0  0  0
   26.5534  -40.6855  -15.0654 S   0  0  0  0  0  0  0  0  0  0  0  0
   27.0419  -39.6247  -16.4133 C   0  0  0  0  0  0  0  0  0  0  0  0
   25.9786  -39.1740  -17.3415 C   0  0  0  0  0  0  0  0  0  0  0  0
   26.3938  -38.2440  -18.3940 C   0  0  2  0  0  0  0  0  0  0  0  0
   26.2028  -36.8492  -17.9709 N   0  0  0  0  0  0  0  0  0  0  0  0
   25.8667  -38.4144  -19.7260 C   0  0  0  0  0  0  0  0  0  0  0  0
   25.9235  -39.6060  -20.2327 O   0  0  0  0  0  0  0  0  0  0  0  0
   25.2907  -37.4862  -20.5638 O   0  0  0  0  0  0  0  0  0  0  0  0
  2  1  1  1
  2  8  1  0
  2  3  1  0
  4  3  1  0
  5  6  1  0
  5  4  1  0
  6  7  1  0
  8  9  2  0
 10 11  1  0
 11 21  2  0
 11 12  1  0
 12 13  2  0
 13 14  1  0
 14 15  1  0
 16 15  1  6
 17 16  1  0
 17  8  1  0
 18 19  2  0
 18 16  1  0
 20 14  2  0
 21 20  1  0
 23 24  1  0
 23 22  1  0
 24 25  1  0
 26 25  1  1
 26 27  1  0
 26 28  1  0
 27 18  1  0
 28 30  1  0
 29 28  2  0
M  END
$$$$
