KYM.pdb
     RDKit          3D

 30 30  0  0  1  0  0  0  0  0999 V2000
   20.2110  -31.5847  -10.4302 N   0  0  0  0  0  0  0  0  0  0  0  0
   20.1019  -32.9920  -10.1935 C   0  0  1  0  0  0  0  0  0  0  0  0
   19.7129  -33.7307  -11.4404 C   0  0  0  0  0  0  0  0  0  0  0  0
   18.2580  -33.4325  -11.7385 C   0  0  0  0  0  0  0  0  0  0  0  0
   18.0649  -32.0781  -12.3614 C   0  0  0  0  0  0  0  0  0  0  0  0
   16.6004  -31.7274  -12.5209 C   0  0  0  0  0  0  0  0  0  0  0  0
   16.2649  -30.5131  -11.7945 N   0  0  0  0  0  0  0  0  0  0  0  0
   21.3342  -33.5655   -9.5844 C   0  0  0  0  0  0  0  0  0  0  0  0
   21.4014  -34.8171   -9.4365 O   0  0  0  0  0  0  0  0  0  0  0  0
   25.7628  -35.0157  -14.5673 O   0  0  0  0  0  0  0  0  0  0  0  0
   25.5269  -34.4586  -13.3140 C   0  0  0  0  0  0  0  0  0  0  0  0
   24.7976  -33.2970  -13.1721 C   0  0  0  0  0  0  0  0  0  0  0  0
   24.5589  -32.7372  -11.9294 C   0  0  0  0  0  0  0  0  0  0  0  0
   25.0415  -33.3191  -10.7778 C   0  0  0  0  0  0  0  0  0  0  0  0
   24.8267  -32.7819   -9.4270 C   0  0  0  0  0  0  0  0  0  0  0  0
   23.6442  -33.3492   -8.7132 C   0  0  2  0  0  0  0  0  0  0  0  0
   22.4205  -32.7568   -9.1709 N   0  0  0  0  0  0  0  0  0  0  0  0
   23.8016  -33.0074   -7.2598 C   0  0  0  0  0  0  0  0  0  0  0  0
   23.4287  -31.9029   -6.8255 O   0  0  0  0  0  0  0  0  0  0  0  0
   25.7734  -34.4856  -10.9244 C   0  0  0  0  0  0  0  0  0  0  0  0
   26.0123  -35.0450  -12.1640 C   0  0  0  0  0  0  0  0  0  0  0  0
   19.8993  -34.7288   -2.2644 C   0  0  0  0  0  0  0  0  0  0  0  0
   21.5740  -35.3313   -2.6052 S   0  0  0  0  0  0  0  0  0  0  0  0
   22.4180  -34.2172   -3.7131 C   0  0  0  0  0  0  0  0  0  0  0  0
   23.8072  -34.5633   -4.0947 C   0  0  0  0  0  0  0  0  0  0  0  0
   24.5060  -33.5889   -4.9358 C   0  0  2  0  0  0  0  0  0  0  0  0
   24.3747  -33.9309   -6.3595 N   0  0  0  0  0  0  0  0  0  0  0  0
   25.8840  -33.2755   -4.6461 C   0  0  0  0  0  0  0  0  0  0  0  0
   26.7724  -33.6940   -5.4919 O   0  0  0  0  0  0  0  0  0  0  0  0
   26.4176  -32.5763   -3.5870 O   0  0  0  0  0  0  0  0  0  0  0  0
  2  1  1  6
  2  8  1  0
  2  3  1  0
  4  3  1  0
  5  6  1  0
  5  4  1  0
  6  7  1  0
  8  9  2  0
 10 11  1  0
 11 21  2  0
 11 12  1  0
 12 13  2  0
 13 14  1  0
 14 15  1  0
 16 15  1  6
 17 16  1  0
 17  8  1  0
 18 19  2  0
 18 16  1  0
 20 14  2  0
 21 20  1  0
 23 24  1  0
 23 22  1  0
 24 25  1  0
 26 25  1  1
 26 27  1  0
 26 28  1  0
 27 18  1  0
 28 30  1  0
 29 28  2  0
M  END
$$$$
