KYM.pdb
     RDKit          3D

 30 30  0  0  1  0  0  0  0  0999 V2000
   24.1558  -22.6156  -15.7093 N   0  0  0  0  0  0  0  0  0  0  0  0
   25.0525  -23.4942  -15.0218 C   0  0  1  0  0  0  0  0  0  0  0  0
   25.8916  -24.2849  -15.9821 C   0  0  0  0  0  0  0  0  0  0  0  0
   24.9691  -25.1084  -16.8570 C   0  0  0  0  0  0  0  0  0  0  0  0
   24.1638  -26.1022  -16.0674 C   0  0  0  0  0  0  0  0  0  0  0  0
   23.3473  -27.0126  -16.9606 C   0  0  0  0  0  0  0  0  0  0  0  0
   24.1986  -27.9327  -17.6979 N   0  0  0  0  0  0  0  0  0  0  0  0
   25.8963  -22.7809  -14.0230 C   0  0  0  0  0  0  0  0  0  0  0  0
   26.9220  -23.3673  -13.5790 O   0  0  0  0  0  0  0  0  0  0  0  0
   28.5116  -17.1195  -17.5496 O   0  0  0  0  0  0  0  0  0  0  0  0
   27.9920  -17.6638  -16.3789 C   0  0  0  0  0  0  0  0  0  0  0  0
   28.7638  -18.4514  -15.5509 C   0  0  0  0  0  0  0  0  0  0  0  0
   28.2542  -18.9960  -14.3854 C   0  0  0  0  0  0  0  0  0  0  0  0
   26.9500  -18.7733  -14.0020 C   0  0  0  0  0  0  0  0  0  0  0  0
   26.3427  -19.3177  -12.7797 C   0  0  0  0  0  0  0  0  0  0  0  0
   26.4496  -20.8005  -12.6396 C   0  0  2  0  0  0  0  0  0  0  0  0
   25.5851  -21.4788  -13.5618 N   0  0  0  0  0  0  0  0  0  0  0  0
   25.9965  -21.1452  -11.2504 C   0  0  0  0  0  0  0  0  0  0  0  0
   24.9762  -21.8339  -11.0702 O   0  0  0  0  0  0  0  0  0  0  0  0
   26.1781  -17.9818  -14.8362 C   0  0  0  0  0  0  0  0  0  0  0  0
   26.6856  -17.4379  -15.9995 C   0  0  0  0  0  0  0  0  0  0  0  0
   29.1860  -19.1236   -5.7825 C   0  0  0  0  0  0  0  0  0  0  0  0
   27.8763  -20.1589   -5.0777 S   0  0  0  0  0  0  0  0  0  0  0  0
   26.7105  -20.6274   -6.3437 C   0  0  0  0  0  0  0  0  0  0  0  0
   27.1361  -20.4604   -7.7530 C   0  0  0  0  0  0  0  0  0  0  0  0
   26.1895  -20.9219   -8.7709 C   0  0  2  0  0  0  0  0  0  0  0  0
   26.7180  -20.6957  -10.1238 N   0  0  0  0  0  0  0  0  0  0  0  0
   24.8216  -20.4676   -8.7114 C   0  0  0  0  0  0  0  0  0  0  0  0
   24.5200  -19.4179   -9.4094 O   0  0  0  0  0  0  0  0  0  0  0  0
   23.7554  -20.9923   -8.0164 O   0  0  0  0  0  0  0  0  0  0  0  0
  2  1  1  6
  2  8  1  0
  2  3  1  0
  4  3  1  0
  5  6  1  0
  5  4  1  0
  6  7  1  0
  8  9  2  0
 10 11  1  0
 11 21  2  0
 11 12  1  0
 12 13  2  0
 13 14  1  0
 14 15  1  0
 16 15  1  6
 17 16  1  0
 17  8  1  0
 18 19  2  0
 18 16  1  0
 20 14  2  0
 21 20  1  0
 23 24  1  0
 23 22  1  0
 24 25  1  0
 26 25  1  1
 26 27  1  0
 26 28  1  0
 27 18  1  0
 28 30  1  0
 29 28  2  0
M  END
$$$$
