KYM.pdb
     RDKit          3D

 30 30  0  0  1  0  0  0  0  0999 V2000
   21.6732  -34.4718  -10.5800 N   0  0  0  0  0  0  0  0  0  0  0  0
   20.8516  -34.9029   -9.4903 C   0  0  1  0  0  0  0  0  0  0  0  0
   20.0643  -36.1295   -9.8471 C   0  0  0  0  0  0  0  0  0  0  0  0
   18.9510  -35.7251  -10.7914 C   0  0  0  0  0  0  0  0  0  0  0  0
   19.0718  -36.3833  -12.1374 C   0  0  0  0  0  0  0  0  0  0  0  0
   18.6743  -35.4534  -13.2645 C   0  0  0  0  0  0  0  0  0  0  0  0
   18.6541  -36.1484  -14.5418 N   0  0  0  0  0  0  0  0  0  0  0  0
   21.6274  -35.1016   -8.2345 C   0  0  0  0  0  0  0  0  0  0  0  0
   22.5911  -35.9164   -8.2496 O   0  0  0  0  0  0  0  0  0  0  0  0
   27.0013  -32.1973   -9.4365 O   0  0  0  0  0  0  0  0  0  0  0  0
   26.0139  -32.4768   -8.4965 C   0  0  0  0  0  0  0  0  0  0  0  0
   26.2147  -33.4117   -7.5030 C   0  0  0  0  0  0  0  0  0  0  0  0
   25.2377  -33.6949   -6.5649 C   0  0  0  0  0  0  0  0  0  0  0  0
   24.0193  -33.0525   -6.5843 C   0  0  0  0  0  0  0  0  0  0  0  0
   22.9376  -33.3015   -5.6214 C   0  0  0  0  0  0  0  0  0  0  0  0
   22.1518  -34.5452   -5.8771 C   0  0  2  0  0  0  0  0  0  0  0  0
   21.3190  -34.4110   -7.0375 N   0  0  0  0  0  0  0  0  0  0  0  0
   21.2538  -34.7501   -4.6915 C   0  0  0  0  0  0  0  0  0  0  0  0
   20.1433  -34.1921   -4.6348 O   0  0  0  0  0  0  0  0  0  0  0  0
   23.8215  -32.1143   -7.5836 C   0  0  0  0  0  0  0  0  0  0  0  0
   24.7957  -31.8309   -8.5202 C   0  0  0  0  0  0  0  0  0  0  0  0
   20.6891  -39.8701   -0.0898 C   0  0  0  0  0  0  0  0  0  0  0  0
   20.3056  -39.9204   -1.8602 S   0  0  0  0  0  0  0  0  0  0  0  0
   20.0435  -38.2697   -2.4827 C   0  0  0  0  0  0  0  0  0  0  0  0
   20.9390  -37.2035   -1.9761 C   0  0  0  0  0  0  0  0  0  0  0  0
   20.7168  -35.8624   -2.5213 C   0  0  2  0  0  0  0  0  0  0  0  0
   21.6511  -35.5784   -3.6201 N   0  0  0  0  0  0  0  0  0  0  0  0
   20.6853  -34.7369   -1.6196 C   0  0  0  0  0  0  0  0  0  0  0  0
   21.7740  -34.0426   -1.5078 O   0  0  0  0  0  0  0  0  0  0  0  0
   19.6500  -34.2672   -0.8432 O   0  0  0  0  0  0  0  0  0  0  0  0
  2  1  1  6
  2  8  1  0
  2  3  1  0
  4  3  1  0
  5  6  1  0
  5  4  1  0
  6  7  1  0
  8  9  2  0
 10 11  1  0
 11 21  2  0
 11 12  1  0
 12 13  2  0
 13 14  1  0
 14 15  1  0
 16 15  1  1
 17 16  1  0
 17  8  1  0
 18 19  2  0
 18 16  1  0
 20 14  2  0
 21 20  1  0
 23 24  1  0
 23 22  1  0
 24 25  1  0
 26 25  1  1
 26 27  1  0
 26 28  1  0
 27 18  1  0
 28 30  1  0
 29 28  2  0
M  END
$$$$
