KYM.pdb
     RDKit          3D

 30 30  0  0  1  0  0  0  0  0999 V2000
   26.0244  -22.1060  -19.6776 N   0  0  0  0  0  0  0  0  0  0  0  0
   24.9816  -22.9351  -20.2007 C   0  0  1  0  0  0  0  0  0  0  0  0
   25.5055  -23.8945  -21.2286 C   0  0  0  0  0  0  0  0  0  0  0  0
   25.8408  -23.1147  -22.4833 C   0  0  0  0  0  0  0  0  0  0  0  0
   27.1921  -22.4604  -22.4092 C   0  0  0  0  0  0  0  0  0  0  0  0
   27.4920  -21.6306  -23.6400 C   0  0  0  0  0  0  0  0  0  0  0  0
   28.7759  -20.9575  -23.5243 N   0  0  0  0  0  0  0  0  0  0  0  0
   24.2258  -23.6443  -19.1310 C   0  0  0  0  0  0  0  0  0  0  0  0
   23.3387  -24.4736  -19.4750 O   0  0  0  0  0  0  0  0  0  0  0  0
   28.2984  -28.6334  -17.0898 O   0  0  0  0  0  0  0  0  0  0  0  0
   27.3821  -27.6499  -16.7296 C   0  0  0  0  0  0  0  0  0  0  0  0
   26.1630  -27.9756  -16.1737 C   0  0  0  0  0  0  0  0  0  0  0  0
   25.2469  -27.0033  -15.8130 C   0  0  0  0  0  0  0  0  0  0  0  0
   25.5154  -25.6645  -15.9947 C   0  0  0  0  0  0  0  0  0  0  0  0
   24.5920  -24.5794  -15.6352 C   0  0  0  0  0  0  0  0  0  0  0  0
   23.7166  -24.1128  -16.7513 C   0  0  2  0  0  0  0  0  0  0  0  0
   24.4703  -23.4180  -17.7548 N   0  0  0  0  0  0  0  0  0  0  0  0
   22.7342  -23.1414  -16.1635 C   0  0  0  0  0  0  0  0  0  0  0  0
   23.0424  -21.9464  -16.0069 O   0  0  0  0  0  0  0  0  0  0  0  0
   26.7408  -25.3414  -16.5533 C   0  0  0  0  0  0  0  0  0  0  0  0
   27.6557  -26.3108  -16.9136 C   0  0  0  0  0  0  0  0  0  0  0  0
   19.2061  -17.8994  -17.7202 C   0  0  0  0  0  0  0  0  0  0  0  0
   18.8794  -19.6819  -17.7229 S   0  0  0  0  0  0  0  0  0  0  0  0
   19.8559  -20.4909  -16.4687 C   0  0  0  0  0  0  0  0  0  0  0  0
   19.7249  -21.9621  -16.3512 C   0  0  0  0  0  0  0  0  0  0  0  0
   20.4726  -22.5904  -15.2597 C   0  0  2  0  0  0  0  0  0  0  0  0
   21.4441  -23.5643  -15.7780 N   0  0  0  0  0  0  0  0  0  0  0  0
   19.7455  -23.1803  -14.1624 C   0  0  0  0  0  0  0  0  0  0  0  0
   18.8737  -22.4306  -13.5642 O   0  0  0  0  0  0  0  0  0  0  0  0
   19.8292  -24.4517  -13.6410 O   0  0  0  0  0  0  0  0  0  0  0  0
  2  1  1  1
  2  8  1  0
  2  3  1  0
  4  3  1  0
  5  6  1  0
  5  4  1  0
  6  7  1  0
  8  9  2  0
 10 11  1  0
 11 21  2  0
 11 12  1  0
 12 13  2  0
 13 14  1  0
 14 15  1  0
 16 15  1  1
 17 16  1  0
 17  8  1  0
 18 19  2  0
 18 16  1  0
 20 14  2  0
 21 20  1  0
 23 24  1  0
 23 22  1  0
 24 25  1  0
 26 25  1  6
 26 27  1  0
 26 28  1  0
 27 18  1  0
 28 30  1  0
 29 28  2  0
M  END
$$$$
