KYM.pdb
     RDKit          3D

 30 30  0  0  1  0  0  0  0  0999 V2000
   22.0581  -22.7670  -16.8525 N   0  0  0  0  0  0  0  0  0  0  0  0
   21.0380  -21.7756  -17.0104 C   0  0  1  0  0  0  0  0  0  0  0  0
   19.7275  -22.2406  -16.4466 C   0  0  0  0  0  0  0  0  0  0  0  0
   19.4420  -23.6284  -16.9824 C   0  0  0  0  0  0  0  0  0  0  0  0
   20.5934  -24.5724  -16.7753 C   0  0  0  0  0  0  0  0  0  0  0  0
   20.3360  -25.9301  -17.3948 C   0  0  0  0  0  0  0  0  0  0  0  0
   21.5393  -26.7467  -17.3985 N   0  0  0  0  0  0  0  0  0  0  0  0
   21.4338  -20.4549  -16.4470 C   0  0  0  0  0  0  0  0  0  0  0  0
   20.6206  -19.4947  -16.5460 O   0  0  0  0  0  0  0  0  0  0  0  0
   17.8702  -20.1901  -11.4182 O   0  0  0  0  0  0  0  0  0  0  0  0
   19.1266  -19.9506  -11.9669 C   0  0  0  0  0  0  0  0  0  0  0  0
   20.0838  -20.9414  -12.0247 C   0  0  0  0  0  0  0  0  0  0  0  0
   21.3350  -20.7108  -12.5688 C   0  0  0  0  0  0  0  0  0  0  0  0
   21.6779  -19.4774  -13.0773 C   0  0  0  0  0  0  0  0  0  0  0  0
   22.9850  -19.1612  -13.6696 C   0  0  0  0  0  0  0  0  0  0  0  0
   22.9732  -19.0052  -15.1546 C   0  0  2  0  0  0  0  0  0  0  0  0
   22.6816  -20.2470  -15.8109 N   0  0  0  0  0  0  0  0  0  0  0  0
   24.3553  -18.5855  -15.5642 C   0  0  0  0  0  0  0  0  0  0  0  0
   25.2192  -18.3295  -14.7064 O   0  0  0  0  0  0  0  0  0  0  0  0
   20.7139  -18.4849  -13.0174 C   0  0  0  0  0  0  0  0  0  0  0  0
   19.4651  -18.7139  -12.4747 C   0  0  0  0  0  0  0  0  0  0  0  0
   29.1931  -23.4386  -17.3399 C   0  0  0  0  0  0  0  0  0  0  0  0
   27.7132  -22.7059  -16.5936 S   0  0  0  0  0  0  0  0  0  0  0  0
   27.3606  -21.1264  -17.3431 C   0  0  0  0  0  0  0  0  0  0  0  0
   26.1757  -20.3890  -16.8456 C   0  0  0  0  0  0  0  0  0  0  0  0
   25.9545  -19.0609  -17.4221 C   0  0  2  0  0  0  0  0  0  0  0  0
   24.7008  -18.4735  -16.9280 N   0  0  0  0  0  0  0  0  0  0  0  0
   26.0248  -18.8991  -18.8538 C   0  0  0  0  0  0  0  0  0  0  0  0
   27.1879  -19.0483  -19.4059 O   0  0  0  0  0  0  0  0  0  0  0  0
   25.0217  -18.6103  -19.7515 O   0  0  0  0  0  0  0  0  0  0  0  0
  2  1  1  1
  2  8  1  0
  2  3  1  0
  4  3  1  0
  5  6  1  0
  5  4  1  0
  6  7  1  0
  8  9  2  0
 10 11  1  0
 11 21  2  0
 11 12  1  0
 12 13  2  0
 13 14  1  0
 14 15  1  0
 16 15  1  1
 17 16  1  0
 17  8  1  0
 18 19  2  0
 18 16  1  0
 20 14  2  0
 21 20  1  0
 23 24  1  0
 23 22  1  0
 24 25  1  0
 26 25  1  6
 26 27  1  0
 26 28  1  0
 27 18  1  0
 28 30  1  0
 29 28  2  0
M  END
$$$$
