KYM.pdb
     RDKit          3D

 30 30  0  0  1  0  0  0  0  0999 V2000
   27.9605  -20.7756  -15.4384 N   0  0  0  0  0  0  0  0  0  0  0  0
   26.8192  -20.0307  -15.0010 C   0  0  1  0  0  0  0  0  0  0  0  0
   26.0401  -19.4864  -16.1622 C   0  0  0  0  0  0  0  0  0  0  0  0
   26.9691  -18.6373  -17.0052 C   0  0  0  0  0  0  0  0  0  0  0  0
   26.2568  -17.9653  -18.1457 C   0  0  0  0  0  0  0  0  0  0  0  0
   27.1731  -17.0493  -18.9297 C   0  0  0  0  0  0  0  0  0  0  0  0
   27.7477  -16.0202  -18.0777 N   0  0  0  0  0  0  0  0  0  0  0  0
   25.9472  -20.8114  -14.0798 C   0  0  0  0  0  0  0  0  0  0  0  0
   25.9854  -22.0713  -14.1445 O   0  0  0  0  0  0  0  0  0  0  0  0
   29.2454  -20.8928   -8.2277 O   0  0  0  0  0  0  0  0  0  0  0  0
   28.0172  -20.7629   -8.8691 C   0  0  0  0  0  0  0  0  0  0  0  0
   27.0478  -19.9052   -8.3936 C   0  0  0  0  0  0  0  0  0  0  0  0
   25.8244  -19.7707   -9.0260 C   0  0  0  0  0  0  0  0  0  0  0  0
   25.5225  -20.4905  -10.1610 C   0  0  0  0  0  0  0  0  0  0  0  0
   24.2467  -20.3982  -10.8842 C   0  0  0  0  0  0  0  0  0  0  0  0
   24.2702  -20.9726  -12.2622 C   0  0  2  0  0  0  0  0  0  0  0  0
   25.0860  -20.1886  -13.1442 N   0  0  0  0  0  0  0  0  0  0  0  0
   22.8623  -20.9281  -12.7818 C   0  0  0  0  0  0  0  0  0  0  0  0
   22.3670  -19.8573  -13.1765 O   0  0  0  0  0  0  0  0  0  0  0  0
   26.4987  -21.3508  -10.6354 C   0  0  0  0  0  0  0  0  0  0  0  0
   27.7198  -21.4859  -10.0052 C   0  0  0  0  0  0  0  0  0  0  0  0
   19.2281  -24.9609  -16.9432 C   0  0  0  0  0  0  0  0  0  0  0  0
   18.4333  -24.8664  -15.3173 S   0  0  0  0  0  0  0  0  0  0  0  0
   18.9177  -23.3686  -14.4789 C   0  0  0  0  0  0  0  0  0  0  0  0
   20.3128  -23.2877  -13.9867 C   0  0  0  0  0  0  0  0  0  0  0  0
   20.6920  -22.0358  -13.3278 C   0  0  2  0  0  0  0  0  0  0  0  0
   22.0747  -22.0981  -12.8326 N   0  0  0  0  0  0  0  0  0  0  0  0
   19.8390  -21.5033  -12.2935 C   0  0  0  0  0  0  0  0  0  0  0  0
   18.6205  -21.2140  -12.6274 O   0  0  0  0  0  0  0  0  0  0  0  0
   20.1214  -21.2540  -10.9693 O   0  0  0  0  0  0  0  0  0  0  0  0
  2  1  1  6
  2  8  1  0
  2  3  1  0
  4  3  1  0
  5  6  1  0
  5  4  1  0
  6  7  1  0
  8  9  2  0
 10 11  1  0
 11 21  2  0
 11 12  1  0
 12 13  2  0
 13 14  1  0
 14 15  1  0
 16 15  1  1
 17 16  1  0
 17  8  1  0
 18 19  2  0
 18 16  1  0
 20 14  2  0
 21 20  1  0
 23 24  1  0
 23 22  1  0
 24 25  1  0
 26 25  1  1
 26 27  1  0
 26 28  1  0
 27 18  1  0
 28 30  1  0
 29 28  2  0
M  END
$$$$
