KYM.pdb
     RDKit          3D

 30 30  0  0  1  0  0  0  0  0999 V2000
   25.6104  -18.2944  -17.9342 N   0  0  0  0  0  0  0  0  0  0  0  0
   26.0822  -19.1424  -16.8822 C   0  0  1  0  0  0  0  0  0  0  0  0
   27.5111  -18.8439  -16.5345 C   0  0  0  0  0  0  0  0  0  0  0  0
   28.3869  -19.9152  -17.1508 C   0  0  0  0  0  0  0  0  0  0  0  0
   27.7736  -21.2843  -17.0550 C   0  0  0  0  0  0  0  0  0  0  0  0
   28.7166  -22.3664  -17.5376 C   0  0  0  0  0  0  0  0  0  0  0  0
   28.6629  -23.5374  -16.6770 N   0  0  0  0  0  0  0  0  0  0  0  0
   25.2087  -19.0960  -15.6768 C   0  0  0  0  0  0  0  0  0  0  0  0
   24.9835  -17.9741  -15.1443 O   0  0  0  0  0  0  0  0  0  0  0  0
   18.4176  -17.5940  -16.2140 O   0  0  0  0  0  0  0  0  0  0  0  0
   19.4294  -18.4001  -15.7009 C   0  0  0  0  0  0  0  0  0  0  0  0
   20.2551  -19.1287  -16.5309 C   0  0  0  0  0  0  0  0  0  0  0  0
   21.2632  -19.9323  -16.0282 C   0  0  0  0  0  0  0  0  0  0  0  0
   21.4850  -20.0384  -14.6728 C   0  0  0  0  0  0  0  0  0  0  0  0
   22.5353  -20.8701  -14.0691 C   0  0  0  0  0  0  0  0  0  0  0  0
   23.8544  -20.1884  -13.9119 C   0  0  2  0  0  0  0  0  0  0  0  0
   24.6299  -20.2606  -15.1166 N   0  0  0  0  0  0  0  0  0  0  0  0
   24.6055  -20.9245  -12.8404 C   0  0  0  0  0  0  0  0  0  0  0  0
   25.4048  -21.8307  -13.1365 O   0  0  0  0  0  0  0  0  0  0  0  0
   20.6537  -19.3052  -13.8425 C   0  0  0  0  0  0  0  0  0  0  0  0
   19.6474  -18.5030  -14.3431 C   0  0  0  0  0  0  0  0  0  0  0  0
   29.7076  -21.3465  -12.0986 C   0  0  0  0  0  0  0  0  0  0  0  0
   29.4661  -21.1304  -10.3156 S   0  0  0  0  0  0  0  0  0  0  0  0
   27.7557  -21.3982   -9.8868 C   0  0  0  0  0  0  0  0  0  0  0  0
   26.7330  -20.9178  -10.8453 C   0  0  0  0  0  0  0  0  0  0  0  0
   25.3367  -21.1395  -10.4625 C   0  0  2  0  0  0  0  0  0  0  0  0
   24.4197  -20.6034  -11.4787 N   0  0  0  0  0  0  0  0  0  0  0  0
   24.8951  -20.7218   -9.1543 C   0  0  0  0  0  0  0  0  0  0  0  0
   23.9993  -19.7862   -9.1072 O   0  0  0  0  0  0  0  0  0  0  0  0
   25.2810  -21.1782   -7.9141 O   0  0  0  0  0  0  0  0  0  0  0  0
  2  1  1  6
  2  8  1  0
  2  3  1  0
  4  3  1  0
  5  6  1  0
  5  4  1  0
  6  7  1  0
  8  9  2  0
 10 11  1  0
 11 21  2  0
 11 12  1  0
 12 13  2  0
 13 14  1  0
 14 15  1  0
 16 15  1  6
 17 16  1  0
 17  8  1  0
 18 19  2  0
 18 16  1  0
 20 14  2  0
 21 20  1  0
 23 24  1  0
 23 22  1  0
 24 25  1  0
 26 25  1  6
 26 27  1  0
 26 28  1  0
 27 18  1  0
 28 30  1  0
 29 28  2  0
M  END
$$$$
