KYM.pdb
     RDKit          3D

 30 30  0  0  1  0  0  0  0  0999 V2000
   27.1870  -19.0688  -18.5440 N   0  0  0  0  0  0  0  0  0  0  0  0
   27.0867  -19.9288  -17.4044 C   0  0  1  0  0  0  0  0  0  0  0  0
   28.4399  -20.2761  -16.8568 C   0  0  0  0  0  0  0  0  0  0  0  0
   29.1204  -21.2195  -17.8271 C   0  0  0  0  0  0  0  0  0  0  0  0
   28.9017  -22.6640  -17.4730 C   0  0  0  0  0  0  0  0  0  0  0  0
   30.1990  -23.4441  -17.4334 C   0  0  0  0  0  0  0  0  0  0  0  0
   30.4476  -23.9906  -16.1089 N   0  0  0  0  0  0  0  0  0  0  0  0
   26.1989  -19.3722  -16.3458 C   0  0  0  0  0  0  0  0  0  0  0  0
   26.3277  -18.1554  -16.0363 O   0  0  0  0  0  0  0  0  0  0  0  0
   21.4264  -15.5240  -18.5509 O   0  0  0  0  0  0  0  0  0  0  0  0
   21.8107  -16.5128  -17.6501 C   0  0  0  0  0  0  0  0  0  0  0  0
   21.8541  -16.2686  -16.2937 C   0  0  0  0  0  0  0  0  0  0  0  0
   22.2350  -17.2467  -15.3921 C   0  0  0  0  0  0  0  0  0  0  0  0
   22.5881  -18.5098  -15.8133 C   0  0  0  0  0  0  0  0  0  0  0  0
   23.0014  -19.5962  -14.9142 C   0  0  0  0  0  0  0  0  0  0  0  0
   24.4604  -19.6194  -14.5971 C   0  0  2  0  0  0  0  0  0  0  0  0
   25.2256  -20.1591  -15.6839 N   0  0  0  0  0  0  0  0  0  0  0  0
   24.6397  -20.5290  -13.4161 C   0  0  0  0  0  0  0  0  0  0  0  0
   24.6011  -21.7644  -13.5572 O   0  0  0  0  0  0  0  0  0  0  0  0
   22.5433  -18.7512  -17.1763 C   0  0  0  0  0  0  0  0  0  0  0  0
   22.1633  -17.7759  -18.0769 C   0  0  0  0  0  0  0  0  0  0  0  0
   27.7338  -18.8664   -7.9358 C   0  0  0  0  0  0  0  0  0  0  0  0
   27.1601  -20.5263   -7.4890 S   0  0  0  0  0  0  0  0  0  0  0  0
   26.0082  -21.1311   -8.7089 C   0  0  0  0  0  0  0  0  0  0  0  0
   25.9102  -20.3784   -9.9813 C   0  0  0  0  0  0  0  0  0  0  0  0
   24.9631  -20.9017  -10.9683 C   0  0  2  0  0  0  0  0  0  0  0  0
   24.8552  -20.0011  -12.1251 N   0  0  0  0  0  0  0  0  0  0  0  0
   23.6406  -21.2822  -10.5356 C   0  0  0  0  0  0  0  0  0  0  0  0
   22.6703  -20.4758  -10.8323 O   0  0  0  0  0  0  0  0  0  0  0  0
   23.2350  -22.4016   -9.8444 O   0  0  0  0  0  0  0  0  0  0  0  0
  2  1  1  6
  2  8  1  0
  2  3  1  0
  4  3  1  0
  5  6  1  0
  5  4  1  0
  6  7  1  0
  8  9  2  0
 10 11  1  0
 11 21  2  0
 11 12  1  0
 12 13  2  0
 13 14  1  0
 14 15  1  0
 16 15  1  6
 17 16  1  0
 17  8  1  0
 18 19  2  0
 18 16  1  0
 20 14  2  0
 21 20  1  0
 23 24  1  0
 23 22  1  0
 24 25  1  0
 26 25  1  1
 26 27  1  0
 26 28  1  0
 27 18  1  0
 28 30  1  0
 29 28  2  0
M  END
$$$$
