KYM.pdb
     RDKit          3D

 30 30  0  0  1  0  0  0  0  0999 V2000
   28.8231  -21.5284  -18.8205 N   0  0  0  0  0  0  0  0  0  0  0  0
   28.3059  -20.4181  -18.0801 C   0  0  1  0  0  0  0  0  0  0  0  0
   27.4251  -19.5518  -18.9317 C   0  0  0  0  0  0  0  0  0  0  0  0
   28.2878  -18.8721  -19.9749 C   0  0  0  0  0  0  0  0  0  0  0  0
   28.3388  -19.6392  -21.2668 C   0  0  0  0  0  0  0  0  0  0  0  0
   29.0948  -18.8909  -22.3446 C   0  0  0  0  0  0  0  0  0  0  0  0
   29.1051  -19.6325  -23.5955 N   0  0  0  0  0  0  0  0  0  0  0  0
   27.6107  -20.8388  -16.8318 C   0  0  0  0  0  0  0  0  0  0  0  0
   26.9347  -21.9045  -16.8540 O   0  0  0  0  0  0  0  0  0  0  0  0
   24.4038  -20.7227   -8.5451 O   0  0  0  0  0  0  0  0  0  0  0  0
   25.1464  -20.4884   -9.6985 C   0  0  0  0  0  0  0  0  0  0  0  0
   24.7968  -19.4924  -10.5857 C   0  0  0  0  0  0  0  0  0  0  0  0
   25.5303  -19.2535  -11.7344 C   0  0  0  0  0  0  0  0  0  0  0  0
   26.6444  -20.0034  -12.0410 C   0  0  0  0  0  0  0  0  0  0  0  0
   27.4701  -19.8058  -13.2404 C   0  0  0  0  0  0  0  0  0  0  0  0
   26.9657  -20.4984  -14.4633 C   0  0  2  0  0  0  0  0  0  0  0  0
   27.6848  -20.0869  -15.6344 N   0  0  0  0  0  0  0  0  0  0  0  0
   25.5318  -20.0901  -14.6407 C   0  0  0  0  0  0  0  0  0  0  0  0
   25.2450  -18.9735  -15.1082 O   0  0  0  0  0  0  0  0  0  0  0  0
   26.9922  -21.0028  -11.1476 C   0  0  0  0  0  0  0  0  0  0  0  0
   26.2611  -21.2421  -10.0010 C   0  0  0  0  0  0  0  0  0  0  0  0
   21.4597  -19.9128  -18.7796 C   0  0  0  0  0  0  0  0  0  0  0  0
   20.4135  -20.6763  -17.5122 S   0  0  0  0  0  0  0  0  0  0  0  0
   21.1098  -20.4077  -15.8923 C   0  0  0  0  0  0  0  0  0  0  0  0
   22.5436  -20.7324  -15.7079 C   0  0  0  0  0  0  0  0  0  0  0  0
   23.0863  -20.5133  -14.3653 C   0  0  2  0  0  0  0  0  0  0  0  0
   24.4832  -20.9635  -14.2811 N   0  0  0  0  0  0  0  0  0  0  0  0
   22.3557  -21.0110  -13.2255 C   0  0  0  0  0  0  0  0  0  0  0  0
   22.7632  -22.1271  -12.7076 O   0  0  0  0  0  0  0  0  0  0  0  0
   21.2680  -20.4684  -12.5790 O   0  0  0  0  0  0  0  0  0  0  0  0
  2  1  1  6
  2  8  1  0
  2  3  1  0
  4  3  1  0
  5  6  1  0
  5  4  1  0
  6  7  1  0
  8  9  2  0
 10 11  1  0
 11 21  2  0
 11 12  1  0
 12 13  2  0
 13 14  1  0
 14 15  1  0
 16 15  1  1
 17 16  1  0
 17  8  1  0
 18 19  2  0
 18 16  1  0
 20 14  2  0
 21 20  1  0
 23 24  1  0
 23 22  1  0
 24 25  1  0
 26 25  1  6
 26 27  1  0
 26 28  1  0
 27 18  1  0
 28 30  1  0
 29 28  2  0
M  END
$$$$
