KYM.pdb
     RDKit          3D

 30 30  0  0  1  0  0  0  0  0999 V2000
   24.3547  -22.1500  -18.6408 N   0  0  0  0  0  0  0  0  0  0  0  0
   23.7870  -22.6346  -17.4196 C   0  0  1  0  0  0  0  0  0  0  0  0
   24.2695  -24.0192  -17.1004 C   0  0  0  0  0  0  0  0  0  0  0  0
   25.7460  -24.0985  -17.4294 C   0  0  0  0  0  0  0  0  0  0  0  0
   26.1339  -25.4281  -18.0137 C   0  0  0  0  0  0  0  0  0  0  0  0
   26.7872  -26.3322  -16.9896 C   0  0  0  0  0  0  0  0  0  0  0  0
   25.9896  -27.5246  -16.7510 N   0  0  0  0  0  0  0  0  0  0  0  0
   24.0107  -21.7047  -16.2778 C   0  0  0  0  0  0  0  0  0  0  0  0
   24.9635  -20.8806  -16.3556 O   0  0  0  0  0  0  0  0  0  0  0  0
   19.0497  -17.0068  -17.2549 O   0  0  0  0  0  0  0  0  0  0  0  0
   19.7728  -17.7910  -16.3611 C   0  0  0  0  0  0  0  0  0  0  0  0
   20.6186  -17.2232  -15.4318 C   0  0  0  0  0  0  0  0  0  0  0  0
   21.3407  -17.9963  -14.5399 C   0  0  0  0  0  0  0  0  0  0  0  0
   21.2445  -19.3705  -14.5429 C   0  0  0  0  0  0  0  0  0  0  0  0
   21.9794  -20.2531  -13.6263 C   0  0  0  0  0  0  0  0  0  0  0  0
   23.3167  -20.6922  -14.1249 C   0  0  2  0  0  0  0  0  0  0  0  0
   23.1953  -21.7180  -15.1203 N   0  0  0  0  0  0  0  0  0  0  0  0
   24.0529  -21.2765  -12.9541 C   0  0  0  0  0  0  0  0  0  0  0  0
   23.8024  -22.4298  -12.5607 O   0  0  0  0  0  0  0  0  0  0  0  0
   20.3939  -19.9370  -15.4776 C   0  0  0  0  0  0  0  0  0  0  0  0
   19.6729  -19.1665  -16.3681 C   0  0  0  0  0  0  0  0  0  0  0  0
   30.4263  -20.9933  -11.4733 C   0  0  0  0  0  0  0  0  0  0  0  0
   29.6504  -20.6832   -9.8653 S   0  0  0  0  0  0  0  0  0  0  0  0
   27.9262  -21.1369   -9.9134 C   0  0  0  0  0  0  0  0  0  0  0  0
   27.1465  -20.7144  -11.1004 C   0  0  0  0  0  0  0  0  0  0  0  0
   25.7351  -21.1053  -11.1166 C   0  0  2  0  0  0  0  0  0  0  0  0
   25.0418  -20.5301  -12.2783 N   0  0  0  0  0  0  0  0  0  0  0  0
   24.9372  -20.8952   -9.9334 C   0  0  0  0  0  0  0  0  0  0  0  0
   24.1382  -19.8746   -9.9367 O   0  0  0  0  0  0  0  0  0  0  0  0
   24.8844  -21.6326   -8.7720 O   0  0  0  0  0  0  0  0  0  0  0  0
  2  1  1  6
  2  8  1  0
  2  3  1  0
  4  3  1  0
  5  6  1  0
  5  4  1  0
  6  7  1  0
  8  9  2  0
 10 11  1  0
 11 21  2  0
 11 12  1  0
 12 13  2  0
 13 14  1  0
 14 15  1  0
 16 15  1  1
 17 16  1  0
 17  8  1  0
 18 19  2  0
 18 16  1  0
 20 14  2  0
 21 20  1  0
 23 24  1  0
 23 22  1  0
 24 25  1  0
 26 25  1  1
 26 27  1  0
 26 28  1  0
 27 18  1  0
 28 30  1  0
 29 28  2  0
M  END
$$$$
