KYM.pdb
     RDKit          3D

 30 30  0  0  1  0  0  0  0  0999 V2000
   15.7289  -12.8497  -18.5726 N   0  0  0  0  0  0  0  0  0  0  0  0
   16.4116  -12.5249  -17.3573 C   0  0  1  0  0  0  0  0  0  0  0  0
   17.1452  -13.7116  -16.8048 C   0  0  0  0  0  0  0  0  0  0  0  0
   16.1375  -14.8056  -16.5182 C   0  0  0  0  0  0  0  0  0  0  0  0
   16.7642  -16.0091  -15.8712 C   0  0  0  0  0  0  0  0  0  0  0  0
   15.7303  -17.0288  -15.4418 C   0  0  0  0  0  0  0  0  0  0  0  0
   16.3264  -18.0761  -14.6277 N   0  0  0  0  0  0  0  0  0  0  0  0
   17.3141  -11.3495  -17.5064 C   0  0  0  0  0  0  0  0  0  0  0  0
   17.8676  -11.1585  -18.6245 O   0  0  0  0  0  0  0  0  0  0  0  0
   13.8584   -6.6197  -20.4173 O   0  0  0  0  0  0  0  0  0  0  0  0
   14.7602   -6.9709  -19.4172 C   0  0  0  0  0  0  0  0  0  0  0  0
   14.3502   -7.6487  -18.2886 C   0  0  0  0  0  0  0  0  0  0  0  0
   15.2409   -8.0013  -17.2901 C   0  0  0  0  0  0  0  0  0  0  0  0
   16.5793   -7.6887  -17.3821 C   0  0  0  0  0  0  0  0  0  0  0  0
   17.5807   -8.0314  -16.3627 C   0  0  0  0  0  0  0  0  0  0  0  0
   18.3599   -9.2726  -16.6492 C   0  0  2  0  0  0  0  0  0  0  0  0
   17.5669  -10.4500  -16.4425 N   0  0  0  0  0  0  0  0  0  0  0  0
   19.4996   -9.3121  -15.6728 C   0  0  0  0  0  0  0  0  0  0  0  0
   19.3156   -9.6843  -14.5001 O   0  0  0  0  0  0  0  0  0  0  0  0
   16.9872   -7.0079  -18.5170 C   0  0  0  0  0  0  0  0  0  0  0  0
   16.0993   -6.6556  -19.5140 C   0  0  0  0  0  0  0  0  0  0  0  0
   27.1913   -9.8205  -14.2403 C   0  0  0  0  0  0  0  0  0  0  0  0
   25.8395  -10.0603  -15.4230 S   0  0  0  0  0  0  0  0  0  0  0  0
   24.3332   -9.3417  -14.7938 C   0  0  0  0  0  0  0  0  0  0  0  0
   23.1243   -9.4479  -15.6438 C   0  0  0  0  0  0  0  0  0  0  0  0
   21.8896   -8.8981  -15.0795 C   0  0  2  0  0  0  0  0  0  0  0  0
   20.7998   -8.9285  -16.0656 N   0  0  0  0  0  0  0  0  0  0  0  0
   21.9254   -7.6014  -14.4486 C   0  0  0  0  0  0  0  0  0  0  0  0
   22.0537   -7.5784  -13.1591 O   0  0  0  0  0  0  0  0  0  0  0  0
   21.8499   -6.3499  -15.0173 O   0  0  0  0  0  0  0  0  0  0  0  0
  2  1  1  6
  2  8  1  0
  2  3  1  0
  4  3  1  0
  5  6  1  0
  5  4  1  0
  6  7  1  0
  8  9  2  0
 10 11  1  0
 11 21  2  0
 11 12  1  0
 12 13  2  0
 13 14  1  0
 14 15  1  0
 16 15  1  1
 17 16  1  0
 17  8  1  0
 18 19  2  0
 18 16  1  0
 20 14  2  0
 21 20  1  0
 23 24  1  0
 23 22  1  0
 24 25  1  0
 26 25  1  6
 26 27  1  0
 26 28  1  0
 27 18  1  0
 28 30  1  0
 29 28  2  0
M  END
$$$$
