KYM.pdb
     RDKit          3D

 30 30  0  0  1  0  0  0  0  0999 V2000
   16.3629  -12.3980  -18.0605 N   0  0  0  0  0  0  0  0  0  0  0  0
   17.5189  -12.1602  -17.2508 C   0  0  1  0  0  0  0  0  0  0  0  0
   18.7859  -12.3524  -18.0313 C   0  0  0  0  0  0  0  0  0  0  0  0
   18.8121  -13.7723  -18.5583 C   0  0  0  0  0  0  0  0  0  0  0  0
   20.0992  -14.1004  -19.2621 C   0  0  0  0  0  0  0  0  0  0  0  0
   20.1178  -15.5222  -19.7830 C   0  0  0  0  0  0  0  0  0  0  0  0
   21.3252  -15.7896  -20.5483 N   0  0  0  0  0  0  0  0  0  0  0  0
   17.4864  -10.8271  -16.5873 C   0  0  0  0  0  0  0  0  0  0  0  0
   16.7630   -9.9250  -17.0930 O   0  0  0  0  0  0  0  0  0  0  0  0
   11.7962  -10.2556  -14.2331 O   0  0  0  0  0  0  0  0  0  0  0  0
   13.1561  -10.0182  -14.0571 C   0  0  0  0  0  0  0  0  0  0  0  0
   13.6551   -8.7351  -13.9789 C   0  0  0  0  0  0  0  0  0  0  0  0
   15.0059   -8.4912  -13.8039 C   0  0  0  0  0  0  0  0  0  0  0  0
   15.9119   -9.5236  -13.7001 C   0  0  0  0  0  0  0  0  0  0  0  0
   17.3577   -9.3396  -13.5129 C   0  0  0  0  0  0  0  0  0  0  0  0
   18.1439   -9.2639  -14.7801 C   0  0  2  0  0  0  0  0  0  0  0  0
   18.2351  -10.5451  -15.4191 N   0  0  0  0  0  0  0  0  0  0  0  0
   19.5353   -8.8379  -14.4101 C   0  0  0  0  0  0  0  0  0  0  0  0
   20.4073   -9.6849  -14.1463 O   0  0  0  0  0  0  0  0  0  0  0  0
   15.4069  -10.8108  -13.7792 C   0  0  0  0  0  0  0  0  0  0  0  0
   14.0592  -11.0553  -13.9538 C   0  0  0  0  0  0  0  0  0  0  0  0
   23.8592  -11.1503  -15.0146 C   0  0  0  0  0  0  0  0  0  0  0  0
   23.3347   -9.5089  -14.4537 S   0  0  0  0  0  0  0  0  0  0  0  0
   22.4602   -8.6609  -15.7566 C   0  0  0  0  0  0  0  0  0  0  0  0
   22.0115   -7.2758  -15.4823 C   0  0  0  0  0  0  0  0  0  0  0  0
   21.2887   -7.0697  -14.2252 C   0  0  2  0  0  0  0  0  0  0  0  0
   19.8803   -7.4705  -14.3547 N   0  0  0  0  0  0  0  0  0  0  0  0
   21.3602   -5.7813  -13.5802 C   0  0  0  0  0  0  0  0  0  0  0  0
   20.3648   -4.9731  -13.7697 O   0  0  0  0  0  0  0  0  0  0  0  0
   22.3431   -5.2639  -12.7669 O   0  0  0  0  0  0  0  0  0  0  0  0
  2  1  1  6
  2  8  1  0
  2  3  1  0
  4  3  1  0
  5  6  1  0
  5  4  1  0
  6  7  1  0
  8  9  2  0
 10 11  1  0
 11 21  2  0
 11 12  1  0
 12 13  2  0
 13 14  1  0
 14 15  1  0
 16 15  1  1
 17 16  1  0
 17  8  1  0
 18 19  2  0
 18 16  1  0
 20 14  2  0
 21 20  1  0
 23 24  1  0
 23 22  1  0
 24 25  1  0
 26 25  1  6
 26 27  1  0
 26 28  1  0
 27 18  1  0
 28 30  1  0
 29 28  2  0
M  END
$$$$
