KNP.pdb
     RDKit          3D

 25 25  0  0  1  0  0  0  0  0999 V2000
    8.9270  -14.9344   19.7344 N   0  0  0  0  0  0  0  0  0  0  0  0
    8.3573  -13.7798   20.3446 C   0  0  1  0  0  0  0  0  0  0  0  0
    7.4175  -13.0003   19.4766 C   0  0  0  0  0  0  0  0  0  0  0  0
    7.2151  -13.5729   18.1212 C   0  0  0  0  0  0  0  0  0  0  0  0
    8.4787  -13.7162   17.3383 C   0  0  0  0  0  0  0  0  0  0  0  0
    8.2014  -14.2460   15.9551 C   0  0  0  0  0  0  0  0  0  0  0  0
    9.4766  -14.3296   15.2363 N   0  0  0  0  0  0  0  0  0  0  0  0
    7.6238  -14.0934   21.6055 C   0  0  0  0  0  0  0  0  0  0  0  0
    6.8919  -13.2079   22.1327 O   0  0  0  0  0  0  0  0  0  0  0  0
    5.7140  -18.8016   24.8761 N   0  0  0  0  0  0  0  0  0  0  0  0
    6.5785  -17.6729   24.9143 C   0  0  0  0  0  0  0  0  0  0  0  0
    6.9225  -17.2423   26.0182 O   0  0  0  0  0  0  0  0  0  0  0  0
    7.0027  -17.0972   23.6497 C   0  0  0  0  0  0  0  0  0  0  0  0
    7.1753  -15.6242   23.5569 C   0  0  2  0  0  0  0  0  0  0  0  0
    7.7307  -15.3450   22.2121 N   0  0  0  0  0  0  0  0  0  0  0  0
    8.0148  -14.9754   24.5468 C   0  0  0  0  0  0  0  0  0  0  0  0
    9.2667  -14.9095   24.2260 O   0  0  0  0  0  0  0  0  0  0  0  0
    7.7192  -14.4049   25.7942 N   0  0  0  0  0  0  0  0  0  0  0  0
    6.5592  -14.2668   26.6121 C   0  0  0  0  0  0  0  0  0  0  0  0
    6.6039  -12.7562   26.8904 C   0  0  0  0  0  0  0  0  0  0  0  0
    8.0824  -12.4542   26.9912 C   0  0  0  0  0  0  0  0  0  0  0  0
    8.7657  -13.7292   26.5985 C   0  0  1  0  0  0  0  0  0  0  0  0
    9.1044  -14.5338   27.7699 C   0  0  0  0  0  0  0  0  0  0  0  0
    8.6077  -15.7985   28.0600 O   0  0  0  0  0  0  0  0  0  0  0  0
    9.9297  -14.0658   28.6258 O   0  0  0  0  0  0  0  0  0  0  0  0
  2  1  1  6
  3  2  1  0
  4  3  1  0
  5  4  1  0
  5  6  1  0
  7  6  1  0
  8  9  2  0
  8  2  1  0
 10 11  1  0
 11 13  1  0
 12 11  2  0
 14 13  1  1
 14 15  1  0
 15  8  1  0
 16 14  1  0
 17 16  2  0
 18 19  1  0
 18 16  1  0
 20 19  1  0
 21 20  1  0
 22 21  1  0
 22 18  1  0
 22 23  1  1
 24 23  1  0
 25 23  2  0
M  END
$$$$
