KNP.pdb
     RDKit          3D

 25 25  0  0  1  0  0  0  0  0999 V2000
    7.3897  -16.4656   19.3504 N   0  0  0  0  0  0  0  0  0  0  0  0
    7.8988  -15.4098   20.1603 C   0  0  1  0  0  0  0  0  0  0  0  0
    7.7262  -14.0339   19.5935 C   0  0  0  0  0  0  0  0  0  0  0  0
    7.2962  -14.0044   18.1722 C   0  0  0  0  0  0  0  0  0  0  0  0
    8.3637  -13.5446   17.2345 C   0  0  0  0  0  0  0  0  0  0  0  0
    7.8822  -13.5799   15.8070 C   0  0  0  0  0  0  0  0  0  0  0  0
    9.0075  -13.2197   14.9388 N   0  0  0  0  0  0  0  0  0  0  0  0
    7.3056  -15.3924   21.5293 C   0  0  0  0  0  0  0  0  0  0  0  0
    6.0964  -15.0545   21.6758 O   0  0  0  0  0  0  0  0  0  0  0  0
    7.9065  -18.5862   26.3995 N   0  0  0  0  0  0  0  0  0  0  0  0
    7.0537  -17.7062   25.6776 C   0  0  0  0  0  0  0  0  0  0  0  0
    6.0122  -17.3306   26.2222 O   0  0  0  0  0  0  0  0  0  0  0  0
    7.4629  -17.3043   24.3428 C   0  0  0  0  0  0  0  0  0  0  0  0
    7.4660  -15.8583   24.0010 C   0  0  2  0  0  0  0  0  0  0  0  0
    8.0605  -15.7421   22.6490 N   0  0  0  0  0  0  0  0  0  0  0  0
    8.1657  -14.9517   24.8923 C   0  0  0  0  0  0  0  0  0  0  0  0
    9.3960  -14.7220   24.5638 O   0  0  0  0  0  0  0  0  0  0  0  0
    7.7534  -14.2758   26.0508 N   0  0  0  0  0  0  0  0  0  0  0  0
    6.5456  -14.1645   26.8007 C   0  0  0  0  0  0  0  0  0  0  0  0
    6.4298  -12.6354   26.8997 C   0  0  0  0  0  0  0  0  0  0  0  0
    7.8651  -12.1747   27.0217 C   0  0  0  0  0  0  0  0  0  0  0  0
    8.6875  -13.4098   26.8098 C   0  0  1  0  0  0  0  0  0  0  0  0
    9.0426  -14.0369   28.0805 C   0  0  0  0  0  0  0  0  0  0  0  0
    8.6354  -15.2940   28.5097 O   0  0  0  0  0  0  0  0  0  0  0  0
    9.7954  -13.4031   28.8956 O   0  0  0  0  0  0  0  0  0  0  0  0
  2  1  1  6
  3  2  1  0
  4  3  1  0
  5  4  1  0
  5  6  1  0
  7  6  1  0
  8  9  2  0
  8  2  1  0
 10 11  1  0
 11 13  1  0
 12 11  2  0
 14 13  1  1
 14 15  1  0
 15  8  1  0
 16 14  1  0
 17 16  2  0
 18 19  1  0
 18 16  1  0
 20 19  1  0
 21 20  1  0
 22 21  1  0
 22 18  1  0
 22 23  1  1
 24 23  1  0
 25 23  2  0
M  END
$$$$
