KNP.pdb
     RDKit          3D

 25 25  0  0  1  0  0  0  0  0999 V2000
    7.9638  -12.8632   19.2228 N   0  0  0  0  0  0  0  0  0  0  0  0
    8.0804  -14.1612   19.7984 C   0  0  1  0  0  0  0  0  0  0  0  0
    9.4664  -14.7297   19.8091 C   0  0  0  0  0  0  0  0  0  0  0  0
   10.5247  -13.7613   20.1937 C   0  0  0  0  0  0  0  0  0  0  0  0
   11.8977  -14.3486   20.2013 C   0  0  0  0  0  0  0  0  0  0  0  0
   12.9318  -13.3033   20.5316 C   0  0  0  0  0  0  0  0  0  0  0  0
   14.2462  -13.9528   20.5457 N   0  0  0  0  0  0  0  0  0  0  0  0
    7.5768  -14.2199   21.2017 C   0  0  0  0  0  0  0  0  0  0  0  0
    7.3303  -13.1434   21.8165 O   0  0  0  0  0  0  0  0  0  0  0  0
    6.1774  -16.5131   25.7979 N   0  0  0  0  0  0  0  0  0  0  0  0
    5.9198  -17.3750   24.6962 C   0  0  0  0  0  0  0  0  0  0  0  0
    5.4027  -18.4715   24.9255 O   0  0  0  0  0  0  0  0  0  0  0  0
    6.2820  -16.9095   23.3685 C   0  0  0  0  0  0  0  0  0  0  0  0
    6.8114  -15.5297   23.2144 C   0  0  2  0  0  0  0  0  0  0  0  0
    7.3731  -15.4400   21.8464 N   0  0  0  0  0  0  0  0  0  0  0  0
    7.8184  -15.0797   24.1573 C   0  0  0  0  0  0  0  0  0  0  0  0
    9.0364  -15.3315   23.8000 O   0  0  0  0  0  0  0  0  0  0  0  0
    7.7154  -14.4202   25.3915 N   0  0  0  0  0  0  0  0  0  0  0  0
    6.6541  -13.9536   26.2219 C   0  0  0  0  0  0  0  0  0  0  0  0
    7.1111  -12.5051   26.4549 C   0  0  0  0  0  0  0  0  0  0  0  0
    8.6180  -12.6118   26.5252 C   0  0  0  0  0  0  0  0  0  0  0  0
    8.9229  -14.0333   26.1602 C   0  0  1  0  0  0  0  0  0  0  0  0
    9.0576  -14.8707   27.3498 C   0  0  0  0  0  0  0  0  0  0  0  0
    8.2650  -15.9665   27.6678 O   0  0  0  0  0  0  0  0  0  0  0  0
    9.9771  -14.6026   28.1956 O   0  0  0  0  0  0  0  0  0  0  0  0
  2  1  1  1
  3  2  1  0
  4  3  1  0
  5  4  1  0
  5  6  1  0
  7  6  1  0
  8  9  2  0
  8  2  1  0
 10 11  1  0
 11 13  1  0
 12 11  2  0
 14 13  1  1
 14 15  1  0
 15  8  1  0
 16 14  1  0
 17 16  2  0
 18 19  1  0
 18 16  1  0
 20 19  1  0
 21 20  1  0
 22 21  1  0
 22 18  1  0
 22 23  1  1
 24 23  1  0
 25 23  2  0
M  END
$$$$
