KNP.pdb
     RDKit          3D

 25 25  0  0  1  0  0  0  0  0999 V2000
    8.5727  -16.8441   19.6704 N   0  0  0  0  0  0  0  0  0  0  0  0
    8.4898  -15.5492   20.2587 C   0  0  1  0  0  0  0  0  0  0  0  0
    7.8958  -14.4895   19.3821 C   0  0  0  0  0  0  0  0  0  0  0  0
    8.2347  -14.6222   17.9421 C   0  0  0  0  0  0  0  0  0  0  0  0
    7.7768  -13.4685   17.1118 C   0  0  0  0  0  0  0  0  0  0  0  0
    8.1116  -13.6811   15.6580 C   0  0  0  0  0  0  0  0  0  0  0  0
    7.4772  -12.6097   14.8840 N   0  0  0  0  0  0  0  0  0  0  0  0
    7.7156  -15.5410   21.5341 C   0  0  0  0  0  0  0  0  0  0  0  0
    6.4553  -15.4531   21.4929 O   0  0  0  0  0  0  0  0  0  0  0  0
    6.3411  -16.7348   26.3908 N   0  0  0  0  0  0  0  0  0  0  0  0
    6.6683  -17.6993   25.3980 C   0  0  0  0  0  0  0  0  0  0  0  0
    6.4069  -18.8826   25.6299 O   0  0  0  0  0  0  0  0  0  0  0  0
    7.2904  -17.2301   24.1719 C   0  0  0  0  0  0  0  0  0  0  0  0
    7.6112  -15.7852   24.0405 C   0  0  2  0  0  0  0  0  0  0  0  0
    8.3568  -15.6289   22.7699 N   0  0  0  0  0  0  0  0  0  0  0  0
    8.3754  -15.1601   25.1040 C   0  0  0  0  0  0  0  0  0  0  0  0
    9.6573  -15.2982   24.9939 O   0  0  0  0  0  0  0  0  0  0  0  0
    7.9796  -14.4314   26.2360 N   0  0  0  0  0  0  0  0  0  0  0  0
    6.7439  -14.1107   26.8713 C   0  0  0  0  0  0  0  0  0  0  0  0
    6.8943  -12.5867   26.9993 C   0  0  0  0  0  0  0  0  0  0  0  0
    8.3700  -12.3938   27.2682 C   0  0  0  0  0  0  0  0  0  0  0  0
    8.9750  -13.7551   27.1022 C   0  0  1  0  0  0  0  0  0  0  0  0
    9.0867  -14.4475   28.3838 C   0  0  0  0  0  0  0  0  0  0  0  0
    9.8933  -14.0646   29.4482 O   0  0  0  0  0  0  0  0  0  0  0  0
    8.3938  -15.5029   28.5806 O   0  0  0  0  0  0  0  0  0  0  0  0
  2  1  1  6
  3  2  1  0
  4  3  1  0
  5  4  1  0
  5  6  1  0
  7  6  1  0
  8  9  2  0
  8  2  1  0
 10 11  1  0
 11 13  1  0
 12 11  2  0
 14 13  1  1
 14 15  1  0
 15  8  1  0
 16 14  1  0
 17 16  2  0
 18 19  1  0
 18 16  1  0
 20 19  1  0
 21 20  1  0
 22 21  1  0
 22 18  1  0
 22 23  1  1
 24 23  1  0
 25 23  2  0
M  END
$$$$
