KNP.pdb
     RDKit          3D

 25 25  0  0  1  0  0  0  0  0999 V2000
    6.3836  -17.0453   19.9510 N   0  0  0  0  0  0  0  0  0  0  0  0
    7.4861  -16.7857   20.8153 C   0  0  1  0  0  0  0  0  0  0  0  0
    8.3843  -15.6678   20.3818 C   0  0  0  0  0  0  0  0  0  0  0  0
    7.6715  -14.4322   19.9680 C   0  0  0  0  0  0  0  0  0  0  0  0
    8.5818  -13.3483   19.4921 C   0  0  0  0  0  0  0  0  0  0  0  0
    7.8077  -12.0996   19.1569 C   0  0  0  0  0  0  0  0  0  0  0  0
    8.7316  -11.1449   18.5367 N   0  0  0  0  0  0  0  0  0  0  0  0
    7.0665  -16.4866   22.2155 C   0  0  0  0  0  0  0  0  0  0  0  0
    6.0007  -15.8376   22.4173 O   0  0  0  0  0  0  0  0  0  0  0  0
    6.9116  -17.1536   27.4796 N   0  0  0  0  0  0  0  0  0  0  0  0
    7.1477  -18.3235   26.7061 C   0  0  0  0  0  0  0  0  0  0  0  0
    7.1256  -19.4144   27.2820 O   0  0  0  0  0  0  0  0  0  0  0  0
    7.4004  -18.1604   25.2848 C   0  0  0  0  0  0  0  0  0  0  0  0
    7.3469  -16.7949   24.7012 C   0  0  2  0  0  0  0  0  0  0  0  0
    7.8281  -16.9101   23.3048 N   0  0  0  0  0  0  0  0  0  0  0  0
    8.0977  -15.7441   25.3629 C   0  0  0  0  0  0  0  0  0  0  0  0
    9.2854  -15.5535   24.8859 O   0  0  0  0  0  0  0  0  0  0  0  0
    7.7730  -14.8932   26.4305 N   0  0  0  0  0  0  0  0  0  0  0  0
    6.6219  -14.6477   27.2355 C   0  0  0  0  0  0  0  0  0  0  0  0
    6.5249  -13.1194   27.1081 C   0  0  0  0  0  0  0  0  0  0  0  0
    7.9686  -12.6717   27.0600 C   0  0  0  0  0  0  0  0  0  0  0  0
    8.7648  -13.9394   26.9829 C   0  0  1  0  0  0  0  0  0  0  0  0
    9.2037  -14.3731   28.3071 C   0  0  0  0  0  0  0  0  0  0  0  0
   10.1431  -13.7309   29.1041 O   0  0  0  0  0  0  0  0  0  0  0  0
    8.6990  -15.4334   28.8109 O   0  0  0  0  0  0  0  0  0  0  0  0
  2  1  1  6
  3  2  1  0
  4  3  1  0
  5  4  1  0
  5  6  1  0
  7  6  1  0
  8  9  2  0
  8  2  1  0
 10 11  1  0
 11 13  1  0
 12 11  2  0
 14 13  1  1
 14 15  1  0
 15  8  1  0
 16 14  1  0
 17 16  2  0
 18 19  1  0
 18 16  1  0
 20 19  1  0
 21 20  1  0
 22 21  1  0
 22 18  1  0
 22 23  1  1
 24 23  1  0
 25 23  2  0
M  END
$$$$
