KNP.pdb
     RDKit          3D

 25 25  0  0  1  0  0  0  0  0999 V2000
    7.9785  -17.3986   20.4172 N   0  0  0  0  0  0  0  0  0  0  0  0
    8.8513  -16.5853   21.1960 C   0  0  1  0  0  0  0  0  0  0  0  0
    9.2516  -15.2902   20.5581 C   0  0  0  0  0  0  0  0  0  0  0  0
    8.2796  -14.7691   19.5634 C   0  0  0  0  0  0  0  0  0  0  0  0
    8.7778  -13.5821   18.8064 C   0  0  0  0  0  0  0  0  0  0  0  0
    7.7671  -13.1281   17.7851 C   0  0  0  0  0  0  0  0  0  0  0  0
    8.3778  -12.0632   16.9834 N   0  0  0  0  0  0  0  0  0  0  0  0
    8.2893  -16.2523   22.5375 C   0  0  0  0  0  0  0  0  0  0  0  0
    7.2959  -15.4747   22.6170 O   0  0  0  0  0  0  0  0  0  0  0  0
    6.0252  -17.4881   23.4979 N   0  0  0  0  0  0  0  0  0  0  0  0
    6.4116  -18.2868   24.6094 C   0  0  0  0  0  0  0  0  0  0  0  0
    5.7597  -19.3073   24.8456 O   0  0  0  0  0  0  0  0  0  0  0  0
    7.5511  -17.8503   25.3979 C   0  0  0  0  0  0  0  0  0  0  0  0
    8.2249  -16.5763   25.0362 C   0  0  2  0  0  0  0  0  0  0  0  0
    8.8395  -16.7835   23.7041 N   0  0  0  0  0  0  0  0  0  0  0  0
    9.2401  -16.0654   25.9384 C   0  0  0  0  0  0  0  0  0  0  0  0
   10.4560  -16.3106   25.5697 O   0  0  0  0  0  0  0  0  0  0  0  0
    9.1468  -15.3524   27.1434 N   0  0  0  0  0  0  0  0  0  0  0  0
    8.0932  -14.8234   27.9455 C   0  0  0  0  0  0  0  0  0  0  0  0
    8.5875  -13.3791   28.1216 C   0  0  0  0  0  0  0  0  0  0  0  0
   10.0905  -13.5230   28.2077 C   0  0  0  0  0  0  0  0  0  0  0  0
   10.3593  -14.9661   27.9045 C   0  0  1  0  0  0  0  0  0  0  0  0
   10.4636  -15.7564   29.1288 C   0  0  0  0  0  0  0  0  0  0  0  0
   11.4795  -15.6656   30.0721 O   0  0  0  0  0  0  0  0  0  0  0  0
    9.5563  -16.6174   29.3900 O   0  0  0  0  0  0  0  0  0  0  0  0
  2  1  1  6
  3  2  1  0
  4  3  1  0
  5  4  1  0
  5  6  1  0
  7  6  1  0
  8  9  2  0
  8  2  1  0
 10 11  1  0
 11 13  1  0
 12 11  2  0
 14 13  1  1
 14 15  1  0
 15  8  1  0
 16 14  1  0
 17 16  2  0
 18 19  1  0
 18 16  1  0
 20 19  1  0
 21 20  1  0
 22 21  1  0
 22 18  1  0
 22 23  1  1
 24 23  1  0
 25 23  2  0
M  END
$$$$
