KNP.pdb
     RDKit          3D

 25 25  0  0  1  0  0  0  0  0999 V2000
   10.2127  -20.2943   17.3110 N   0  0  0  0  0  0  0  0  0  0  0  0
   10.2225  -18.9710   17.8388 C   0  0  1  0  0  0  0  0  0  0  0  0
    8.9394  -18.2140   17.6807 C   0  0  0  0  0  0  0  0  0  0  0  0
    7.8301  -19.0026   17.0859 C   0  0  0  0  0  0  0  0  0  0  0  0
    7.0054  -18.2308   16.1091 C   0  0  0  0  0  0  0  0  0  0  0  0
    5.8692  -19.0675   15.5798 C   0  0  0  0  0  0  0  0  0  0  0  0
    5.0425  -18.2177   14.7172 N   0  0  0  0  0  0  0  0  0  0  0  0
   10.5754  -18.9280   19.2879 C   0  0  0  0  0  0  0  0  0  0  0  0
   10.1575  -19.8421   20.0543 O   0  0  0  0  0  0  0  0  0  0  0  0
   14.9196  -17.3647   19.4425 N   0  0  0  0  0  0  0  0  0  0  0  0
   14.2358  -18.0570   20.4797 C   0  0  0  0  0  0  0  0  0  0  0  0
   14.5555  -19.2271   20.7055 O   0  0  0  0  0  0  0  0  0  0  0  0
   13.2026  -17.3421   21.2092 C   0  0  0  0  0  0  0  0  0  0  0  0
   11.8226  -17.8929   21.2181 C   0  0  2  0  0  0  0  0  0  0  0  0
   11.3578  -17.8986   19.8113 N   0  0  0  0  0  0  0  0  0  0  0  0
   10.8275  -17.2176   22.0302 C   0  0  0  0  0  0  0  0  0  0  0  0
    9.9203  -16.5906   21.3532 O   0  0  0  0  0  0  0  0  0  0  0  0
   10.6670  -17.1170   23.4205 N   0  0  0  0  0  0  0  0  0  0  0  0
   11.3832  -17.5575   24.5722 C   0  0  0  0  0  0  0  0  0  0  0  0
   10.2480  -18.2406   25.3507 C   0  0  0  0  0  0  0  0  0  0  0  0
    9.0399  -17.3823   25.0491 C   0  0  0  0  0  0  0  0  0  0  0  0
    9.5074  -16.4066   24.0117 C   0  0  1  0  0  0  0  0  0  0  0  0
    9.9377  -15.1496   24.6191 C   0  0  0  0  0  0  0  0  0  0  0  0
    9.1015  -14.1525   25.1056 O   0  0  0  0  0  0  0  0  0  0  0  0
   11.1881  -14.9117   24.7317 O   0  0  0  0  0  0  0  0  0  0  0  0
  2  1  1  1
  3  2  1  0
  4  3  1  0
  5  4  1  0
  5  6  1  0
  7  6  1  0
  8  9  2  0
  8  2  1  0
 10 11  1  0
 11 13  1  0
 12 11  2  0
 14 13  1  6
 14 15  1  0
 15  8  1  0
 16 14  1  0
 17 16  2  0
 18 19  1  0
 18 16  1  0
 20 19  1  0
 21 20  1  0
 22 21  1  0
 22 18  1  0
 22 23  1  1
 24 23  1  0
 25 23  2  0
M  END
$$$$
