KNP.pdb
     RDKit          3D

 25 25  0  0  1  0  0  0  0  0999 V2000
    6.7691  -15.9209   19.4170 N   0  0  0  0  0  0  0  0  0  0  0  0
    7.4048  -15.0638   20.3609 C   0  0  1  0  0  0  0  0  0  0  0  0
    7.2724  -13.5984   20.0790 C   0  0  0  0  0  0  0  0  0  0  0  0
    8.1337  -13.1051   18.9741 C   0  0  0  0  0  0  0  0  0  0  0  0
    7.9455  -13.8482   17.6926 C   0  0  0  0  0  0  0  0  0  0  0  0
    8.9155  -13.3709   16.6426 C   0  0  0  0  0  0  0  0  0  0  0  0
    8.7508  -14.2144   15.4547 N   0  0  0  0  0  0  0  0  0  0  0  0
    6.9244  -15.2819   21.7566 C   0  0  0  0  0  0  0  0  0  0  0  0
    5.6820  -15.3428   21.9814 O   0  0  0  0  0  0  0  0  0  0  0  0
    6.9175  -17.2719   26.5752 N   0  0  0  0  0  0  0  0  0  0  0  0
    7.1358  -18.0458   25.4021 C   0  0  0  0  0  0  0  0  0  0  0  0
    7.0849  -19.2747   25.4996 O   0  0  0  0  0  0  0  0  0  0  0  0
    7.4053  -17.3400   24.1613 C   0  0  0  0  0  0  0  0  0  0  0  0
    7.3912  -15.8541   24.1664 C   0  0  2  0  0  0  0  0  0  0  0  0
    7.8207  -15.4200   22.8166 N   0  0  0  0  0  0  0  0  0  0  0  0
    8.2078  -15.1710   25.1525 C   0  0  0  0  0  0  0  0  0  0  0  0
    9.4574  -15.0667   24.8327 O   0  0  0  0  0  0  0  0  0  0  0  0
    7.8919  -14.6011   26.3952 N   0  0  0  0  0  0  0  0  0  0  0  0
    6.7243  -14.4851   27.2056 C   0  0  0  0  0  0  0  0  0  0  0  0
    6.7335  -12.9726   27.4765 C   0  0  0  0  0  0  0  0  0  0  0  0
    8.2041  -12.6369   27.5845 C   0  0  0  0  0  0  0  0  0  0  0  0
    8.9182  -13.8982   27.2023 C   0  0  1  0  0  0  0  0  0  0  0  0
    9.2678  -14.6892   28.3797 C   0  0  0  0  0  0  0  0  0  0  0  0
   10.1883  -14.3313   29.3568 O   0  0  0  0  0  0  0  0  0  0  0  0
    8.6945  -15.8166   28.5616 O   0  0  0  0  0  0  0  0  0  0  0  0
  2  1  1  6
  3  2  1  0
  4  3  1  0
  5  4  1  0
  5  6  1  0
  7  6  1  0
  8  9  2  0
  8  2  1  0
 10 11  1  0
 11 13  1  0
 12 11  2  0
 14 13  1  6
 14 15  1  0
 15  8  1  0
 16 14  1  0
 17 16  2  0
 18 19  1  0
 18 16  1  0
 20 19  1  0
 21 20  1  0
 22 21  1  0
 22 18  1  0
 22 23  1  1
 24 23  1  0
 25 23  2  0
M  END
$$$$
