KNP.pdb
     RDKit          3D

 25 25  0  0  1  0  0  0  0  0999 V2000
    6.0819  -15.6533   19.8398 N   0  0  0  0  0  0  0  0  0  0  0  0
    7.1118  -15.2070   20.7173 C   0  0  1  0  0  0  0  0  0  0  0  0
    7.4103  -13.7404   20.6532 C   0  0  0  0  0  0  0  0  0  0  0  0
    7.7755  -13.2462   19.3010 C   0  0  0  0  0  0  0  0  0  0  0  0
    9.1339  -13.6765   18.8544 C   0  0  0  0  0  0  0  0  0  0  0  0
    9.4585  -13.1177   17.4931 C   0  0  0  0  0  0  0  0  0  0  0  0
   10.7541  -13.6623   17.0753 N   0  0  0  0  0  0  0  0  0  0  0  0
    6.8352  -15.5311   22.1472 C   0  0  0  0  0  0  0  0  0  0  0  0
    5.6594  -15.4061   22.5942 O   0  0  0  0  0  0  0  0  0  0  0  0
    6.2537  -19.1810   26.0928 N   0  0  0  0  0  0  0  0  0  0  0  0
    7.3564  -18.3061   25.8897 C   0  0  0  0  0  0  0  0  0  0  0  0
    8.1021  -18.0802   26.8464 O   0  0  0  0  0  0  0  0  0  0  0  0
    7.5358  -17.7326   24.5670 C   0  0  0  0  0  0  0  0  0  0  0  0
    7.6125  -16.2547   24.4330 C   0  0  2  0  0  0  0  0  0  0  0  0
    7.8495  -15.9695   22.9986 N   0  0  0  0  0  0  0  0  0  0  0  0
    8.6138  -15.5533   25.2147 C   0  0  0  0  0  0  0  0  0  0  0  0
    9.8060  -15.5892   24.7128 O   0  0  0  0  0  0  0  0  0  0  0  0
    8.5284  -14.8410   26.4206 N   0  0  0  0  0  0  0  0  0  0  0  0
    7.4886  -14.4680   27.3224 C   0  0  0  0  0  0  0  0  0  0  0  0
    7.7645  -12.9612   27.4437 C   0  0  0  0  0  0  0  0  0  0  0  0
    9.2726  -12.8670   27.3795 C   0  0  0  0  0  0  0  0  0  0  0  0
    9.7339  -14.2559   27.0555 C   0  0  1  0  0  0  0  0  0  0  0  0
   10.0809  -14.9969   28.2657 C   0  0  0  0  0  0  0  0  0  0  0  0
    9.4415  -16.1386   28.7326 O   0  0  0  0  0  0  0  0  0  0  0  0
   11.0559  -14.5892   28.9840 O   0  0  0  0  0  0  0  0  0  0  0  0
  2  1  1  6
  3  2  1  0
  4  3  1  0
  5  4  1  0
  5  6  1  0
  7  6  1  0
  8  9  2  0
  8  2  1  0
 10 11  1  0
 11 13  1  0
 12 11  2  0
 14 13  1  6
 14 15  1  0
 15  8  1  0
 16 14  1  0
 17 16  2  0
 18 19  1  0
 18 16  1  0
 20 19  1  0
 21 20  1  0
 22 21  1  0
 22 18  1  0
 22 23  1  1
 24 23  1  0
 25 23  2  0
M  END
$$$$
