KNP.pdb
     RDKit          3D

 25 25  0  0  1  0  0  0  0  0999 V2000
    6.4880  -17.1716   19.8263 N   0  0  0  0  0  0  0  0  0  0  0  0
    7.5356  -16.8540   20.7382 C   0  0  1  0  0  0  0  0  0  0  0  0
    8.3802  -15.6787   20.3518 C   0  0  0  0  0  0  0  0  0  0  0  0
    7.6233  -14.5464   19.7593 C   0  0  0  0  0  0  0  0  0  0  0  0
    8.4845  -13.3892   19.3729 C   0  0  0  0  0  0  0  0  0  0  0  0
    7.6568  -12.2621   18.8113 C   0  0  0  0  0  0  0  0  0  0  0  0
    8.5635  -11.1671   18.4528 N   0  0  0  0  0  0  0  0  0  0  0  0
    7.0405  -16.5959   22.1219 C   0  0  0  0  0  0  0  0  0  0  0  0
    5.8145  -16.3483   22.3047 O   0  0  0  0  0  0  0  0  0  0  0  0
    6.7495  -17.2861   27.2916 N   0  0  0  0  0  0  0  0  0  0  0  0
    6.9428  -18.3696   26.3908 C   0  0  0  0  0  0  0  0  0  0  0  0
    6.7832  -19.5158   26.8187 O   0  0  0  0  0  0  0  0  0  0  0  0
    7.3165  -18.0583   25.0218 C   0  0  0  0  0  0  0  0  0  0  0  0
    7.4147  -16.6328   24.6141 C   0  0  2  0  0  0  0  0  0  0  0  0
    7.9052  -16.6232   23.2161 N   0  0  0  0  0  0  0  0  0  0  0  0
    8.2588  -15.7571   25.4055 C   0  0  0  0  0  0  0  0  0  0  0  0
    9.5046  -15.7553   25.0556 O   0  0  0  0  0  0  0  0  0  0  0  0
    7.9729  -14.9087   26.4860 N   0  0  0  0  0  0  0  0  0  0  0  0
    6.8257  -14.6003   27.2749 C   0  0  0  0  0  0  0  0  0  0  0  0
    6.8383  -13.0666   27.1808 C   0  0  0  0  0  0  0  0  0  0  0  0
    8.3104  -12.7205   27.1699 C   0  0  0  0  0  0  0  0  0  0  0  0
    9.0175  -14.0391   27.0786 C   0  0  1  0  0  0  0  0  0  0  0  0
    9.3982  -14.5312   28.4004 C   0  0  0  0  0  0  0  0  0  0  0  0
   10.3131  -13.9342   29.2587 O   0  0  0  0  0  0  0  0  0  0  0  0
    8.8609  -15.6035   28.8410 O   0  0  0  0  0  0  0  0  0  0  0  0
  2  1  1  6
  3  2  1  0
  4  3  1  0
  5  4  1  0
  5  6  1  0
  7  6  1  0
  8  9  2  0
  8  2  1  0
 10 11  1  0
 11 13  1  0
 12 11  2  0
 14 13  1  1
 14 15  1  0
 15  8  1  0
 16 14  1  0
 17 16  2  0
 18 19  1  0
 18 16  1  0
 20 19  1  0
 21 20  1  0
 22 21  1  0
 22 18  1  0
 22 23  1  1
 24 23  1  0
 25 23  2  0
M  END
$$$$
