KNP.pdb
     RDKit          3D

 25 25  0  0  1  0  0  0  0  0999 V2000
    9.0535  -13.5825   18.6764 N   0  0  0  0  0  0  0  0  0  0  0  0
    9.2982  -14.5387   19.7039 C   0  0  1  0  0  0  0  0  0  0  0  0
   10.7174  -14.6136   20.1777 C   0  0  0  0  0  0  0  0  0  0  0  0
   11.7267  -14.2304   19.1577 C   0  0  0  0  0  0  0  0  0  0  0  0
   13.1366  -14.4284   19.6085 C   0  0  0  0  0  0  0  0  0  0  0  0
   14.1106  -14.0422   18.5254 C   0  0  0  0  0  0  0  0  0  0  0  0
   15.4678  -14.2002   19.0571 N   0  0  0  0  0  0  0  0  0  0  0  0
    8.4489  -14.3216   20.9113 C   0  0  0  0  0  0  0  0  0  0  0  0
    8.0838  -13.1486   21.2087 O   0  0  0  0  0  0  0  0  0  0  0  0
    5.3580  -15.8042   20.9352 N   0  0  0  0  0  0  0  0  0  0  0  0
    5.4130  -16.6789   22.0553 C   0  0  0  0  0  0  0  0  0  0  0  0
    4.6293  -17.6313   22.0871 O   0  0  0  0  0  0  0  0  0  0  0  0
    6.3897  -16.3957   23.0928 C   0  0  0  0  0  0  0  0  0  0  0  0
    7.2553  -15.1962   22.9516 C   0  0  2  0  0  0  0  0  0  0  0  0
    8.0507  -15.3888   21.7166 N   0  0  0  0  0  0  0  0  0  0  0  0
    8.1619  -14.8815   24.0400 C   0  0  0  0  0  0  0  0  0  0  0  0
    9.4021  -15.1635   23.8018 O   0  0  0  0  0  0  0  0  0  0  0  0
    7.9413  -14.3265   25.3098 N   0  0  0  0  0  0  0  0  0  0  0  0
    6.8093  -13.8822   26.0546 C   0  0  0  0  0  0  0  0  0  0  0  0
    7.2913  -12.4831   26.4686 C   0  0  0  0  0  0  0  0  0  0  0  0
    8.7746  -12.6686   26.6979 C   0  0  0  0  0  0  0  0  0  0  0  0
    9.0651  -14.0665   26.2416 C   0  0  1  0  0  0  0  0  0  0  0  0
    9.0281  -15.0089   27.3573 C   0  0  0  0  0  0  0  0  0  0  0  0
    8.1443  -16.0718   27.4960 O   0  0  0  0  0  0  0  0  0  0  0  0
    9.8703  -14.8760   28.3090 O   0  0  0  0  0  0  0  0  0  0  0  0
  2  1  1  6
  3  2  1  0
  4  3  1  0
  5  4  1  0
  5  6  1  0
  7  6  1  0
  8  9  2  0
  8  2  1  0
 10 11  1  0
 11 13  1  0
 12 11  2  0
 14 13  1  1
 14 15  1  0
 15  8  1  0
 16 14  1  0
 17 16  2  0
 18 19  1  0
 18 16  1  0
 20 19  1  0
 21 20  1  0
 22 21  1  0
 22 18  1  0
 22 23  1  1
 24 23  1  0
 25 23  2  0
M  END
$$$$
