WGN.pdb
     RDKit          3D

 27 28  0  0  1  0  0  0  0  0999 V2000
    6.6957  -17.0185   22.7764 N   0  0  0  0  0  0  0  0  0  0  0  0
    7.5795  -15.8673   22.7093 C   0  0  1  0  0  0  0  0  0  0  0  0
    8.2741  -15.6775   24.0445 C   0  0  0  0  0  0  0  0  0  0  0  0
    7.3181  -15.0021   24.9720 C   0  0  0  0  0  0  0  0  0  0  0  0
    6.3016  -15.5975   25.6612 C   0  0  0  0  0  0  0  0  0  0  0  0
    5.6426  -14.6768   26.3954 N   0  0  0  0  0  0  0  0  0  0  0  0
    6.2345  -13.4776   26.1823 C   0  0  0  0  0  0  0  0  0  0  0  0
    6.0104  -12.2026   26.6451 C   0  0  0  0  0  0  0  0  0  0  0  0
    6.8091  -11.1539   26.2328 C   0  0  0  0  0  0  0  0  0  0  0  0
    7.8574  -11.3544   25.3435 C   0  0  0  0  0  0  0  0  0  0  0  0
    8.0776  -12.6281   24.8840 C   0  0  0  0  0  0  0  0  0  0  0  0
    7.2779  -13.6543   25.3018 C   0  0  0  0  0  0  0  0  0  0  0  0
    8.6565  -16.1133   21.6994 C   0  0  0  0  0  0  0  0  0  0  0  0
    8.3928  -16.1712   20.4651 O   0  0  0  0  0  0  0  0  0  0  0  0
    9.9947  -16.2830   22.1463 N   0  0  0  0  0  0  0  0  0  0  0  0
   11.1116  -16.2962   21.2620 C   0  0  0  0  0  0  0  0  0  0  0  0
   12.4249  -16.5375   21.9772 C   0  0  0  0  0  0  0  0  0  0  0  0
   13.4908  -16.3526   21.2997 O   0  0  0  0  0  0  0  0  0  0  0  0
   10.7970  -18.1693   26.3252 N   0  0  0  0  0  0  0  0  0  0  0  0
   12.1087  -17.7248   26.0431 C   0  0  0  0  0  0  0  0  0  0  0  0
   12.5022  -16.6405   26.5361 O   0  0  0  0  0  0  0  0  0  0  0  0
   12.9620  -18.5369   25.1893 C   0  0  0  0  0  0  0  0  0  0  0  0
   13.4037  -17.9080   23.8991 C   0  0  2  0  0  0  0  0  0  0  0  0
   12.5249  -16.9442   23.3036 N   0  0  0  0  0  0  0  0  0  0  0  0
   13.8637  -18.9085   22.9357 C   0  0  0  0  0  0  0  0  0  0  0  0
   13.0554  -19.3827   21.9024 O   0  0  0  0  0  0  0  0  0  0  0  0
   15.0297  -19.4000   22.9911 O   0  0  0  0  0  0  0  0  0  0  0  0
  2  1  1  1
  3  4  1  0
  3  2  1  0
  4  5  2  0
  5  6  1  0
  7  6  1  0
  8  7  2  0
  9  8  1  0
 10 11  1  0
 10  9  2  0
 11 12  2  0
 12  4  1  0
 12  7  1  0
 13  2  1  0
 13 15  1  0
 14 13  2  0
 16 15  1  0
 17 16  1  0
 18 17  2  0
 19 20  1  0
 20 21  2  0
 22 20  1  0
 23 24  1  0
 23 22  1  1
 24 17  1  0
 25 23  1  0
 26 25  1  0
 27 25  2  0
M  END
$$$$
