WGN.pdb
     RDKit          3D

 27 28  0  0  1  0  0  0  0  0999 V2000
    7.1449  -17.7735   24.3880 N   0  0  0  0  0  0  0  0  0  0  0  0
    7.6754  -16.7334   23.5232 C   0  0  1  0  0  0  0  0  0  0  0  0
    8.3716  -15.6776   24.3612 C   0  0  0  0  0  0  0  0  0  0  0  0
    7.3534  -15.0508   25.2559 C   0  0  0  0  0  0  0  0  0  0  0  0
    6.3470  -15.6963   25.9141 C   0  0  0  0  0  0  0  0  0  0  0  0
    5.6189  -14.8094   26.6242 N   0  0  0  0  0  0  0  0  0  0  0  0
    6.1555  -13.5819   26.4267 C   0  0  0  0  0  0  0  0  0  0  0  0
    5.8522  -12.3193   26.8784 C   0  0  0  0  0  0  0  0  0  0  0  0
    6.6092  -11.2318   26.4887 C   0  0  0  0  0  0  0  0  0  0  0  0
    7.6942  -11.3798   25.6338 C   0  0  0  0  0  0  0  0  0  0  0  0
    7.9935  -12.6412   25.1852 C   0  0  0  0  0  0  0  0  0  0  0  0
    7.2341  -13.7063   25.5803 C   0  0  0  0  0  0  0  0  0  0  0  0
    8.7153  -17.3110   22.6149 C   0  0  0  0  0  0  0  0  0  0  0  0
    9.2646  -18.4191   22.8730 O   0  0  0  0  0  0  0  0  0  0  0  0
    9.0837  -16.5936   21.4448 N   0  0  0  0  0  0  0  0  0  0  0  0
    9.9823  -17.1120   20.4683 C   0  0  0  0  0  0  0  0  0  0  0  0
   11.4187  -17.1418   20.9482 C   0  0  0  0  0  0  0  0  0  0  0  0
   12.2788  -17.6537   20.1561 O   0  0  0  0  0  0  0  0  0  0  0  0
   15.5276  -16.8430   20.8458 N   0  0  0  0  0  0  0  0  0  0  0  0
   14.7287  -15.7533   21.2604 C   0  0  0  0  0  0  0  0  0  0  0  0
   14.5436  -14.7991   20.4674 O   0  0  0  0  0  0  0  0  0  0  0  0
   14.1465  -15.7705   22.5935 C   0  0  0  0  0  0  0  0  0  0  0  0
   13.0965  -16.8138   22.8474 C   0  0  2  0  0  0  0  0  0  0  0  0
   11.8369  -16.6535   22.1816 N   0  0  0  0  0  0  0  0  0  0  0  0
   12.9377  -17.0894   24.2755 C   0  0  0  0  0  0  0  0  0  0  0  0
   11.7001  -17.0361   24.9170 O   0  0  0  0  0  0  0  0  0  0  0  0
   13.9244  -17.3929   25.0093 O   0  0  0  0  0  0  0  0  0  0  0  0
  2  1  1  1
  3  4  1  0
  3  2  1  0
  4  5  2  0
  5  6  1  0
  7  6  1  0
  8  7  2  0
  9  8  1  0
 10 11  1  0
 10  9  2  0
 11 12  2  0
 12  4  1  0
 12  7  1  0
 13  2  1  0
 13 15  1  0
 14 13  2  0
 16 15  1  0
 17 16  1  0
 18 17  2  0
 19 20  1  0
 20 21  2  0
 22 20  1  0
 23 24  1  0
 23 22  1  1
 24 17  1  0
 25 23  1  0
 26 25  1  0
 27 25  2  0
M  END
$$$$
