WGN.pdb
     RDKit          3D

 27 28  0  0  1  0  0  0  0  0999 V2000
    8.5571  -16.5715   23.8374 N   0  0  0  0  0  0  0  0  0  0  0  0
    7.7339  -16.2944   22.6726 C   0  0  1  0  0  0  0  0  0  0  0  0
    6.7363  -15.1995   23.0002 C   0  0  0  0  0  0  0  0  0  0  0  0
    6.8091  -14.9306   24.4675 C   0  0  0  0  0  0  0  0  0  0  0  0
    6.7428  -15.8597   25.4650 C   0  0  0  0  0  0  0  0  0  0  0  0
    6.8364  -15.2521   26.6663 N   0  0  0  0  0  0  0  0  0  0  0  0
    6.9647  -13.9219   26.4478 C   0  0  0  0  0  0  0  0  0  0  0  0
    7.0983  -12.8248   27.2655 C   0  0  0  0  0  0  0  0  0  0  0  0
    7.2122  -11.5572   26.7291 C   0  0  0  0  0  0  0  0  0  0  0  0
    7.1959  -11.3533   25.3550 C   0  0  0  0  0  0  0  0  0  0  0  0
    7.0623  -12.4505   24.5425 C   0  0  0  0  0  0  0  0  0  0  0  0
    6.9505  -13.6977   25.0895 C   0  0  0  0  0  0  0  0  0  0  0  0
    8.5889  -15.7736   21.5600 C   0  0  0  0  0  0  0  0  0  0  0  0
    8.0908  -15.4808   20.4364 O   0  0  0  0  0  0  0  0  0  0  0  0
    9.9829  -15.6088   21.7812 N   0  0  0  0  0  0  0  0  0  0  0  0
   10.9741  -16.1145   20.8915 C   0  0  0  0  0  0  0  0  0  0  0  0
   12.3742  -15.6637   21.2537 C   0  0  0  0  0  0  0  0  0  0  0  0
   13.2454  -15.6889   20.3211 O   0  0  0  0  0  0  0  0  0  0  0  0
   13.1368  -17.1950   26.4208 N   0  0  0  0  0  0  0  0  0  0  0  0
   12.6147  -17.8551   25.2853 C   0  0  0  0  0  0  0  0  0  0  0  0
   12.5376  -19.1071   25.2921 O   0  0  0  0  0  0  0  0  0  0  0  0
   12.1837  -17.0635   24.1433 C   0  0  0  0  0  0  0  0  0  0  0  0
   13.1395  -16.0074   23.6673 C   0  0  2  0  0  0  0  0  0  0  0  0
   12.7498  -15.2366   22.5230 N   0  0  0  0  0  0  0  0  0  0  0  0
   14.5043  -16.5216   23.5508 C   0  0  0  0  0  0  0  0  0  0  0  0
   14.8504  -17.5360   22.6579 O   0  0  0  0  0  0  0  0  0  0  0  0
   15.4500  -16.0684   24.2610 O   0  0  0  0  0  0  0  0  0  0  0  0
  2  1  1  1
  3  4  1  0
  3  2  1  0
  4  5  2  0
  5  6  1  0
  7  6  1  0
  8  7  2  0
  9  8  1  0
 10 11  1  0
 10  9  2  0
 11 12  2  0
 12  4  1  0
 12  7  1  0
 13  2  1  0
 13 15  1  0
 14 13  2  0
 16 15  1  0
 17 16  1  0
 18 17  2  0
 19 20  1  0
 20 21  2  0
 22 20  1  0
 23 24  1  0
 23 22  1  6
 24 17  1  0
 25 23  1  0
 26 25  1  0
 27 25  2  0
M  END
$$$$
