WGN.pdb
     RDKit          3D

 27 28  0  0  1  0  0  0  0  0999 V2000
    6.9923  -17.1885   23.4657 N   0  0  0  0  0  0  0  0  0  0  0  0
    8.0955  -16.3049   23.1294 C   0  0  1  0  0  0  0  0  0  0  0  0
    8.6971  -15.7322   24.3988 C   0  0  0  0  0  0  0  0  0  0  0  0
    7.6233  -14.9936   25.1280 C   0  0  0  0  0  0  0  0  0  0  0  0
    6.5226  -15.5417   25.7202 C   0  0  0  0  0  0  0  0  0  0  0  0
    5.7693  -14.5710   26.2783 N   0  0  0  0  0  0  0  0  0  0  0  0
    6.3842  -13.3868   26.0479 C   0  0  0  0  0  0  0  0  0  0  0  0
    6.0987  -12.0805   26.3675 C   0  0  0  0  0  0  0  0  0  0  0  0
    6.9457  -11.0603   25.9811 C   0  0  0  0  0  0  0  0  0  0  0  0
    8.1056  -11.3215   25.2624 C   0  0  0  0  0  0  0  0  0  0  0  0
    8.3869  -12.6262   24.9454 C   0  0  0  0  0  0  0  0  0  0  0  0
    7.5380  -13.6236   25.3352 C   0  0  0  0  0  0  0  0  0  0  0  0
    9.1818  -17.0840   22.4563 C   0  0  0  0  0  0  0  0  0  0  0  0
    9.8973  -17.8995   23.1038 O   0  0  0  0  0  0  0  0  0  0  0  0
    9.4041  -16.8964   21.0653 N   0  0  0  0  0  0  0  0  0  0  0  0
   10.2617  -15.8837   20.5469 C   0  0  0  0  0  0  0  0  0  0  0  0
   11.6616  -15.9478   21.1219 C   0  0  0  0  0  0  0  0  0  0  0  0
   12.5146  -15.1230   20.6512 O   0  0  0  0  0  0  0  0  0  0  0  0
   12.8622  -15.5419   25.0361 N   0  0  0  0  0  0  0  0  0  0  0  0
   13.0753  -16.9296   25.1989 C   0  0  0  0  0  0  0  0  0  0  0  0
   12.9838  -17.4280   26.3464 O   0  0  0  0  0  0  0  0  0  0  0  0
   13.3953  -17.7374   24.0320 C   0  0  0  0  0  0  0  0  0  0  0  0
   13.3465  -17.0369   22.7045 C   0  0  2  0  0  0  0  0  0  0  0  0
   12.0557  -16.8420   22.1118 N   0  0  0  0  0  0  0  0  0  0  0  0
   14.3122  -17.5964   21.7584 C   0  0  0  0  0  0  0  0  0  0  0  0
   15.5805  -17.0477   21.5679 O   0  0  0  0  0  0  0  0  0  0  0  0
   14.0439  -18.6166   21.0574 O   0  0  0  0  0  0  0  0  0  0  0  0
  2  1  1  1
  3  4  1  0
  3  2  1  0
  4  5  2  0
  5  6  1  0
  7  6  1  0
  8  7  2  0
  9  8  1  0
 10 11  1  0
 10  9  2  0
 11 12  2  0
 12  4  1  0
 12  7  1  0
 13  2  1  0
 13 15  1  0
 14 13  2  0
 16 15  1  0
 17 16  1  0
 18 17  2  0
 19 20  1  0
 20 21  2  0
 22 20  1  0
 23 24  1  0
 23 22  1  1
 24 17  1  0
 25 23  1  0
 26 25  1  0
 27 25  2  0
M  END
$$$$
