WGN.pdb
     RDKit          3D

 27 28  0  0  1  0  0  0  0  0999 V2000
    6.1980  -17.3825   23.5808 N   0  0  0  0  0  0  0  0  0  0  0  0
    7.0258  -16.3198   23.0363 C   0  0  1  0  0  0  0  0  0  0  0  0
    7.9558  -15.7936   24.1131 C   0  0  0  0  0  0  0  0  0  0  0  0
    7.1410  -15.0024   25.0829 C   0  0  0  0  0  0  0  0  0  0  0  0
    6.2861  -15.5045   26.0208 C   0  0  0  0  0  0  0  0  0  0  0  0
    5.7190  -14.4949   26.7136 N   0  0  0  0  0  0  0  0  0  0  0  0
    6.2085  -13.3313   26.2235 C   0  0  0  0  0  0  0  0  0  0  0  0
    6.0065  -12.0048   26.5230 C   0  0  0  0  0  0  0  0  0  0  0  0
    6.6727  -11.0165   25.8251 C   0  0  0  0  0  0  0  0  0  0  0  0
    7.5624  -11.3309   24.8056 C   0  0  0  0  0  0  0  0  0  0  0  0
    7.7612  -12.6556   24.5097 C   0  0  0  0  0  0  0  0  0  0  0  0
    7.0938  -13.6208   25.2098 C   0  0  0  0  0  0  0  0  0  0  0  0
    7.8977  -16.8634   21.9480 C   0  0  0  0  0  0  0  0  0  0  0  0
    7.4204  -17.5898   21.0310 O   0  0  0  0  0  0  0  0  0  0  0  0
    9.2841  -16.5515   21.9550 N   0  0  0  0  0  0  0  0  0  0  0  0
   10.0523  -16.4075   20.7638 C   0  0  0  0  0  0  0  0  0  0  0  0
   11.4970  -16.0430   21.0365 C   0  0  0  0  0  0  0  0  0  0  0  0
   12.2418  -15.8451   20.0189 O   0  0  0  0  0  0  0  0  0  0  0  0
   10.8212  -17.5981   25.5232 N   0  0  0  0  0  0  0  0  0  0  0  0
   11.9268  -16.8314   25.0904 C   0  0  0  0  0  0  0  0  0  0  0  0
   12.0688  -15.6662   25.5329 O   0  0  0  0  0  0  0  0  0  0  0  0
   12.8656  -17.4156   24.1450 C   0  0  0  0  0  0  0  0  0  0  0  0
   13.1440  -16.6165   22.9042 C   0  0  2  0  0  0  0  0  0  0  0  0
   12.0407  -15.9192   22.3108 N   0  0  0  0  0  0  0  0  0  0  0  0
   13.9066  -17.3864   21.9211 C   0  0  0  0  0  0  0  0  0  0  0  0
   13.3487  -18.4397   21.1962 O   0  0  0  0  0  0  0  0  0  0  0  0
   15.1232  -17.1342   21.6757 O   0  0  0  0  0  0  0  0  0  0  0  0
  2  1  1  1
  3  4  1  0
  3  2  1  0
  4  5  2  0
  5  6  1  0
  7  6  1  0
  8  7  2  0
  9  8  1  0
 10 11  1  0
 10  9  2  0
 11 12  2  0
 12  4  1  0
 12  7  1  0
 13  2  1  0
 13 15  1  0
 14 13  2  0
 16 15  1  0
 17 16  1  0
 18 17  2  0
 19 20  1  0
 20 21  2  0
 22 20  1  0
 23 24  1  0
 23 22  1  1
 24 17  1  0
 25 23  1  0
 26 25  1  0
 27 25  2  0
M  END
$$$$
