WGN.pdb
     RDKit          3D

 27 28  0  0  1  0  0  0  0  0999 V2000
    7.3065  -17.4617   23.1256 N   0  0  0  0  0  0  0  0  0  0  0  0
    7.7134  -16.0740   23.2663 C   0  0  1  0  0  0  0  0  0  0  0  0
    8.2768  -15.8447   24.6560 C   0  0  0  0  0  0  0  0  0  0  0  0
    7.2542  -15.1046   25.4540 C   0  0  0  0  0  0  0  0  0  0  0  0
    6.1021  -15.6212   25.9719 C   0  0  0  0  0  0  0  0  0  0  0  0
    5.4210  -14.6590   26.6286 N   0  0  0  0  0  0  0  0  0  0  0  0
    6.1346  -13.5119   26.5371 C   0  0  0  0  0  0  0  0  0  0  0  0
    5.9513  -12.2297   26.9982 C   0  0  0  0  0  0  0  0  0  0  0  0
    6.8856  -11.2471   26.7354 C   0  0  0  0  0  0  0  0  0  0  0  0
    8.0327  -11.5228   26.0018 C   0  0  0  0  0  0  0  0  0  0  0  0
    8.2119  -12.8033   25.5435 C   0  0  0  0  0  0  0  0  0  0  0  0
    7.2776  -13.7635   25.8122 C   0  0  0  0  0  0  0  0  0  0  0  0
    8.8175  -15.7693   22.3028 C   0  0  0  0  0  0  0  0  0  0  0  0
    8.6142  -15.0518   21.2829 O   0  0  0  0  0  0  0  0  0  0  0  0
   10.1125  -16.3005   22.5482 N   0  0  0  0  0  0  0  0  0  0  0  0
   11.2560  -15.9427   21.7775 C   0  0  0  0  0  0  0  0  0  0  0  0
   12.5388  -16.5422   22.3158 C   0  0  0  0  0  0  0  0  0  0  0  0
   12.5652  -16.8194   23.5615 O   0  0  0  0  0  0  0  0  0  0  0  0
   14.8598  -14.2540   19.0184 N   0  0  0  0  0  0  0  0  0  0  0  0
   15.4574  -15.3906   19.6090 C   0  0  0  0  0  0  0  0  0  0  0  0
   15.7726  -16.3602   18.8783 O   0  0  0  0  0  0  0  0  0  0  0  0
   15.6878  -15.4022   21.0454 C   0  0  0  0  0  0  0  0  0  0  0  0
   15.0441  -16.5208   21.8133 C   0  0  2  0  0  0  0  0  0  0  0  0
   13.6641  -16.7967   21.5390 N   0  0  0  0  0  0  0  0  0  0  0  0
   15.3153  -16.4225   23.2477 C   0  0  0  0  0  0  0  0  0  0  0  0
   15.8315  -17.4859   23.9885 O   0  0  0  0  0  0  0  0  0  0  0  0
   15.0932  -15.3576   23.8963 O   0  0  0  0  0  0  0  0  0  0  0  0
  2  1  1  1
  3  4  1  0
  3  2  1  0
  4  5  2  0
  5  6  1  0
  7  6  1  0
  8  7  2  0
  9  8  1  0
 10 11  1  0
 10  9  2  0
 11 12  2  0
 12  4  1  0
 12  7  1  0
 13  2  1  0
 13 15  1  0
 14 13  2  0
 16 15  1  0
 17 16  1  0
 18 17  2  0
 19 20  1  0
 20 21  2  0
 22 20  1  0
 23 24  1  0
 23 22  1  6
 24 17  1  0
 25 23  1  0
 26 25  1  0
 27 25  2  0
M  END
$$$$
