WGN.pdb
     RDKit          3D

 27 28  0  0  1  0  0  0  0  0999 V2000
    7.6283  -16.8658   23.1984 N   0  0  0  0  0  0  0  0  0  0  0  0
    7.7806  -15.8003   22.2225 C   0  0  1  0  0  0  0  0  0  0  0  0
    8.0631  -14.4911   22.9349 C   0  0  0  0  0  0  0  0  0  0  0  0
    7.2988  -14.4876   24.2179 C   0  0  0  0  0  0  0  0  0  0  0  0
    6.5805  -15.5265   24.7350 C   0  0  0  0  0  0  0  0  0  0  0  0
    6.0187  -15.1594   25.9058 N   0  0  0  0  0  0  0  0  0  0  0  0
    6.3745  -13.8760   26.1505 C   0  0  0  0  0  0  0  0  0  0  0  0
    6.1133  -12.9858   27.1651 C   0  0  0  0  0  0  0  0  0  0  0  0
    6.6354  -11.7076   27.1315 C   0  0  0  0  0  0  0  0  0  0  0  0
    7.4362  -11.2851   26.0779 C   0  0  0  0  0  0  0  0  0  0  0  0
    7.6945  -12.1762   25.0674 C   0  0  0  0  0  0  0  0  0  0  0  0
    7.1698  -13.4370   25.1161 C   0  0  0  0  0  0  0  0  0  0  0  0
    8.9661  -16.0764   21.3515 C   0  0  0  0  0  0  0  0  0  0  0  0
    9.3873  -15.2138   20.5299 O   0  0  0  0  0  0  0  0  0  0  0  0
    9.6221  -17.3325   21.4580 N   0  0  0  0  0  0  0  0  0  0  0  0
   10.6826  -17.7290   20.5934 C   0  0  0  0  0  0  0  0  0  0  0  0
   12.0474  -17.5922   21.2362 C   0  0  0  0  0  0  0  0  0  0  0  0
   13.0592  -17.6988   20.4652 O   0  0  0  0  0  0  0  0  0  0  0  0
   12.4987  -15.0205   25.8499 N   0  0  0  0  0  0  0  0  0  0  0  0
   13.3680  -15.6116   24.9052 C   0  0  0  0  0  0  0  0  0  0  0  0
   14.0796  -14.8695   24.1865 O   0  0  0  0  0  0  0  0  0  0  0  0
   13.4106  -17.0615   24.7939 C   0  0  0  0  0  0  0  0  0  0  0  0
   13.4052  -17.6222   23.4007 C   0  0  2  0  0  0  0  0  0  0  0  0
   12.2486  -17.3646   22.5935 N   0  0  0  0  0  0  0  0  0  0  0  0
   13.7923  -19.0330   23.3806 C   0  0  0  0  0  0  0  0  0  0  0  0
   15.0894  -19.4511   23.0824 O   0  0  0  0  0  0  0  0  0  0  0  0
   12.9625  -19.9553   23.6349 O   0  0  0  0  0  0  0  0  0  0  0  0
  2  1  1  1
  3  4  1  0
  3  2  1  0
  4  5  2  0
  5  6  1  0
  7  6  1  0
  8  7  2  0
  9  8  1  0
 10 11  1  0
 10  9  2  0
 11 12  2  0
 12  4  1  0
 12  7  1  0
 13  2  1  0
 13 15  1  0
 14 13  2  0
 16 15  1  0
 17 16  1  0
 18 17  2  0
 19 20  1  0
 20 21  2  0
 22 20  1  0
 23 24  1  0
 23 22  1  1
 24 17  1  0
 25 23  1  0
 26 25  1  0
 27 25  2  0
M  END
$$$$
