WGN.pdb
     RDKit          3D

 27 28  0  0  1  0  0  0  0  0999 V2000
    7.5678  -17.5069   23.7998 N   0  0  0  0  0  0  0  0  0  0  0  0
    7.8932  -16.3211   23.0256 C   0  0  1  0  0  0  0  0  0  0  0  0
    8.5563  -15.2918   23.9213 C   0  0  0  0  0  0  0  0  0  0  0  0
    7.5217  -14.7555   24.8553 C   0  0  0  0  0  0  0  0  0  0  0  0
    6.5021  -15.4611   25.4255 C   0  0  0  0  0  0  0  0  0  0  0  0
    5.7615  -14.6484   26.2078 N   0  0  0  0  0  0  0  0  0  0  0  0
    6.3033  -13.4089   26.1458 C   0  0  0  0  0  0  0  0  0  0  0  0
    5.9929  -12.1976   26.7171 C   0  0  0  0  0  0  0  0  0  0  0  0
    6.7586  -11.0786   26.4541 C   0  0  0  0  0  0  0  0  0  0  0  0
    7.8597  -11.1427   25.6094 C   0  0  0  0  0  0  0  0  0  0  0  0
    8.1660  -12.3532   25.0412 C   0  0  0  0  0  0  0  0  0  0  0  0
    7.3978  -13.4504   25.3119 C   0  0  0  0  0  0  0  0  0  0  0  0
    8.8891  -16.6670   21.9633 C   0  0  0  0  0  0  0  0  0  0  0  0
    9.2199  -17.8665   21.7443 O   0  0  0  0  0  0  0  0  0  0  0  0
    9.4665  -15.6214   21.1932 N   0  0  0  0  0  0  0  0  0  0  0  0
   10.4568  -15.8499   20.1949 C   0  0  0  0  0  0  0  0  0  0  0  0
   11.8476  -16.0123   20.7728 C   0  0  0  0  0  0  0  0  0  0  0  0
   12.8212  -15.9694   19.9484 O   0  0  0  0  0  0  0  0  0  0  0  0
   11.6297  -17.4968   25.6407 N   0  0  0  0  0  0  0  0  0  0  0  0
   12.0344  -16.3450   24.9286 C   0  0  0  0  0  0  0  0  0  0  0  0
   11.2498  -15.3691   24.8550 O   0  0  0  0  0  0  0  0  0  0  0  0
   13.3472  -16.3263   24.3020 C   0  0  0  0  0  0  0  0  0  0  0  0
   13.3678  -16.3399   22.8004 C   0  0  2  0  0  0  0  0  0  0  0  0
   12.1104  -16.2044   22.1251 N   0  0  0  0  0  0  0  0  0  0  0  0
   14.1611  -17.4524   22.2773 C   0  0  0  0  0  0  0  0  0  0  0  0
   15.4949  -17.6552   22.6320 O   0  0  0  0  0  0  0  0  0  0  0  0
   13.6734  -18.2960   21.4681 O   0  0  0  0  0  0  0  0  0  0  0  0
  2  1  1  1
  3  4  1  0
  3  2  1  0
  4  5  2  0
  5  6  1  0
  7  6  1  0
  8  7  2  0
  9  8  1  0
 10 11  1  0
 10  9  2  0
 11 12  2  0
 12  4  1  0
 12  7  1  0
 13  2  1  0
 13 15  1  0
 14 13  2  0
 16 15  1  0
 17 16  1  0
 18 17  2  0
 19 20  1  0
 20 21  2  0
 22 20  1  0
 23 24  1  0
 23 22  1  1
 24 17  1  0
 25 23  1  0
 26 25  1  0
 27 25  2  0
M  END
$$$$
