WGN.pdb
     RDKit          3D

 27 28  0  0  1  0  0  0  0  0999 V2000
    8.1812  -17.2870   24.7656 N   0  0  0  0  0  0  0  0  0  0  0  0
    7.1155  -17.1102   23.7940 C   0  0  1  0  0  0  0  0  0  0  0  0
    6.2380  -15.9428   24.2043 C   0  0  0  0  0  0  0  0  0  0  0  0
    6.8215  -15.3359   25.4378 C   0  0  0  0  0  0  0  0  0  0  0  0
    7.5405  -15.9869   26.3981 C   0  0  0  0  0  0  0  0  0  0  0  0
    7.9008  -15.1213   27.3687 N   0  0  0  0  0  0  0  0  0  0  0  0
    7.4138  -13.9022   27.0368 C   0  0  0  0  0  0  0  0  0  0  0  0
    7.4599  -12.6596   27.6233 C   0  0  0  0  0  0  0  0  0  0  0  0
    6.8494  -11.5754   27.0239 C   0  0  0  0  0  0  0  0  0  0  0  0
    6.1744  -11.7065   25.8167 C   0  0  0  0  0  0  0  0  0  0  0  0
    6.1306  -12.9480   25.2347 C   0  0  0  0  0  0  0  0  0  0  0  0
    6.7397  -14.0102   25.8413 C   0  0  0  0  0  0  0  0  0  0  0  0
    7.6982  -16.7580   22.4611 C   0  0  0  0  0  0  0  0  0  0  0  0
    6.9613  -16.6079   21.4458 O   0  0  0  0  0  0  0  0  0  0  0  0
    9.1048  -16.5915   22.3460 N   0  0  0  0  0  0  0  0  0  0  0  0
    9.7088  -15.7599   21.3595 C   0  0  0  0  0  0  0  0  0  0  0  0
   11.2223  -15.8115   21.3938 C   0  0  0  0  0  0  0  0  0  0  0  0
   11.8419  -15.0589   20.5697 O   0  0  0  0  0  0  0  0  0  0  0  0
   13.0352  -15.4841   24.8981 N   0  0  0  0  0  0  0  0  0  0  0  0
   13.6230  -16.7694   24.9072 C   0  0  0  0  0  0  0  0  0  0  0  0
   13.9119  -17.2978   26.0076 O   0  0  0  0  0  0  0  0  0  0  0  0
   13.8760  -17.4401   23.6412 C   0  0  0  0  0  0  0  0  0  0  0  0
   13.3739  -16.7449   22.4083 C   0  0  2  0  0  0  0  0  0  0  0  0
   11.9536  -16.6215   22.2563 N   0  0  0  0  0  0  0  0  0  0  0  0
   14.0191  -17.2521   21.1970 C   0  0  0  0  0  0  0  0  0  0  0  0
   13.3412  -18.0224   20.2519 O   0  0  0  0  0  0  0  0  0  0  0  0
   15.2370  -17.0159   20.9420 O   0  0  0  0  0  0  0  0  0  0  0  0
  2  1  1  1
  3  4  1  0
  3  2  1  0
  4  5  2  0
  5  6  1  0
  7  6  1  0
  8  7  2  0
  9  8  1  0
 10 11  1  0
 10  9  2  0
 11 12  2  0
 12  4  1  0
 12  7  1  0
 13  2  1  0
 13 15  1  0
 14 13  2  0
 16 15  1  0
 17 16  1  0
 18 17  2  0
 19 20  1  0
 20 21  2  0
 22 20  1  0
 23 24  1  0
 23 22  1  1
 24 17  1  0
 25 23  1  0
 26 25  1  0
 27 25  2  0
M  END
$$$$
