WGN.pdb
     RDKit          3D

 27 28  0  0  1  0  0  0  0  0999 V2000
    7.4705  -17.1589   23.1487 N   0  0  0  0  0  0  0  0  0  0  0  0
    7.8322  -15.7894   22.8252 C   0  0  1  0  0  0  0  0  0  0  0  0
    8.4760  -15.1321   24.0314 C   0  0  0  0  0  0  0  0  0  0  0  0
    7.3933  -14.7690   24.9938 C   0  0  0  0  0  0  0  0  0  0  0  0
    6.4356  -15.6061   25.4884 C   0  0  0  0  0  0  0  0  0  0  0  0
    5.6227  -14.9303   26.3271 N   0  0  0  0  0  0  0  0  0  0  0  0
    6.0550  -13.6481   26.3778 C   0  0  0  0  0  0  0  0  0  0  0  0
    5.6371  -12.5215   27.0459 C   0  0  0  0  0  0  0  0  0  0  0  0
    6.3042  -11.3223   26.8890 C   0  0  0  0  0  0  0  0  0  0  0  0
    7.4115  -11.2187   26.0566 C   0  0  0  0  0  0  0  0  0  0  0  0
    7.8253  -12.3450   25.3916 C   0  0  0  0  0  0  0  0  0  0  0  0
    7.1538  -13.5234   25.5579 C   0  0  0  0  0  0  0  0  0  0  0  0
    8.8586  -15.7801   21.7358 C   0  0  0  0  0  0  0  0  0  0  0  0
    9.4208  -14.7067   21.3780 O   0  0  0  0  0  0  0  0  0  0  0  0
    9.1998  -17.0042   21.0998 N   0  0  0  0  0  0  0  0  0  0  0  0
   10.1792  -17.0958   20.0693 C   0  0  0  0  0  0  0  0  0  0  0  0
   11.3191  -18.0286   20.4229 C   0  0  0  0  0  0  0  0  0  0  0  0
   11.0838  -19.2805   20.3416 O   0  0  0  0  0  0  0  0  0  0  0  0
   15.6069  -16.2079   23.1704 N   0  0  0  0  0  0  0  0  0  0  0  0
   14.3151  -15.9831   23.6979 C   0  0  0  0  0  0  0  0  0  0  0  0
   14.2041  -15.5485   24.8694 O   0  0  0  0  0  0  0  0  0  0  0  0
   13.1538  -16.2633   22.8675 C   0  0  0  0  0  0  0  0  0  0  0  0
   13.1598  -17.5750   22.1363 C   0  0  2  0  0  0  0  0  0  0  0  0
   12.5793  -17.5989   20.8256 N   0  0  0  0  0  0  0  0  0  0  0  0
   12.6744  -18.6691   22.9778 C   0  0  0  0  0  0  0  0  0  0  0  0
   13.4123  -19.8327   23.1954 O   0  0  0  0  0  0  0  0  0  0  0  0
   11.5492  -18.6156   23.5567 O   0  0  0  0  0  0  0  0  0  0  0  0
  2  1  1  1
  3  4  1  0
  3  2  1  0
  4  5  2  0
  5  6  1  0
  7  6  1  0
  8  7  2  0
  9  8  1  0
 10 11  1  0
 10  9  2  0
 11 12  2  0
 12  4  1  0
 12  7  1  0
 13  2  1  0
 13 15  1  0
 14 13  2  0
 16 15  1  0
 17 16  1  0
 18 17  2  0
 19 20  1  0
 20 21  2  0
 22 20  1  0
 23 24  1  0
 23 22  1  1
 24 17  1  0
 25 23  1  0
 26 25  1  0
 27 25  2  0
M  END
$$$$
