WGN.pdb
     RDKit          3D

 27 28  0  0  1  0  0  0  0  0999 V2000
    8.5087  -17.7613   24.5904 N   0  0  0  0  0  0  0  0  0  0  0  0
    8.0024  -16.5502   23.9674 C   0  0  1  0  0  0  0  0  0  0  0  0
    8.5303  -15.3356   24.7073 C   0  0  0  0  0  0  0  0  0  0  0  0
    7.3990  -14.7316   25.4726 C   0  0  0  0  0  0  0  0  0  0  0  0
    6.3324  -15.3985   26.0021 C   0  0  0  0  0  0  0  0  0  0  0  0
    5.5066  -14.5284   26.6200 N   0  0  0  0  0  0  0  0  0  0  0  0
    6.0398  -13.2903   26.4917 C   0  0  0  0  0  0  0  0  0  0  0  0
    5.6599  -12.0355   26.9056 C   0  0  0  0  0  0  0  0  0  0  0  0
    6.4379  -10.9325   26.6132 C   0  0  0  0  0  0  0  0  0  0  0  0
    7.6215  -11.0566   25.8965 C   0  0  0  0  0  0  0  0  0  0  0  0
    7.9971  -12.3103   25.4852 C   0  0  0  0  0  0  0  0  0  0  0  0
    7.2156  -13.3909   25.7827 C   0  0  0  0  0  0  0  0  0  0  0  0
    8.5134  -16.4502   22.5642 C   0  0  0  0  0  0  0  0  0  0  0  0
    7.7942  -15.9759   21.6400 O   0  0  0  0  0  0  0  0  0  0  0  0
    9.8309  -16.8987   22.2769 N   0  0  0  0  0  0  0  0  0  0  0  0
   10.4437  -16.7376   21.0009 C   0  0  0  0  0  0  0  0  0  0  0  0
   11.8310  -17.3419   20.9345 C   0  0  0  0  0  0  0  0  0  0  0  0
   12.4126  -17.3226   19.7983 O   0  0  0  0  0  0  0  0  0  0  0  0
   16.1566  -15.6546   24.0353 N   0  0  0  0  0  0  0  0  0  0  0  0
   15.7505  -16.1003   22.7570 C   0  0  0  0  0  0  0  0  0  0  0  0
   16.6251  -16.3332   21.8884 O   0  0  0  0  0  0  0  0  0  0  0  0
   14.3316  -16.2744   22.4868 C   0  0  0  0  0  0  0  0  0  0  0  0
   13.8202  -17.6864   22.5010 C   0  0  2  0  0  0  0  0  0  0  0  0
   12.4864  -17.9066   22.0237 N   0  0  0  0  0  0  0  0  0  0  0  0
   14.0639  -18.3403   23.7870 C   0  0  0  0  0  0  0  0  0  0  0  0
   15.3416  -18.7011   24.2153 O   0  0  0  0  0  0  0  0  0  0  0  0
   13.1191  -18.6151   24.5843 O   0  0  0  0  0  0  0  0  0  0  0  0
  2  1  1  1
  3  4  1  0
  3  2  1  0
  4  5  2  0
  5  6  1  0
  7  6  1  0
  8  7  2  0
  9  8  1  0
 10 11  1  0
 10  9  2  0
 11 12  2  0
 12  4  1  0
 12  7  1  0
 13  2  1  0
 13 15  1  0
 14 13  2  0
 16 15  1  0
 17 16  1  0
 18 17  2  0
 19 20  1  0
 20 21  2  0
 22 20  1  0
 23 24  1  0
 23 22  1  1
 24 17  1  0
 25 23  1  0
 26 25  1  0
 27 25  2  0
M  END
$$$$
