WGN.pdb
     RDKit          3D

 27 28  0  0  1  0  0  0  0  0999 V2000
    8.5451  -16.0177   23.0984 N   0  0  0  0  0  0  0  0  0  0  0  0
    9.5839  -15.7085   24.0661 C   0  0  1  0  0  0  0  0  0  0  0  0
    9.0691  -15.9680   25.4693 C   0  0  0  0  0  0  0  0  0  0  0  0
    7.7620  -15.2617   25.6211 C   0  0  0  0  0  0  0  0  0  0  0  0
    6.5271  -15.8419   25.6510 C   0  0  0  0  0  0  0  0  0  0  0  0
    5.5771  -14.8942   25.7946 N   0  0  0  0  0  0  0  0  0  0  0  0
    6.1983  -13.6928   25.8588 C   0  0  0  0  0  0  0  0  0  0  0  0
    5.7645  -12.3959   26.0004 C   0  0  0  0  0  0  0  0  0  0  0  0
    6.6677  -11.3514   26.0333 C   0  0  0  0  0  0  0  0  0  0  0  0
    8.0340  -11.5782   25.9256 C   0  0  0  0  0  0  0  0  0  0  0  0
    8.4629  -12.8736   25.7843 C   0  0  0  0  0  0  0  0  0  0  0  0
    7.5559  -13.8952   25.7534 C   0  0  0  0  0  0  0  0  0  0  0  0
   10.7524  -16.6219   23.8647 C   0  0  0  0  0  0  0  0  0  0  0  0
   11.6831  -16.6885   24.7166 O   0  0  0  0  0  0  0  0  0  0  0  0
   10.8064  -17.4238   22.6928 N   0  0  0  0  0  0  0  0  0  0  0  0
   11.9647  -18.1592   22.3093 C   0  0  0  0  0  0  0  0  0  0  0  0
   13.2278  -17.3237   22.3384 C   0  0  0  0  0  0  0  0  0  0  0  0
   13.0973  -16.0761   22.1019 O   0  0  0  0  0  0  0  0  0  0  0  0
   15.5101  -18.2187   25.2017 N   0  0  0  0  0  0  0  0  0  0  0  0
   16.7383  -18.4459   24.5404 C   0  0  0  0  0  0  0  0  0  0  0  0
   17.6343  -19.0971   25.1293 O   0  0  0  0  0  0  0  0  0  0  0  0
   16.9269  -17.9174   23.1982 C   0  0  0  0  0  0  0  0  0  0  0  0
   15.7644  -17.1725   22.6072 C   0  0  2  0  0  0  0  0  0  0  0  0
   14.4938  -17.8367   22.6006 N   0  0  0  0  0  0  0  0  0  0  0  0
   16.0946  -16.5943   21.3044 C   0  0  0  0  0  0  0  0  0  0  0  0
   16.9910  -15.5353   21.1588 O   0  0  0  0  0  0  0  0  0  0  0  0
   15.5788  -17.0290   20.2325 O   0  0  0  0  0  0  0  0  0  0  0  0
  2  1  1  6
  3  4  1  0
  3  2  1  0
  4  5  2  0
  5  6  1  0
  7  6  1  0
  8  7  2  0
  9  8  1  0
 10 11  1  0
 10  9  2  0
 11 12  2  0
 12  4  1  0
 12  7  1  0
 13  2  1  0
 13 15  1  0
 14 13  2  0
 16 15  1  0
 17 16  1  0
 18 17  2  0
 19 20  1  0
 20 21  2  0
 22 20  1  0
 23 24  1  0
 23 22  1  6
 24 17  1  0
 25 23  1  0
 26 25  1  0
 27 25  2  0
M  END
$$$$
