MTQ.pdb
     RDKit          3D

 25 24  0  0  1  0  0  0  0  0999 V2000
   24.5091  -21.3079  -19.4650 C   0  0  0  0  0  0  0  0  0  0  0  0
   23.7870  -22.4679  -18.3260 S   0  0  0  0  0  0  0  0  0  0  0  0
   23.9254  -22.1216  -16.6021 C   0  0  0  0  0  0  0  0  0  0  0  0
   23.5794  -20.7518  -16.1197 C   0  0  0  0  0  0  0  0  0  0  0  0
   24.4436  -19.6313  -16.5567 C   0  0  2  0  0  0  0  0  0  0  0  0
   25.8248  -19.8310  -16.0664 N   0  0  0  0  0  0  0  0  0  0  0  0
   24.0334  -18.3305  -15.9469 C   0  0  0  0  0  0  0  0  0  0  0  0
   23.2890  -18.2508  -14.9405 O   0  0  0  0  0  0  0  0  0  0  0  0
   26.3316  -15.4486  -14.8666 C   0  0  0  0  0  0  0  0  0  0  0  0
   25.3359  -14.9495  -15.8797 C   0  0  1  0  0  0  0  0  0  0  0  0
   25.9037  -14.7819  -17.1181 O   0  0  0  0  0  0  0  0  0  0  0  0
   24.0773  -15.8090  -15.9019 C   0  0  2  0  0  0  0  0  0  0  0  0
   24.4763  -17.0756  -16.4884 N   0  0  0  0  0  0  0  0  0  0  0  0
   22.9792  -15.1661  -16.6660 C   0  0  0  0  0  0  0  0  0  0  0  0
   22.4898  -15.6996  -17.6949 O   0  0  0  0  0  0  0  0  0  0  0  0
   17.9619  -15.5206  -15.6876 N   0  0  0  0  0  0  0  0  0  0  0  0
   17.6559  -14.3871  -16.4990 C   0  0  0  0  0  0  0  0  0  0  0  0
   16.4737  -14.1344  -16.7971 O   0  0  0  0  0  0  0  0  0  0  0  0
   18.7719  -13.5466  -16.9615 C   0  0  0  0  0  0  0  0  0  0  0  0
   20.0925  -14.0782  -16.5177 C   0  0  0  0  0  0  0  0  0  0  0  0
   21.3005  -13.2962  -16.9550 C   0  0  2  0  0  0  0  0  0  0  0  0
   22.4355  -13.9197  -16.2649 N   0  0  0  0  0  0  0  0  0  0  0  0
   21.1577  -11.8857  -16.5674 C   0  0  0  0  0  0  0  0  0  0  0  0
   21.7115  -11.4024  -15.5327 O   0  0  0  0  0  0  0  0  0  0  0  0
   20.4010  -11.0283  -17.3378 O   0  0  0  0  0  0  0  0  0  0  0  0
  2  3  1  0
  2  1  1  0
  4  5  1  0
  4  3  1  0
  5  7  1  0
  5  6  1  1
  7  8  2  0
  7 13  1  0
 10  9  1  1
 11 10  1  0
 12 10  1  0
 12 14  1  0
 12 13  1  6
 14 15  2  0
 16 17  1  0
 17 19  1  0
 18 17  2  0
 19 20  1  0
 21 20  1  1
 22 14  1  0
 22 21  1  0
 23 21  1  0
 23 25  1  0
 24 23  2  0
M  END
$$$$
