MTQ.pdb
     RDKit          3D

 25 24  0  0  1  0  0  0  0  0999 V2000
   24.5257  -13.9714  -18.9148 C   0  0  0  0  0  0  0  0  0  0  0  0
   25.4577  -15.1687  -19.8432 S   0  0  0  0  0  0  0  0  0  0  0  0
   24.7082  -16.7357  -20.1496 C   0  0  0  0  0  0  0  0  0  0  0  0
   25.0280  -17.8705  -19.2339 C   0  0  0  0  0  0  0  0  0  0  0  0
   25.0501  -17.5938  -17.7792 C   0  0  2  0  0  0  0  0  0  0  0  0
   26.3075  -16.9082  -17.4092 N   0  0  0  0  0  0  0  0  0  0  0  0
   25.0748  -18.8470  -16.9661 C   0  0  0  0  0  0  0  0  0  0  0  0
   24.3372  -19.8329  -17.2054 O   0  0  0  0  0  0  0  0  0  0  0  0
   28.3721  -19.7220  -14.5952 C   0  0  0  0  0  0  0  0  0  0  0  0
   27.3643  -20.7400  -15.0586 C   0  0  1  0  0  0  0  0  0  0  0  0
   27.5039  -21.9369  -14.4010 O   0  0  0  0  0  0  0  0  0  0  0  0
   25.9447  -20.1866  -15.0140 C   0  0  2  0  0  0  0  0  0  0  0  0
   25.9604  -18.9961  -15.8447 N   0  0  0  0  0  0  0  0  0  0  0  0
   25.5082  -19.8886  -13.6269 C   0  0  0  0  0  0  0  0  0  0  0  0
   26.0645  -18.9959  -12.9366 O   0  0  0  0  0  0  0  0  0  0  0  0
   20.2136  -22.3941  -10.6905 N   0  0  0  0  0  0  0  0  0  0  0  0
   20.4709  -21.0337  -10.3444 C   0  0  0  0  0  0  0  0  0  0  0  0
   19.5242  -20.2624  -10.1010 O   0  0  0  0  0  0  0  0  0  0  0  0
   21.8721  -20.5875  -10.2897 C   0  0  0  0  0  0  0  0  0  0  0  0
   22.5533  -20.7232  -11.6092 C   0  0  0  0  0  0  0  0  0  0  0  0
   24.0105  -20.3521  -11.6420 C   0  0  2  0  0  0  0  0  0  0  0  0
   24.4420  -20.6010  -13.0222 N   0  0  0  0  0  0  0  0  0  0  0  0
   24.7660  -21.1843  -10.6949 C   0  0  0  0  0  0  0  0  0  0  0  0
   25.1966  -22.3400  -10.9942 O   0  0  0  0  0  0  0  0  0  0  0  0
   25.0353  -20.7189   -9.4253 O   0  0  0  0  0  0  0  0  0  0  0  0
  2  3  1  0
  2  1  1  0
  4  5  1  0
  4  3  1  0
  5  7  1  0
  5  6  1  6
  7  8  2  0
  7 13  1  0
 10  9  1  1
 11 10  1  0
 12 10  1  0
 12 14  1  0
 12 13  1  6
 14 15  2  0
 16 17  1  0
 17 19  1  0
 18 17  2  0
 19 20  1  0
 21 20  1  6
 22 14  1  0
 22 21  1  0
 23 21  1  0
 23 25  1  0
 24 23  2  0
M  END
$$$$
