MTQ.pdb
     RDKit          3D

 25 24  0  0  1  0  0  0  0  0999 V2000
   28.6623  -17.6937   -5.4681 C   0  0  0  0  0  0  0  0  0  0  0  0
   27.9820  -19.2678   -4.9954 S   0  0  0  0  0  0  0  0  0  0  0  0
   27.7235  -20.4658   -6.2639 C   0  0  0  0  0  0  0  0  0  0  0  0
   27.3447  -19.9904   -7.6274 C   0  0  0  0  0  0  0  0  0  0  0  0
   27.0828  -21.0154   -8.6638 C   0  0  2  0  0  0  0  0  0  0  0  0
   28.3341  -21.7257   -9.0066 N   0  0  0  0  0  0  0  0  0  0  0  0
   26.6495  -20.4108   -9.9595 C   0  0  0  0  0  0  0  0  0  0  0  0
   27.4145  -19.7369  -10.6901 O   0  0  0  0  0  0  0  0  0  0  0  0
   25.4104  -22.7688  -12.2441 C   0  0  0  0  0  0  0  0  0  0  0  0
   25.7688  -21.3609  -12.6396 C   0  0  1  0  0  0  0  0  0  0  0  0
   25.6945  -21.1744  -13.9976 O   0  0  0  0  0  0  0  0  0  0  0  0
   24.9735  -20.3333  -11.8428 C   0  0  2  0  0  0  0  0  0  0  0  0
   25.3087  -20.5702  -10.4503 N   0  0  0  0  0  0  0  0  0  0  0  0
   23.5142  -20.4484  -12.0887 C   0  0  0  0  0  0  0  0  0  0  0  0
   22.7793  -21.1777  -11.3740 O   0  0  0  0  0  0  0  0  0  0  0  0
   20.8403  -17.3089  -16.7212 N   0  0  0  0  0  0  0  0  0  0  0  0
   19.6556  -17.9091  -16.1989 C   0  0  0  0  0  0  0  0  0  0  0  0
   18.5519  -17.6701  -16.7235 O   0  0  0  0  0  0  0  0  0  0  0  0
   19.7880  -18.8028  -15.0372 C   0  0  0  0  0  0  0  0  0  0  0  0
   21.2072  -18.9480  -14.6032 C   0  0  0  0  0  0  0  0  0  0  0  0
   21.4436  -19.8104  -13.3938 C   0  0  2  0  0  0  0  0  0  0  0  0
   22.8876  -19.7377  -13.1433 N   0  0  0  0  0  0  0  0  0  0  0  0
   21.0246  -21.1922  -13.6680 C   0  0  0  0  0  0  0  0  0  0  0  0
   21.7551  -22.0143  -14.3013 O   0  0  0  0  0  0  0  0  0  0  0  0
   19.7970  -21.6437  -13.2317 O   0  0  0  0  0  0  0  0  0  0  0  0
  2  3  1  0
  2  1  1  0
  4  5  1  0
  4  3  1  0
  5  7  1  0
  5  6  1  6
  7  8  2  0
  7 13  1  0
 10  9  1  6
 11 10  1  0
 12 10  1  0
 12 14  1  0
 12 13  1  1
 14 15  2  0
 16 17  1  0
 17 19  1  0
 18 17  2  0
 19 20  1  0
 21 20  1  6
 22 14  1  0
 22 21  1  0
 23 21  1  0
 23 25  1  0
 24 23  2  0
M  END
$$$$
