MTQ.pdb
     RDKit          3D

 25 24  0  0  1  0  0  0  0  0999 V2000
   25.8793  -13.4440  -14.1774 C   0  0  0  0  0  0  0  0  0  0  0  0
   25.9844  -13.4183  -15.9529 S   0  0  0  0  0  0  0  0  0  0  0  0
   24.7211  -14.2470  -16.8631 C   0  0  0  0  0  0  0  0  0  0  0  0
   24.6066  -15.7300  -16.7361 C   0  0  0  0  0  0  0  0  0  0  0  0
   25.7960  -16.5426  -17.0803 C   0  0  2  0  0  0  0  0  0  0  0  0
   25.9022  -16.6954  -18.5477 N   0  0  0  0  0  0  0  0  0  0  0  0
   25.6840  -17.9469  -16.5828 C   0  0  0  0  0  0  0  0  0  0  0  0
   25.1208  -18.8603  -17.2323 O   0  0  0  0  0  0  0  0  0  0  0  0
   27.5289  -21.7563  -14.5896 C   0  0  0  0  0  0  0  0  0  0  0  0
   27.4328  -20.3751  -15.1812 C   0  0  1  0  0  0  0  0  0  0  0  0
   27.6955  -20.3743  -16.5286 O   0  0  0  0  0  0  0  0  0  0  0  0
   26.1149  -19.6994  -14.8207 C   0  0  2  0  0  0  0  0  0  0  0  0
   26.2246  -18.3371  -15.3102 N   0  0  0  0  0  0  0  0  0  0  0  0
   25.8491  -19.7440  -13.3611 C   0  0  0  0  0  0  0  0  0  0  0  0
   26.4886  -19.0248  -12.5508 O   0  0  0  0  0  0  0  0  0  0  0  0
   21.1038  -20.6656  -12.8975 N   0  0  0  0  0  0  0  0  0  0  0  0
   21.0502  -20.1118  -11.5833 C   0  0  0  0  0  0  0  0  0  0  0  0
   20.1115  -19.3598  -11.2612 O   0  0  0  0  0  0  0  0  0  0  0  0
   22.1287  -20.4568  -10.6434 C   0  0  0  0  0  0  0  0  0  0  0  0
   23.1913  -21.2791  -11.2902 C   0  0  0  0  0  0  0  0  0  0  0  0
   24.5517  -20.6448  -11.3854 C   0  0  2  0  0  0  0  0  0  0  0  0
   24.8592  -20.6025  -12.8196 N   0  0  0  0  0  0  0  0  0  0  0  0
   25.5395  -21.4542  -10.6578 C   0  0  0  0  0  0  0  0  0  0  0  0
   26.2352  -22.3529  -11.2226 O   0  0  0  0  0  0  0  0  0  0  0  0
   25.7428  -21.2521   -9.3090 O   0  0  0  0  0  0  0  0  0  0  0  0
  2  3  1  0
  2  1  1  0
  4  5  1  0
  4  3  1  0
  5  7  1  0
  5  6  1  6
  7  8  2  0
  7 13  1  0
 10  9  1  6
 11 10  1  0
 12 10  1  0
 12 14  1  0
 12 13  1  1
 14 15  2  0
 16 17  1  0
 17 19  1  0
 18 17  2  0
 19 20  1  0
 21 20  1  6
 22 14  1  0
 22 21  1  0
 23 21  1  0
 23 25  1  0
 24 23  2  0
M  END
$$$$
