MTQ.pdb
     RDKit          3D

 25 24  0  0  1  0  0  0  0  0999 V2000
   14.0081  -16.0316  -14.5163 C   0  0  0  0  0  0  0  0  0  0  0  0
   15.4838  -15.0624  -14.7333 S   0  0  0  0  0  0  0  0  0  0  0  0
   15.3183  -13.4657  -15.4641 C   0  0  0  0  0  0  0  0  0  0  0  0
   16.5369  -12.6141  -15.6009 C   0  0  0  0  0  0  0  0  0  0  0  0
   17.4963  -12.9560  -16.6761 C   0  0  2  0  0  0  0  0  0  0  0  0
   18.2900  -14.1439  -16.2929 N   0  0  0  0  0  0  0  0  0  0  0  0
   18.5239  -11.8901  -16.8762 C   0  0  0  0  0  0  0  0  0  0  0  0
   19.5387  -11.7723  -16.1485 O   0  0  0  0  0  0  0  0  0  0  0  0
   18.0619   -9.2054  -20.1363 C   0  0  0  0  0  0  0  0  0  0  0  0
   19.4201   -9.6007  -19.6209 C   0  0  1  0  0  0  0  0  0  0  0  0
   20.3913   -8.7051  -19.9936 O   0  0  0  0  0  0  0  0  0  0  0  0
   19.3942   -9.8771  -18.1221 C   0  0  2  0  0  0  0  0  0  0  0  0
   18.4055  -10.9229  -17.9320 N   0  0  0  0  0  0  0  0  0  0  0  0
   19.0698   -8.6589  -17.3384 C   0  0  0  0  0  0  0  0  0  0  0  0
   17.8877   -8.3794  -17.0108 O   0  0  0  0  0  0  0  0  0  0  0  0
   22.9824   -6.0772  -13.4970 N   0  0  0  0  0  0  0  0  0  0  0  0
   22.1130   -4.9494  -13.5905 C   0  0  0  0  0  0  0  0  0  0  0  0
   22.3521   -3.9211  -12.9303 O   0  0  0  0  0  0  0  0  0  0  0  0
   20.9446   -5.0493  -14.4796 C   0  0  0  0  0  0  0  0  0  0  0  0
   20.9528   -6.3120  -15.2728 C   0  0  0  0  0  0  0  0  0  0  0  0
   19.7880   -6.5163  -16.2021 C   0  0  2  0  0  0  0  0  0  0  0  0
   20.0838   -7.7581  -16.9258 N   0  0  0  0  0  0  0  0  0  0  0  0
   19.6742   -5.3806  -17.1280 C   0  0  0  0  0  0  0  0  0  0  0  0
   18.9737   -4.3548  -16.8675 O   0  0  0  0  0  0  0  0  0  0  0  0
   20.3435   -5.3992  -18.3334 O   0  0  0  0  0  0  0  0  0  0  0  0
  2  3  1  0
  2  1  1  0
  4  5  1  0
  4  3  1  0
  5  7  1  0
  5  6  1  1
  7  8  2  0
  7 13  1  0
 10  9  1  1
 11 10  1  0
 12 10  1  0
 12 14  1  0
 12 13  1  6
 14 15  2  0
 16 17  1  0
 17 19  1  0
 18 17  2  0
 19 20  1  0
 21 20  1  1
 22 14  1  0
 22 21  1  0
 23 21  1  0
 23 25  1  0
 24 23  2  0
M  END
$$$$
