MTQ.pdb
     RDKit          3D

 25 24  0  0  1  0  0  0  0  0999 V2000
   27.6377  -19.3748   -5.5702 C   0  0  0  0  0  0  0  0  0  0  0  0
   27.2860  -19.8329   -7.2527 S   0  0  0  0  0  0  0  0  0  0  0  0
   28.5197  -19.5032   -8.4693 C   0  0  0  0  0  0  0  0  0  0  0  0
   28.1908  -19.7515   -9.9042 C   0  0  0  0  0  0  0  0  0  0  0  0
   27.4192  -20.9728  -10.2304 C   0  0  2  0  0  0  0  0  0  0  0  0
   28.3351  -22.1174  -10.4282 N   0  0  0  0  0  0  0  0  0  0  0  0
   26.7051  -20.8576  -11.5376 C   0  0  0  0  0  0  0  0  0  0  0  0
   27.2838  -20.5592  -12.6098 O   0  0  0  0  0  0  0  0  0  0  0  0
   25.8586  -22.9914  -13.7667 C   0  0  0  0  0  0  0  0  0  0  0  0
   24.5020  -22.4314  -13.4306 C   0  0  1  0  0  0  0  0  0  0  0  0
   23.7937  -23.2647  -12.6009 O   0  0  0  0  0  0  0  0  0  0  0  0
   24.5966  -21.0003  -12.9145 C   0  0  2  0  0  0  0  0  0  0  0  0
   25.2906  -21.0861  -11.6422 N   0  0  0  0  0  0  0  0  0  0  0  0
   23.2596  -20.3708  -12.7749 C   0  0  0  0  0  0  0  0  0  0  0  0
   22.7243  -20.1994  -11.6494 O   0  0  0  0  0  0  0  0  0  0  0  0
   20.6687  -17.2543  -17.4085 N   0  0  0  0  0  0  0  0  0  0  0  0
   19.5358  -17.2462  -16.5407 C   0  0  0  0  0  0  0  0  0  0  0  0
   18.4864  -16.6743  -16.8904 O   0  0  0  0  0  0  0  0  0  0  0  0
   19.6558  -17.9257  -15.2410 C   0  0  0  0  0  0  0  0  0  0  0  0
   20.9883  -18.5731  -15.0703 C   0  0  0  0  0  0  0  0  0  0  0  0
   21.1798  -19.3686  -13.8083 C   0  0  2  0  0  0  0  0  0  0  0  0
   22.5294  -19.9355  -13.9095 N   0  0  0  0  0  0  0  0  0  0  0  0
   20.1670  -20.4300  -13.7206 C   0  0  0  0  0  0  0  0  0  0  0  0
   20.3067  -21.5559  -14.2894 O   0  0  0  0  0  0  0  0  0  0  0  0
   19.0102  -20.2263  -12.9984 O   0  0  0  0  0  0  0  0  0  0  0  0
  2  3  1  0
  2  1  1  0
  4  5  1  0
  4  3  1  0
  5  7  1  0
  5  6  1  6
  7  8  2  0
  7 13  1  0
 10  9  1  1
 11 10  1  0
 12 10  1  0
 12 14  1  0
 12 13  1  1
 14 15  2  0
 16 17  1  0
 17 19  1  0
 18 17  2  0
 19 20  1  0
 21 20  1  6
 22 14  1  0
 22 21  1  0
 23 21  1  0
 23 25  1  0
 24 23  2  0
M  END
$$$$
