MTQ.pdb
     RDKit          3D

 25 24  0  0  1  0  0  0  0  0999 V2000
   19.2240  -18.3691  -20.3632 C   0  0  0  0  0  0  0  0  0  0  0  0
   19.7505  -17.2571  -19.0786 S   0  0  0  0  0  0  0  0  0  0  0  0
   18.6216  -16.0039  -18.5626 C   0  0  0  0  0  0  0  0  0  0  0  0
   19.0574  -15.0418  -17.5076 C   0  0  0  0  0  0  0  0  0  0  0  0
   20.2790  -15.3728  -16.7387 C   0  0  2  0  0  0  0  0  0  0  0  0
   19.9894  -16.4386  -15.7547 N   0  0  0  0  0  0  0  0  0  0  0  0
   20.7450  -14.2288  -15.8983 C   0  0  0  0  0  0  0  0  0  0  0  0
   20.2521  -13.9575  -14.7773 O   0  0  0  0  0  0  0  0  0  0  0  0
   24.2353  -13.5347  -14.6885 C   0  0  0  0  0  0  0  0  0  0  0  0
   23.7760  -12.3471  -15.4919 C   0  0  1  0  0  0  0  0  0  0  0  0
   24.3509  -12.3168  -16.7380 O   0  0  0  0  0  0  0  0  0  0  0  0
   22.2555  -12.2439  -15.5238 C   0  0  2  0  0  0  0  0  0  0  0  0
   21.8025  -13.3596  -16.3346 N   0  0  0  0  0  0  0  0  0  0  0  0
   21.7987  -10.9411  -16.0692 C   0  0  0  0  0  0  0  0  0  0  0  0
   21.8151  -10.6995  -17.3037 O   0  0  0  0  0  0  0  0  0  0  0  0
   16.9419   -8.0282  -14.4244 N   0  0  0  0  0  0  0  0  0  0  0  0
   17.0885   -8.8994  -15.5452 C   0  0  0  0  0  0  0  0  0  0  0  0
   16.0894   -9.4570  -16.0366 O   0  0  0  0  0  0  0  0  0  0  0  0
   18.4413   -9.1096  -16.0850 C   0  0  0  0  0  0  0  0  0  0  0  0
   19.4830   -8.4329  -15.2601 C   0  0  0  0  0  0  0  0  0  0  0  0
   20.9043   -8.6007  -15.7226 C   0  0  2  0  0  0  0  0  0  0  0  0
   21.3233   -9.9129  -15.2168 N   0  0  0  0  0  0  0  0  0  0  0  0
   21.7458   -7.5294  -15.1709 C   0  0  0  0  0  0  0  0  0  0  0  0
   22.5926   -7.7332  -14.2478 O   0  0  0  0  0  0  0  0  0  0  0  0
   21.6362   -6.2430  -15.6550 O   0  0  0  0  0  0  0  0  0  0  0  0
  2  3  1  0
  2  1  1  0
  4  5  1  0
  4  3  1  0
  5  7  1  0
  5  6  1  1
  7  8  2  0
  7 13  1  0
 10  9  1  6
 11 10  1  0
 12 10  1  0
 12 14  1  0
 12 13  1  6
 14 15  2  0
 16 17  1  0
 17 19  1  0
 18 17  2  0
 19 20  1  0
 21 20  1  1
 22 14  1  0
 22 21  1  0
 23 21  1  0
 23 25  1  0
 24 23  2  0
M  END
$$$$
