MTQ.pdb
     RDKit          3D

 25 24  0  0  1  0  0  0  0  0999 V2000
   26.0083  -30.0382  -18.9951 C   0  0  0  0  0  0  0  0  0  0  0  0
   24.7493  -29.8298  -17.7559 S   0  0  0  0  0  0  0  0  0  0  0  0
   23.5105  -28.6069  -18.0405 C   0  0  0  0  0  0  0  0  0  0  0  0
   22.3876  -28.4884  -17.0640 C   0  0  0  0  0  0  0  0  0  0  0  0
   22.3069  -27.2487  -16.2576 C   0  0  2  0  0  0  0  0  0  0  0  0
   23.3922  -27.2220  -15.2529 N   0  0  0  0  0  0  0  0  0  0  0  0
   21.0598  -27.1888  -15.4370 C   0  0  0  0  0  0  0  0  0  0  0  0
   19.9177  -27.3992  -15.9110 O   0  0  0  0  0  0  0  0  0  0  0  0
   21.1037  -28.6794  -11.8492 C   0  0  0  0  0  0  0  0  0  0  0  0
   20.3900  -27.3540  -11.8197 C   0  0  1  0  0  0  0  0  0  0  0  0
   21.1323  -26.3851  -11.1916 O   0  0  0  0  0  0  0  0  0  0  0  0
   19.9082  -26.9438  -13.2064 C   0  0  2  0  0  0  0  0  0  0  0  0
   21.0992  -26.8814  -14.0342 N   0  0  0  0  0  0  0  0  0  0  0  0
   19.1823  -25.6493  -13.1816 C   0  0  0  0  0  0  0  0  0  0  0  0
   19.7890  -24.5539  -13.0604 O   0  0  0  0  0  0  0  0  0  0  0  0
   16.3526  -22.5965  -16.0873 N   0  0  0  0  0  0  0  0  0  0  0  0
   15.2910  -22.2797  -15.1876 C   0  0  0  0  0  0  0  0  0  0  0  0
   14.6747  -21.2041  -15.3043 O   0  0  0  0  0  0  0  0  0  0  0  0
   14.9618  -23.2553  -14.1363 C   0  0  0  0  0  0  0  0  0  0  0  0
   15.9063  -24.4093  -14.1297 C   0  0  0  0  0  0  0  0  0  0  0  0
   17.0115  -24.3529  -13.1111 C   0  0  2  0  0  0  0  0  0  0  0  0
   17.7701  -25.5956  -13.2944 N   0  0  0  0  0  0  0  0  0  0  0  0
   16.4474  -24.2742  -11.7562 C   0  0  0  0  0  0  0  0  0  0  0  0
   16.0033  -23.1923  -11.2633 O   0  0  0  0  0  0  0  0  0  0  0  0
   16.3824  -25.4021  -10.9658 O   0  0  0  0  0  0  0  0  0  0  0  0
  2  3  1  0
  2  1  1  0
  4  5  1  0
  4  3  1  0
  5  7  1  0
  5  6  1  1
  7  8  2  0
  7 13  1  0
 10  9  1  6
 11 10  1  0
 12 10  1  0
 12 14  1  0
 12 13  1  6
 14 15  2  0
 16 17  1  0
 17 19  1  0
 18 17  2  0
 19 20  1  0
 21 20  1  6
 22 14  1  0
 22 21  1  0
 23 21  1  0
 23 25  1  0
 24 23  2  0
M  END
$$$$
