MTQ.pdb
     RDKit          3D

 25 24  0  0  1  0  0  0  0  0999 V2000
   26.3627  -17.8352  -14.7139 C   0  0  0  0  0  0  0  0  0  0  0  0
   26.7914  -16.3195  -15.5402 S   0  0  0  0  0  0  0  0  0  0  0  0
   26.4799  -14.8046  -14.6924 C   0  0  0  0  0  0  0  0  0  0  0  0
   25.4293  -13.8898  -15.2291 C   0  0  0  0  0  0  0  0  0  0  0  0
   24.2559  -14.5051  -15.8909 C   0  0  2  0  0  0  0  0  0  0  0  0
   24.6608  -15.1312  -17.1684 N   0  0  0  0  0  0  0  0  0  0  0  0
   23.2396  -13.4886  -16.2984 C   0  0  0  0  0  0  0  0  0  0  0  0
   23.3343  -12.8088  -17.3483 O   0  0  0  0  0  0  0  0  0  0  0  0
   18.6746  -11.6956  -15.6243 C   0  0  0  0  0  0  0  0  0  0  0  0
   19.7829  -12.6570  -15.2862 C   0  0  1  0  0  0  0  0  0  0  0  0
   19.4633  -13.9484  -15.6245 O   0  0  0  0  0  0  0  0  0  0  0  0
   21.1202  -12.1955  -15.8538 C   0  0  2  0  0  0  0  0  0  0  0  0
   22.0763  -13.2279  -15.4967 N   0  0  0  0  0  0  0  0  0  0  0  0
   21.5178  -10.8659  -15.3272 C   0  0  0  0  0  0  0  0  0  0  0  0
   22.4779  -10.7333  -14.5250 O   0  0  0  0  0  0  0  0  0  0  0  0
   24.7615   -8.2271  -18.0198 N   0  0  0  0  0  0  0  0  0  0  0  0
   24.5911   -7.0832  -17.1836 C   0  0  0  0  0  0  0  0  0  0  0  0
   25.4439   -6.1759  -17.1865 O   0  0  0  0  0  0  0  0  0  0  0  0
   23.3917   -7.0211  -16.3333 C   0  0  0  0  0  0  0  0  0  0  0  0
   22.5896   -8.2761  -16.4067 C   0  0  0  0  0  0  0  0  0  0  0  0
   21.3879   -8.3462  -15.5049 C   0  0  2  0  0  0  0  0  0  0  0  0
   20.8287   -9.6874  -15.7092 N   0  0  0  0  0  0  0  0  0  0  0  0
   20.4161   -7.3075  -15.8752 C   0  0  0  0  0  0  0  0  0  0  0  0
   20.2917   -6.2255  -15.2237 O   0  0  0  0  0  0  0  0  0  0  0  0
   19.5949   -7.4848  -16.9685 O   0  0  0  0  0  0  0  0  0  0  0  0
  2  3  1  0
  2  1  1  0
  4  5  1  0
  4  3  1  0
  5  7  1  0
  5  6  1  6
  7  8  2  0
  7 13  1  0
 10  9  1  6
 11 10  1  0
 12 10  1  0
 12 14  1  0
 12 13  1  1
 14 15  2  0
 16 17  1  0
 17 19  1  0
 18 17  2  0
 19 20  1  0
 21 20  1  6
 22 14  1  0
 22 21  1  0
 23 21  1  0
 23 25  1  0
 24 23  2  0
M  END
$$$$
