MTQ.pdb
     RDKit          3D

 25 24  0  0  1  0  0  0  0  0999 V2000
   23.6082  -23.6761  -13.0883 C   0  0  0  0  0  0  0  0  0  0  0  0
   23.7356  -23.4092  -14.8423 S   0  0  0  0  0  0  0  0  0  0  0  0
   25.3334  -23.5348  -15.5788 C   0  0  0  0  0  0  0  0  0  0  0  0
   25.6853  -24.7881  -16.3097 C   0  0  0  0  0  0  0  0  0  0  0  0
   27.0744  -24.9278  -16.8038 C   0  0  2  0  0  0  0  0  0  0  0  0
   27.3565  -23.9009  -17.8304 N   0  0  0  0  0  0  0  0  0  0  0  0
   27.2911  -26.2195  -17.5226 C   0  0  0  0  0  0  0  0  0  0  0  0
   27.0395  -26.3752  -18.7415 O   0  0  0  0  0  0  0  0  0  0  0  0
   30.3977  -27.8250  -17.9354 C   0  0  0  0  0  0  0  0  0  0  0  0
   29.5372  -28.9188  -17.3610 C   0  0  1  0  0  0  0  0  0  0  0  0
   29.8759  -29.2104  -16.0630 O   0  0  0  0  0  0  0  0  0  0  0  0
   28.0535  -28.6237  -17.5479 C   0  0  2  0  0  0  0  0  0  0  0  0
   27.8091  -27.3764  -16.8463 N   0  0  0  0  0  0  0  0  0  0  0  0
   27.1995  -29.7242  -17.0352 C   0  0  0  0  0  0  0  0  0  0  0  0
   26.6289  -29.6512  -15.9163 O   0  0  0  0  0  0  0  0  0  0  0  0
   27.3835  -33.5270  -14.1275 N   0  0  0  0  0  0  0  0  0  0  0  0
   25.9735  -33.7255  -14.2234 C   0  0  0  0  0  0  0  0  0  0  0  0
   25.4252  -34.6312  -13.5681 O   0  0  0  0  0  0  0  0  0  0  0  0
   25.2091  -32.8355  -15.1118 C   0  0  0  0  0  0  0  0  0  0  0  0
   26.0915  -31.8721  -15.8309 C   0  0  0  0  0  0  0  0  0  0  0  0
   26.1164  -31.9909  -17.3300 C   0  0  2  0  0  0  0  0  0  0  0  0
   26.9919  -30.9066  -17.7894 N   0  0  0  0  0  0  0  0  0  0  0  0
   24.7589  -31.8384  -17.8724 C   0  0  0  0  0  0  0  0  0  0  0  0
   24.1614  -30.7195  -17.9129 O   0  0  0  0  0  0  0  0  0  0  0  0
   24.0825  -32.9341  -18.3656 O   0  0  0  0  0  0  0  0  0  0  0  0
  2  3  1  0
  2  1  1  0
  4  5  1  0
  4  3  1  0
  5  7  1  0
  5  6  1  6
  7  8  2  0
  7 13  1  0
 10  9  1  1
 11 10  1  0
 12 10  1  0
 12 14  1  0
 12 13  1  1
 14 15  2  0
 16 17  1  0
 17 19  1  0
 18 17  2  0
 19 20  1  0
 21 20  1  1
 22 14  1  0
 22 21  1  0
 23 21  1  0
 23 25  1  0
 24 23  2  0
M  END
$$$$
