MTQ.pdb
     RDKit          3D

 25 24  0  0  1  0  0  0  0  0999 V2000
   22.8688  -19.0912  -14.7085 C   0  0  0  0  0  0  0  0  0  0  0  0
   22.7183  -18.4567  -16.3634 S   0  0  0  0  0  0  0  0  0  0  0  0
   22.1253  -16.8073  -16.5605 C   0  0  0  0  0  0  0  0  0  0  0  0
   22.7871  -15.7144  -15.7883 C   0  0  0  0  0  0  0  0  0  0  0  0
   23.5888  -14.7264  -16.5462 C   0  0  2  0  0  0  0  0  0  0  0  0
   24.9696  -15.2237  -16.7309 N   0  0  0  0  0  0  0  0  0  0  0  0
   23.7680  -13.4479  -15.7941 C   0  0  0  0  0  0  0  0  0  0  0  0
   24.4069  -13.3709  -14.7174 O   0  0  0  0  0  0  0  0  0  0  0  0
   25.7845  -11.7794  -15.0722 C   0  0  0  0  0  0  0  0  0  0  0  0
   24.9797  -10.7152  -15.7696 C   0  0  1  0  0  0  0  0  0  0  0  0
   25.3704  -10.5488  -17.0750 O   0  0  0  0  0  0  0  0  0  0  0  0
   23.4817  -10.9487  -15.6110 C   0  0  2  0  0  0  0  0  0  0  0  0
   23.2088  -12.2131  -16.2700 N   0  0  0  0  0  0  0  0  0  0  0  0
   22.6826   -9.8391  -16.1885 C   0  0  0  0  0  0  0  0  0  0  0  0
   22.3162   -9.8456  -17.3920 O   0  0  0  0  0  0  0  0  0  0  0  0
   17.5396   -9.1497  -15.6620 N   0  0  0  0  0  0  0  0  0  0  0  0
   17.6361   -7.8113  -16.1481 C   0  0  0  0  0  0  0  0  0  0  0  0
   16.6046   -7.1773  -16.4382 O   0  0  0  0  0  0  0  0  0  0  0  0
   18.9774   -7.2231  -16.2915 C   0  0  0  0  0  0  0  0  0  0  0  0
   20.0499   -8.1679  -15.8660 C   0  0  0  0  0  0  0  0  0  0  0  0
   21.4574   -7.6416  -15.9288 C   0  0  2  0  0  0  0  0  0  0  0  0
   22.2985   -8.7230  -15.4032 N   0  0  0  0  0  0  0  0  0  0  0  0
   21.5816   -6.4296  -15.1066 C   0  0  0  0  0  0  0  0  0  0  0  0
   22.0350   -6.4520  -13.9214 O   0  0  0  0  0  0  0  0  0  0  0  0
   21.2012   -5.2055  -15.6145 O   0  0  0  0  0  0  0  0  0  0  0  0
  2  3  1  0
  2  1  1  0
  4  5  1  0
  4  3  1  0
  5  7  1  0
  5  6  1  1
  7  8  2  0
  7 13  1  0
 10  9  1  6
 11 10  1  0
 12 10  1  0
 12 14  1  0
 12 13  1  6
 14 15  2  0
 16 17  1  0
 17 19  1  0
 18 17  2  0
 19 20  1  0
 21 20  1  1
 22 14  1  0
 22 21  1  0
 23 21  1  0
 23 25  1  0
 24 23  2  0
M  END
$$$$
