MTQ.pdb
     RDKit          3D

 25 24  0  0  1  0  0  0  0  0999 V2000
   28.5651  -18.2725   -6.1663 C   0  0  0  0  0  0  0  0  0  0  0  0
   27.9292  -19.9052   -5.8598 S   0  0  0  0  0  0  0  0  0  0  0  0
   26.9479  -20.6549   -7.1191 C   0  0  0  0  0  0  0  0  0  0  0  0
   26.6550  -19.8719   -8.3560 C   0  0  0  0  0  0  0  0  0  0  0  0
   25.8397  -20.5255   -9.4054 C   0  0  2  0  0  0  0  0  0  0  0  0
   26.2556  -21.9353   -9.5705 N   0  0  0  0  0  0  0  0  0  0  0  0
   26.0692  -19.9258  -10.7545 C   0  0  0  0  0  0  0  0  0  0  0  0
   25.9339  -18.7015  -10.9914 O   0  0  0  0  0  0  0  0  0  0  0  0
   29.0615  -20.0663  -12.7895 C   0  0  0  0  0  0  0  0  0  0  0  0
   27.9772  -20.5812  -13.6983 C   0  0  1  0  0  0  0  0  0  0  0  0
   28.0978  -21.9290  -13.9292 O   0  0  0  0  0  0  0  0  0  0  0  0
   26.5925  -20.1722  -13.2095 C   0  0  2  0  0  0  0  0  0  0  0  0
   26.4650  -20.7317  -11.8760 N   0  0  0  0  0  0  0  0  0  0  0  0
   25.5195  -20.6514  -14.1164 C   0  0  0  0  0  0  0  0  0  0  0  0
   25.1350  -21.8492  -14.1099 O   0  0  0  0  0  0  0  0  0  0  0  0
   20.4459  -21.0714  -13.3984 N   0  0  0  0  0  0  0  0  0  0  0  0
   20.5683  -19.6964  -13.7609 C   0  0  0  0  0  0  0  0  0  0  0  0
   19.7081  -18.8753  -13.3919 O   0  0  0  0  0  0  0  0  0  0  0  0
   21.7280  -19.2966  -14.5737 C   0  0  0  0  0  0  0  0  0  0  0  0
   22.6246  -20.4500  -14.8728 C   0  0  0  0  0  0  0  0  0  0  0  0
   23.7373  -20.1861  -15.8498 C   0  0  2  0  0  0  0  0  0  0  0  0
   24.8823  -19.7742  -15.0299 N   0  0  0  0  0  0  0  0  0  0  0  0
   23.3477  -19.1212  -16.7849 C   0  0  0  0  0  0  0  0  0  0  0  0
   23.7869  -17.9343  -16.6894 O   0  0  0  0  0  0  0  0  0  0  0  0
   22.4746  -19.3906  -17.8175 O   0  0  0  0  0  0  0  0  0  0  0  0
  2  3  1  0
  2  1  1  0
  4  5  1  0
  4  3  1  0
  5  7  1  0
  5  6  1  6
  7  8  2  0
  7 13  1  0
 10  9  1  1
 11 10  1  0
 12 10  1  0
 12 14  1  0
 12 13  1  1
 14 15  2  0
 16 17  1  0
 17 19  1  0
 18 17  2  0
 19 20  1  0
 21 20  1  1
 22 14  1  0
 22 21  1  0
 23 21  1  0
 23 25  1  0
 24 23  2  0
M  END
$$$$
