MTQ.pdb
     RDKit          3D

 25 24  0  0  1  0  0  0  0  0999 V2000
   26.5391  -29.6279  -21.5775 C   0  0  0  0  0  0  0  0  0  0  0  0
   27.9350  -30.5209  -20.9310 S   0  0  0  0  0  0  0  0  0  0  0  0
   27.9015  -30.9771  -19.2275 C   0  0  0  0  0  0  0  0  0  0  0  0
   27.7538  -29.9008  -18.2036 C   0  0  0  0  0  0  0  0  0  0  0  0
   28.9814  -29.1999  -17.7620 C   0  0  2  0  0  0  0  0  0  0  0  0
   29.7052  -30.0181  -16.7646 N   0  0  0  0  0  0  0  0  0  0  0  0
   28.6767  -27.9333  -17.0306 C   0  0  0  0  0  0  0  0  0  0  0  0
   28.4278  -27.8953  -15.8018 O   0  0  0  0  0  0  0  0  0  0  0  0
   30.8812  -25.0922  -16.8341 C   0  0  0  0  0  0  0  0  0  0  0  0
   29.5784  -24.5152  -17.3205 C   0  0  1  0  0  0  0  0  0  0  0  0
   29.6375  -24.1586  -18.6448 O   0  0  0  0  0  0  0  0  0  0  0  0
   28.4018  -25.4263  -16.9907 C   0  0  2  0  0  0  0  0  0  0  0  0
   28.6513  -26.6652  -17.7053 N   0  0  0  0  0  0  0  0  0  0  0  0
   27.1035  -24.8175  -17.3739 C   0  0  0  0  0  0  0  0  0  0  0  0
   26.4730  -25.1942  -18.3953 O   0  0  0  0  0  0  0  0  0  0  0  0
   23.2308  -27.0894  -16.6834 N   0  0  0  0  0  0  0  0  0  0  0  0
   22.3528  -26.0202  -16.3333 C   0  0  0  0  0  0  0  0  0  0  0  0
   21.1197  -26.1891  -16.3678 O   0  0  0  0  0  0  0  0  0  0  0  0
   22.9516  -24.7349  -15.9397 C   0  0  0  0  0  0  0  0  0  0  0  0
   24.4387  -24.7549  -16.0490 C   0  0  0  0  0  0  0  0  0  0  0  0
   25.0772  -23.5124  -16.6064 C   0  0  2  0  0  0  0  0  0  0  0  0
   26.5195  -23.7828  -16.6004 N   0  0  0  0  0  0  0  0  0  0  0  0
   24.7541  -22.3545  -15.7609 C   0  0  0  0  0  0  0  0  0  0  0  0
   25.5437  -21.9197  -14.8675 O   0  0  0  0  0  0  0  0  0  0  0  0
   23.5554  -21.6921  -15.9213 O   0  0  0  0  0  0  0  0  0  0  0  0
  2  3  1  0
  2  1  1  0
  4  5  1  0
  4  3  1  0
  5  7  1  0
  5  6  1  1
  7  8  2  0
  7 13  1  0
 10  9  1  6
 11 10  1  0
 12 10  1  0
 12 14  1  0
 12 13  1  6
 14 15  2  0
 16 17  1  0
 17 19  1  0
 18 17  2  0
 19 20  1  0
 21 20  1  1
 22 14  1  0
 22 21  1  0
 23 21  1  0
 23 25  1  0
 24 23  2  0
M  END
$$$$
