MTQ.pdb
     RDKit          3D

 25 24  0  0  1  0  0  0  0  0999 V2000
   27.9213  -18.9169   -7.2786 C   0  0  0  0  0  0  0  0  0  0  0  0
   29.3002  -20.0026   -7.5683 S   0  0  0  0  0  0  0  0  0  0  0  0
   29.9480  -20.0892   -9.2065 C   0  0  0  0  0  0  0  0  0  0  0  0
   28.9945  -20.2589  -10.3426 C   0  0  0  0  0  0  0  0  0  0  0  0
   28.0692  -21.4143  -10.2956 C   0  0  2  0  0  0  0  0  0  0  0  0
   28.8304  -22.6807  -10.3625 N   0  0  0  0  0  0  0  0  0  0  0  0
   27.1759  -21.4716  -11.4919 C   0  0  0  0  0  0  0  0  0  0  0  0
   27.5427  -21.9346  -12.5985 O   0  0  0  0  0  0  0  0  0  0  0  0
   23.9503  -23.2115  -11.4341 C   0  0  0  0  0  0  0  0  0  0  0  0
   23.6616  -21.8274  -11.9515 C   0  0  1  0  0  0  0  0  0  0  0  0
   23.0402  -21.0463  -11.0091 O   0  0  0  0  0  0  0  0  0  0  0  0
   24.9050  -21.1802  -12.5501 C   0  0  2  0  0  0  0  0  0  0  0  0
   25.8228  -20.9915  -11.4412 N   0  0  0  0  0  0  0  0  0  0  0  0
   24.5907  -19.9003  -13.2330 C   0  0  0  0  0  0  0  0  0  0  0  0
   25.1886  -18.8322  -12.9424 O   0  0  0  0  0  0  0  0  0  0  0  0
   26.8356  -17.1178  -16.7675 N   0  0  0  0  0  0  0  0  0  0  0  0
   25.7514  -17.2909  -17.6793 C   0  0  0  0  0  0  0  0  0  0  0  0
   25.8510  -16.8827  -18.8514 O   0  0  0  0  0  0  0  0  0  0  0  0
   24.5345  -17.9565  -17.1877 C   0  0  0  0  0  0  0  0  0  0  0  0
   24.6540  -18.3513  -15.7547 C   0  0  0  0  0  0  0  0  0  0  0  0
   23.3618  -18.6151  -15.0319 C   0  0  2  0  0  0  0  0  0  0  0  0
   23.6000  -19.8304  -14.2447 N   0  0  0  0  0  0  0  0  0  0  0  0
   22.2734  -18.8177  -15.9986 C   0  0  0  0  0  0  0  0  0  0  0  0
   21.8105  -19.9667  -16.2748 O   0  0  0  0  0  0  0  0  0  0  0  0
   21.7112  -17.7377  -16.6458 O   0  0  0  0  0  0  0  0  0  0  0  0
  2  3  1  0
  2  1  1  0
  4  5  1  0
  4  3  1  0
  5  7  1  0
  5  6  1  6
  7  8  2  0
  7 13  1  0
 10  9  1  1
 11 10  1  0
 12 10  1  0
 12 14  1  0
 12 13  1  1
 14 15  2  0
 16 17  1  0
 17 19  1  0
 18 17  2  0
 19 20  1  0
 21 20  1  6
 22 14  1  0
 22 21  1  0
 23 21  1  0
 23 25  1  0
 24 23  2  0
M  END
$$$$
