MTQ.pdb
     RDKit          3D

 25 24  0  0  1  0  0  0  0  0999 V2000
   20.2702  -22.2702   -8.1892 C   0  0  0  0  0  0  0  0  0  0  0  0
   21.7823  -21.7412   -8.9623 S   0  0  0  0  0  0  0  0  0  0  0  0
   22.1944  -20.0284   -8.8753 C   0  0  0  0  0  0  0  0  0  0  0  0
   23.4439  -19.5605   -9.5452 C   0  0  0  0  0  0  0  0  0  0  0  0
   24.4532  -20.5822   -9.9066 C   0  0  2  0  0  0  0  0  0  0  0  0
   25.2271  -20.9803   -8.7106 N   0  0  0  0  0  0  0  0  0  0  0  0
   25.4897  -20.0470  -10.8401 C   0  0  0  0  0  0  0  0  0  0  0  0
   26.3596  -19.2133  -10.4917 O   0  0  0  0  0  0  0  0  0  0  0  0
   28.1822  -21.5830  -12.4444 C   0  0  0  0  0  0  0  0  0  0  0  0
   27.3976  -21.0136  -13.5964 C   0  0  1  0  0  0  0  0  0  0  0  0
   26.7403  -21.9902  -14.3024 O   0  0  0  0  0  0  0  0  0  0  0  0
   26.4892  -19.8741  -13.1495 C   0  0  2  0  0  0  0  0  0  0  0  0
   25.5493  -20.4644  -12.2135 N   0  0  0  0  0  0  0  0  0  0  0  0
   25.7995  -19.2314  -14.2960 C   0  0  0  0  0  0  0  0  0  0  0  0
   24.5642  -19.3729  -14.4876 O   0  0  0  0  0  0  0  0  0  0  0  0
   28.9047  -15.5330  -18.1906 N   0  0  0  0  0  0  0  0  0  0  0  0
   27.6340  -15.4578  -18.8358 C   0  0  0  0  0  0  0  0  0  0  0  0
   27.4794  -14.7168  -19.8245 O   0  0  0  0  0  0  0  0  0  0  0  0
   26.5350  -16.2736  -18.2952 C   0  0  0  0  0  0  0  0  0  0  0  0
   26.9396  -17.0092  -17.0628 C   0  0  0  0  0  0  0  0  0  0  0  0
   25.8647  -17.8228  -16.3959 C   0  0  2  0  0  0  0  0  0  0  0  0
   26.5087  -18.4287  -15.2248 N   0  0  0  0  0  0  0  0  0  0  0  0
   25.3662  -18.8544  -17.3165 C   0  0  0  0  0  0  0  0  0  0  0  0
   25.9800  -19.9475  -17.5141 O   0  0  0  0  0  0  0  0  0  0  0  0
   24.1881  -18.6578  -18.0054 O   0  0  0  0  0  0  0  0  0  0  0  0
  2  3  1  0
  2  1  1  0
  4  5  1  0
  4  3  1  0
  5  7  1  0
  5  6  1  1
  7  8  2  0
  7 13  1  0
 10  9  1  1
 11 10  1  0
 12 10  1  0
 12 14  1  0
 12 13  1  1
 14 15  2  0
 16 17  1  0
 17 19  1  0
 18 17  2  0
 19 20  1  0
 21 20  1  6
 22 14  1  0
 22 21  1  0
 23 21  1  0
 23 25  1  0
 24 23  2  0
M  END
$$$$
