MQF.pdb
     RDKit          3D

 29 29  0  0  1  0  0  0  0  0999 V2000
    8.2535  -11.1946   20.6794 C   0  0  0  0  0  0  0  0  0  0  0  0
    7.3771  -12.1735   19.5019 S   0  0  0  0  0  0  0  0  0  0  0  0
    7.6882  -13.9153   19.5180 C   0  0  0  0  0  0  0  0  0  0  0  0
    7.9663  -14.4978   20.8730 C   0  0  0  0  0  0  0  0  0  0  0  0
    8.2084  -15.9852   20.8319 C   0  0  2  0  0  0  0  0  0  0  0  0
    6.9944  -16.5975   20.3327 N   0  0  0  0  0  0  0  0  0  0  0  0
    8.5544  -16.5692   22.1243 C   0  0  0  0  0  0  0  0  0  0  0  0
    7.6533  -17.0666   22.8431 O   0  0  0  0  0  0  0  0  0  0  0  0
   14.0499  -18.6586   22.6678 N   0  0  0  0  0  0  0  0  0  0  0  0
   13.0083  -19.6253   22.6328 C   0  0  0  0  0  0  0  0  0  0  0  0
   13.2676  -20.7566   22.1550 O   0  0  0  0  0  0  0  0  0  0  0  0
   11.6611  -19.2918   23.1493 C   0  0  0  0  0  0  0  0  0  0  0  0
   11.6876  -17.8353   23.5921 C   0  0  0  0  0  0  0  0  0  0  0  0
   10.2577  -17.3370   23.8412 C   0  0  2  0  0  0  0  0  0  0  0  0
    9.8786  -16.6208   22.6510 N   0  0  0  0  0  0  0  0  0  0  0  0
   10.3628  -16.3698   24.9653 C   0  0  0  0  0  0  0  0  0  0  0  0
   11.1250  -15.3501   24.8757 O   0  0  0  0  0  0  0  0  0  0  0  0
    9.6500  -16.4952   26.1873 N   0  0  0  0  0  0  0  0  0  0  0  0
    9.9849  -15.6862   27.3635 C   0  0  1  0  0  0  0  0  0  0  0  0
    8.7372  -15.1405   28.0034 C   0  0  0  0  0  0  0  0  0  0  0  0
    8.0195  -14.2034   27.1115 C   0  0  0  0  0  0  0  0  0  0  0  0
    8.2985  -12.8425   27.1146 C   0  0  0  0  0  0  0  0  0  0  0  0
    7.6468  -11.9657   26.2872 C   0  0  0  0  0  0  0  0  0  0  0  0
    6.6802  -12.4330   25.4177 C   0  0  0  0  0  0  0  0  0  0  0  0
    6.3827  -13.7624   25.3897 C   0  0  0  0  0  0  0  0  0  0  0  0
    7.0473  -14.6278   26.2274 C   0  0  0  0  0  0  0  0  0  0  0  0
   10.8552  -16.4394   28.2715 C   0  0  0  0  0  0  0  0  0  0  0  0
   11.3474  -15.9617   29.3279 O   0  0  0  0  0  0  0  0  0  0  0  0
   11.1585  -17.7698   27.9465 O   0  0  0  0  0  0  0  0  0  0  0  0
  1  2  1  0
  3  2  1  0
  4  5  1  0
  4  3  1  0
  5  6  1  1
  7 15  1  0
  7  5  1  0
  8  7  2  0
 10  9  1  0
 10 12  1  0
 11 10  2  0
 13 12  1  0
 14 13  1  6
 14 15  1  0
 16 18  1  0
 16 14  1  0
 17 16  2  0
 19 18  1  0
 19 27  1  0
 19 20  1  1
 21 22  2  0
 21 20  1  0
 23 22  1  0
 24 23  2  0
 25 24  1  0
 25 26  2  0
 26 21  1  0
 27 29  1  0
 28 27  2  0
M  END
$$$$
