MQF.pdb
     RDKit          3D

 29 29  0  0  1  0  0  0  0  0999 V2000
    4.6448  -12.5878   25.6314 C   0  0  0  0  0  0  0  0  0  0  0  0
    5.8642  -13.7814   25.1825 S   0  0  0  0  0  0  0  0  0  0  0  0
    5.5158  -15.4704   25.5787 C   0  0  0  0  0  0  0  0  0  0  0  0
    6.6481  -16.4255   25.3370 C   0  0  0  0  0  0  0  0  0  0  0  0
    6.8973  -16.6785   23.8719 C   0  0  2  0  0  0  0  0  0  0  0  0
    5.9350  -17.6733   23.4450 N   0  0  0  0  0  0  0  0  0  0  0  0
    8.2476  -17.1428   23.5679 C   0  0  0  0  0  0  0  0  0  0  0  0
    8.4878  -18.3744   23.5306 O   0  0  0  0  0  0  0  0  0  0  0  0
   14.5972  -14.1594   21.6289 N   0  0  0  0  0  0  0  0  0  0  0  0
   13.3644  -14.7170   21.1931 C   0  0  0  0  0  0  0  0  0  0  0  0
   12.7938  -14.1913   20.2066 O   0  0  0  0  0  0  0  0  0  0  0  0
   12.7830  -15.8850   21.8936 C   0  0  0  0  0  0  0  0  0  0  0  0
   11.3553  -15.5237   22.2800 C   0  0  0  0  0  0  0  0  0  0  0  0
   10.6717  -16.7262   22.9445 C   0  0  2  0  0  0  0  0  0  0  0  0
    9.3504  -16.2789   23.3013 N   0  0  0  0  0  0  0  0  0  0  0  0
   11.4399  -16.9828   24.1912 C   0  0  0  0  0  0  0  0  0  0  0  0
   12.6547  -17.3701   24.1374 O   0  0  0  0  0  0  0  0  0  0  0  0
   10.9057  -16.8239   25.4975 N   0  0  0  0  0  0  0  0  0  0  0  0
   11.6232  -17.2918   26.6876 C   0  0  1  0  0  0  0  0  0  0  0  0
   11.0771  -16.6361   27.9269 C   0  0  0  0  0  0  0  0  0  0  0  0
   11.0315  -15.1627   27.8019 C   0  0  0  0  0  0  0  0  0  0  0  0
    9.8365  -14.4910   27.5769 C   0  0  0  0  0  0  0  0  0  0  0  0
    9.7800  -13.1260   27.4680 C   0  0  0  0  0  0  0  0  0  0  0  0
   10.9375  -12.3806   27.5830 C   0  0  0  0  0  0  0  0  0  0  0  0
   12.1263  -13.0086   27.8040 C   0  0  0  0  0  0  0  0  0  0  0  0
   12.1638  -14.3796   27.9107 C   0  0  0  0  0  0  0  0  0  0  0  0
   11.6404  -18.7571   26.7315 C   0  0  0  0  0  0  0  0  0  0  0  0
   12.2374  -19.4250   27.6168 O   0  0  0  0  0  0  0  0  0  0  0  0
   10.9524  -19.4578   25.7298 O   0  0  0  0  0  0  0  0  0  0  0  0
  1  2  1  0
  3  2  1  0
  4  5  1  0
  4  3  1  0
  5  6  1  1
  7 15  1  0
  7  5  1  0
  8  7  2  0
 10  9  1  0
 10 12  1  0
 11 10  2  0
 13 12  1  0
 14 13  1  6
 14 15  1  0
 16 18  1  0
 16 14  1  0
 17 16  2  0
 19 18  1  0
 19 27  1  0
 19 20  1  1
 21 22  2  0
 21 20  1  0
 23 22  1  0
 24 23  2  0
 25 24  1  0
 25 26  2  0
 26 21  1  0
 27 29  1  0
 28 27  2  0
M  END
$$$$
