MQF.pdb
     RDKit          3D

 29 29  0  0  1  0  0  0  0  0999 V2000
    7.9789  -11.8230   20.2597 C   0  0  0  0  0  0  0  0  0  0  0  0
    7.8622  -12.8035   18.7976 S   0  0  0  0  0  0  0  0  0  0  0  0
    7.2307  -14.4460   18.9829 C   0  0  0  0  0  0  0  0  0  0  0  0
    6.7924  -14.8044   20.3728 C   0  0  0  0  0  0  0  0  0  0  0  0
    7.8121  -15.6325   21.1126 C   0  0  2  0  0  0  0  0  0  0  0  0
    8.0953  -16.7895   20.2885 N   0  0  0  0  0  0  0  0  0  0  0  0
    7.3787  -16.0697   22.4363 C   0  0  0  0  0  0  0  0  0  0  0  0
    6.1547  -16.0899   22.7145 O   0  0  0  0  0  0  0  0  0  0  0  0
    6.8212  -21.0603   23.9009 N   0  0  0  0  0  0  0  0  0  0  0  0
    6.6915  -20.6434   25.2536 C   0  0  0  0  0  0  0  0  0  0  0  0
    6.3000  -21.4864   26.0971 O   0  0  0  0  0  0  0  0  0  0  0  0
    7.0131  -19.2507   25.6408 C   0  0  0  0  0  0  0  0  0  0  0  0
    7.3491  -18.4869   24.3673 C   0  0  0  0  0  0  0  0  0  0  0  0
    7.8478  -17.0783   24.7169 C   0  0  2  0  0  0  0  0  0  0  0  0
    8.2655  -16.4894   23.4711 N   0  0  0  0  0  0  0  0  0  0  0  0
    9.0462  -17.2808   25.5730 C   0  0  0  0  0  0  0  0  0  0  0  0
    9.4953  -18.4547   25.7945 O   0  0  0  0  0  0  0  0  0  0  0  0
    9.7647  -16.2239   26.1925 N   0  0  0  0  0  0  0  0  0  0  0  0
    9.6238  -15.9279   27.6217 C   0  0  1  0  0  0  0  0  0  0  0  0
    8.2260  -15.4652   27.9312 C   0  0  0  0  0  0  0  0  0  0  0  0
    7.9020  -14.1873   27.2597 C   0  0  0  0  0  0  0  0  0  0  0  0
    8.8000  -13.1275   27.2465 C   0  0  0  0  0  0  0  0  0  0  0  0
    8.5151  -11.9421   26.6204 C   0  0  0  0  0  0  0  0  0  0  0  0
    7.3027  -11.7799   25.9784 C   0  0  0  0  0  0  0  0  0  0  0  0
    6.3995  -12.8001   25.9726 C   0  0  0  0  0  0  0  0  0  0  0  0
    6.7028  -13.9829   26.6062 C   0  0  0  0  0  0  0  0  0  0  0  0
   10.0811  -17.0644   28.4270 C   0  0  0  0  0  0  0  0  0  0  0  0
   10.3642  -16.9870   29.6518 O   0  0  0  0  0  0  0  0  0  0  0  0
   10.2116  -18.3116   27.7984 O   0  0  0  0  0  0  0  0  0  0  0  0
  1  2  1  0
  3  2  1  0
  4  5  1  0
  4  3  1  0
  5  6  1  6
  7 15  1  0
  7  5  1  0
  8  7  2  0
 10  9  1  0
 10 12  1  0
 11 10  2  0
 13 12  1  0
 14 13  1  6
 14 15  1  0
 16 18  1  0
 16 14  1  0
 17 16  2  0
 19 18  1  0
 19 27  1  0
 19 20  1  6
 21 22  2  0
 21 20  1  0
 23 22  1  0
 24 23  2  0
 25 24  1  0
 25 26  2  0
 26 21  1  0
 27 29  1  0
 28 27  2  0
M  END
$$$$
