MQF.pdb
     RDKit          3D

 29 29  0  0  1  0  0  0  0  0999 V2000
    8.1321  -11.6942   20.1927 C   0  0  0  0  0  0  0  0  0  0  0  0
    6.9662  -12.8519   20.8355 S   0  0  0  0  0  0  0  0  0  0  0  0
    7.4720  -14.5463   20.9000 C   0  0  0  0  0  0  0  0  0  0  0  0
    8.8629  -14.8127   20.4033 C   0  0  0  0  0  0  0  0  0  0  0  0
    9.2446  -16.2689   20.4854 C   0  0  2  0  0  0  0  0  0  0  0  0
    8.3118  -16.9981   19.6511 N   0  0  0  0  0  0  0  0  0  0  0  0
    9.2209  -16.8164   21.8385 C   0  0  0  0  0  0  0  0  0  0  0  0
    8.1939  -17.4082   22.2519 O   0  0  0  0  0  0  0  0  0  0  0  0
   10.8792  -20.2681   25.4476 N   0  0  0  0  0  0  0  0  0  0  0  0
   11.0399  -20.5228   24.0584 C   0  0  0  0  0  0  0  0  0  0  0  0
   10.7208  -21.6565   23.6244 O   0  0  0  0  0  0  0  0  0  0  0  0
   11.5698  -19.4701   23.1617 C   0  0  0  0  0  0  0  0  0  0  0  0
   11.7127  -18.1967   23.9841 C   0  0  0  0  0  0  0  0  0  0  0  0
   10.3800  -17.4363   24.0089 C   0  0  2  0  0  0  0  0  0  0  0  0
   10.3083  -16.7288   22.7569 N   0  0  0  0  0  0  0  0  0  0  0  0
   10.5073  -16.4447   25.1092 C   0  0  0  0  0  0  0  0  0  0  0  0
   11.3622  -15.4999   25.0364 O   0  0  0  0  0  0  0  0  0  0  0  0
    9.7171  -16.4652   26.2892 N   0  0  0  0  0  0  0  0  0  0  0  0
   10.0167  -15.6000   27.4345 C   0  0  1  0  0  0  0  0  0  0  0  0
    8.7506  -15.0241   28.0083 C   0  0  0  0  0  0  0  0  0  0  0  0
    8.1180  -14.0499   27.0920 C   0  0  0  0  0  0  0  0  0  0  0  0
    7.1126  -14.4299   26.2119 C   0  0  0  0  0  0  0  0  0  0  0  0
    6.5129  -13.5351   25.3645 C   0  0  0  0  0  0  0  0  0  0  0  0
    6.9086  -12.2115   25.3731 C   0  0  0  0  0  0  0  0  0  0  0  0
    7.8921  -11.8061   26.2245 C   0  0  0  0  0  0  0  0  0  0  0  0
    8.4827  -12.7182   27.0681 C   0  0  0  0  0  0  0  0  0  0  0  0
   10.8575  -16.3081   28.4045 C   0  0  0  0  0  0  0  0  0  0  0  0
   11.0937  -17.5443   28.3570 O   0  0  0  0  0  0  0  0  0  0  0  0
   11.4336  -15.5671   29.4469 O   0  0  0  0  0  0  0  0  0  0  0  0
  1  2  1  0
  3  2  1  0
  4  5  1  0
  4  3  1  0
  5  6  1  6
  7 15  1  0
  7  5  1  0
  8  7  2  0
 10  9  1  0
 10 12  1  0
 11 10  2  0
 13 12  1  0
 14 13  1  6
 14 15  1  0
 16 18  1  0
 16 14  1  0
 17 16  2  0
 19 18  1  0
 19 27  1  0
 19 20  1  1
 21 22  2  0
 21 20  1  0
 23 22  1  0
 24 23  2  0
 25 24  1  0
 25 26  2  0
 26 21  1  0
 27 29  1  0
 28 27  2  0
M  END
$$$$
