MQF.pdb
     RDKit          3D

 29 29  0  0  1  0  0  0  0  0999 V2000
    8.2228  -11.3773   19.8319 C   0  0  0  0  0  0  0  0  0  0  0  0
    7.4816  -12.3633   18.5705 S   0  0  0  0  0  0  0  0  0  0  0  0
    7.7975  -14.1035   18.6248 C   0  0  0  0  0  0  0  0  0  0  0  0
    7.5311  -14.7559   19.9499 C   0  0  0  0  0  0  0  0  0  0  0  0
    8.7707  -15.3493   20.5696 C   0  0  2  0  0  0  0  0  0  0  0  0
    9.3113  -16.2930   19.6130 N   0  0  0  0  0  0  0  0  0  0  0  0
    8.5367  -16.0242   21.8427 C   0  0  0  0  0  0  0  0  0  0  0  0
    7.9970  -15.3987   22.7880 O   0  0  0  0  0  0  0  0  0  0  0  0
   11.2538  -21.0080   22.5875 N   0  0  0  0  0  0  0  0  0  0  0  0
   10.4504  -20.6499   21.4709 C   0  0  0  0  0  0  0  0  0  0  0  0
   10.7841  -21.0804   20.3402 O   0  0  0  0  0  0  0  0  0  0  0  0
    9.2567  -19.7927   21.6530 C   0  0  0  0  0  0  0  0  0  0  0  0
    9.1228  -19.5037   23.1419 C   0  0  0  0  0  0  0  0  0  0  0  0
    8.6542  -18.0581   23.3554 C   0  0  2  0  0  0  0  0  0  0  0  0
    8.8841  -17.3822   22.1050 N   0  0  0  0  0  0  0  0  0  0  0  0
    9.5699  -17.4892   24.3791 C   0  0  0  0  0  0  0  0  0  0  0  0
   10.7767  -17.1994   24.0818 O   0  0  0  0  0  0  0  0  0  0  0  0
    9.1919  -17.2303   25.7234 N   0  0  0  0  0  0  0  0  0  0  0  0
   10.1068  -16.5894   26.6733 C   0  0  1  0  0  0  0  0  0  0  0  0
   10.4216  -15.1837   26.2388 C   0  0  0  0  0  0  0  0  0  0  0  0
    9.2464  -14.2917   26.3487 C   0  0  0  0  0  0  0  0  0  0  0  0
    9.2226  -13.2315   27.2460 C   0  0  0  0  0  0  0  0  0  0  0  0
    8.1436  -12.3931   27.3509 C   0  0  0  0  0  0  0  0  0  0  0  0
    7.0380  -12.5945   26.5474 C   0  0  0  0  0  0  0  0  0  0  0  0
    7.0294  -13.6255   25.6565 C   0  0  0  0  0  0  0  0  0  0  0  0
    8.1215  -14.4569   25.5649 C   0  0  0  0  0  0  0  0  0  0  0  0
    9.5874  -16.7023   28.0396 C   0  0  0  0  0  0  0  0  0  0  0  0
    8.4643  -17.1963   28.3240 O   0  0  0  0  0  0  0  0  0  0  0  0
   10.3865  -16.2335   29.0928 O   0  0  0  0  0  0  0  0  0  0  0  0
  1  2  1  0
  3  2  1  0
  4  5  1  0
  4  3  1  0
  5  6  1  6
  7 15  1  0
  7  5  1  0
  8  7  2  0
 10  9  1  0
 10 12  1  0
 11 10  2  0
 13 12  1  0
 14 13  1  6
 14 15  1  0
 16 18  1  0
 16 14  1  0
 17 16  2  0
 19 18  1  0
 19 27  1  0
 19 20  1  6
 21 22  2  0
 21 20  1  0
 23 22  1  0
 24 23  2  0
 25 24  1  0
 25 26  2  0
 26 21  1  0
 27 29  1  0
 28 27  2  0
M  END
$$$$
