MQF.pdb
     RDKit          3D

 29 29  0  0  1  0  0  0  0  0999 V2000
    7.5938  -11.4948   19.1221 C   0  0  0  0  0  0  0  0  0  0  0  0
    7.3147  -13.0976   18.4395 S   0  0  0  0  0  0  0  0  0  0  0  0
    7.7871  -14.4843   19.4320 C   0  0  0  0  0  0  0  0  0  0  0  0
    8.8699  -14.2082   20.4338 C   0  0  0  0  0  0  0  0  0  0  0  0
    9.1436  -15.3830   21.3381 C   0  0  2  0  0  0  0  0  0  0  0  0
    9.3429  -16.5361   20.4846 N   0  0  0  0  0  0  0  0  0  0  0  0
    8.0760  -15.6615   22.2941 C   0  0  0  0  0  0  0  0  0  0  0  0
    7.4770  -14.7096   22.8517 O   0  0  0  0  0  0  0  0  0  0  0  0
    6.9882  -19.9872   20.8168 N   0  0  0  0  0  0  0  0  0  0  0  0
    6.0292  -18.9755   21.0952 C   0  0  0  0  0  0  0  0  0  0  0  0
    5.8266  -18.0967   20.2223 O   0  0  0  0  0  0  0  0  0  0  0  0
    5.2982  -18.9725   22.3830 C   0  0  0  0  0  0  0  0  0  0  0  0
    6.3208  -18.7554   23.4900 C   0  0  0  0  0  0  0  0  0  0  0  0
    6.6290  -17.2589   23.6330 C   0  0  2  0  0  0  0  0  0  0  0  0
    7.6465  -16.9724   22.6554 N   0  0  0  0  0  0  0  0  0  0  0  0
    7.2150  -17.1004   24.9901 C   0  0  0  0  0  0  0  0  0  0  0  0
    6.5383  -17.4025   26.0291 O   0  0  0  0  0  0  0  0  0  0  0  0
    8.5282  -16.6178   25.2343 N   0  0  0  0  0  0  0  0  0  0  0  0
    8.9969  -16.3049   26.5880 C   0  0  1  0  0  0  0  0  0  0  0  0
    7.9268  -15.5888   27.3664 C   0  0  0  0  0  0  0  0  0  0  0  0
    7.5625  -14.2945   26.7492 C   0  0  0  0  0  0  0  0  0  0  0  0
    6.2395  -13.8796   26.6629 C   0  0  0  0  0  0  0  0  0  0  0  0
    5.8902  -12.6791   26.1014 C   0  0  0  0  0  0  0  0  0  0  0  0
    6.8712  -11.8447   25.6014 C   0  0  0  0  0  0  0  0  0  0  0  0
    8.1786  -12.2220   25.6706 C   0  0  0  0  0  0  0  0  0  0  0  0
    8.5106  -13.4305   26.2378 C   0  0  0  0  0  0  0  0  0  0  0  0
    9.5205  -17.5094   27.2393 C   0  0  0  0  0  0  0  0  0  0  0  0
    9.5713  -18.6398   26.6861 O   0  0  0  0  0  0  0  0  0  0  0  0
    9.9930  -17.3985   28.5554 O   0  0  0  0  0  0  0  0  0  0  0  0
  1  2  1  0
  3  2  1  0
  4  5  1  0
  4  3  1  0
  5  6  1  6
  7 15  1  0
  7  5  1  0
  8  7  2  0
 10  9  1  0
 10 12  1  0
 11 10  2  0
 13 12  1  0
 14 13  1  6
 14 15  1  0
 16 18  1  0
 16 14  1  0
 17 16  2  0
 19 18  1  0
 19 27  1  0
 19 20  1  1
 21 22  2  0
 21 20  1  0
 23 22  1  0
 24 23  2  0
 25 24  1  0
 25 26  2  0
 26 21  1  0
 27 29  1  0
 28 27  2  0
M  END
$$$$
