MQF.pdb
     RDKit          3D

 29 29  0  0  1  0  0  0  0  0999 V2000
    7.7758  -11.4038   19.1242 C   0  0  0  0  0  0  0  0  0  0  0  0
    8.0472  -12.7858   20.1868 S   0  0  0  0  0  0  0  0  0  0  0  0
    6.6889  -13.8957   20.4202 C   0  0  0  0  0  0  0  0  0  0  0  0
    6.9139  -14.9668   21.4471 C   0  0  0  0  0  0  0  0  0  0  0  0
    8.1919  -15.7341   21.2218 C   0  0  2  0  0  0  0  0  0  0  0  0
    7.9744  -16.5898   20.0737 N   0  0  0  0  0  0  0  0  0  0  0  0
    8.6106  -16.5437   22.3622 C   0  0  0  0  0  0  0  0  0  0  0  0
    7.8535  -17.4467   22.7950 O   0  0  0  0  0  0  0  0  0  0  0  0
   12.7390  -16.7070   21.5107 N   0  0  0  0  0  0  0  0  0  0  0  0
   12.3188  -18.0648   21.4873 C   0  0  0  0  0  0  0  0  0  0  0  0
   12.4909  -18.7186   20.4298 O   0  0  0  0  0  0  0  0  0  0  0  0
   11.6976  -18.6759   22.6846 C   0  0  0  0  0  0  0  0  0  0  0  0
   11.7237  -17.6356   23.7961 C   0  0  0  0  0  0  0  0  0  0  0  0
   10.2928  -17.2036   24.1436 C   0  0  2  0  0  0  0  0  0  0  0  0
    9.8524  -16.3839   23.0448 N   0  0  0  0  0  0  0  0  0  0  0  0
   10.4170  -16.3498   25.3542 C   0  0  0  0  0  0  0  0  0  0  0  0
   11.1240  -15.2877   25.3302 O   0  0  0  0  0  0  0  0  0  0  0  0
    9.7825  -16.6345   26.5926 N   0  0  0  0  0  0  0  0  0  0  0  0
   10.1290  -15.9138   27.8217 C   0  0  1  0  0  0  0  0  0  0  0  0
    8.9042  -15.2875   28.4312 C   0  0  0  0  0  0  0  0  0  0  0  0
    8.3212  -14.2440   27.5594 C   0  0  0  0  0  0  0  0  0  0  0  0
    8.7730  -12.9309   27.5990 C   0  0  0  0  0  0  0  0  0  0  0  0
    8.2471  -11.9573   26.7904 C   0  0  0  0  0  0  0  0  0  0  0  0
    7.2365  -12.2746   25.9035 C   0  0  0  0  0  0  0  0  0  0  0  0
    6.7707  -13.5534   25.8397 C   0  0  0  0  0  0  0  0  0  0  0  0
    7.3106  -14.5176   26.6589 C   0  0  0  0  0  0  0  0  0  0  0  0
   10.8837  -16.7833   28.7292 C   0  0  0  0  0  0  0  0  0  0  0  0
   11.0628  -18.0145   28.5332 O   0  0  0  0  0  0  0  0  0  0  0  0
   11.4398  -16.2125   29.8836 O   0  0  0  0  0  0  0  0  0  0  0  0
  1  2  1  0
  3  2  1  0
  4  5  1  0
  4  3  1  0
  5  6  1  6
  7 15  1  0
  7  5  1  0
  8  7  2  0
 10  9  1  0
 10 12  1  0
 11 10  2  0
 13 12  1  0
 14 13  1  6
 14 15  1  0
 16 18  1  0
 16 14  1  0
 17 16  2  0
 19 18  1  0
 19 27  1  0
 19 20  1  1
 21 22  2  0
 21 20  1  0
 23 22  1  0
 24 23  2  0
 25 24  1  0
 25 26  2  0
 26 21  1  0
 27 29  1  0
 28 27  2  0
M  END
$$$$
