MQF.pdb
     RDKit          3D

 29 29  0  0  1  0  0  0  0  0999 V2000
    8.8946  -11.4233   19.3213 C   0  0  0  0  0  0  0  0  0  0  0  0
    8.6385  -13.0084   20.0527 S   0  0  0  0  0  0  0  0  0  0  0  0
    7.0500  -13.7517   19.8179 C   0  0  0  0  0  0  0  0  0  0  0  0
    6.8297  -15.0301   20.5726 C   0  0  0  0  0  0  0  0  0  0  0  0
    7.9752  -15.9996   20.4280 C   0  0  2  0  0  0  0  0  0  0  0  0
    7.6395  -16.8907   19.3366 N   0  0  0  0  0  0  0  0  0  0  0  0
    8.2506  -16.7812   21.6298 C   0  0  0  0  0  0  0  0  0  0  0  0
    7.3348  -17.4634   22.1512 O   0  0  0  0  0  0  0  0  0  0  0  0
    9.4442  -19.3391   19.7467 N   0  0  0  0  0  0  0  0  0  0  0  0
   10.1889  -19.6233   20.9236 C   0  0  0  0  0  0  0  0  0  0  0  0
   10.0827  -20.7675   21.4285 O   0  0  0  0  0  0  0  0  0  0  0  0
   11.0609  -18.5883   21.5247 C   0  0  0  0  0  0  0  0  0  0  0  0
   10.8601  -18.6394   23.0332 C   0  0  0  0  0  0  0  0  0  0  0  0
    9.8046  -17.6091   23.4568 C   0  0  2  0  0  0  0  0  0  0  0  0
    9.5194  -16.8321   22.2786 N   0  0  0  0  0  0  0  0  0  0  0  0
   10.4785  -16.7343   24.4521 C   0  0  0  0  0  0  0  0  0  0  0  0
   11.3755  -15.9040   24.0852 O   0  0  0  0  0  0  0  0  0  0  0  0
   10.1906  -16.7490   25.8428 N   0  0  0  0  0  0  0  0  0  0  0  0
   10.8244  -15.8090   26.7728 C   0  0  1  0  0  0  0  0  0  0  0  0
   10.5469  -14.3886   26.3610 C   0  0  0  0  0  0  0  0  0  0  0  0
    9.1438  -13.9985   26.6213 C   0  0  0  0  0  0  0  0  0  0  0  0
    8.8072  -13.1697   27.6842 C   0  0  0  0  0  0  0  0  0  0  0  0
    7.5124  -12.7943   27.9305 C   0  0  0  0  0  0  0  0  0  0  0  0
    6.4992  -13.2449   27.1065 C   0  0  0  0  0  0  0  0  0  0  0  0
    6.7956  -14.0592   26.0550 C   0  0  0  0  0  0  0  0  0  0  0  0
    8.1011  -14.4257   25.8230 C   0  0  0  0  0  0  0  0  0  0  0  0
   10.4509  -16.1262   28.1545 C   0  0  0  0  0  0  0  0  0  0  0  0
   10.8922  -15.5083   29.1595 O   0  0  0  0  0  0  0  0  0  0  0  0
    9.5497  -17.1788   28.3720 O   0  0  0  0  0  0  0  0  0  0  0  0
  1  2  1  0
  3  2  1  0
  4  5  1  0
  4  3  1  0
  5  6  1  6
  7 15  1  0
  7  5  1  0
  8  7  2  0
 10  9  1  0
 10 12  1  0
 11 10  2  0
 13 12  1  0
 14 13  1  6
 14 15  1  0
 16 18  1  0
 16 14  1  0
 17 16  2  0
 19 18  1  0
 19 27  1  0
 19 20  1  6
 21 22  2  0
 21 20  1  0
 23 22  1  0
 24 23  2  0
 25 24  1  0
 25 26  2  0
 26 21  1  0
 27 29  1  0
 28 27  2  0
M  END
$$$$
