MQF.pdb
     RDKit          3D

 29 29  0  0  1  0  0  0  0  0999 V2000
    6.2270  -11.7923   19.0183 C   0  0  0  0  0  0  0  0  0  0  0  0
    7.5670  -12.1915   17.9422 S   0  0  0  0  0  0  0  0  0  0  0  0
    8.3181  -13.7796   18.1533 C   0  0  0  0  0  0  0  0  0  0  0  0
    8.1484  -14.3859   19.5157 C   0  0  0  0  0  0  0  0  0  0  0  0
    9.4444  -14.8917   20.0966 C   0  0  2  0  0  0  0  0  0  0  0  0
   10.1558  -15.5588   19.0256 N   0  0  0  0  0  0  0  0  0  0  0  0
    9.2769  -15.8107   21.2185 C   0  0  0  0  0  0  0  0  0  0  0  0
    8.4894  -15.5166   22.1508 O   0  0  0  0  0  0  0  0  0  0  0  0
   11.9511  -21.7036   21.9896 N   0  0  0  0  0  0  0  0  0  0  0  0
   11.4232  -21.0287   20.8554 C   0  0  0  0  0  0  0  0  0  0  0  0
   11.8690  -21.3371   19.7235 O   0  0  0  0  0  0  0  0  0  0  0  0
   10.3772  -19.9936   21.0213 C   0  0  0  0  0  0  0  0  0  0  0  0
   10.7866  -19.1119   22.1932 C   0  0  0  0  0  0  0  0  0  0  0  0
    9.7458  -18.0042   22.4046 C   0  0  2  0  0  0  0  0  0  0  0  0
    9.9597  -17.0565   21.3419 N   0  0  0  0  0  0  0  0  0  0  0  0
   10.1053  -17.3606   23.6956 C   0  0  0  0  0  0  0  0  0  0  0  0
   11.0470  -16.5012   23.7529 O   0  0  0  0  0  0  0  0  0  0  0  0
    9.4546  -17.6381   24.9271 N   0  0  0  0  0  0  0  0  0  0  0  0
    8.9733  -16.5668   25.8051 C   0  0  1  0  0  0  0  0  0  0  0  0
    8.1523  -15.5740   25.0278 C   0  0  0  0  0  0  0  0  0  0  0  0
    7.6669  -14.4661   25.8797 C   0  0  0  0  0  0  0  0  0  0  0  0
    8.5452  -13.6736   26.6080 C   0  0  0  0  0  0  0  0  0  0  0  0
    8.1086  -12.6390   27.3937 C   0  0  0  0  0  0  0  0  0  0  0  0
    6.7574  -12.3626   27.4750 C   0  0  0  0  0  0  0  0  0  0  0  0
    5.8694  -13.1210   26.7730 C   0  0  0  0  0  0  0  0  0  0  0  0
    6.3258  -14.1554   25.9893 C   0  0  0  0  0  0  0  0  0  0  0  0
    8.2972  -17.1308   26.9772 C   0  0  0  0  0  0  0  0  0  0  0  0
    7.2966  -17.8929   26.9102 O   0  0  0  0  0  0  0  0  0  0  0  0
    8.7920  -16.8039   28.2484 O   0  0  0  0  0  0  0  0  0  0  0  0
  1  2  1  0
  3  2  1  0
  4  5  1  0
  4  3  1  0
  5  6  1  6
  7 15  1  0
  7  5  1  0
  8  7  2  0
 10  9  1  0
 10 12  1  0
 11 10  2  0
 13 12  1  0
 14 13  1  6
 14 15  1  0
 16 18  1  0
 16 14  1  0
 17 16  2  0
 19 18  1  0
 19 27  1  0
 19 20  1  6
 21 22  2  0
 21 20  1  0
 23 22  1  0
 24 23  2  0
 25 24  1  0
 25 26  2  0
 26 21  1  0
 27 29  1  0
 28 27  2  0
M  END
$$$$
