MQF.pdb
     RDKit          3D

 29 29  0  0  1  0  0  0  0  0999 V2000
    7.9667  -11.2426   19.6540 C   0  0  0  0  0  0  0  0  0  0  0  0
    7.0051  -12.5479   18.9580 S   0  0  0  0  0  0  0  0  0  0  0  0
    7.6360  -14.1913   19.1377 C   0  0  0  0  0  0  0  0  0  0  0  0
    7.4633  -14.7916   20.5023 C   0  0  0  0  0  0  0  0  0  0  0  0
    8.7685  -15.2234   21.1210 C   0  0  2  0  0  0  0  0  0  0  0  0
    9.4595  -16.0263   20.1331 N   0  0  0  0  0  0  0  0  0  0  0  0
    8.6194  -15.9889   22.3551 C   0  0  0  0  0  0  0  0  0  0  0  0
    7.8900  -15.5472   23.2764 O   0  0  0  0  0  0  0  0  0  0  0  0
    7.8188  -20.9622   22.1529 N   0  0  0  0  0  0  0  0  0  0  0  0
    8.8781  -20.4162   21.3780 C   0  0  0  0  0  0  0  0  0  0  0  0
    8.9301  -20.7086   20.1586 O   0  0  0  0  0  0  0  0  0  0  0  0
    9.8838  -19.5293   22.0064 C   0  0  0  0  0  0  0  0  0  0  0  0
    9.5415  -19.4243   23.4863 C   0  0  0  0  0  0  0  0  0  0  0  0
    9.1524  -17.9811   23.8334 C   0  0  2  0  0  0  0  0  0  0  0  0
    9.2580  -17.2395   22.6038 N   0  0  0  0  0  0  0  0  0  0  0  0
   10.2013  -17.4999   24.7708 C   0  0  0  0  0  0  0  0  0  0  0  0
   11.2036  -18.2361   25.0573 O   0  0  0  0  0  0  0  0  0  0  0  0
   10.1763  -16.2278   25.4019 N   0  0  0  0  0  0  0  0  0  0  0  0
    9.4557  -16.0033   26.6591 C   0  0  1  0  0  0  0  0  0  0  0  0
    8.0011  -15.7251   26.3931 C   0  0  0  0  0  0  0  0  0  0  0  0
    7.7126  -14.2749   26.3440 C   0  0  0  0  0  0  0  0  0  0  0  0
    8.7108  -13.3459   26.0783 C   0  0  0  0  0  0  0  0  0  0  0  0
    8.4544  -12.0008   26.0215 C   0  0  0  0  0  0  0  0  0  0  0  0
    7.1700  -11.5381   26.2327 C   0  0  0  0  0  0  0  0  0  0  0  0
    6.1679  -12.4231   26.4957 C   0  0  0  0  0  0  0  0  0  0  0  0
    6.4438  -13.7697   26.5487 C   0  0  0  0  0  0  0  0  0  0  0  0
    9.7037  -17.1046   27.5945 C   0  0  0  0  0  0  0  0  0  0  0  0
   10.3203  -16.9729   28.6848 O   0  0  0  0  0  0  0  0  0  0  0  0
    9.2270  -18.3800   27.2573 O   0  0  0  0  0  0  0  0  0  0  0  0
  1  2  1  0
  3  2  1  0
  4  5  1  0
  4  3  1  0
  5  6  1  6
  7 15  1  0
  7  5  1  0
  8  7  2  0
 10  9  1  0
 10 12  1  0
 11 10  2  0
 13 12  1  0
 14 13  1  6
 14 15  1  0
 16 18  1  0
 16 14  1  0
 17 16  2  0
 19 18  1  0
 19 27  1  0
 19 20  1  6
 21 22  2  0
 21 20  1  0
 23 22  1  0
 24 23  2  0
 25 24  1  0
 25 26  2  0
 26 21  1  0
 27 29  1  0
 28 27  2  0
M  END
$$$$
