MQF.pdb
     RDKit          3D

 29 29  0  0  1  0  0  0  0  0999 V2000
    5.8873  -11.6298   19.5026 C   0  0  0  0  0  0  0  0  0  0  0  0
    7.1394  -12.1668   18.3816 S   0  0  0  0  0  0  0  0  0  0  0  0
    8.4221  -13.1902   19.0437 C   0  0  0  0  0  0  0  0  0  0  0  0
    8.2781  -13.5260   20.4994 C   0  0  0  0  0  0  0  0  0  0  0  0
    9.4724  -14.2626   21.0507 C   0  0  2  0  0  0  0  0  0  0  0  0
   10.1045  -14.9375   19.9358 N   0  0  0  0  0  0  0  0  0  0  0  0
    9.1461  -15.2353   22.0892 C   0  0  0  0  0  0  0  0  0  0  0  0
    8.2454  -14.9750   22.9240 O   0  0  0  0  0  0  0  0  0  0  0  0
    7.9324  -19.9388   20.3439 N   0  0  0  0  0  0  0  0  0  0  0  0
    8.7478  -19.9304   21.5082 C   0  0  0  0  0  0  0  0  0  0  0  0
    8.3224  -20.5186   22.5321 O   0  0  0  0  0  0  0  0  0  0  0  0
   10.0593  -19.2429   21.4975 C   0  0  0  0  0  0  0  0  0  0  0  0
   10.3120  -18.7156   22.9034 C   0  0  0  0  0  0  0  0  0  0  0  0
    9.4036  -17.5106   23.1825 C   0  0  2  0  0  0  0  0  0  0  0  0
    9.7911  -16.4989   22.2341 N   0  0  0  0  0  0  0  0  0  0  0  0
    9.7654  -17.0465   24.5477 C   0  0  0  0  0  0  0  0  0  0  0  0
   10.8724  -16.4475   24.7581 O   0  0  0  0  0  0  0  0  0  0  0  0
    8.9395  -17.2244   25.6894 N   0  0  0  0  0  0  0  0  0  0  0  0
    9.2906  -16.6530   26.9934 C   0  0  1  0  0  0  0  0  0  0  0  0
    8.1073  -15.9473   27.5981 C   0  0  0  0  0  0  0  0  0  0  0  0
    7.7778  -14.6977   26.8779 C   0  0  0  0  0  0  0  0  0  0  0  0
    6.6476  -14.5998   26.0761 C   0  0  0  0  0  0  0  0  0  0  0  0
    6.3269  -13.4452   25.4110 C   0  0  0  0  0  0  0  0  0  0  0  0
    7.1418  -12.3361   25.5306 C   0  0  0  0  0  0  0  0  0  0  0  0
    8.2581  -12.3989   26.3094 C   0  0  0  0  0  0  0  0  0  0  0  0
    8.5641  -13.5662   26.9699 C   0  0  0  0  0  0  0  0  0  0  0  0
    9.8949  -17.6748   27.8536 C   0  0  0  0  0  0  0  0  0  0  0  0
   10.3842  -17.4352   28.9892 O   0  0  0  0  0  0  0  0  0  0  0  0
    9.9311  -18.9969   27.3864 O   0  0  0  0  0  0  0  0  0  0  0  0
  1  2  1  0
  3  2  1  0
  4  5  1  0
  4  3  1  0
  5  6  1  6
  7 15  1  0
  7  5  1  0
  8  7  2  0
 10  9  1  0
 10 12  1  0
 11 10  2  0
 13 12  1  0
 14 13  1  6
 14 15  1  0
 16 18  1  0
 16 14  1  0
 17 16  2  0
 19 18  1  0
 19 27  1  0
 19 20  1  1
 21 22  2  0
 21 20  1  0
 23 22  1  0
 24 23  2  0
 25 24  1  0
 25 26  2  0
 26 21  1  0
 27 29  1  0
 28 27  2  0
M  END
$$$$
