MQF.pdb
     RDKit          3D

 29 29  0  0  1  0  0  0  0  0999 V2000
   13.7201  -19.0842   14.8776 C   0  0  0  0  0  0  0  0  0  0  0  0
   13.5966  -17.8836   16.1645 S   0  0  0  0  0  0  0  0  0  0  0  0
   12.9489  -18.4358   17.7158 C   0  0  0  0  0  0  0  0  0  0  0  0
   12.6338  -17.3443   18.6966 C   0  0  0  0  0  0  0  0  0  0  0  0
   12.1038  -17.8700   20.0064 C   0  0  2  0  0  0  0  0  0  0  0  0
   11.0758  -18.8393   19.6881 N   0  0  0  0  0  0  0  0  0  0  0  0
   11.5509  -16.8411   20.8822 C   0  0  0  0  0  0  0  0  0  0  0  0
   12.2702  -15.8763   21.2393 O   0  0  0  0  0  0  0  0  0  0  0  0
    5.8037  -15.2763   20.4631 N   0  0  0  0  0  0  0  0  0  0  0  0
    6.8990  -14.7984   19.6933 C   0  0  0  0  0  0  0  0  0  0  0  0
    6.6545  -14.2730   18.5800 O   0  0  0  0  0  0  0  0  0  0  0  0
    8.2832  -14.9240   20.2043 C   0  0  0  0  0  0  0  0  0  0  0  0
    8.2087  -15.5921   21.5704 C   0  0  0  0  0  0  0  0  0  0  0  0
    9.6211  -15.7781   22.1409 C   0  0  2  0  0  0  0  0  0  0  0  0
   10.2144  -16.8466   21.3796 N   0  0  0  0  0  0  0  0  0  0  0  0
    9.4279  -16.2413   23.5403 C   0  0  0  0  0  0  0  0  0  0  0  0
    9.5242  -17.4796   23.8337 O   0  0  0  0  0  0  0  0  0  0  0  0
    9.1314  -15.3763   24.6270 N   0  0  0  0  0  0  0  0  0  0  0  0
    8.8426  -15.8926   25.9687 C   0  0  1  0  0  0  0  0  0  0  0  0
    8.8736  -14.7807   26.9819 C   0  0  0  0  0  0  0  0  0  0  0  0
    8.0219  -13.6394   26.5807 C   0  0  0  0  0  0  0  0  0  0  0  0
    8.3617  -12.8228   25.5095 C   0  0  0  0  0  0  0  0  0  0  0  0
    7.5767  -11.7681   25.1228 C   0  0  0  0  0  0  0  0  0  0  0  0
    6.4089  -11.4949   25.8085 C   0  0  0  0  0  0  0  0  0  0  0  0
    6.0468  -12.2768   26.8640 C   0  0  0  0  0  0  0  0  0  0  0  0
    6.8471  -13.3313   27.2379 C   0  0  0  0  0  0  0  0  0  0  0  0
    7.6021  -16.6739   25.9601 C   0  0  0  0  0  0  0  0  0  0  0  0
    6.7750  -16.6659   25.0103 O   0  0  0  0  0  0  0  0  0  0  0  0
    7.3181  -17.4779   27.0739 O   0  0  0  0  0  0  0  0  0  0  0  0
  1  2  1  0
  3  2  1  0
  4  5  1  0
  4  3  1  0
  5  6  1  6
  7 15  1  0
  7  5  1  0
  8  7  2  0
 10  9  1  0
 10 12  1  0
 11 10  2  0
 13 12  1  0
 14 13  1  6
 14 15  1  0
 16 18  1  0
 16 14  1  0
 17 16  2  0
 19 18  1  0
 19 27  1  0
 19 20  1  1
 21 22  2  0
 21 20  1  0
 23 22  1  0
 24 23  2  0
 25 24  1  0
 25 26  2  0
 26 21  1  0
 27 29  1  0
 28 27  2  0
M  END
$$$$
