MQF.pdb
     RDKit          3D

 29 29  0  0  1  0  0  0  0  0999 V2000
    7.8794  -11.1883   20.9844 C   0  0  0  0  0  0  0  0  0  0  0  0
    7.4402  -12.0732   19.5226 S   0  0  0  0  0  0  0  0  0  0  0  0
    8.0411  -13.7314   19.3791 C   0  0  0  0  0  0  0  0  0  0  0  0
    8.1197  -14.4919   20.6706 C   0  0  0  0  0  0  0  0  0  0  0  0
    8.6889  -15.8775   20.4999 C   0  0  2  0  0  0  0  0  0  0  0  0
    7.7980  -16.5938   19.6104 N   0  0  0  0  0  0  0  0  0  0  0  0
    8.8344  -16.6205   21.7480 C   0  0  0  0  0  0  0  0  0  0  0  0
    7.8819  -17.3216   22.1689 O   0  0  0  0  0  0  0  0  0  0  0  0
   11.7695  -19.2490   20.0794 N   0  0  0  0  0  0  0  0  0  0  0  0
   12.2923  -18.9369   21.3639 C   0  0  0  0  0  0  0  0  0  0  0  0
   13.4133  -18.3757   21.4254 O   0  0  0  0  0  0  0  0  0  0  0  0
   11.5240  -19.2706   22.5851 C   0  0  0  0  0  0  0  0  0  0  0  0
   11.6105  -18.0738   23.5224 C   0  0  0  0  0  0  0  0  0  0  0  0
   10.2207  -17.4493   23.7050 C   0  0  2  0  0  0  0  0  0  0  0  0
   10.0120  -16.6122   22.5522 N   0  0  0  0  0  0  0  0  0  0  0  0
   10.3278  -16.5834   24.9087 C   0  0  0  0  0  0  0  0  0  0  0  0
   11.0393  -15.5243   24.8857 O   0  0  0  0  0  0  0  0  0  0  0  0
    9.6712  -16.8528   26.1389 N   0  0  0  0  0  0  0  0  0  0  0  0
    9.9087  -16.0392   27.3355 C   0  0  1  0  0  0  0  0  0  0  0  0
    8.6111  -15.5054   27.8788 C   0  0  0  0  0  0  0  0  0  0  0  0
    8.0503  -14.4342   27.0263 C   0  0  0  0  0  0  0  0  0  0  0  0
    6.9444  -14.6572   26.2157 C   0  0  0  0  0  0  0  0  0  0  0  0
    6.4106  -13.6707   25.4283 C   0  0  0  0  0  0  0  0  0  0  0  0
    6.9774  -12.4108   25.4289 C   0  0  0  0  0  0  0  0  0  0  0  0
    8.0630  -12.1590   26.2129 C   0  0  0  0  0  0  0  0  0  0  0  0
    8.5853  -13.1614   26.9970 C   0  0  0  0  0  0  0  0  0  0  0  0
   10.7158  -16.7826   28.3077 C   0  0  0  0  0  0  0  0  0  0  0  0
   11.1320  -16.2953   29.3920 O   0  0  0  0  0  0  0  0  0  0  0  0
   11.0446  -18.1145   28.0150 O   0  0  0  0  0  0  0  0  0  0  0  0
  1  2  1  0
  3  2  1  0
  4  5  1  0
  4  3  1  0
  5  6  1  6
  7 15  1  0
  7  5  1  0
  8  7  2  0
 10  9  1  0
 10 12  1  0
 11 10  2  0
 13 12  1  0
 14 13  1  6
 14 15  1  0
 16 18  1  0
 16 14  1  0
 17 16  2  0
 19 18  1  0
 19 27  1  0
 19 20  1  1
 21 22  2  0
 21 20  1  0
 23 22  1  0
 24 23  2  0
 25 24  1  0
 25 26  2  0
 26 21  1  0
 27 29  1  0
 28 27  2  0
M  END
$$$$
