MQF.pdb
     RDKit          3D

 29 29  0  0  1  0  0  0  0  0999 V2000
    7.2311  -11.6084   19.2780 C   0  0  0  0  0  0  0  0  0  0  0  0
    7.5901  -13.1005   18.4077 S   0  0  0  0  0  0  0  0  0  0  0  0
    8.8618  -14.1325   19.0777 C   0  0  0  0  0  0  0  0  0  0  0  0
    9.8385  -13.4330   19.9773 C   0  0  0  0  0  0  0  0  0  0  0  0
   10.8327  -14.3755   20.6067 C   0  0  2  0  0  0  0  0  0  0  0  0
   11.5816  -14.9833   19.5262 N   0  0  0  0  0  0  0  0  0  0  0  0
   10.2275  -15.4189   21.4291 C   0  0  0  0  0  0  0  0  0  0  0  0
    9.1990  -15.1622   22.1015 O   0  0  0  0  0  0  0  0  0  0  0  0
   11.8224  -21.4399   21.1925 N   0  0  0  0  0  0  0  0  0  0  0  0
   11.1036  -20.7091   20.2077 C   0  0  0  0  0  0  0  0  0  0  0  0
   11.0486  -21.1795   19.0454 O   0  0  0  0  0  0  0  0  0  0  0  0
   10.4438  -19.4307   20.5589 C   0  0  0  0  0  0  0  0  0  0  0  0
   10.8578  -19.0766   21.9807 C   0  0  0  0  0  0  0  0  0  0  0  0
   10.1951  -17.7599   22.4073 C   0  0  2  0  0  0  0  0  0  0  0  0
   10.7295  -16.7497   21.5315 N   0  0  0  0  0  0  0  0  0  0  0  0
   10.6807  -17.4981   23.7878 C   0  0  0  0  0  0  0  0  0  0  0  0
   11.8298  -16.9789   23.9846 O   0  0  0  0  0  0  0  0  0  0  0  0
    9.9338  -17.7930   24.9593 N   0  0  0  0  0  0  0  0  0  0  0  0
    9.6265  -16.7649   25.9586 C   0  0  1  0  0  0  0  0  0  0  0  0
    8.9552  -15.5831   25.3131 C   0  0  0  0  0  0  0  0  0  0  0  0
    8.4944  -14.5924   26.3106 C   0  0  0  0  0  0  0  0  0  0  0  0
    7.1469  -14.2909   26.4636 C   0  0  0  0  0  0  0  0  0  0  0  0
    6.7070  -13.3817   27.3898 C   0  0  0  0  0  0  0  0  0  0  0  0
    7.6179  -12.7366   28.2039 C   0  0  0  0  0  0  0  0  0  0  0  0
    8.9470  -13.0098   28.0794 C   0  0  0  0  0  0  0  0  0  0  0  0
    9.3703  -13.9255   27.1441 C   0  0  0  0  0  0  0  0  0  0  0  0
    8.8853  -17.3478   27.0811 C   0  0  0  0  0  0  0  0  0  0  0  0
    7.8249  -18.0148   26.9502 O   0  0  0  0  0  0  0  0  0  0  0  0
    9.3847  -17.1525   28.3772 O   0  0  0  0  0  0  0  0  0  0  0  0
  1  2  1  0
  3  2  1  0
  4  5  1  0
  4  3  1  0
  5  6  1  6
  7 15  1  0
  7  5  1  0
  8  7  2  0
 10  9  1  0
 10 12  1  0
 11 10  2  0
 13 12  1  0
 14 13  1  6
 14 15  1  0
 16 18  1  0
 16 14  1  0
 17 16  2  0
 19 18  1  0
 19 27  1  0
 19 20  1  6
 21 22  2  0
 21 20  1  0
 23 22  1  0
 24 23  2  0
 25 24  1  0
 25 26  2  0
 26 21  1  0
 27 29  1  0
 28 27  2  0
M  END
$$$$
