TDV.pdb
     RDKit          3D

 23 22  0  0  1  0  0  0  0  0999 V2000
    8.4044  -12.4262   18.4417 C   0  0  0  0  0  0  0  0  0  0  0  0
    8.4736  -13.1627   19.7765 C   0  0  1  0  0  0  0  0  0  0  0  0
    7.4823  -12.6578   20.6348 O   0  0  0  0  0  0  0  0  0  0  0  0
    8.2578  -14.6325   19.5539 C   0  0  2  0  0  0  0  0  0  0  0  0
    6.9706  -14.8335   18.9016 N   0  0  0  0  0  0  0  0  0  0  0  0
    8.3128  -15.3842   20.8420 C   0  0  0  0  0  0  0  0  0  0  0  0
    7.2328  -15.7494   21.3710 O   0  0  0  0  0  0  0  0  0  0  0  0
    9.5511  -15.6731   21.4441 N   0  0  0  0  0  0  0  0  0  0  0  0
    9.5576  -16.4464   22.7386 C   0  0  1  0  0  0  0  0  0  0  0  0
   10.7510  -17.3438   22.6606 C   0  0  0  0  0  0  0  0  0  0  0  0
   11.1544  -18.1279   23.7947 C   0  0  0  0  0  0  0  0  0  0  0  0
   12.2974  -18.4635   24.0843 O   0  0  0  0  0  0  0  0  0  0  0  0
    9.6133  -15.4053   23.7879 C   0  0  0  0  0  0  0  0  0  0  0  0
   10.5514  -14.5311   23.7505 O   0  0  0  0  0  0  0  0  0  0  0  0
   10.1326  -18.5607   24.6722 O   0  0  0  0  0  0  0  0  0  0  0  0
    7.6077  -12.4931   24.6511 C   0  0  0  0  0  0  0  0  0  0  0  0
    7.7124  -13.3092   25.9248 C   0  0  1  0  0  0  0  0  0  0  0  0
    6.4236  -14.0168   26.1776 C   0  0  0  0  0  0  0  0  0  0  0  0
    8.8495  -14.2731   25.8937 C   0  0  2  0  0  0  0  0  0  0  0  0
    8.7003  -15.2853   24.8468 N   0  0  0  0  0  0  0  0  0  0  0  0
    9.0417  -14.9567   27.2234 C   0  0  0  0  0  0  0  0  0  0  0  0
    9.4262  -14.2510   28.3520 O   0  0  0  0  0  0  0  0  0  0  0  0
    8.8588  -16.1949   27.3530 O   0  0  0  0  0  0  0  0  0  0  0  0
  2  1  1  6
  3  2  1  0
  4  5  1  1
  4  2  1  0
  6  4  1  0
  7  6  2  0
  8  6  1  0
  9  8  1  0
  9 10  1  6
 10 11  1  0
 11 15  1  0
 11 12  2  0
 13  9  1  0
 13 20  1  0
 14 13  2  0
 17 16  1  6
 18 17  1  0
 19 20  1  6
 19 17  1  0
 21 19  1  0
 21 22  1  0
 23 21  2  0
M  END
$$$$
