TDV.pdb
     RDKit          3D

 23 22  0  0  1  0  0  0  0  0999 V2000
    8.6543  -12.3794   20.4176 C   0  0  0  0  0  0  0  0  0  0  0  0
    7.9438  -13.1613   19.3164 C   0  0  1  0  0  0  0  0  0  0  0  0
    8.1707  -12.5302   18.0817 O   0  0  0  0  0  0  0  0  0  0  0  0
    8.4693  -14.5681   19.2764 C   0  0  2  0  0  0  0  0  0  0  0  0
    7.8366  -15.2839   18.1764 N   0  0  0  0  0  0  0  0  0  0  0  0
    8.2192  -15.2713   20.5688 C   0  0  0  0  0  0  0  0  0  0  0  0
    7.0918  -15.7928   20.7606 O   0  0  0  0  0  0  0  0  0  0  0  0
    9.2291  -15.3439   21.5456 N   0  0  0  0  0  0  0  0  0  0  0  0
    8.9581  -16.1325   22.8020 C   0  0  1  0  0  0  0  0  0  0  0  0
    9.9999  -17.2046   22.8319 C   0  0  0  0  0  0  0  0  0  0  0  0
   10.2102  -17.9899   24.0161 C   0  0  0  0  0  0  0  0  0  0  0  0
   11.2844  -18.2251   24.5583 O   0  0  0  0  0  0  0  0  0  0  0  0
    9.0443  -15.1326   23.8888 C   0  0  0  0  0  0  0  0  0  0  0  0
   10.1197  -14.4458   24.0211 O   0  0  0  0  0  0  0  0  0  0  0  0
    9.0641  -18.5531   24.6251 O   0  0  0  0  0  0  0  0  0  0  0  0
    7.1679  -12.2196   27.4194 C   0  0  0  0  0  0  0  0  0  0  0  0
    6.9573  -13.2159   26.2959 C   0  0  1  0  0  0  0  0  0  0  0  0
    6.3839  -12.5211   25.1068 C   0  0  0  0  0  0  0  0  0  0  0  0
    8.2086  -13.9414   25.9339 C   0  0  2  0  0  0  0  0  0  0  0  0
    8.0210  -14.8598   24.8095 N   0  0  0  0  0  0  0  0  0  0  0  0
    8.7766  -14.6995   27.1065 C   0  0  0  0  0  0  0  0  0  0  0  0
    9.6078  -14.0876   28.0308 O   0  0  0  0  0  0  0  0  0  0  0  0
    8.5139  -15.9169   27.2855 O   0  0  0  0  0  0  0  0  0  0  0  0
  2  1  1  1
  3  2  1  0
  4  5  1  6
  4  2  1  0
  6  4  1  0
  7  6  2  0
  8  6  1  0
  9  8  1  0
  9 10  1  1
 10 11  1  0
 11 15  1  0
 11 12  2  0
 13  9  1  0
 13 20  1  0
 14 13  2  0
 17 16  1  1
 18 17  1  0
 19 20  1  6
 19 17  1  0
 21 19  1  0
 21 22  1  0
 23 21  2  0
M  END
$$$$
