TDV.pdb
     RDKit          3D

 23 22  0  0  1  0  0  0  0  0999 V2000
    8.8022  -12.4294   20.3751 C   0  0  0  0  0  0  0  0  0  0  0  0
    7.8144  -13.1808   19.4872 C   0  0  1  0  0  0  0  0  0  0  0  0
    7.9494  -12.7314   18.1627 O   0  0  0  0  0  0  0  0  0  0  0  0
    8.0924  -14.6554   19.5582 C   0  0  2  0  0  0  0  0  0  0  0  0
    7.2302  -15.3507   18.6116 N   0  0  0  0  0  0  0  0  0  0  0  0
    7.8767  -15.1762   20.9400 C   0  0  0  0  0  0  0  0  0  0  0  0
    6.6981  -15.3637   21.3343 O   0  0  0  0  0  0  0  0  0  0  0  0
    8.9747  -15.4485   21.7765 N   0  0  0  0  0  0  0  0  0  0  0  0
    8.7180  -16.1111   23.1064 C   0  0  1  0  0  0  0  0  0  0  0  0
    9.6710  -17.2615   23.1689 C   0  0  0  0  0  0  0  0  0  0  0  0
    9.7342  -18.0990   24.3343 C   0  0  0  0  0  0  0  0  0  0  0  0
    8.9895  -18.0579   25.3074 O   0  0  0  0  0  0  0  0  0  0  0  0
    8.9487  -15.0404   24.1007 C   0  0  0  0  0  0  0  0  0  0  0  0
    9.9847  -14.2930   23.9840 O   0  0  0  0  0  0  0  0  0  0  0  0
   10.7588  -19.0739   24.3698 O   0  0  0  0  0  0  0  0  0  0  0  0
    7.1635  -11.8511   25.0924 C   0  0  0  0  0  0  0  0  0  0  0  0
    7.3248  -12.7247   26.3213 C   0  0  1  0  0  0  0  0  0  0  0  0
    6.0311  -13.3986   26.6342 C   0  0  0  0  0  0  0  0  0  0  0  0
    8.4209  -13.7243   26.1717 C   0  0  2  0  0  0  0  0  0  0  0  0
    8.1060  -14.7611   25.1875 N   0  0  0  0  0  0  0  0  0  0  0  0
    8.7699  -14.3749   27.4859 C   0  0  0  0  0  0  0  0  0  0  0  0
    8.6189  -15.7381   27.6822 O   0  0  0  0  0  0  0  0  0  0  0  0
    9.2116  -13.6995   28.4514 O   0  0  0  0  0  0  0  0  0  0  0  0
  2  1  1  1
  3  2  1  0
  4  5  1  6
  4  2  1  0
  6  4  1  0
  7  6  2  0
  8  6  1  0
  9  8  1  0
  9 10  1  1
 10 11  1  0
 11 15  1  0
 11 12  2  0
 13  9  1  0
 13 20  1  0
 14 13  2  0
 17 16  1  6
 18 17  1  0
 19 20  1  6
 19 17  1  0
 21 19  1  0
 21 22  1  0
 23 21  2  0
M  END
$$$$
