TDV.pdb
     RDKit          3D

 23 22  0  0  1  0  0  0  0  0999 V2000
    7.0875  -12.5934   20.1584 C   0  0  0  0  0  0  0  0  0  0  0  0
    8.3415  -13.2117   19.5466 C   0  0  1  0  0  0  0  0  0  0  0  0
    9.4589  -12.8484   20.3172 O   0  0  0  0  0  0  0  0  0  0  0  0
    8.2042  -14.7073   19.5174 C   0  0  2  0  0  0  0  0  0  0  0  0
    7.1207  -15.0706   18.6136 N   0  0  0  0  0  0  0  0  0  0  0  0
    7.9474  -15.2495   20.8839 C   0  0  0  0  0  0  0  0  0  0  0  0
    6.7589  -15.4656   21.2310 O   0  0  0  0  0  0  0  0  0  0  0  0
    9.0185  -15.5098   21.7582 N   0  0  0  0  0  0  0  0  0  0  0  0
    8.7252  -16.1917   23.0708 C   0  0  1  0  0  0  0  0  0  0  0  0
    9.6412  -17.3724   23.1198 C   0  0  0  0  0  0  0  0  0  0  0  0
    9.7218  -18.1895   24.2985 C   0  0  0  0  0  0  0  0  0  0  0  0
    8.8570  -18.3246   25.1570 O   0  0  0  0  0  0  0  0  0  0  0  0
    8.9770  -15.1496   24.0901 C   0  0  0  0  0  0  0  0  0  0  0  0
   10.0886  -14.5096   24.0670 O   0  0  0  0  0  0  0  0  0  0  0  0
   10.9195  -18.9163   24.4954 O   0  0  0  0  0  0  0  0  0  0  0  0
    7.2942  -11.8444   25.0517 C   0  0  0  0  0  0  0  0  0  0  0  0
    7.3788  -12.7402   26.2722 C   0  0  1  0  0  0  0  0  0  0  0  0
    6.0417  -13.3405   26.5506 C   0  0  0  0  0  0  0  0  0  0  0  0
    8.4173  -13.8007   26.1314 C   0  0  2  0  0  0  0  0  0  0  0  0
    8.0779  -14.7876   25.1049 N   0  0  0  0  0  0  0  0  0  0  0  0
    8.6763  -14.5090   27.4367 C   0  0  0  0  0  0  0  0  0  0  0  0
    9.2869  -13.8660   28.5012 O   0  0  0  0  0  0  0  0  0  0  0  0
    8.3453  -15.7115   27.6034 O   0  0  0  0  0  0  0  0  0  0  0  0
  2  1  1  1
  3  2  1  0
  4  5  1  6
  4  2  1  0
  6  4  1  0
  7  6  2  0
  8  6  1  0
  9  8  1  0
  9 10  1  1
 10 11  1  0
 11 15  1  0
 11 12  2  0
 13  9  1  0
 13 20  1  0
 14 13  2  0
 17 16  1  6
 18 17  1  0
 19 20  1  6
 19 17  1  0
 21 19  1  0
 21 22  1  0
 23 21  2  0
M  END
$$$$
