TDV.pdb
     RDKit          3D

 23 22  0  0  1  0  0  0  0  0999 V2000
    9.1464  -12.5599   18.1130 C   0  0  0  0  0  0  0  0  0  0  0  0
    8.9539  -13.1008   19.5269 C   0  0  1  0  0  0  0  0  0  0  0  0
    8.1442  -12.2128   20.2550 O   0  0  0  0  0  0  0  0  0  0  0  0
    8.3035  -14.4536   19.4657 C   0  0  2  0  0  0  0  0  0  0  0  0
    6.9997  -14.3290   18.8274 N   0  0  0  0  0  0  0  0  0  0  0  0
    8.1624  -15.0434   20.8293 C   0  0  0  0  0  0  0  0  0  0  0  0
    7.0315  -15.0258   21.3775 O   0  0  0  0  0  0  0  0  0  0  0  0
    9.2765  -15.6047   21.4798 N   0  0  0  0  0  0  0  0  0  0  0  0
    9.0521  -16.3640   22.7630 C   0  0  1  0  0  0  0  0  0  0  0  0
   10.0910  -17.4393   22.7766 C   0  0  0  0  0  0  0  0  0  0  0  0
   10.3734  -18.1709   23.9802 C   0  0  0  0  0  0  0  0  0  0  0  0
    9.5853  -18.8544   24.6243 O   0  0  0  0  0  0  0  0  0  0  0  0
    9.1834  -15.3405   23.8230 C   0  0  0  0  0  0  0  0  0  0  0  0
   10.1805  -14.5340   23.7917 O   0  0  0  0  0  0  0  0  0  0  0  0
   11.6953  -18.1002   24.4794 O   0  0  0  0  0  0  0  0  0  0  0  0
    5.9577  -13.8375   26.1916 C   0  0  0  0  0  0  0  0  0  0  0  0
    7.2624  -13.1474   25.8438 C   0  0  1  0  0  0  0  0  0  0  0  0
    7.4909  -12.0032   26.7734 C   0  0  0  0  0  0  0  0  0  0  0  0
    8.4241  -14.0819   25.8575 C   0  0  2  0  0  0  0  0  0  0  0  0
    8.2838  -15.1680   24.8861 N   0  0  0  0  0  0  0  0  0  0  0  0
    8.6578  -14.6663   27.2273 C   0  0  0  0  0  0  0  0  0  0  0  0
    9.1675  -13.9014   28.2640 O   0  0  0  0  0  0  0  0  0  0  0  0
    8.3969  -15.8720   27.4755 O   0  0  0  0  0  0  0  0  0  0  0  0
  2  1  1  6
  3  2  1  0
  4  5  1  1
  4  2  1  0
  6  4  1  0
  7  6  2  0
  8  6  1  0
  9  8  1  0
  9 10  1  1
 10 11  1  0
 11 15  1  0
 11 12  2  0
 13  9  1  0
 13 20  1  0
 14 13  2  0
 17 16  1  1
 18 17  1  0
 19 20  1  6
 19 17  1  0
 21 19  1  0
 21 22  1  0
 23 21  2  0
M  END
$$$$
