TDV.pdb
     RDKit          3D

 23 22  0  0  1  0  0  0  0  0999 V2000
    8.7931  -12.2023   20.2774 C   0  0  0  0  0  0  0  0  0  0  0  0
    7.9511  -12.9733   19.2648 C   0  0  1  0  0  0  0  0  0  0  0  0
    8.1565  -12.4312   17.9849 O   0  0  0  0  0  0  0  0  0  0  0  0
    8.3482  -14.4221   19.2767 C   0  0  2  0  0  0  0  0  0  0  0  0
    7.6113  -15.1286   18.2372 N   0  0  0  0  0  0  0  0  0  0  0  0
    8.0886  -15.0387   20.6108 C   0  0  0  0  0  0  0  0  0  0  0  0
    6.9348  -15.4712   20.8585 O   0  0  0  0  0  0  0  0  0  0  0  0
    9.1190  -15.1294   21.5645 N   0  0  0  0  0  0  0  0  0  0  0  0
    8.8601  -15.9073   22.8301 C   0  0  1  0  0  0  0  0  0  0  0  0
    9.8869  -16.9940   22.8468 C   0  0  0  0  0  0  0  0  0  0  0  0
   10.0645  -17.8172   24.0106 C   0  0  0  0  0  0  0  0  0  0  0  0
    9.1797  -18.3133   24.6993 O   0  0  0  0  0  0  0  0  0  0  0  0
    8.9805  -14.9029   23.9095 C   0  0  0  0  0  0  0  0  0  0  0  0
    9.9891  -14.1102   23.9146 O   0  0  0  0  0  0  0  0  0  0  0  0
   11.3948  -18.0877   24.4089 O   0  0  0  0  0  0  0  0  0  0  0  0
    6.9477  -11.9042   25.1462 C   0  0  0  0  0  0  0  0  0  0  0  0
    7.1435  -12.8834   26.2873 C   0  0  1  0  0  0  0  0  0  0  0  0
    5.8852  -13.6524   26.5133 C   0  0  0  0  0  0  0  0  0  0  0  0
    8.2939  -13.8040   26.0590 C   0  0  2  0  0  0  0  0  0  0  0  0
    8.0586  -14.7348   24.9540 N   0  0  0  0  0  0  0  0  0  0  0  0
    8.6433  -14.5838   27.3009 C   0  0  0  0  0  0  0  0  0  0  0  0
    8.5503  -15.9656   27.3389 O   0  0  0  0  0  0  0  0  0  0  0  0
    9.0325  -14.0038   28.3475 O   0  0  0  0  0  0  0  0  0  0  0  0
  2  1  1  1
  3  2  1  0
  4  5  1  6
  4  2  1  0
  6  4  1  0
  7  6  2  0
  8  6  1  0
  9  8  1  0
  9 10  1  1
 10 11  1  0
 11 15  1  0
 11 12  2  0
 13  9  1  0
 13 20  1  0
 14 13  2  0
 17 16  1  6
 18 17  1  0
 19 20  1  6
 19 17  1  0
 21 19  1  0
 21 22  1  0
 23 21  2  0
M  END
$$$$
