TDV.pdb
     RDKit          3D

 23 22  0  0  1  0  0  0  0  0999 V2000
    8.7077  -12.4110   18.6822 C   0  0  0  0  0  0  0  0  0  0  0  0
    8.5281  -13.0730   20.0454 C   0  0  1  0  0  0  0  0  0  0  0  0
    7.5066  -12.4127   20.7487 O   0  0  0  0  0  0  0  0  0  0  0  0
    8.1697  -14.5201   19.8607 C   0  0  2  0  0  0  0  0  0  0  0  0
    6.9103  -14.6118   19.1340 N   0  0  0  0  0  0  0  0  0  0  0  0
    8.0656  -15.2192   21.1751 C   0  0  0  0  0  0  0  0  0  0  0  0
    6.9227  -15.4414   21.6485 O   0  0  0  0  0  0  0  0  0  0  0  0
    9.2269  -15.6172   21.8625 N   0  0  0  0  0  0  0  0  0  0  0  0
    9.0716  -16.3502   23.1710 C   0  0  1  0  0  0  0  0  0  0  0  0
   10.1806  -17.3526   23.2002 C   0  0  0  0  0  0  0  0  0  0  0  0
   10.3862  -18.1853   24.3525 C   0  0  0  0  0  0  0  0  0  0  0  0
    9.6839  -18.2339   25.3563 O   0  0  0  0  0  0  0  0  0  0  0  0
    9.1480  -15.2882   24.1980 C   0  0  0  0  0  0  0  0  0  0  0  0
   10.1610  -14.5011   24.2076 O   0  0  0  0  0  0  0  0  0  0  0  0
   11.5133  -19.0402   24.3341 O   0  0  0  0  0  0  0  0  0  0  0  0
    6.9996  -12.2926   25.0203 C   0  0  0  0  0  0  0  0  0  0  0  0
    7.1791  -13.1022   26.2898 C   0  0  1  0  0  0  0  0  0  0  0  0
    5.9239  -13.8491   26.5932 C   0  0  0  0  0  0  0  0  0  0  0  0
    8.3437  -14.0303   26.2155 C   0  0  2  0  0  0  0  0  0  0  0  0
    8.1789  -15.0583   25.1865 N   0  0  0  0  0  0  0  0  0  0  0  0
    8.6186  -14.6926   27.5415 C   0  0  0  0  0  0  0  0  0  0  0  0
    9.0827  -13.9711   28.6294 O   0  0  0  0  0  0  0  0  0  0  0  0
    8.4349  -15.9267   27.7049 O   0  0  0  0  0  0  0  0  0  0  0  0
  2  1  1  6
  3  2  1  0
  4  5  1  1
  4  2  1  0
  6  4  1  0
  7  6  2  0
  8  6  1  0
  9  8  1  0
  9 10  1  1
 10 11  1  0
 11 15  1  0
 11 12  2  0
 13  9  1  0
 13 20  1  0
 14 13  2  0
 17 16  1  6
 18 17  1  0
 19 20  1  6
 19 17  1  0
 21 19  1  0
 21 22  1  0
 23 21  2  0
M  END
$$$$
