TDV.pdb
     RDKit          3D

 23 22  0  0  1  0  0  0  0  0999 V2000
    7.3000  -12.7106   18.2376 C   0  0  0  0  0  0  0  0  0  0  0  0
    7.2277  -13.8274   19.2752 C   0  0  1  0  0  0  0  0  0  0  0  0
    7.6207  -15.0377   18.6794 O   0  0  0  0  0  0  0  0  0  0  0  0
    8.1362  -13.5055   20.4275 C   0  0  2  0  0  0  0  0  0  0  0  0
    9.5125  -13.4556   19.9520 N   0  0  0  0  0  0  0  0  0  0  0  0
    7.9975  -14.5144   21.5183 C   0  0  0  0  0  0  0  0  0  0  0  0
    6.8589  -14.7122   22.0125 O   0  0  0  0  0  0  0  0  0  0  0  0
    9.1222  -15.2239   21.9777 N   0  0  0  0  0  0  0  0  0  0  0  0
    8.9475  -16.1785   23.1317 C   0  0  1  0  0  0  0  0  0  0  0  0
    9.9058  -17.2966   22.8724 C   0  0  0  0  0  0  0  0  0  0  0  0
   10.1156  -18.3249   23.8533 C   0  0  0  0  0  0  0  0  0  0  0  0
    9.4728  -18.4976   24.8830 O   0  0  0  0  0  0  0  0  0  0  0  0
    9.2344  -15.3613   24.3309 C   0  0  0  0  0  0  0  0  0  0  0  0
   10.2877  -14.6292   24.3499 O   0  0  0  0  0  0  0  0  0  0  0  0
   11.1709  -19.2360   23.6130 O   0  0  0  0  0  0  0  0  0  0  0  0
    7.9700  -12.3377   25.8291 C   0  0  0  0  0  0  0  0  0  0  0  0
    7.8910  -13.3921   26.9160 C   0  0  1  0  0  0  0  0  0  0  0  0
    6.4819  -13.8590   27.0640 C   0  0  0  0  0  0  0  0  0  0  0  0
    8.8068  -14.5415   26.6643 C   0  0  2  0  0  0  0  0  0  0  0  0
    8.4288  -15.3127   25.4789 N   0  0  0  0  0  0  0  0  0  0  0  0
    8.8886  -15.4643   27.8535 C   0  0  0  0  0  0  0  0  0  0  0  0
    9.4736  -15.0626   29.0434 O   0  0  0  0  0  0  0  0  0  0  0  0
    8.4267  -16.6338   27.8048 O   0  0  0  0  0  0  0  0  0  0  0  0
  2  1  1  6
  3  2  1  0
  4  5  1  6
  4  2  1  0
  6  4  1  0
  7  6  2  0
  8  6  1  0
  9  8  1  0
  9 10  1  6
 10 11  1  0
 11 15  1  0
 11 12  2  0
 13  9  1  0
 13 20  1  0
 14 13  2  0
 17 16  1  6
 18 17  1  0
 19 20  1  6
 19 17  1  0
 21 19  1  0
 21 22  1  0
 23 21  2  0
M  END
$$$$
