TDV.pdb
     RDKit          3D

 23 22  0  0  1  0  0  0  0  0999 V2000
    8.6236  -12.6085   18.4728 C   0  0  0  0  0  0  0  0  0  0  0  0
    8.5299  -13.2754   19.8422 C   0  0  1  0  0  0  0  0  0  0  0  0
    7.5363  -12.6344   20.6012 O   0  0  0  0  0  0  0  0  0  0  0  0
    8.1878  -14.7284   19.6739 C   0  0  2  0  0  0  0  0  0  0  0  0
    6.9274  -14.8425   18.9520 N   0  0  0  0  0  0  0  0  0  0  0  0
    8.0957  -15.4147   20.9959 C   0  0  0  0  0  0  0  0  0  0  0  0
    6.9571  -15.6842   21.4548 O   0  0  0  0  0  0  0  0  0  0  0  0
    9.2633  -15.7490   21.7062 N   0  0  0  0  0  0  0  0  0  0  0  0
    9.1212  -16.4619   23.0273 C   0  0  1  0  0  0  0  0  0  0  0  0
   10.2424  -17.4503   23.0691 C   0  0  0  0  0  0  0  0  0  0  0  0
   10.4860  -18.2334   24.2485 C   0  0  0  0  0  0  0  0  0  0  0  0
    9.8086  -18.2495   25.2703 O   0  0  0  0  0  0  0  0  0  0  0  0
    9.1884  -15.3822   24.0363 C   0  0  0  0  0  0  0  0  0  0  0  0
   10.1689  -14.5558   24.0017 O   0  0  0  0  0  0  0  0  0  0  0  0
   11.6228  -19.0754   24.2368 O   0  0  0  0  0  0  0  0  0  0  0  0
    7.1024  -12.1481   27.0644 C   0  0  0  0  0  0  0  0  0  0  0  0
    7.0147  -13.3380   26.1286 C   0  0  1  0  0  0  0  0  0  0  0  0
    6.4836  -12.9004   24.8049 C   0  0  0  0  0  0  0  0  0  0  0  0
    8.3217  -14.0379   25.9705 C   0  0  2  0  0  0  0  0  0  0  0  0
    8.2431  -15.1755   25.0526 N   0  0  0  0  0  0  0  0  0  0  0  0
    8.8724  -14.5034   27.2943 C   0  0  0  0  0  0  0  0  0  0  0  0
    9.5722  -13.6474   28.1292 O   0  0  0  0  0  0  0  0  0  0  0  0
    8.7141  -15.6885   27.6864 O   0  0  0  0  0  0  0  0  0  0  0  0
  2  1  1  6
  3  2  1  0
  4  5  1  1
  4  2  1  0
  6  4  1  0
  7  6  2  0
  8  6  1  0
  9  8  1  0
  9 10  1  1
 10 11  1  0
 11 15  1  0
 11 12  2  0
 13  9  1  0
 13 20  1  0
 14 13  2  0
 17 16  1  1
 18 17  1  0
 19 20  1  6
 19 17  1  0
 21 19  1  0
 21 22  1  0
 23 21  2  0
M  END
$$$$
