TDV.pdb
     RDKit          3D

 23 22  0  0  1  0  0  0  0  0999 V2000
    9.1161  -12.4290   18.2679 C   0  0  0  0  0  0  0  0  0  0  0  0
    8.8721  -13.0203   19.6535 C   0  0  1  0  0  0  0  0  0  0  0  0
    7.9079  -12.2476   20.3224 O   0  0  0  0  0  0  0  0  0  0  0  0
    8.3902  -14.4369   19.5201 C   0  0  2  0  0  0  0  0  0  0  0  0
    7.1608  -14.4523   18.7384 N   0  0  0  0  0  0  0  0  0  0  0  0
    8.1645  -15.0553   20.8595 C   0  0  0  0  0  0  0  0  0  0  0  0
    6.9861  -15.1525   21.2855 O   0  0  0  0  0  0  0  0  0  0  0  0
    9.2532  -15.5167   21.6220 N   0  0  0  0  0  0  0  0  0  0  0  0
    8.9708  -16.2159   22.9278 C   0  0  1  0  0  0  0  0  0  0  0  0
    9.9738  -17.3215   23.0127 C   0  0  0  0  0  0  0  0  0  0  0  0
    9.8672  -18.4752   22.1635 C   0  0  0  0  0  0  0  0  0  0  0  0
    8.8462  -19.1024   21.9042 O   0  0  0  0  0  0  0  0  0  0  0  0
    9.1071  -15.1547   23.9495 C   0  0  0  0  0  0  0  0  0  0  0  0
   10.0750  -14.3181   23.8550 O   0  0  0  0  0  0  0  0  0  0  0  0
   11.0592  -18.9411   21.5606 O   0  0  0  0  0  0  0  0  0  0  0  0
    5.9773  -13.6629   26.4650 C   0  0  0  0  0  0  0  0  0  0  0  0
    7.2624  -12.9666   26.0612 C   0  0  1  0  0  0  0  0  0  0  0  0
    7.5320  -11.8289   26.9878 C   0  0  0  0  0  0  0  0  0  0  0  0
    8.4257  -13.8980   26.0125 C   0  0  2  0  0  0  0  0  0  0  0  0
    8.2422  -14.9767   25.0401 N   0  0  0  0  0  0  0  0  0  0  0  0
    8.7252  -14.4925   27.3649 C   0  0  0  0  0  0  0  0  0  0  0  0
    9.2910  -13.7370   28.3793 O   0  0  0  0  0  0  0  0  0  0  0  0
    8.4705  -15.6984   27.6185 O   0  0  0  0  0  0  0  0  0  0  0  0
  2  1  1  6
  3  2  1  0
  4  5  1  6
  4  2  1  0
  6  4  1  0
  7  6  2  0
  8  6  1  0
  9  8  1  0
  9 10  1  1
 10 11  1  0
 11 15  1  0
 11 12  2  0
 13  9  1  0
 13 20  1  0
 14 13  2  0
 17 16  1  1
 18 17  1  0
 19 20  1  6
 19 17  1  0
 21 19  1  0
 21 22  1  0
 23 21  2  0
M  END
$$$$
