TDV.pdb
     RDKit          3D

 23 22  0  0  1  0  0  0  0  0999 V2000
    9.1354  -12.6369   18.3137 C   0  0  0  0  0  0  0  0  0  0  0  0
    8.7835  -13.2368   19.6720 C   0  0  1  0  0  0  0  0  0  0  0  0
    7.7698  -12.4678   20.2681 O   0  0  0  0  0  0  0  0  0  0  0  0
    8.3135  -14.6523   19.4924 C   0  0  2  0  0  0  0  0  0  0  0  0
    7.1440  -14.6613   18.6235 N   0  0  0  0  0  0  0  0  0  0  0  0
    7.9917  -15.2818   20.8066 C   0  0  0  0  0  0  0  0  0  0  0  0
    6.7890  -15.3389   21.1671 O   0  0  0  0  0  0  0  0  0  0  0  0
    9.0187  -15.7975   21.6183 N   0  0  0  0  0  0  0  0  0  0  0  0
    8.6443  -16.4355   22.9322 C   0  0  1  0  0  0  0  0  0  0  0  0
    9.5559  -17.6116   23.0782 C   0  0  0  0  0  0  0  0  0  0  0  0
   10.9683  -17.4261   23.2633 C   0  0  0  0  0  0  0  0  0  0  0  0
   11.7810  -17.0875   22.4101 O   0  0  0  0  0  0  0  0  0  0  0  0
    8.8315  -15.3591   23.9296 C   0  0  0  0  0  0  0  0  0  0  0  0
    9.8051  -14.5364   23.7845 O   0  0  0  0  0  0  0  0  0  0  0  0
   11.4814  -17.6560   24.5615 O   0  0  0  0  0  0  0  0  0  0  0  0
    7.3170  -12.2299   27.3917 C   0  0  0  0  0  0  0  0  0  0  0  0
    7.0607  -13.2800   26.3282 C   0  0  1  0  0  0  0  0  0  0  0  0
    6.5332  -12.6291   25.0938 C   0  0  0  0  0  0  0  0  0  0  0  0
    8.2736  -14.0915   26.0228 C   0  0  2  0  0  0  0  0  0  0  0  0
    8.0103  -15.1517   25.0484 N   0  0  0  0  0  0  0  0  0  0  0  0
    8.8717  -14.6965   27.2673 C   0  0  0  0  0  0  0  0  0  0  0  0
    9.5313  -13.9193   28.2057 O   0  0  0  0  0  0  0  0  0  0  0  0
    8.7913  -15.9312   27.4961 O   0  0  0  0  0  0  0  0  0  0  0  0
  2  1  1  6
  3  2  1  0
  4  5  1  6
  4  2  1  0
  6  4  1  0
  7  6  2  0
  8  6  1  0
  9  8  1  0
  9 10  1  1
 10 11  1  0
 11 15  1  0
 11 12  2  0
 13  9  1  0
 13 20  1  0
 14 13  2  0
 17 16  1  1
 18 17  1  0
 19 20  1  6
 19 17  1  0
 21 19  1  0
 21 22  1  0
 23 21  2  0
M  END
$$$$
