TDV.pdb
     RDKit          3D

 23 22  0  0  1  0  0  0  0  0999 V2000
    8.9567  -12.4494   18.3823 C   0  0  0  0  0  0  0  0  0  0  0  0
    8.7837  -13.1150   19.7447 C   0  0  1  0  0  0  0  0  0  0  0  0
    7.7432  -12.4776   20.4414 O   0  0  0  0  0  0  0  0  0  0  0  0
    8.4588  -14.5698   19.5582 C   0  0  2  0  0  0  0  0  0  0  0  0
    7.2483  -14.6906   18.7564 N   0  0  0  0  0  0  0  0  0  0  0  0
    8.2838  -15.2534   20.8732 C   0  0  0  0  0  0  0  0  0  0  0  0
    7.1180  -15.5102   21.2664 O   0  0  0  0  0  0  0  0  0  0  0  0
    9.4052  -15.5990   21.6495 N   0  0  0  0  0  0  0  0  0  0  0  0
    9.1879  -16.3976   22.9100 C   0  0  1  0  0  0  0  0  0  0  0  0
   10.2980  -17.3987   22.9436 C   0  0  0  0  0  0  0  0  0  0  0  0
   10.4157  -18.3269   24.0337 C   0  0  0  0  0  0  0  0  0  0  0  0
   10.4317  -18.0550   25.2291 O   0  0  0  0  0  0  0  0  0  0  0  0
    9.2091  -15.3890   23.9919 C   0  0  0  0  0  0  0  0  0  0  0  0
   10.2354  -14.6295   24.1170 O   0  0  0  0  0  0  0  0  0  0  0  0
   10.5244  -19.6976   23.7011 O   0  0  0  0  0  0  0  0  0  0  0  0
    7.0966  -12.4149   27.3018 C   0  0  0  0  0  0  0  0  0  0  0  0
    7.0013  -13.4289   26.1783 C   0  0  1  0  0  0  0  0  0  0  0  0
    6.5958  -12.7456   24.9156 C   0  0  0  0  0  0  0  0  0  0  0  0
    8.2693  -14.1893   25.9862 C   0  0  2  0  0  0  0  0  0  0  0  0
    8.1727  -15.1825   24.9152 N   0  0  0  0  0  0  0  0  0  0  0  0
    8.7141  -14.8684   27.2564 C   0  0  0  0  0  0  0  0  0  0  0  0
    9.3229  -14.1617   28.2809 O   0  0  0  0  0  0  0  0  0  0  0  0
    8.5466  -16.1035   27.4290 O   0  0  0  0  0  0  0  0  0  0  0  0
  2  1  1  6
  3  2  1  0
  4  5  1  6
  4  2  1  0
  6  4  1  0
  7  6  2  0
  8  6  1  0
  9  8  1  0
  9 10  1  1
 10 11  1  0
 11 15  1  0
 11 12  2  0
 13  9  1  0
 13 20  1  0
 14 13  2  0
 17 16  1  1
 18 17  1  0
 19 20  1  6
 19 17  1  0
 21 19  1  0
 21 22  1  0
 23 21  2  0
M  END
$$$$
