TDV.pdb
     RDKit          3D

 23 22  0  0  1  0  0  0  0  0999 V2000
    8.5828  -12.6958   18.5117 C   0  0  0  0  0  0  0  0  0  0  0  0
    8.5248  -13.2506   19.9321 C   0  0  1  0  0  0  0  0  0  0  0  0
    7.8843  -12.3189   20.7663 O   0  0  0  0  0  0  0  0  0  0  0  0
    7.7672  -14.5478   19.9369 C   0  0  2  0  0  0  0  0  0  0  0  0
    6.4366  -14.3265   19.3862 N   0  0  0  0  0  0  0  0  0  0  0  0
    7.6740  -15.1098   21.3163 C   0  0  0  0  0  0  0  0  0  0  0  0
    6.5725  -15.0453   21.9181 O   0  0  0  0  0  0  0  0  0  0  0  0
    8.7998  -15.6970   21.9222 N   0  0  0  0  0  0  0  0  0  0  0  0
    8.6317  -16.3480   23.2719 C   0  0  1  0  0  0  0  0  0  0  0  0
    9.5929  -17.4932   23.2843 C   0  0  0  0  0  0  0  0  0  0  0  0
    9.7609  -18.2970   24.4630 C   0  0  0  0  0  0  0  0  0  0  0  0
    9.0842  -18.2503   25.4843 O   0  0  0  0  0  0  0  0  0  0  0  0
    8.9196  -15.2667   24.2395 C   0  0  0  0  0  0  0  0  0  0  0  0
    9.9992  -14.5858   24.1115 O   0  0  0  0  0  0  0  0  0  0  0  0
   10.8135  -19.2420   24.4512 O   0  0  0  0  0  0  0  0  0  0  0  0
    6.9183  -12.1332   25.3363 C   0  0  0  0  0  0  0  0  0  0  0  0
    7.3375  -12.9272   26.5582 C   0  0  1  0  0  0  0  0  0  0  0  0
    6.1609  -13.6578   27.1128 C   0  0  0  0  0  0  0  0  0  0  0  0
    8.4586  -13.8674   26.2715 C   0  0  2  0  0  0  0  0  0  0  0  0
    8.0879  -14.9085   25.3116 N   0  0  0  0  0  0  0  0  0  0  0  0
    8.9843  -14.5131   27.5281 C   0  0  0  0  0  0  0  0  0  0  0  0
    9.6477  -13.7782   28.4974 O   0  0  0  0  0  0  0  0  0  0  0  0
    8.8376  -15.7449   27.7392 O   0  0  0  0  0  0  0  0  0  0  0  0
  2  1  1  6
  3  2  1  0
  4  5  1  1
  4  2  1  0
  6  4  1  0
  7  6  2  0
  8  6  1  0
  9  8  1  0
  9 10  1  6
 10 11  1  0
 11 15  1  0
 11 12  2  0
 13  9  1  0
 13 20  1  0
 14 13  2  0
 17 16  1  6
 18 17  1  0
 19 20  1  6
 19 17  1  0
 21 19  1  0
 21 22  1  0
 23 21  2  0
M  END
$$$$
