LVY.pdb
     RDKit          3D

 28 28  0  0  1  0  0  0  0  0999 V2000
   29.6920  -20.2115   -4.9454 C   0  0  0  0  0  0  0  0  0  0  0  0
   28.2149  -20.0053   -4.8408 C   0  0  2  0  0  0  0  0  0  0  0  0
   27.6720  -20.9249   -3.7633 C   0  0  0  0  0  0  0  0  0  0  0  0
   27.5229  -20.1867   -6.1487 C   0  0  0  0  0  0  0  0  0  0  0  0
   28.0467  -19.3176   -7.2575 C   0  0  2  0  0  0  0  0  0  0  0  0
   27.8691  -17.9110   -6.9552 N   0  0  0  0  0  0  0  0  0  0  0  0
   27.3163  -19.6874   -8.5003 C   0  0  0  0  0  0  0  0  0  0  0  0
   26.2281  -19.1102   -8.7806 O   0  0  0  0  0  0  0  0  0  0  0  0
   27.9014  -21.1751  -13.1503 C   0  0  0  0  0  0  0  0  0  0  0  0
   28.3424  -21.3234  -11.7148 C   0  0  1  0  0  0  0  0  0  0  0  0
   29.7205  -20.7311  -11.5819 C   0  0  0  0  0  0  0  0  0  0  0  0
   27.3474  -20.6508  -10.7933 C   0  0  2  0  0  0  0  0  0  0  0  0
   27.7630  -20.6709   -9.4251 N   0  0  0  0  0  0  0  0  0  0  0  0
   26.0050  -21.2248  -11.0187 C   0  0  0  0  0  0  0  0  0  0  0  0
   25.5916  -22.0513  -10.1582 O   0  0  0  0  0  0  0  0  0  0  0  0
   18.4760  -22.7187   -8.6361 O   0  0  0  0  0  0  0  0  0  0  0  0
   19.6325  -22.1724   -9.1519 C   0  0  0  0  0  0  0  0  0  0  0  0
   19.5786  -21.5634  -10.3812 C   0  0  0  0  0  0  0  0  0  0  0  0
   20.7236  -21.0063  -10.9234 C   0  0  0  0  0  0  0  0  0  0  0  0
   21.9453  -21.0321  -10.2771 C   0  0  0  0  0  0  0  0  0  0  0  0
   23.1809  -20.4634  -10.8102 C   0  0  0  0  0  0  0  0  0  0  0  0
   23.7142  -21.1632  -12.0364 C   0  0  2  0  0  0  0  0  0  0  0  0
   25.1601  -20.9299  -12.0999 N   0  0  0  0  0  0  0  0  0  0  0  0
   23.0820  -20.7591  -13.2923 C   0  0  0  0  0  0  0  0  0  0  0  0
   23.4909  -19.6514  -14.0562 O   0  0  0  0  0  0  0  0  0  0  0  0
   21.9688  -21.6556   -9.0341 C   0  0  0  0  0  0  0  0  0  0  0  0
   20.8363  -22.2140   -8.4830 C   0  0  0  0  0  0  0  0  0  0  0  0
   22.1051  -21.4486  -13.7204 O   0  0  0  0  0  0  0  0  0  0  0  0
  2  1  1  6
  2  3  1  0
  4  5  1  0
  4  2  1  0
  5  6  1  1
  7 13  1  0
  7  5  1  0
  8  7  2  0
 10  9  1  6
 11 10  1  0
 12 14  1  0
 12 10  1  0
 12 13  1  1
 14 15  2  0
 16 17  1  0
 17 27  2  0
 17 18  1  0
 18 19  2  0
 19 20  1  0
 20 21  1  0
 22 21  1  1
 22 24  1  0
 23 22  1  0
 23 14  1  0
 24 25  1  0
 26 20  2  0
 27 26  1  0
 28 24  2  0
M  END
$$$$
