LVY.pdb
     RDKit          3D

 28 28  0  0  1  0  0  0  0  0999 V2000
   20.5475  -19.4950  -14.6611 C   0  0  0  0  0  0  0  0  0  0  0  0
   20.2511  -20.7035  -13.8324 C   0  0  2  0  0  0  0  0  0  0  0  0
   19.2485  -20.3219  -12.7597 C   0  0  0  0  0  0  0  0  0  0  0  0
   21.4851  -21.3205  -13.2676 C   0  0  0  0  0  0  0  0  0  0  0  0
   22.5692  -21.5818  -14.2752 C   0  0  2  0  0  0  0  0  0  0  0  0
   22.2657  -22.7424  -15.0891 N   0  0  0  0  0  0  0  0  0  0  0  0
   23.8398  -21.7794  -13.5259 C   0  0  0  0  0  0  0  0  0  0  0  0
   24.0254  -22.8507  -12.8825 O   0  0  0  0  0  0  0  0  0  0  0  0
   28.4705  -20.5825  -12.3342 C   0  0  0  0  0  0  0  0  0  0  0  0
   27.2690  -20.2929  -13.2000 C   0  0  1  0  0  0  0  0  0  0  0  0
   27.6060  -20.6765  -14.6167 C   0  0  0  0  0  0  0  0  0  0  0  0
   26.0621  -21.0463  -12.6828 C   0  0  2  0  0  0  0  0  0  0  0  0
   24.8934  -20.8258  -13.4769 N   0  0  0  0  0  0  0  0  0  0  0  0
   25.8753  -20.7471  -11.2483 C   0  0  0  0  0  0  0  0  0  0  0  0
   25.0856  -19.8031  -10.9657 O   0  0  0  0  0  0  0  0  0  0  0  0
   28.7207  -19.2481   -3.0128 O   0  0  0  0  0  0  0  0  0  0  0  0
   28.4558  -19.8076   -4.2451 C   0  0  0  0  0  0  0  0  0  0  0  0
   29.2490  -19.4559   -5.3092 C   0  0  0  0  0  0  0  0  0  0  0  0
   29.0066  -20.0018   -6.5575 C   0  0  0  0  0  0  0  0  0  0  0  0
   27.9849  -20.9025   -6.7936 C   0  0  0  0  0  0  0  0  0  0  0  0
   27.6867  -21.5011   -8.0925 C   0  0  0  0  0  0  0  0  0  0  0  0
   26.5442  -20.8509   -8.8340 C   0  0  2  0  0  0  0  0  0  0  0  0
   26.4974  -21.4189  -10.1847 N   0  0  0  0  0  0  0  0  0  0  0  0
   26.6138  -19.3912   -8.9023 C   0  0  0  0  0  0  0  0  0  0  0  0
   25.7642  -18.5304   -8.1848 O   0  0  0  0  0  0  0  0  0  0  0  0
   27.1985  -21.2396   -5.6970 C   0  0  0  0  0  0  0  0  0  0  0  0
   27.4291  -20.7035   -4.4490 C   0  0  0  0  0  0  0  0  0  0  0  0
   27.4935  -18.8678   -9.6540 O   0  0  0  0  0  0  0  0  0  0  0  0
  2  1  1  1
  2  3  1  0
  4  5  1  0
  4  2  1  0
  5  6  1  1
  7 13  1  0
  7  5  1  0
  8  7  2  0
 10  9  1  1
 11 10  1  0
 12 14  1  0
 12 10  1  0
 12 13  1  6
 14 15  2  0
 16 17  1  0
 17 27  2  0
 17 18  1  0
 18 19  2  0
 19 20  1  0
 20 21  1  0
 22 21  1  6
 22 24  1  0
 23 22  1  0
 23 14  1  0
 24 25  1  0
 26 20  2  0
 27 26  1  0
 28 24  2  0
M  END
$$$$
