LVY.pdb
     RDKit          3D

 28 28  0  0  1  0  0  0  0  0999 V2000
   19.5829  -18.6503  -10.9178 C   0  0  0  0  0  0  0  0  0  0  0  0
   19.9999  -20.0287  -10.5161 C   0  0  2  0  0  0  0  0  0  0  0  0
   20.2951  -20.0317   -9.0281 C   0  0  0  0  0  0  0  0  0  0  0  0
   21.1446  -20.5337  -11.3267 C   0  0  0  0  0  0  0  0  0  0  0  0
   20.9343  -20.4658  -12.8134 C   0  0  2  0  0  0  0  0  0  0  0  0
   19.9393  -21.4250  -13.2508 N   0  0  0  0  0  0  0  0  0  0  0  0
   22.2461  -20.7308  -13.4645 C   0  0  0  0  0  0  0  0  0  0  0  0
   22.6781  -21.9156  -13.5396 O   0  0  0  0  0  0  0  0  0  0  0  0
   25.9180  -19.5495  -16.4851 C   0  0  0  0  0  0  0  0  0  0  0  0
   24.5621  -19.2229  -15.9092 C   0  0  1  0  0  0  0  0  0  0  0  0
   23.5247  -19.4847  -16.9690 C   0  0  0  0  0  0  0  0  0  0  0  0
   24.3153  -20.0449  -14.6622 C   0  0  2  0  0  0  0  0  0  0  0  0
   23.0761  -19.7219  -14.0258 N   0  0  0  0  0  0  0  0  0  0  0  0
   25.4888  -19.9466  -13.7703 C   0  0  0  0  0  0  0  0  0  0  0  0
   25.6871  -18.8284  -13.2180 O   0  0  0  0  0  0  0  0  0  0  0  0
   26.8355  -19.4195   -6.4017 O   0  0  0  0  0  0  0  0  0  0  0  0
   26.9816  -19.9939   -7.6468 C   0  0  0  0  0  0  0  0  0  0  0  0
   28.2491  -20.1627   -8.1466 C   0  0  0  0  0  0  0  0  0  0  0  0
   28.4259  -20.7367   -9.3935 C   0  0  0  0  0  0  0  0  0  0  0  0
   27.3691  -21.1579  -10.1788 C   0  0  0  0  0  0  0  0  0  0  0  0
   27.5046  -21.7634  -11.5013 C   0  0  0  0  0  0  0  0  0  0  0  0
   27.5681  -20.7741  -12.6393 C   0  0  2  0  0  0  0  0  0  0  0  0
   26.3921  -20.9833  -13.4893 N   0  0  0  0  0  0  0  0  0  0  0  0
   28.7896  -20.8448  -13.4413 C   0  0  0  0  0  0  0  0  0  0  0  0
   29.9794  -20.1671  -13.1208 O   0  0  0  0  0  0  0  0  0  0  0  0
   26.0975  -20.9740   -9.6462 C   0  0  0  0  0  0  0  0  0  0  0  0
   25.9076  -20.4040   -8.4063 C   0  0  0  0  0  0  0  0  0  0  0  0
   28.7772  -21.5607  -14.4903 O   0  0  0  0  0  0  0  0  0  0  0  0
  2  1  1  6
  2  3  1  0
  4  5  1  0
  4  2  1  0
  5  6  1  6
  7 13  1  0
  7  5  1  0
  8  7  2  0
 10  9  1  6
 11 10  1  0
 12 14  1  0
 12 10  1  0
 12 13  1  1
 14 15  2  0
 16 17  1  0
 17 27  2  0
 17 18  1  0
 18 19  2  0
 19 20  1  0
 20 21  1  0
 22 21  1  1
 22 24  1  0
 23 22  1  0
 23 14  1  0
 24 25  1  0
 26 20  2  0
 27 26  1  0
 28 24  2  0
M  END
$$$$
