LVY.pdb
     RDKit          3D

 28 28  0  0  1  0  0  0  0  0999 V2000
   19.5891  -18.6971  -16.8152 C   0  0  0  0  0  0  0  0  0  0  0  0
   20.8224  -18.9858  -16.0210 C   0  0  2  0  0  0  0  0  0  0  0  0
   20.4794  -19.9965  -14.9429 C   0  0  0  0  0  0  0  0  0  0  0  0
   21.4430  -17.7485  -15.4674 C   0  0  0  0  0  0  0  0  0  0  0  0
   21.7088  -16.6748  -16.4852 C   0  0  2  0  0  0  0  0  0  0  0  0
   22.5447  -17.1642  -17.5636 N   0  0  0  0  0  0  0  0  0  0  0  0
   22.3661  -15.5411  -15.7798 C   0  0  0  0  0  0  0  0  0  0  0  0
   21.9099  -15.1476  -14.6693 O   0  0  0  0  0  0  0  0  0  0  0  0
   26.0217  -12.3147  -15.0874 C   0  0  0  0  0  0  0  0  0  0  0  0
   25.5312  -13.5624  -15.7800 C   0  0  1  0  0  0  0  0  0  0  0  0
   26.2844  -14.7395  -15.2190 C   0  0  0  0  0  0  0  0  0  0  0  0
   24.0361  -13.7073  -15.5924 C   0  0  2  0  0  0  0  0  0  0  0  0
   23.5030  -14.8453  -16.2749 N   0  0  0  0  0  0  0  0  0  0  0  0
   23.3725  -12.4349  -15.9433 C   0  0  0  0  0  0  0  0  0  0  0  0
   23.4040  -12.0975  -17.1597 O   0  0  0  0  0  0  0  0  0  0  0  0
   17.6426   -5.8964  -16.8386 O   0  0  0  0  0  0  0  0  0  0  0  0
   18.3632   -7.0309  -16.5299 C   0  0  0  0  0  0  0  0  0  0  0  0
   18.7413   -7.2329  -15.2256 C   0  0  0  0  0  0  0  0  0  0  0  0
   19.4650   -8.3628  -14.8865 C   0  0  0  0  0  0  0  0  0  0  0  0
   19.8350   -9.3192  -15.8135 C   0  0  0  0  0  0  0  0  0  0  0  0
   20.6022  -10.5237  -15.5056 C   0  0  0  0  0  0  0  0  0  0  0  0
   22.0981  -10.3248  -15.4842 C   0  0  2  0  0  0  0  0  0  0  0  0
   22.7169  -11.5791  -15.0447 N   0  0  0  0  0  0  0  0  0  0  0  0
   22.5538   -9.2161  -14.6455 C   0  0  0  0  0  0  0  0  0  0  0  0
   22.7869   -9.3220  -13.2628 O   0  0  0  0  0  0  0  0  0  0  0  0
   19.4380   -9.0873  -17.1262 C   0  0  0  0  0  0  0  0  0  0  0  0
   18.7172   -7.9667  -17.4770 C   0  0  0  0  0  0  0  0  0  0  0  0
   22.7514   -8.0894  -15.1972 O   0  0  0  0  0  0  0  0  0  0  0  0
  2  1  1  1
  2  3  1  0
  4  5  1  0
  4  2  1  0
  5  6  1  6
  7 13  1  0
  7  5  1  0
  8  7  2  0
 10  9  1  1
 11 10  1  0
 12 14  1  0
 12 10  1  0
 12 13  1  6
 14 15  2  0
 16 17  1  0
 17 27  2  0
 17 18  1  0
 18 19  2  0
 19 20  1  0
 20 21  1  0
 22 21  1  1
 22 24  1  0
 23 22  1  0
 23 14  1  0
 24 25  1  0
 26 20  2  0
 27 26  1  0
 28 24  2  0
M  END
$$$$
