LVY.pdb
     RDKit          3D

 28 28  0  0  1  0  0  0  0  0999 V2000
   21.2965  -17.3589  -21.4155 C   0  0  0  0  0  0  0  0  0  0  0  0
   22.2523  -18.0642  -22.3233 C   0  0  2  0  0  0  0  0  0  0  0  0
   21.4593  -18.9265  -23.2871 C   0  0  0  0  0  0  0  0  0  0  0  0
   23.2785  -18.8423  -21.5722 C   0  0  0  0  0  0  0  0  0  0  0  0
   23.9020  -18.1040  -20.4210 C   0  0  2  0  0  0  0  0  0  0  0  0
   24.6370  -16.9401  -20.8755 N   0  0  0  0  0  0  0  0  0  0  0  0
   24.8025  -19.0546  -19.7136 C   0  0  0  0  0  0  0  0  0  0  0  0
   24.3711  -20.1950  -19.3828 O   0  0  0  0  0  0  0  0  0  0  0  0
   29.1678  -20.7250  -18.2561 C   0  0  0  0  0  0  0  0  0  0  0  0
   28.3765  -19.7644  -19.1092 C   0  0  1  0  0  0  0  0  0  0  0  0
   28.4634  -20.2242  -20.5406 C   0  0  0  0  0  0  0  0  0  0  0  0
   26.9442  -19.6969  -18.6239 C   0  0  2  0  0  0  0  0  0  0  0  0
   26.1526  -18.7692  -19.3708 N   0  0  0  0  0  0  0  0  0  0  0  0
   26.9314  -19.4556  -17.1665 C   0  0  0  0  0  0  0  0  0  0  0  0
   27.4191  -18.3602  -16.7703 O   0  0  0  0  0  0  0  0  0  0  0  0
   25.5905  -20.4753   -8.4061 O   0  0  0  0  0  0  0  0  0  0  0  0
   25.5769  -20.5915   -9.7802 C   0  0  0  0  0  0  0  0  0  0  0  0
   25.0951  -19.5417  -10.5224 C   0  0  0  0  0  0  0  0  0  0  0  0
   25.0697  -19.6304  -11.9033 C   0  0  0  0  0  0  0  0  0  0  0  0
   25.5139  -20.7456  -12.5887 C   0  0  0  0  0  0  0  0  0  0  0  0
   25.5023  -20.8882  -14.0426 C   0  0  0  0  0  0  0  0  0  0  0  0
   26.5233  -20.0417  -14.7629 C   0  0  2  0  0  0  0  0  0  0  0  0
   26.4272  -20.3352  -16.1960 N   0  0  0  0  0  0  0  0  0  0  0  0
   27.8998  -20.2225  -14.3017 C   0  0  0  0  0  0  0  0  0  0  0  0
   28.6682  -21.3726  -14.5559 O   0  0  0  0  0  0  0  0  0  0  0  0
   25.9960  -21.7925  -11.8103 C   0  0  0  0  0  0  0  0  0  0  0  0
   26.0269  -21.7171  -10.4350 C   0  0  0  0  0  0  0  0  0  0  0  0
   28.4351  -19.2860  -13.6314 O   0  0  0  0  0  0  0  0  0  0  0  0
  2  1  1  1
  2  3  1  0
  4  5  1  0
  4  2  1  0
  5  6  1  6
  7 13  1  0
  7  5  1  0
  8  7  2  0
 10  9  1  1
 11 10  1  0
 12 14  1  0
 12 10  1  0
 12 13  1  6
 14 15  2  0
 16 17  1  0
 17 27  2  0
 17 18  1  0
 18 19  2  0
 19 20  1  0
 20 21  1  0
 22 21  1  1
 22 24  1  0
 23 22  1  0
 23 14  1  0
 24 25  1  0
 26 20  2  0
 27 26  1  0
 28 24  2  0
M  END
$$$$
