LVY.pdb
     RDKit          3D

 28 28  0  0  1  0  0  0  0  0999 V2000
   19.8028  -16.2080  -17.3428 C   0  0  0  0  0  0  0  0  0  0  0  0
   20.9895  -16.0039  -18.2289 C   0  0  2  0  0  0  0  0  0  0  0  0
   20.5457  -16.1412  -19.6731 C   0  0  0  0  0  0  0  0  0  0  0  0
   22.1160  -16.9190  -17.8879 C   0  0  0  0  0  0  0  0  0  0  0  0
   22.5181  -16.9007  -16.4398 C   0  0  2  0  0  0  0  0  0  0  0  0
   22.8748  -15.5639  -16.0072 N   0  0  0  0  0  0  0  0  0  0  0  0
   23.6683  -17.8318  -16.2820 C   0  0  0  0  0  0  0  0  0  0  0  0
   23.5847  -19.0096  -16.7313 O   0  0  0  0  0  0  0  0  0  0  0  0
   28.4028  -18.8154  -15.3854 C   0  0  0  0  0  0  0  0  0  0  0  0
   27.3193  -17.7681  -15.4644 C   0  0  1  0  0  0  0  0  0  0  0  0
   27.5783  -16.9131  -16.6767 C   0  0  0  0  0  0  0  0  0  0  0  0
   25.9593  -18.4306  -15.5207 C   0  0  2  0  0  0  0  0  0  0  0  0
   24.8918  -17.4871  -15.6447 N   0  0  0  0  0  0  0  0  0  0  0  0
   25.8142  -19.3500  -14.3735 C   0  0  0  0  0  0  0  0  0  0  0  0
   26.3013  -18.9639  -13.2743 O   0  0  0  0  0  0  0  0  0  0  0  0
   27.2184  -19.9225   -7.3510 O   0  0  0  0  0  0  0  0  0  0  0  0
   26.5229  -20.1669   -8.5164 C   0  0  0  0  0  0  0  0  0  0  0  0
   26.4871  -19.1863   -9.4767 C   0  0  0  0  0  0  0  0  0  0  0  0
   25.7970  -19.4039  -10.6564 C   0  0  0  0  0  0  0  0  0  0  0  0
   25.1271  -20.5832  -10.9235 C   0  0  0  0  0  0  0  0  0  0  0  0
   24.3814  -20.8575  -12.1494 C   0  0  0  0  0  0  0  0  0  0  0  0
   25.1943  -21.5020  -13.2457 C   0  0  2  0  0  0  0  0  0  0  0  0
   25.1859  -20.6045  -14.4049 N   0  0  0  0  0  0  0  0  0  0  0  0
   24.7403  -22.8365  -13.6372 C   0  0  0  0  0  0  0  0  0  0  0  0
   25.0922  -24.0161  -12.9573 O   0  0  0  0  0  0  0  0  0  0  0  0
   25.1810  -21.5576   -9.9324 C   0  0  0  0  0  0  0  0  0  0  0  0
   25.8646  -21.3537   -8.7536 C   0  0  0  0  0  0  0  0  0  0  0  0
   23.9829  -22.9382  -14.6515 O   0  0  0  0  0  0  0  0  0  0  0  0
  2  1  1  1
  2  3  1  0
  4  5  1  0
  4  2  1  0
  5  6  1  6
  7 13  1  0
  7  5  1  0
  8  7  2  0
 10  9  1  6
 11 10  1  0
 12 14  1  0
 12 10  1  0
 12 13  1  1
 14 15  2  0
 16 17  1  0
 17 27  2  0
 17 18  1  0
 18 19  2  0
 19 20  1  0
 20 21  1  0
 22 21  1  1
 22 24  1  0
 23 22  1  0
 23 14  1  0
 24 25  1  0
 26 20  2  0
 27 26  1  0
 28 24  2  0
M  END
$$$$
