LVY.pdb
     RDKit          3D

 28 28  0  0  1  0  0  0  0  0999 V2000
   25.8940  -34.1767  -12.9078 C   0  0  0  0  0  0  0  0  0  0  0  0
   24.5057  -34.1386  -12.3543 C   0  0  2  0  0  0  0  0  0  0  0  0
   23.8231  -35.4571  -12.6659 C   0  0  0  0  0  0  0  0  0  0  0  0
   23.7309  -32.9638  -12.8466 C   0  0  0  0  0  0  0  0  0  0  0  0
   22.3449  -32.8476  -12.2769 C   0  0  2  0  0  0  0  0  0  0  0  0
   21.5856  -31.8074  -12.9422 N   0  0  0  0  0  0  0  0  0  0  0  0
   22.4803  -32.5560  -10.8238 C   0  0  0  0  0  0  0  0  0  0  0  0
   22.9093  -31.4279  -10.4505 O   0  0  0  0  0  0  0  0  0  0  0  0
   20.9748  -33.0180   -6.2484 C   0  0  0  0  0  0  0  0  0  0  0  0
   20.8624  -33.3680   -7.7119 C   0  0  1  0  0  0  0  0  0  0  0  0
   19.7311  -32.5680   -8.3019 C   0  0  0  0  0  0  0  0  0  0  0  0
   22.1748  -33.0930   -8.4144 C   0  0  2  0  0  0  0  0  0  0  0  0
   22.1537  -33.4778   -9.7916 N   0  0  0  0  0  0  0  0  0  0  0  0
   23.2800  -33.6966   -7.6420 C   0  0  0  0  0  0  0  0  0  0  0  0
   23.4239  -34.9471   -7.7438 O   0  0  0  0  0  0  0  0  0  0  0  0
   30.2949  -34.8260   -2.2784 O   0  0  0  0  0  0  0  0  0  0  0  0
   29.2965  -34.3078   -3.0761 C   0  0  0  0  0  0  0  0  0  0  0  0
   29.3882  -34.4782   -4.4354 C   0  0  0  0  0  0  0  0  0  0  0  0
   28.4007  -33.9690   -5.2605 C   0  0  0  0  0  0  0  0  0  0  0  0
   27.3029  -33.2827   -4.7762 C   0  0  0  0  0  0  0  0  0  0  0  0
   26.2389  -32.7228   -5.6061 C   0  0  0  0  0  0  0  0  0  0  0  0
   25.1482  -33.7006   -5.9695 C   0  0  2  0  0  0  0  0  0  0  0  0
   24.1738  -33.0015   -6.8128 N   0  0  0  0  0  0  0  0  0  0  0  0
   24.4757  -34.3167   -4.8257 C   0  0  0  0  0  0  0  0  0  0  0  0
   23.6517  -33.6147   -3.9280 O   0  0  0  0  0  0  0  0  0  0  0  0
   27.2373  -33.1258   -3.3958 C   0  0  0  0  0  0  0  0  0  0  0  0
   28.2136  -33.6278   -2.5632 C   0  0  0  0  0  0  0  0  0  0  0  0
   24.6448  -35.5601   -4.6296 O   0  0  0  0  0  0  0  0  0  0  0  0
  2  1  1  6
  2  3  1  0
  4  5  1  0
  4  2  1  0
  5  6  1  6
  7 13  1  0
  7  5  1  0
  8  7  2  0
 10  9  1  1
 11 10  1  0
 12 14  1  0
 12 10  1  0
 12 13  1  6
 14 15  2  0
 16 17  1  0
 17 27  2  0
 17 18  1  0
 18 19  2  0
 19 20  1  0
 20 21  1  0
 22 21  1  1
 22 24  1  0
 23 22  1  0
 23 14  1  0
 24 25  1  0
 26 20  2  0
 27 26  1  0
 28 24  2  0
M  END
$$$$
