LVY.pdb
     RDKit          3D

 28 28  0  0  1  0  0  0  0  0999 V2000
   27.4877  -20.1847   -4.0423 C   0  0  0  0  0  0  0  0  0  0  0  0
   28.3292  -19.5343   -5.0930 C   0  0  2  0  0  0  0  0  0  0  0  0
   28.9953  -18.3109   -4.4922 C   0  0  0  0  0  0  0  0  0  0  0  0
   27.5521  -19.2149   -6.3246 C   0  0  0  0  0  0  0  0  0  0  0  0
   26.9204  -20.4055   -6.9899 C   0  0  2  0  0  0  0  0  0  0  0  0
   27.7789  -21.5710   -6.9133 N   0  0  0  0  0  0  0  0  0  0  0  0
   26.6534  -20.0379   -8.4071 C   0  0  0  0  0  0  0  0  0  0  0  0
   26.1907  -18.8943   -8.6793 O   0  0  0  0  0  0  0  0  0  0  0  0
   28.8555  -19.6413  -11.3334 C   0  0  0  0  0  0  0  0  0  0  0  0
   27.7761  -20.5988  -11.7753 C   0  0  1  0  0  0  0  0  0  0  0  0
   28.3574  -21.9879  -11.7936 C   0  0  0  0  0  0  0  0  0  0  0  0
   26.5819  -20.4986  -10.8504 C   0  0  2  0  0  0  0  0  0  0  0  0
   26.8861  -20.9016   -9.5124 N   0  0  0  0  0  0  0  0  0  0  0  0
   25.4386  -21.2194  -11.4464 C   0  0  0  0  0  0  0  0  0  0  0  0
   25.1959  -22.3713  -10.9893 O   0  0  0  0  0  0  0  0  0  0  0  0
   18.6406  -23.2045   -8.4583 O   0  0  0  0  0  0  0  0  0  0  0  0
   19.6315  -22.4906   -9.0986 C   0  0  0  0  0  0  0  0  0  0  0  0
   19.3306  -21.8718  -10.2867 C   0  0  0  0  0  0  0  0  0  0  0  0
   20.3053  -21.1483  -10.9514 C   0  0  0  0  0  0  0  0  0  0  0  0
   21.5942  -21.0135  -10.4704 C   0  0  0  0  0  0  0  0  0  0  0  0
   22.6575  -20.2659  -11.1374 C   0  0  0  0  0  0  0  0  0  0  0  0
   23.1515  -20.8893  -12.4200 C   0  0  2  0  0  0  0  0  0  0  0  0
   24.6085  -20.7341  -12.4688 N   0  0  0  0  0  0  0  0  0  0  0  0
   22.5450  -20.3457  -13.6352 C   0  0  0  0  0  0  0  0  0  0  0  0
   21.4392  -20.9213  -14.2859 O   0  0  0  0  0  0  0  0  0  0  0  0
   21.8692  -21.6512   -9.2654 C   0  0  0  0  0  0  0  0  0  0  0  0
   20.9081  -22.3745   -8.5935 C   0  0  0  0  0  0  0  0  0  0  0  0
   23.0455  -19.2905  -14.1344 O   0  0  0  0  0  0  0  0  0  0  0  0
  2  1  1  1
  2  3  1  0
  4  5  1  0
  4  2  1  0
  5  6  1  6
  7 13  1  0
  7  5  1  0
  8  7  2  0
 10  9  1  1
 11 10  1  0
 12 14  1  0
 12 10  1  0
 12 13  1  1
 14 15  2  0
 16 17  1  0
 17 27  2  0
 17 18  1  0
 18 19  2  0
 19 20  1  0
 20 21  1  0
 22 21  1  1
 22 24  1  0
 23 22  1  0
 23 14  1  0
 24 25  1  0
 26 20  2  0
 27 26  1  0
 28 24  2  0
M  END
$$$$
