LVY.pdb
     RDKit          3D

 28 28  0  0  1  0  0  0  0  0999 V2000
   31.5783  -38.6899  -20.9778 C   0  0  0  0  0  0  0  0  0  0  0  0
   31.0448  -38.9493  -19.6055 C   0  0  2  0  0  0  0  0  0  0  0  0
   29.6250  -39.4695  -19.7274 C   0  0  0  0  0  0  0  0  0  0  0  0
   31.1405  -37.7509  -18.7239 C   0  0  0  0  0  0  0  0  0  0  0  0
   32.5421  -37.2656  -18.4808 C   0  0  2  0  0  0  0  0  0  0  0  0
   33.2683  -38.1646  -17.6059 N   0  0  0  0  0  0  0  0  0  0  0  0
   32.4484  -35.9063  -17.8821 C   0  0  0  0  0  0  0  0  0  0  0  0
   32.3130  -35.7823  -16.6322 O   0  0  0  0  0  0  0  0  0  0  0  0
   33.2815  -31.0965  -17.8750 C   0  0  0  0  0  0  0  0  0  0  0  0
   33.4022  -32.4209  -18.5880 C   0  0  1  0  0  0  0  0  0  0  0  0
   34.8301  -32.8866  -18.4779 C   0  0  0  0  0  0  0  0  0  0  0  0
   32.4344  -33.4214  -17.9931 C   0  0  2  0  0  0  0  0  0  0  0  0
   32.5013  -34.6992  -18.6318 N   0  0  0  0  0  0  0  0  0  0  0  0
   31.0783  -32.8362  -17.9678 C   0  0  0  0  0  0  0  0  0  0  0  0
   30.4054  -32.9219  -19.0329 O   0  0  0  0  0  0  0  0  0  0  0  0
   22.7105  -31.7475  -17.6344 O   0  0  0  0  0  0  0  0  0  0  0  0
   24.0540  -32.0389  -17.5262 C   0  0  0  0  0  0  0  0  0  0  0  0
   24.5466  -32.4164  -16.3015 C   0  0  0  0  0  0  0  0  0  0  0  0
   25.8909  -32.7150  -16.1633 C   0  0  0  0  0  0  0  0  0  0  0  0
   26.7826  -32.6514  -17.2176 C   0  0  0  0  0  0  0  0  0  0  0  0
   28.2091  -32.9514  -17.1204 C   0  0  0  0  0  0  0  0  0  0  0  0
   29.0890  -31.7450  -16.9003 C   0  0  2  0  0  0  0  0  0  0  0  0
   30.4826  -32.1990  -16.8683 N   0  0  0  0  0  0  0  0  0  0  0  0
   28.7803  -30.9772  -15.6940 C   0  0  0  0  0  0  0  0  0  0  0  0
   28.0347  -29.7848  -15.6917 O   0  0  0  0  0  0  0  0  0  0  0  0
   26.2547  -32.2662  -18.4454 C   0  0  0  0  0  0  0  0  0  0  0  0
   24.9185  -31.9662  -18.5965 C   0  0  0  0  0  0  0  0  0  0  0  0
   29.2105  -31.4116  -14.5807 O   0  0  0  0  0  0  0  0  0  0  0  0
  2  1  1  6
  2  3  1  0
  4  5  1  0
  4  2  1  0
  5  6  1  1
  7 13  1  0
  7  5  1  0
  8  7  2  0
 10  9  1  1
 11 10  1  0
 12 14  1  0
 12 10  1  0
 12 13  1  6
 14 15  2  0
 16 17  1  0
 17 27  2  0
 17 18  1  0
 18 19  2  0
 19 20  1  0
 20 21  1  0
 22 21  1  1
 22 24  1  0
 23 22  1  0
 23 14  1  0
 24 25  1  0
 26 20  2  0
 27 26  1  0
 28 24  2  0
M  END
$$$$
