LVY.pdb
     RDKit          3D

 28 28  0  0  1  0  0  0  0  0999 V2000
   28.5468  -17.8544  -17.5431 C   0  0  0  0  0  0  0  0  0  0  0  0
   27.3281  -18.5352  -18.0781 C   0  0  2  0  0  0  0  0  0  0  0  0
   26.4311  -17.4920  -18.7174 C   0  0  0  0  0  0  0  0  0  0  0  0
   26.6220  -19.3350  -17.0368 C   0  0  0  0  0  0  0  0  0  0  0  0
   27.5049  -20.2799  -16.2708 C   0  0  2  0  0  0  0  0  0  0  0  0
   27.9996  -21.3461  -17.1191 N   0  0  0  0  0  0  0  0  0  0  0  0
   26.7025  -20.8298  -15.1444 C   0  0  0  0  0  0  0  0  0  0  0  0
   25.9247  -21.8041  -15.3489 O   0  0  0  0  0  0  0  0  0  0  0  0
   25.7554  -21.5716  -10.4071 C   0  0  0  0  0  0  0  0  0  0  0  0
   26.5986  -20.8417  -11.4236 C   0  0  1  0  0  0  0  0  0  0  0  0
   27.9626  -21.4794  -11.4492 C   0  0  0  0  0  0  0  0  0  0  0  0
   25.9296  -20.8846  -12.7808 C   0  0  2  0  0  0  0  0  0  0  0  0
   26.7454  -20.3274  -13.8149 N   0  0  0  0  0  0  0  0  0  0  0  0
   24.5872  -20.2754  -12.6851 C   0  0  0  0  0  0  0  0  0  0  0  0
   24.5434  -19.0439  -12.4091 O   0  0  0  0  0  0  0  0  0  0  0  0
   16.6756  -17.1911  -14.4366 O   0  0  0  0  0  0  0  0  0  0  0  0
   17.8936  -17.8343  -14.3690 C   0  0  0  0  0  0  0  0  0  0  0  0
   18.9999  -17.1072  -14.0051 C   0  0  0  0  0  0  0  0  0  0  0  0
   20.2352  -17.7266  -13.9287 C   0  0  0  0  0  0  0  0  0  0  0  0
   20.4166  -19.0686  -14.2059 C   0  0  0  0  0  0  0  0  0  0  0  0
   21.6993  -19.7652  -14.1445 C   0  0  0  0  0  0  0  0  0  0  0  0
   22.0812  -20.2536  -12.7685 C   0  0  2  0  0  0  0  0  0  0  0  0
   23.3689  -20.9463  -12.8735 N   0  0  0  0  0  0  0  0  0  0  0  0
   21.0907  -21.1228  -12.1334 C   0  0  0  0  0  0  0  0  0  0  0  0
   20.0279  -20.6539  -11.3407 O   0  0  0  0  0  0  0  0  0  0  0  0
   19.2781  -19.7789  -14.5717 C   0  0  0  0  0  0  0  0  0  0  0  0
   18.0425  -19.1745  -14.6515 C   0  0  0  0  0  0  0  0  0  0  0  0
   21.1948  -22.3767  -12.3068 O   0  0  0  0  0  0  0  0  0  0  0  0
  2  1  1  1
  2  3  1  0
  4  5  1  0
  4  2  1  0
  5  6  1  6
  7 13  1  0
  7  5  1  0
  8  7  2  0
 10  9  1  1
 11 10  1  0
 12 14  1  0
 12 10  1  0
 12 13  1  6
 14 15  2  0
 16 17  1  0
 17 27  2  0
 17 18  1  0
 18 19  2  0
 19 20  1  0
 20 21  1  0
 22 21  1  6
 22 24  1  0
 23 22  1  0
 23 14  1  0
 24 25  1  0
 26 20  2  0
 27 26  1  0
 28 24  2  0
M  END
$$$$
