LVY.pdb
     RDKit          3D

 28 28  0  0  1  0  0  0  0  0999 V2000
   28.4547  -17.7882  -16.7141 C   0  0  0  0  0  0  0  0  0  0  0  0
   27.6301  -16.7031  -16.0996 C   0  0  2  0  0  0  0  0  0  0  0  0
   28.5591  -15.6175  -15.5900 C   0  0  0  0  0  0  0  0  0  0  0  0
   26.7158  -17.2166  -15.0398 C   0  0  0  0  0  0  0  0  0  0  0  0
   25.9678  -18.4657  -15.4128 C   0  0  2  0  0  0  0  0  0  0  0  0
   24.9434  -18.1929  -16.4015 N   0  0  0  0  0  0  0  0  0  0  0  0
   25.3673  -19.0174  -14.1679 C   0  0  0  0  0  0  0  0  0  0  0  0
   24.4327  -18.3903  -13.5940 O   0  0  0  0  0  0  0  0  0  0  0  0
   23.4369  -21.9994  -13.8339 C   0  0  0  0  0  0  0  0  0  0  0  0
   24.4590  -22.1276  -12.7313 C   0  0  1  0  0  0  0  0  0  0  0  0
   25.4927  -23.1346  -13.1620 C   0  0  0  0  0  0  0  0  0  0  0  0
   25.0755  -20.7773  -12.4345 C   0  0  2  0  0  0  0  0  0  0  0  0
   25.7771  -20.2337  -13.5558 N   0  0  0  0  0  0  0  0  0  0  0  0
   25.8916  -20.8703  -11.2067 C   0  0  0  0  0  0  0  0  0  0  0  0
   26.9620  -21.5354  -11.2882 O   0  0  0  0  0  0  0  0  0  0  0  0
   29.5567  -19.7983   -3.2572 O   0  0  0  0  0  0  0  0  0  0  0  0
   28.9766  -19.7160   -4.5056 C   0  0  0  0  0  0  0  0  0  0  0  0
   29.4792  -20.4988   -5.5153 C   0  0  0  0  0  0  0  0  0  0  0  0
   28.9167  -20.4371   -6.7782 C   0  0  0  0  0  0  0  0  0  0  0  0
   27.8518  -19.6098   -7.0822 C   0  0  0  0  0  0  0  0  0  0  0  0
   27.2282  -19.5058   -8.3993 C   0  0  0  0  0  0  0  0  0  0  0  0
   26.2970  -20.6427   -8.7427 C   0  0  2  0  0  0  0  0  0  0  0  0
   25.5780  -20.2864   -9.9696 N   0  0  0  0  0  0  0  0  0  0  0  0
   25.3485  -20.9944   -7.6858 C   0  0  0  0  0  0  0  0  0  0  0  0
   23.9518  -20.9040   -7.8225 O   0  0  0  0  0  0  0  0  0  0  0  0
   27.3643  -18.8289   -6.0396 C   0  0  0  0  0  0  0  0  0  0  0  0
   27.9151  -18.8809   -4.7778 C   0  0  0  0  0  0  0  0  0  0  0  0
   25.8120  -21.4063   -6.5774 O   0  0  0  0  0  0  0  0  0  0  0  0
  2  1  1  1
  2  3  1  0
  4  5  1  0
  4  2  1  0
  5  6  1  6
  7 13  1  0
  7  5  1  0
  8  7  2  0
 10  9  1  6
 11 10  1  0
 12 14  1  0
 12 10  1  0
 12 13  1  6
 14 15  2  0
 16 17  1  0
 17 27  2  0
 17 18  1  0
 18 19  2  0
 19 20  1  0
 20 21  1  0
 22 21  1  1
 22 24  1  0
 23 22  1  0
 23 14  1  0
 24 25  1  0
 26 20  2  0
 27 26  1  0
 28 24  2  0
M  END
$$$$
