RVA.pdb
     RDKit          3D

 24 23  0  0  1  0  0  0  0  0999 V2000
    9.4004  -15.0889   16.9498 N   0  0  0  0  0  0  0  0  0  0  0  0
    8.3222  -14.1630   16.7304 C   0  0  0  0  0  0  0  0  0  0  0  0
    8.1284  -13.7017   15.5503 N   0  0  0  0  0  0  0  0  0  0  0  0
    7.4986  -13.7765   17.7977 N   0  0  0  0  0  0  0  0  0  0  0  0
    6.8207  -14.7374   18.6566 C   0  0  0  0  0  0  0  0  0  0  0  0
    7.7690  -15.5516   19.4622 C   0  0  0  0  0  0  0  0  0  0  0  0
    8.3947  -14.8899   20.6476 C   0  0  0  0  0  0  0  0  0  0  0  0
    7.5635  -15.0314   21.8606 C   0  0  2  0  0  0  0  0  0  0  0  0
    6.2416  -14.5047   21.6401 N   0  0  0  0  0  0  0  0  0  0  0  0
    8.1436  -14.3370   23.0531 C   0  0  0  0  0  0  0  0  0  0  0  0
    9.0384  -13.4693   22.9021 O   0  0  0  0  0  0  0  0  0  0  0  0
    7.4053  -13.0587   15.2351 C   0  0  0  0  0  0  0  0  0  0  0  0
    6.8497  -11.8966   25.4131 C   0  0  2  0  0  0  0  0  0  0  0  0
    7.2617  -13.1009   26.2163 C   0  0  0  0  0  0  0  0  0  0  0  0
    6.1547  -13.8064   26.9199 C   0  0  2  0  0  0  0  0  0  0  0  0
    8.2429  -13.9969   25.5869 N   0  0  0  0  0  0  0  0  0  0  0  0
    7.7169  -14.6233   24.3697 C   0  0  0  0  0  0  0  0  0  0  0  0
    8.9781  -14.9525   26.4119 O   0  0  0  0  0  0  0  0  0  0  0  0
    8.3978  -16.0734   26.6534 C   0  0  0  0  0  0  0  0  0  0  0  0
   12.2303  -15.3998   28.2946 C   0  0  2  0  0  0  0  0  0  0  0  0
   10.8157  -15.7739   27.9136 N   0  0  0  0  0  0  0  0  0  0  0  0
   10.2452  -14.8114   26.9814 C   0  0  0  0  0  0  0  0  0  0  0  0
    9.9834  -15.7827   29.1340 O   0  0  0  0  0  0  0  0  0  0  0  0
    9.8666  -16.8835   29.9730 O   0  0  0  0  0  0  0  0  0  0  0  0
  1  2  1  0
  2  3  2  0
  4  5  1  0
  4  2  1  0
  6  7  1  0
  6  5  1  0
  8  9  1  6
  8  7  1  0
 10  8  1  0
 10 16  1  0
 11 10  2  0
 13 12  1  1
 13 15  1  0
 14 13  1  0
 15 16  1  1
 15 17  1  0
 17 21  1  0
 18 17  2  0
 20 22  1  0
 20 19  1  6
 21 20  1  0
 22 23  1  0
 24 22  2  0
M  END
$$$$
