RVA.pdb
     RDKit          3D

 24 23  0  0  1  0  0  0  0  0999 V2000
    8.1700  -12.5166   17.1185 N   0  0  0  0  0  0  0  0  0  0  0  0
    8.7114  -13.8485   17.1506 C   0  0  0  0  0  0  0  0  0  0  0  0
    8.7764  -14.5204   16.0610 N   0  0  0  0  0  0  0  0  0  0  0  0
    9.1605  -14.3963   18.3610 N   0  0  0  0  0  0  0  0  0  0  0  0
    8.2720  -15.0702   19.2975 C   0  0  0  0  0  0  0  0  0  0  0  0
    7.4158  -14.1204   20.0564 C   0  0  0  0  0  0  0  0  0  0  0  0
    6.4972  -14.7043   21.0811 C   0  0  0  0  0  0  0  0  0  0  0  0
    7.2071  -15.6139   22.0035 C   0  0  2  0  0  0  0  0  0  0  0  0
    6.2854  -16.5169   22.6427 N   0  0  0  0  0  0  0  0  0  0  0  0
    7.9618  -14.8905   23.0750 C   0  0  0  0  0  0  0  0  0  0  0  0
    9.0197  -14.2757   22.7935 O   0  0  0  0  0  0  0  0  0  0  0  0
    9.1920  -15.4368   15.9086 C   0  0  0  0  0  0  0  0  0  0  0  0
    5.9375  -13.6860   26.5083 C   0  0  1  0  0  0  0  0  0  0  0  0
    7.3362  -13.2220   26.2026 C   0  0  0  0  0  0  0  0  0  0  0  0
    8.0056  -12.4568   27.2910 C   0  0  1  0  0  0  0  0  0  0  0  0
    8.2085  -14.1914   25.5236 N   0  0  0  0  0  0  0  0  0  0  0  0
    7.5239  -14.8702   24.4185 C   0  0  0  0  0  0  0  0  0  0  0  0
    9.0058  -15.1225   26.3185 O   0  0  0  0  0  0  0  0  0  0  0  0
    9.7423  -14.6118   27.2395 C   0  0  0  0  0  0  0  0  0  0  0  0
   11.1491  -17.7944   26.4844 C   0  0  1  0  0  0  0  0  0  0  0  0
    9.8520  -17.3469   27.1199 N   0  0  0  0  0  0  0  0  0  0  0  0
    9.0765  -16.5130   26.2122 C   0  0  0  0  0  0  0  0  0  0  0  0
   10.1650  -16.5505   28.3240 O   0  0  0  0  0  0  0  0  0  0  0  0
   10.8721  -17.0502   29.4100 O   0  0  0  0  0  0  0  0  0  0  0  0
  1  2  1  0
  2  3  2  0
  4  5  1  0
  4  2  1  0
  6  7  1  0
  6  5  1  0
  8  9  1  1
  8  7  1  0
 10  8  1  0
 10 16  1  0
 11 10  2  0
 13 12  1  6
 13 15  1  0
 14 13  1  0
 15 16  1  6
 15 17  1  0
 17 21  1  0
 18 17  2  0
 20 22  1  0
 20 19  1  6
 21 20  1  0
 22 23  1  0
 24 22  2  0
M  END
$$$$
