RVA.pdb
     RDKit          3D

 24 23  0  0  1  0  0  0  0  0999 V2000
   14.4005  -20.0691   19.6109 N   0  0  0  0  0  0  0  0  0  0  0  0
   14.6940  -21.2969   20.2999 C   0  0  0  0  0  0  0  0  0  0  0  0
   15.2475  -22.2558   19.6541 N   0  0  0  0  0  0  0  0  0  0  0  0
   14.3769  -21.4340   21.6590 N   0  0  0  0  0  0  0  0  0  0  0  0
   13.6893  -20.3967   22.4152 C   0  0  0  0  0  0  0  0  0  0  0  0
   13.4293  -19.1770   21.6054 C   0  0  0  0  0  0  0  0  0  0  0  0
   12.7077  -18.0551   22.2801 C   0  0  0  0  0  0  0  0  0  0  0  0
   11.6375  -17.4967   21.4287 C   0  0  2  0  0  0  0  0  0  0  0  0
   12.1596  -17.0915   20.1494 N   0  0  0  0  0  0  0  0  0  0  0  0
   10.9555  -16.3147   22.0439 C   0  0  0  0  0  0  0  0  0  0  0  0
   11.5398  -15.2043   22.0885 O   0  0  0  0  0  0  0  0  0  0  0  0
   15.5936  -23.1424   20.0149 C   0  0  0  0  0  0  0  0  0  0  0  0
    6.5774  -14.3419   23.4442 C   0  0  1  0  0  0  0  0  0  0  0  0
    7.5317  -15.2042   22.6626 C   0  0  0  0  0  0  0  0  0  0  0  0
    7.4398  -15.0752   21.1816 C   0  0  1  0  0  0  0  0  0  0  0  0
    8.9072  -15.2814   23.1762 N   0  0  0  0  0  0  0  0  0  0  0  0
    9.6538  -16.3981   22.5880 C   0  0  0  0  0  0  0  0  0  0  0  0
    9.1464  -15.1688   24.6130 O   0  0  0  0  0  0  0  0  0  0  0  0
    9.3765  -16.2623   25.2477 C   0  0  0  0  0  0  0  0  0  0  0  0
    9.2334  -12.6638   27.4454 C   0  0  1  0  0  0  0  0  0  0  0  0
    9.4536  -14.0266   26.8283 N   0  0  0  0  0  0  0  0  0  0  0  0
    9.1600  -14.0168   25.4020 C   0  0  0  0  0  0  0  0  0  0  0  0
    8.5457  -14.9932   27.4792 O   0  0  0  0  0  0  0  0  0  0  0  0
    8.8696  -15.6870   28.6381 O   0  0  0  0  0  0  0  0  0  0  0  0
  1  2  1  0
  2  3  2  0
  4  5  1  0
  4  2  1  0
  6  7  1  0
  6  5  1  0
  8  9  1  6
  8  7  1  0
 10  8  1  0
 10 16  1  0
 11 10  2  0
 13 12  1  6
 13 15  1  0
 14 13  1  0
 15 16  1  1
 15 17  1  0
 17 21  1  0
 18 17  2  0
 20 22  1  0
 20 19  1  6
 21 20  1  0
 22 23  1  0
 24 22  2  0
M  END
$$$$
