RVA.pdb
     RDKit          3D

 24 23  0  0  1  0  0  0  0  0999 V2000
    7.6437  -13.2712   17.6842 N   0  0  0  0  0  0  0  0  0  0  0  0
    8.2529  -14.1957   16.7663 C   0  0  0  0  0  0  0  0  0  0  0  0
    8.2961  -13.8982   15.5203 N   0  0  0  0  0  0  0  0  0  0  0  0
    8.7907  -15.4025   17.2365 N   0  0  0  0  0  0  0  0  0  0  0  0
    8.5951  -15.8725   18.6008 C   0  0  0  0  0  0  0  0  0  0  0  0
    8.9058  -14.8296   19.6141 C   0  0  0  0  0  0  0  0  0  0  0  0
    8.8388  -15.2374   21.0507 C   0  0  0  0  0  0  0  0  0  0  0  0
    7.8815  -14.4113   21.8144 C   0  0  2  0  0  0  0  0  0  0  0  0
    7.7135  -13.1206   21.1984 N   0  0  0  0  0  0  0  0  0  0  0  0
    8.2984  -14.1933   23.2354 C   0  0  0  0  0  0  0  0  0  0  0  0
    9.5165  -14.1868   23.5396 O   0  0  0  0  0  0  0  0  0  0  0  0
    8.7266  -14.4218   14.7611 C   0  0  0  0  0  0  0  0  0  0  0  0
    7.0425  -12.6362   27.8241 C   0  0  2  0  0  0  0  0  0  0  0  0
    6.8015  -12.8585   26.3552 C   0  0  0  0  0  0  0  0  0  0  0  0
    6.5429  -11.6269   25.5586 C   0  0  1  0  0  0  0  0  0  0  0  0
    7.6829  -13.8307   25.6921 N   0  0  0  0  0  0  0  0  0  0  0  0
    7.3583  -13.9899   24.2708 C   0  0  0  0  0  0  0  0  0  0  0  0
    7.9477  -15.1165   26.3331 O   0  0  0  0  0  0  0  0  0  0  0  0
    8.3723  -15.0808   27.5456 C   0  0  0  0  0  0  0  0  0  0  0  0
    7.1562  -18.7535   26.0245 C   0  0  2  0  0  0  0  0  0  0  0  0
    7.9849  -17.6156   26.5766 N   0  0  0  0  0  0  0  0  0  0  0  0
    7.7991  -16.3982   25.7994 C   0  0  0  0  0  0  0  0  0  0  0  0
    9.4116  -17.9928   26.5087 O   0  0  0  0  0  0  0  0  0  0  0  0
   10.3573  -17.2830   25.7799 O   0  0  0  0  0  0  0  0  0  0  0  0
  1  2  1  0
  2  3  2  0
  4  5  1  0
  4  2  1  0
  6  7  1  0
  6  5  1  0
  8  9  1  6
  8  7  1  0
 10  8  1  0
 10 16  1  0
 11 10  2  0
 13 12  1  1
 13 15  1  0
 14 13  1  0
 15 16  1  1
 15 17  1  0
 17 21  1  0
 18 17  2  0
 20 22  1  0
 20 19  1  1
 21 20  1  0
 22 23  1  0
 24 22  2  0
M  END
$$$$
