RVA.pdb
     RDKit          3D

 24 23  0  0  1  0  0  0  0  0999 V2000
    4.5753  -20.1899   22.2593 N   0  0  0  0  0  0  0  0  0  0  0  0
    5.7151  -19.8953   23.0854 C   0  0  0  0  0  0  0  0  0  0  0  0
    5.6909  -20.2316   24.3220 N   0  0  0  0  0  0  0  0  0  0  0  0
    6.8331  -19.2500   22.5374 N   0  0  0  0  0  0  0  0  0  0  0  0
    6.7709  -18.4806   21.3025 C   0  0  0  0  0  0  0  0  0  0  0  0
    7.3553  -17.1209   21.4469 C   0  0  0  0  0  0  0  0  0  0  0  0
    6.4081  -15.9657   21.3937 C   0  0  0  0  0  0  0  0  0  0  0  0
    7.1129  -14.6703   21.4794 C   0  0  2  0  0  0  0  0  0  0  0  0
    8.0681  -14.5353   20.4103 N   0  0  0  0  0  0  0  0  0  0  0  0
    7.8404  -14.4831   22.7742 C   0  0  0  0  0  0  0  0  0  0  0  0
    9.0698  -14.7274   22.8459 O   0  0  0  0  0  0  0  0  0  0  0  0
    6.4361  -20.1560   25.0111 C   0  0  0  0  0  0  0  0  0  0  0  0
    5.6017  -13.3150   26.3363 C   0  0  2  0  0  0  0  0  0  0  0  0
    7.0512  -12.9667   26.1300 C   0  0  0  0  0  0  0  0  0  0  0  0
    7.7825  -12.5333   27.3530 C   0  0  1  0  0  0  0  0  0  0  0  0
    7.8181  -13.8678   25.2574 N   0  0  0  0  0  0  0  0  0  0  0  0
    7.1873  -14.0330   23.9439 C   0  0  0  0  0  0  0  0  0  0  0  0
    8.3058  -15.1394   25.7863 O   0  0  0  0  0  0  0  0  0  0  0  0
    7.4875  -16.1299   25.7546 C   0  0  0  0  0  0  0  0  0  0  0  0
   11.2031  -17.2452   26.2224 C   0  0  2  0  0  0  0  0  0  0  0  0
    9.9231  -16.7397   26.8490 N   0  0  0  0  0  0  0  0  0  0  0  0
    9.5593  -15.4291   26.3289 C   0  0  0  0  0  0  0  0  0  0  0  0
   10.1264  -16.6170   28.3071 O   0  0  0  0  0  0  0  0  0  0  0  0
   10.4727  -17.6852   29.1245 O   0  0  0  0  0  0  0  0  0  0  0  0
  1  2  1  0
  2  3  2  0
  4  5  1  0
  4  2  1  0
  6  7  1  0
  6  5  1  0
  8  9  1  6
  8  7  1  0
 10  8  1  0
 10 16  1  0
 11 10  2  0
 13 12  1  6
 13 15  1  0
 14 13  1  0
 15 16  1  6
 15 17  1  0
 17 21  1  0
 18 17  2  0
 20 22  1  0
 20 19  1  6
 21 20  1  0
 22 23  1  0
 24 22  2  0
M  END
$$$$
