RVA.pdb
     RDKit          3D

 24 23  0  0  1  0  0  0  0  0999 V2000
    8.5724  -16.0740   16.4376 N   0  0  0  0  0  0  0  0  0  0  0  0
    7.1721  -16.3994   16.4731 C   0  0  0  0  0  0  0  0  0  0  0  0
    6.4328  -16.0769   15.4769 N   0  0  0  0  0  0  0  0  0  0  0  0
    6.6315  -17.0611   17.5852 N   0  0  0  0  0  0  0  0  0  0  0  0
    7.1248  -16.8553   18.9398 C   0  0  0  0  0  0  0  0  0  0  0  0
    7.8703  -15.5773   19.0879 C   0  0  0  0  0  0  0  0  0  0  0  0
    8.4447  -15.2786   20.4354 C   0  0  0  0  0  0  0  0  0  0  0  0
    7.8782  -14.0436   21.0149 C   0  0  2  0  0  0  0  0  0  0  0  0
    8.1489  -12.9100   20.1692 N   0  0  0  0  0  0  0  0  0  0  0  0
    8.4113  -13.7383   22.3800 C   0  0  0  0  0  0  0  0  0  0  0  0
    9.6263  -13.4618   22.5334 O   0  0  0  0  0  0  0  0  0  0  0  0
    5.4255  -16.1836   15.3780 C   0  0  0  0  0  0  0  0  0  0  0  0
    5.7314  -13.1591   25.7577 C   0  0  2  0  0  0  0  0  0  0  0  0
    7.1937  -12.8036   25.7383 C   0  0  0  0  0  0  0  0  0  0  0  0
    7.7779  -12.4380   27.0587 C   0  0  1  0  0  0  0  0  0  0  0  0
    8.0593  -13.6585   24.9128 N   0  0  0  0  0  0  0  0  0  0  0  0
    7.5865  -13.7484   23.5275 C   0  0  0  0  0  0  0  0  0  0  0  0
    8.4847  -14.9594   25.4239 O   0  0  0  0  0  0  0  0  0  0  0  0
    7.6252  -15.9129   25.3632 C   0  0  0  0  0  0  0  0  0  0  0  0
   11.3446  -17.1462   25.9444 C   0  0  2  0  0  0  0  0  0  0  0  0
   10.0186  -16.6480   26.4735 N   0  0  0  0  0  0  0  0  0  0  0  0
    9.7171  -15.3127   25.9770 C   0  0  0  0  0  0  0  0  0  0  0  0
   10.0903  -16.5864   27.9478 O   0  0  0  0  0  0  0  0  0  0  0  0
   10.2542  -17.7057   28.7538 O   0  0  0  0  0  0  0  0  0  0  0  0
  1  2  1  0
  2  3  2  0
  4  5  1  0
  4  2  1  0
  6  7  1  0
  6  5  1  0
  8  9  1  6
  8  7  1  0
 10  8  1  0
 10 16  1  0
 11 10  2  0
 13 12  1  6
 13 15  1  0
 14 13  1  0
 15 16  1  6
 15 17  1  0
 17 21  1  0
 18 17  2  0
 20 22  1  0
 20 19  1  6
 21 20  1  0
 22 23  1  0
 24 22  2  0
M  END
$$$$
