RVA.pdb
     RDKit          3D

 24 23  0  0  1  0  0  0  0  0999 V2000
    7.5661  -12.6295   19.8037 N   0  0  0  0  0  0  0  0  0  0  0  0
    8.1769  -13.3084   18.6927 C   0  0  0  0  0  0  0  0  0  0  0  0
    8.2251  -12.7208   17.5546 N   0  0  0  0  0  0  0  0  0  0  0  0
    8.7108  -14.5942   18.8613 N   0  0  0  0  0  0  0  0  0  0  0  0
    7.8910  -15.7478   19.2045 C   0  0  0  0  0  0  0  0  0  0  0  0
    7.7527  -15.9334   20.6733 C   0  0  0  0  0  0  0  0  0  0  0  0
    8.0555  -17.2923   21.2174 C   0  0  0  0  0  0  0  0  0  0  0  0
    7.6529  -17.4219   22.6328 C   0  0  2  0  0  0  0  0  0  0  0  0
    6.2258  -17.2910   22.7735 N   0  0  0  0  0  0  0  0  0  0  0  0
    8.2990  -16.4053   23.5216 C   0  0  0  0  0  0  0  0  0  0  0  0
    9.5060  -16.1018   23.3563 O   0  0  0  0  0  0  0  0  0  0  0  0
    8.6012  -13.0743   16.6774 C   0  0  0  0  0  0  0  0  0  0  0  0
    7.6008  -12.7918   26.9390 C   0  0  2  0  0  0  0  0  0  0  0  0
    7.2520  -13.6706   25.7680 C   0  0  0  0  0  0  0  0  0  0  0  0
    6.7974  -12.9518   24.5453 C   0  0  1  0  0  0  0  0  0  0  0  0
    8.1649  -14.7922   25.5029 N   0  0  0  0  0  0  0  0  0  0  0  0
    7.5920  -15.7590   24.5607 C   0  0  0  0  0  0  0  0  0  0  0  0
    8.8324  -15.4566   26.6198 O   0  0  0  0  0  0  0  0  0  0  0  0
    8.1116  -16.2398   27.3400 C   0  0  0  0  0  0  0  0  0  0  0  0
   12.2434  -16.1922   28.0169 C   0  0  2  0  0  0  0  0  0  0  0  0
   10.7362  -16.1214   28.1163 N   0  0  0  0  0  0  0  0  0  0  0  0
   10.1673  -15.3553   27.0162 C   0  0  0  0  0  0  0  0  0  0  0  0
   10.3764  -15.4487   29.3813 O   0  0  0  0  0  0  0  0  0  0  0  0
   10.4471  -16.0657   30.6236 O   0  0  0  0  0  0  0  0  0  0  0  0
  1  2  1  0
  2  3  2  0
  4  5  1  0
  4  2  1  0
  6  7  1  0
  6  5  1  0
  8  9  1  6
  8  7  1  0
 10  8  1  0
 10 16  1  0
 11 10  2  0
 13 12  1  1
 13 15  1  0
 14 13  1  0
 15 16  1  1
 15 17  1  0
 17 21  1  0
 18 17  2  0
 20 22  1  0
 20 19  1  6
 21 20  1  0
 22 23  1  0
 24 22  2  0
M  END
$$$$
