HRA.pdb
     RDKit          3D

 27 27  0  0  1  0  0  0  0  0999 V2000
    4.3920  -20.2639   20.9050 N   0  0  0  0  0  0  0  0  0  0  0  0
    4.1633  -19.2549   21.9033 C   0  0  1  0  0  0  0  0  0  0  0  0
    3.1594  -19.6710   22.9528 C   0  0  0  0  0  0  0  0  0  0  0  0
    1.8121  -19.8371   22.3523 C   0  0  0  0  0  0  0  0  0  0  0  0
    1.4237  -19.6913   21.0399 C   0  0  0  0  0  0  0  0  0  0  0  0
    0.1008  -19.9346   20.9272 N   0  0  0  0  0  0  0  0  0  0  0  0
   -0.3407  -20.2321   22.1630 C   0  0  0  0  0  0  0  0  0  0  0  0
    0.7059  -20.1722   23.0327 N   0  0  0  0  0  0  0  0  0  0  0  0
    5.4584  -18.8743   22.5055 C   0  0  0  0  0  0  0  0  0  0  0  0
    6.3067  -19.7580   22.7666 O   0  0  0  0  0  0  0  0  0  0  0  0
    8.6552  -11.3405   19.9944 N   0  0  0  0  0  0  0  0  0  0  0  0
    9.3584  -12.5195   19.6256 C   0  0  0  0  0  0  0  0  0  0  0  0
   10.3036  -12.4479   18.7480 N   0  0  0  0  0  0  0  0  0  0  0  0
    9.0532  -13.7800   20.1953 N   0  0  0  0  0  0  0  0  0  0  0  0
    8.1950  -13.9660   21.3443 C   0  0  0  0  0  0  0  0  0  0  0  0
    8.0507  -15.4261   21.7031 C   0  0  0  0  0  0  0  0  0  0  0  0
    7.2360  -15.6497   22.9272 C   0  0  0  0  0  0  0  0  0  0  0  0
    7.0067  -17.0926   23.2603 C   0  0  2  0  0  0  0  0  0  0  0  0
    5.6964  -17.4950   22.7704 N   0  0  0  0  0  0  0  0  0  0  0  0
    6.9911  -17.1860   24.7664 C   0  0  0  0  0  0  0  0  0  0  0  0
    6.1526  -16.5497   25.4539 O   0  0  0  0  0  0  0  0  0  0  0  0
   10.8407  -13.2669   18.4048 C   0  0  0  0  0  0  0  0  0  0  0  0
    7.4555  -19.4501   27.3043 C   0  0  1  0  0  0  0  0  0  0  0  0
    7.9032  -18.0650   26.9167 N   0  0  0  0  0  0  0  0  0  0  0  0
    7.9241  -17.9974   25.4649 C   0  0  0  0  0  0  0  0  0  0  0  0
    9.2700  -17.7709   27.4231 O   0  0  0  0  0  0  0  0  0  0  0  0
   10.2085  -17.4997   26.6385 O   0  0  0  0  0  0  0  0  0  0  0  0
  2  1  1  6
  2  3  1  0
  4  3  1  0
  5  4  2  0
  6  7  1  0
  6  5  1  0
  7  8  2  0
  8  4  1  0
  9 19  1  0
  9  2  1  0
 10  9  2  0
 11 12  1  0
 12 14  1  0
 13 12  2  0
 14 15  1  0
 16 15  1  0
 18 17  1  1
 17 16  1  0
 18 19  1  0
 20 18  1  0
 21 20  2  0
 23 22  1  1
 23 25  1  0
 23 24  1  0
 24 20  1  0
 25 27  1  0
 26 25  2  0
M  END
$$$$
