HRA.pdb
     RDKit          3D

 27 27  0  0  1  0  0  0  0  0999 V2000
   13.1879  -17.5257   20.6309 N   0  0  0  0  0  0  0  0  0  0  0  0
   12.0666  -18.0379   21.3706 C   0  0  1  0  0  0  0  0  0  0  0  0
   12.4531  -19.0794   22.3946 C   0  0  0  0  0  0  0  0  0  0  0  0
   12.6437  -20.4027   21.7496 C   0  0  0  0  0  0  0  0  0  0  0  0
   12.5353  -20.7432   20.4203 C   0  0  0  0  0  0  0  0  0  0  0  0
   12.7898  -22.0596   20.2657 N   0  0  0  0  0  0  0  0  0  0  0  0
   13.0571  -22.5449   21.4919 C   0  0  0  0  0  0  0  0  0  0  0  0
   12.9674  -21.5315   22.3976 N   0  0  0  0  0  0  0  0  0  0  0  0
   11.3423  -16.9067   21.9875 C   0  0  0  0  0  0  0  0  0  0  0  0
   11.9636  -16.0840   22.6988 O   0  0  0  0  0  0  0  0  0  0  0  0
    8.6968  -12.5750   18.5607 N   0  0  0  0  0  0  0  0  0  0  0  0
    8.0995  -13.5852   17.7587 C   0  0  0  0  0  0  0  0  0  0  0  0
    8.6092  -13.8656   16.6052 N   0  0  0  0  0  0  0  0  0  0  0  0
    6.9546  -14.3000   18.1884 N   0  0  0  0  0  0  0  0  0  0  0  0
    6.7460  -14.7619   19.5429 C   0  0  0  0  0  0  0  0  0  0  0  0
    8.0338  -14.7779   20.3321 C   0  0  0  0  0  0  0  0  0  0  0  0
    7.9163  -15.4977   21.6284 C   0  0  0  0  0  0  0  0  0  0  0  0
    9.2163  -15.6857   22.3494 C   0  0  2  0  0  0  0  0  0  0  0  0
    9.9431  -16.7932   21.7458 N   0  0  0  0  0  0  0  0  0  0  0  0
    8.8673  -16.0728   23.7656 C   0  0  0  0  0  0  0  0  0  0  0  0
    8.6837  -17.2733   24.0906 O   0  0  0  0  0  0  0  0  0  0  0  0
    8.2243  -14.5803   15.9586 C   0  0  0  0  0  0  0  0  0  0  0  0
    8.1973  -14.2124   26.9420 C   0  0  1  0  0  0  0  0  0  0  0  0
    8.2332  -15.4614   26.1007 N   0  0  0  0  0  0  0  0  0  0  0  0
    8.7330  -15.0943   24.7860 C   0  0  0  0  0  0  0  0  0  0  0  0
    6.8781  -16.0529   25.9427 O   0  0  0  0  0  0  0  0  0  0  0  0
    6.1529  -15.7618   24.9633 O   0  0  0  0  0  0  0  0  0  0  0  0
  2  1  1  1
  2  3  1  0
  4  3  1  0
  5  4  2  0
  6  7  1  0
  6  5  1  0
  7  8  2  0
  8  4  1  0
  9 19  1  0
  9  2  1  0
 10  9  2  0
 11 12  1  0
 12 14  1  0
 13 12  2  0
 14 15  1  0
 16 15  1  0
 18 17  1  6
 17 16  1  0
 18 19  1  0
 20 18  1  0
 21 20  2  0
 23 22  1  1
 23 25  1  0
 23 24  1  0
 24 20  1  0
 25 27  1  0
 26 25  2  0
M  END
$$$$
