HRA.pdb
     RDKit          3D

 27 27  0  0  1  0  0  0  0  0999 V2000
   14.5235  -15.7009   13.2776 N   0  0  0  0  0  0  0  0  0  0  0  0
   15.0854  -15.3329   14.5486 C   0  0  1  0  0  0  0  0  0  0  0  0
   15.0759  -13.8425   14.7959 C   0  0  0  0  0  0  0  0  0  0  0  0
   16.0145  -13.1528   13.8757 C   0  0  0  0  0  0  0  0  0  0  0  0
   17.2094  -13.6008   13.3598 C   0  0  0  0  0  0  0  0  0  0  0  0
   17.7445  -12.6527   12.5620 N   0  0  0  0  0  0  0  0  0  0  0  0
   16.8901  -11.6132   12.5761 C   0  0  0  0  0  0  0  0  0  0  0  0
   15.8336  -11.9201   13.3791 N   0  0  0  0  0  0  0  0  0  0  0  0
   14.3774  -16.0692   15.6170 C   0  0  0  0  0  0  0  0  0  0  0  0
   13.1377  -16.2322   15.5436 O   0  0  0  0  0  0  0  0  0  0  0  0
   17.1394  -21.2560   22.3561 N   0  0  0  0  0  0  0  0  0  0  0  0
   15.8744  -21.7110   21.8941 C   0  0  0  0  0  0  0  0  0  0  0  0
   15.3668  -22.7903   22.3904 N   0  0  0  0  0  0  0  0  0  0  0  0
   15.1472  -21.0121   20.8996 N   0  0  0  0  0  0  0  0  0  0  0  0
   15.7280  -20.0384   20.0018 C   0  0  0  0  0  0  0  0  0  0  0  0
   14.7133  -19.5157   19.0127 C   0  0  0  0  0  0  0  0  0  0  0  0
   15.3021  -18.5985   18.0005 C   0  0  0  0  0  0  0  0  0  0  0  0
   14.4763  -17.3807   17.7174 C   0  0  2  0  0  0  0  0  0  0  0  0
   15.1438  -16.5734   16.7067 N   0  0  0  0  0  0  0  0  0  0  0  0
   14.4357  -16.5847   18.9989 C   0  0  0  0  0  0  0  0  0  0  0  0
   15.4186  -15.8969   19.3746 O   0  0  0  0  0  0  0  0  0  0  0  0
   14.4340  -23.1652   22.1326 C   0  0  0  0  0  0  0  0  0  0  0  0
   11.8640  -15.9046   21.6290 C   0  0  1  0  0  0  0  0  0  0  0  0
   13.2331  -15.7499   21.0201 N   0  0  0  0  0  0  0  0  0  0  0  0
   13.2840  -16.5826   19.8298 C   0  0  0  0  0  0  0  0  0  0  0  0
   14.3003  -16.1960   21.9546 O   0  0  0  0  0  0  0  0  0  0  0  0
   14.5990  -15.5223   22.9680 O   0  0  0  0  0  0  0  0  0  0  0  0
  2  1  1  6
  2  3  1  0
  4  3  1  0
  5  4  2  0
  6  7  1  0
  6  5  1  0
  7  8  2  0
  8  4  1  0
  9 19  1  0
  9  2  1  0
 10  9  2  0
 11 12  1  0
 12 14  1  0
 13 12  2  0
 14 15  1  0
 16 15  1  0
 18 17  1  1
 17 16  1  0
 18 19  1  0
 20 18  1  0
 21 20  2  0
 23 22  1  6
 23 25  1  0
 23 24  1  0
 24 20  1  0
 25 27  1  0
 26 25  2  0
M  END
$$$$
