HRA.pdb
     RDKit          3D

 27 27  0  0  1  0  0  0  0  0999 V2000
    6.2190  -18.0774   26.2079 N   0  0  0  0  0  0  0  0  0  0  0  0
    6.5405  -16.7208   25.8569 C   0  0  1  0  0  0  0  0  0  0  0  0
    7.1687  -15.9442   26.9905 C   0  0  0  0  0  0  0  0  0  0  0  0
    7.1063  -14.4854   26.7238 C   0  0  0  0  0  0  0  0  0  0  0  0
    8.1332  -13.6069   26.4621 C   0  0  0  0  0  0  0  0  0  0  0  0
    7.6348  -12.3660   26.2786 N   0  0  0  0  0  0  0  0  0  0  0  0
    6.3006  -12.4636   26.4242 C   0  0  0  0  0  0  0  0  0  0  0  0
    5.9791  -13.7589   26.6961 N   0  0  0  0  0  0  0  0  0  0  0  0
    7.4014  -16.7277   24.6554 C   0  0  0  0  0  0  0  0  0  0  0  0
    8.2499  -17.6364   24.5034 O   0  0  0  0  0  0  0  0  0  0  0  0
    6.9781  -14.4224   16.7904 N   0  0  0  0  0  0  0  0  0  0  0  0
    8.2710  -13.8601   16.9719 C   0  0  0  0  0  0  0  0  0  0  0  0
    9.1071  -13.8573   15.9872 N   0  0  0  0  0  0  0  0  0  0  0  0
    8.6738  -13.2978   18.2080 N   0  0  0  0  0  0  0  0  0  0  0  0
    7.8957  -13.3687   19.4250 C   0  0  0  0  0  0  0  0  0  0  0  0
    8.4144  -14.4372   20.3581 C   0  0  0  0  0  0  0  0  0  0  0  0
    7.5686  -14.6176   21.5682 C   0  0  0  0  0  0  0  0  0  0  0  0
    8.0243  -15.7152   22.4809 C   0  0  2  0  0  0  0  0  0  0  0  0
    7.2308  -15.6842   23.7008 N   0  0  0  0  0  0  0  0  0  0  0  0
    9.4544  -15.4010   22.8461 C   0  0  0  0  0  0  0  0  0  0  0  0
    9.7434  -14.4238   23.5822 O   0  0  0  0  0  0  0  0  0  0  0  0
   10.0732  -13.4826   16.0467 C   0  0  0  0  0  0  0  0  0  0  0  0
   12.3075  -17.0567   23.7183 C   0  0  1  0  0  0  0  0  0  0  0  0
   11.8920  -15.9349   22.8029 N   0  0  0  0  0  0  0  0  0  0  0  0
   10.5293  -16.1986   22.3713 C   0  0  0  0  0  0  0  0  0  0  0  0
   12.7626  -15.8605   21.5997 O   0  0  0  0  0  0  0  0  0  0  0  0
   13.9808  -15.5838   21.6960 O   0  0  0  0  0  0  0  0  0  0  0  0
  2  1  1  1
  2  3  1  0
  4  3  1  0
  5  4  2  0
  6  7  1  0
  6  5  1  0
  7  8  2  0
  8  4  1  0
  9 19  1  0
  9  2  1  0
 10  9  2  0
 11 12  1  0
 12 14  1  0
 13 12  2  0
 14 15  1  0
 16 15  1  0
 18 17  1  6
 17 16  1  0
 18 19  1  0
 20 18  1  0
 21 20  2  0
 23 22  1  1
 23 25  1  0
 23 24  1  0
 24 20  1  0
 25 27  1  0
 26 25  2  0
M  END
$$$$
