HRA.pdb
     RDKit          3D

 27 27  0  0  1  0  0  0  0  0999 V2000
    6.3245  -17.2922   20.4413 N   0  0  0  0  0  0  0  0  0  0  0  0
    7.1507  -16.2563   20.9991 C   0  0  1  0  0  0  0  0  0  0  0  0
    6.8089  -14.8781   20.4831 C   0  0  0  0  0  0  0  0  0  0  0  0
    7.6153  -14.5545   19.2796 C   0  0  0  0  0  0  0  0  0  0  0  0
    8.6389  -15.2717   18.7030 C   0  0  0  0  0  0  0  0  0  0  0  0
    9.1002  -14.6143   17.6182 N   0  0  0  0  0  0  0  0  0  0  0  0
    8.3701  -13.4889   17.5129 C   0  0  0  0  0  0  0  0  0  0  0  0
    7.4633  -13.4536   18.5286 N   0  0  0  0  0  0  0  0  0  0  0  0
    7.0730  -16.3232   22.4736 C   0  0  0  0  0  0  0  0  0  0  0  0
    5.9617  -16.2248   23.0431 O   0  0  0  0  0  0  0  0  0  0  0  0
   10.5337  -19.3302   30.9192 N   0  0  0  0  0  0  0  0  0  0  0  0
   10.0583  -19.4461   29.5846 C   0  0  0  0  0  0  0  0  0  0  0  0
    9.5922  -20.5779   29.1716 N   0  0  0  0  0  0  0  0  0  0  0  0
   10.0794  -18.3508   28.6867 N   0  0  0  0  0  0  0  0  0  0  0  0
    9.4695  -18.3630   27.3755 C   0  0  0  0  0  0  0  0  0  0  0  0
    9.5968  -17.0243   26.6878 C   0  0  0  0  0  0  0  0  0  0  0  0
    9.4678  -17.1121   25.2086 C   0  0  0  0  0  0  0  0  0  0  0  0
    8.2375  -16.4582   24.6570 C   0  0  2  0  0  0  0  0  0  0  0  0
    8.2839  -16.4998   23.2027 N   0  0  0  0  0  0  0  0  0  0  0  0
    8.2940  -15.0122   25.0849 C   0  0  0  0  0  0  0  0  0  0  0  0
    9.1852  -14.2362   24.6561 O   0  0  0  0  0  0  0  0  0  0  0  0
    9.2015  -20.7337   28.2228 C   0  0  0  0  0  0  0  0  0  0  0  0
    6.0688  -12.5867   26.7220 C   0  0  1  0  0  0  0  0  0  0  0  0
    7.4593  -13.1013   26.4561 N   0  0  0  0  0  0  0  0  0  0  0  0
    7.3411  -14.4727   25.9892 C   0  0  0  0  0  0  0  0  0  0  0  0
    8.2904  -13.0920   27.6890 O   0  0  0  0  0  0  0  0  0  0  0  0
    8.5996  -14.1574   28.2715 O   0  0  0  0  0  0  0  0  0  0  0  0
  2  1  1  6
  2  3  1  0
  4  3  1  0
  5  4  2  0
  6  7  1  0
  6  5  1  0
  7  8  2  0
  8  4  1  0
  9 19  1  0
  9  2  1  0
 10  9  2  0
 11 12  1  0
 12 14  1  0
 13 12  2  0
 14 15  1  0
 16 15  1  0
 18 17  1  1
 17 16  1  0
 18 19  1  0
 20 18  1  0
 21 20  2  0
 23 22  1  6
 23 25  1  0
 23 24  1  0
 24 20  1  0
 25 27  1  0
 26 25  2  0
M  END
$$$$
