HRA.pdb
     RDKit          3D

 27 27  0  0  1  0  0  0  0  0999 V2000
    7.3154  -17.0379   19.8670 N   0  0  0  0  0  0  0  0  0  0  0  0
    7.5642  -15.8048   20.5630 C   0  0  1  0  0  0  0  0  0  0  0  0
    6.9564  -14.6017   19.8807 C   0  0  0  0  0  0  0  0  0  0  0  0
    7.7785  -14.1891   18.7158 C   0  0  0  0  0  0  0  0  0  0  0  0
    8.9061  -14.7834   18.1961 C   0  0  0  0  0  0  0  0  0  0  0  0
    9.3412  -14.0794   17.1299 N   0  0  0  0  0  0  0  0  0  0  0  0
    8.4911  -13.0471   16.9796 C   0  0  0  0  0  0  0  0  0  0  0  0
    7.5369  -13.1154   17.9491 N   0  0  0  0  0  0  0  0  0  0  0  0
    7.0938  -15.9384   21.9579 C   0  0  0  0  0  0  0  0  0  0  0  0
    5.8660  -16.0041   22.1967 O   0  0  0  0  0  0  0  0  0  0  0  0
    9.7665  -19.1854   28.6531 N   0  0  0  0  0  0  0  0  0  0  0  0
    9.3367  -20.0164   27.5830 C   0  0  0  0  0  0  0  0  0  0  0  0
    9.9644  -21.1197   27.3430 N   0  0  0  0  0  0  0  0  0  0  0  0
    8.2328  -19.6702   26.7657 N   0  0  0  0  0  0  0  0  0  0  0  0
    7.4344  -18.4772   26.9412 C   0  0  0  0  0  0  0  0  0  0  0  0
    8.1917  -17.2341   26.5382 C   0  0  0  0  0  0  0  0  0  0  0  0
    8.4354  -17.1469   25.0735 C   0  0  0  0  0  0  0  0  0  0  0  0
    7.6206  -16.1018   24.3739 C   0  0  2  0  0  0  0  0  0  0  0  0
    8.0700  -15.9882   22.9941 N   0  0  0  0  0  0  0  0  0  0  0  0
    7.9137  -14.7951   25.0696 C   0  0  0  0  0  0  0  0  0  0  0  0
    9.0696  -14.3010   25.0762 O   0  0  0  0  0  0  0  0  0  0  0  0
    9.6653  -21.8155   26.6333 C   0  0  0  0  0  0  0  0  0  0  0  0
    5.9360  -12.1306   26.7551 C   0  0  1  0  0  0  0  0  0  0  0  0
    7.2167  -12.8885   26.5212 N   0  0  0  0  0  0  0  0  0  0  0  0
    6.8933  -14.0732   25.7437 C   0  0  0  0  0  0  0  0  0  0  0  0
    7.8385  -13.3189   27.8016 O   0  0  0  0  0  0  0  0  0  0  0  0
    7.7461  -14.5024   28.2025 O   0  0  0  0  0  0  0  0  0  0  0  0
  2  1  1  6
  2  3  1  0
  4  3  1  0
  5  4  2  0
  6  7  1  0
  6  5  1  0
  7  8  2  0
  8  4  1  0
  9 19  1  0
  9  2  1  0
 10  9  2  0
 11 12  1  0
 12 14  1  0
 13 12  2  0
 14 15  1  0
 16 15  1  0
 18 17  1  1
 17 16  1  0
 18 19  1  0
 20 18  1  0
 21 20  2  0
 23 22  1  6
 23 25  1  0
 23 24  1  0
 24 20  1  0
 25 27  1  0
 26 25  2  0
M  END
$$$$
