HRA.pdb
     RDKit          3D

 27 27  0  0  1  0  0  0  0  0999 V2000
    8.1888  -17.7204   17.2582 N   0  0  0  0  0  0  0  0  0  0  0  0
    9.1544  -17.1452   18.1547 C   0  0  1  0  0  0  0  0  0  0  0  0
    8.5265  -16.4065   19.3134 C   0  0  0  0  0  0  0  0  0  0  0  0
    8.0582  -15.0641   18.8869 C   0  0  0  0  0  0  0  0  0  0  0  0
    8.1493  -14.4663   17.6504 C   0  0  0  0  0  0  0  0  0  0  0  0
    7.5957  -13.2363   17.6978 N   0  0  0  0  0  0  0  0  0  0  0  0
    7.1582  -13.0613   18.9582 C   0  0  0  0  0  0  0  0  0  0  0  0
    7.4415  -14.1788   19.6836 N   0  0  0  0  0  0  0  0  0  0  0  0
   10.0724  -18.2078   18.6162 C   0  0  0  0  0  0  0  0  0  0  0  0
    9.6460  -19.3756   18.7680 O   0  0  0  0  0  0  0  0  0  0  0  0
   12.8262  -21.4395   15.5546 N   0  0  0  0  0  0  0  0  0  0  0  0
   14.2248  -21.2954   15.3453 C   0  0  0  0  0  0  0  0  0  0  0  0
   14.7089  -21.4465   14.1572 N   0  0  0  0  0  0  0  0  0  0  0  0
   15.1108  -20.9883   16.4069 N   0  0  0  0  0  0  0  0  0  0  0  0
   14.6910  -20.4835   17.6955 C   0  0  0  0  0  0  0  0  0  0  0  0
   14.1961  -19.0594   17.6032 C   0  0  0  0  0  0  0  0  0  0  0  0
   13.7466  -18.5107   18.9106 C   0  0  0  0  0  0  0  0  0  0  0  0
   12.3524  -18.9009   19.2966 C   0  0  2  0  0  0  0  0  0  0  0  0
   11.4288  -17.8578   18.8751 N   0  0  0  0  0  0  0  0  0  0  0  0
   12.3285  -18.9645   20.8042 C   0  0  0  0  0  0  0  0  0  0  0  0
   12.5270  -17.9409   21.5065 O   0  0  0  0  0  0  0  0  0  0  0  0
   15.7084  -21.3068   13.9153 C   0  0  0  0  0  0  0  0  0  0  0  0
   11.3537  -21.4857   23.3560 C   0  0  1  0  0  0  0  0  0  0  0  0
   12.0749  -20.2303   22.9401 N   0  0  0  0  0  0  0  0  0  0  0  0
   12.0805  -20.1846   21.4873 C   0  0  0  0  0  0  0  0  0  0  0  0
   13.4829  -20.2251   23.4183 O   0  0  0  0  0  0  0  0  0  0  0  0
   14.4346  -20.4572   22.6371 O   0  0  0  0  0  0  0  0  0  0  0  0
  2  1  1  1
  2  3  1  0
  4  3  1  0
  5  4  2  0
  6  7  1  0
  6  5  1  0
  7  8  2  0
  8  4  1  0
  9 19  1  0
  9  2  1  0
 10  9  2  0
 11 12  1  0
 12 14  1  0
 13 12  2  0
 14 15  1  0
 16 15  1  0
 18 17  1  1
 17 16  1  0
 18 19  1  0
 20 18  1  0
 21 20  2  0
 23 22  1  1
 23 25  1  0
 23 24  1  0
 24 20  1  0
 25 27  1  0
 26 25  2  0
M  END
$$$$
