HRA.pdb
     RDKit          3D

 27 27  0  0  1  0  0  0  0  0999 V2000
    8.5480  -17.6516   16.0541 N   0  0  0  0  0  0  0  0  0  0  0  0
    9.4431  -16.7820   16.7678 C   0  0  1  0  0  0  0  0  0  0  0  0
    8.8219  -15.4530   17.1289 C   0  0  0  0  0  0  0  0  0  0  0  0
    8.4262  -14.7102   15.9062 C   0  0  0  0  0  0  0  0  0  0  0  0
    8.6506  -15.0302   14.5864 C   0  0  0  0  0  0  0  0  0  0  0  0
    8.1213  -14.0770   13.7908 N   0  0  0  0  0  0  0  0  0  0  0  0
    7.5664  -13.1618   14.6064 C   0  0  0  0  0  0  0  0  0  0  0  0
    7.7534  -13.5499   15.8986 N   0  0  0  0  0  0  0  0  0  0  0  0
    9.9501  -17.4912   17.9615 C   0  0  0  0  0  0  0  0  0  0  0  0
    9.1935  -18.2626   18.5948 O   0  0  0  0  0  0  0  0  0  0  0  0
   11.3040  -21.5589   16.5342 N   0  0  0  0  0  0  0  0  0  0  0  0
   12.5791  -22.1794   16.4362 C   0  0  0  0  0  0  0  0  0  0  0  0
   12.6745  -23.3581   15.9161 N   0  0  0  0  0  0  0  0  0  0  0  0
   13.7575  -21.5405   16.8940 N   0  0  0  0  0  0  0  0  0  0  0  0
   13.8247  -20.1543   17.3007 C   0  0  0  0  0  0  0  0  0  0  0  0
   13.2712  -19.9528   18.6915 C   0  0  0  0  0  0  0  0  0  0  0  0
   13.2164  -18.5230   19.0976 C   0  0  0  0  0  0  0  0  0  0  0  0
   11.8462  -18.0372   19.4609 C   0  0  2  0  0  0  0  0  0  0  0  0
   11.3014  -17.2669   18.3524 N   0  0  0  0  0  0  0  0  0  0  0  0
   12.0206  -17.1060   20.6355 C   0  0  0  0  0  0  0  0  0  0  0  0
   12.7482  -16.0836   20.5589 O   0  0  0  0  0  0  0  0  0  0  0  0
   13.5556  -23.9048   15.8743 C   0  0  0  0  0  0  0  0  0  0  0  0
   10.2993  -16.6018   23.8759 C   0  0  1  0  0  0  0  0  0  0  0  0
   11.4856  -16.4022   22.9693 N   0  0  0  0  0  0  0  0  0  0  0  0
   11.3685  -17.3496   21.8733 C   0  0  0  0  0  0  0  0  0  0  0  0
   12.7660  -16.6585   23.6806 O   0  0  0  0  0  0  0  0  0  0  0  0
   13.3618  -17.7552   23.5700 O   0  0  0  0  0  0  0  0  0  0  0  0
  2  1  1  1
  2  3  1  0
  4  3  1  0
  5  4  2  0
  6  7  1  0
  6  5  1  0
  7  8  2  0
  8  4  1  0
  9 19  1  0
  9  2  1  0
 10  9  2  0
 11 12  1  0
 12 14  1  0
 13 12  2  0
 14 15  1  0
 16 15  1  0
 18 17  1  6
 17 16  1  0
 18 19  1  0
 20 18  1  0
 21 20  2  0
 23 22  1  6
 23 25  1  0
 23 24  1  0
 24 20  1  0
 25 27  1  0
 26 25  2  0
M  END
$$$$
