HRA.pdb
     RDKit          3D

 27 27  0  0  1  0  0  0  0  0999 V2000
    7.2045  -16.5228   20.0923 N   0  0  0  0  0  0  0  0  0  0  0  0
    7.5102  -15.3247   20.8257 C   0  0  1  0  0  0  0  0  0  0  0  0
    6.8954  -14.0831   20.2231 C   0  0  0  0  0  0  0  0  0  0  0  0
    7.4855  -13.8001   18.8908 C   0  0  0  0  0  0  0  0  0  0  0  0
    8.4334  -14.5135   18.1929 C   0  0  0  0  0  0  0  0  0  0  0  0
    8.6879  -13.9024   17.0167 N   0  0  0  0  0  0  0  0  0  0  0  0
    7.9037  -12.8098   16.9749 C   0  0  0  0  0  0  0  0  0  0  0  0
    7.1696  -12.7485   18.1206 N   0  0  0  0  0  0  0  0  0  0  0  0
    7.1029  -15.5082   22.2347 C   0  0  0  0  0  0  0  0  0  0  0  0
    5.9402  -15.2076   22.5903 O   0  0  0  0  0  0  0  0  0  0  0  0
   10.0476  -19.1281   28.4245 N   0  0  0  0  0  0  0  0  0  0  0  0
    8.8200  -19.7286   28.8156 C   0  0  0  0  0  0  0  0  0  0  0  0
    8.6639  -20.1191   30.0371 N   0  0  0  0  0  0  0  0  0  0  0  0
    7.7542  -19.9128   27.9010 N   0  0  0  0  0  0  0  0  0  0  0  0
    7.8300  -19.6000   26.4911 C   0  0  0  0  0  0  0  0  0  0  0  0
    7.6885  -18.1175   26.2395 C   0  0  0  0  0  0  0  0  0  0  0  0
    7.7695  -17.7585   24.7983 C   0  0  0  0  0  0  0  0  0  0  0  0
    7.6530  -16.2906   24.5209 C   0  0  2  0  0  0  0  0  0  0  0  0
    8.0634  -16.0282   23.1492 N   0  0  0  0  0  0  0  0  0  0  0  0
    8.6319  -15.6030   25.4408 C   0  0  0  0  0  0  0  0  0  0  0  0
    9.8716  -15.7787   25.3281 O   0  0  0  0  0  0  0  0  0  0  0  0
    7.8020  -20.5722   30.3962 C   0  0  0  0  0  0  0  0  0  0  0  0
    8.4704  -12.9477   28.0372 C   0  0  1  0  0  0  0  0  0  0  0  0
    9.1402  -14.1330   27.3926 N   0  0  0  0  0  0  0  0  0  0  0  0
    8.1890  -14.7302   26.4699 C   0  0  0  0  0  0  0  0  0  0  0  0
    9.5275  -15.1562   28.3997 O   0  0  0  0  0  0  0  0  0  0  0  0
    8.9487  -16.2662   28.4530 O   0  0  0  0  0  0  0  0  0  0  0  0
  2  1  1  6
  2  3  1  0
  4  3  1  0
  5  4  2  0
  6  7  1  0
  6  5  1  0
  7  8  2  0
  8  4  1  0
  9 19  1  0
  9  2  1  0
 10  9  2  0
 11 12  1  0
 12 14  1  0
 13 12  2  0
 14 15  1  0
 16 15  1  0
 18 17  1  1
 17 16  1  0
 18 19  1  0
 20 18  1  0
 21 20  2  0
 23 22  1  6
 23 25  1  0
 23 24  1  0
 24 20  1  0
 25 27  1  0
 26 25  2  0
M  END
$$$$
