HRA.pdb
     RDKit          3D

 27 27  0  0  1  0  0  0  0  0999 V2000
    7.4753  -16.6841   15.4335 N   0  0  0  0  0  0  0  0  0  0  0  0
    8.6121  -16.1095   16.1001 C   0  0  1  0  0  0  0  0  0  0  0  0
    8.4924  -14.6174   16.3044 C   0  0  0  0  0  0  0  0  0  0  0  0
    8.3693  -13.9184   15.0007 C   0  0  0  0  0  0  0  0  0  0  0  0
    7.5932  -12.8308   14.6697 C   0  0  0  0  0  0  0  0  0  0  0  0
    7.7815  -12.5160   13.3708 N   0  0  0  0  0  0  0  0  0  0  0  0
    8.6720  -13.4013   12.8871 C   0  0  0  0  0  0  0  0  0  0  0  0
    9.0302  -14.2576   13.8840 N   0  0  0  0  0  0  0  0  0  0  0  0
    8.8286  -16.8209   17.3776 C   0  0  0  0  0  0  0  0  0  0  0  0
    7.8521  -17.3107   17.9901 O   0  0  0  0  0  0  0  0  0  0  0  0
   10.9456  -22.4427   20.7124 N   0  0  0  0  0  0  0  0  0  0  0  0
   12.2660  -22.3235   21.2252 C   0  0  0  0  0  0  0  0  0  0  0  0
   12.5929  -22.9682   22.2959 N   0  0  0  0  0  0  0  0  0  0  0  0
   13.2420  -21.5142   20.5937 N   0  0  0  0  0  0  0  0  0  0  0  0
   12.9635  -20.6087   19.5010 C   0  0  0  0  0  0  0  0  0  0  0  0
   11.8210  -19.6758   19.8260 C   0  0  0  0  0  0  0  0  0  0  0  0
   11.5375  -18.6983   18.7414 C   0  0  0  0  0  0  0  0  0  0  0  0
   10.4115  -17.7557   19.0395 C   0  0  2  0  0  0  0  0  0  0  0  0
   10.1608  -16.9241   17.8714 N   0  0  0  0  0  0  0  0  0  0  0  0
   10.8885  -16.8601   20.1566 C   0  0  0  0  0  0  0  0  0  0  0  0
   11.9201  -16.1520   20.0338 O   0  0  0  0  0  0  0  0  0  0  0  0
   13.5306  -22.9217   22.7382 C   0  0  0  0  0  0  0  0  0  0  0  0
    9.5003  -15.6233   23.3632 C   0  0  1  0  0  0  0  0  0  0  0  0
   10.6670  -15.9204   22.4579 N   0  0  0  0  0  0  0  0  0  0  0  0
   10.1893  -16.7832   21.3902 C   0  0  0  0  0  0  0  0  0  0  0  0
   11.7561  -16.6260   23.1840 O   0  0  0  0  0  0  0  0  0  0  0  0
   12.4568  -16.0342   24.0376 O   0  0  0  0  0  0  0  0  0  0  0  0
  2  1  1  1
  2  3  1  0
  4  3  1  0
  5  4  2  0
  6  7  1  0
  6  5  1  0
  7  8  2  0
  8  4  1  0
  9 19  1  0
  9  2  1  0
 10  9  2  0
 11 12  1  0
 12 14  1  0
 13 12  2  0
 14 15  1  0
 16 15  1  0
 18 17  1  6
 17 16  1  0
 18 19  1  0
 20 18  1  0
 21 20  2  0
 23 22  1  6
 23 25  1  0
 23 24  1  0
 24 20  1  0
 25 27  1  0
 26 25  2  0
M  END
$$$$
