HRA.pdb
     RDKit          3D

 27 27  0  0  1  0  0  0  0  0999 V2000
    8.6209  -14.6584   26.2018 N   0  0  0  0  0  0  0  0  0  0  0  0
    7.5626  -15.5469   25.8050 C   0  0  1  0  0  0  0  0  0  0  0  0
    6.2036  -14.8871   25.7909 C   0  0  0  0  0  0  0  0  0  0  0  0
    6.2471  -13.5828   26.4981 C   0  0  0  0  0  0  0  0  0  0  0  0
    7.3081  -12.9730   27.1283 C   0  0  0  0  0  0  0  0  0  0  0  0
    6.9119  -11.7908   27.6451 N   0  0  0  0  0  0  0  0  0  0  0  0
    5.6079  -11.6575   27.3413 C   0  0  0  0  0  0  0  0  0  0  0  0
    5.2030  -12.7531   26.6406 N   0  0  0  0  0  0  0  0  0  0  0  0
    7.8985  -16.1358   24.4915 C   0  0  0  0  0  0  0  0  0  0  0  0
    7.1382  -16.9896   23.9798 O   0  0  0  0  0  0  0  0  0  0  0  0
    8.2500  -12.7104   18.4791 N   0  0  0  0  0  0  0  0  0  0  0  0
    8.3484  -13.9553   17.8001 C   0  0  0  0  0  0  0  0  0  0  0  0
    7.5140  -14.2309   16.8532 N   0  0  0  0  0  0  0  0  0  0  0  0
    9.3409  -14.9101   18.1315 N   0  0  0  0  0  0  0  0  0  0  0  0
   10.3109  -14.7397   19.1905 C   0  0  0  0  0  0  0  0  0  0  0  0
   10.1792  -15.8116   20.2463 C   0  0  0  0  0  0  0  0  0  0  0  0
    9.7200  -15.2856   21.5596 C   0  0  0  0  0  0  0  0  0  0  0  0
    9.4842  -16.3399   22.5980 C   0  0  2  0  0  0  0  0  0  0  0  0
    9.0930  -15.7032   23.8471 N   0  0  0  0  0  0  0  0  0  0  0  0
   10.8100  -17.0260   22.8188 C   0  0  0  0  0  0  0  0  0  0  0  0
   11.8260  -16.3850   23.1894 O   0  0  0  0  0  0  0  0  0  0  0  0
    7.5976  -15.0543   16.2270 C   0  0  0  0  0  0  0  0  0  0  0  0
   11.9720  -20.5405   23.0722 C   0  0  1  0  0  0  0  0  0  0  0  0
   12.2374  -19.0728   22.8614 N   0  0  0  0  0  0  0  0  0  0  0  0
   10.9602  -18.4236   22.6162 C   0  0  0  0  0  0  0  0  0  0  0  0
   13.1188  -18.8402   21.6865 O   0  0  0  0  0  0  0  0  0  0  0  0
   12.6427  -18.5381   20.5676 O   0  0  0  0  0  0  0  0  0  0  0  0
  2  1  1  6
  2  3  1  0
  4  3  1  0
  5  4  2  0
  6  7  1  0
  6  5  1  0
  7  8  2  0
  8  4  1  0
  9 19  1  0
  9  2  1  0
 10  9  2  0
 11 12  1  0
 12 14  1  0
 13 12  2  0
 14 15  1  0
 16 15  1  0
 18 17  1  6
 17 16  1  0
 18 19  1  0
 20 18  1  0
 21 20  2  0
 23 22  1  1
 23 25  1  0
 23 24  1  0
 24 20  1  0
 25 27  1  0
 26 25  2  0
M  END
$$$$
