HRA.pdb
     RDKit          3D

 27 27  0  0  1  0  0  0  0  0999 V2000
    4.4575  -20.7660   21.2785 N   0  0  0  0  0  0  0  0  0  0  0  0
    4.4695  -19.4514   21.8604 C   0  0  1  0  0  0  0  0  0  0  0  0
    3.2678  -19.1745   22.7333 C   0  0  0  0  0  0  0  0  0  0  0  0
    2.0151  -19.2568   21.9414 C   0  0  0  0  0  0  0  0  0  0  0  0
    1.8547  -19.4827   20.5930 C   0  0  0  0  0  0  0  0  0  0  0  0
    0.5408  -19.4780   20.2841 N   0  0  0  0  0  0  0  0  0  0  0  0
   -0.1221  -19.2502   21.4327 C   0  0  0  0  0  0  0  0  0  0  0  0
    0.7798  -19.1153   22.4444 N   0  0  0  0  0  0  0  0  0  0  0  0
    5.7364  -19.2658   22.5989 C   0  0  0  0  0  0  0  0  0  0  0  0
    6.2665  -20.2408   23.1796 O   0  0  0  0  0  0  0  0  0  0  0  0
    8.6641  -11.8851   19.9780 N   0  0  0  0  0  0  0  0  0  0  0  0
    7.9755  -12.9233   19.2935 C   0  0  0  0  0  0  0  0  0  0  0  0
    7.6806  -12.7749   18.0445 N   0  0  0  0  0  0  0  0  0  0  0  0
    7.6005  -14.1250   19.9429 N   0  0  0  0  0  0  0  0  0  0  0  0
    8.0529  -14.5118   21.2609 C   0  0  0  0  0  0  0  0  0  0  0  0
    7.4385  -15.8196   21.7008 C   0  0  0  0  0  0  0  0  0  0  0  0
    8.2453  -16.5277   22.7303 C   0  0  0  0  0  0  0  0  0  0  0  0
    7.6223  -17.7915   23.2402 C   0  0  2  0  0  0  0  0  0  0  0  0
    6.3156  -17.9646   22.6225 N   0  0  0  0  0  0  0  0  0  0  0  0
    7.4161  -17.5983   24.7226 C   0  0  0  0  0  0  0  0  0  0  0  0
    6.6045  -16.7467   25.1659 O   0  0  0  0  0  0  0  0  0  0  0  0
    7.1915  -13.4909   17.4743 C   0  0  0  0  0  0  0  0  0  0  0  0
    7.6884  -19.4861   27.7418 C   0  0  2  0  0  0  0  0  0  0  0  0
    7.9468  -18.1488   27.0983 N   0  0  0  0  0  0  0  0  0  0  0  0
    8.1320  -18.3723   25.6740 C   0  0  0  0  0  0  0  0  0  0  0  0
    9.1754  -17.5100   27.6400 O   0  0  0  0  0  0  0  0  0  0  0  0
   10.1481  -17.2403   26.8977 O   0  0  0  0  0  0  0  0  0  0  0  0
  2  1  1  1
  2  3  1  0
  4  3  1  0
  5  4  2  0
  6  7  1  0
  6  5  1  0
  7  8  2  0
  8  4  1  0
  9 19  1  0
  9  2  1  0
 10  9  2  0
 11 12  1  0
 12 14  1  0
 13 12  2  0
 14 15  1  0
 16 15  1  0
 18 17  1  6
 17 16  1  0
 18 19  1  0
 20 18  1  0
 21 20  2  0
 23 22  1  6
 23 25  1  0
 23 24  1  0
 24 20  1  0
 25 27  1  0
 26 25  2  0
M  END
$$$$
