HRA.pdb
     RDKit          3D

 27 27  0  0  1  0  0  0  0  0999 V2000
    8.8060  -15.5706   20.6391 N   0  0  0  0  0  0  0  0  0  0  0  0
    8.0640  -14.4578   21.1664 C   0  0  1  0  0  0  0  0  0  0  0  0
    6.9744  -13.9741   20.2384 C   0  0  0  0  0  0  0  0  0  0  0  0
    7.5239  -13.6879   18.8895 C   0  0  0  0  0  0  0  0  0  0  0  0
    8.1926  -12.5699   18.4448 C   0  0  0  0  0  0  0  0  0  0  0  0
    8.5178  -12.7219   17.1437 N   0  0  0  0  0  0  0  0  0  0  0  0
    8.0559  -13.9298   16.7718 C   0  0  0  0  0  0  0  0  0  0  0  0
    7.4489  -14.5189   17.8394 N   0  0  0  0  0  0  0  0  0  0  0  0
    7.5285  -14.8249   22.4943 C   0  0  0  0  0  0  0  0  0  0  0  0
    6.7635  -14.0367   23.0961 O   0  0  0  0  0  0  0  0  0  0  0  0
    9.6446  -19.9654   28.2361 N   0  0  0  0  0  0  0  0  0  0  0  0
    8.2951  -20.2580   28.5736 C   0  0  0  0  0  0  0  0  0  0  0  0
    8.0069  -20.6310   29.7763 N   0  0  0  0  0  0  0  0  0  0  0  0
    7.2485  -20.1519   27.6250 N   0  0  0  0  0  0  0  0  0  0  0  0
    7.4408  -19.7793   26.2410 C   0  0  0  0  0  0  0  0  0  0  0  0
    7.4099  -18.2805   26.0565 C   0  0  0  0  0  0  0  0  0  0  0  0
    7.6247  -17.8604   24.6460 C   0  0  0  0  0  0  0  0  0  0  0  0
    7.5365  -16.3812   24.4229 C   0  0  2  0  0  0  0  0  0  0  0  0
    7.9089  -16.0811   23.0481 N   0  0  0  0  0  0  0  0  0  0  0  0
    8.5617  -15.7501   25.3328 C   0  0  0  0  0  0  0  0  0  0  0  0
    9.7821  -16.0389   25.2450 O   0  0  0  0  0  0  0  0  0  0  0  0
    7.0492  -20.8717   30.0959 C   0  0  0  0  0  0  0  0  0  0  0  0
    8.6031  -12.9214   27.7351 C   0  0  1  0  0  0  0  0  0  0  0  0
    9.1894  -14.1927   27.1791 N   0  0  0  0  0  0  0  0  0  0  0  0
    8.1861  -14.8048   26.3238 C   0  0  0  0  0  0  0  0  0  0  0  0
    9.5376  -15.1523   28.2603 O   0  0  0  0  0  0  0  0  0  0  0  0
    8.8332  -16.1647   28.4814 O   0  0  0  0  0  0  0  0  0  0  0  0
  2  1  1  6
  2  3  1  0
  4  3  1  0
  5  4  2  0
  6  7  1  0
  6  5  1  0
  7  8  2  0
  8  4  1  0
  9 19  1  0
  9  2  1  0
 10  9  2  0
 11 12  1  0
 12 14  1  0
 13 12  2  0
 14 15  1  0
 16 15  1  0
 18 17  1  6
 17 16  1  0
 18 19  1  0
 20 18  1  0
 21 20  2  0
 23 22  1  6
 23 25  1  0
 23 24  1  0
 24 20  1  0
 25 27  1  0
 26 25  2  0
M  END
$$$$
