MTL.pdb
     RDKit          3D

 24 23  0  0  1  0  0  0  0  0999 V2000
   30.4053  -25.1921  -17.9921 C   0  0  0  0  0  0  0  0  0  0  0  0
   28.8139  -25.8139  -18.5983 S   0  0  0  0  0  0  0  0  0  0  0  0
   27.5100  -24.5708  -18.3842 C   0  0  0  0  0  0  0  0  0  0  0  0
   28.0498  -23.3116  -17.7395 C   0  0  0  0  0  0  0  0  0  0  0  0
   26.9307  -22.2962  -17.6642 C   0  0  2  0  0  0  0  0  0  0  0  0
   26.7627  -21.6773  -18.9593 N   0  0  0  0  0  0  0  0  0  0  0  0
   27.1710  -21.2929  -16.5956 C   0  0  0  0  0  0  0  0  0  0  0  0
   27.7593  -20.2188  -16.8952 O   0  0  0  0  0  0  0  0  0  0  0  0
   26.7420  -18.6985  -15.9937 C   0  0  0  0  0  0  0  0  0  0  0  0
   26.0663  -19.1775  -14.7280 C   0  0  1  0  0  0  0  0  0  0  0  0
   24.7464  -19.5627  -14.9724 O   0  0  0  0  0  0  0  0  0  0  0  0
   26.8594  -20.4043  -14.2516 C   0  0  2  0  0  0  0  0  0  0  0  0
   26.7768  -21.4640  -15.2395 N   0  0  0  0  0  0  0  0  0  0  0  0
   26.2897  -20.8031  -12.9537 C   0  0  0  0  0  0  0  0  0  0  0  0
   25.3855  -21.6765  -12.8963 O   0  0  0  0  0  0  0  0  0  0  0  0
   26.4365  -19.3710   -6.8074 C   0  0  0  0  0  0  0  0  0  0  0  0
   25.9540  -20.2413   -7.9464 C   0  0  2  0  0  0  0  0  0  0  0  0
   25.9485  -21.6677   -7.4961 C   0  0  0  0  0  0  0  0  0  0  0  0
   26.6138  -19.9838   -9.2445 C   0  0  0  0  0  0  0  0  0  0  0  0
   26.0691  -20.5949  -10.4645 C   0  0  2  0  0  0  0  0  0  0  0  0
   26.6934  -20.2603  -11.7022 N   0  0  0  0  0  0  0  0  0  0  0  0
   24.6030  -20.4011  -10.5176 C   0  0  0  0  0  0  0  0  0  0  0  0
   24.0467  -19.2826  -11.1168 O   0  0  0  0  0  0  0  0  0  0  0  0
   23.8091  -21.2403  -10.0223 O   0  0  0  0  0  0  0  0  0  0  0  0
  1  2  1  0
  2  3  1  0
  4  3  1  0
  5  7  1  0
  5  4  1  0
  5  6  1  6
  7  8  2  0
 10  9  1  6
 10 12  1  0
 11 10  1  0
 12 13  1  6
 13  7  1  0
 14 12  1  0
 15 14  2  0
 17 16  1  1
 17 19  1  0
 18 17  1  0
 20 19  1  1
 20 21  1  0
 20 22  1  0
 21 14  1  0
 22 23  1  0
 24 22  2  0
M  END
$$$$
