MTL.pdb
     RDKit          3D

 24 23  0  0  1  0  0  0  0  0999 V2000
   31.0816  -17.0987  -16.5699 C   0  0  0  0  0  0  0  0  0  0  0  0
   29.7515  -17.3247  -17.7809 S   0  0  0  0  0  0  0  0  0  0  0  0
   28.5712  -18.5821  -17.2178 C   0  0  0  0  0  0  0  0  0  0  0  0
   28.2277  -18.3993  -15.7545 C   0  0  0  0  0  0  0  0  0  0  0  0
   27.2535  -19.4853  -15.3534 C   0  0  2  0  0  0  0  0  0  0  0  0
   26.3201  -19.7090  -16.4339 N   0  0  0  0  0  0  0  0  0  0  0  0
   26.5619  -19.1591  -14.0800 C   0  0  0  0  0  0  0  0  0  0  0  0
   25.6756  -18.2625  -14.0852 O   0  0  0  0  0  0  0  0  0  0  0  0
   24.1020  -19.7624  -13.4111 C   0  0  0  0  0  0  0  0  0  0  0  0
   24.5874  -20.5291  -12.2009 C   0  0  1  0  0  0  0  0  0  0  0  0
   24.8725  -21.8577  -12.5231 O   0  0  0  0  0  0  0  0  0  0  0  0
   25.8837  -19.8418  -11.7444 C   0  0  2  0  0  0  0  0  0  0  0  0
   26.8355  -19.7984  -12.8390 N   0  0  0  0  0  0  0  0  0  0  0  0
   26.3896  -20.6069  -10.5925 C   0  0  0  0  0  0  0  0  0  0  0  0
   27.6257  -20.6760  -10.3671 O   0  0  0  0  0  0  0  0  0  0  0  0
   28.4982  -20.9940   -7.3258 C   0  0  0  0  0  0  0  0  0  0  0  0
   27.7281  -19.7589   -7.7368 C   0  0  2  0  0  0  0  0  0  0  0  0
   28.2467  -18.5869   -6.9656 C   0  0  0  0  0  0  0  0  0  0  0  0
   26.2582  -19.9197   -7.7430 C   0  0  0  0  0  0  0  0  0  0  0  0
   25.6706  -21.1648   -8.2559 C   0  0  2  0  0  0  0  0  0  0  0  0
   25.5617  -21.3060   -9.6707 N   0  0  0  0  0  0  0  0  0  0  0  0
   24.3852  -21.4368   -7.5751 C   0  0  0  0  0  0  0  0  0  0  0  0
   23.1819  -21.3740   -8.2589 O   0  0  0  0  0  0  0  0  0  0  0  0
   24.3358  -21.7335   -6.3547 O   0  0  0  0  0  0  0  0  0  0  0  0
  1  2  1  0
  2  3  1  0
  4  3  1  0
  5  7  1  0
  5  4  1  0
  5  6  1  6
  7  8  2  0
 10  9  1  6
 10 12  1  0
 11 10  1  0
 12 13  1  6
 13  7  1  0
 14 12  1  0
 15 14  2  0
 17 16  1  1
 17 19  1  0
 18 17  1  0
 20 19  1  6
 20 21  1  0
 20 22  1  0
 21 14  1  0
 22 23  1  0
 24 22  2  0
M  END
$$$$
