MTL.pdb
     RDKit          3D

 24 23  0  0  1  0  0  0  0  0999 V2000
   22.7394  -29.5210  -16.1167 C   0  0  0  0  0  0  0  0  0  0  0  0
   21.4629  -29.1425  -17.3472 S   0  0  0  0  0  0  0  0  0  0  0  0
   21.4256  -27.3664  -17.7148 C   0  0  0  0  0  0  0  0  0  0  0  0
   22.7953  -26.7414  -17.5529 C   0  0  0  0  0  0  0  0  0  0  0  0
   22.6677  -25.2493  -17.7689 C   0  0  2  0  0  0  0  0  0  0  0  0
   22.6543  -24.9739  -19.1876 N   0  0  0  0  0  0  0  0  0  0  0  0
   23.7411  -24.4996  -17.0672 C   0  0  0  0  0  0  0  0  0  0  0  0
   24.8774  -24.4217  -17.6078 O   0  0  0  0  0  0  0  0  0  0  0  0
   25.2747  -22.1726  -17.4158 C   0  0  0  0  0  0  0  0  0  0  0  0
   24.7395  -21.7196  -16.0755 C   0  0  1  0  0  0  0  0  0  0  0  0
   23.4932  -21.1040  -16.2089 O   0  0  0  0  0  0  0  0  0  0  0  0
   24.5760  -22.9879  -15.2237 C   0  0  2  0  0  0  0  0  0  0  0  0
   23.5712  -23.8549  -15.8106 N   0  0  0  0  0  0  0  0  0  0  0  0
   24.2116  -22.5468  -13.8669 C   0  0  0  0  0  0  0  0  0  0  0  0
   23.0221  -22.6361  -13.4662 O   0  0  0  0  0  0  0  0  0  0  0  0
   24.4495  -19.4481   -9.3794 C   0  0  0  0  0  0  0  0  0  0  0  0
   25.4566  -20.5764   -9.3906 C   0  0  2  0  0  0  0  0  0  0  0  0
   26.6110  -20.2028   -8.5159 C   0  0  0  0  0  0  0  0  0  0  0  0
   25.8106  -21.0767  -10.7364 C   0  0  0  0  0  0  0  0  0  0  0  0
   24.7419  -21.4798  -11.6605 C   0  0  2  0  0  0  0  0  0  0  0  0
   25.1323  -22.0040  -12.9280 N   0  0  0  0  0  0  0  0  0  0  0  0
   23.7518  -20.3886  -11.7976 C   0  0  0  0  0  0  0  0  0  0  0  0
   22.5553  -20.4113  -11.0995 O   0  0  0  0  0  0  0  0  0  0  0  0
   23.9573  -19.4033  -12.5504 O   0  0  0  0  0  0  0  0  0  0  0  0
  1  2  1  0
  2  3  1  0
  4  3  1  0
  5  7  1  0
  5  4  1  0
  5  6  1  6
  7  8  2  0
 10  9  1  6
 10 12  1  0
 11 10  1  0
 12 13  1  6
 13  7  1  0
 14 12  1  0
 15 14  2  0
 17 16  1  6
 17 19  1  0
 18 17  1  0
 20 19  1  6
 20 21  1  0
 20 22  1  0
 21 14  1  0
 22 23  1  0
 24 22  2  0
M  END
$$$$
