MTL.pdb
     RDKit          3D

 24 23  0  0  1  0  0  0  0  0999 V2000
   12.8698   -7.2207   -3.8249 C   0  0  0  0  0  0  0  0  0  0  0  0
   13.4845   -5.5859   -4.3109 S   0  0  0  0  0  0  0  0  0  0  0  0
   13.1513   -5.2651   -6.0651 C   0  0  0  0  0  0  0  0  0  0  0  0
   13.9422   -6.1998   -6.9560 C   0  0  0  0  0  0  0  0  0  0  0  0
   13.5180   -5.9659   -8.3894 C   0  0  2  0  0  0  0  0  0  0  0  0
   12.1689   -6.4513   -8.5709 N   0  0  0  0  0  0  0  0  0  0  0  0
   14.4659   -6.5860   -9.3503 C   0  0  0  0  0  0  0  0  0  0  0  0
   14.2989   -7.7938   -9.6710 O   0  0  0  0  0  0  0  0  0  0  0  0
   14.8685   -5.8613  -12.7551 C   0  0  0  0  0  0  0  0  0  0  0  0
   16.2899   -5.6835  -12.2691 C   0  0  1  0  0  0  0  0  0  0  0  0
   16.5682   -4.3428  -11.9951 O   0  0  0  0  0  0  0  0  0  0  0  0
   16.4055   -6.4890  -10.9657 C   0  0  2  0  0  0  0  0  0  0  0  0
   15.5634   -5.9003   -9.9410 N   0  0  0  0  0  0  0  0  0  0  0  0
   17.8289   -6.4890  -10.5888 C   0  0  0  0  0  0  0  0  0  0  0  0
   18.2174   -5.8652   -9.5673 O   0  0  0  0  0  0  0  0  0  0  0  0
   23.1204   -9.6300  -10.8261 C   0  0  0  0  0  0  0  0  0  0  0  0
   22.3390   -8.4199  -10.3652 C   0  0  2  0  0  0  0  0  0  0  0  0
   22.5968   -8.2043   -8.9077 C   0  0  0  0  0  0  0  0  0  0  0  0
   20.9170   -8.4101  -10.7708 C   0  0  0  0  0  0  0  0  0  0  0  0
   20.2271   -7.1256  -10.9516 C   0  0  2  0  0  0  0  0  0  0  0  0
   18.8485   -7.1656  -11.3145 N   0  0  0  0  0  0  0  0  0  0  0  0
   21.0089   -6.2530  -11.8556 C   0  0  0  0  0  0  0  0  0  0  0  0
   22.1794   -5.6442  -11.4327 O   0  0  0  0  0  0  0  0  0  0  0  0
   20.6421   -6.0309  -13.0370 O   0  0  0  0  0  0  0  0  0  0  0  0
  1  2  1  0
  2  3  1  0
  4  3  1  0
  5  7  1  0
  5  4  1  0
  5  6  1  1
  7  8  2  0
 10  9  1  1
 10 12  1  0
 11 10  1  0
 12 13  1  1
 13  7  1  0
 14 12  1  0
 15 14  2  0
 17 16  1  1
 17 19  1  0
 18 17  1  0
 20 19  1  6
 20 21  1  0
 20 22  1  0
 21 14  1  0
 22 23  1  0
 24 22  2  0
M  END
$$$$
