MTL.pdb
     RDKit          3D

 24 23  0  0  1  0  0  0  0  0999 V2000
   30.0365  -24.7266  -16.7148 C   0  0  0  0  0  0  0  0  0  0  0  0
   28.6061  -25.8282  -16.8798 S   0  0  0  0  0  0  0  0  0  0  0  0
   27.0688  -24.9582  -16.4666 C   0  0  0  0  0  0  0  0  0  0  0  0
   27.3508  -23.6096  -15.8383 C   0  0  0  0  0  0  0  0  0  0  0  0
   26.0344  -22.9954  -15.4153 C   0  0  2  0  0  0  0  0  0  0  0  0
   25.2973  -22.5941  -16.5919 N   0  0  0  0  0  0  0  0  0  0  0  0
   26.2340  -21.8653  -14.4722 C   0  0  0  0  0  0  0  0  0  0  0  0
   26.9353  -20.8851  -14.8422 O   0  0  0  0  0  0  0  0  0  0  0  0
   24.4651  -19.2135  -13.7604 C   0  0  0  0  0  0  0  0  0  0  0  0
   24.5052  -19.8158  -12.3734 C   0  0  1  0  0  0  0  0  0  0  0  0
   23.4115  -20.6557  -12.1536 O   0  0  0  0  0  0  0  0  0  0  0  0
   25.7927  -20.6512  -12.3014 C   0  0  2  0  0  0  0  0  0  0  0  0
   25.6801  -21.8135  -13.1629 N   0  0  0  0  0  0  0  0  0  0  0  0
   25.9849  -21.0181  -10.8884 C   0  0  0  0  0  0  0  0  0  0  0  0
   25.5247  -22.1015  -10.4434 O   0  0  0  0  0  0  0  0  0  0  0  0
   27.5892  -18.6015   -5.3876 C   0  0  0  0  0  0  0  0  0  0  0  0
   27.5557  -19.8560   -6.2317 C   0  0  2  0  0  0  0  0  0  0  0  0
   28.6238  -20.7882   -5.7549 C   0  0  0  0  0  0  0  0  0  0  0  0
   27.5189  -19.6193   -7.6909 C   0  0  0  0  0  0  0  0  0  0  0  0
   26.7318  -20.5163   -8.5478 C   0  0  2  0  0  0  0  0  0  0  0  0
   26.6787  -20.2153   -9.9407 N   0  0  0  0  0  0  0  0  0  0  0  0
   25.3812  -20.7090   -7.9746 C   0  0  0  0  0  0  0  0  0  0  0  0
   24.3470  -19.8322   -8.2599 O   0  0  0  0  0  0  0  0  0  0  0  0
   25.1215  -21.6715   -7.2091 O   0  0  0  0  0  0  0  0  0  0  0  0
  1  2  1  0
  2  3  1  0
  4  3  1  0
  5  7  1  0
  5  4  1  0
  5  6  1  6
  7  8  2  0
 10  9  1  6
 10 12  1  0
 11 10  1  0
 12 13  1  6
 13  7  1  0
 14 12  1  0
 15 14  2  0
 17 16  1  1
 17 19  1  0
 18 17  1  0
 20 19  1  1
 20 21  1  0
 20 22  1  0
 21 14  1  0
 22 23  1  0
 24 22  2  0
M  END
$$$$
