MTL.pdb
     RDKit          3D

 24 23  0  0  1  0  0  0  0  0999 V2000
   18.3797  -18.2967  -15.7469 C   0  0  0  0  0  0  0  0  0  0  0  0
   16.8485  -17.3898  -15.4010 S   0  0  0  0  0  0  0  0  0  0  0  0
   16.3831  -16.3457  -16.8096 C   0  0  0  0  0  0  0  0  0  0  0  0
   17.4251  -15.2790  -17.0728 C   0  0  0  0  0  0  0  0  0  0  0  0
   16.9697  -14.4473  -18.2518 C   0  0  2  0  0  0  0  0  0  0  0  0
   16.9198  -15.2815  -19.4309 N   0  0  0  0  0  0  0  0  0  0  0  0
   17.8349  -13.2562  -18.4498 C   0  0  0  0  0  0  0  0  0  0  0  0
   18.8809  -13.3766  -19.1432 O   0  0  0  0  0  0  0  0  0  0  0  0
   16.9709   -9.7883  -19.6957 C   0  0  0  0  0  0  0  0  0  0  0  0
   17.6362   -9.5670  -18.3554 C   0  0  1  0  0  0  0  0  0  0  0  0
   16.6908   -9.3937  -17.3424 O   0  0  0  0  0  0  0  0  0  0  0  0
   18.4494  -10.8371  -18.0609 C   0  0  2  0  0  0  0  0  0  0  0  0
   17.5591  -11.9721  -17.9032 N   0  0  0  0  0  0  0  0  0  0  0  0
   19.2350  -10.5684  -16.8448 C   0  0  0  0  0  0  0  0  0  0  0  0
   18.8346  -10.9783  -15.7244 O   0  0  0  0  0  0  0  0  0  0  0  0
   24.8554  -10.1462  -14.4969 C   0  0  0  0  0  0  0  0  0  0  0  0
   23.3880   -9.8074  -14.3576 C   0  0  2  0  0  0  0  0  0  0  0  0
   22.8830  -10.3676  -13.0658 C   0  0  0  0  0  0  0  0  0  0  0  0
   22.5670  -10.1102  -15.5496 C   0  0  0  0  0  0  0  0  0  0  0  0
   21.1985   -9.5826  -15.6362 C   0  0  2  0  0  0  0  0  0  0  0  0
   20.4644   -9.8527  -16.8285 N   0  0  0  0  0  0  0  0  0  0  0  0
   21.1882   -8.1420  -15.2980 C   0  0  0  0  0  0  0  0  0  0  0  0
   21.3251   -7.7096  -13.9889 O   0  0  0  0  0  0  0  0  0  0  0  0
   21.0546   -7.2587  -16.1821 O   0  0  0  0  0  0  0  0  0  0  0  0
  1  2  1  0
  2  3  1  0
  4  3  1  0
  5  7  1  0
  5  4  1  0
  5  6  1  6
  7  8  2  0
 10  9  1  6
 10 12  1  0
 11 10  1  0
 12 13  1  1
 13  7  1  0
 14 12  1  0
 15 14  2  0
 17 16  1  6
 17 19  1  0
 18 17  1  0
 20 19  1  6
 20 21  1  0
 20 22  1  0
 21 14  1  0
 22 23  1  0
 24 22  2  0
M  END
$$$$
