MTL.pdb
     RDKit          3D

 24 23  0  0  1  0  0  0  0  0999 V2000
   19.3714  -23.4408  -12.8219 C   0  0  0  0  0  0  0  0  0  0  0  0
   19.1138  -21.6548  -12.9960 S   0  0  0  0  0  0  0  0  0  0  0  0
   20.6850  -20.8020  -13.3045 C   0  0  0  0  0  0  0  0  0  0  0  0
   21.8159  -21.4282  -12.5159 C   0  0  0  0  0  0  0  0  0  0  0  0
   23.1002  -20.7123  -12.8726 C   0  0  2  0  0  0  0  0  0  0  0  0
   23.3133  -20.8010  -14.2992 N   0  0  0  0  0  0  0  0  0  0  0  0
   24.2555  -21.2424  -12.1039 C   0  0  0  0  0  0  0  0  0  0  0  0
   24.6842  -22.3966  -12.3749 O   0  0  0  0  0  0  0  0  0  0  0  0
   27.3612  -21.3904  -12.4734 C   0  0  0  0  0  0  0  0  0  0  0  0
   27.3643  -20.5872  -11.1917 C   0  0  1  0  0  0  0  0  0  0  0  0
   27.2826  -19.2175  -11.4514 O   0  0  0  0  0  0  0  0  0  0  0  0
   26.1143  -21.0174  -10.4083 C   0  0  2  0  0  0  0  0  0  0  0  0
   24.9196  -20.5263  -11.0696 N   0  0  0  0  0  0  0  0  0  0  0  0
   26.2599  -20.4815   -9.0446 C   0  0  0  0  0  0  0  0  0  0  0  0
   25.3762  -19.7291   -8.5582 O   0  0  0  0  0  0  0  0  0  0  0  0
   28.1185  -20.8524   -4.0083 C   0  0  0  0  0  0  0  0  0  0  0  0
   28.9487  -21.2464   -5.2095 C   0  0  2  0  0  0  0  0  0  0  0  0
   30.3101  -21.6546   -4.7434 C   0  0  0  0  0  0  0  0  0  0  0  0
   28.9198  -20.2778   -6.3265 C   0  0  0  0  0  0  0  0  0  0  0  0
   27.6494  -20.0050   -7.0123 C   0  0  2  0  0  0  0  0  0  0  0  0
   27.3650  -20.7550   -8.1914 N   0  0  0  0  0  0  0  0  0  0  0  0
   27.4958  -18.5502   -7.2351 C   0  0  0  0  0  0  0  0  0  0  0  0
   27.6162  -17.9998   -8.5008 O   0  0  0  0  0  0  0  0  0  0  0  0
   27.2518  -17.7608   -6.2879 O   0  0  0  0  0  0  0  0  0  0  0  0
  1  2  1  0
  2  3  1  0
  4  3  1  0
  5  7  1  0
  5  4  1  0
  5  6  1  6
  7  8  2  0
 10  9  1  6
 10 12  1  0
 11 10  1  0
 12 13  1  6
 13  7  1  0
 14 12  1  0
 15 14  2  0
 17 16  1  1
 17 19  1  0
 18 17  1  0
 20 19  1  6
 20 21  1  0
 20 22  1  0
 21 14  1  0
 22 23  1  0
 24 22  2  0
M  END
$$$$
