MTL.pdb
     RDKit          3D

 24 23  0  0  1  0  0  0  0  0999 V2000
   22.9181  -21.1049   -6.0249 C   0  0  0  0  0  0  0  0  0  0  0  0
   23.7490  -21.6694   -7.5341 S   0  0  0  0  0  0  0  0  0  0  0  0
   25.1929  -20.6349   -7.9027 C   0  0  0  0  0  0  0  0  0  0  0  0
   25.8889  -21.0908   -9.1678 C   0  0  0  0  0  0  0  0  0  0  0  0
   25.3283  -20.3031  -10.3316 C   0  0  2  0  0  0  0  0  0  0  0  0
   23.9636  -20.7143  -10.5705 N   0  0  0  0  0  0  0  0  0  0  0  0
   26.1718  -20.4433  -11.5462 C   0  0  0  0  0  0  0  0  0  0  0  0
   27.0105  -21.3833  -11.5952 O   0  0  0  0  0  0  0  0  0  0  0  0
   26.3975  -22.2599  -13.3530 C   0  0  0  0  0  0  0  0  0  0  0  0
   26.1053  -21.2609  -14.4506 C   0  0  1  0  0  0  0  0  0  0  0  0
   24.7316  -21.1308  -14.6653 O   0  0  0  0  0  0  0  0  0  0  0  0
   26.6601  -19.9120  -13.9670 C   0  0  2  0  0  0  0  0  0  0  0  0
   26.0960  -19.5776  -12.6725 N   0  0  0  0  0  0  0  0  0  0  0  0
   26.3226  -18.9171  -14.9988 C   0  0  0  0  0  0  0  0  0  0  0  0
   25.2753  -18.2266  -14.8993 O   0  0  0  0  0  0  0  0  0  0  0  0
   28.3259  -15.0989  -16.7177 C   0  0  0  0  0  0  0  0  0  0  0  0
   28.8390  -16.3483  -17.3982 C   0  0  2  0  0  0  0  0  0  0  0  0
   29.9855  -15.9796  -18.2852 C   0  0  0  0  0  0  0  0  0  0  0  0
   27.7931  -17.1873  -18.0217 C   0  0  0  0  0  0  0  0  0  0  0  0
   26.7284  -17.7549  -17.1834 C   0  0  2  0  0  0  0  0  0  0  0  0
   27.1164  -18.6585  -16.1506 N   0  0  0  0  0  0  0  0  0  0  0  0
   25.6589  -18.3199  -18.0358 C   0  0  0  0  0  0  0  0  0  0  0  0
   24.9059  -17.5137  -18.8740 O   0  0  0  0  0  0  0  0  0  0  0  0
   25.3930  -19.5484  -18.0315 O   0  0  0  0  0  0  0  0  0  0  0  0
  1  2  1  0
  2  3  1  0
  4  3  1  0
  5  7  1  0
  5  4  1  0
  5  6  1  6
  7  8  2  0
 10  9  1  1
 10 12  1  0
 11 10  1  0
 12 13  1  1
 13  7  1  0
 14 12  1  0
 15 14  2  0
 17 16  1  6
 17 19  1  0
 18 17  1  0
 20 19  1  6
 20 21  1  0
 20 22  1  0
 21 14  1  0
 22 23  1  0
 24 22  2  0
M  END
$$$$
