MTL.pdb
     RDKit          3D

 24 23  0  0  1  0  0  0  0  0999 V2000
   27.7215  -19.9416   -6.5228 C   0  0  0  0  0  0  0  0  0  0  0  0
   26.1488  -20.8364   -6.4108 S   0  0  0  0  0  0  0  0  0  0  0  0
   25.4330  -21.0943   -8.0577 C   0  0  0  0  0  0  0  0  0  0  0  0
   26.3534  -20.5812   -9.1450 C   0  0  0  0  0  0  0  0  0  0  0  0
   25.7396  -20.9150  -10.4870 C   0  0  2  0  0  0  0  0  0  0  0  0
   25.6167  -22.3498  -10.6097 N   0  0  0  0  0  0  0  0  0  0  0  0
   26.5165  -20.3258  -11.6076 C   0  0  0  0  0  0  0  0  0  0  0  0
   27.6647  -20.7841  -11.8546 O   0  0  0  0  0  0  0  0  0  0  0  0
   27.6771  -20.9846  -14.0474 C   0  0  0  0  0  0  0  0  0  0  0  0
   26.8895  -19.8457  -14.6562 C   0  0  1  0  0  0  0  0  0  0  0  0
   25.6003  -20.2515  -15.0075 O   0  0  0  0  0  0  0  0  0  0  0  0
   26.7884  -18.7614  -13.5721 C   0  0  2  0  0  0  0  0  0  0  0  0
   26.0463  -19.2660  -12.4318 N   0  0  0  0  0  0  0  0  0  0  0  0
   26.1365  -17.5963  -14.1933 C   0  0  0  0  0  0  0  0  0  0  0  0
   24.8925  -17.4345  -14.0942 O   0  0  0  0  0  0  0  0  0  0  0  0
   25.6934  -13.4340  -17.8188 C   0  0  0  0  0  0  0  0  0  0  0  0
   26.4018  -13.1345  -16.5165 C   0  0  2  0  0  0  0  0  0  0  0  0
   27.3041  -11.9584  -16.7164 C   0  0  0  0  0  0  0  0  0  0  0  0
   27.0184  -14.3089  -15.8630 C   0  0  0  0  0  0  0  0  0  0  0  0
   26.1780  -15.4597  -15.5052 C   0  0  2  0  0  0  0  0  0  0  0  0
   26.8253  -16.5923  -14.9291 N   0  0  0  0  0  0  0  0  0  0  0  0
   25.3227  -15.8388  -16.6517 C   0  0  0  0  0  0  0  0  0  0  0  0
   23.9804  -15.4977  -16.6914 O   0  0  0  0  0  0  0  0  0  0  0  0
   25.7792  -16.4830  -17.6296 O   0  0  0  0  0  0  0  0  0  0  0  0
  1  2  1  0
  2  3  1  0
  4  3  1  0
  5  7  1  0
  5  4  1  0
  5  6  1  6
  7  8  2  0
 10  9  1  1
 10 12  1  0
 11 10  1  0
 12 13  1  1
 13  7  1  0
 14 12  1  0
 15 14  2  0
 17 16  1  6
 17 19  1  0
 18 17  1  0
 20 19  1  6
 20 21  1  0
 20 22  1  0
 21 14  1  0
 22 23  1  0
 24 22  2  0
M  END
$$$$
