MTL.pdb
     RDKit          3D

 24 23  0  0  1  0  0  0  0  0999 V2000
   19.3306  -19.7315   -9.0510 C   0  0  0  0  0  0  0  0  0  0  0  0
   19.9529  -20.9459  -10.2446 S   0  0  0  0  0  0  0  0  0  0  0  0
   21.6273  -21.4868   -9.8033 C   0  0  0  0  0  0  0  0  0  0  0  0
   22.6290  -20.3622   -9.9607 C   0  0  0  0  0  0  0  0  0  0  0  0
   24.0121  -20.9137   -9.6920 C   0  0  2  0  0  0  0  0  0  0  0  0
   24.2927  -20.8242   -8.2771 N   0  0  0  0  0  0  0  0  0  0  0  0
   25.0452  -20.2259  -10.5082 C   0  0  0  0  0  0  0  0  0  0  0  0
   25.6235  -19.2150  -10.0255 O   0  0  0  0  0  0  0  0  0  0  0  0
   28.2349  -21.3168  -12.1069 C   0  0  0  0  0  0  0  0  0  0  0  0
   27.4006  -20.8032  -13.2595 C   0  0  1  0  0  0  0  0  0  0  0  0
   26.7519  -21.8480  -13.9211 O   0  0  0  0  0  0  0  0  0  0  0  0
   26.3422  -19.8730  -12.6469 C   0  0  2  0  0  0  0  0  0  0  0  0
   25.4312  -20.6364  -11.8143 N   0  0  0  0  0  0  0  0  0  0  0  0
   25.6547  -19.2115  -13.7685 C   0  0  0  0  0  0  0  0  0  0  0  0
   24.5024  -18.7297  -13.6143 O   0  0  0  0  0  0  0  0  0  0  0  0
   27.5246  -14.4430  -15.9980 C   0  0  0  0  0  0  0  0  0  0  0  0
   26.3286  -15.3667  -16.0576 C   0  0  2  0  0  0  0  0  0  0  0  0
   25.0897  -14.5713  -15.7935 C   0  0  0  0  0  0  0  0  0  0  0  0
   26.4682  -16.6115  -15.2717 C   0  0  0  0  0  0  0  0  0  0  0  0
   26.0469  -17.8890  -15.8626 C   0  0  2  0  0  0  0  0  0  0  0  0
   26.2080  -19.0641  -15.0708 N   0  0  0  0  0  0  0  0  0  0  0  0
   26.6425  -18.0461  -17.2081 C   0  0  0  0  0  0  0  0  0  0  0  0
   25.9225  -17.7450  -18.3528 O   0  0  0  0  0  0  0  0  0  0  0  0
   27.8197  -18.4581  -17.3635 O   0  0  0  0  0  0  0  0  0  0  0  0
  1  2  1  0
  2  3  1  0
  4  3  1  0
  5  7  1  0
  5  4  1  0
  5  6  1  1
  7  8  2  0
 10  9  1  1
 10 12  1  0
 11 10  1  0
 12 13  1  6
 13  7  1  0
 14 12  1  0
 15 14  2  0
 17 16  1  1
 17 19  1  0
 18 17  1  0
 20 19  1  1
 20 21  1  0
 20 22  1  0
 21 14  1  0
 22 23  1  0
 24 22  2  0
M  END
$$$$
