GPR.pdb
     RDKit          3D

 23 23  0  0  1  0  0  0  0  0999 V2000
   25.1809  -17.2149  -20.2018 N   0  0  0  0  0  0  0  0  0  0  0  0
   23.7801  -16.9003  -19.8843 C   0  0  0  0  0  0  0  0  0  0  0  0
   23.5102  -17.2668  -18.4801 C   0  0  0  0  0  0  0  0  0  0  0  0
   24.3892  -17.8252  -17.7782 O   0  0  0  0  0  0  0  0  0  0  0  0
   22.2468  -16.9875  -17.9144 N   0  0  0  0  0  0  0  0  0  0  0  0
   21.0916  -16.3710  -18.5806 C   0  0  0  0  0  0  0  0  0  0  0  0
   20.4893  -15.5353  -17.4730 C   0  0  0  0  0  0  0  0  0  0  0  0
   20.6643  -16.3874  -16.2629 C   0  0  0  0  0  0  0  0  0  0  0  0
   21.8492  -17.2526  -16.5706 C   0  0  1  0  0  0  0  0  0  0  0  0
   21.4315  -18.6610  -16.3576 C   0  0  0  0  0  0  0  0  0  0  0  0
   20.8738  -19.3346  -17.2425 O   0  0  0  0  0  0  0  0  0  0  0  0
   26.2470  -21.7778  -11.3086 N   0  0  0  0  0  0  0  0  0  0  0  0
   25.3479  -20.9745  -10.5675 C   0  0  0  0  0  0  0  0  0  0  0  0
   25.4335  -20.9192   -9.2684 N   0  0  0  0  0  0  0  0  0  0  0  0
   24.3234  -20.1962  -11.1715 N   0  0  0  0  0  0  0  0  0  0  0  0
   24.1771  -20.2230  -12.6130 C   0  0  0  0  0  0  0  0  0  0  0  0
   23.0476  -21.1781  -12.9364 C   0  0  0  0  0  0  0  0  0  0  0  0
   22.7643  -21.2452  -14.4107 C   0  0  0  0  0  0  0  0  0  0  0  0
   21.4379  -20.6314  -14.7942 C   0  0  2  0  0  0  0  0  0  0  0  0
   21.6939  -19.2278  -15.0843 N   0  0  0  0  0  0  0  0  0  0  0  0
   20.4471  -20.6987  -13.7126 C   0  0  0  0  0  0  0  0  0  0  0  0
   20.2142  -19.7163  -12.9845 O   0  0  0  0  0  0  0  0  0  0  0  0
   19.7581  -21.8716  -13.4952 O   0  0  0  0  0  0  0  0  0  0  0  0
  2  1  1  0
  3  2  1  0
  4  3  2  0
  5  9  1  0
  5  3  1  0
  6  5  1  0
  7  6  1  0
  7  8  1  0
  8  9  1  0
  9 10  1  6
 10 11  2  0
 10 20  1  0
 13 12  1  0
 13 14  2  0
 15 13  1  0
 16 15  1  0
 16 17  1  0
 18 17  1  0
 19 18  1  1
 20 19  1  0
 21 19  1  0
 21 23  1  0
 22 21  2  0
M  END
$$$$
