GPR.pdb
     RDKit          3D

 23 23  0  0  1  0  0  0  0  0999 V2000
   25.6631  -23.5649  -14.9153 N   0  0  0  0  0  0  0  0  0  0  0  0
   24.6716  -22.5896  -15.3926 C   0  0  0  0  0  0  0  0  0  0  0  0
   23.7809  -22.2213  -14.2748 C   0  0  0  0  0  0  0  0  0  0  0  0
   23.8884  -22.7767  -13.1535 O   0  0  0  0  0  0  0  0  0  0  0  0
   22.7923  -21.2309  -14.4647 N   0  0  0  0  0  0  0  0  0  0  0  0
   22.4949  -20.4982  -15.7029 C   0  0  0  0  0  0  0  0  0  0  0  0
   22.1323  -19.1241  -15.1849 C   0  0  0  0  0  0  0  0  0  0  0  0
   21.3728  -19.4150  -13.9360 C   0  0  0  0  0  0  0  0  0  0  0  0
   21.8852  -20.7468  -13.4764 C   0  0  1  0  0  0  0  0  0  0  0  0
   20.7068  -21.6299  -13.2898 C   0  0  0  0  0  0  0  0  0  0  0  0
   20.2477  -22.3353  -14.2059 O   0  0  0  0  0  0  0  0  0  0  0  0
   18.6206  -25.4320   -5.5279 N   0  0  0  0  0  0  0  0  0  0  0  0
   17.6325  -25.7940   -6.4743 C   0  0  0  0  0  0  0  0  0  0  0  0
   16.7083  -26.6578   -6.1618 N   0  0  0  0  0  0  0  0  0  0  0  0
   17.5818  -25.2550   -7.7885 N   0  0  0  0  0  0  0  0  0  0  0  0
   18.6320  -24.3547   -8.2206 C   0  0  0  0  0  0  0  0  0  0  0  0
   18.3616  -24.0046   -9.6686 C   0  0  0  0  0  0  0  0  0  0  0  0
   19.3627  -23.0251  -10.2132 C   0  0  0  0  0  0  0  0  0  0  0  0
   19.0828  -22.6133  -11.6398 C   0  0  2  0  0  0  0  0  0  0  0  0
   20.1066  -21.6445  -12.0049 N   0  0  0  0  0  0  0  0  0  0  0  0
   17.7720  -21.9709  -11.7987 C   0  0  0  0  0  0  0  0  0  0  0  0
   17.6388  -20.7370  -11.7041 O   0  0  0  0  0  0  0  0  0  0  0  0
   16.6632  -22.7461  -12.0582 O   0  0  0  0  0  0  0  0  0  0  0  0
  2  1  1  0
  3  2  1  0
  4  3  2  0
  5  9  1  0
  5  3  1  0
  6  5  1  0
  7  6  1  0
  7  8  1  0
  8  9  1  0
  9 10  1  6
 10 11  2  0
 10 20  1  0
 13 12  1  0
 13 14  2  0
 15 13  1  0
 16 15  1  0
 16 17  1  0
 18 17  1  0
 19 18  1  1
 20 19  1  0
 21 19  1  0
 21 23  1  0
 22 21  2  0
M  END
$$$$
