GPR.pdb
     RDKit          3D

 23 23  0  0  1  0  0  0  0  0999 V2000
   25.8427  -22.7103  -10.9620 N   0  0  0  0  0  0  0  0  0  0  0  0
   25.6758  -22.3983  -12.3891 C   0  0  0  0  0  0  0  0  0  0  0  0
   24.3667  -21.7468  -12.5903 C   0  0  0  0  0  0  0  0  0  0  0  0
   23.6449  -21.4324  -11.6118 O   0  0  0  0  0  0  0  0  0  0  0  0
   23.9157  -21.4715  -13.8998 N   0  0  0  0  0  0  0  0  0  0  0  0
   24.6159  -21.7581  -15.1593 C   0  0  0  0  0  0  0  0  0  0  0  0
   24.2354  -20.5715  -16.0166 C   0  0  0  0  0  0  0  0  0  0  0  0
   22.8139  -20.3193  -15.6463 C   0  0  0  0  0  0  0  0  0  0  0  0
   22.6799  -20.8527  -14.2518 C   0  0  1  0  0  0  0  0  0  0  0  0
   21.5374  -21.8003  -14.2522 C   0  0  0  0  0  0  0  0  0  0  0  0
   21.6921  -23.0347  -14.2480 O   0  0  0  0  0  0  0  0  0  0  0  0
   19.4109  -24.0116   -7.2774 N   0  0  0  0  0  0  0  0  0  0  0  0
   18.5386  -24.4687   -8.2939 C   0  0  0  0  0  0  0  0  0  0  0  0
   17.9299  -25.6143   -8.1716 N   0  0  0  0  0  0  0  0  0  0  0  0
   18.2743  -23.7309   -9.4796 N   0  0  0  0  0  0  0  0  0  0  0  0
   19.0823  -22.5655   -9.7779 C   0  0  0  0  0  0  0  0  0  0  0  0
   18.4895  -21.9046  -11.0043 C   0  0  0  0  0  0  0  0  0  0  0  0
   19.5432  -21.4912  -11.9928 C   0  0  0  0  0  0  0  0  0  0  0  0
   19.1612  -21.7711  -13.4277 C   0  0  2  0  0  0  0  0  0  0  0  0
   20.2338  -21.2416  -14.2578 N   0  0  0  0  0  0  0  0  0  0  0  0
   17.9117  -21.1084  -13.8224 C   0  0  0  0  0  0  0  0  0  0  0  0
   16.8493  -21.7458  -13.9418 O   0  0  0  0  0  0  0  0  0  0  0  0
   17.9103  -19.7526  -14.0665 O   0  0  0  0  0  0  0  0  0  0  0  0
  2  1  1  0
  3  2  1  0
  4  3  2  0
  5  9  1  0
  5  3  1  0
  6  5  1  0
  7  6  1  0
  7  8  1  0
  8  9  1  0
  9 10  1  6
 10 11  2  0
 10 20  1  0
 13 12  1  0
 13 14  2  0
 15 13  1  0
 16 15  1  0
 16 17  1  0
 18 17  1  0
 19 18  1  1
 20 19  1  0
 21 19  1  0
 21 23  1  0
 22 21  2  0
M  END
$$$$
