GPR.pdb
     RDKit          3D

 23 23  0  0  1  0  0  0  0  0999 V2000
   22.0508  -17.7110  -16.4855 N   0  0  0  0  0  0  0  0  0  0  0  0
   23.1003  -16.7855  -16.0340 C   0  0  0  0  0  0  0  0  0  0  0  0
   24.3936  -17.2064  -16.6076 C   0  0  0  0  0  0  0  0  0  0  0  0
   24.4429  -18.0388  -17.5468 O   0  0  0  0  0  0  0  0  0  0  0  0
   25.5946  -16.6681  -16.0960 N   0  0  0  0  0  0  0  0  0  0  0  0
   25.7473  -15.7826  -14.9335 C   0  0  0  0  0  0  0  0  0  0  0  0
   26.8737  -14.8716  -15.3683 C   0  0  0  0  0  0  0  0  0  0  0  0
   27.7875  -15.7832  -16.1133 C   0  0  0  0  0  0  0  0  0  0  0  0
   26.9037  -16.8832  -16.6195 C   0  0  1  0  0  0  0  0  0  0  0  0
   27.5016  -18.1668  -16.1743 C   0  0  0  0  0  0  0  0  0  0  0  0
   28.5109  -18.6568  -16.7118 O   0  0  0  0  0  0  0  0  0  0  0  0
   25.4704  -20.9200   -8.7861 N   0  0  0  0  0  0  0  0  0  0  0  0
   24.4040  -20.9627   -9.7157 C   0  0  0  0  0  0  0  0  0  0  0  0
   23.1845  -20.7155   -9.3288 N   0  0  0  0  0  0  0  0  0  0  0  0
   24.5857  -21.2670  -11.0921 N   0  0  0  0  0  0  0  0  0  0  0  0
   25.9247  -21.2470  -11.6462 C   0  0  0  0  0  0  0  0  0  0  0  0
   26.1033  -19.9197  -12.3523 C   0  0  0  0  0  0  0  0  0  0  0  0
   27.4565  -19.7946  -12.9940 C   0  0  0  0  0  0  0  0  0  0  0  0
   27.4358  -20.0305  -14.4863 C   0  0  2  0  0  0  0  0  0  0  0  0
   26.8716  -18.8327  -15.0921 N   0  0  0  0  0  0  0  0  0  0  0  0
   26.5957  -21.1723  -14.8692 C   0  0  0  0  0  0  0  0  0  0  0  0
   25.4267  -21.0131  -15.2658 O   0  0  0  0  0  0  0  0  0  0  0  0
   27.1078  -22.4487  -14.7896 O   0  0  0  0  0  0  0  0  0  0  0  0
  2  1  1  0
  3  2  1  0
  4  3  2  0
  5  9  1  0
  5  3  1  0
  6  5  1  0
  7  6  1  0
  7  8  1  0
  8  9  1  0
  9 10  1  1
 10 11  2  0
 10 20  1  0
 13 12  1  0
 13 14  2  0
 15 13  1  0
 16 15  1  0
 16 17  1  0
 18 17  1  0
 19 18  1  1
 20 19  1  0
 21 19  1  0
 21 23  1  0
 22 21  2  0
M  END
$$$$
