GPR.pdb
     RDKit          3D

 23 23  0  0  1  0  0  0  0  0999 V2000
   24.3040  -13.9908  -16.7476 N   0  0  0  0  0  0  0  0  0  0  0  0
   25.6243  -14.6191  -16.9025 C   0  0  0  0  0  0  0  0  0  0  0  0
   25.5601  -16.0057  -16.4006 C   0  0  0  0  0  0  0  0  0  0  0  0
   24.5271  -16.4400  -15.8336 O   0  0  0  0  0  0  0  0  0  0  0  0
   26.6740  -16.8593  -16.5581 N   0  0  0  0  0  0  0  0  0  0  0  0
   27.9776  -16.5200  -17.1448 C   0  0  0  0  0  0  0  0  0  0  0  0
   28.3515  -17.7990  -17.8604 C   0  0  0  0  0  0  0  0  0  0  0  0
   27.8674  -18.8652  -16.9383 C   0  0  0  0  0  0  0  0  0  0  0  0
   26.7441  -18.2312  -16.1744 C   0  0  1  0  0  0  0  0  0  0  0  0
   27.0366  -18.4144  -14.7307 C   0  0  0  0  0  0  0  0  0  0  0  0
   27.7695  -17.6375  -14.0928 O   0  0  0  0  0  0  0  0  0  0  0  0
   22.0790  -22.1155   -8.4331 N   0  0  0  0  0  0  0  0  0  0  0  0
   23.2766  -21.6077   -7.8754 C   0  0  0  0  0  0  0  0  0  0  0  0
   23.5813  -21.8585   -6.6336 N   0  0  0  0  0  0  0  0  0  0  0  0
   24.2004  -20.8159   -8.6101 N   0  0  0  0  0  0  0  0  0  0  0  0
   24.1136  -20.7939  -10.0565 C   0  0  0  0  0  0  0  0  0  0  0  0
   25.2101  -19.8807  -10.5626 C   0  0  0  0  0  0  0  0  0  0  0  0
   25.2123  -19.7713  -12.0614 C   0  0  0  0  0  0  0  0  0  0  0  0
   26.5996  -19.7740  -12.6601 C   0  0  2  0  0  0  0  0  0  0  0  0
   26.4409  -19.5286  -14.0865 N   0  0  0  0  0  0  0  0  0  0  0  0
   27.2873  -21.0607  -12.4941 C   0  0  0  0  0  0  0  0  0  0  0  0
   27.1870  -21.9641  -13.3444 O   0  0  0  0  0  0  0  0  0  0  0  0
   28.0611  -21.2773  -11.3751 O   0  0  0  0  0  0  0  0  0  0  0  0
  2  1  1  0
  3  2  1  0
  4  3  2  0
  5  9  1  0
  5  3  1  0
  6  5  1  0
  7  6  1  0
  7  8  1  0
  8  9  1  0
  9 10  1  1
 10 11  2  0
 10 20  1  0
 13 12  1  0
 13 14  2  0
 15 13  1  0
 16 15  1  0
 16 17  1  0
 18 17  1  0
 19 18  1  1
 20 19  1  0
 21 19  1  0
 21 23  1  0
 22 21  2  0
M  END
$$$$
