GPR.pdb
     RDKit          3D

 23 23  0  0  1  0  0  0  0  0999 V2000
   24.9953  -23.5718  -14.8790 N   0  0  0  0  0  0  0  0  0  0  0  0
   23.7831  -23.4376  -15.7004 C   0  0  0  0  0  0  0  0  0  0  0  0
   22.7797  -22.6532  -14.9544 C   0  0  0  0  0  0  0  0  0  0  0  0
   22.9971  -22.2826  -13.7742 O   0  0  0  0  0  0  0  0  0  0  0  0
   21.5565  -22.3128  -15.5726 N   0  0  0  0  0  0  0  0  0  0  0  0
   21.1352  -22.6308  -16.9437 C   0  0  0  0  0  0  0  0  0  0  0  0
   20.3501  -21.3982  -17.3334 C   0  0  0  0  0  0  0  0  0  0  0  0
   19.6327  -21.0343  -16.0788 C   0  0  0  0  0  0  0  0  0  0  0  0
   20.4858  -21.5841  -14.9755 C   0  0  1  0  0  0  0  0  0  0  0  0
   19.6121  -22.4313  -14.1256 C   0  0  0  0  0  0  0  0  0  0  0  0
   19.4313  -23.6416  -14.3494 O   0  0  0  0  0  0  0  0  0  0  0  0
   17.7460  -24.9504   -6.8006 N   0  0  0  0  0  0  0  0  0  0  0  0
   17.9674  -25.6247   -8.0250 C   0  0  0  0  0  0  0  0  0  0  0  0
   17.4447  -26.8002   -8.2319 N   0  0  0  0  0  0  0  0  0  0  0  0
   18.7493  -25.0812   -9.0802 N   0  0  0  0  0  0  0  0  0  0  0  0
   19.3844  -23.7921   -8.8932 C   0  0  0  0  0  0  0  0  0  0  0  0
   18.4393  -22.7389   -9.4317 C   0  0  0  0  0  0  0  0  0  0  0  0
   18.9826  -22.0610  -10.6581 C   0  0  0  0  0  0  0  0  0  0  0  0
   18.3689  -22.5661  -11.9431 C   0  0  2  0  0  0  0  0  0  0  0  0
   18.9749  -21.8032  -13.0251 N   0  0  0  0  0  0  0  0  0  0  0  0
   16.9163  -22.3584  -11.9987 C   0  0  0  0  0  0  0  0  0  0  0  0
   16.1197  -23.2581  -11.6745 O   0  0  0  0  0  0  0  0  0  0  0  0
   16.4199  -21.1436  -12.4179 O   0  0  0  0  0  0  0  0  0  0  0  0
  2  1  1  0
  3  2  1  0
  4  3  2  0
  5  9  1  0
  5  3  1  0
  6  5  1  0
  7  6  1  0
  7  8  1  0
  8  9  1  0
  9 10  1  1
 10 11  2  0
 10 20  1  0
 13 12  1  0
 13 14  2  0
 15 13  1  0
 16 15  1  0
 16 17  1  0
 18 17  1  0
 19 18  1  1
 20 19  1  0
 21 19  1  0
 21 23  1  0
 22 21  2  0
M  END
$$$$
