GPR.pdb
     RDKit          3D

 23 23  0  0  1  0  0  0  0  0999 V2000
   28.3459  -14.1364  -20.7715 N   0  0  0  0  0  0  0  0  0  0  0  0
   28.9708  -12.8108  -20.6532 C   0  0  0  0  0  0  0  0  0  0  0  0
   28.2847  -12.0473  -19.5925 C   0  0  0  0  0  0  0  0  0  0  0  0
   27.2231  -12.4734  -19.0741 O   0  0  0  0  0  0  0  0  0  0  0  0
   28.8263  -10.8200  -19.1516 N   0  0  0  0  0  0  0  0  0  0  0  0
   30.0218  -10.1397  -19.6680 C   0  0  0  0  0  0  0  0  0  0  0  0
   30.6107   -9.5287  -18.4159 C   0  0  0  0  0  0  0  0  0  0  0  0
   29.4110   -9.0915  -17.6474 C   0  0  0  0  0  0  0  0  0  0  0  0
   28.3095   -9.9991  -18.1061 C   0  0  1  0  0  0  0  0  0  0  0  0
   27.1858   -9.1364  -18.5491 C   0  0  0  0  0  0  0  0  0  0  0  0
   27.1324   -8.6401  -19.6887 O   0  0  0  0  0  0  0  0  0  0  0  0
   18.7403  -10.6095  -17.5028 N   0  0  0  0  0  0  0  0  0  0  0  0
   18.9797   -9.2627  -17.1395 C   0  0  0  0  0  0  0  0  0  0  0  0
   18.0260   -8.5427  -16.6199 N   0  0  0  0  0  0  0  0  0  0  0  0
   20.2383   -8.6247  -17.3097 N   0  0  0  0  0  0  0  0  0  0  0  0
   21.3031   -9.3383  -17.9859 C   0  0  0  0  0  0  0  0  0  0  0  0
   22.4698   -8.3839  -18.1275 C   0  0  0  0  0  0  0  0  0  0  0  0
   23.7805   -9.0329  -17.7819 C   0  0  0  0  0  0  0  0  0  0  0  0
   24.9673   -8.1131  -17.9508 C   0  0  2  0  0  0  0  0  0  0  0  0
   26.1511   -8.8898  -17.6110 N   0  0  0  0  0  0  0  0  0  0  0  0
   24.9154   -6.9492  -17.0570 C   0  0  0  0  0  0  0  0  0  0  0  0
   24.2595   -5.9335  -17.3525 O   0  0  0  0  0  0  0  0  0  0  0  0
   25.6055   -6.9774  -15.8651 O   0  0  0  0  0  0  0  0  0  0  0  0
  2  1  1  0
  3  2  1  0
  4  3  2  0
  5  9  1  0
  5  3  1  0
  6  5  1  0
  7  6  1  0
  7  8  1  0
  8  9  1  0
  9 10  1  6
 10 11  2  0
 10 20  1  0
 13 12  1  0
 13 14  2  0
 15 13  1  0
 16 15  1  0
 16 17  1  0
 18 17  1  0
 19 18  1  1
 20 19  1  0
 21 19  1  0
 21 23  1  0
 22 21  2  0
M  END
$$$$
