GPR.pdb
     RDKit          3D

 23 23  0  0  1  0  0  0  0  0999 V2000
   17.4906  -20.2451    2.1348 N   0  0  0  0  0  0  0  0  0  0  0  0
   16.4521  -20.3226    3.1728 C   0  0  0  0  0  0  0  0  0  0  0  0
   16.0476  -18.9550    3.5531 C   0  0  0  0  0  0  0  0  0  0  0  0
   16.4972  -17.9549    2.9407 O   0  0  0  0  0  0  0  0  0  0  0  0
   15.1427  -18.7640    4.6203 N   0  0  0  0  0  0  0  0  0  0  0  0
   14.4745  -19.8031    5.4155 C   0  0  0  0  0  0  0  0  0  0  0  0
   13.1167  -19.1884    5.6730 C   0  0  0  0  0  0  0  0  0  0  0  0
   13.4255  -17.7463    5.8881 C   0  0  0  0  0  0  0  0  0  0  0  0
   14.6987  -17.5094    5.1330 C   0  0  1  0  0  0  0  0  0  0  0  0
   15.6635  -16.8970    6.0804 C   0  0  0  0  0  0  0  0  0  0  0  0
   16.7966  -17.3699    6.2803 O   0  0  0  0  0  0  0  0  0  0  0  0
   21.3070  -11.3026    5.2602 N   0  0  0  0  0  0  0  0  0  0  0  0
   21.2015  -11.4355    6.6652 C   0  0  0  0  0  0  0  0  0  0  0  0
   22.1140  -10.9265    7.4439 N   0  0  0  0  0  0  0  0  0  0  0  0
   20.1253  -12.1106    7.3025 N   0  0  0  0  0  0  0  0  0  0  0  0
   19.2052  -12.8867    6.4955 C   0  0  0  0  0  0  0  0  0  0  0  0
   18.1891  -13.5035    7.4332 C   0  0  0  0  0  0  0  0  0  0  0  0
   17.1656  -14.3254    6.7015 C   0  0  0  0  0  0  0  0  0  0  0  0
   16.1451  -14.9633    7.6152 C   0  0  2  0  0  0  0  0  0  0  0  0
   15.2433  -15.7290    6.7664 N   0  0  0  0  0  0  0  0  0  0  0  0
   15.3467  -13.9756    8.3521 C   0  0  0  0  0  0  0  0  0  0  0  0
   14.3135  -13.4823    7.8638 O   0  0  0  0  0  0  0  0  0  0  0  0
   15.7455  -13.5835    9.6111 O   0  0  0  0  0  0  0  0  0  0  0  0
  2  1  1  0
  3  2  1  0
  4  3  2  0
  5  9  1  0
  5  3  1  0
  6  5  1  0
  7  6  1  0
  7  8  1  0
  8  9  1  0
  9 10  1  1
 10 11  2  0
 10 20  1  0
 13 12  1  0
 13 14  2  0
 15 13  1  0
 16 15  1  0
 16 17  1  0
 18 17  1  0
 19 18  1  6
 20 19  1  0
 21 19  1  0
 21 23  1  0
 22 21  2  0
M  END
$$$$
