GPR.pdb
     RDKit          3D

 23 23  0  0  1  0  0  0  0  0999 V2000
   23.0639  -27.0982  -16.1146 N   0  0  0  0  0  0  0  0  0  0  0  0
   22.2119  -26.0663  -16.7238 C   0  0  0  0  0  0  0  0  0  0  0  0
   21.5653  -25.2815  -15.6538 C   0  0  0  0  0  0  0  0  0  0  0  0
   21.7915  -25.5307  -14.4438 O   0  0  0  0  0  0  0  0  0  0  0  0
   20.6791  -24.2352  -15.9912 N   0  0  0  0  0  0  0  0  0  0  0  0
   20.2104  -23.8659  -17.3338 C   0  0  0  0  0  0  0  0  0  0  0  0
   20.1264  -22.3584  -17.2423 C   0  0  0  0  0  0  0  0  0  0  0  0
   19.6227  -22.1236  -15.8595 C   0  0  0  0  0  0  0  0  0  0  0  0
   20.0653  -23.3254  -15.0803 C   0  0  1  0  0  0  0  0  0  0  0  0
   18.8607  -23.8898  -14.4218 C   0  0  0  0  0  0  0  0  0  0  0  0
   18.1520  -24.7610  -14.9570 O   0  0  0  0  0  0  0  0  0  0  0  0
   19.1963  -24.6010   -7.3330 N   0  0  0  0  0  0  0  0  0  0  0  0
   17.9090  -25.0393   -6.9412 C   0  0  0  0  0  0  0  0  0  0  0  0
   17.5148  -24.9005   -5.7069 N   0  0  0  0  0  0  0  0  0  0  0  0
   16.9866  -25.6404   -7.8400 N   0  0  0  0  0  0  0  0  0  0  0  0
   17.3554  -25.7854   -9.2340 C   0  0  0  0  0  0  0  0  0  0  0  0
   16.9015  -24.5341   -9.9555 C   0  0  0  0  0  0  0  0  0  0  0  0
   17.9380  -24.0246  -10.9171 C   0  0  0  0  0  0  0  0  0  0  0  0
   17.4452  -23.9473  -12.3434 C   0  0  2  0  0  0  0  0  0  0  0  0
   18.5352  -23.3932  -13.1339 N   0  0  0  0  0  0  0  0  0  0  0  0
   16.2804  -23.0661  -12.4947 C   0  0  0  0  0  0  0  0  0  0  0  0
   16.4103  -21.8659  -12.7980 O   0  0  0  0  0  0  0  0  0  0  0  0
   15.0150  -23.5739  -12.2980 O   0  0  0  0  0  0  0  0  0  0  0  0
  2  1  1  0
  3  2  1  0
  4  3  2  0
  5  9  1  0
  5  3  1  0
  6  5  1  0
  7  6  1  0
  7  8  1  0
  8  9  1  0
  9 10  1  6
 10 11  2  0
 10 20  1  0
 13 12  1  0
 13 14  2  0
 15 13  1  0
 16 15  1  0
 16 17  1  0
 18 17  1  0
 19 18  1  1
 20 19  1  0
 21 19  1  0
 21 23  1  0
 22 21  2  0
M  END
$$$$
