GPR.pdb
     RDKit          3D

 23 23  0  0  1  0  0  0  0  0999 V2000
   27.9791  -17.0890  -16.8642 N   0  0  0  0  0  0  0  0  0  0  0  0
   28.4182  -18.4516  -16.5289 C   0  0  0  0  0  0  0  0  0  0  0  0
   27.2572  -19.3610  -16.5902 C   0  0  0  0  0  0  0  0  0  0  0  0
   26.1265  -18.9418  -16.9412 O   0  0  0  0  0  0  0  0  0  0  0  0
   27.4156  -20.7223  -16.2498 N   0  0  0  0  0  0  0  0  0  0  0  0
   28.6675  -21.4146  -15.9149 C   0  0  0  0  0  0  0  0  0  0  0  0
   28.4517  -22.7825  -16.5232 C   0  0  0  0  0  0  0  0  0  0  0  0
   27.0087  -23.0517  -16.2654 C   0  0  0  0  0  0  0  0  0  0  0  0
   26.3766  -21.6959  -16.1680 C   0  0  1  0  0  0  0  0  0  0  0  0
   25.6377  -21.6475  -14.8816 C   0  0  0  0  0  0  0  0  0  0  0  0
   26.2120  -21.5309  -13.7842 O   0  0  0  0  0  0  0  0  0  0  0  0
   23.2159  -20.7103   -8.9716 N   0  0  0  0  0  0  0  0  0  0  0  0
   24.6297  -20.6854   -9.0328 C   0  0  0  0  0  0  0  0  0  0  0  0
   25.3274  -20.3585   -7.9820 N   0  0  0  0  0  0  0  0  0  0  0  0
   25.3616  -21.0072  -10.2080 N   0  0  0  0  0  0  0  0  0  0  0  0
   24.6406  -21.2490  -11.4417 C   0  0  0  0  0  0  0  0  0  0  0  0
   24.3005  -19.9003  -12.0398 C   0  0  0  0  0  0  0  0  0  0  0  0
   23.6596  -20.0240  -13.3934 C   0  0  0  0  0  0  0  0  0  0  0  0
   23.3778  -21.4533  -13.7944 C   0  0  2  0  0  0  0  0  0  0  0  0
   24.2239  -21.7407  -14.9440 N   0  0  0  0  0  0  0  0  0  0  0  0
   21.9808  -21.6661  -14.1937 C   0  0  0  0  0  0  0  0  0  0  0  0
   21.5740  -21.3461  -15.3256 O   0  0  0  0  0  0  0  0  0  0  0  0
   21.0981  -22.2318  -13.3001 O   0  0  0  0  0  0  0  0  0  0  0  0
  2  1  1  0
  3  2  1  0
  4  3  2  0
  5  9  1  0
  5  3  1  0
  6  5  1  0
  7  6  1  0
  7  8  1  0
  8  9  1  0
  9 10  1  1
 10 11  2  0
 10 20  1  0
 13 12  1  0
 13 14  2  0
 15 13  1  0
 16 15  1  0
 16 17  1  0
 18 17  1  0
 19 18  1  6
 20 19  1  0
 21 19  1  0
 21 23  1  0
 22 21  2  0
M  END
$$$$
