GPR.pdb
     RDKit          3D

 23 23  0  0  1  0  0  0  0  0999 V2000
   26.6670  -15.5506  -18.6138 N   0  0  0  0  0  0  0  0  0  0  0  0
   27.7478  -16.5165  -18.3676 C   0  0  0  0  0  0  0  0  0  0  0  0
   27.1604  -17.8545  -18.1591 C   0  0  0  0  0  0  0  0  0  0  0  0
   25.9254  -17.9967  -17.9805 O   0  0  0  0  0  0  0  0  0  0  0  0
   27.9953  -18.9933  -18.1593 N   0  0  0  0  0  0  0  0  0  0  0  0
   29.4384  -19.0370  -18.4316 C   0  0  0  0  0  0  0  0  0  0  0  0
   29.5880  -20.3505  -19.1666 C   0  0  0  0  0  0  0  0  0  0  0  0
   28.6305  -21.2507  -18.4637 C   0  0  0  0  0  0  0  0  0  0  0  0
   27.5896  -20.3346  -17.8941 C   0  0  1  0  0  0  0  0  0  0  0  0
   27.4885  -20.6328  -16.4435 C   0  0  0  0  0  0  0  0  0  0  0  0
   28.2917  -20.1779  -15.6095 O   0  0  0  0  0  0  0  0  0  0  0  0
   26.1348  -19.9635   -9.1002 N   0  0  0  0  0  0  0  0  0  0  0  0
   25.0039  -20.7078   -9.5126 C   0  0  0  0  0  0  0  0  0  0  0  0
   23.9197  -20.7109   -8.7897 N   0  0  0  0  0  0  0  0  0  0  0  0
   24.9745  -21.4772  -10.7073 N   0  0  0  0  0  0  0  0  0  0  0  0
   25.8456  -21.1064  -11.8045 C   0  0  0  0  0  0  0  0  0  0  0  0
   25.0319  -20.2656  -12.7653 C   0  0  0  0  0  0  0  0  0  0  0  0
   25.6203  -20.2523  -14.1480 C   0  0  0  0  0  0  0  0  0  0  0  0
   26.0534  -21.6180  -14.6279 C   0  0  2  0  0  0  0  0  0  0  0  0
   26.4233  -21.4722  -16.0286 N   0  0  0  0  0  0  0  0  0  0  0  0
   24.9800  -22.6165  -14.5429 C   0  0  0  0  0  0  0  0  0  0  0  0
   23.9287  -22.4957  -15.1981 O   0  0  0  0  0  0  0  0  0  0  0  0
   25.1353  -23.7118  -13.7220 O   0  0  0  0  0  0  0  0  0  0  0  0
  2  1  1  0
  3  2  1  0
  4  3  2  0
  5  9  1  0
  5  3  1  0
  6  5  1  0
  7  6  1  0
  7  8  1  0
  8  9  1  0
  9 10  1  1
 10 11  2  0
 10 20  1  0
 13 12  1  0
 13 14  2  0
 15 13  1  0
 16 15  1  0
 16 17  1  0
 18 17  1  0
 19 18  1  6
 20 19  1  0
 21 19  1  0
 21 23  1  0
 22 21  2  0
M  END
$$$$
