GPR.pdb
     RDKit          3D

 23 23  0  0  1  0  0  0  0  0999 V2000
   29.2059  -16.9887  -19.6105 N   0  0  0  0  0  0  0  0  0  0  0  0
   28.1122  -16.2603  -18.9509 C   0  0  0  0  0  0  0  0  0  0  0  0
   27.8139  -16.9061  -17.6576 C   0  0  0  0  0  0  0  0  0  0  0  0
   28.3610  -17.9898  -17.3358 O   0  0  0  0  0  0  0  0  0  0  0  0
   26.9009  -16.3003  -16.7668 N   0  0  0  0  0  0  0  0  0  0  0  0
   26.1595  -15.0482  -16.9697 C   0  0  0  0  0  0  0  0  0  0  0  0
   26.1339  -14.4596  -15.5766 C   0  0  0  0  0  0  0  0  0  0  0  0
   25.9500  -15.6516  -14.7011 C   0  0  0  0  0  0  0  0  0  0  0  0
   26.5229  -16.7948  -15.4836 C   0  0  1  0  0  0  0  0  0  0  0  0
   25.4778  -17.8465  -15.5533 C   0  0  0  0  0  0  0  0  0  0  0  0
   24.6239  -17.8823  -16.4573 O   0  0  0  0  0  0  0  0  0  0  0  0
   26.0566  -19.9864   -8.5512 N   0  0  0  0  0  0  0  0  0  0  0  0
   24.9976  -20.8556   -8.9062 C   0  0  0  0  0  0  0  0  0  0  0  0
   24.0053  -21.0523   -8.0848 N   0  0  0  0  0  0  0  0  0  0  0  0
   24.9453  -21.5498  -10.1453 N   0  0  0  0  0  0  0  0  0  0  0  0
   25.9343  -21.2507  -11.1615 C   0  0  0  0  0  0  0  0  0  0  0  0
   25.3171  -20.2482  -12.1136 C   0  0  0  0  0  0  0  0  0  0  0  0
   24.9404  -20.8704  -13.4287 C   0  0  0  0  0  0  0  0  0  0  0  0
   24.4614  -19.8661  -14.4510 C   0  0  2  0  0  0  0  0  0  0  0  0
   25.4831  -18.8321  -14.5334 N   0  0  0  0  0  0  0  0  0  0  0  0
   23.1965  -19.2258  -14.0686 C   0  0  0  0  0  0  0  0  0  0  0  0
   22.1090  -19.8211  -14.1789 O   0  0  0  0  0  0  0  0  0  0  0  0
   23.2087  -17.9391  -13.5767 O   0  0  0  0  0  0  0  0  0  0  0  0
  2  1  1  0
  3  2  1  0
  4  3  2  0
  5  9  1  0
  5  3  1  0
  6  5  1  0
  7  6  1  0
  7  8  1  0
  8  9  1  0
  9 10  1  6
 10 11  2  0
 10 20  1  0
 13 12  1  0
 13 14  2  0
 15 13  1  0
 16 15  1  0
 16 17  1  0
 18 17  1  0
 19 18  1  1
 20 19  1  0
 21 19  1  0
 21 23  1  0
 22 21  2  0
M  END
$$$$
