IRT.pdb
     RDKit          3D

 27 26  0  0  1  0  0  0  0  0999 V2000
   27.6024  -19.9576   -5.6628 C   0  0  0  0  0  0  0  0  0  0  0  0
   26.2345  -19.9513   -6.3758 C   0  0  0  0  0  0  0  0  0  0  0  0
   26.5275  -20.0307   -7.8259 C   0  0  2  0  0  0  0  0  0  0  0  0
   27.6080  -18.9803   -8.1170 C   0  0  0  0  0  0  0  0  0  0  0  0
   25.3932  -19.9443   -8.7717 C   0  0  2  0  0  0  0  0  0  0  0  0
   24.4671  -21.0383   -8.3691 N   0  0  0  0  0  0  0  0  0  0  0  0
   25.6493  -20.1288  -10.1876 C   0  0  0  0  0  0  0  0  0  0  0  0
   26.4578  -19.3325  -10.7954 O   0  0  0  0  0  0  0  0  0  0  0  0
   23.5317  -24.0308  -16.9696 N   0  0  0  0  0  0  0  0  0  0  0  0
   24.8302  -24.5697  -17.1033 C   0  0  0  0  0  0  0  0  0  0  0  0
   25.3459  -24.9199  -18.2297 N   0  0  0  0  0  0  0  0  0  0  0  0
   25.6058  -24.7294  -15.9033 N   0  0  0  0  0  0  0  0  0  0  0  0
   25.0534  -24.3863  -14.6051 C   0  0  0  0  0  0  0  0  0  0  0  0
   25.4175  -22.9556  -14.3053 C   0  0  0  0  0  0  0  0  0  0  0  0
   25.0933  -22.6270  -12.9061 C   0  0  0  0  0  0  0  0  0  0  0  0
   25.4262  -21.2319  -12.4443 C   0  0  2  0  0  0  0  0  0  0  0  0
   25.1038  -21.1281  -11.0499 N   0  0  0  0  0  0  0  0  0  0  0  0
   24.7730  -20.2463  -13.3230 C   0  0  0  0  0  0  0  0  0  0  0  0
   23.6740  -20.5808  -13.8903 O   0  0  0  0  0  0  0  0  0  0  0  0
   26.2739  -25.4173  -18.2114 C   0  0  0  0  0  0  0  0  0  0  0  0
   27.0326  -17.6578  -15.0880 C   0  0  2  0  0  0  0  0  0  0  0  0
   25.7396  -18.0352  -15.7805 O   0  0  0  0  0  0  0  0  0  0  0  0
   25.9553  -19.2522  -16.4143 C   0  0  2  0  0  0  0  0  0  0  0  0
   24.6521  -18.1499  -14.7181 N   0  0  0  0  0  0  0  0  0  0  0  0
   25.2276  -18.9449  -13.6204 C   0  0  0  0  0  0  0  0  0  0  0  0
   23.4289  -18.7553  -15.2410 O   0  0  0  0  0  0  0  0  0  0  0  0
   22.9961  -19.8853  -14.8984 O   0  0  0  0  0  0  0  0  0  0  0  0
  1  2  1  0
  2  3  1  0
  3  5  1  0
  3  4  1  6
  5  6  1  1
  7  8  2  0
  7  5  1  0
  9 10  1  0
 10 12  1  0
 11 10  2  0
 12 13  1  0
 13 14  1  0
 14 15  1  0
 16 15  1  6
 16 17  1  0
 17  7  1  0
 18 16  1  0
 19 18  2  0
 21 20  1  6
 21 22  1  0
 23 21  1  0
 23 24  1  6
 24 18  1  0
 25 27  1  0
 25 23  1  0
 26 25  2  0
M  END
$$$$
