IRT.pdb
     RDKit          3D

 27 26  0  0  1  0  0  0  0  0999 V2000
   28.1886  -17.2889  -15.4892 C   0  0  0  0  0  0  0  0  0  0  0  0
   27.4919  -16.8102  -16.7795 C   0  0  0  0  0  0  0  0  0  0  0  0
   26.1368  -17.4090  -16.7601 C   0  0  2  0  0  0  0  0  0  0  0  0
   25.3082  -16.5957  -15.7564 C   0  0  0  0  0  0  0  0  0  0  0  0
   26.0221  -18.8660  -16.5304 C   0  0  2  0  0  0  0  0  0  0  0  0
   26.8712  -19.4930  -17.5804 N   0  0  0  0  0  0  0  0  0  0  0  0
   24.7164  -19.4889  -16.6378 C   0  0  0  0  0  0  0  0  0  0  0  0
   23.9079  -19.1122  -17.5660 O   0  0  0  0  0  0  0  0  0  0  0  0
   23.4401  -25.6512  -13.4628 N   0  0  0  0  0  0  0  0  0  0  0  0
   22.1313  -25.3472  -13.0279 C   0  0  0  0  0  0  0  0  0  0  0  0
   21.7293  -25.4957  -11.8140 N   0  0  0  0  0  0  0  0  0  0  0  0
   21.2091  -24.8446  -14.0098 N   0  0  0  0  0  0  0  0  0  0  0  0
   21.6328  -24.5996  -15.3768 C   0  0  0  0  0  0  0  0  0  0  0  0
   21.4835  -23.1267  -15.6557 C   0  0  0  0  0  0  0  0  0  0  0  0
   22.7999  -22.4654  -15.6339 C   0  0  0  0  0  0  0  0  0  0  0  0
   22.8186  -20.9860  -15.9195 C   0  0  2  0  0  0  0  0  0  0  0  0
   24.1726  -20.5224  -15.8157 N   0  0  0  0  0  0  0  0  0  0  0  0
   21.8432  -20.2988  -15.0555 C   0  0  0  0  0  0  0  0  0  0  0  0
   22.0846  -20.2466  -13.7982 O   0  0  0  0  0  0  0  0  0  0  0  0
   20.7188  -25.2878  -11.6025 C   0  0  0  0  0  0  0  0  0  0  0  0
   20.8741  -16.8579  -14.9408 C   0  0  2  0  0  0  0  0  0  0  0  0
   19.5489  -17.5859  -15.0285 O   0  0  0  0  0  0  0  0  0  0  0  0
   19.1752  -17.5950  -16.3663 C   0  0  2  0  0  0  0  0  0  0  0  0
   19.7534  -19.0019  -14.5017 N   0  0  0  0  0  0  0  0  0  0  0  0
   20.6445  -19.6760  -15.4606 C   0  0  0  0  0  0  0  0  0  0  0  0
   18.4907  -19.7200  -14.3394 O   0  0  0  0  0  0  0  0  0  0  0  0
   18.1669  -20.7402  -14.9998 O   0  0  0  0  0  0  0  0  0  0  0  0
  1  2  1  0
  2  3  1  0
  3  5  1  0
  3  4  1  1
  5  6  1  6
  7  8  2  0
  7  5  1  0
  9 10  1  0
 10 12  1  0
 11 10  2  0
 12 13  1  0
 13 14  1  0
 14 15  1  0
 16 15  1  1
 16 17  1  0
 17  7  1  0
 18 16  1  0
 19 18  2  0
 21 20  1  1
 21 22  1  0
 23 21  1  0
 23 24  1  1
 24 18  1  0
 25 27  1  0
 25 23  1  0
 26 25  2  0
M  END
$$$$
