IRT.pdb
     RDKit          3D

 27 26  0  0  1  0  0  0  0  0999 V2000
   28.7405  -18.0347  -18.1187 C   0  0  0  0  0  0  0  0  0  0  0  0
   28.9959  -19.0802  -17.0137 C   0  0  0  0  0  0  0  0  0  0  0  0
   27.6665  -19.4185  -16.4540 C   0  0  2  0  0  0  0  0  0  0  0  0
   27.0216  -18.0964  -16.0159 C   0  0  0  0  0  0  0  0  0  0  0  0
   27.5976  -20.4521  -15.3978 C   0  0  2  0  0  0  0  0  0  0  0  0
   28.0972  -21.6986  -16.0406 N   0  0  0  0  0  0  0  0  0  0  0  0
   26.3058  -20.7797  -14.8248 C   0  0  0  0  0  0  0  0  0  0  0  0
   25.4843  -21.5143  -15.4902 O   0  0  0  0  0  0  0  0  0  0  0  0
   23.1398  -21.1729   -6.5814 N   0  0  0  0  0  0  0  0  0  0  0  0
   21.9744  -21.3280   -7.3639 C   0  0  0  0  0  0  0  0  0  0  0  0
   20.7917  -21.4439   -6.8689 N   0  0  0  0  0  0  0  0  0  0  0  0
   22.1367  -21.3560   -8.7922 N   0  0  0  0  0  0  0  0  0  0  0  0
   23.4023  -20.9988   -9.4078 C   0  0  0  0  0  0  0  0  0  0  0  0
   23.2282  -21.0577  -10.9029 C   0  0  0  0  0  0  0  0  0  0  0  0
   24.4863  -20.6970  -11.5796 C   0  0  0  0  0  0  0  0  0  0  0  0
   24.4800  -20.7380  -13.0859 C   0  0  2  0  0  0  0  0  0  0  0  0
   25.7896  -20.3839  -13.5534 N   0  0  0  0  0  0  0  0  0  0  0  0
   23.3753  -19.9118  -13.6029 C   0  0  0  0  0  0  0  0  0  0  0  0
   23.4173  -18.6491  -13.3897 O   0  0  0  0  0  0  0  0  0  0  0  0
   19.9911  -21.5857   -7.5381 C   0  0  0  0  0  0  0  0  0  0  0  0
   21.9618  -19.3782  -17.0176 C   0  0  2  0  0  0  0  0  0  0  0  0
   20.7943  -19.7833  -16.1421 O   0  0  0  0  0  0  0  0  0  0  0  0
   20.6084  -21.1490  -16.3146 C   0  0  2  0  0  0  0  0  0  0  0  0
   21.1513  -19.4518  -14.6974 N   0  0  0  0  0  0  0  0  0  0  0  0
   22.2486  -20.3595  -14.3231 C   0  0  0  0  0  0  0  0  0  0  0  0
   20.0065  -19.5875  -13.7990 O   0  0  0  0  0  0  0  0  0  0  0  0
   19.9077  -20.4682  -12.9066 O   0  0  0  0  0  0  0  0  0  0  0  0
  1  2  1  0
  2  3  1  0
  3  5  1  0
  3  4  1  1
  5  6  1  6
  7  8  2  0
  7  5  1  0
  9 10  1  0
 10 12  1  0
 11 10  2  0
 12 13  1  0
 13 14  1  0
 14 15  1  0
 16 15  1  1
 16 17  1  0
 17  7  1  0
 18 16  1  0
 19 18  2  0
 21 20  1  6
 21 22  1  0
 23 21  1  0
 23 24  1  1
 24 18  1  0
 25 27  1  0
 25 23  1  0
 26 25  2  0
M  END
$$$$
