IRT.pdb
     RDKit          3D

 27 26  0  0  1  0  0  0  0  0999 V2000
   17.8912  -21.3401  -16.6790 C   0  0  0  0  0  0  0  0  0  0  0  0
   18.7443  -21.8014  -15.4796 C   0  0  0  0  0  0  0  0  0  0  0  0
   20.0255  -21.0642  -15.5800 C   0  0  2  0  0  0  0  0  0  0  0  0
   20.5921  -21.3501  -16.9774 C   0  0  0  0  0  0  0  0  0  0  0  0
   21.0321  -21.2682  -14.5152 C   0  0  2  0  0  0  0  0  0  0  0  0
   20.3892  -20.7639  -13.2707 N   0  0  0  0  0  0  0  0  0  0  0  0
   22.3074  -20.5847  -14.6198 C   0  0  0  0  0  0  0  0  0  0  0  0
   22.3375  -19.2980  -14.6460 O   0  0  0  0  0  0  0  0  0  0  0  0
   26.5959  -20.0021   -9.9223 N   0  0  0  0  0  0  0  0  0  0  0  0
   25.5483  -20.8455   -9.4914 C   0  0  0  0  0  0  0  0  0  0  0  0
   24.9084  -20.6825   -8.3862 N   0  0  0  0  0  0  0  0  0  0  0  0
   25.1895  -21.9432  -10.3478 N   0  0  0  0  0  0  0  0  0  0  0  0
   25.7012  -22.0316  -11.7038 C   0  0  0  0  0  0  0  0  0  0  0  0
   25.3297  -20.7637  -12.4274 C   0  0  0  0  0  0  0  0  0  0  0  0
   25.7986  -20.8144  -13.8232 C   0  0  0  0  0  0  0  0  0  0  0  0
   24.8089  -20.4086  -14.8845 C   0  0  2  0  0  0  0  0  0  0  0  0
   23.6075  -21.1706  -14.6975 N   0  0  0  0  0  0  0  0  0  0  0  0
   25.4312  -20.5188  -16.2152 C   0  0  0  0  0  0  0  0  0  0  0  0
   25.6725  -21.6915  -16.6716 O   0  0  0  0  0  0  0  0  0  0  0  0
   24.1456  -21.3705   -8.1545 C   0  0  0  0  0  0  0  0  0  0  0  0
   24.2741  -19.9177  -19.4881 C   0  0  2  0  0  0  0  0  0  0  0  0
   25.5344  -19.0805  -19.4211 O   0  0  0  0  0  0  0  0  0  0  0  0
   25.1514  -17.7925  -19.0692 C   0  0  2  0  0  0  0  0  0  0  0  0
   26.4511  -19.6922  -18.3675 N   0  0  0  0  0  0  0  0  0  0  0  0
   25.8018  -19.4577  -17.0670 C   0  0  0  0  0  0  0  0  0  0  0  0
   27.7981  -19.1264  -18.4097 O   0  0  0  0  0  0  0  0  0  0  0  0
   28.2872  -18.3959  -17.5104 O   0  0  0  0  0  0  0  0  0  0  0  0
  1  2  1  0
  2  3  1  0
  3  5  1  0
  3  4  1  6
  5  6  1  1
  7  8  2  0
  7  5  1  0
  9 10  1  0
 10 12  1  0
 11 10  2  0
 12 13  1  0
 13 14  1  0
 14 15  1  0
 16 15  1  1
 16 17  1  0
 17  7  1  0
 18 16  1  0
 19 18  2  0
 21 20  1  6
 21 22  1  0
 23 21  1  0
 23 24  1  6
 24 18  1  0
 25 27  1  0
 25 23  1  0
 26 25  2  0
M  END
$$$$
