IRT.pdb
     RDKit          3D

 27 26  0  0  1  0  0  0  0  0999 V2000
   22.5752   -9.8805    7.5411 C   0  0  0  0  0  0  0  0  0  0  0  0
   21.2480  -10.1162    6.7913 C   0  0  0  0  0  0  0  0  0  0  0  0
   20.7380  -11.4252    7.2620 C   0  0  2  0  0  0  0  0  0  0  0  0
   21.9172  -12.4059    7.2047 C   0  0  0  0  0  0  0  0  0  0  0  0
   19.5232  -11.9720    6.6186 C   0  0  2  0  0  0  0  0  0  0  0  0
   18.4576  -10.9662    6.8820 N   0  0  0  0  0  0  0  0  0  0  0  0
   19.0027  -13.2456    7.0784 C   0  0  0  0  0  0  0  0  0  0  0  0
   18.5617  -13.3534    8.2830 O   0  0  0  0  0  0  0  0  0  0  0  0
   15.1512  -19.7027    2.9744 N   0  0  0  0  0  0  0  0  0  0  0  0
   16.5513  -19.7604    3.1503 C   0  0  0  0  0  0  0  0  0  0  0  0
   17.3429  -20.4121    2.3718 N   0  0  0  0  0  0  0  0  0  0  0  0
   17.1067  -19.0452    4.2670 N   0  0  0  0  0  0  0  0  0  0  0  0
   16.2512  -18.3286    5.1959 C   0  0  0  0  0  0  0  0  0  0  0  0
   17.1193  -17.7601    6.2879 C   0  0  0  0  0  0  0  0  0  0  0  0
   17.6431  -16.4413    5.8915 C   0  0  0  0  0  0  0  0  0  0  0  0
   18.4655  -15.7041    6.9166 C   0  0  2  0  0  0  0  0  0  0  0  0
   18.9006  -14.4640    6.3404 N   0  0  0  0  0  0  0  0  0  0  0  0
   19.5363  -16.5810    7.4215 C   0  0  0  0  0  0  0  0  0  0  0  0
   20.5286  -16.8254    6.6487 O   0  0  0  0  0  0  0  0  0  0  0  0
   18.3737  -20.3850    2.5854 C   0  0  0  0  0  0  0  0  0  0  0  0
   22.3940  -18.2591   10.9223 C   0  0  2  0  0  0  0  0  0  0  0  0
   21.1884  -17.4650   10.4643 O   0  0  0  0  0  0  0  0  0  0  0  0
   21.5838  -16.1364   10.3752 C   0  0  1  0  0  0  0  0  0  0  0  0
   20.7564  -18.0058    9.1058 N   0  0  0  0  0  0  0  0  0  0  0  0
   19.5981  -17.1984    8.6879 C   0  0  0  0  0  0  0  0  0  0  0  0
   20.4337  -19.4305    9.1542 O   0  0  0  0  0  0  0  0  0  0  0  0
   19.3337  -19.8939    9.5504 O   0  0  0  0  0  0  0  0  0  0  0  0
  1  2  1  0
  2  3  1  0
  3  5  1  0
  3  4  1  6
  5  6  1  1
  7  8  2  0
  7  5  1  0
  9 10  1  0
 10 12  1  0
 11 10  2  0
 12 13  1  0
 13 14  1  0
 14 15  1  0
 16 15  1  6
 16 17  1  0
 17  7  1  0
 18 16  1  0
 19 18  2  0
 21 20  1  1
 21 22  1  0
 23 21  1  0
 23 24  1  1
 24 18  1  0
 25 27  1  0
 25 23  1  0
 26 25  2  0
M  END
$$$$
