IRT.pdb
     RDKit          3D

 27 26  0  0  1  0  0  0  0  0999 V2000
   26.5132  -11.4668  -22.1841 C   0  0  0  0  0  0  0  0  0  0  0  0
   25.8225  -12.1886  -21.0088 C   0  0  0  0  0  0  0  0  0  0  0  0
   24.7014  -11.3142  -20.5923 C   0  0  2  0  0  0  0  0  0  0  0  0
   25.3120   -9.9523  -20.2346 C   0  0  0  0  0  0  0  0  0  0  0  0
   23.7841  -11.8096  -19.5427 C   0  0  2  0  0  0  0  0  0  0  0  0
   23.2181  -13.0747  -20.0865 N   0  0  0  0  0  0  0  0  0  0  0  0
   22.6508  -10.9882  -19.1613 C   0  0  0  0  0  0  0  0  0  0  0  0
   21.7277  -10.7405  -20.0237 O   0  0  0  0  0  0  0  0  0  0  0  0
   16.1547  -11.7847  -13.9403 N   0  0  0  0  0  0  0  0  0  0  0  0
   15.8345  -10.5965  -14.6331 C   0  0  0  0  0  0  0  0  0  0  0  0
   14.6558  -10.0793  -14.6578 N   0  0  0  0  0  0  0  0  0  0  0  0
   16.8971   -9.9406  -15.3457 N   0  0  0  0  0  0  0  0  0  0  0  0
   18.0873  -10.6681  -15.7486 C   0  0  0  0  0  0  0  0  0  0  0  0
   18.9855   -9.7178  -16.4966 C   0  0  0  0  0  0  0  0  0  0  0  0
   20.2251  -10.4004  -16.9067 C   0  0  0  0  0  0  0  0  0  0  0  0
   21.2547   -9.5624  -17.6196 C   0  0  2  0  0  0  0  0  0  0  0  0
   22.3982  -10.3855  -17.8914 N   0  0  0  0  0  0  0  0  0  0  0  0
   21.5225   -8.3370  -16.8470 C   0  0  0  0  0  0  0  0  0  0  0  0
   22.2974   -8.4237  -15.8303 O   0  0  0  0  0  0  0  0  0  0  0  0
   14.5253   -9.1799  -15.1896 C   0  0  0  0  0  0  0  0  0  0  0  0
   21.1154   -3.4437  -16.1330 C   0  0  1  0  0  0  0  0  0  0  0  0
   20.7701   -4.6645  -16.9603 O   0  0  0  0  0  0  0  0  0  0  0  0
   21.2916   -4.4581  -18.2311 C   0  0  1  0  0  0  0  0  0  0  0  0
   21.4034   -5.8804  -16.2932 N   0  0  0  0  0  0  0  0  0  0  0  0
   21.0126   -7.0471  -17.1019 C   0  0  0  0  0  0  0  0  0  0  0  0
   20.9895   -6.0253  -14.8989 O   0  0  0  0  0  0  0  0  0  0  0  0
   19.9127   -6.5618  -14.5326 O   0  0  0  0  0  0  0  0  0  0  0  0
  1  2  1  0
  2  3  1  0
  3  5  1  0
  3  4  1  1
  5  6  1  6
  7  8  2  0
  7  5  1  0
  9 10  1  0
 10 12  1  0
 11 10  2  0
 12 13  1  0
 13 14  1  0
 14 15  1  0
 16 15  1  1
 16 17  1  0
 17  7  1  0
 18 16  1  0
 19 18  2  0
 21 20  1  6
 21 22  1  0
 23 21  1  0
 23 24  1  6
 24 18  1  0
 25 27  1  0
 25 23  1  0
 26 25  2  0
M  END
$$$$
