IRT.pdb
     RDKit          3D

 27 26  0  0  1  0  0  0  0  0999 V2000
   28.2037  -25.4193  -20.3256 C   0  0  0  0  0  0  0  0  0  0  0  0
   28.8590  -24.4930  -19.2808 C   0  0  0  0  0  0  0  0  0  0  0  0
   27.7749  -24.0851  -18.3570 C   0  0  2  0  0  0  0  0  0  0  0  0
   27.2967  -22.7020  -18.8195 C   0  0  0  0  0  0  0  0  0  0  0  0
   28.0457  -24.1267  -16.9032 C   0  0  2  0  0  0  0  0  0  0  0  0
   28.1728  -25.5728  -16.5727 N   0  0  0  0  0  0  0  0  0  0  0  0
   27.0537  -23.5872  -15.9925 C   0  0  0  0  0  0  0  0  0  0  0  0
   25.9090  -24.1662  -15.8855 O   0  0  0  0  0  0  0  0  0  0  0  0
   25.2068  -21.1688   -8.4025 N   0  0  0  0  0  0  0  0  0  0  0  0
   24.1889  -20.5398   -9.1528 C   0  0  0  0  0  0  0  0  0  0  0  0
   23.0111  -20.2950   -8.6944 N   0  0  0  0  0  0  0  0  0  0  0  0
   24.5035  -20.1582  -10.5028 N   0  0  0  0  0  0  0  0  0  0  0  0
   25.5567  -20.8297  -11.2432 C   0  0  0  0  0  0  0  0  0  0  0  0
   25.6912  -20.1531  -12.5824 C   0  0  0  0  0  0  0  0  0  0  0  0
   26.6614  -20.8737  -13.4251 C   0  0  0  0  0  0  0  0  0  0  0  0
   26.1082  -21.9458  -14.3280 C   0  0  2  0  0  0  0  0  0  0  0  0
   27.1765  -22.4427  -15.1471 N   0  0  0  0  0  0  0  0  0  0  0  0
   24.9363  -21.4291  -15.0560 C   0  0  0  0  0  0  0  0  0  0  0  0
   25.1210  -20.4832  -15.9002 O   0  0  0  0  0  0  0  0  0  0  0  0
   22.3078  -19.8673   -9.3512 C   0  0  0  0  0  0  0  0  0  0  0  0
   21.3027  -23.3512  -15.5028 C   0  0  2  0  0  0  0  0  0  0  0  0
   21.8037  -22.2899  -16.4601 O   0  0  0  0  0  0  0  0  0  0  0  0
   20.6954  -21.7872  -17.1297 C   0  0  1  0  0  0  0  0  0  0  0  0
   22.4944  -21.2049  -15.6413 N   0  0  0  0  0  0  0  0  0  0  0  0
   23.6011  -21.8650  -14.9289 C   0  0  0  0  0  0  0  0  0  0  0  0
   21.5770  -20.5396  -14.7182 O   0  0  0  0  0  0  0  0  0  0  0  0
   21.6861  -20.5724  -13.4657 O   0  0  0  0  0  0  0  0  0  0  0  0
  1  2  1  0
  2  3  1  0
  3  5  1  0
  3  4  1  6
  5  6  1  1
  7  8  2  0
  7  5  1  0
  9 10  1  0
 10 12  1  0
 11 10  2  0
 12 13  1  0
 13 14  1  0
 14 15  1  0
 16 15  1  6
 16 17  1  0
 17  7  1  0
 18 16  1  0
 19 18  2  0
 21 20  1  6
 21 22  1  0
 23 21  1  0
 23 24  1  6
 24 18  1  0
 25 27  1  0
 25 23  1  0
 26 25  2  0
M  END
$$$$
