IRT.pdb
     RDKit          3D

 27 26  0  0  1  0  0  0  0  0999 V2000
   28.3342  -19.9692   -6.7133 C   0  0  0  0  0  0  0  0  0  0  0  0
   28.6066  -20.9830   -7.8436 C   0  0  0  0  0  0  0  0  0  0  0  0
   27.7098  -20.6032   -8.9600 C   0  0  2  0  0  0  0  0  0  0  0  0
   26.2807  -20.6065   -8.4003 C   0  0  0  0  0  0  0  0  0  0  0  0
   27.8165  -21.3589  -10.2274 C   0  0  2  0  0  0  0  0  0  0  0  0
   29.2683  -21.3620  -10.5571 N   0  0  0  0  0  0  0  0  0  0  0  0
   27.1338  -20.8514  -11.4025 C   0  0  0  0  0  0  0  0  0  0  0  0
   27.4204  -19.6771  -11.8453 O   0  0  0  0  0  0  0  0  0  0  0  0
   29.4157  -23.5778  -16.5715 N   0  0  0  0  0  0  0  0  0  0  0  0
   28.0191  -23.7830  -16.6144 C   0  0  0  0  0  0  0  0  0  0  0  0
   27.4709  -24.9383  -16.7637 N   0  0  0  0  0  0  0  0  0  0  0  0
   27.1770  -22.6252  -16.4825 N   0  0  0  0  0  0  0  0  0  0  0  0
   27.7426  -21.3178  -16.2012 C   0  0  0  0  0  0  0  0  0  0  0  0
   27.3547  -20.9326  -14.7975 C   0  0  0  0  0  0  0  0  0  0  0  0
   25.9401  -21.2609  -14.5488 C   0  0  0  0  0  0  0  0  0  0  0  0
   25.3767  -20.8556  -13.2113 C   0  0  2  0  0  0  0  0  0  0  0  0
   26.1358  -21.5094  -12.1840 N   0  0  0  0  0  0  0  0  0  0  0  0
   23.9249  -21.1046  -13.1852 C   0  0  0  0  0  0  0  0  0  0  0  0
   23.4781  -21.9737  -12.3566 O   0  0  0  0  0  0  0  0  0  0  0  0
   26.4190  -24.9847  -16.7762 C   0  0  0  0  0  0  0  0  0  0  0  0
   22.1475  -21.0539  -11.4251 C   0  0  2  0  0  0  0  0  0  0  0  0
   21.2126  -20.2877  -12.3378 O   0  0  0  0  0  0  0  0  0  0  0  0
   21.4710  -18.9364  -12.1466 C   0  0  2  0  0  0  0  0  0  0  0  0
   21.5056  -20.7091  -13.7735 N   0  0  0  0  0  0  0  0  0  0  0  0
   22.9449  -20.4827  -13.9862 C   0  0  0  0  0  0  0  0  0  0  0  0
   20.6935  -19.9757  -14.7424 O   0  0  0  0  0  0  0  0  0  0  0  0
   21.1497  -19.1244  -15.5479 O   0  0  0  0  0  0  0  0  0  0  0  0
  1  2  1  0
  2  3  1  0
  3  5  1  0
  3  4  1  1
  5  6  1  6
  7  8  2  0
  7  5  1  0
  9 10  1  0
 10 12  1  0
 11 10  2  0
 12 13  1  0
 13 14  1  0
 14 15  1  0
 16 15  1  6
 16 17  1  0
 17  7  1  0
 18 16  1  0
 19 18  2  0
 21 20  1  1
 21 22  1  0
 23 21  1  0
 23 24  1  6
 24 18  1  0
 25 27  1  0
 25 23  1  0
 26 25  2  0
M  END
$$$$
