IRT.pdb
     RDKit          3D

 27 26  0  0  1  0  0  0  0  0999 V2000
   27.5651  -17.1225  -19.1655 C   0  0  0  0  0  0  0  0  0  0  0  0
   28.3935  -18.0358  -18.2387 C   0  0  0  0  0  0  0  0  0  0  0  0
   27.4304  -18.6343  -17.2852 C   0  0  2  0  0  0  0  0  0  0  0  0
   26.6496  -17.4719  -16.6570 C   0  0  0  0  0  0  0  0  0  0  0  0
   27.9500  -19.5744  -16.2678 C   0  0  2  0  0  0  0  0  0  0  0  0
   28.5966  -20.6683  -17.0436 N   0  0  0  0  0  0  0  0  0  0  0  0
   27.0120  -20.2153  -15.3657 C   0  0  0  0  0  0  0  0  0  0  0  0
   26.2251  -21.1304  -15.8136 O   0  0  0  0  0  0  0  0  0  0  0  0
   22.8432  -20.0108   -9.1595 N   0  0  0  0  0  0  0  0  0  0  0  0
   23.3571  -21.0214   -8.3174 C   0  0  0  0  0  0  0  0  0  0  0  0
   22.6434  -21.6756   -7.4688 N   0  0  0  0  0  0  0  0  0  0  0  0
   24.7584  -21.3234   -8.4275 N   0  0  0  0  0  0  0  0  0  0  0  0
   25.6105  -20.5927   -9.3484 C   0  0  0  0  0  0  0  0  0  0  0  0
   25.1733  -20.9224  -10.7518 C   0  0  0  0  0  0  0  0  0  0  0  0
   26.0946  -20.3187  -11.7303 C   0  0  0  0  0  0  0  0  0  0  0  0
   25.7953  -20.5700  -13.1856 C   0  0  2  0  0  0  0  0  0  0  0  0
   26.8313  -19.9633  -13.9716 N   0  0  0  0  0  0  0  0  0  0  0  0
   24.4232  -20.1324  -13.4955 C   0  0  0  0  0  0  0  0  0  0  0  0
   24.1221  -18.9042  -13.2895 O   0  0  0  0  0  0  0  0  0  0  0  0
   23.1147  -22.4370   -6.9147 C   0  0  0  0  0  0  0  0  0  0  0  0
   22.6016  -19.6511  -16.4364 C   0  0  2  0  0  0  0  0  0  0  0  0
   21.6713  -20.5520  -15.6511 O   0  0  0  0  0  0  0  0  0  0  0  0
   21.8919  -21.8509  -16.0911 C   0  0  2  0  0  0  0  0  0  0  0  0
   22.0098  -20.4042  -14.1718 N   0  0  0  0  0  0  0  0  0  0  0  0
   23.3759  -20.9276  -14.0052 C   0  0  0  0  0  0  0  0  0  0  0  0
   21.0546  -21.1014  -13.3129 O   0  0  0  0  0  0  0  0  0  0  0  0
   21.3398  -22.0979  -12.6006 O   0  0  0  0  0  0  0  0  0  0  0  0
  1  2  1  0
  2  3  1  0
  3  5  1  0
  3  4  1  1
  5  6  1  6
  7  8  2  0
  7  5  1  0
  9 10  1  0
 10 12  1  0
 11 10  2  0
 12 13  1  0
 13 14  1  0
 14 15  1  0
 16 15  1  1
 16 17  1  0
 17  7  1  0
 18 16  1  0
 19 18  2  0
 21 20  1  6
 21 22  1  0
 23 21  1  0
 23 24  1  1
 24 18  1  0
 25 27  1  0
 25 23  1  0
 26 25  2  0
M  END
$$$$
