IRT.pdb
     RDKit          3D

 27 26  0  0  1  0  0  0  0  0999 V2000
   22.1990   -5.7815  -20.5515 C   0  0  0  0  0  0  0  0  0  0  0  0
   21.8564   -7.1885  -21.0830 C   0  0  0  0  0  0  0  0  0  0  0  0
   22.8274   -8.1128  -20.4523 C   0  0  2  0  0  0  0  0  0  0  0  0
   24.2266   -7.5642  -20.7636 C   0  0  0  0  0  0  0  0  0  0  0  0
   22.7122   -9.5565  -20.7540 C   0  0  2  0  0  0  0  0  0  0  0  0
   21.3321   -9.9312  -20.3398 N   0  0  0  0  0  0  0  0  0  0  0  0
   23.6038  -10.4833  -20.0828 C   0  0  0  0  0  0  0  0  0  0  0  0
   24.8746  -10.3850  -20.2635 O   0  0  0  0  0  0  0  0  0  0  0  0
   20.8680  -15.3951  -14.8112 N   0  0  0  0  0  0  0  0  0  0  0  0
   21.4195  -16.1680  -15.8567 C   0  0  0  0  0  0  0  0  0  0  0  0
   20.7772  -17.0980  -16.4731 N   0  0  0  0  0  0  0  0  0  0  0  0
   22.7760  -15.8867  -16.2412 N   0  0  0  0  0  0  0  0  0  0  0  0
   23.5123  -14.7909  -15.6369 C   0  0  0  0  0  0  0  0  0  0  0  0
   24.3367  -14.1322  -16.7120 C   0  0  0  0  0  0  0  0  0  0  0  0
   23.5198  -13.1618  -17.4614 C   0  0  0  0  0  0  0  0  0  0  0  0
   24.2147  -12.3966  -18.5579 C   0  0  2  0  0  0  0  0  0  0  0  0
   23.2512  -11.5462  -19.1964 N   0  0  0  0  0  0  0  0  0  0  0  0
   24.9246  -13.3326  -19.4468 C   0  0  0  0  0  0  0  0  0  0  0  0
   24.2237  -14.1110  -20.1846 O   0  0  0  0  0  0  0  0  0  0  0  0
   21.2894  -17.6373  -17.2186 C   0  0  0  0  0  0  0  0  0  0  0  0
   27.3505  -12.7078  -22.1307 C   0  0  2  0  0  0  0  0  0  0  0  0
   28.0106  -13.7592  -21.2631 O   0  0  0  0  0  0  0  0  0  0  0  0
   28.8857  -13.0965  -20.4120 C   0  0  2  0  0  0  0  0  0  0  0  0
   26.9174  -14.4791  -20.4813 N   0  0  0  0  0  0  0  0  0  0  0  0
   26.3209  -13.4757  -19.5837 C   0  0  0  0  0  0  0  0  0  0  0  0
   27.4322  -15.6294  -19.7409 O   0  0  0  0  0  0  0  0  0  0  0  0
   27.4712  -15.7034  -18.4860 O   0  0  0  0  0  0  0  0  0  0  0  0
  1  2  1  0
  2  3  1  0
  3  5  1  0
  3  4  1  6
  5  6  1  1
  7  8  2  0
  7  5  1  0
  9 10  1  0
 10 12  1  0
 11 10  2  0
 12 13  1  0
 13 14  1  0
 14 15  1  0
 16 15  1  1
 16 17  1  0
 17  7  1  0
 18 16  1  0
 19 18  2  0
 21 20  1  6
 21 22  1  0
 23 21  1  0
 23 24  1  6
 24 18  1  0
 25 27  1  0
 25 23  1  0
 26 25  2  0
M  END
$$$$
