IRT.pdb
     RDKit          3D

 27 26  0  0  1  0  0  0  0  0999 V2000
   25.0088  -12.5082  -15.7120 C   0  0  0  0  0  0  0  0  0  0  0  0
   23.4820  -12.7226  -15.6639 C   0  0  0  0  0  0  0  0  0  0  0  0
   22.8742  -11.3822  -15.8344 C   0  0  2  0  0  0  0  0  0  0  0  0
   23.4281  -10.4988  -14.7082 C   0  0  0  0  0  0  0  0  0  0  0  0
   21.4014  -11.2936  -15.9426 C   0  0  2  0  0  0  0  0  0  0  0  0
   21.0437  -12.1611  -17.0985 N   0  0  0  0  0  0  0  0  0  0  0  0
   20.7970  -10.0007  -16.2023 C   0  0  0  0  0  0  0  0  0  0  0  0
   20.8882   -9.4818  -17.3769 O   0  0  0  0  0  0  0  0  0  0  0  0
   13.0097   -8.8861  -15.6092 N   0  0  0  0  0  0  0  0  0  0  0  0
   13.6340   -9.5973  -16.6575 C   0  0  0  0  0  0  0  0  0  0  0  0
   12.9972  -10.3340  -17.4995 N   0  0  0  0  0  0  0  0  0  0  0  0
   15.0621   -9.4804  -16.7759 N   0  0  0  0  0  0  0  0  0  0  0  0
   15.8203   -8.6337  -15.8723 C   0  0  0  0  0  0  0  0  0  0  0  0
   17.2689   -8.6924  -16.2814 C   0  0  0  0  0  0  0  0  0  0  0  0
   18.0877   -7.8544  -15.3880 C   0  0  0  0  0  0  0  0  0  0  0  0
   19.5765   -7.8722  -15.6202 C   0  0  2  0  0  0  0  0  0  0  0  0
   20.0702   -9.1781  -15.2886 N   0  0  0  0  0  0  0  0  0  0  0  0
   20.2071   -6.7523  -14.9002 C   0  0  0  0  0  0  0  0  0  0  0  0
   20.3432   -6.8535  -13.6302 O   0  0  0  0  0  0  0  0  0  0  0  0
   13.5546  -10.8087  -18.2564 C   0  0  0  0  0  0  0  0  0  0  0  0
   22.7341   -4.0725  -16.6736 C   0  0  2  0  0  0  0  0  0  0  0  0
   22.8288   -4.4900  -15.2208 O   0  0  0  0  0  0  0  0  0  0  0  0
   23.5903   -3.5290  -14.5681 C   0  0  1  0  0  0  0  0  0  0  0  0
   21.4142   -4.5526  -14.6554 N   0  0  0  0  0  0  0  0  0  0  0  0
   20.6905   -5.5514  -15.4596 C   0  0  0  0  0  0  0  0  0  0  0  0
   20.7492   -3.2513  -14.6823 O   0  0  0  0  0  0  0  0  0  0  0  0
   19.7384   -2.9876  -15.3826 O   0  0  0  0  0  0  0  0  0  0  0  0
  1  2  1  0
  2  3  1  0
  3  5  1  0
  3  4  1  1
  5  6  1  6
  7  8  2  0
  7  5  1  0
  9 10  1  0
 10 12  1  0
 11 10  2  0
 12 13  1  0
 13 14  1  0
 14 15  1  0
 16 15  1  1
 16 17  1  0
 17  7  1  0
 18 16  1  0
 19 18  2  0
 21 20  1  6
 21 22  1  0
 23 21  1  0
 23 24  1  6
 24 18  1  0
 25 27  1  0
 25 23  1  0
 26 25  2  0
M  END
$$$$
