IRT.pdb
     RDKit          3D

 27 26  0  0  1  0  0  0  0  0999 V2000
   24.6782  -14.7632  -18.3694 C   0  0  0  0  0  0  0  0  0  0  0  0
   25.2119  -13.6684  -17.4229 C   0  0  0  0  0  0  0  0  0  0  0  0
   24.2237  -12.5656  -17.4731 C   0  0  2  0  0  0  0  0  0  0  0  0
   24.0057  -12.2342  -18.9558 C   0  0  0  0  0  0  0  0  0  0  0  0
   24.4869  -11.3567  -16.6620 C   0  0  2  0  0  0  0  0  0  0  0  0
   24.6197  -11.8486  -15.2631 N   0  0  0  0  0  0  0  0  0  0  0  0
   23.4871  -10.3060  -16.6302 C   0  0  0  0  0  0  0  0  0  0  0  0
   23.3388   -9.5399  -17.6541 O   0  0  0  0  0  0  0  0  0  0  0  0
   15.6065  -10.5333  -13.6745 N   0  0  0  0  0  0  0  0  0  0  0  0
   16.1242  -10.6995  -14.9779 C   0  0  0  0  0  0  0  0  0  0  0  0
   15.5941  -11.4677  -15.8646 N   0  0  0  0  0  0  0  0  0  0  0  0
   17.3108   -9.9615  -15.3163 N   0  0  0  0  0  0  0  0  0  0  0  0
   18.0038   -9.1631  -14.3211 C   0  0  0  0  0  0  0  0  0  0  0  0
   19.1927   -8.5181  -14.9841 C   0  0  0  0  0  0  0  0  0  0  0  0
   20.3351   -9.4483  -15.0040 C   0  0  0  0  0  0  0  0  0  0  0  0
   21.6032   -8.9487  -15.6467 C   0  0  2  0  0  0  0  0  0  0  0  0
   22.5907   -9.9866  -15.5653 N   0  0  0  0  0  0  0  0  0  0  0  0
   21.9881   -7.6568  -15.0525 C   0  0  0  0  0  0  0  0  0  0  0  0
   22.5829   -7.6695  -13.9178 O   0  0  0  0  0  0  0  0  0  0  0  0
   16.0546  -11.5165  -16.8104 C   0  0  0  0  0  0  0  0  0  0  0  0
   22.9691   -2.8438  -15.4465 C   0  0  2  0  0  0  0  0  0  0  0  0
   22.5245   -4.1473  -16.0766 O   0  0  0  0  0  0  0  0  0  0  0  0
   23.5456   -4.5619  -16.9221 C   0  0  1  0  0  0  0  0  0  0  0  0
   22.2893   -5.1556  -14.9574 N   0  0  0  0  0  0  0  0  0  0  0  0
   21.7728   -6.3753  -15.6005 C   0  0  0  0  0  0  0  0  0  0  0  0
   21.3699   -4.6493  -13.9403 O   0  0  0  0  0  0  0  0  0  0  0  0
   21.7252   -3.9874  -12.9317 O   0  0  0  0  0  0  0  0  0  0  0  0
  1  2  1  0
  2  3  1  0
  3  5  1  0
  3  4  1  6
  5  6  1  1
  7  8  2  0
  7  5  1  0
  9 10  1  0
 10 12  1  0
 11 10  2  0
 12 13  1  0
 13 14  1  0
 14 15  1  0
 16 15  1  1
 16 17  1  0
 17  7  1  0
 18 16  1  0
 19 18  2  0
 21 20  1  6
 21 22  1  0
 23 21  1  0
 23 24  1  6
 24 18  1  0
 25 27  1  0
 25 23  1  0
 26 25  2  0
M  END
$$$$
