IRT.pdb
     RDKit          3D

 27 26  0  0  1  0  0  0  0  0999 V2000
   29.4988  -15.5375  -18.2133 C   0  0  0  0  0  0  0  0  0  0  0  0
   28.4038  -15.2372  -17.1692 C   0  0  0  0  0  0  0  0  0  0  0  0
   27.4128  -16.3321  -17.2879 C   0  0  2  0  0  0  0  0  0  0  0  0
   26.9827  -16.3818  -18.7604 C   0  0  0  0  0  0  0  0  0  0  0  0
   26.2554  -16.3273  -16.3664 C   0  0  2  0  0  0  0  0  0  0  0  0
   26.8438  -16.2095  -15.0039 N   0  0  0  0  0  0  0  0  0  0  0  0
   25.3839  -17.4866  -16.3341 C   0  0  0  0  0  0  0  0  0  0  0  0
   24.5875  -17.7096  -17.3206 O   0  0  0  0  0  0  0  0  0  0  0  0
   23.8969  -20.8926  -10.1415 N   0  0  0  0  0  0  0  0  0  0  0  0
   25.2793  -20.7266   -9.9051 C   0  0  0  0  0  0  0  0  0  0  0  0
   25.7716  -20.3581   -8.7740 N   0  0  0  0  0  0  0  0  0  0  0  0
   26.1728  -20.9881  -11.0008 N   0  0  0  0  0  0  0  0  0  0  0  0
   25.6724  -21.4773  -12.2729 C   0  0  0  0  0  0  0  0  0  0  0  0
   25.1780  -20.2962  -13.0665 C   0  0  0  0  0  0  0  0  0  0  0  0
   24.9471  -20.6822  -14.4695 C   0  0  0  0  0  0  0  0  0  0  0  0
   24.4132  -19.6122  -15.3864 C   0  0  2  0  0  0  0  0  0  0  0  0
   25.2824  -18.4733  -15.3066 N   0  0  0  0  0  0  0  0  0  0  0  0
   22.9959  -19.3533  -15.0787 C   0  0  0  0  0  0  0  0  0  0  0  0
   22.7252  -18.5028  -14.1594 O   0  0  0  0  0  0  0  0  0  0  0  0
   26.8081  -20.1790   -8.7247 C   0  0  0  0  0  0  0  0  0  0  0  0
   18.2279  -19.4028  -16.2783 C   0  0  2  0  0  0  0  0  0  0  0  0
   19.6638  -19.7553  -16.6063 O   0  0  0  0  0  0  0  0  0  0  0  0
   20.0737  -18.8990  -17.6202 C   0  0  1  0  0  0  0  0  0  0  0  0
   20.4973  -19.5581  -15.3450 N   0  0  0  0  0  0  0  0  0  0  0  0
   21.8741  -19.9471  -15.6932 C   0  0  0  0  0  0  0  0  0  0  0  0
   19.9853  -20.3327  -14.2162 O   0  0  0  0  0  0  0  0  0  0  0  0
   20.3457  -21.5058  -13.9415 O   0  0  0  0  0  0  0  0  0  0  0  0
  1  2  1  0
  2  3  1  0
  3  5  1  0
  3  4  1  6
  5  6  1  1
  7  8  2  0
  7  5  1  0
  9 10  1  0
 10 12  1  0
 11 10  2  0
 12 13  1  0
 13 14  1  0
 14 15  1  0
 16 15  1  1
 16 17  1  0
 17  7  1  0
 18 16  1  0
 19 18  2  0
 21 20  1  6
 21 22  1  0
 23 21  1  0
 23 24  1  6
 24 18  1  0
 25 27  1  0
 25 23  1  0
 26 25  2  0
M  END
$$$$
