HSV.pdb
     RDKit          3D

 24 24  0  0  1  0  0  0  0  0999 V2000
   23.8843  -21.1250   -9.6839 N   0  0  0  0  0  0  0  0  0  0  0  0
   23.8219  -21.0387  -11.1124 C   0  0  1  0  0  0  0  0  0  0  0  0
   22.5472  -20.3797  -11.5926 C   0  0  0  0  0  0  0  0  0  0  0  0
   21.3643  -21.2352  -11.3113 C   0  0  0  0  0  0  0  0  0  0  0  0
   21.0800  -22.3822  -12.0147 C   0  0  0  0  0  0  0  0  0  0  0  0
   19.9470  -22.9227  -11.5173 N   0  0  0  0  0  0  0  0  0  0  0  0
   19.5353  -22.1261  -10.5233 C   0  0  0  0  0  0  0  0  0  0  0  0
   20.4071  -21.0987  -10.4053 N   0  0  0  0  0  0  0  0  0  0  0  0
   25.0269  -20.3562  -11.6504 C   0  0  0  0  0  0  0  0  0  0  0  0
   25.5061  -19.3985  -11.0038 O   0  0  0  0  0  0  0  0  0  0  0  0
   27.3539  -21.9674  -14.7804 O   0  0  0  0  0  0  0  0  0  0  0  0
   27.7717  -21.0566  -13.8421 C   0  0  0  0  0  0  0  0  0  0  0  0
   26.6976  -20.0236  -13.5074 C   0  0  2  0  0  0  0  0  0  0  0  0
   25.6224  -20.7637  -12.8505 N   0  0  0  0  0  0  0  0  0  0  0  0
   26.2140  -19.3161  -14.7031 C   0  0  0  0  0  0  0  0  0  0  0  0
   25.2465  -19.7471  -15.4134 O   0  0  0  0  0  0  0  0  0  0  0  0
   25.9739  -15.3600  -14.8747 C   0  0  0  0  0  0  0  0  0  0  0  0
   26.6491  -15.8751  -16.1187 C   0  0  1  0  0  0  0  0  0  0  0  0
   28.1059  -15.5331  -16.0542 C   0  0  0  0  0  0  0  0  0  0  0  0
   26.4237  -17.3728  -16.2909 C   0  0  2  0  0  0  0  0  0  0  0  0
   26.8071  -18.1096  -15.1257 N   0  0  0  0  0  0  0  0  0  0  0  0
   27.0771  -17.8589  -17.5263 C   0  0  0  0  0  0  0  0  0  0  0  0
   26.6428  -17.5958  -18.8089 O   0  0  0  0  0  0  0  0  0  0  0  0
   28.1048  -18.5643  -17.3977 O   0  0  0  0  0  0  0  0  0  0  0  0
  2  1  1  1
  3  2  1  0
  4  3  1  0
  5  4  2  0
  6  5  1  0
  7  6  1  0
  7  8  2  0
  8  4  1  0
  9  2  1  0
 10  9  2  0
 11 12  1  0
 13 12  1  6
 13 15  1  0
 13 14  1  0
 14  9  1  0
 15 21  1  0
 16 15  2  0
 18 20  1  0
 18 19  1  1
 18 17  1  0
 20 22  1  0
 20 21  1  1
 22 24  2  0
 22 23  1  0
M  END
$$$$
