HSV.pdb
     RDKit          3D

 24 24  0  0  1  0  0  0  0  0999 V2000
   23.3556  -13.7562  -17.6370 N   0  0  0  0  0  0  0  0  0  0  0  0
   23.7242  -12.7906  -16.6452 C   0  0  1  0  0  0  0  0  0  0  0  0
   25.2239  -12.6180  -16.5414 C   0  0  0  0  0  0  0  0  0  0  0  0
   25.8953  -13.9194  -16.2839 C   0  0  0  0  0  0  0  0  0  0  0  0
   25.9087  -14.5289  -15.0513 C   0  0  0  0  0  0  0  0  0  0  0  0
   26.5956  -15.6872  -15.1511 N   0  0  0  0  0  0  0  0  0  0  0  0
   27.0013  -15.7948  -16.4223 C   0  0  0  0  0  0  0  0  0  0  0  0
   26.5688  -14.7107  -17.1059 N   0  0  0  0  0  0  0  0  0  0  0  0
   23.0404  -11.4953  -16.8936 C   0  0  0  0  0  0  0  0  0  0  0  0
   23.3464  -10.8488  -17.9199 O   0  0  0  0  0  0  0  0  0  0  0  0
   19.8919  -10.5264  -14.4656 O   0  0  0  0  0  0  0  0  0  0  0  0
   19.9201  -10.0123  -15.7381 C   0  0  0  0  0  0  0  0  0  0  0  0
   21.3409   -9.7547  -16.2359 C   0  0  2  0  0  0  0  0  0  0  0  0
   22.0751  -10.9978  -16.0096 N   0  0  0  0  0  0  0  0  0  0  0  0
   21.9749   -8.6199  -15.5471 C   0  0  0  0  0  0  0  0  0  0  0  0
   22.6948   -8.7632  -14.5043 O   0  0  0  0  0  0  0  0  0  0  0  0
   21.0958   -4.5544  -16.8269 C   0  0  0  0  0  0  0  0  0  0  0  0
   22.4854   -4.9816  -16.4329 C   0  0  1  0  0  0  0  0  0  0  0  0
   23.2116   -3.7998  -15.8676 C   0  0  0  0  0  0  0  0  0  0  0  0
   22.4486   -6.1484  -15.4529 C   0  0  2  0  0  0  0  0  0  0  0  0
   21.8134   -7.3006  -16.0155 N   0  0  0  0  0  0  0  0  0  0  0  0
   21.8536   -5.7281  -14.1650 C   0  0  0  0  0  0  0  0  0  0  0  0
   22.5185   -5.0393  -13.1718 O   0  0  0  0  0  0  0  0  0  0  0  0
   20.6524   -6.0204  -13.9604 O   0  0  0  0  0  0  0  0  0  0  0  0
  2  1  1  6
  3  2  1  0
  4  3  1  0
  5  4  2  0
  6  5  1  0
  7  6  1  0
  7  8  2  0
  8  4  1  0
  9  2  1  0
 10  9  2  0
 11 12  1  0
 13 12  1  1
 13 15  1  0
 13 14  1  0
 14  9  1  0
 15 21  1  0
 16 15  2  0
 18 20  1  0
 18 19  1  1
 18 17  1  0
 20 22  1  0
 20 21  1  6
 22 24  2  0
 22 23  1  0
M  END
$$$$
