HSV.pdb
     RDKit          3D

 24 24  0  0  1  0  0  0  0  0999 V2000
   26.0885  -20.9296  -15.7663 N   0  0  0  0  0  0  0  0  0  0  0  0
   24.6783  -20.9577  -16.0166 C   0  0  1  0  0  0  0  0  0  0  0  0
   24.0021  -22.1413  -15.3597 C   0  0  0  0  0  0  0  0  0  0  0  0
   24.6150  -23.4212  -15.8033 C   0  0  0  0  0  0  0  0  0  0  0  0
   24.1937  -24.1126  -16.9148 C   0  0  0  0  0  0  0  0  0  0  0  0
   24.9489  -25.2248  -17.0420 N   0  0  0  0  0  0  0  0  0  0  0  0
   25.8229  -25.2240  -16.0281 C   0  0  0  0  0  0  0  0  0  0  0  0
   25.6112  -24.1189  -15.2775 N   0  0  0  0  0  0  0  0  0  0  0  0
   24.0477  -19.6743  -15.6135 C   0  0  0  0  0  0  0  0  0  0  0  0
   24.2707  -19.2382  -14.4625 O   0  0  0  0  0  0  0  0  0  0  0  0
   22.7172  -17.2276  -18.5235 O   0  0  0  0  0  0  0  0  0  0  0  0
   23.0010  -16.7200  -17.2800 C   0  0  0  0  0  0  0  0  0  0  0  0
   22.6120  -17.6749  -16.1532 C   0  0  2  0  0  0  0  0  0  0  0  0
   23.2219  -18.9595  -16.4898 N   0  0  0  0  0  0  0  0  0  0  0  0
   21.1535  -17.7925  -16.0020 C   0  0  0  0  0  0  0  0  0  0  0  0
   20.4578  -18.6280  -16.6686 O   0  0  0  0  0  0  0  0  0  0  0  0
   19.2467  -18.4748  -12.8734 C   0  0  0  0  0  0  0  0  0  0  0  0
   18.6722  -17.1955  -13.4228 C   0  0  1  0  0  0  0  0  0  0  0  0
   19.1542  -16.0510  -12.5854 C   0  0  0  0  0  0  0  0  0  0  0  0
   19.0305  -17.0145  -14.8933 C   0  0  2  0  0  0  0  0  0  0  0  0
   20.4461  -16.9743  -15.0986 N   0  0  0  0  0  0  0  0  0  0  0  0
   18.3280  -15.8418  -15.4598 C   0  0  0  0  0  0  0  0  0  0  0  0
   16.9702  -15.7667  -15.6910 O   0  0  0  0  0  0  0  0  0  0  0  0
   19.0202  -14.8390  -15.7522 O   0  0  0  0  0  0  0  0  0  0  0  0
  2  1  1  1
  3  2  1  0
  4  3  1  0
  5  4  2  0
  6  5  1  0
  7  6  1  0
  7  8  2  0
  8  4  1  0
  9  2  1  0
 10  9  2  0
 11 12  1  0
 13 12  1  6
 13 15  1  0
 13 14  1  0
 14  9  1  0
 15 21  1  0
 16 15  2  0
 18 20  1  0
 18 19  1  1
 18 17  1  0
 20 22  1  0
 20 21  1  1
 22 24  2  0
 22 23  1  0
M  END
$$$$
