HSV.pdb
     RDKit          3D

 24 24  0  0  1  0  0  0  0  0999 V2000
   26.1325   -7.5895  -18.4239 N   0  0  0  0  0  0  0  0  0  0  0  0
   25.8842   -8.9362  -18.8441 C   0  0  1  0  0  0  0  0  0  0  0  0
   25.8798   -9.0760  -20.3508 C   0  0  0  0  0  0  0  0  0  0  0  0
   24.7202   -8.3644  -20.9503 C   0  0  0  0  0  0  0  0  0  0  0  0
   24.8439   -7.4428  -21.9634 C   0  0  0  0  0  0  0  0  0  0  0  0
   23.6143   -6.9833  -22.2802 N   0  0  0  0  0  0  0  0  0  0  0  0
   22.7431   -7.6082  -21.4785 C   0  0  0  0  0  0  0  0  0  0  0  0
   23.4279   -8.4493  -20.6704 N   0  0  0  0  0  0  0  0  0  0  0  0
   26.8504   -9.8705  -18.2109 C   0  0  0  0  0  0  0  0  0  0  0  0
   28.0730   -9.6466  -18.3515 O   0  0  0  0  0  0  0  0  0  0  0  0
   25.4984  -13.4289  -16.3566 O   0  0  0  0  0  0  0  0  0  0  0  0
   26.4989  -12.6741  -15.7965 C   0  0  0  0  0  0  0  0  0  0  0  0
   27.3290  -11.9311  -16.8415 C   0  0  2  0  0  0  0  0  0  0  0  0
   26.4177  -10.9785  -17.4720 N   0  0  0  0  0  0  0  0  0  0  0  0
   27.9255  -12.8430  -17.8296 C   0  0  0  0  0  0  0  0  0  0  0  0
   27.3128  -13.2081  -18.8869 O   0  0  0  0  0  0  0  0  0  0  0  0
   31.9979  -13.1156  -18.0202 C   0  0  0  0  0  0  0  0  0  0  0  0
   31.3410  -14.4562  -18.2200 C   0  0  1  0  0  0  0  0  0  0  0  0
   31.5792  -15.2966  -17.0033 C   0  0  0  0  0  0  0  0  0  0  0  0
   29.8551  -14.3045  -18.5242 C   0  0  2  0  0  0  0  0  0  0  0  0
   29.2228  -13.3638  -17.6509 N   0  0  0  0  0  0  0  0  0  0  0  0
   29.1884  -15.6255  -18.5353 C   0  0  0  0  0  0  0  0  0  0  0  0
   29.2632  -16.5426  -19.5631 O   0  0  0  0  0  0  0  0  0  0  0  0
   28.5028  -15.9354  -17.5333 O   0  0  0  0  0  0  0  0  0  0  0  0
  2  1  1  6
  3  2  1  0
  4  3  1  0
  5  4  2  0
  6  5  1  0
  7  6  1  0
  7  8  2  0
  8  4  1  0
  9  2  1  0
 10  9  2  0
 11 12  1  0
 13 12  1  1
 13 15  1  0
 13 14  1  0
 14  9  1  0
 15 21  1  0
 16 15  2  0
 18 20  1  0
 18 19  1  1
 18 17  1  0
 20 22  1  0
 20 21  1  1
 22 24  2  0
 22 23  1  0
M  END
$$$$
