HSV.pdb
     RDKit          3D

 24 24  0  0  1  0  0  0  0  0999 V2000
   23.4336  -32.4658  -10.4788 N   0  0  0  0  0  0  0  0  0  0  0  0
   23.2401  -33.6065   -9.6343 C   0  0  1  0  0  0  0  0  0  0  0  0
   23.8927  -34.8521  -10.1931 C   0  0  0  0  0  0  0  0  0  0  0  0
   23.3064  -35.2183  -11.5094 C   0  0  0  0  0  0  0  0  0  0  0  0
   23.9885  -35.0977  -12.6973 C   0  0  0  0  0  0  0  0  0  0  0  0
   23.1834  -35.5099  -13.6999 N   0  0  0  0  0  0  0  0  0  0  0  0
   22.0227  -35.8796  -13.1447 C   0  0  0  0  0  0  0  0  0  0  0  0
   22.1077  -35.6978  -11.8071 N   0  0  0  0  0  0  0  0  0  0  0  0
   23.7017  -33.3204   -8.2514 C   0  0  0  0  0  0  0  0  0  0  0  0
   24.8876  -32.9594   -8.0834 O   0  0  0  0  0  0  0  0  0  0  0  0
   21.3410  -32.0357   -4.8647 O   0  0  0  0  0  0  0  0  0  0  0  0
   21.9766  -33.2501   -4.9396 C   0  0  0  0  0  0  0  0  0  0  0  0
   23.2543  -33.1936   -5.7747 C   0  0  2  0  0  0  0  0  0  0  0  0
   22.8419  -33.4473   -7.1535 N   0  0  0  0  0  0  0  0  0  0  0  0
   24.2581  -34.1694   -5.3229 C   0  0  0  0  0  0  0  0  0  0  0  0
   24.0922  -35.4289   -5.4345 O   0  0  0  0  0  0  0  0  0  0  0  0
   28.0066  -33.6383   -6.0648 C   0  0  0  0  0  0  0  0  0  0  0  0
   27.8979  -34.0541   -4.6212 C   0  0  1  0  0  0  0  0  0  0  0  0
   28.2219  -32.8766   -3.7539 C   0  0  0  0  0  0  0  0  0  0  0  0
   26.5191  -34.6255   -4.3121 C   0  0  2  0  0  0  0  0  0  0  0  0
   25.4692  -33.7507   -4.7365 N   0  0  0  0  0  0  0  0  0  0  0  0
   26.4196  -35.0022   -2.8846 C   0  0  0  0  0  0  0  0  0  0  0  0
   27.0223  -36.1026   -2.3113 O   0  0  0  0  0  0  0  0  0  0  0  0
   25.7348  -34.2644   -2.1384 O   0  0  0  0  0  0  0  0  0  0  0  0
  2  1  1  6
  3  2  1  0
  4  3  1  0
  5  4  2  0
  6  5  1  0
  7  6  1  0
  7  8  2  0
  8  4  1  0
  9  2  1  0
 10  9  2  0
 11 12  1  0
 13 12  1  1
 13 15  1  0
 13 14  1  0
 14  9  1  0
 15 21  1  0
 16 15  2  0
 18 20  1  0
 18 19  1  1
 18 17  1  0
 20 22  1  0
 20 21  1  1
 22 24  2  0
 22 23  1  0
M  END
$$$$
