HSV.pdb
     RDKit          3D

 24 24  0  0  1  0  0  0  0  0999 V2000
   37.7541  -10.0727   -6.3214 N   0  0  0  0  0  0  0  0  0  0  0  0
   38.9694   -9.6736   -6.9663 C   0  0  1  0  0  0  0  0  0  0  0  0
   39.3350   -8.2369   -6.6635 C   0  0  0  0  0  0  0  0  0  0  0  0
   38.6084   -7.2998   -7.5604 C   0  0  0  0  0  0  0  0  0  0  0  0
   37.7644   -7.7183   -8.5622 C   0  0  0  0  0  0  0  0  0  0  0  0
   37.2668   -6.6304   -9.1885 N   0  0  0  0  0  0  0  0  0  0  0  0
   37.7922   -5.5562   -8.5867 C   0  0  0  0  0  0  0  0  0  0  0  0
   38.6099   -5.9753   -7.5940 N   0  0  0  0  0  0  0  0  0  0  0  0
   40.0759  -10.6038   -6.6232 C   0  0  0  0  0  0  0  0  0  0  0  0
   40.1618  -11.0165   -5.4454 O   0  0  0  0  0  0  0  0  0  0  0  0
   42.0870  -12.5054   -9.5845 O   0  0  0  0  0  0  0  0  0  0  0  0
   42.1954  -12.9594   -8.2936 C   0  0  0  0  0  0  0  0  0  0  0  0
   42.1826  -11.8261   -7.2696 C   0  0  2  0  0  0  0  0  0  0  0  0
   41.0071  -11.0170   -7.5839 N   0  0  0  0  0  0  0  0  0  0  0  0
   43.4160  -11.0254   -7.3102 C   0  0  0  0  0  0  0  0  0  0  0  0
   43.5222   -9.9601   -8.0033 O   0  0  0  0  0  0  0  0  0  0  0  0
   45.9499  -11.5910   -4.2243 C   0  0  0  0  0  0  0  0  0  0  0  0
   46.2823  -10.4344   -5.1302 C   0  0  1  0  0  0  0  0  0  0  0  0
   47.7597  -10.1928   -5.0822 C   0  0  0  0  0  0  0  0  0  0  0  0
   45.7932  -10.6865   -6.5517 C   0  0  2  0  0  0  0  0  0  0  0  0
   44.5556  -11.4044   -6.5730 N   0  0  0  0  0  0  0  0  0  0  0  0
   46.8522  -11.3306   -7.3600 C   0  0  0  0  0  0  0  0  0  0  0  0
   47.7915  -10.6597   -8.1152 O   0  0  0  0  0  0  0  0  0  0  0  0
   46.8994  -12.5828   -7.3585 O   0  0  0  0  0  0  0  0  0  0  0  0
  2  1  1  1
  3  2  1  0
  4  3  1  0
  5  4  2  0
  6  5  1  0
  7  6  1  0
  7  8  2  0
  8  4  1  0
  9  2  1  0
 10  9  2  0
 11 12  1  0
 13 12  1  6
 13 15  1  0
 13 14  1  0
 14  9  1  0
 15 21  1  0
 16 15  2  0
 18 20  1  0
 18 19  1  6
 18 17  1  0
 20 22  1  0
 20 21  1  1
 22 24  2  0
 22 23  1  0
M  END
$$$$
