HSV.pdb
     RDKit          3D

 24 24  0  0  1  0  0  0  0  0999 V2000
   19.8082  -12.5124  -17.1960 N   0  0  0  0  0  0  0  0  0  0  0  0
   19.4661  -11.1214  -17.1983 C   0  0  1  0  0  0  0  0  0  0  0  0
   18.0086  -10.8881  -16.8650 C   0  0  0  0  0  0  0  0  0  0  0  0
   17.1208  -11.5402  -17.8634 C   0  0  0  0  0  0  0  0  0  0  0  0
   16.8962  -11.0279  -19.1197 C   0  0  0  0  0  0  0  0  0  0  0  0
   16.0490  -11.8503  -19.7750 N   0  0  0  0  0  0  0  0  0  0  0  0
   15.7530  -12.8547  -18.9409 C   0  0  0  0  0  0  0  0  0  0  0  0
   16.4122  -12.6564  -17.7765 N   0  0  0  0  0  0  0  0  0  0  0  0
   20.3634  -10.3583  -16.2928 C   0  0  0  0  0  0  0  0  0  0  0  0
   20.3527  -10.6359  -15.0731 O   0  0  0  0  0  0  0  0  0  0  0  0
   24.4201   -8.1429  -15.6044 O   0  0  0  0  0  0  0  0  0  0  0  0
   23.4945   -8.8594  -16.3216 C   0  0  0  0  0  0  0  0  0  0  0  0
   22.0580   -8.5309  -15.9198 C   0  0  2  0  0  0  0  0  0  0  0  0
   21.2057   -9.3506  -16.7784 N   0  0  0  0  0  0  0  0  0  0  0  0
   21.7530   -7.0992  -16.0648 C   0  0  0  0  0  0  0  0  0  0  0  0
   21.5919   -6.5415  -17.2003 O   0  0  0  0  0  0  0  0  0  0  0  0
   19.0589   -5.2817  -15.8609 C   0  0  0  0  0  0  0  0  0  0  0  0
   19.8796   -4.5448  -14.8352 C   0  0  1  0  0  0  0  0  0  0  0  0
   19.3709   -4.8921  -13.4698 C   0  0  0  0  0  0  0  0  0  0  0  0
   21.3638   -4.8575  -14.9854 C   0  0  2  0  0  0  0  0  0  0  0  0
   21.6225   -6.2640  -14.9372 N   0  0  0  0  0  0  0  0  0  0  0  0
   22.1602   -4.0866  -14.0049 C   0  0  0  0  0  0  0  0  0  0  0  0
   22.4551   -2.7428  -14.1047 O   0  0  0  0  0  0  0  0  0  0  0  0
   22.6008   -4.7022  -13.0064 O   0  0  0  0  0  0  0  0  0  0  0  0
  2  1  1  1
  3  2  1  0
  4  3  1  0
  5  4  2  0
  6  5  1  0
  7  6  1  0
  7  8  2  0
  8  4  1  0
  9  2  1  0
 10  9  2  0
 11 12  1  0
 13 12  1  6
 13 15  1  0
 13 14  1  0
 14  9  1  0
 15 21  1  0
 16 15  2  0
 18 20  1  0
 18 19  1  1
 18 17  1  0
 20 22  1  0
 20 21  1  1
 22 24  2  0
 22 23  1  0
M  END
$$$$
