HSV.pdb
     RDKit          3D

 24 24  0  0  1  0  0  0  0  0999 V2000
   18.5364  -15.2320  -18.1225 N   0  0  0  0  0  0  0  0  0  0  0  0
   18.1454  -14.4190  -17.0099 C   0  0  1  0  0  0  0  0  0  0  0  0
   18.3692  -15.1137  -15.6844 C   0  0  0  0  0  0  0  0  0  0  0  0
   17.5458  -16.3474  -15.5816 C   0  0  0  0  0  0  0  0  0  0  0  0
   16.2286  -16.3429  -15.1867 C   0  0  0  0  0  0  0  0  0  0  0  0
   15.7714  -17.6135  -15.1977 N   0  0  0  0  0  0  0  0  0  0  0  0
   16.7861  -18.3925  -15.5922 C   0  0  0  0  0  0  0  0  0  0  0  0
   17.8649  -17.6102  -15.8242 N   0  0  0  0  0  0  0  0  0  0  0  0
   18.8272  -13.0998  -17.0582 C   0  0  0  0  0  0  0  0  0  0  0  0
   20.0763  -13.0737  -16.9944 O   0  0  0  0  0  0  0  0  0  0  0  0
   18.0630   -8.3562  -17.9184 O   0  0  0  0  0  0  0  0  0  0  0  0
   17.6326   -9.6543  -17.7993 C   0  0  0  0  0  0  0  0  0  0  0  0
   18.7301  -10.5937  -17.3032 C   0  0  2  0  0  0  0  0  0  0  0  0
   18.1028  -11.9069  -17.1720 N   0  0  0  0  0  0  0  0  0  0  0  0
   19.3136  -10.1443  -16.0298 C   0  0  0  0  0  0  0  0  0  0  0  0
   18.7614  -10.3692  -14.9025 O   0  0  0  0  0  0  0  0  0  0  0  0
   22.9194  -10.6674  -14.7304 C   0  0  0  0  0  0  0  0  0  0  0  0
   22.6385   -9.1882  -14.7725 C   0  0  1  0  0  0  0  0  0  0  0  0
   23.3481   -8.5954  -15.9509 C   0  0  0  0  0  0  0  0  0  0  0  0
   21.1403   -8.9104  -14.8122 C   0  0  2  0  0  0  0  0  0  0  0  0
   20.5298   -9.4331  -15.9962 N   0  0  0  0  0  0  0  0  0  0  0  0
   20.8725   -7.4694  -14.6084 C   0  0  0  0  0  0  0  0  0  0  0  0
   21.0584   -6.7885  -13.4232 O   0  0  0  0  0  0  0  0  0  0  0  0
   20.4435   -6.8169  -15.5884 O   0  0  0  0  0  0  0  0  0  0  0  0
  2  1  1  6
  3  2  1  0
  4  3  1  0
  5  4  2  0
  6  5  1  0
  7  6  1  0
  7  8  2  0
  8  4  1  0
  9  2  1  0
 10  9  2  0
 11 12  1  0
 13 12  1  1
 13 15  1  0
 13 14  1  0
 14  9  1  0
 15 21  1  0
 16 15  2  0
 18 20  1  0
 18 19  1  6
 18 17  1  0
 20 22  1  0
 20 21  1  6
 22 24  2  0
 22 23  1  0
M  END
$$$$
