HSV.pdb
     RDKit          3D

 24 24  0  0  1  0  0  0  0  0999 V2000
   22.5641  -19.9667  -17.4751 N   0  0  0  0  0  0  0  0  0  0  0  0
   22.5850  -19.4686  -16.1322 C   0  0  1  0  0  0  0  0  0  0  0  0
   21.2180  -19.5062  -15.4845 C   0  0  0  0  0  0  0  0  0  0  0  0
   20.4996  -18.2187  -15.6769 C   0  0  0  0  0  0  0  0  0  0  0  0
   20.7922  -17.0794  -14.9647 C   0  0  0  0  0  0  0  0  0  0  0  0
   19.9665  -16.0921  -15.3733 N   0  0  0  0  0  0  0  0  0  0  0  0
   19.1757  -16.6090  -16.3218 C   0  0  0  0  0  0  0  0  0  0  0  0
   19.5090  -17.9078  -16.5000 N   0  0  0  0  0  0  0  0  0  0  0  0
   23.5957  -20.1929  -15.3191 C   0  0  0  0  0  0  0  0  0  0  0  0
   23.5020  -21.4368  -15.2246 O   0  0  0  0  0  0  0  0  0  0  0  0
   28.0174  -20.4161  -13.7196 O   0  0  0  0  0  0  0  0  0  0  0  0
   26.9809  -19.8545  -14.4228 C   0  0  0  0  0  0  0  0  0  0  0  0
   25.6170  -20.1747  -13.8143 C   0  0  2  0  0  0  0  0  0  0  0  0
   24.6331  -19.5134  -14.6689 N   0  0  0  0  0  0  0  0  0  0  0  0
   25.5104  -19.7228  -12.4185 C   0  0  0  0  0  0  0  0  0  0  0  0
   25.4970  -18.4897  -12.0935 O   0  0  0  0  0  0  0  0  0  0  0  0
   26.6972  -22.3314   -9.2129 C   0  0  0  0  0  0  0  0  0  0  0  0
   25.4228  -21.5401   -9.0769 C   0  0  1  0  0  0  0  0  0  0  0  0
   25.2265  -21.1851   -7.6351 C   0  0  0  0  0  0  0  0  0  0  0  0
   25.4407  -20.3045   -9.9693 C   0  0  2  0  0  0  0  0  0  0  0  0
   25.4164  -20.6467  -11.3585 N   0  0  0  0  0  0  0  0  0  0  0  0
   26.5698  -19.4185   -9.6092 C   0  0  0  0  0  0  0  0  0  0  0  0
   26.5261  -18.4296   -8.6483 O   0  0  0  0  0  0  0  0  0  0  0  0
   27.6494  -19.5787  -10.2246 O   0  0  0  0  0  0  0  0  0  0  0  0
  2  1  1  6
  3  2  1  0
  4  3  1  0
  5  4  2  0
  6  5  1  0
  7  6  1  0
  7  8  2  0
  8  4  1  0
  9  2  1  0
 10  9  2  0
 11 12  1  0
 13 12  1  6
 13 15  1  0
 13 14  1  0
 14  9  1  0
 15 21  1  0
 16 15  2  0
 18 20  1  0
 18 19  1  1
 18 17  1  0
 20 22  1  0
 20 21  1  6
 22 24  2  0
 22 23  1  0
M  END
$$$$
