HSV.pdb
     RDKit          3D

 24 24  0  0  1  0  0  0  0  0999 V2000
   23.5639  -21.5481  -15.4812 N   0  0  0  0  0  0  0  0  0  0  0  0
   23.5517  -20.7715  -14.2776 C   0  0  1  0  0  0  0  0  0  0  0  0
   22.1498  -20.5414  -13.7568 C   0  0  0  0  0  0  0  0  0  0  0  0
   21.3701  -19.6787  -14.6833 C   0  0  0  0  0  0  0  0  0  0  0  0
   21.0381  -18.3750  -14.3985 C   0  0  0  0  0  0  0  0  0  0  0  0
   20.3341  -17.8734  -15.4359 N   0  0  0  0  0  0  0  0  0  0  0  0
   20.2309  -18.8478  -16.3480 C   0  0  0  0  0  0  0  0  0  0  0  0
   20.8665  -19.9459  -15.8794 N   0  0  0  0  0  0  0  0  0  0  0  0
   24.4243  -21.3886  -13.2455 C   0  0  0  0  0  0  0  0  0  0  0  0
   24.1328  -22.5307  -12.8264 O   0  0  0  0  0  0  0  0  0  0  0  0
   28.2543  -20.2131  -12.7378 O   0  0  0  0  0  0  0  0  0  0  0  0
   27.7735  -21.3769  -12.1909 C   0  0  0  0  0  0  0  0  0  0  0  0
   26.3579  -21.2249  -11.6379 C   0  0  2  0  0  0  0  0  0  0  0  0
   25.5485  -20.7204  -12.7450 N   0  0  0  0  0  0  0  0  0  0  0  0
   26.3077  -20.3225  -10.4772 C   0  0  0  0  0  0  0  0  0  0  0  0
   26.0833  -19.0720  -10.5871 O   0  0  0  0  0  0  0  0  0  0  0  0
   24.6134  -21.4224   -7.3303 C   0  0  0  0  0  0  0  0  0  0  0  0
   25.7852  -20.6158   -6.8355 C   0  0  1  0  0  0  0  0  0  0  0  0
   26.6568  -21.4967   -5.9943 C   0  0  0  0  0  0  0  0  0  0  0  0
   26.5560  -19.9919   -7.9931 C   0  0  2  0  0  0  0  0  0  0  0  0
   26.5084  -20.8062   -9.1688 N   0  0  0  0  0  0  0  0  0  0  0  0
   27.9349  -19.6522   -7.5774 C   0  0  0  0  0  0  0  0  0  0  0  0
   28.2718  -18.6464   -6.6954 O   0  0  0  0  0  0  0  0  0  0  0  0
   28.8692  -20.3307   -8.0642 O   0  0  0  0  0  0  0  0  0  0  0  0
  2  1  1  6
  3  2  1  0
  4  3  1  0
  5  4  2  0
  6  5  1  0
  7  6  1  0
  7  8  2  0
  8  4  1  0
  9  2  1  0
 10  9  2  0
 11 12  1  0
 13 12  1  6
 13 15  1  0
 13 14  1  0
 14  9  1  0
 15 21  1  0
 16 15  2  0
 18 20  1  0
 18 19  1  6
 18 17  1  0
 20 22  1  0
 20 21  1  6
 22 24  2  0
 22 23  1  0
M  END
$$$$
