HSV.pdb
     RDKit          3D

 24 24  0  0  1  0  0  0  0  0999 V2000
   17.6408  -11.8502  -15.8263 N   0  0  0  0  0  0  0  0  0  0  0  0
   18.2393  -10.7055  -16.4455 C   0  0  1  0  0  0  0  0  0  0  0  0
   17.2633   -9.9503  -17.3212 C   0  0  0  0  0  0  0  0  0  0  0  0
   16.7317  -10.8207  -18.4031 C   0  0  0  0  0  0  0  0  0  0  0  0
   15.4068  -11.1755  -18.5016 C   0  0  0  0  0  0  0  0  0  0  0  0
   15.2521  -11.9661  -19.5853 N   0  0  0  0  0  0  0  0  0  0  0  0
   16.4588  -12.0997  -20.1494 C   0  0  0  0  0  0  0  0  0  0  0  0
   17.3554  -11.3967  -19.4203 N   0  0  0  0  0  0  0  0  0  0  0  0
   18.8575   -9.8197  -15.4254 C   0  0  0  0  0  0  0  0  0  0  0  0
   18.1225   -9.3301  -14.5395 O   0  0  0  0  0  0  0  0  0  0  0  0
   22.9713   -9.7569  -15.0203 O   0  0  0  0  0  0  0  0  0  0  0  0
   22.1162   -9.4627  -13.9875 C   0  0  0  0  0  0  0  0  0  0  0  0
   20.8845   -8.6856  -14.4481 C   0  0  2  0  0  0  0  0  0  0  0  0
   20.2276   -9.5312  -15.4425 N   0  0  0  0  0  0  0  0  0  0  0  0
   21.2329   -7.3690  -15.0040 C   0  0  0  0  0  0  0  0  0  0  0  0
   21.6339   -7.2133  -16.2045 O   0  0  0  0  0  0  0  0  0  0  0  0
   19.3150   -4.4950  -15.7897 C   0  0  0  0  0  0  0  0  0  0  0  0
   20.3076   -3.9649  -14.7885 C   0  0  1  0  0  0  0  0  0  0  0  0
   19.6121   -3.7688  -13.4766 C   0  0  0  0  0  0  0  0  0  0  0  0
   21.5123   -4.8899  -14.6606 C   0  0  2  0  0  0  0  0  0  0  0  0
   21.1378   -6.1998  -14.2229 N   0  0  0  0  0  0  0  0  0  0  0  0
   22.5563   -4.2712  -13.8139 C   0  0  0  0  0  0  0  0  0  0  0  0
   22.8958   -4.6871  -12.5432 O   0  0  0  0  0  0  0  0  0  0  0  0
   23.1806   -3.2935  -14.2879 O   0  0  0  0  0  0  0  0  0  0  0  0
  2  1  1  1
  3  2  1  0
  4  3  1  0
  5  4  2  0
  6  5  1  0
  7  6  1  0
  7  8  2  0
  8  4  1  0
  9  2  1  0
 10  9  2  0
 11 12  1  0
 13 12  1  6
 13 15  1  0
 13 14  1  0
 14  9  1  0
 15 21  1  0
 16 15  2  0
 18 20  1  0
 18 19  1  1
 18 17  1  0
 20 22  1  0
 20 21  1  1
 22 24  2  0
 22 23  1  0
M  END
$$$$
