HSV.pdb
     RDKit          3D

 24 24  0  0  1  0  0  0  0  0999 V2000
   24.7874  -12.3156  -18.3159 N   0  0  0  0  0  0  0  0  0  0  0  0
   24.8016  -11.6820  -17.0313 C   0  0  1  0  0  0  0  0  0  0  0  0
   26.2072  -11.4246  -16.5335 C   0  0  0  0  0  0  0  0  0  0  0  0
   26.9974  -12.6832  -16.4888 C   0  0  0  0  0  0  0  0  0  0  0  0
   26.8668  -13.6193  -15.4899 C   0  0  0  0  0  0  0  0  0  0  0  0
   27.7186  -14.6369  -15.7395 N   0  0  0  0  0  0  0  0  0  0  0  0
   28.3662  -14.3382  -16.8724 C   0  0  0  0  0  0  0  0  0  0  0  0
   27.9189  -13.1435  -17.3222 N   0  0  0  0  0  0  0  0  0  0  0  0
   23.9916  -10.4366  -17.0510 C   0  0  0  0  0  0  0  0  0  0  0  0
   24.4217   -9.4581  -17.7008 O   0  0  0  0  0  0  0  0  0  0  0  0
   20.6130  -10.1895  -14.6410 O   0  0  0  0  0  0  0  0  0  0  0  0
   20.5560   -9.6133  -15.8857 C   0  0  0  0  0  0  0  0  0  0  0  0
   21.9255   -9.1569  -16.3848 C   0  0  2  0  0  0  0  0  0  0  0  0
   22.7748  -10.3459  -16.3640 N   0  0  0  0  0  0  0  0  0  0  0  0
   22.4875   -8.0773  -15.5587 C   0  0  0  0  0  0  0  0  0  0  0  0
   23.2163   -8.3014  -14.5364 O   0  0  0  0  0  0  0  0  0  0  0  0
   24.1985   -4.9674  -17.1403 C   0  0  0  0  0  0  0  0  0  0  0  0
   23.2119   -4.4863  -16.1089 C   0  0  1  0  0  0  0  0  0  0  0  0
   22.0288   -3.8949  -16.8117 C   0  0  0  0  0  0  0  0  0  0  0  0
   22.8075   -5.6110  -15.1629 C   0  0  2  0  0  0  0  0  0  0  0  0
   22.2428   -6.7234  -15.8638 N   0  0  0  0  0  0  0  0  0  0  0  0
   21.9311   -5.0968  -14.0873 C   0  0  0  0  0  0  0  0  0  0  0  0
   22.3394   -4.2760  -13.0565 O   0  0  0  0  0  0  0  0  0  0  0  0
   20.7242   -5.4328  -14.1148 O   0  0  0  0  0  0  0  0  0  0  0  0
  2  1  1  6
  3  2  1  0
  4  3  1  0
  5  4  2  0
  6  5  1  0
  7  6  1  0
  7  8  2  0
  8  4  1  0
  9  2  1  0
 10  9  2  0
 11 12  1  0
 13 12  1  1
 13 15  1  0
 13 14  1  0
 14  9  1  0
 15 21  1  0
 16 15  2  0
 18 20  1  0
 18 19  1  6
 18 17  1  0
 20 22  1  0
 20 21  1  6
 22 24  2  0
 22 23  1  0
M  END
$$$$
