HSV.pdb
     RDKit          3D

 24 24  0  0  1  0  0  0  0  0999 V2000
   19.6464  -13.5144  -18.0191 N   0  0  0  0  0  0  0  0  0  0  0  0
   20.0002  -12.8267  -16.8134 C   0  0  1  0  0  0  0  0  0  0  0  0
   21.2003  -13.4455  -16.1304 C   0  0  0  0  0  0  0  0  0  0  0  0
   20.9551  -14.8768  -15.8117 C   0  0  0  0  0  0  0  0  0  0  0  0
   20.1115  -15.2911  -14.8078 C   0  0  0  0  0  0  0  0  0  0  0  0
   20.1090  -16.6410  -14.7771 N   0  0  0  0  0  0  0  0  0  0  0  0
   20.9359  -17.0574  -15.7441 C   0  0  0  0  0  0  0  0  0  0  0  0
   21.4474  -15.9729  -16.3701 N   0  0  0  0  0  0  0  0  0  0  0  0
   20.2062  -11.3789  -17.0757 C   0  0  0  0  0  0  0  0  0  0  0  0
   21.0586  -11.0447  -17.9281 O   0  0  0  0  0  0  0  0  0  0  0  0
   17.6770   -8.6480  -15.2216 O   0  0  0  0  0  0  0  0  0  0  0  0
   18.1705   -8.4042  -16.4792 C   0  0  0  0  0  0  0  0  0  0  0  0
   19.5743   -8.9719  -16.6793 C   0  0  2  0  0  0  0  0  0  0  0  0
   19.4717  -10.4012  -16.3934 N   0  0  0  0  0  0  0  0  0  0  0  0
   20.5677   -8.3179  -15.8137 C   0  0  0  0  0  0  0  0  0  0  0  0
   20.9025   -8.7854  -14.6754 O   0  0  0  0  0  0  0  0  0  0  0  0
   22.0827   -4.3938  -16.8975 C   0  0  0  0  0  0  0  0  0  0  0  0
   22.9758   -5.4317  -16.2701 C   0  0  1  0  0  0  0  0  0  0  0  0
   24.0306   -4.7376  -15.4643 C   0  0  0  0  0  0  0  0  0  0  0  0
   22.1731   -6.4164  -15.4278 C   0  0  2  0  0  0  0  0  0  0  0  0
   21.2060   -7.1251  -16.2088 N   0  0  0  0  0  0  0  0  0  0  0  0
   21.5850   -5.7372  -14.2521 C   0  0  0  0  0  0  0  0  0  0  0  0
   22.2652   -5.4291  -13.0922 O   0  0  0  0  0  0  0  0  0  0  0  0
   20.3752   -5.4168  -14.3147 O   0  0  0  0  0  0  0  0  0  0  0  0
  2  1  1  6
  3  2  1  0
  4  3  1  0
  5  4  2  0
  6  5  1  0
  7  6  1  0
  7  8  2  0
  8  4  1  0
  9  2  1  0
 10  9  2  0
 11 12  1  0
 13 12  1  1
 13 15  1  0
 13 14  1  0
 14  9  1  0
 15 21  1  0
 16 15  2  0
 18 20  1  0
 18 19  1  1
 18 17  1  0
 20 22  1  0
 20 21  1  6
 22 24  2  0
 22 23  1  0
M  END
$$$$
