HSV.pdb
     RDKit          3D

 24 24  0  0  1  0  0  0  0  0999 V2000
   16.3862  -17.0301    5.0982 N   0  0  0  0  0  0  0  0  0  0  0  0
   17.8065  -17.0985    5.2717 C   0  0  1  0  0  0  0  0  0  0  0  0
   18.4708  -15.7491    5.1066 C   0  0  0  0  0  0  0  0  0  0  0  0
   18.3155  -15.2431    3.7173 C   0  0  0  0  0  0  0  0  0  0  0  0
   18.9759  -15.7856    2.6400 C   0  0  0  0  0  0  0  0  0  0  0  0
   18.6208  -15.1043    1.5295 N   0  0  0  0  0  0  0  0  0  0  0  0
   17.7559  -14.1562    1.9103 C   0  0  0  0  0  0  0  0  0  0  0  0
   17.5759  -14.2490    3.2476 N   0  0  0  0  0  0  0  0  0  0  0  0
   18.1467  -17.7197    6.5777 C   0  0  0  0  0  0  0  0  0  0  0  0
   17.4791  -17.3921    7.5836 O   0  0  0  0  0  0  0  0  0  0  0  0
   20.0504  -21.2619    6.7829 O   0  0  0  0  0  0  0  0  0  0  0  0
   19.4196  -20.7123    7.8712 C   0  0  0  0  0  0  0  0  0  0  0  0
   19.6315  -19.2030    7.9725 C   0  0  2  0  0  0  0  0  0  0  0  0
   19.1862  -18.6505    6.6950 N   0  0  0  0  0  0  0  0  0  0  0  0
   21.0333  -18.8553    8.2521 C   0  0  0  0  0  0  0  0  0  0  0  0
   21.9434  -18.8960    7.3597 O   0  0  0  0  0  0  0  0  0  0  0  0
   22.0656  -16.1861   11.3324 C   0  0  0  0  0  0  0  0  0  0  0  0
   22.9339  -16.6196   10.1806 C   0  0  1  0  0  0  0  0  0  0  0  0
   24.3538  -16.2485   10.4801 C   0  0  0  0  0  0  0  0  0  0  0  0
   22.7823  -18.1108    9.9037 C   0  0  2  0  0  0  0  0  0  0  0  0
   21.4418  -18.4545    9.5399 N   0  0  0  0  0  0  0  0  0  0  0  0
   23.2977  -18.9063   11.0400 C   0  0  0  0  0  0  0  0  0  0  0  0
   24.5973  -19.3496   11.1725 O   0  0  0  0  0  0  0  0  0  0  0  0
   22.4912  -19.2001   11.9529 O   0  0  0  0  0  0  0  0  0  0  0  0
  2  1  1  1
  3  2  1  0
  4  3  1  0
  5  4  2  0
  6  5  1  0
  7  6  1  0
  7  8  2  0
  8  4  1  0
  9  2  1  0
 10  9  2  0
 11 12  1  0
 13 12  1  6
 13 15  1  0
 13 14  1  0
 14  9  1  0
 15 21  1  0
 16 15  2  0
 18 20  1  0
 18 19  1  1
 18 17  1  0
 20 22  1  0
 20 21  1  1
 22 24  2  0
 22 23  1  0
M  END
$$$$
