IWI.pdb
     RDKit          3D

 31 32  0  0  1  0  0  0  0  0999 V2000
    7.6328  -13.4820   16.7306 C   0  0  0  0  0  0  0  0  0  0  0  0
    8.5227  -14.5176   17.4303 C   0  0  0  0  0  0  0  0  0  0  0  0
    8.5289  -14.1629   18.8958 C   0  0  2  0  0  0  0  0  0  0  0  0
    9.0191  -12.7788   19.1632 C   0  0  0  0  0  0  0  0  0  0  0  0
    9.3131  -15.1176   19.7488 C   0  0  2  0  0  0  0  0  0  0  0  0
    8.7204  -16.4416   19.5241 N   0  0  0  0  0  0  0  0  0  0  0  0
    9.2587  -14.7709   21.1882 C   0  0  0  0  0  0  0  0  0  0  0  0
    9.5033  -13.5877   21.5316 O   0  0  0  0  0  0  0  0  0  0  0  0
    8.9447  -15.7045   22.1957 N   0  0  0  0  0  0  0  0  0  0  0  0
    8.6444  -15.2929   23.5913 C   0  0  1  0  0  0  0  0  0  0  0  0
    7.3273  -15.9248   23.9052 C   0  0  0  0  0  0  0  0  0  0  0  0
    6.4371  -15.1247   24.7689 C   0  0  0  0  0  0  0  0  0  0  0  0
    5.1818  -15.4187   25.2463 C   0  0  0  0  0  0  0  0  0  0  0  0
    4.7139  -14.3963   25.9754 N   0  0  0  0  0  0  0  0  0  0  0  0
    5.6279  -13.4078   26.0049 C   0  0  0  0  0  0  0  0  0  0  0  0
    5.6422  -12.1521   26.6081 C   0  0  0  0  0  0  0  0  0  0  0  0
    6.7244  -11.3232   26.4758 C   0  0  0  0  0  0  0  0  0  0  0  0
    7.7937  -11.7841   25.7229 C   0  0  0  0  0  0  0  0  0  0  0  0
    7.8045  -13.0236   25.1151 C   0  0  0  0  0  0  0  0  0  0  0  0
    6.6985  -13.8494   25.2608 C   0  0  0  0  0  0  0  0  0  0  0  0
    9.7129  -15.8444   24.4353 C   0  0  0  0  0  0  0  0  0  0  0  0
   10.6760  -16.4469   23.8289 O   0  0  0  0  0  0  0  0  0  0  0  0
   10.3924  -13.8525   29.5824 C   0  0  0  0  0  0  0  0  0  0  0  0
   10.5647  -14.2432   28.1065 C   0  0  0  0  0  0  0  0  0  0  0  0
   10.9573  -15.6956   27.9969 C   0  0  2  0  0  0  0  0  0  0  0  0
   12.2902  -15.9429   28.6664 C   0  0  0  0  0  0  0  0  0  0  0  0
   10.9531  -16.2077   26.5686 C   0  0  2  0  0  0  0  0  0  0  0  0
    9.7673  -15.7594   25.8657 N   0  0  0  0  0  0  0  0  0  0  0  0
   11.2083  -17.6393   26.4550 C   0  0  0  0  0  0  0  0  0  0  0  0
   12.3906  -18.0589   26.3931 O   0  0  0  0  0  0  0  0  0  0  0  0
   10.2118  -18.6079   26.4092 O   0  0  0  0  0  0  0  0  0  0  0  0
  2  3  1  0
  2  1  1  0
  3  4  1  6
  5  6  1  1
  5  3  1  0
  7  8  2  0
  7  5  1  0
  9  7  1  0
 10 21  1  0
 10  9  1  0
 10 11  1  1
 12 11  1  0
 13 12  2  0
 14 13  1  0
 15 14  1  0
 15 20  2  0
 16 15  1  0
 17 16  2  0
 17 18  1  0
 18 19  2  0
 19 20  1  0
 20 12  1  0
 21 28  1  0
 22 21  2  0
 23 24  1  0
 24 25  1  0
 25 26  1  6
 25 27  1  0
 27 29  1  0
 27 28  1  1
 29 30  2  0
 29 31  1  0
M  END
$$$$
