IWI.pdb
     RDKit          3D

 31 32  0  0  1  0  0  0  0  0999 V2000
   14.2508  -18.8209   19.1266 C   0  0  0  0  0  0  0  0  0  0  0  0
   12.7309  -18.6791   18.9723 C   0  0  0  0  0  0  0  0  0  0  0  0
   12.2671  -17.7660   20.0789 C   0  0  2  0  0  0  0  0  0  0  0  0
   12.7579  -18.1794   21.4263 C   0  0  0  0  0  0  0  0  0  0  0  0
   10.7763  -17.6013   20.1463 C   0  0  2  0  0  0  0  0  0  0  0  0
   10.3769  -17.0035   18.8666 N   0  0  0  0  0  0  0  0  0  0  0  0
   10.3498  -16.7353   21.2703 C   0  0  0  0  0  0  0  0  0  0  0  0
   10.7453  -15.5435   21.2950 O   0  0  0  0  0  0  0  0  0  0  0  0
    9.5193  -17.1825   22.3170 N   0  0  0  0  0  0  0  0  0  0  0  0
    9.0441  -16.2755   23.3936 C   0  0  1  0  0  0  0  0  0  0  0  0
    7.6314  -16.6888   23.6508 C   0  0  0  0  0  0  0  0  0  0  0  0
    6.8721  -15.8013   24.5532 C   0  0  0  0  0  0  0  0  0  0  0  0
    5.7380  -16.0585   25.2864 C   0  0  0  0  0  0  0  0  0  0  0  0
    5.3588  -14.9587   25.9517 N   0  0  0  0  0  0  0  0  0  0  0  0
    6.2146  -13.9534   25.6861 C   0  0  0  0  0  0  0  0  0  0  0  0
    6.2756  -12.6278   26.1103 C   0  0  0  0  0  0  0  0  0  0  0  0
    7.2755  -11.7984   25.6766 C   0  0  0  0  0  0  0  0  0  0  0  0
    8.2142  -12.3307   24.8058 C   0  0  0  0  0  0  0  0  0  0  0  0
    8.1762  -13.6402   24.3704 C   0  0  0  0  0  0  0  0  0  0  0  0
    7.1551  -14.4653   24.8211 C   0  0  0  0  0  0  0  0  0  0  0  0
    9.8931  -16.5274   24.5657 C   0  0  0  0  0  0  0  0  0  0  0  0
   10.4747  -17.6749   24.6227 O   0  0  0  0  0  0  0  0  0  0  0  0
    9.9295  -13.7424   29.7166 C   0  0  0  0  0  0  0  0  0  0  0  0
    9.8200  -14.8803   28.6902 C   0  0  0  0  0  0  0  0  0  0  0  0
   11.0286  -14.8825   27.7874 C   0  0  2  0  0  0  0  0  0  0  0  0
   11.2284  -13.5235   27.1554 C   0  0  0  0  0  0  0  0  0  0  0  0
   10.9871  -15.9785   26.7389 C   0  0  2  0  0  0  0  0  0  0  0  0
   10.1252  -15.6017   25.6360 N   0  0  0  0  0  0  0  0  0  0  0  0
   10.7149  -17.3043   27.2827 C   0  0  0  0  0  0  0  0  0  0  0  0
   11.5573  -17.8549   28.0342 O   0  0  0  0  0  0  0  0  0  0  0  0
    9.5569  -18.0298   27.0260 O   0  0  0  0  0  0  0  0  0  0  0  0
  2  3  1  0
  2  1  1  0
  3  4  1  1
  5  6  1  6
  5  3  1  0
  7  8  2  0
  7  5  1  0
  9  7  1  0
 10 21  1  0
 10  9  1  0
 10 11  1  1
 12 11  1  0
 13 12  2  0
 14 13  1  0
 15 14  1  0
 15 20  2  0
 16 15  1  0
 17 16  2  0
 17 18  1  0
 18 19  2  0
 19 20  1  0
 20 12  1  0
 21 28  1  0
 22 21  2  0
 23 24  1  0
 24 25  1  0
 25 26  1  6
 25 27  1  0
 27 29  1  0
 27 28  1  6
 29 30  2  0
 29 31  1  0
M  END
$$$$
