IWI.pdb
     RDKit          3D

 31 32  0  0  1  0  0  0  0  0999 V2000
   14.7716  -18.4814   19.2775 C   0  0  0  0  0  0  0  0  0  0  0  0
   13.2508  -18.4197   19.0844 C   0  0  0  0  0  0  0  0  0  0  0  0
   12.7109  -17.5387   20.1826 C   0  0  2  0  0  0  0  0  0  0  0  0
   13.1148  -17.9870   21.5476 C   0  0  0  0  0  0  0  0  0  0  0  0
   11.2180  -17.3814   20.1568 C   0  0  2  0  0  0  0  0  0  0  0  0
   10.8994  -16.7541   18.8685 N   0  0  0  0  0  0  0  0  0  0  0  0
   10.7147  -16.5447   21.2711 C   0  0  0  0  0  0  0  0  0  0  0  0
   11.0808  -15.3449   21.3354 O   0  0  0  0  0  0  0  0  0  0  0  0
    9.8423  -17.0282   22.2663 N   0  0  0  0  0  0  0  0  0  0  0  0
    9.3177  -16.1582   23.3504 C   0  0  1  0  0  0  0  0  0  0  0  0
    7.8361  -16.3494   23.3157 C   0  0  0  0  0  0  0  0  0  0  0  0
    7.0891  -15.6616   24.3870 C   0  0  0  0  0  0  0  0  0  0  0  0
    6.3363  -16.1892   25.4092 C   0  0  0  0  0  0  0  0  0  0  0  0
    5.8022  -15.2048   26.1451 N   0  0  0  0  0  0  0  0  0  0  0  0
    6.1772  -14.0126   25.6436 C   0  0  0  0  0  0  0  0  0  0  0  0
    5.9051  -12.7001   26.0237 C   0  0  0  0  0  0  0  0  0  0  0  0
    6.4251  -11.6451   25.3221 C   0  0  0  0  0  0  0  0  0  0  0  0
    7.2257  -11.9379   24.2284 C   0  0  0  0  0  0  0  0  0  0  0  0
    7.5105  -13.2290   23.8312 C   0  0  0  0  0  0  0  0  0  0  0  0
    6.9742  -14.2849   24.5549 C   0  0  0  0  0  0  0  0  0  0  0  0
    9.8884  -16.6576   24.6085 C   0  0  0  0  0  0  0  0  0  0  0  0
   10.2224  -17.9010   24.6387 O   0  0  0  0  0  0  0  0  0  0  0  0
   10.1655  -13.9720   29.8431 C   0  0  0  0  0  0  0  0  0  0  0  0
    9.7905  -14.9977   28.7625 C   0  0  0  0  0  0  0  0  0  0  0  0
   11.0232  -15.4308   28.0084 C   0  0  2  0  0  0  0  0  0  0  0  0
   11.7412  -14.2358   27.4230 C   0  0  0  0  0  0  0  0  0  0  0  0
   10.7357  -16.4767   26.9474 C   0  0  2  0  0  0  0  0  0  0  0  0
   10.1044  -15.8742   25.7900 N   0  0  0  0  0  0  0  0  0  0  0  0
   10.0467  -17.6577   27.4554 C   0  0  0  0  0  0  0  0  0  0  0  0
    8.8776  -17.9106   27.0719 O   0  0  0  0  0  0  0  0  0  0  0  0
   10.6018  -18.5556   28.3604 O   0  0  0  0  0  0  0  0  0  0  0  0
  2  3  1  0
  2  1  1  0
  3  4  1  1
  5  6  1  6
  5  3  1  0
  7  8  2  0
  7  5  1  0
  9  7  1  0
 10 21  1  0
 10  9  1  0
 10 11  1  1
 12 11  1  0
 13 12  2  0
 14 13  1  0
 15 14  1  0
 15 20  2  0
 16 15  1  0
 17 16  2  0
 17 18  1  0
 18 19  2  0
 19 20  1  0
 20 12  1  0
 21 28  1  0
 22 21  2  0
 23 24  1  0
 24 25  1  0
 25 26  1  6
 25 27  1  0
 27 29  1  0
 27 28  1  6
 29 30  2  0
 29 31  1  0
M  END
$$$$
