IWI.pdb
     RDKit          3D

 31 32  0  0  1  0  0  0  0  0999 V2000
   14.3304  -18.1067   18.4563 C   0  0  0  0  0  0  0  0  0  0  0  0
   12.8017  -18.2373   18.4673 C   0  0  0  0  0  0  0  0  0  0  0  0
   12.2930  -17.2772   19.5127 C   0  0  2  0  0  0  0  0  0  0  0  0
   13.0004  -17.4042   20.8208 C   0  0  0  0  0  0  0  0  0  0  0  0
   10.8154  -17.3752   19.7603 C   0  0  2  0  0  0  0  0  0  0  0  0
   10.1688  -17.0510   18.4831 N   0  0  0  0  0  0  0  0  0  0  0  0
   10.3529  -16.4463   20.8178 C   0  0  0  0  0  0  0  0  0  0  0  0
   10.6156  -15.2236   20.7014 O   0  0  0  0  0  0  0  0  0  0  0  0
    9.6299  -16.8663   21.9519 N   0  0  0  0  0  0  0  0  0  0  0  0
    9.1076  -15.9064   22.9584 C   0  0  1  0  0  0  0  0  0  0  0  0
    7.6426  -16.1897   23.0379 C   0  0  0  0  0  0  0  0  0  0  0  0
    6.9378  -15.5408   24.1608 C   0  0  0  0  0  0  0  0  0  0  0  0
    6.1427  -16.0958   25.1354 C   0  0  0  0  0  0  0  0  0  0  0  0
    5.6734  -15.1397   25.9486 N   0  0  0  0  0  0  0  0  0  0  0  0
    6.1341  -13.9398   25.5468 C   0  0  0  0  0  0  0  0  0  0  0  0
    5.9515  -12.6468   26.0324 C   0  0  0  0  0  0  0  0  0  0  0  0
    6.5488  -11.5772   25.4202 C   0  0  0  0  0  0  0  0  0  0  0  0
    7.3348  -11.8353   24.3073 C   0  0  0  0  0  0  0  0  0  0  0  0
    7.5317  -13.1065   23.8063 C   0  0  0  0  0  0  0  0  0  0  0  0
    6.9180  -14.1777   24.4406 C   0  0  0  0  0  0  0  0  0  0  0  0
    9.7782  -16.2164   24.2281 C   0  0  0  0  0  0  0  0  0  0  0  0
   10.1494  -17.4371   24.4031 O   0  0  0  0  0  0  0  0  0  0  0  0
   10.7600  -14.0872   30.0115 C   0  0  0  0  0  0  0  0  0  0  0  0
   11.1671  -15.0587   28.8930 C   0  0  0  0  0  0  0  0  0  0  0  0
   10.4715  -14.6891   27.6064 C   0  0  2  0  0  0  0  0  0  0  0  0
    9.0098  -14.3912   27.8533 C   0  0  0  0  0  0  0  0  0  0  0  0
   10.6468  -15.7281   26.5146 C   0  0  2  0  0  0  0  0  0  0  0  0
   10.0529  -15.2734   25.2729 N   0  0  0  0  0  0  0  0  0  0  0  0
   10.2446  -17.0730   26.9109 C   0  0  0  0  0  0  0  0  0  0  0  0
    9.0695  -17.4611   26.6959 O   0  0  0  0  0  0  0  0  0  0  0  0
   11.0889  -17.9896   27.5275 O   0  0  0  0  0  0  0  0  0  0  0  0
  2  3  1  0
  2  1  1  0
  3  4  1  1
  5  6  1  6
  5  3  1  0
  7  8  2  0
  7  5  1  0
  9  7  1  0
 10 21  1  0
 10  9  1  0
 10 11  1  1
 12 11  1  0
 13 12  2  0
 14 13  1  0
 15 14  1  0
 15 20  2  0
 16 15  1  0
 17 16  2  0
 17 18  1  0
 18 19  2  0
 19 20  1  0
 20 12  1  0
 21 28  1  0
 22 21  2  0
 23 24  1  0
 24 25  1  0
 25 26  1  1
 25 27  1  0
 27 29  1  0
 27 28  1  6
 29 30  2  0
 29 31  1  0
M  END
$$$$
