IWI.pdb
     RDKit          3D

 31 32  0  0  1  0  0  0  0  0999 V2000
    6.6943  -12.6612   18.8159 C   0  0  0  0  0  0  0  0  0  0  0  0
    7.2252  -14.0856   19.0235 C   0  0  0  0  0  0  0  0  0  0  0  0
    8.0379  -14.0635   20.2934 C   0  0  2  0  0  0  0  0  0  0  0  0
    9.1448  -13.0627   20.2653 C   0  0  0  0  0  0  0  0  0  0  0  0
    8.6137  -15.3980   20.6698 C   0  0  2  0  0  0  0  0  0  0  0  0
    7.4952  -16.3477   20.6278 N   0  0  0  0  0  0  0  0  0  0  0  0
    9.2291  -15.3924   22.0175 C   0  0  0  0  0  0  0  0  0  0  0  0
   10.2441  -14.6787   22.2124 O   0  0  0  0  0  0  0  0  0  0  0  0
    8.7314  -16.1498   23.0964 N   0  0  0  0  0  0  0  0  0  0  0  0
    9.2736  -16.0181   24.4734 C   0  0  1  0  0  0  0  0  0  0  0  0
    8.1311  -16.3627   25.3726 C   0  0  0  0  0  0  0  0  0  0  0  0
    7.1637  -15.2723   25.6044 C   0  0  0  0  0  0  0  0  0  0  0  0
    5.7896  -15.2959   25.5658 C   0  0  0  0  0  0  0  0  0  0  0  0
    5.2997  -14.0724   25.8083 N   0  0  0  0  0  0  0  0  0  0  0  0
    6.3154  -13.2120   26.0122 C   0  0  0  0  0  0  0  0  0  0  0  0
    6.3561  -11.8487   26.2959 C   0  0  0  0  0  0  0  0  0  0  0  0
    7.5524  -11.2021   26.4590 C   0  0  0  0  0  0  0  0  0  0  0  0
    8.7088  -11.9564   26.3305 C   0  0  0  0  0  0  0  0  0  0  0  0
    8.6958  -13.3080   26.0499 C   0  0  0  0  0  0  0  0  0  0  0  0
    7.4736  -13.9455   25.8881 C   0  0  0  0  0  0  0  0  0  0  0  0
   10.3609  -16.9983   24.5965 C   0  0  0  0  0  0  0  0  0  0  0  0
   10.1852  -18.1331   24.0138 O   0  0  0  0  0  0  0  0  0  0  0  0
   15.4365  -16.0444   23.5705 C   0  0  0  0  0  0  0  0  0  0  0  0
   14.0065  -16.5528   23.8091 C   0  0  0  0  0  0  0  0  0  0  0  0
   13.9513  -17.3703   25.0758 C   0  0  2  0  0  0  0  0  0  0  0  0
   14.9417  -18.5115   25.0212 C   0  0  0  0  0  0  0  0  0  0  0  0
   12.5554  -17.8657   25.4047 C   0  0  2  0  0  0  0  0  0  0  0  0
   11.5909  -16.7883   25.3032 N   0  0  0  0  0  0  0  0  0  0  0  0
   12.4763  -18.6215   26.6497 C   0  0  0  0  0  0  0  0  0  0  0  0
   11.9555  -18.0973   27.6654 O   0  0  0  0  0  0  0  0  0  0  0  0
   12.9473  -19.9205   26.8047 O   0  0  0  0  0  0  0  0  0  0  0  0
  2  3  1  0
  2  1  1  0
  3  4  1  6
  5  6  1  1
  5  3  1  0
  7  8  2  0
  7  5  1  0
  9  7  1  0
 10 21  1  0
 10  9  1  0
 10 11  1  1
 12 11  1  0
 13 12  2  0
 14 13  1  0
 15 14  1  0
 15 20  2  0
 16 15  1  0
 17 16  2  0
 17 18  1  0
 18 19  2  0
 19 20  1  0
 20 12  1  0
 21 28  1  0
 22 21  2  0
 23 24  1  0
 24 25  1  0
 25 26  1  6
 25 27  1  0
 27 29  1  0
 27 28  1  1
 29 30  2  0
 29 31  1  0
M  END
$$$$
