IWI.pdb
     RDKit          3D

 31 32  0  0  1  0  0  0  0  0999 V2000
   13.6247  -20.7620   19.4995 C   0  0  0  0  0  0  0  0  0  0  0  0
   12.1353  -20.3954   19.4642 C   0  0  0  0  0  0  0  0  0  0  0  0
   11.9407  -19.2799   20.4597 C   0  0  2  0  0  0  0  0  0  0  0  0
   12.4708  -19.6042   21.8167 C   0  0  0  0  0  0  0  0  0  0  0  0
   10.5141  -18.8336   20.6013 C   0  0  2  0  0  0  0  0  0  0  0  0
   10.0691  -18.4666   19.2516 N   0  0  0  0  0  0  0  0  0  0  0  0
   10.3674  -17.6800   21.5193 C   0  0  0  0  0  0  0  0  0  0  0  0
   10.9935  -16.6222   21.2610 O   0  0  0  0  0  0  0  0  0  0  0  0
    9.5574  -17.7090   22.6719 N   0  0  0  0  0  0  0  0  0  0  0  0
    9.3713  -16.5172   23.5393 C   0  0  1  0  0  0  0  0  0  0  0  0
    7.8983  -16.2659   23.5388 C   0  0  0  0  0  0  0  0  0  0  0  0
    7.5042  -14.8437   23.5645 C   0  0  0  0  0  0  0  0  0  0  0  0
    7.5797  -13.8945   22.5728 C   0  0  0  0  0  0  0  0  0  0  0  0
    7.1402  -12.7137   23.0293 N   0  0  0  0  0  0  0  0  0  0  0  0
    6.7651  -12.8390   24.3165 C   0  0  0  0  0  0  0  0  0  0  0  0
    6.2478  -11.9353   25.2420 C   0  0  0  0  0  0  0  0  0  0  0  0
    5.9457  -12.3335   26.5172 C   0  0  0  0  0  0  0  0  0  0  0  0
    6.1751  -13.6617   26.8427 C   0  0  0  0  0  0  0  0  0  0  0  0
    6.6867  -14.5768   25.9446 C   0  0  0  0  0  0  0  0  0  0  0  0
    6.9866  -14.1542   24.6570 C   0  0  0  0  0  0  0  0  0  0  0  0
    9.8463  -16.8892   24.8787 C   0  0  0  0  0  0  0  0  0  0  0  0
    9.6402  -18.1055   25.2483 O   0  0  0  0  0  0  0  0  0  0  0  0
    9.8604  -14.3936   29.7608 C   0  0  0  0  0  0  0  0  0  0  0  0
   10.2750  -14.3130   28.2836 C   0  0  0  0  0  0  0  0  0  0  0  0
   11.3447  -15.3350   27.9886 C   0  0  2  0  0  0  0  0  0  0  0  0
   12.5647  -14.6757   27.3858 C   0  0  0  0  0  0  0  0  0  0  0  0
   10.8521  -16.4805   27.1243 C   0  0  2  0  0  0  0  0  0  0  0  0
   10.5189  -16.0131   25.7932 N   0  0  0  0  0  0  0  0  0  0  0  0
    9.8106  -17.2866   27.7514 C   0  0  0  0  0  0  0  0  0  0  0  0
    8.6183  -17.1671   27.3750 O   0  0  0  0  0  0  0  0  0  0  0  0
   10.0427  -18.2080   28.7664 O   0  0  0  0  0  0  0  0  0  0  0  0
  2  3  1  0
  2  1  1  0
  3  4  1  1
  5  6  1  6
  5  3  1  0
  7  8  2  0
  7  5  1  0
  9  7  1  0
 10 21  1  0
 10  9  1  0
 10 11  1  1
 12 11  1  0
 13 12  2  0
 14 13  1  0
 15 14  1  0
 15 20  2  0
 16 15  1  0
 17 16  2  0
 17 18  1  0
 18 19  2  0
 19 20  1  0
 20 12  1  0
 21 28  1  0
 22 21  2  0
 23 24  1  0
 24 25  1  0
 25 26  1  6
 25 27  1  0
 27 29  1  0
 27 28  1  6
 29 30  2  0
 29 31  1  0
M  END
$$$$
