IWI.pdb
     RDKit          3D

 31 32  0  0  1  0  0  0  0  0999 V2000
   14.7450  -19.2117   19.9431 C   0  0  0  0  0  0  0  0  0  0  0  0
   13.3581  -18.7583   19.4689 C   0  0  0  0  0  0  0  0  0  0  0  0
   12.7911  -17.8869   20.5610 C   0  0  2  0  0  0  0  0  0  0  0  0
   12.8281  -18.5322   21.9062 C   0  0  0  0  0  0  0  0  0  0  0  0
   11.3894  -17.4176   20.2978 C   0  0  2  0  0  0  0  0  0  0  0  0
   11.4479  -16.6490   19.0486 N   0  0  0  0  0  0  0  0  0  0  0  0
   10.8571  -16.5735   21.3929 C   0  0  0  0  0  0  0  0  0  0  0  0
   11.4192  -15.4766   21.6345 O   0  0  0  0  0  0  0  0  0  0  0  0
    9.7474  -16.9399   22.1800 N   0  0  0  0  0  0  0  0  0  0  0  0
    9.1962  -16.0504   23.2347 C   0  0  1  0  0  0  0  0  0  0  0  0
    7.7146  -16.2260   23.1521 C   0  0  0  0  0  0  0  0  0  0  0  0
    6.9400  -15.5213   24.1923 C   0  0  0  0  0  0  0  0  0  0  0  0
    6.1095  -16.0295   25.1629 C   0  0  0  0  0  0  0  0  0  0  0  0
    5.5787  -15.0330   25.8847 N   0  0  0  0  0  0  0  0  0  0  0  0
    6.0321  -13.8515   25.4244 C   0  0  0  0  0  0  0  0  0  0  0  0
    5.7966  -12.5338   25.8107 C   0  0  0  0  0  0  0  0  0  0  0  0
    6.3999  -11.4930   25.1562 C   0  0  0  0  0  0  0  0  0  0  0  0
    7.2463  -11.8053   24.1032 C   0  0  0  0  0  0  0  0  0  0  0  0
    7.4964  -13.1019   23.7008 C   0  0  0  0  0  0  0  0  0  0  0  0
    6.8757  -14.1433   24.3765 C   0  0  0  0  0  0  0  0  0  0  0  0
    9.7184  -16.5397   24.5176 C   0  0  0  0  0  0  0  0  0  0  0  0
   10.1554  -17.7509   24.5401 O   0  0  0  0  0  0  0  0  0  0  0  0
   10.0511  -13.0636   28.9189 C   0  0  0  0  0  0  0  0  0  0  0  0
   10.3625  -13.9430   27.6981 C   0  0  0  0  0  0  0  0  0  0  0  0
   10.3169  -15.4007   28.0838 C   0  0  2  0  0  0  0  0  0  0  0  0
   11.3545  -15.7089   29.1395 C   0  0  0  0  0  0  0  0  0  0  0  0
   10.4434  -16.3356   26.8954 C   0  0  2  0  0  0  0  0  0  0  0  0
    9.7829  -15.7788   25.7314 N   0  0  0  0  0  0  0  0  0  0  0  0
   10.0723  -17.7154   27.1888 C   0  0  0  0  0  0  0  0  0  0  0  0
   10.9200  -18.4963   27.6880 O   0  0  0  0  0  0  0  0  0  0  0  0
    8.8112  -18.2510   26.9519 O   0  0  0  0  0  0  0  0  0  0  0  0
  2  3  1  0
  2  1  1  0
  3  4  1  1
  5  6  1  6
  5  3  1  0
  7  8  2  0
  7  5  1  0
  9  7  1  0
 10 21  1  0
 10  9  1  0
 10 11  1  1
 12 11  1  0
 13 12  2  0
 14 13  1  0
 15 14  1  0
 15 20  2  0
 16 15  1  0
 17 16  2  0
 17 18  1  0
 18 19  2  0
 19 20  1  0
 20 12  1  0
 21 28  1  0
 22 21  2  0
 23 24  1  0
 24 25  1  0
 25 26  1  1
 25 27  1  0
 27 29  1  0
 27 28  1  6
 29 30  2  0
 29 31  1  0
M  END
$$$$
