IWI.pdb
     RDKit          3D

 31 32  0  0  1  0  0  0  0  0999 V2000
   13.8606  -21.0231   19.4290 C   0  0  0  0  0  0  0  0  0  0  0  0
   12.4067  -20.5542   19.2869 C   0  0  0  0  0  0  0  0  0  0  0  0
   12.2708  -19.3068   20.1229 C   0  0  2  0  0  0  0  0  0  0  0  0
   12.8039  -19.4666   21.5078 C   0  0  0  0  0  0  0  0  0  0  0  0
   10.8658  -18.7850   20.2122 C   0  0  2  0  0  0  0  0  0  0  0  0
   10.4464  -18.5139   18.8319 N   0  0  0  0  0  0  0  0  0  0  0  0
   10.7676  -17.5520   21.0278 C   0  0  0  0  0  0  0  0  0  0  0  0
   11.5793  -16.6191   20.8080 O   0  0  0  0  0  0  0  0  0  0  0  0
    9.8056  -17.3717   22.0414 N   0  0  0  0  0  0  0  0  0  0  0  0
    9.6685  -16.0927   22.7848 C   0  0  1  0  0  0  0  0  0  0  0  0
    8.2353  -15.7029   22.6212 C   0  0  0  0  0  0  0  0  0  0  0  0
    7.8909  -14.3553   23.1152 C   0  0  0  0  0  0  0  0  0  0  0  0
    8.0802  -13.1292   22.5230 C   0  0  0  0  0  0  0  0  0  0  0  0
    7.6472  -12.1533   23.3330 N   0  0  0  0  0  0  0  0  0  0  0  0
    7.1647  -12.6912   24.4693 C   0  0  0  0  0  0  0  0  0  0  0  0
    6.6064  -12.1318   25.6166 C   0  0  0  0  0  0  0  0  0  0  0  0
    6.1879  -12.9256   26.6512 C   0  0  0  0  0  0  0  0  0  0  0  0
    6.3430  -14.2961   26.5079 C   0  0  0  0  0  0  0  0  0  0  0  0
    6.8931  -14.8753   25.3820 C   0  0  0  0  0  0  0  0  0  0  0  0
    7.3112  -14.0542   24.3440 C   0  0  0  0  0  0  0  0  0  0  0  0
    9.9829  -16.3833   24.1901 C   0  0  0  0  0  0  0  0  0  0  0  0
    9.5990  -17.5255   24.6444 O   0  0  0  0  0  0  0  0  0  0  0  0
   10.7476  -13.5958   29.6328 C   0  0  0  0  0  0  0  0  0  0  0  0
   10.9034  -14.8895   28.8188 C   0  0  0  0  0  0  0  0  0  0  0  0
   10.6541  -14.6152   27.3565 C   0  0  2  0  0  0  0  0  0  0  0  0
    9.3084  -13.9554   27.1563 C   0  0  0  0  0  0  0  0  0  0  0  0
   10.7991  -15.8493   26.4857 C   0  0  2  0  0  0  0  0  0  0  0  0
   10.6811  -15.5046   25.0827 N   0  0  0  0  0  0  0  0  0  0  0  0
    9.9549  -16.9647   26.8989 C   0  0  0  0  0  0  0  0  0  0  0  0
    8.7409  -16.9805   26.5769 O   0  0  0  0  0  0  0  0  0  0  0  0
   10.4044  -18.0483   27.6453 O   0  0  0  0  0  0  0  0  0  0  0  0
  2  3  1  0
  2  1  1  0
  3  4  1  1
  5  6  1  6
  5  3  1  0
  7  8  2  0
  7  5  1  0
  9  7  1  0
 10 21  1  0
 10  9  1  0
 10 11  1  1
 12 11  1  0
 13 12  2  0
 14 13  1  0
 15 14  1  0
 15 20  2  0
 16 15  1  0
 17 16  2  0
 17 18  1  0
 18 19  2  0
 19 20  1  0
 20 12  1  0
 21 28  1  0
 22 21  2  0
 23 24  1  0
 24 25  1  0
 25 26  1  1
 25 27  1  0
 27 29  1  0
 27 28  1  6
 29 30  2  0
 29 31  1  0
M  END
$$$$
