IWI.pdb
     RDKit          3D

 31 32  0  0  1  0  0  0  0  0999 V2000
   14.0279  -18.5214   18.9080 C   0  0  0  0  0  0  0  0  0  0  0  0
   12.5356  -18.7915   19.1403 C   0  0  0  0  0  0  0  0  0  0  0  0
   11.9381  -17.5058   19.6537 C   0  0  2  0  0  0  0  0  0  0  0  0
   12.6163  -16.9911   20.8795 C   0  0  0  0  0  0  0  0  0  0  0  0
   10.4636  -17.5867   19.9252 C   0  0  2  0  0  0  0  0  0  0  0  0
    9.8002  -17.1843   18.6792 N   0  0  0  0  0  0  0  0  0  0  0  0
   10.0407  -16.7043   21.0376 C   0  0  0  0  0  0  0  0  0  0  0  0
    9.9897  -15.4655   20.8367 O   0  0  0  0  0  0  0  0  0  0  0  0
    9.6909  -17.1860   22.3146 N   0  0  0  0  0  0  0  0  0  0  0  0
    9.1361  -16.3003   23.3706 C   0  0  1  0  0  0  0  0  0  0  0  0
    7.7194  -16.7438   23.5413 C   0  0  0  0  0  0  0  0  0  0  0  0
    6.8871  -15.8723   24.3935 C   0  0  0  0  0  0  0  0  0  0  0  0
    5.6529  -16.1101   24.9505 C   0  0  0  0  0  0  0  0  0  0  0  0
    5.2391  -15.0338   25.6331 N   0  0  0  0  0  0  0  0  0  0  0  0
    6.1695  -14.0635   25.5527 C   0  0  0  0  0  0  0  0  0  0  0  0
    6.2347  -12.7719   26.0708 C   0  0  0  0  0  0  0  0  0  0  0  0
    7.3223  -11.9746   25.8313 C   0  0  0  0  0  0  0  0  0  0  0  0
    8.3445  -12.5042   25.0584 C   0  0  0  0  0  0  0  0  0  0  0  0
    8.3044  -13.7803   24.5334 C   0  0  0  0  0  0  0  0  0  0  0  0
    7.1938  -14.5731   24.7872 C   0  0  0  0  0  0  0  0  0  0  0  0
    9.9207  -16.5485   24.5876 C   0  0  0  0  0  0  0  0  0  0  0  0
   10.5473  -17.6716   24.6527 O   0  0  0  0  0  0  0  0  0  0  0  0
    9.3439  -13.4082   29.2787 C   0  0  0  0  0  0  0  0  0  0  0  0
    9.3687  -14.3950   28.1013 C   0  0  0  0  0  0  0  0  0  0  0  0
   10.7572  -14.9581   27.9258 C   0  0  2  0  0  0  0  0  0  0  0  0
   11.7580  -13.8513   27.6817 C   0  0  0  0  0  0  0  0  0  0  0  0
   10.8365  -16.0222   26.8471 C   0  0  2  0  0  0  0  0  0  0  0  0
   10.0449  -15.6438   25.6932 N   0  0  0  0  0  0  0  0  0  0  0  0
   10.5766  -17.3733   27.3316 C   0  0  0  0  0  0  0  0  0  0  0  0
    9.4973  -17.9443   27.0371 O   0  0  0  0  0  0  0  0  0  0  0  0
   11.4600  -18.1027   28.1195 O   0  0  0  0  0  0  0  0  0  0  0  0
  2  3  1  0
  2  1  1  0
  3  4  1  1
  5  6  1  6
  5  3  1  0
  7  8  2  0
  7  5  1  0
  9  7  1  0
 10 21  1  0
 10  9  1  0
 10 11  1  1
 12 11  1  0
 13 12  2  0
 14 13  1  0
 15 14  1  0
 15 20  2  0
 16 15  1  0
 17 16  2  0
 17 18  1  0
 18 19  2  0
 19 20  1  0
 20 12  1  0
 21 28  1  0
 22 21  2  0
 23 24  1  0
 24 25  1  0
 25 26  1  6
 25 27  1  0
 27 29  1  0
 27 28  1  6
 29 30  2  0
 29 31  1  0
M  END
$$$$
