IWI.pdb
     RDKit          3D

 31 32  0  0  1  0  0  0  0  0999 V2000
    8.7105  -12.2177   18.4237 C   0  0  0  0  0  0  0  0  0  0  0  0
    9.5839  -13.1827   19.2362 C   0  0  0  0  0  0  0  0  0  0  0  0
    8.8602  -14.5053   19.2601 C   0  0  2  0  0  0  0  0  0  0  0  0
    7.4652  -14.4023   19.7805 C   0  0  0  0  0  0  0  0  0  0  0  0
    9.5767  -15.5763   20.0306 C   0  0  2  0  0  0  0  0  0  0  0  0
    8.8476  -16.8223   19.7650 N   0  0  0  0  0  0  0  0  0  0  0  0
    9.6102  -15.3040   21.4865 C   0  0  0  0  0  0  0  0  0  0  0  0
   10.3921  -14.4196   21.9153 O   0  0  0  0  0  0  0  0  0  0  0  0
    8.8057  -15.9893   22.4185 N   0  0  0  0  0  0  0  0  0  0  0  0
    8.5913  -15.4869   23.8002 C   0  0  1  0  0  0  0  0  0  0  0  0
    7.2861  -16.0760   24.2268 C   0  0  0  0  0  0  0  0  0  0  0  0
    6.4328  -15.1883   25.0407 C   0  0  0  0  0  0  0  0  0  0  0  0
    5.1859  -15.4164   25.5730 C   0  0  0  0  0  0  0  0  0  0  0  0
    4.7548  -14.3267   26.2231 N   0  0  0  0  0  0  0  0  0  0  0  0
    5.6858  -13.3569   26.1446 C   0  0  0  0  0  0  0  0  0  0  0  0
    5.7373  -12.0548   26.6372 C   0  0  0  0  0  0  0  0  0  0  0  0
    6.8295  -11.2610   26.4071 C   0  0  0  0  0  0  0  0  0  0  0  0
    7.8704  -11.8049   25.6699 C   0  0  0  0  0  0  0  0  0  0  0  0
    7.8441  -13.0917   25.1708 C   0  0  0  0  0  0  0  0  0  0  0  0
    6.7286  -13.8808   25.4145 C   0  0  0  0  0  0  0  0  0  0  0  0
    9.6989  -16.0030   24.6157 C   0  0  0  0  0  0  0  0  0  0  0  0
   10.3712  -16.9847   24.1231 O   0  0  0  0  0  0  0  0  0  0  0  0
   10.8785  -13.6549   29.5777 C   0  0  0  0  0  0  0  0  0  0  0  0
   10.9339  -14.1412   28.1214 C   0  0  0  0  0  0  0  0  0  0  0  0
   11.1805  -15.6289   28.0804 C   0  0  2  0  0  0  0  0  0  0  0  0
   12.5054  -15.9708   28.7240 C   0  0  0  0  0  0  0  0  0  0  0  0
   11.0787  -16.2114   26.6831 C   0  0  2  0  0  0  0  0  0  0  0  0
   10.0874  -15.4994   25.9009 N   0  0  0  0  0  0  0  0  0  0  0  0
   10.9281  -17.6620   26.6587 C   0  0  0  0  0  0  0  0  0  0  0  0
   11.9005  -18.3843   26.3266 O   0  0  0  0  0  0  0  0  0  0  0  0
    9.7533  -18.3298   26.9863 O   0  0  0  0  0  0  0  0  0  0  0  0
  2  3  1  0
  2  1  1  0
  3  4  1  1
  5  6  1  1
  5  3  1  0
  7  8  2  0
  7  5  1  0
  9  7  1  0
 10 21  1  0
 10  9  1  0
 10 11  1  1
 12 11  1  0
 13 12  2  0
 14 13  1  0
 15 14  1  0
 15 20  2  0
 16 15  1  0
 17 16  2  0
 17 18  1  0
 18 19  2  0
 19 20  1  0
 20 12  1  0
 21 28  1  0
 22 21  2  0
 23 24  1  0
 24 25  1  0
 25 26  1  6
 25 27  1  0
 27 29  1  0
 27 28  1  1
 29 30  2  0
 29 31  1  0
M  END
$$$$
