IWI.pdb
     RDKit          3D

 31 32  0  0  1  0  0  0  0  0999 V2000
   13.5624  -17.6504   18.2725 C   0  0  0  0  0  0  0  0  0  0  0  0
   12.0745  -17.9284   18.5231 C   0  0  0  0  0  0  0  0  0  0  0  0
   11.6764  -17.1045   19.7216 C   0  0  2  0  0  0  0  0  0  0  0  0
   12.5836  -17.2930   20.8916 C   0  0  0  0  0  0  0  0  0  0  0  0
   10.2634  -17.3336   20.1744 C   0  0  2  0  0  0  0  0  0  0  0  0
    9.4082  -16.9292   19.0521 N   0  0  0  0  0  0  0  0  0  0  0  0
    9.9205  -16.5525   21.3858 C   0  0  0  0  0  0  0  0  0  0  0  0
   10.0429  -15.3030   21.3505 O   0  0  0  0  0  0  0  0  0  0  0  0
    9.4616  -17.1424   22.5802 N   0  0  0  0  0  0  0  0  0  0  0  0
    9.0504  -16.3331   23.7563 C   0  0  1  0  0  0  0  0  0  0  0  0
    7.7163  -16.8773   24.1520 C   0  0  0  0  0  0  0  0  0  0  0  0
    6.8185  -15.9145   24.8196 C   0  0  0  0  0  0  0  0  0  0  0  0
    5.5520  -16.0990   25.3216 C   0  0  0  0  0  0  0  0  0  0  0  0
    5.0809  -14.9481   25.8209 N   0  0  0  0  0  0  0  0  0  0  0  0
    6.0039  -13.9793   25.6690 C   0  0  0  0  0  0  0  0  0  0  0  0
    6.0196  -12.6280   26.0076 C   0  0  0  0  0  0  0  0  0  0  0  0
    7.1121  -11.8491   25.7327 C   0  0  0  0  0  0  0  0  0  0  0  0
    8.1902  -12.4584   25.1089 C   0  0  0  0  0  0  0  0  0  0  0  0
    8.1999  -13.7949   24.7631 C   0  0  0  0  0  0  0  0  0  0  0  0
    7.0834  -14.5679   25.0500 C   0  0  0  0  0  0  0  0  0  0  0  0
   10.0524  -16.5687   24.8044 C   0  0  0  0  0  0  0  0  0  0  0  0
   10.7676  -17.6337   24.6919 O   0  0  0  0  0  0  0  0  0  0  0  0
    9.8552  -14.2988   30.1102 C   0  0  0  0  0  0  0  0  0  0  0  0
    9.8298  -15.2637   28.9149 C   0  0  0  0  0  0  0  0  0  0  0  0
   11.1340  -15.1894   28.1606 C   0  0  2  0  0  0  0  0  0  0  0  0
   11.4288  -13.7680   27.7376 C   0  0  0  0  0  0  0  0  0  0  0  0
   11.1945  -16.1408   26.9801 C   0  0  2  0  0  0  0  0  0  0  0  0
   10.2957  -15.7107   25.9273 N   0  0  0  0  0  0  0  0  0  0  0  0
   11.0542  -17.5454   27.3474 C   0  0  0  0  0  0  0  0  0  0  0  0
   12.0164  -18.1488   27.8837 O   0  0  0  0  0  0  0  0  0  0  0  0
    9.8996  -18.2931   27.1441 O   0  0  0  0  0  0  0  0  0  0  0  0
  2  3  1  0
  2  1  1  0
  3  4  1  1
  5  6  1  6
  5  3  1  0
  7  8  2  0
  7  5  1  0
  9  7  1  0
 10 21  1  0
 10  9  1  0
 10 11  1  1
 12 11  1  0
 13 12  2  0
 14 13  1  0
 15 14  1  0
 15 20  2  0
 16 15  1  0
 17 16  2  0
 17 18  1  0
 18 19  2  0
 19 20  1  0
 20 12  1  0
 21 28  1  0
 22 21  2  0
 23 24  1  0
 24 25  1  0
 25 26  1  6
 25 27  1  0
 27 29  1  0
 27 28  1  6
 29 30  2  0
 29 31  1  0
M  END
$$$$
