IWI.pdb
     RDKit          3D

 31 32  0  0  1  0  0  0  0  0999 V2000
   14.2027  -18.4401   18.9377 C   0  0  0  0  0  0  0  0  0  0  0  0
   12.6698  -18.4524   18.8730 C   0  0  0  0  0  0  0  0  0  0  0  0
   12.1825  -17.5696   19.9940 C   0  0  2  0  0  0  0  0  0  0  0  0
   12.7666  -17.9276   21.3200 C   0  0  0  0  0  0  0  0  0  0  0  0
   10.6878  -17.5282   20.1290 C   0  0  2  0  0  0  0  0  0  0  0  0
   10.1817  -16.9906   18.8604 N   0  0  0  0  0  0  0  0  0  0  0  0
   10.2418  -16.6790   21.2582 C   0  0  0  0  0  0  0  0  0  0  0  0
   10.5359  -15.4579   21.2454 O   0  0  0  0  0  0  0  0  0  0  0  0
    9.5011  -17.1733   22.3501 N   0  0  0  0  0  0  0  0  0  0  0  0
    9.0183  -16.2913   23.4439 C   0  0  1  0  0  0  0  0  0  0  0  0
    7.6442  -16.7858   23.7602 C   0  0  0  0  0  0  0  0  0  0  0  0
    6.8362  -15.8920   24.6128 C   0  0  0  0  0  0  0  0  0  0  0  0
    5.6127  -16.1103   25.2006 C   0  0  0  0  0  0  0  0  0  0  0  0
    5.2208  -15.0180   25.8707 N   0  0  0  0  0  0  0  0  0  0  0  0
    6.1556  -14.0560   25.7514 C   0  0  0  0  0  0  0  0  0  0  0  0
    6.2406  -12.7551   26.2427 C   0  0  0  0  0  0  0  0  0  0  0  0
    7.3280  -11.9704   25.9644 C   0  0  0  0  0  0  0  0  0  0  0  0
    8.3299  -12.5220   25.1804 C   0  0  0  0  0  0  0  0  0  0  0  0
    8.2700  -13.8078   24.6815 C   0  0  0  0  0  0  0  0  0  0  0  0
    7.1598  -14.5877   24.9744 C   0  0  0  0  0  0  0  0  0  0  0  0
    9.9283  -16.4880   24.5802 C   0  0  0  0  0  0  0  0  0  0  0  0
   10.6215  -17.5733   24.5849 O   0  0  0  0  0  0  0  0  0  0  0  0
    9.9487  -13.5515   29.6514 C   0  0  0  0  0  0  0  0  0  0  0  0
    9.8038  -14.7007   28.6419 C   0  0  0  0  0  0  0  0  0  0  0  0
   11.0429  -14.7996   27.7873 C   0  0  2  0  0  0  0  0  0  0  0  0
   11.3432  -13.4751   27.1227 C   0  0  0  0  0  0  0  0  0  0  0  0
   10.9779  -15.9250   26.7717 C   0  0  2  0  0  0  0  0  0  0  0  0
   10.1055  -15.5720   25.6691 N   0  0  0  0  0  0  0  0  0  0  0  0
   10.7003  -17.2319   27.3570 C   0  0  0  0  0  0  0  0  0  0  0  0
   11.5857  -17.8136   28.0317 O   0  0  0  0  0  0  0  0  0  0  0  0
    9.4916  -17.9058   27.2225 O   0  0  0  0  0  0  0  0  0  0  0  0
  2  3  1  0
  2  1  1  0
  3  4  1  1
  5  6  1  6
  5  3  1  0
  7  8  2  0
  7  5  1  0
  9  7  1  0
 10 21  1  0
 10  9  1  0
 10 11  1  1
 12 11  1  0
 13 12  2  0
 14 13  1  0
 15 14  1  0
 15 20  2  0
 16 15  1  0
 17 16  2  0
 17 18  1  0
 18 19  2  0
 19 20  1  0
 20 12  1  0
 21 28  1  0
 22 21  2  0
 23 24  1  0
 24 25  1  0
 25 26  1  6
 25 27  1  0
 27 29  1  0
 27 28  1  6
 29 30  2  0
 29 31  1  0
M  END
$$$$
