IWI.pdb
     RDKit          3D

 31 32  0  0  1  0  0  0  0  0999 V2000
   14.9965  -16.6740   19.6144 C   0  0  0  0  0  0  0  0  0  0  0  0
   13.5747  -17.2487   19.6616 C   0  0  0  0  0  0  0  0  0  0  0  0
   12.6312  -16.0791   19.5383 C   0  0  2  0  0  0  0  0  0  0  0  0
   12.9214  -14.9850   20.5110 C   0  0  0  0  0  0  0  0  0  0  0  0
   11.1819  -16.4518   19.6612 C   0  0  2  0  0  0  0  0  0  0  0  0
   10.5459  -16.0209   18.4104 N   0  0  0  0  0  0  0  0  0  0  0  0
   10.5239  -15.8029   20.8192 C   0  0  0  0  0  0  0  0  0  0  0  0
   10.4764  -14.5485   20.8590 O   0  0  0  0  0  0  0  0  0  0  0  0
    9.9457  -16.5245   21.8824 N   0  0  0  0  0  0  0  0  0  0  0  0
    9.2896  -15.8508   23.0326 C   0  0  1  0  0  0  0  0  0  0  0  0
    7.9559  -16.5127   23.1580 C   0  0  0  0  0  0  0  0  0  0  0  0
    7.1254  -16.0429   24.2842 C   0  0  0  0  0  0  0  0  0  0  0  0
    6.0608  -16.6537   24.9035 C   0  0  0  0  0  0  0  0  0  0  0  0
    5.5716  -15.8625   25.8681 N   0  0  0  0  0  0  0  0  0  0  0  0
    6.2837  -14.7207   25.9193 C   0  0  0  0  0  0  0  0  0  0  0  0
    6.1935  -13.5863   26.7230 C   0  0  0  0  0  0  0  0  0  0  0  0
    7.0643  -12.5416   26.5613 C   0  0  0  0  0  0  0  0  0  0  0  0
    8.0292  -12.6617   25.5727 C   0  0  0  0  0  0  0  0  0  0  0  0
    8.1398  -13.7745   24.7633 C   0  0  0  0  0  0  0  0  0  0  0  0
    7.2481  -14.8229   24.9424 C   0  0  0  0  0  0  0  0  0  0  0  0
   10.1260  -16.1134   24.2113 C   0  0  0  0  0  0  0  0  0  0  0  0
   10.9149  -17.1292   24.1459 O   0  0  0  0  0  0  0  0  0  0  0  0
   10.0737  -13.2159   29.3413 C   0  0  0  0  0  0  0  0  0  0  0  0
    9.7943  -14.3249   28.3154 C   0  0  0  0  0  0  0  0  0  0  0  0
   11.0608  -14.6787   27.5762 C   0  0  2  0  0  0  0  0  0  0  0  0
   11.6630  -13.4532   26.9269 C   0  0  0  0  0  0  0  0  0  0  0  0
   10.8706  -15.7993   26.5710 C   0  0  2  0  0  0  0  0  0  0  0  0
   10.1350  -15.3311   25.4130 N   0  0  0  0  0  0  0  0  0  0  0  0
   10.3469  -17.0302   27.1525 C   0  0  0  0  0  0  0  0  0  0  0  0
    9.2012  -17.4330   26.8320 O   0  0  0  0  0  0  0  0  0  0  0  0
   11.0405  -17.8191   28.0635 O   0  0  0  0  0  0  0  0  0  0  0  0
  2  3  1  0
  2  1  1  0
  3  4  1  1
  5  6  1  6
  5  3  1  0
  7  8  2  0
  7  5  1  0
  9  7  1  0
 10 21  1  0
 10  9  1  0
 10 11  1  1
 12 11  1  0
 13 12  2  0
 14 13  1  0
 15 14  1  0
 15 20  2  0
 16 15  1  0
 17 16  2  0
 17 18  1  0
 18 19  2  0
 19 20  1  0
 20 12  1  0
 21 28  1  0
 22 21  2  0
 23 24  1  0
 24 25  1  0
 25 26  1  6
 25 27  1  0
 27 29  1  0
 27 28  1  6
 29 30  2  0
 29 31  1  0
M  END
$$$$
