TSL.pdb
     RDKit          3D

 22 21  0  0  1  0  0  0  0  0999 V2000
   19.8880   -8.3276  -20.5762 C   0  0  0  0  0  0  0  0  0  0  0  0
   18.6867   -8.9350  -19.9214 C   0  0  1  0  0  0  0  0  0  0  0  0
   18.2005  -10.0292  -20.6260 O   0  0  0  0  0  0  0  0  0  0  0  0
   18.9490   -9.3475  -18.4912 C   0  0  2  0  0  0  0  0  0  0  0  0
   17.7543  -10.0140  -18.0218 N   0  0  0  0  0  0  0  0  0  0  0  0
   19.2502   -8.2095  -17.6040 C   0  0  0  0  0  0  0  0  0  0  0  0
   18.3976   -7.2985  -17.4729 O   0  0  0  0  0  0  0  0  0  0  0  0
   23.0796   -7.5694  -16.2480 O   0  0  0  0  0  0  0  0  0  0  0  0
   22.1042   -7.0848  -15.4048 C   0  0  0  0  0  0  0  0  0  0  0  0
   20.7853   -6.8403  -16.1497 C   0  0  2  0  0  0  0  0  0  0  0  0
   20.4576   -8.0583  -16.8677 N   0  0  0  0  0  0  0  0  0  0  0  0
   20.9768   -5.6904  -17.0551 C   0  0  0  0  0  0  0  0  0  0  0  0
   21.1925   -5.9585  -18.2728 O   0  0  0  0  0  0  0  0  0  0  0  0
   18.9275   -2.1982  -20.6107 C   0  0  0  0  0  0  0  0  0  0  0  0
   20.1021   -2.2071  -19.6557 C   0  0  2  0  0  0  0  0  0  0  0  0
   21.3495   -1.8776  -20.3683 C   0  0  0  0  0  0  0  0  0  0  0  0
   20.0945   -3.2653  -18.6416 C   0  0  0  0  0  0  0  0  0  0  0  0
   21.1095   -3.2037  -17.5633 C   0  0  2  0  0  0  0  0  0  0  0  0
   20.9325   -4.3418  -16.6423 N   0  0  0  0  0  0  0  0  0  0  0  0
   20.9822   -2.0056  -16.7523 C   0  0  0  0  0  0  0  0  0  0  0  0
   20.4484   -1.9987  -15.4857 O   0  0  0  0  0  0  0  0  0  0  0  0
   21.3647   -0.9005  -17.2035 O   0  0  0  0  0  0  0  0  0  0  0  0
  2  1  1  6
  2  3  1  0
  4  5  1  1
  4  2  1  0
  6  4  1  0
  6  7  2  0
  9  8  1  0
 10  9  1  6
 10 11  1  0
 10 12  1  0
 11  6  1  0
 12 13  2  0
 12 19  1  0
 15 16  1  6
 15 14  1  0
 17 15  1  0
 18 17  1  6
 19 18  1  0
 20 18  1  0
 20 21  1  0
 22 20  2  0
M  END
$$$$
