TSL.pdb
     RDKit          3D

 22 21  0  0  1  0  0  0  0  0999 V2000
   20.9589   -6.8848  -20.5697 C   0  0  0  0  0  0  0  0  0  0  0  0
   19.5690   -7.3892  -20.8035 C   0  0  1  0  0  0  0  0  0  0  0  0
   19.2896   -7.5543  -22.1542 O   0  0  0  0  0  0  0  0  0  0  0  0
   19.2913   -8.6874  -20.0810 C   0  0  2  0  0  0  0  0  0  0  0  0
   17.9129   -9.0311  -20.3525 N   0  0  0  0  0  0  0  0  0  0  0  0
   19.4905   -8.5956  -18.6234 C   0  0  0  0  0  0  0  0  0  0  0  0
   18.6271   -8.0087  -17.9275 O   0  0  0  0  0  0  0  0  0  0  0  0
   21.1744  -11.1754  -15.7483 O   0  0  0  0  0  0  0  0  0  0  0  0
   21.8082   -9.9831  -16.0201 C   0  0  0  0  0  0  0  0  0  0  0  0
   20.8184   -8.9164  -16.5067 C   0  0  2  0  0  0  0  0  0  0  0  0
   20.6086   -9.1315  -17.9266 N   0  0  0  0  0  0  0  0  0  0  0  0
   21.3976   -7.5892  -16.2206 C   0  0  0  0  0  0  0  0  0  0  0  0
   22.3766   -7.2322  -16.9384 O   0  0  0  0  0  0  0  0  0  0  0  0
   20.9196   -3.4939  -17.3236 C   0  0  0  0  0  0  0  0  0  0  0  0
   19.9077   -3.9843  -16.3100 C   0  0  2  0  0  0  0  0  0  0  0  0
   18.6639   -3.1989  -16.4005 C   0  0  0  0  0  0  0  0  0  0  0  0
   20.4450   -4.3585  -14.9987 C   0  0  0  0  0  0  0  0  0  0  0  0
   21.5075   -5.3907  -14.9502 C   0  0  2  0  0  0  0  0  0  0  0  0
   20.9270   -6.7207  -15.2130 N   0  0  0  0  0  0  0  0  0  0  0  0
   22.1355   -5.4763  -13.6435 C   0  0  0  0  0  0  0  0  0  0  0  0
   22.0281   -6.5710  -12.8191 O   0  0  0  0  0  0  0  0  0  0  0  0
   22.8147   -4.5156  -13.2110 O   0  0  0  0  0  0  0  0  0  0  0  0
  2  1  1  6
  2  3  1  0
  4  5  1  1
  4  2  1  0
  6  4  1  0
  6  7  2  0
  9  8  1  0
 10  9  1  6
 10 11  1  0
 10 12  1  0
 11  6  1  0
 12 13  2  0
 12 19  1  0
 15 16  1  1
 15 14  1  0
 17 15  1  0
 18 17  1  1
 19 18  1  0
 20 18  1  0
 20 21  1  0
 22 20  2  0
M  END
$$$$
