TSL.pdb
     RDKit          3D

 22 21  0  0  1  0  0  0  0  0999 V2000
   19.3744   -9.2426  -18.6356 C   0  0  0  0  0  0  0  0  0  0  0  0
   18.6109  -10.4181  -18.1100 C   0  0  1  0  0  0  0  0  0  0  0  0
   18.0809  -11.1992  -19.1292 O   0  0  0  0  0  0  0  0  0  0  0  0
   19.4425  -11.2933  -17.2006 C   0  0  2  0  0  0  0  0  0  0  0  0
   18.5898  -12.3793  -16.7701 N   0  0  0  0  0  0  0  0  0  0  0  0
   19.9549  -10.5801  -16.0167 C   0  0  0  0  0  0  0  0  0  0  0  0
   19.1374  -10.1053  -15.1918 O   0  0  0  0  0  0  0  0  0  0  0  0
   24.0027   -9.9475  -15.5119 O   0  0  0  0  0  0  0  0  0  0  0  0
   23.2478   -9.8616  -14.3630 C   0  0  0  0  0  0  0  0  0  0  0  0
   21.7898   -9.4974  -14.6722 C   0  0  2  0  0  0  0  0  0  0  0  0
   21.3335  -10.3828  -15.7279 N   0  0  0  0  0  0  0  0  0  0  0  0
   21.7473   -8.0778  -15.0741 C   0  0  0  0  0  0  0  0  0  0  0  0
   21.9424   -7.8304  -16.2996 O   0  0  0  0  0  0  0  0  0  0  0  0
   19.9927   -4.7490  -17.0656 C   0  0  0  0  0  0  0  0  0  0  0  0
   19.3437   -5.1700  -15.7645 C   0  0  2  0  0  0  0  0  0  0  0  0
   17.9272   -4.7635  -15.7387 C   0  0  0  0  0  0  0  0  0  0  0  0
   20.1694   -5.0279  -14.5619 C   0  0  0  0  0  0  0  0  0  0  0  0
   21.5399   -5.5919  -14.5875 C   0  0  2  0  0  0  0  0  0  0  0  0
   21.5063   -7.0099  -14.1838 N   0  0  0  0  0  0  0  0  0  0  0  0
   22.4285   -4.9272  -13.6506 C   0  0  0  0  0  0  0  0  0  0  0  0
   23.0241   -3.7135  -13.8986 O   0  0  0  0  0  0  0  0  0  0  0  0
   22.6924   -5.4645  -12.5493 O   0  0  0  0  0  0  0  0  0  0  0  0
  2  1  1  6
  2  3  1  0
  4  5  1  1
  4  2  1  0
  6  4  1  0
  6  7  2  0
  9  8  1  0
 10  9  1  6
 10 11  1  0
 10 12  1  0
 11  6  1  0
 12 13  2  0
 12 19  1  0
 15 16  1  1
 15 14  1  0
 17 15  1  0
 18 17  1  1
 19 18  1  0
 20 18  1  0
 20 21  1  0
 22 20  2  0
M  END
$$$$
