TSL.pdb
     RDKit          3D

 22 21  0  0  1  0  0  0  0  0999 V2000
   17.2253  -12.7179  -14.7050 C   0  0  0  0  0  0  0  0  0  0  0  0
   17.7443  -13.4083  -15.9277 C   0  0  1  0  0  0  0  0  0  0  0  0
   17.2355  -14.6940  -16.0617 O   0  0  0  0  0  0  0  0  0  0  0  0
   17.4664  -12.6341  -17.1958 C   0  0  2  0  0  0  0  0  0  0  0  0
   17.9537  -13.4399  -18.2935 N   0  0  0  0  0  0  0  0  0  0  0  0
   18.1277  -11.3172  -17.2296 C   0  0  0  0  0  0  0  0  0  0  0  0
   19.3488  -11.2570  -17.5112 O   0  0  0  0  0  0  0  0  0  0  0  0
   16.2857   -7.8300  -15.9100 O   0  0  0  0  0  0  0  0  0  0  0  0
   17.0832   -7.7060  -17.0261 C   0  0  0  0  0  0  0  0  0  0  0  0
   18.1550   -8.8027  -17.0780 C   0  0  2  0  0  0  0  0  0  0  0  0
   17.4772  -10.0809  -16.9626 N   0  0  0  0  0  0  0  0  0  0  0  0
   19.1034   -8.5693  -15.9712 C   0  0  0  0  0  0  0  0  0  0  0  0
   18.8189   -9.1036  -14.8600 O   0  0  0  0  0  0  0  0  0  0  0  0
   22.2182  -10.0210  -13.4352 C   0  0  0  0  0  0  0  0  0  0  0  0
   22.6368   -9.7542  -14.8653 C   0  0  2  0  0  0  0  0  0  0  0  0
   23.8419  -10.5320  -15.2043 C   0  0  0  0  0  0  0  0  0  0  0  0
   22.5063   -8.3677  -15.3224 C   0  0  0  0  0  0  0  0  0  0  0  0
   21.2574   -7.6406  -14.9930 C   0  0  2  0  0  0  0  0  0  0  0  0
   20.2808   -7.8004  -16.0865 N   0  0  0  0  0  0  0  0  0  0  0  0
   21.4716   -6.2112  -14.8499 C   0  0  0  0  0  0  0  0  0  0  0  0
   22.0006   -5.6314  -13.7215 O   0  0  0  0  0  0  0  0  0  0  0  0
   21.1631   -5.4353  -15.7847 O   0  0  0  0  0  0  0  0  0  0  0  0
  2  1  1  1
  2  3  1  0
  4  5  1  6
  4  2  1  0
  6  4  1  0
  6  7  2  0
  9  8  1  0
 10  9  1  1
 10 11  1  0
 10 12  1  0
 11  6  1  0
 12 13  2  0
 12 19  1  0
 15 16  1  1
 15 14  1  0
 17 15  1  0
 18 17  1  6
 19 18  1  0
 20 18  1  0
 20 21  1  0
 22 20  2  0
M  END
$$$$
