TSL.pdb
     RDKit          3D

 22 21  0  0  1  0  0  0  0  0999 V2000
   14.4921   -9.1790  -12.5390 C   0  0  0  0  0  0  0  0  0  0  0  0
   14.1581  -10.6364  -12.6136 C   0  0  1  0  0  0  0  0  0  0  0  0
   12.8903  -10.9115  -12.1167 O   0  0  0  0  0  0  0  0  0  0  0  0
   14.2674  -11.1879  -14.0166 C   0  0  2  0  0  0  0  0  0  0  0  0
   14.0821  -12.6190  -13.9195 N   0  0  0  0  0  0  0  0  0  0  0  0
   15.5683  -10.9090  -14.6511 C   0  0  0  0  0  0  0  0  0  0  0  0
   16.5369  -11.6698  -14.4122 O   0  0  0  0  0  0  0  0  0  0  0  0
   16.2207   -7.5998  -17.1551 O   0  0  0  0  0  0  0  0  0  0  0  0
   16.9086   -8.7669  -17.4037 C   0  0  0  0  0  0  0  0  0  0  0  0
   17.1242   -9.5789  -16.1198 C   0  0  2  0  0  0  0  0  0  0  0  0
   15.8191   -9.8216  -15.5329 N   0  0  0  0  0  0  0  0  0  0  0  0
   18.0039   -8.7995  -15.2268 C   0  0  0  0  0  0  0  0  0  0  0  0
   17.4347   -8.1176  -14.3257 O   0  0  0  0  0  0  0  0  0  0  0  0
   21.5214   -9.2913  -12.1633 C   0  0  0  0  0  0  0  0  0  0  0  0
   21.9468   -9.4823  -13.6034 C   0  0  2  0  0  0  0  0  0  0  0  0
   23.2518  -10.1640  -13.6703 C   0  0  0  0  0  0  0  0  0  0  0  0
   21.6538   -8.3688  -14.5104 C   0  0  0  0  0  0  0  0  0  0  0  0
   20.2649   -7.8534  -14.5543 C   0  0  2  0  0  0  0  0  0  0  0  0
   19.4113   -8.7769  -15.3247 N   0  0  0  0  0  0  0  0  0  0  0  0
   20.1735   -6.5675  -15.2233 C   0  0  0  0  0  0  0  0  0  0  0  0
   19.5920   -6.3922  -16.4564 O   0  0  0  0  0  0  0  0  0  0  0  0
   20.6452   -5.5427  -14.6772 O   0  0  0  0  0  0  0  0  0  0  0  0
  2  1  1  6
  2  3  1  0
  4  5  1  1
  4  2  1  0
  6  4  1  0
  6  7  2  0
  9  8  1  0
 10  9  1  6
 10 11  1  0
 10 12  1  0
 11  6  1  0
 12 13  2  0
 12 19  1  0
 15 16  1  1
 15 14  1  0
 17 15  1  0
 18 17  1  6
 19 18  1  0
 20 18  1  0
 20 21  1  0
 22 20  2  0
M  END
$$$$
