TSL.pdb
     RDKit          3D

 22 21  0  0  1  0  0  0  0  0999 V2000
   18.6321   -9.0270  -18.6459 C   0  0  0  0  0  0  0  0  0  0  0  0
   17.9692  -10.2341  -18.0590 C   0  0  1  0  0  0  0  0  0  0  0  0
   17.3438  -11.0125  -19.0249 O   0  0  0  0  0  0  0  0  0  0  0  0
   18.9268  -11.1001  -17.2731 C   0  0  2  0  0  0  0  0  0  0  0  0
   18.1596  -12.2139  -16.7605 N   0  0  0  0  0  0  0  0  0  0  0  0
   19.5629  -10.3906  -16.1485 C   0  0  0  0  0  0  0  0  0  0  0  0
   18.8703  -10.0984  -15.1441 O   0  0  0  0  0  0  0  0  0  0  0  0
   23.6196   -9.8600  -15.9478 O   0  0  0  0  0  0  0  0  0  0  0  0
   22.9143   -9.7339  -14.7715 C   0  0  0  0  0  0  0  0  0  0  0  0
   21.4891   -9.2230  -15.0203 C   0  0  2  0  0  0  0  0  0  0  0  0
   20.9305  -10.0020  -16.1101 N   0  0  0  0  0  0  0  0  0  0  0  0
   21.5677   -7.7847  -15.3425 C   0  0  0  0  0  0  0  0  0  0  0  0
   21.8824   -7.4874  -16.5315 O   0  0  0  0  0  0  0  0  0  0  0  0
   20.0142   -4.6379  -17.3380 C   0  0  0  0  0  0  0  0  0  0  0  0
   19.3580   -4.9151  -16.0023 C   0  0  2  0  0  0  0  0  0  0  0  0
   17.9442   -4.4994  -16.0253 C   0  0  0  0  0  0  0  0  0  0  0  0
   20.1806   -4.6516  -14.8181 C   0  0  0  0  0  0  0  0  0  0  0  0
   21.4999   -5.3205  -14.7238 C   0  0  2  0  0  0  0  0  0  0  0  0
   21.3160   -6.7509  -14.4156 N   0  0  0  0  0  0  0  0  0  0  0  0
   22.3184   -4.7797  -13.6529 C   0  0  0  0  0  0  0  0  0  0  0  0
   22.6056   -5.4644  -12.4961 O   0  0  0  0  0  0  0  0  0  0  0  0
   22.8001   -3.6269  -13.7541 O   0  0  0  0  0  0  0  0  0  0  0  0
  2  1  1  6
  2  3  1  0
  4  5  1  1
  4  2  1  0
  6  4  1  0
  6  7  2  0
  9  8  1  0
 10  9  1  6
 10 11  1  0
 10 12  1  0
 11  6  1  0
 12 13  2  0
 12 19  1  0
 15 16  1  1
 15 14  1  0
 17 15  1  0
 18 17  1  1
 19 18  1  0
 20 18  1  0
 20 21  1  0
 22 20  2  0
M  END
$$$$
