TSL.pdb
     RDKit          3D

 22 21  0  0  1  0  0  0  0  0999 V2000
   16.2939  -10.0717  -16.0699 C   0  0  0  0  0  0  0  0  0  0  0  0
   16.6163  -10.6848  -17.3971 C   0  0  1  0  0  0  0  0  0  0  0  0
   15.6594  -11.6097  -17.7956 O   0  0  0  0  0  0  0  0  0  0  0  0
   16.7888   -9.6535  -18.4885 C   0  0  2  0  0  0  0  0  0  0  0  0
   17.0920  -10.3767  -19.7038 N   0  0  0  0  0  0  0  0  0  0  0  0
   17.8712   -8.6914  -18.2134 C   0  0  0  0  0  0  0  0  0  0  0  0
   19.0626   -9.0736  -18.3066 O   0  0  0  0  0  0  0  0  0  0  0  0
   19.1497   -4.0911  -17.1189 O   0  0  0  0  0  0  0  0  0  0  0  0
   18.1839   -5.0127  -17.4583 C   0  0  0  0  0  0  0  0  0  0  0  0
   18.7690   -6.4265  -17.5726 C   0  0  2  0  0  0  0  0  0  0  0  0
   17.6684   -7.3335  -17.8425 N   0  0  0  0  0  0  0  0  0  0  0  0
   19.4568   -6.7417  -16.3052 C   0  0  0  0  0  0  0  0  0  0  0  0
   18.7231   -7.0862  -15.3335 O   0  0  0  0  0  0  0  0  0  0  0  0
   23.6344  -10.2731  -14.4124 C   0  0  0  0  0  0  0  0  0  0  0  0
   22.5239   -9.2664  -14.1996 C   0  0  2  0  0  0  0  0  0  0  0  0
   21.2628   -9.9518  -13.8646 C   0  0  0  0  0  0  0  0  0  0  0  0
   22.5154   -8.1202  -15.1130 C   0  0  0  0  0  0  0  0  0  0  0  0
   21.5304   -7.0405  -14.8663 C   0  0  2  0  0  0  0  0  0  0  0  0
   20.8552   -6.6800  -16.1268 N   0  0  0  0  0  0  0  0  0  0  0  0
   22.1555   -5.8225  -14.3815 C   0  0  0  0  0  0  0  0  0  0  0  0
   22.4196   -5.5802  -13.0545 O   0  0  0  0  0  0  0  0  0  0  0  0
   22.4792   -4.9205  -15.1894 O   0  0  0  0  0  0  0  0  0  0  0  0
  2  1  1  1
  2  3  1  0
  4  5  1  6
  4  2  1  0
  6  4  1  0
  6  7  2  0
  9  8  1  0
 10  9  1  1
 10 11  1  0
 10 12  1  0
 11  6  1  0
 12 13  2  0
 12 19  1  0
 15 16  1  6
 15 14  1  0
 17 15  1  0
 18 17  1  6
 19 18  1  0
 20 18  1  0
 20 21  1  0
 22 20  2  0
M  END
$$$$
