TSL.pdb
     RDKit          3D

 22 21  0  0  1  0  0  0  0  0999 V2000
   14.4270   -7.3422  -14.2036 C   0  0  0  0  0  0  0  0  0  0  0  0
   13.8066   -8.7044  -14.2197 C   0  0  1  0  0  0  0  0  0  0  0  0
   12.4545   -8.6703  -13.9026 O   0  0  0  0  0  0  0  0  0  0  0  0
   13.9837   -9.4094  -15.5449 C   0  0  2  0  0  0  0  0  0  0  0  0
   13.4488  -10.7436  -15.3841 N   0  0  0  0  0  0  0  0  0  0  0  0
   15.3918   -9.4994  -15.9717 C   0  0  0  0  0  0  0  0  0  0  0  0
   16.1037  -10.4316  -15.5265 O   0  0  0  0  0  0  0  0  0  0  0  0
   17.2179   -6.6013  -18.3786 O   0  0  0  0  0  0  0  0  0  0  0  0
   17.6072   -7.9115  -18.5485 C   0  0  0  0  0  0  0  0  0  0  0  0
   17.4119   -8.7289  -17.2648 C   0  0  2  0  0  0  0  0  0  0  0  0
   16.0222   -8.5934  -16.8687 N   0  0  0  0  0  0  0  0  0  0  0  0
   18.3395   -8.2058  -16.2427 C   0  0  0  0  0  0  0  0  0  0  0  0
   17.8787   -7.3279  -15.4565 O   0  0  0  0  0  0  0  0  0  0  0  0
   23.6144  -10.1680  -13.8467 C   0  0  0  0  0  0  0  0  0  0  0  0
   22.3670   -9.3117  -13.7993 C   0  0  2  0  0  0  0  0  0  0  0  0
   21.4237   -9.8287  -12.7918 C   0  0  0  0  0  0  0  0  0  0  0  0
   21.8696   -8.8332  -15.0923 C   0  0  0  0  0  0  0  0  0  0  0  0
   20.6087   -8.0542  -15.1082 C   0  0  2  0  0  0  0  0  0  0  0  0
   19.6796   -8.6242  -16.1016 N   0  0  0  0  0  0  0  0  0  0  0  0
   20.8184   -6.6714  -15.4998 C   0  0  0  0  0  0  0  0  0  0  0  0
   20.9577   -5.6402  -14.6017 O   0  0  0  0  0  0  0  0  0  0  0  0
   20.8749   -6.3663  -16.7142 O   0  0  0  0  0  0  0  0  0  0  0  0
  2  1  1  6
  2  3  1  0
  4  5  1  1
  4  2  1  0
  6  4  1  0
  6  7  2  0
  9  8  1  0
 10  9  1  6
 10 11  1  0
 10 12  1  0
 11  6  1  0
 12 13  2  0
 12 19  1  0
 15 16  1  6
 15 14  1  0
 17 15  1  0
 18 17  1  6
 19 18  1  0
 20 18  1  0
 20 21  1  0
 22 20  2  0
M  END
$$$$
