TSL.pdb
     RDKit          3D

 22 21  0  0  1  0  0  0  0  0999 V2000
   41.6207  -24.6258    5.4597 C   0  0  0  0  0  0  0  0  0  0  0  0
   40.1565  -24.3487    5.3172 C   0  0  1  0  0  0  0  0  0  0  0  0
   39.8945  -23.3921    4.3444 O   0  0  0  0  0  0  0  0  0  0  0  0
   39.3552  -25.5934    5.0121 C   0  0  2  0  0  0  0  0  0  0  0  0
   39.5870  -25.9098    3.6199 N   0  0  0  0  0  0  0  0  0  0  0  0
   37.9084  -25.4228    5.2365 C   0  0  0  0  0  0  0  0  0  0  0  0
   37.1746  -25.1154    4.2664 O   0  0  0  0  0  0  0  0  0  0  0  0
   36.1884  -26.0276    8.9676 O   0  0  0  0  0  0  0  0  0  0  0  0
   35.4330  -26.3458    7.8607 C   0  0  0  0  0  0  0  0  0  0  0  0
   35.8224  -25.4910    6.6475 C   0  0  2  0  0  0  0  0  0  0  0  0
   37.2627  -25.5825    6.4937 N   0  0  0  0  0  0  0  0  0  0  0  0
   35.3723  -24.1078    6.8979 C   0  0  0  0  0  0  0  0  0  0  0  0
   36.2371  -23.3054    7.3557 O   0  0  0  0  0  0  0  0  0  0  0  0
   33.7345  -21.1463    4.1876 C   0  0  0  0  0  0  0  0  0  0  0  0
   32.5352  -21.9013    4.7198 C   0  0  2  0  0  0  0  0  0  0  0  0
   31.3505  -21.6462    3.8809 C   0  0  0  0  0  0  0  0  0  0  0  0
   32.4042  -21.9481    6.1789 C   0  0  0  0  0  0  0  0  0  0  0  0
   33.6093  -22.2788    6.9759 C   0  0  2  0  0  0  0  0  0  0  0  0
   34.0604  -23.6467    6.6589 N   0  0  0  0  0  0  0  0  0  0  0  0
   33.3487  -22.2616    8.4046 C   0  0  0  0  0  0  0  0  0  0  0  0
   33.2222  -23.3978    9.1677 O   0  0  0  0  0  0  0  0  0  0  0  0
   33.2213  -21.1684    9.0046 O   0  0  0  0  0  0  0  0  0  0  0  0
  2  1  1  6
  2  3  1  0
  4  5  1  6
  4  2  1  0
  6  4  1  0
  6  7  2  0
  9  8  1  0
 10  9  1  1
 10 11  1  0
 10 12  1  0
 11  6  1  0
 12 13  2  0
 12 19  1  0
 15 16  1  6
 15 14  1  0
 17 15  1  0
 18 17  1  6
 19 18  1  0
 20 18  1  0
 20 21  1  0
 22 20  2  0
M  END
$$$$
