TSL.pdb
     RDKit          3D

 22 21  0  0  1  0  0  0  0  0999 V2000
   13.6965  -11.3183  -17.3748 C   0  0  0  0  0  0  0  0  0  0  0  0
   15.0902  -10.8585  -17.0796 C   0  0  1  0  0  0  0  0  0  0  0  0
   15.5347  -11.2916  -15.8367 O   0  0  0  0  0  0  0  0  0  0  0  0
   16.0820  -11.2908  -18.1351 C   0  0  2  0  0  0  0  0  0  0  0  0
   16.1085  -12.7368  -18.1175 N   0  0  0  0  0  0  0  0  0  0  0  0
   17.4434  -10.7776  -17.8986 C   0  0  0  0  0  0  0  0  0  0  0  0
   18.2718  -11.5049  -17.2996 O   0  0  0  0  0  0  0  0  0  0  0  0
   18.5290   -6.7383  -18.3651 O   0  0  0  0  0  0  0  0  0  0  0  0
   19.4381   -7.6951  -18.7590 C   0  0  0  0  0  0  0  0  0  0  0  0
   19.2373   -9.0115  -17.9969 C   0  0  2  0  0  0  0  0  0  0  0  0
   17.9036   -9.4945  -18.3044 N   0  0  0  0  0  0  0  0  0  0  0  0
   19.4167   -8.7396  -16.5573 C   0  0  0  0  0  0  0  0  0  0  0  0
   18.3622   -8.6024  -15.8715 O   0  0  0  0  0  0  0  0  0  0  0  0
   23.1131   -9.9946  -11.8716 C   0  0  0  0  0  0  0  0  0  0  0  0
   22.0106   -9.1121  -12.4170 C   0  0  2  0  0  0  0  0  0  0  0  0
   20.9459   -8.9359  -11.4131 C   0  0  0  0  0  0  0  0  0  0  0  0
   21.6632   -9.3188  -13.8258 C   0  0  0  0  0  0  0  0  0  0  0  0
   20.8353   -8.2888  -14.4972 C   0  0  2  0  0  0  0  0  0  0  0  0
   20.6723   -8.6278  -15.9232 N   0  0  0  0  0  0  0  0  0  0  0  0
   21.4534   -6.9750  -14.4636 C   0  0  0  0  0  0  0  0  0  0  0  0
   21.3210   -6.0997  -13.4120 O   0  0  0  0  0  0  0  0  0  0  0  0
   22.1470   -6.5844  -15.4319 O   0  0  0  0  0  0  0  0  0  0  0  0
  2  1  1  6
  2  3  1  0
  4  5  1  1
  4  2  1  0
  6  4  1  0
  6  7  2  0
  9  8  1  0
 10  9  1  6
 10 11  1  0
 10 12  1  0
 11  6  1  0
 12 13  2  0
 12 19  1  0
 15 16  1  1
 15 14  1  0
 17 15  1  0
 18 17  1  6
 19 18  1  0
 20 18  1  0
 20 21  1  0
 22 20  2  0
M  END
$$$$
