VCQ.pdb
     RDKit          3D

 23 22  0  0  1  0  0  0  0  0999 V2000
   11.5318  -23.8486   -4.3163 C   0  0  0  0  0  0  0  0  0  0  0  0
   12.3816  -23.8158   -3.0795 C   0  0  2  0  0  0  0  0  0  0  0  0
   11.5329  -23.3307   -1.9297 C   0  0  0  0  0  0  0  0  0  0  0  0
   13.5804  -22.8734   -3.2601 C   0  0  2  0  0  0  0  0  0  0  0  0
   14.3062  -23.3536   -4.4108 N   0  0  0  0  0  0  0  0  0  0  0  0
   14.4553  -22.8948   -2.0822 C   0  0  0  0  0  0  0  0  0  0  0  0
   15.5754  -23.4980   -2.2052 O   0  0  0  0  0  0  0  0  0  0  0  0
   14.1102  -22.2848   -0.8439 N   0  0  0  0  0  0  0  0  0  0  0  0
   15.1867  -22.0817    0.1120 C   0  0  1  0  0  0  0  0  0  0  0  0
   16.0919  -21.0509   -0.5539 C   0  0  0  0  0  0  0  0  0  0  0  0
   17.2849  -20.4644    0.6581 S   0  0  0  0  0  0  0  0  0  0  0  0
   14.6910  -21.5194    1.3745 C   0  0  0  0  0  0  0  0  0  0  0  0
   14.0320  -20.4168    1.3625 O   0  0  0  0  0  0  0  0  0  0  0  0
   12.7003  -25.3709    6.2192 N   0  0  0  0  0  0  0  0  0  0  0  0
   13.8387  -24.6264    5.8555 C   0  0  0  0  0  0  0  0  0  0  0  0
   14.9362  -24.7142    6.4484 O   0  0  0  0  0  0  0  0  0  0  0  0
   13.7496  -23.6751    4.7011 C   0  0  0  0  0  0  0  0  0  0  0  0
   14.3834  -22.3577    5.0351 C   0  0  0  0  0  0  0  0  0  0  0  0
   14.3761  -21.4361    3.8824 C   0  0  2  0  0  0  0  0  0  0  0  0
   14.8562  -22.0709    2.6569 N   0  0  0  0  0  0  0  0  0  0  0  0
   15.1400  -20.2058    4.0670 C   0  0  0  0  0  0  0  0  0  0  0  0
   16.2262  -19.8786    3.2918 O   0  0  0  0  0  0  0  0  0  0  0  0
   14.8290  -19.3801    4.9639 O   0  0  0  0  0  0  0  0  0  0  0  0
  2  1  1  6
  2  4  1  0
  3  2  1  0
  4  5  1  6
  6  4  1  0
  7  6  2  0
  8  6  1  0
  9  8  1  0
  9 12  1  0
  9 10  1  6
 11 10  1  0
 12 13  2  0
 12 20  1  0
 14 15  1  0
 15 16  2  0
 17 15  1  0
 17 18  1  0
 19 18  1  1
 19 21  1  0
 20 19  1  0
 21 22  1  0
 23 21  2  0
M  END
$$$$
