VCQ.pdb
     RDKit          3D

 23 22  0  0  1  0  0  0  0  0999 V2000
   17.6859   -9.5097  -17.7532 C   0  0  0  0  0  0  0  0  0  0  0  0
   19.0372  -10.1247  -17.9741 C   0  0  2  0  0  0  0  0  0  0  0  0
   18.8790  -11.3049  -18.9012 C   0  0  0  0  0  0  0  0  0  0  0  0
   19.6500  -10.5979  -16.6480 C   0  0  2  0  0  0  0  0  0  0  0  0
   18.7203  -11.5470  -16.0854 N   0  0  0  0  0  0  0  0  0  0  0  0
   19.8335   -9.4780  -15.7177 C   0  0  0  0  0  0  0  0  0  0  0  0
   18.8641   -9.2201  -14.9256 O   0  0  0  0  0  0  0  0  0  0  0  0
   21.0186   -8.6922  -15.6681 N   0  0  0  0  0  0  0  0  0  0  0  0
   21.0085   -7.5418  -14.7791 C   0  0  1  0  0  0  0  0  0  0  0  0
   22.3658   -7.5902  -14.0858 C   0  0  0  0  0  0  0  0  0  0  0  0
   22.5002   -6.1736  -12.9849 S   0  0  0  0  0  0  0  0  0  0  0  0
   20.9119   -6.2812  -15.5258 C   0  0  0  0  0  0  0  0  0  0  0  0
   21.6251   -6.1125  -16.5808 O   0  0  0  0  0  0  0  0  0  0  0  0
   16.6276   -1.6002  -15.3908 N   0  0  0  0  0  0  0  0  0  0  0  0
   17.5784   -1.1039  -16.3029 C   0  0  0  0  0  0  0  0  0  0  0  0
   17.4485   -0.0180  -16.9094 O   0  0  0  0  0  0  0  0  0  0  0  0
   18.8162   -1.9041  -16.5735 C   0  0  0  0  0  0  0  0  0  0  0  0
   18.8333   -3.1656  -15.7628 C   0  0  0  0  0  0  0  0  0  0  0  0
   20.0733   -3.9377  -15.9731 C   0  0  2  0  0  0  0  0  0  0  0  0
   20.0907   -5.1846  -15.2114 N   0  0  0  0  0  0  0  0  0  0  0  0
   21.3088   -3.2217  -15.6700 C   0  0  0  0  0  0  0  0  0  0  0  0
   22.0830   -2.6269  -16.6368 O   0  0  0  0  0  0  0  0  0  0  0  0
   21.7240   -3.1210  -14.4866 O   0  0  0  0  0  0  0  0  0  0  0  0
  2  1  1  1
  2  4  1  0
  3  2  1  0
  4  5  1  1
  6  4  1  0
  7  6  2  0
  8  6  1  0
  9  8  1  0
  9 12  1  0
  9 10  1  6
 11 10  1  0
 12 13  2  0
 12 20  1  0
 14 15  1  0
 15 16  2  0
 17 15  1  0
 17 18  1  0
 19 18  1  1
 19 21  1  0
 20 19  1  0
 21 22  1  0
 23 21  2  0
M  END
$$$$
