VCQ.pdb
     RDKit          3D

 23 22  0  0  1  0  0  0  0  0999 V2000
   17.9715  -13.1098  -18.1263 C   0  0  0  0  0  0  0  0  0  0  0  0
   19.1546  -13.7727  -18.7697 C   0  0  2  0  0  0  0  0  0  0  0  0
   18.6503  -14.8266  -19.7250 C   0  0  0  0  0  0  0  0  0  0  0  0
   20.0572  -14.4308  -17.7162 C   0  0  2  0  0  0  0  0  0  0  0  0
   19.2598  -15.4479  -17.0748 N   0  0  0  0  0  0  0  0  0  0  0  0
   20.5065  -13.4548  -16.7168 C   0  0  0  0  0  0  0  0  0  0  0  0
   19.7057  -13.2045  -15.7526 O   0  0  0  0  0  0  0  0  0  0  0  0
   21.7663  -12.7964  -16.7819 N   0  0  0  0  0  0  0  0  0  0  0  0
   22.0871  -11.8813  -15.6987 C   0  0  1  0  0  0  0  0  0  0  0  0
   23.6010  -11.9887  -15.5513 C   0  0  0  0  0  0  0  0  0  0  0  0
   24.3508  -11.8221  -17.1781 S   0  0  0  0  0  0  0  0  0  0  0  0
   21.7503  -10.4944  -16.0438 C   0  0  0  0  0  0  0  0  0  0  0  0
   21.4680  -10.1939  -17.2604 O   0  0  0  0  0  0  0  0  0  0  0  0
   16.9824   -5.7819  -16.5896 N   0  0  0  0  0  0  0  0  0  0  0  0
   17.8693   -6.8393  -16.8685 C   0  0  0  0  0  0  0  0  0  0  0  0
   17.5479   -7.8502  -17.5308 O   0  0  0  0  0  0  0  0  0  0  0  0
   19.2746   -6.7672  -16.3533 C   0  0  0  0  0  0  0  0  0  0  0  0
   19.8269   -8.1370  -16.0935 C   0  0  0  0  0  0  0  0  0  0  0  0
   21.1896   -8.0826  -15.5293 C   0  0  2  0  0  0  0  0  0  0  0  0
   21.6938   -9.4034  -15.1593 N   0  0  0  0  0  0  0  0  0  0  0  0
   21.3457   -7.2127  -14.3675 C   0  0  0  0  0  0  0  0  0  0  0  0
   21.3666   -5.8419  -14.4593 O   0  0  0  0  0  0  0  0  0  0  0  0
   21.4727   -7.6937  -13.2120 O   0  0  0  0  0  0  0  0  0  0  0  0
  2  1  1  1
  2  4  1  0
  3  2  1  0
  4  5  1  1
  6  4  1  0
  7  6  2  0
  8  6  1  0
  9  8  1  0
  9 12  1  0
  9 10  1  6
 11 10  1  0
 12 13  2  0
 12 20  1  0
 14 15  1  0
 15 16  2  0
 17 15  1  0
 17 18  1  0
 19 18  1  1
 19 21  1  0
 20 19  1  0
 21 22  1  0
 23 21  2  0
M  END
$$$$
