VCQ.pdb
     RDKit          3D

 23 22  0  0  1  0  0  0  0  0999 V2000
   44.0706  -31.3556  -14.3584 C   0  0  0  0  0  0  0  0  0  0  0  0
   42.9570  -31.3626  -15.3648 C   0  0  2  0  0  0  0  0  0  0  0  0
   42.2044  -32.6643  -15.2350 C   0  0  0  0  0  0  0  0  0  0  0  0
   43.5050  -31.2320  -16.7932 C   0  0  2  0  0  0  0  0  0  0  0  0
   44.1312  -29.9346  -16.8721 N   0  0  0  0  0  0  0  0  0  0  0  0
   42.4279  -31.3196  -17.7858 C   0  0  0  0  0  0  0  0  0  0  0  0
   41.7932  -30.2413  -18.0466 O   0  0  0  0  0  0  0  0  0  0  0  0
   42.0757  -32.5283  -18.4490 N   0  0  0  0  0  0  0  0  0  0  0  0
   41.0501  -32.4406  -19.4757 C   0  0  1  0  0  0  0  0  0  0  0  0
   41.5967  -33.2790  -20.6262 C   0  0  0  0  0  0  0  0  0  0  0  0
   41.6712  -32.2523  -22.1016 S   0  0  0  0  0  0  0  0  0  0  0  0
   39.7837  -33.0338  -19.0283 C   0  0  0  0  0  0  0  0  0  0  0  0
   39.7910  -33.9140  -18.0926 O   0  0  0  0  0  0  0  0  0  0  0  0
   34.9274  -30.7785  -16.8141 N   0  0  0  0  0  0  0  0  0  0  0  0
   34.5406  -32.1313  -16.7611 C   0  0  0  0  0  0  0  0  0  0  0  0
   33.4756  -32.5221  -16.2349 O   0  0  0  0  0  0  0  0  0  0  0  0
   35.4384  -33.1703  -17.3610 C   0  0  0  0  0  0  0  0  0  0  0  0
   36.7056  -32.5576  -17.8781 C   0  0  0  0  0  0  0  0  0  0  0  0
   37.2724  -33.3309  -19.0001 C   0  0  2  0  0  0  0  0  0  0  0  0
   38.5015  -32.7378  -19.5225 N   0  0  0  0  0  0  0  0  0  0  0  0
   36.3708  -33.5369  -20.1296 C   0  0  0  0  0  0  0  0  0  0  0  0
   35.3339  -34.4380  -20.1019 O   0  0  0  0  0  0  0  0  0  0  0  0
   36.5120  -32.8857  -21.1967 O   0  0  0  0  0  0  0  0  0  0  0  0
  2  1  1  1
  2  4  1  0
  3  2  1  0
  4  5  1  1
  6  4  1  0
  7  6  2  0
  8  6  1  0
  9  8  1  0
  9 12  1  0
  9 10  1  6
 11 10  1  0
 12 13  2  0
 12 20  1  0
 14 15  1  0
 15 16  2  0
 17 15  1  0
 17 18  1  0
 19 18  1  1
 19 21  1  0
 20 19  1  0
 21 22  1  0
 23 21  2  0
M  END
$$$$
