VCQ.pdb
     RDKit          3D

 23 22  0  0  1  0  0  0  0  0999 V2000
   16.1183  -13.3427  -18.6330 C   0  0  0  0  0  0  0  0  0  0  0  0
   17.0076  -12.5444  -17.7247 C   0  0  2  0  0  0  0  0  0  0  0  0
   17.4157  -11.2822  -18.4445 C   0  0  0  0  0  0  0  0  0  0  0  0
   18.2634  -13.3416  -17.3438 C   0  0  2  0  0  0  0  0  0  0  0  0
   17.8050  -14.5023  -16.6197 N   0  0  0  0  0  0  0  0  0  0  0  0
   19.1567  -12.5502  -16.4900 C   0  0  0  0  0  0  0  0  0  0  0  0
   18.7632  -12.3232  -15.2954 O   0  0  0  0  0  0  0  0  0  0  0  0
   20.4095  -12.0415  -16.9331 N   0  0  0  0  0  0  0  0  0  0  0  0
   21.1984  -11.2993  -15.9631 C   0  0  1  0  0  0  0  0  0  0  0  0
   22.6063  -11.8662  -16.1102 C   0  0  0  0  0  0  0  0  0  0  0  0
   23.7264  -10.8967  -15.0896 S   0  0  0  0  0  0  0  0  0  0  0  0
   21.2382   -9.8662  -16.2804 C   0  0  0  0  0  0  0  0  0  0  0  0
   21.5854   -9.4863  -17.4574 O   0  0  0  0  0  0  0  0  0  0  0  0
   17.5207   -5.8398  -17.5744 N   0  0  0  0  0  0  0  0  0  0  0  0
   17.3955   -6.2853  -16.2446 C   0  0  0  0  0  0  0  0  0  0  0  0
   16.3273   -6.2260  -15.5971 O   0  0  0  0  0  0  0  0  0  0  0  0
   18.5930   -6.8631  -15.5534 C   0  0  0  0  0  0  0  0  0  0  0  0
   19.7672   -6.9449  -16.4825 C   0  0  0  0  0  0  0  0  0  0  0  0
   20.9877   -7.3984  -15.7876 C   0  0  2  0  0  0  0  0  0  0  0  0
   20.9238   -8.8085  -15.4096 N   0  0  0  0  0  0  0  0  0  0  0  0
   21.3385   -6.6394  -14.5910 C   0  0  0  0  0  0  0  0  0  0  0  0
   21.6033   -5.2913  -14.6134 O   0  0  0  0  0  0  0  0  0  0  0  0
   21.4166   -7.2018  -13.4684 O   0  0  0  0  0  0  0  0  0  0  0  0
  2  1  1  6
  2  4  1  0
  3  2  1  0
  4  5  1  1
  6  4  1  0
  7  6  2  0
  8  6  1  0
  9  8  1  0
  9 12  1  0
  9 10  1  6
 11 10  1  0
 12 13  2  0
 12 20  1  0
 14 15  1  0
 15 16  2  0
 17 15  1  0
 17 18  1  0
 19 18  1  1
 19 21  1  0
 20 19  1  0
 21 22  1  0
 23 21  2  0
M  END
$$$$
