VCQ.pdb
     RDKit          3D

 23 22  0  0  1  0  0  0  0  0999 V2000
   18.7389  -14.0299  -20.2813 C   0  0  0  0  0  0  0  0  0  0  0  0
   19.0509  -13.0982  -19.1465 C   0  0  2  0  0  0  0  0  0  0  0  0
   19.2689  -11.7153  -19.7102 C   0  0  0  0  0  0  0  0  0  0  0  0
   20.3137  -13.5470  -18.3970 C   0  0  2  0  0  0  0  0  0  0  0  0
   20.0087  -14.8332  -17.8189 N   0  0  0  0  0  0  0  0  0  0  0  0
   20.6649  -12.5999  -17.3326 C   0  0  0  0  0  0  0  0  0  0  0  0
   19.8804  -12.5461  -16.3250 O   0  0  0  0  0  0  0  0  0  0  0  0
   21.8151  -11.7637  -17.3818 N   0  0  0  0  0  0  0  0  0  0  0  0
   22.0116  -10.8491  -16.2689 C   0  0  1  0  0  0  0  0  0  0  0  0
   23.5176  -10.8650  -16.0301 C   0  0  0  0  0  0  0  0  0  0  0  0
   23.8871  -12.0930  -14.7684 S   0  0  0  0  0  0  0  0  0  0  0  0
   21.6098   -9.4800  -16.6155 C   0  0  0  0  0  0  0  0  0  0  0  0
   21.9463   -8.9890  -17.7539 O   0  0  0  0  0  0  0  0  0  0  0  0
   16.3298   -6.5280  -15.6938 N   0  0  0  0  0  0  0  0  0  0  0  0
   17.1268   -5.4264  -16.0595 C   0  0  0  0  0  0  0  0  0  0  0  0
   16.6784   -4.2665  -16.1909 O   0  0  0  0  0  0  0  0  0  0  0  0
   18.5897   -5.6354  -16.3080 C   0  0  0  0  0  0  0  0  0  0  0  0
   18.9826   -7.0613  -16.0605 C   0  0  0  0  0  0  0  0  0  0  0  0
   20.4312   -7.2730  -16.2475 C   0  0  2  0  0  0  0  0  0  0  0  0
   20.8621   -8.6003  -15.8138 N   0  0  0  0  0  0  0  0  0  0  0  0
   21.2912   -6.2955  -15.5872 C   0  0  0  0  0  0  0  0  0  0  0  0
   21.5602   -5.0579  -16.1200 O   0  0  0  0  0  0  0  0  0  0  0  0
   21.8338   -6.5540  -14.4819 O   0  0  0  0  0  0  0  0  0  0  0  0
  2  1  1  6
  2  4  1  0
  3  2  1  0
  4  5  1  1
  6  4  1  0
  7  6  2  0
  8  6  1  0
  9  8  1  0
  9 12  1  0
  9 10  1  6
 11 10  1  0
 12 13  2  0
 12 20  1  0
 14 15  1  0
 15 16  2  0
 17 15  1  0
 17 18  1  0
 19 18  1  1
 19 21  1  0
 20 19  1  0
 21 22  1  0
 23 21  2  0
M  END
$$$$
