VCQ.pdb
     RDKit          3D

 23 22  0  0  1  0  0  0  0  0999 V2000
   18.7054  -13.0268  -20.4406 C   0  0  0  0  0  0  0  0  0  0  0  0
   18.7534  -12.0192  -19.3290 C   0  0  2  0  0  0  0  0  0  0  0  0
   19.0451  -10.6639  -19.9252 C   0  0  0  0  0  0  0  0  0  0  0  0
   19.8476  -12.3737  -18.3117 C   0  0  2  0  0  0  0  0  0  0  0  0
   19.4744  -13.6440  -17.7382 N   0  0  0  0  0  0  0  0  0  0  0  0
   19.9359  -11.3624  -17.2521 C   0  0  0  0  0  0  0  0  0  0  0  0
   18.9807  -11.3294  -16.4035 O   0  0  0  0  0  0  0  0  0  0  0  0
   21.0168  -10.4439  -17.1396 N   0  0  0  0  0  0  0  0  0  0  0  0
   20.9612   -9.4937  -16.0406 C   0  0  1  0  0  0  0  0  0  0  0  0
   22.3502   -9.5603  -15.4149 C   0  0  0  0  0  0  0  0  0  0  0  0
   22.2448   -8.9764  -13.7166 S   0  0  0  0  0  0  0  0  0  0  0  0
   20.7313   -8.1248  -16.5192 C   0  0  0  0  0  0  0  0  0  0  0  0
   21.3549   -7.7036  -17.5603 O   0  0  0  0  0  0  0  0  0  0  0  0
   15.9663   -4.1273  -15.3375 N   0  0  0  0  0  0  0  0  0  0  0  0
   16.7494   -3.3862  -16.2430 C   0  0  0  0  0  0  0  0  0  0  0  0
   16.4047   -2.2748  -16.7011 O   0  0  0  0  0  0  0  0  0  0  0  0
   18.0666   -3.9419  -16.6922 C   0  0  0  0  0  0  0  0  0  0  0  0
   18.3049   -5.3047  -16.1137 C   0  0  0  0  0  0  0  0  0  0  0  0
   19.6070   -5.8595  -16.5317 C   0  0  2  0  0  0  0  0  0  0  0  0
   19.8666   -7.1744  -15.9493 N   0  0  0  0  0  0  0  0  0  0  0  0
   20.7626   -5.0160  -16.2417 C   0  0  0  0  0  0  0  0  0  0  0  0
   21.2750   -4.1161  -17.1448 O   0  0  0  0  0  0  0  0  0  0  0  0
   21.3493   -5.0827  -15.1307 O   0  0  0  0  0  0  0  0  0  0  0  0
  2  1  1  6
  2  4  1  0
  3  2  1  0
  4  5  1  1
  6  4  1  0
  7  6  2  0
  8  6  1  0
  9  8  1  0
  9 12  1  0
  9 10  1  6
 11 10  1  0
 12 13  2  0
 12 20  1  0
 14 15  1  0
 15 16  2  0
 17 15  1  0
 17 18  1  0
 19 18  1  1
 19 21  1  0
 20 19  1  0
 21 22  1  0
 23 21  2  0
M  END
$$$$
