VCQ.pdb
     RDKit          3D

 23 22  0  0  1  0  0  0  0  0999 V2000
   25.9911  -15.1240  -15.2985 C   0  0  0  0  0  0  0  0  0  0  0  0
   24.6820  -14.5054  -15.6942 C   0  0  2  0  0  0  0  0  0  0  0  0
   24.0648  -15.3492  -16.7827 C   0  0  0  0  0  0  0  0  0  0  0  0
   24.8838  -13.0742  -16.2126 C   0  0  2  0  0  0  0  0  0  0  0  0
   25.8354  -12.4502  -15.3258 N   0  0  0  0  0  0  0  0  0  0  0  0
   23.6254  -12.3197  -16.1939 C   0  0  0  0  0  0  0  0  0  0  0  0
   22.8105  -12.5309  -17.1556 O   0  0  0  0  0  0  0  0  0  0  0  0
   23.2905  -11.3881  -15.1718 N   0  0  0  0  0  0  0  0  0  0  0  0
   21.9828  -10.7585  -15.2582 C   0  0  1  0  0  0  0  0  0  0  0  0
   21.5016  -10.6905  -13.8129 C   0  0  0  0  0  0  0  0  0  0  0  0
   22.8700  -10.1540  -12.7756 S   0  0  0  0  0  0  0  0  0  0  0  0
   22.0741   -9.3903  -15.7833 C   0  0  0  0  0  0  0  0  0  0  0  0
   23.1106   -8.6780  -15.5213 O   0  0  0  0  0  0  0  0  0  0  0  0
   19.8181   -6.9018  -21.0328 N   0  0  0  0  0  0  0  0  0  0  0  0
   20.4724   -5.7929  -20.4629 C   0  0  0  0  0  0  0  0  0  0  0  0
   20.5961   -4.6932  -21.0452 O   0  0  0  0  0  0  0  0  0  0  0  0
   21.0569   -5.9183  -19.0887 C   0  0  0  0  0  0  0  0  0  0  0  0
   20.7903   -7.2752  -18.5088 C   0  0  0  0  0  0  0  0  0  0  0  0
   21.3011   -7.3937  -17.1292 C   0  0  2  0  0  0  0  0  0  0  0  0
   21.1187   -8.7353  -16.5795 N   0  0  0  0  0  0  0  0  0  0  0  0
   20.7327   -6.4476  -16.1738 C   0  0  0  0  0  0  0  0  0  0  0  0
   21.1922   -5.1601  -16.0352 O   0  0  0  0  0  0  0  0  0  0  0  0
   19.7810   -6.7814  -15.4217 O   0  0  0  0  0  0  0  0  0  0  0  0
  2  1  1  6
  2  4  1  0
  3  2  1  0
  4  5  1  1
  6  4  1  0
  7  6  2  0
  8  6  1  0
  9  8  1  0
  9 12  1  0
  9 10  1  1
 11 10  1  0
 12 13  2  0
 12 20  1  0
 14 15  1  0
 15 16  2  0
 17 15  1  0
 17 18  1  0
 19 18  1  6
 19 21  1  0
 20 19  1  0
 21 22  1  0
 23 21  2  0
M  END
$$$$
