VCQ.pdb
     RDKit          3D

 23 22  0  0  1  0  0  0  0  0999 V2000
   26.3548   -9.2982  -16.6869 C   0  0  0  0  0  0  0  0  0  0  0  0
   25.9686   -9.9992  -15.4170 C   0  0  2  0  0  0  0  0  0  0  0  0
   27.1619  -10.7775  -14.9194 C   0  0  0  0  0  0  0  0  0  0  0  0
   24.7961  -10.9619  -15.6544 C   0  0  2  0  0  0  0  0  0  0  0  0
   25.2542  -11.9314  -16.6198 N   0  0  0  0  0  0  0  0  0  0  0  0
   23.6259  -10.2535  -16.1856 C   0  0  0  0  0  0  0  0  0  0  0  0
   23.5158  -10.1921  -17.4575 O   0  0  0  0  0  0  0  0  0  0  0  0
   22.6381   -9.6503  -15.3579 N   0  0  0  0  0  0  0  0  0  0  0  0
   21.4880   -9.0642  -16.0268 C   0  0  1  0  0  0  0  0  0  0  0  0
   20.2945   -9.5268  -15.1980 C   0  0  0  0  0  0  0  0  0  0  0  0
   19.8631  -11.2010  -15.6952 S   0  0  0  0  0  0  0  0  0  0  0  0
   21.5342   -7.5969  -15.9976 C   0  0  0  0  0  0  0  0  0  0  0  0
   21.9594   -6.9963  -14.9446 O   0  0  0  0  0  0  0  0  0  0  0  0
   22.8411   -3.7473  -20.6650 N   0  0  0  0  0  0  0  0  0  0  0  0
   22.5742   -2.8136  -19.6454 C   0  0  0  0  0  0  0  0  0  0  0  0
   22.7058   -1.5787  -19.7920 O   0  0  0  0  0  0  0  0  0  0  0  0
   22.1076   -3.3064  -18.3094 C   0  0  0  0  0  0  0  0  0  0  0  0
   21.8653   -4.7861  -18.3326 C   0  0  0  0  0  0  0  0  0  0  0  0
   21.4061   -5.2887  -17.0231 C   0  0  2  0  0  0  0  0  0  0  0  0
   21.1534   -6.7280  -17.0348 N   0  0  0  0  0  0  0  0  0  0  0  0
   20.2114   -4.6384  -16.4933 C   0  0  0  0  0  0  0  0  0  0  0  0
   20.2631   -3.5410  -15.6680 O   0  0  0  0  0  0  0  0  0  0  0  0
   19.0628   -5.0675  -16.7751 O   0  0  0  0  0  0  0  0  0  0  0  0
  2  1  1  6
  2  4  1  0
  3  2  1  0
  4  5  1  6
  6  4  1  0
  7  6  2  0
  8  6  1  0
  9  8  1  0
  9 12  1  0
  9 10  1  1
 11 10  1  0
 12 13  2  0
 12 20  1  0
 14 15  1  0
 15 16  2  0
 17 15  1  0
 17 18  1  0
 19 18  1  6
 19 21  1  0
 20 19  1  0
 21 22  1  0
 23 21  2  0
M  END
$$$$
