VCQ.pdb
     RDKit          3D

 23 22  0  0  1  0  0  0  0  0999 V2000
   28.3282  -18.5735  -16.3273 C   0  0  0  0  0  0  0  0  0  0  0  0
   27.2016  -19.1314  -15.5072 C   0  0  2  0  0  0  0  0  0  0  0  0
   26.6533  -18.0280  -14.6358 C   0  0  0  0  0  0  0  0  0  0  0  0
   27.6864  -20.2871  -14.6200 C   0  0  2  0  0  0  0  0  0  0  0  0
   28.1244  -21.3311  -15.5143 N   0  0  0  0  0  0  0  0  0  0  0  0
   26.6047  -20.7919  -13.7666 C   0  0  0  0  0  0  0  0  0  0  0  0
   25.7158  -21.5180  -14.3290 O   0  0  0  0  0  0  0  0  0  0  0  0
   26.5136  -20.5094  -12.3750 N   0  0  0  0  0  0  0  0  0  0  0  0
   25.3848  -21.0824  -11.6599 C   0  0  1  0  0  0  0  0  0  0  0  0
   25.6512  -20.7383  -10.1985 C   0  0  0  0  0  0  0  0  0  0  0  0
   27.2405  -21.4348   -9.7239 S   0  0  0  0  0  0  0  0  0  0  0  0
   24.1170  -20.4597  -12.0611 C   0  0  0  0  0  0  0  0  0  0  0  0
   23.9973  -19.1813  -12.0207 O   0  0  0  0  0  0  0  0  0  0  0  0
   21.8338  -20.5775  -17.3329 N   0  0  0  0  0  0  0  0  0  0  0  0
   20.7343  -19.9436  -16.7232 C   0  0  0  0  0  0  0  0  0  0  0  0
   19.7673  -19.4766  -17.3640 O   0  0  0  0  0  0  0  0  0  0  0  0
   20.7038  -19.8127  -15.2307 C   0  0  0  0  0  0  0  0  0  0  0  0
   21.8987  -20.4682  -14.6052 C   0  0  0  0  0  0  0  0  0  0  0  0
   21.8256  -20.4530  -13.1313 C   0  0  2  0  0  0  0  0  0  0  0  0
   22.9634  -21.1264  -12.5088 N   0  0  0  0  0  0  0  0  0  0  0  0
   20.6107  -21.0306  -12.5644 C   0  0  0  0  0  0  0  0  0  0  0  0
   20.5828  -22.2641  -11.9598 O   0  0  0  0  0  0  0  0  0  0  0  0
   19.5173  -20.4099  -12.6103 O   0  0  0  0  0  0  0  0  0  0  0  0
  2  1  1  1
  2  4  1  0
  3  2  1  0
  4  5  1  6
  6  4  1  0
  7  6  2  0
  8  6  1  0
  9  8  1  0
  9 12  1  0
  9 10  1  1
 11 10  1  0
 12 13  2  0
 12 20  1  0
 14 15  1  0
 15 16  2  0
 17 15  1  0
 17 18  1  0
 19 18  1  6
 19 21  1  0
 20 19  1  0
 21 22  1  0
 23 21  2  0
M  END
$$$$
