VCQ.pdb
     RDKit          3D

 23 22  0  0  1  0  0  0  0  0999 V2000
   18.2093  -11.3497  -18.1274 C   0  0  0  0  0  0  0  0  0  0  0  0
   19.2754  -12.1327  -18.8370 C   0  0  2  0  0  0  0  0  0  0  0  0
   18.6066  -13.1292  -19.7521 C   0  0  0  0  0  0  0  0  0  0  0  0
   20.1677  -12.8804  -17.8358 C   0  0  2  0  0  0  0  0  0  0  0  0
   19.3059  -13.7935  -17.1250 N   0  0  0  0  0  0  0  0  0  0  0  0
   20.7930  -11.9533  -16.8856 C   0  0  0  0  0  0  0  0  0  0  0  0
   20.0998  -11.6159  -15.8662 O   0  0  0  0  0  0  0  0  0  0  0  0
   22.1061  -11.4321  -17.0548 N   0  0  0  0  0  0  0  0  0  0  0  0
   22.5693  -10.4797  -16.0587 C   0  0  1  0  0  0  0  0  0  0  0  0
   24.0821  -10.6693  -16.0316 C   0  0  0  0  0  0  0  0  0  0  0  0
   24.4579  -12.1670  -15.1085 S   0  0  0  0  0  0  0  0  0  0  0  0
   22.2807   -9.0962  -16.4567 C   0  0  0  0  0  0  0  0  0  0  0  0
   22.1162   -8.8146  -17.6993 O   0  0  0  0  0  0  0  0  0  0  0  0
   17.8912   -6.8345  -17.9212 N   0  0  0  0  0  0  0  0  0  0  0  0
   18.4546   -5.5576  -17.7353 C   0  0  0  0  0  0  0  0  0  0  0  0
   17.9141   -4.5027  -18.1339 O   0  0  0  0  0  0  0  0  0  0  0  0
   19.7689   -5.4367  -17.0257 C   0  0  0  0  0  0  0  0  0  0  0  0
   20.3202   -6.7862  -16.6738 C   0  0  0  0  0  0  0  0  0  0  0  0
   21.6415   -6.6879  -16.0238 C   0  0  2  0  0  0  0  0  0  0  0  0
   22.1534   -7.9894  -15.5997 N   0  0  0  0  0  0  0  0  0  0  0  0
   21.7001   -5.7966  -14.8692 C   0  0  0  0  0  0  0  0  0  0  0  0
   21.7977   -4.4309  -14.9850 O   0  0  0  0  0  0  0  0  0  0  0  0
   21.6655   -6.2533  -13.6974 O   0  0  0  0  0  0  0  0  0  0  0  0
  2  1  1  1
  2  4  1  0
  3  2  1  0
  4  5  1  1
  6  4  1  0
  7  6  2  0
  8  6  1  0
  9  8  1  0
  9 12  1  0
  9 10  1  6
 11 10  1  0
 12 13  2  0
 12 20  1  0
 14 15  1  0
 15 16  2  0
 17 15  1  0
 17 18  1  0
 19 18  1  1
 19 21  1  0
 20 19  1  0
 21 22  1  0
 23 21  2  0
M  END
$$$$
