VCQ.pdb
     RDKit          3D

 23 22  0  0  1  0  0  0  0  0999 V2000
   16.3505  -12.0861  -16.8868 C   0  0  0  0  0  0  0  0  0  0  0  0
   17.2686  -12.7465  -17.8737 C   0  0  2  0  0  0  0  0  0  0  0  0
   16.4546  -13.6882  -18.7270 C   0  0  0  0  0  0  0  0  0  0  0  0
   18.3726  -13.5360  -17.1557 C   0  0  2  0  0  0  0  0  0  0  0  0
   17.7048  -14.5286  -16.3492 N   0  0  0  0  0  0  0  0  0  0  0  0
   19.1767  -12.6616  -16.2940 C   0  0  0  0  0  0  0  0  0  0  0  0
   18.7762  -12.5102  -15.0898 O   0  0  0  0  0  0  0  0  0  0  0  0
   20.3526  -11.9959  -16.7397 N   0  0  0  0  0  0  0  0  0  0  0  0
   20.9763  -11.0687  -15.8095 C   0  0  1  0  0  0  0  0  0  0  0  0
   22.4606  -11.4121  -15.8743 C   0  0  0  0  0  0  0  0  0  0  0  0
   23.3521  -10.3251  -14.7518 S   0  0  0  0  0  0  0  0  0  0  0  0
   20.8020   -9.6746  -16.2359 C   0  0  0  0  0  0  0  0  0  0  0  0
   20.9592   -9.3649  -17.4727 O   0  0  0  0  0  0  0  0  0  0  0  0
   16.3812   -5.7663  -15.2516 N   0  0  0  0  0  0  0  0  0  0  0  0
   16.5800   -6.5260  -16.4202 C   0  0  0  0  0  0  0  0  0  0  0  0
   15.6691   -6.7812  -17.2380 O   0  0  0  0  0  0  0  0  0  0  0  0
   17.9467   -7.0649  -16.7158 C   0  0  0  0  0  0  0  0  0  0  0  0
   18.9156   -6.7098  -15.6277 C   0  0  0  0  0  0  0  0  0  0  0  0
   20.2703   -7.2239  -15.9083 C   0  0  2  0  0  0  0  0  0  0  0  0
   20.4643   -8.5854  -15.4141 N   0  0  0  0  0  0  0  0  0  0  0  0
   21.3634   -6.4087  -15.3875 C   0  0  0  0  0  0  0  0  0  0  0  0
   21.6666   -5.1631  -15.8821 O   0  0  0  0  0  0  0  0  0  0  0  0
   22.0884   -6.8240  -14.4468 O   0  0  0  0  0  0  0  0  0  0  0  0
  2  1  1  1
  2  4  1  0
  3  2  1  0
  4  5  1  1
  6  4  1  0
  7  6  2  0
  8  6  1  0
  9  8  1  0
  9 12  1  0
  9 10  1  6
 11 10  1  0
 12 13  2  0
 12 20  1  0
 14 15  1  0
 15 16  2  0
 17 15  1  0
 17 18  1  0
 19 18  1  1
 19 21  1  0
 20 19  1  0
 21 22  1  0
 23 21  2  0
M  END
$$$$
