VCQ.pdb
     RDKit          3D

 23 22  0  0  1  0  0  0  0  0999 V2000
   13.0165  -10.8772  -14.2476 C   0  0  0  0  0  0  0  0  0  0  0  0
   13.6622  -10.0704  -13.1589 C   0  0  2  0  0  0  0  0  0  0  0  0
   13.4638   -8.6065  -13.4676 C   0  0  0  0  0  0  0  0  0  0  0  0
   15.1651  -10.3720  -13.0679 C   0  0  2  0  0  0  0  0  0  0  0  0
   15.2799  -11.7608  -12.6942 N   0  0  0  0  0  0  0  0  0  0  0  0
   15.8149   -9.5341  -12.0535 C   0  0  0  0  0  0  0  0  0  0  0  0
   15.5493   -9.7961  -10.8311 O   0  0  0  0  0  0  0  0  0  0  0  0
   16.7047   -8.4711  -12.3742 N   0  0  0  0  0  0  0  0  0  0  0  0
   17.2160   -7.6836  -11.2642 C   0  0  1  0  0  0  0  0  0  0  0  0
   18.4925   -7.0511  -11.8079 C   0  0  0  0  0  0  0  0  0  0  0  0
   19.2677   -6.0984  -10.4935 S   0  0  0  0  0  0  0  0  0  0  0  0
   16.2876   -6.6096  -10.8891 C   0  0  0  0  0  0  0  0  0  0  0  0
   15.6405   -5.9820  -11.8043 O   0  0  0  0  0  0  0  0  0  0  0  0
   13.4156   -5.3399   -5.4045 N   0  0  0  0  0  0  0  0  0  0  0  0
   12.9574   -4.2869   -6.2191 C   0  0  0  0  0  0  0  0  0  0  0  0
   12.1114   -3.4456   -5.8446 O   0  0  0  0  0  0  0  0  0  0  0  0
   13.5000   -4.1514   -7.6093 C   0  0  0  0  0  0  0  0  0  0  0  0
   14.4848   -5.2403   -7.9146 C   0  0  0  0  0  0  0  0  0  0  0  0
   15.0400   -5.1137   -9.2762 C   0  0  2  0  0  0  0  0  0  0  0  0
   16.0057   -6.1660   -9.5855 N   0  0  0  0  0  0  0  0  0  0  0  0
   15.6776   -3.8338   -9.5696 C   0  0  0  0  0  0  0  0  0  0  0  0
   14.9659   -2.6938   -9.8556 O   0  0  0  0  0  0  0  0  0  0  0  0
   16.9307   -3.7219   -9.5749 O   0  0  0  0  0  0  0  0  0  0  0  0
  2  1  1  6
  2  4  1  0
  3  2  1  0
  4  5  1  1
  6  4  1  0
  7  6  2  0
  8  6  1  0
  9  8  1  0
  9 12  1  0
  9 10  1  6
 11 10  1  0
 12 13  2  0
 12 20  1  0
 14 15  1  0
 15 16  2  0
 17 15  1  0
 17 18  1  0
 19 18  1  1
 19 21  1  0
 20 19  1  0
 21 22  1  0
 23 21  2  0
M  END
$$$$
