VCQ.pdb
     RDKit          3D

 23 22  0  0  1  0  0  0  0  0999 V2000
   21.0118  -20.5618  -17.2699 C   0  0  0  0  0  0  0  0  0  0  0  0
   21.2008  -19.1461  -16.8080 C   0  0  2  0  0  0  0  0  0  0  0  0
   21.1326  -18.2380  -18.0115 C   0  0  0  0  0  0  0  0  0  0  0  0
   22.5592  -18.9702  -16.1142 C   0  0  2  0  0  0  0  0  0  0  0  0
   22.5150  -19.7797  -14.9208 N   0  0  0  0  0  0  0  0  0  0  0  0
   22.7921  -17.5681  -15.7494 C   0  0  0  0  0  0  0  0  0  0  0  0
   22.0205  -17.0658  -14.8628 O   0  0  0  0  0  0  0  0  0  0  0  0
   23.8173  -16.7713  -16.3313 N   0  0  0  0  0  0  0  0  0  0  0  0
   23.9778  -15.4231  -15.8113 C   0  0  1  0  0  0  0  0  0  0  0  0
   25.4655  -15.1312  -15.9751 C   0  0  0  0  0  0  0  0  0  0  0  0
   26.3298  -15.7067  -14.5060 S   0  0  0  0  0  0  0  0  0  0  0  0
   23.2216  -14.4440  -16.6022 C   0  0  0  0  0  0  0  0  0  0  0  0
   23.0166  -14.6602  -17.8518 O   0  0  0  0  0  0  0  0  0  0  0  0
   18.4858  -10.9484  -14.6897 N   0  0  0  0  0  0  0  0  0  0  0  0
   18.5675  -10.5374  -16.0339 C   0  0  0  0  0  0  0  0  0  0  0  0
   17.7339   -9.7766  -16.5724 O   0  0  0  0  0  0  0  0  0  0  0  0
   19.7050  -11.0265  -16.8780 C   0  0  0  0  0  0  0  0  0  0  0  0
   20.5737  -11.9815  -16.1150 C   0  0  0  0  0  0  0  0  0  0  0  0
   21.7398  -12.4175  -16.9077 C   0  0  2  0  0  0  0  0  0  0  0  0
   22.6651  -13.2415  -16.1329 N   0  0  0  0  0  0  0  0  0  0  0  0
   22.5154  -11.3399  -17.5145 C   0  0  0  0  0  0  0  0  0  0  0  0
   23.7560  -10.9650  -17.0580 O   0  0  0  0  0  0  0  0  0  0  0  0
   22.0682  -10.6962  -18.4986 O   0  0  0  0  0  0  0  0  0  0  0  0
  2  1  1  6
  2  4  1  0
  3  2  1  0
  4  5  1  1
  6  4  1  0
  7  6  2  0
  8  6  1  0
  9  8  1  0
  9 12  1  0
  9 10  1  6
 11 10  1  0
 12 13  2  0
 12 20  1  0
 14 15  1  0
 15 16  2  0
 17 15  1  0
 17 18  1  0
 19 18  1  1
 19 21  1  0
 20 19  1  0
 21 22  1  0
 23 21  2  0
M  END
$$$$
