VCQ.pdb
     RDKit          3D

 23 22  0  0  1  0  0  0  0  0999 V2000
   28.5711  -18.8124  -16.7979 C   0  0  0  0  0  0  0  0  0  0  0  0
   27.4700  -19.3380  -15.9235 C   0  0  2  0  0  0  0  0  0  0  0  0
   26.9317  -18.1966  -15.0957 C   0  0  0  0  0  0  0  0  0  0  0  0
   27.9874  -20.4429  -14.9912 C   0  0  2  0  0  0  0  0  0  0  0  0
   28.3906  -21.5371  -15.8408 N   0  0  0  0  0  0  0  0  0  0  0  0
   26.9385  -20.8956  -14.0702 C   0  0  0  0  0  0  0  0  0  0  0  0
   25.9707  -21.5586  -14.5776 O   0  0  0  0  0  0  0  0  0  0  0  0
   26.9608  -20.6300  -12.6725 N   0  0  0  0  0  0  0  0  0  0  0  0
   25.8190  -21.0880  -11.8976 C   0  0  1  0  0  0  0  0  0  0  0  0
   26.1761  -20.7359  -10.4575 C   0  0  0  0  0  0  0  0  0  0  0  0
   24.7583  -21.0933   -9.4094 S   0  0  0  0  0  0  0  0  0  0  0  0
   24.5927  -20.3677  -12.2625 C   0  0  0  0  0  0  0  0  0  0  0  0
   24.6261  -19.0919  -12.4092 O   0  0  0  0  0  0  0  0  0  0  0  0
   22.4427  -19.3026  -17.1302 N   0  0  0  0  0  0  0  0  0  0  0  0
   21.1484  -19.4652  -16.6003 C   0  0  0  0  0  0  0  0  0  0  0  0
   20.1070  -19.3637  -17.2851 O   0  0  0  0  0  0  0  0  0  0  0  0
   20.9910  -19.7762  -15.1429 C   0  0  0  0  0  0  0  0  0  0  0  0
   22.3247  -19.9390  -14.4769 C   0  0  0  0  0  0  0  0  0  0  0  0
   22.1892  -20.1947  -13.0297 C   0  0  2  0  0  0  0  0  0  0  0  0
   23.3256  -20.9341  -12.4845 N   0  0  0  0  0  0  0  0  0  0  0  0
   20.9754  -20.9037  -12.6360 C   0  0  0  0  0  0  0  0  0  0  0  0
   19.7732  -20.2698  -12.4342 O   0  0  0  0  0  0  0  0  0  0  0  0
   20.9827  -22.1493  -12.4595 O   0  0  0  0  0  0  0  0  0  0  0  0
  2  1  1  1
  2  4  1  0
  3  2  1  0
  4  5  1  6
  6  4  1  0
  7  6  2  0
  8  6  1  0
  9  8  1  0
  9 12  1  0
  9 10  1  1
 11 10  1  0
 12 13  2  0
 12 20  1  0
 14 15  1  0
 15 16  2  0
 17 15  1  0
 17 18  1  0
 19 18  1  6
 19 21  1  0
 20 19  1  0
 21 22  1  0
 23 21  2  0
M  END
$$$$
