VCQ.pdb
     RDKit          3D

 23 22  0  0  1  0  0  0  0  0999 V2000
   34.1506  -29.5251  -20.8092 C   0  0  0  0  0  0  0  0  0  0  0  0
   33.0330  -29.2851  -19.8364 C   0  0  2  0  0  0  0  0  0  0  0  0
   32.0445  -28.3365  -20.4693 C   0  0  0  0  0  0  0  0  0  0  0  0
   33.5613  -28.6730  -18.5310 C   0  0  2  0  0  0  0  0  0  0  0  0
   34.2172  -29.7411  -17.8165 N   0  0  0  0  0  0  0  0  0  0  0  0
   32.4667  -28.1348  -17.7152 C   0  0  0  0  0  0  0  0  0  0  0  0
   31.9329  -28.9290  -16.8680 O   0  0  0  0  0  0  0  0  0  0  0  0
   31.9929  -26.7981  -17.8310 N   0  0  0  0  0  0  0  0  0  0  0  0
   30.9635  -26.3813  -16.8927 C   0  0  1  0  0  0  0  0  0  0  0  0
   31.2631  -24.9085  -16.6351 C   0  0  0  0  0  0  0  0  0  0  0  0
   29.8627  -24.1787  -15.7732 S   0  0  0  0  0  0  0  0  0  0  0  0
   29.6214  -26.4878  -17.4785 C   0  0  0  0  0  0  0  0  0  0  0  0
   29.3978  -25.9992  -18.6454 O   0  0  0  0  0  0  0  0  0  0  0  0
   24.4612  -29.8479  -17.3246 N   0  0  0  0  0  0  0  0  0  0  0  0
   25.5198  -30.1398  -16.4434 C   0  0  0  0  0  0  0  0  0  0  0  0
   25.4217  -30.9482  -15.4943 O   0  0  0  0  0  0  0  0  0  0  0  0
   26.8393  -29.4564  -16.6371 C   0  0  0  0  0  0  0  0  0  0  0  0
   26.8226  -28.5827  -17.8558 C   0  0  0  0  0  0  0  0  0  0  0  0
   27.1924  -27.1895  -17.5387 C   0  0  2  0  0  0  0  0  0  0  0  0
   28.4977  -27.0924  -16.8888 N   0  0  0  0  0  0  0  0  0  0  0  0
   26.2342  -26.4672  -16.7075 C   0  0  0  0  0  0  0  0  0  0  0  0
   24.9550  -26.1818  -17.1198 O   0  0  0  0  0  0  0  0  0  0  0  0
   26.5491  -26.0665  -15.5572 O   0  0  0  0  0  0  0  0  0  0  0  0
  2  1  1  6
  2  4  1  0
  3  2  1  0
  4  5  1  1
  6  4  1  0
  7  6  2  0
  8  6  1  0
  9  8  1  0
  9 12  1  0
  9 10  1  6
 11 10  1  0
 12 13  2  0
 12 20  1  0
 14 15  1  0
 15 16  2  0
 17 15  1  0
 17 18  1  0
 19 18  1  1
 19 21  1  0
 20 19  1  0
 21 22  1  0
 23 21  2  0
M  END
$$$$
