FWA.pdb
     RDKit          3D

 31 33  0  0  1  0  0  0  0  0999 V2000
    8.3550  -17.2632   21.0377 N   0  0  0  0  0  0  0  0  0  0  0  0
    9.6617  -16.6976   21.1637 C   0  0  1  0  0  0  0  0  0  0  0  0
    9.7919  -15.4442   20.3216 C   0  0  0  0  0  0  0  0  0  0  0  0
    8.6652  -14.4988   20.5975 C   0  0  0  0  0  0  0  0  0  0  0  0
    8.6004  -13.3208   19.8948 C   0  0  0  0  0  0  0  0  0  0  0  0
    7.5643  -12.4456   20.1443 C   0  0  0  0  0  0  0  0  0  0  0  0
    6.6043  -12.7363   21.0800 C   0  0  0  0  0  0  0  0  0  0  0  0
    6.6885  -13.9238   21.7738 C   0  0  0  0  0  0  0  0  0  0  0  0
    7.7117  -14.8171   21.5458 C   0  0  0  0  0  0  0  0  0  0  0  0
    9.9693  -16.3489   22.5739 C   0  0  0  0  0  0  0  0  0  0  0  0
   10.9275  -15.6001   22.8705 O   0  0  0  0  0  0  0  0  0  0  0  0
    9.1595  -16.8749   23.6157 N   0  0  0  0  0  0  0  0  0  0  0  0
    9.4583  -16.7746   25.0201 C   0  0  1  0  0  0  0  0  0  0  0  0
    8.2130  -16.8591   25.8751 C   0  0  0  0  0  0  0  0  0  0  0  0
    7.3027  -15.7254   25.6311 C   0  0  0  0  0  0  0  0  0  0  0  0
    6.0770  -15.7025   24.9994 C   0  0  0  0  0  0  0  0  0  0  0  0
    5.6002  -14.4404   25.0045 N   0  0  0  0  0  0  0  0  0  0  0  0
    6.4529  -13.6113   25.6130 C   0  0  0  0  0  0  0  0  0  0  0  0
    6.4311  -12.2629   25.8715 C   0  0  0  0  0  0  0  0  0  0  0  0
    7.4919  -11.7002   26.5348 C   0  0  0  0  0  0  0  0  0  0  0  0
    8.5592  -12.4710   26.9346 C   0  0  0  0  0  0  0  0  0  0  0  0
    8.5819  -13.8263   26.6752 C   0  0  0  0  0  0  0  0  0  0  0  0
    7.5280  -14.4141   26.0105 C   0  0  0  0  0  0  0  0  0  0  0  0
   10.3752  -17.8405   25.4596 C   0  0  0  0  0  0  0  0  0  0  0  0
   10.1528  -19.0207   25.1325 O   0  0  0  0  0  0  0  0  0  0  0  0
   13.7632  -17.8997   26.9350 C   0  0  0  0  0  0  0  0  0  0  0  0
   12.4328  -18.5365   26.6912 C   0  0  2  0  0  0  0  0  0  0  0  0
   11.4958  -17.5175   26.2459 N   0  0  0  0  0  0  0  0  0  0  0  0
   11.8858  -19.2010   27.9022 C   0  0  0  0  0  0  0  0  0  0  0  0
   12.5110  -20.1468   28.4459 O   0  0  0  0  0  0  0  0  0  0  0  0
   10.6847  -18.8173   28.4779 O   0  0  0  0  0  0  0  0  0  0  0  0
  2  1  1  1
  2  3  1  0
  2 10  1  0
  3  4  1  0
  4  5  2  0
  4  9  1  0
  5  6  1  0
  6  7  2  0
  8  7  1  0
  9  8  2  0
 10 11  2  0
 12 10  1  0
 12 13  1  0
 13 14  1  1
 14 15  1  0
 15 16  2  0
 16 17  1  0
 18 17  1  0
 19 18  2  0
 20 19  1  0
 21 22  1  0
 21 20  2  0
 22 23  2  0
 23 15  1  0
 23 18  1  0
 24 13  1  0
 24 25  2  0
 27 26  1  1
 27 29  1  0
 27 28  1  0
 28 24  1  0
 29 31  1  0
 30 29  2  0
M  END
$$$$
