FWA.pdb
     RDKit          3D

 31 33  0  0  1  0  0  0  0  0999 V2000
    8.5721  -16.3827   21.3852 N   0  0  0  0  0  0  0  0  0  0  0  0
    9.2672  -15.2248   21.8537 C   0  0  1  0  0  0  0  0  0  0  0  0
    8.3444  -14.0234   21.9034 C   0  0  0  0  0  0  0  0  0  0  0  0
    7.9754  -13.5788   20.5230 C   0  0  0  0  0  0  0  0  0  0  0  0
    8.8726  -12.8256   19.8066 C   0  0  0  0  0  0  0  0  0  0  0  0
    8.5384  -12.4131   18.5338 C   0  0  0  0  0  0  0  0  0  0  0  0
    7.3283  -12.7444   17.9791 C   0  0  0  0  0  0  0  0  0  0  0  0
    6.4429  -13.5010   18.7155 C   0  0  0  0  0  0  0  0  0  0  0  0
    6.7493  -13.9270   19.9889 C   0  0  0  0  0  0  0  0  0  0  0  0
    9.8293  -15.4405   23.2110 C   0  0  0  0  0  0  0  0  0  0  0  0
   10.7046  -14.6825   23.6867 O   0  0  0  0  0  0  0  0  0  0  0  0
    9.3659  -16.5319   23.9932 N   0  0  0  0  0  0  0  0  0  0  0  0
    9.7626  -16.7977   25.3511 C   0  0  1  0  0  0  0  0  0  0  0  0
    8.5731  -16.9334   26.2760 C   0  0  0  0  0  0  0  0  0  0  0  0
    7.6138  -15.8276   26.1011 C   0  0  0  0  0  0  0  0  0  0  0  0
    6.3303  -15.8489   25.5973 C   0  0  0  0  0  0  0  0  0  0  0  0
    5.8241  -14.5985   25.6232 N   0  0  0  0  0  0  0  0  0  0  0  0
    6.7124  -13.7351   26.1233 C   0  0  0  0  0  0  0  0  0  0  0  0
    6.6822  -12.3816   26.3530 C   0  0  0  0  0  0  0  0  0  0  0  0
    7.7899  -11.7782   26.8922 C   0  0  0  0  0  0  0  0  0  0  0  0
    8.9117  -12.5138   27.1981 C   0  0  0  0  0  0  0  0  0  0  0  0
    8.9429  -13.8741   26.9675 C   0  0  0  0  0  0  0  0  0  0  0  0
    7.8426  -14.5025   26.4267 C   0  0  0  0  0  0  0  0  0  0  0  0
   10.5532  -18.0363   25.4553 C   0  0  0  0  0  0  0  0  0  0  0  0
   10.1751  -19.0626   24.8609 O   0  0  0  0  0  0  0  0  0  0  0  0
   13.7714  -18.9671   27.0947 C   0  0  0  0  0  0  0  0  0  0  0  0
   12.4261  -19.2911   26.5289 C   0  0  2  0  0  0  0  0  0  0  0  0
   11.7300  -18.0509   26.2255 N   0  0  0  0  0  0  0  0  0  0  0  0
   11.5938  -20.0987   27.4576 C   0  0  0  0  0  0  0  0  0  0  0  0
   11.9531  -21.2569   27.7899 O   0  0  0  0  0  0  0  0  0  0  0  0
   10.4062  -19.6226   27.9908 O   0  0  0  0  0  0  0  0  0  0  0  0
  2  1  1  1
  2  3  1  0
  2 10  1  0
  3  4  1  0
  4  5  2  0
  4  9  1  0
  5  6  1  0
  6  7  2  0
  8  7  1  0
  9  8  2  0
 10 11  2  0
 12 10  1  0
 12 13  1  0
 13 14  1  1
 14 15  1  0
 15 16  2  0
 16 17  1  0
 18 17  1  0
 19 18  2  0
 20 19  1  0
 21 22  1  0
 21 20  2  0
 22 23  2  0
 23 15  1  0
 23 18  1  0
 24 13  1  0
 24 25  2  0
 27 26  1  1
 27 29  1  0
 27 28  1  0
 28 24  1  0
 29 31  1  0
 30 29  2  0
M  END
$$$$
