FWA.pdb
     RDKit          3D

 31 33  0  0  1  0  0  0  0  0999 V2000
    6.1618  -15.0211   21.0232 N   0  0  0  0  0  0  0  0  0  0  0  0
    7.3804  -15.7682   21.0084 C   0  0  1  0  0  0  0  0  0  0  0  0
    8.1355  -15.5455   19.7133 C   0  0  0  0  0  0  0  0  0  0  0  0
    9.3880  -16.3638   19.6805 C   0  0  0  0  0  0  0  0  0  0  0  0
    9.3247  -17.6554   19.2188 C   0  0  0  0  0  0  0  0  0  0  0  0
   10.4756  -18.4144   19.1859 C   0  0  0  0  0  0  0  0  0  0  0  0
   11.6747  -17.8974   19.6062 C   0  0  0  0  0  0  0  0  0  0  0  0
   11.7156  -16.5991   20.0658 C   0  0  0  0  0  0  0  0  0  0  0  0
   10.5825  -15.8175   20.1101 C   0  0  0  0  0  0  0  0  0  0  0  0
    8.2653  -15.3871   22.1383 C   0  0  0  0  0  0  0  0  0  0  0  0
    8.6934  -14.2183   22.2710 O   0  0  0  0  0  0  0  0  0  0  0  0
    8.6380  -16.3687   23.0950 N   0  0  0  0  0  0  0  0  0  0  0  0
    9.5068  -16.1343   24.2183 C   0  0  1  0  0  0  0  0  0  0  0  0
    8.7828  -16.2798   25.5388 C   0  0  0  0  0  0  0  0  0  0  0  0
    7.6837  -15.3062   25.6714 C   0  0  0  0  0  0  0  0  0  0  0  0
    6.3316  -15.4725   25.4572 C   0  0  0  0  0  0  0  0  0  0  0  0
    5.6985  -14.3058   25.6996 N   0  0  0  0  0  0  0  0  0  0  0  0
    6.5671  -13.3600   26.0681 C   0  0  0  0  0  0  0  0  0  0  0  0
    6.4279  -12.0386   26.4145 C   0  0  0  0  0  0  0  0  0  0  0  0
    7.5484  -11.3224   26.7512 C   0  0  0  0  0  0  0  0  0  0  0  0
    8.7900  -11.9154   26.7427 C   0  0  0  0  0  0  0  0  0  0  0  0
    8.9307  -13.2434   26.3947 C   0  0  0  0  0  0  0  0  0  0  0  0
    7.8200  -13.9832   26.0526 C   0  0  0  0  0  0  0  0  0  0  0  0
   10.6473  -17.0667   24.2290 C   0  0  0  0  0  0  0  0  0  0  0  0
   10.4449  -18.2915   24.1381 O   0  0  0  0  0  0  0  0  0  0  0  0
   14.3245  -16.7253   23.9788 C   0  0  0  0  0  0  0  0  0  0  0  0
   13.1047  -17.4539   24.4435 C   0  0  2  0  0  0  0  0  0  0  0  0
   11.9570  -16.5666   24.3418 N   0  0  0  0  0  0  0  0  0  0  0  0
   13.2233  -17.9330   25.8449 C   0  0  0  0  0  0  0  0  0  0  0  0
   12.4743  -17.4681   26.7415 O   0  0  0  0  0  0  0  0  0  0  0  0
   14.1464  -18.8957   26.2220 O   0  0  0  0  0  0  0  0  0  0  0  0
  2  1  1  6
  2  3  1  0
  2 10  1  0
  3  4  1  0
  4  5  2  0
  4  9  1  0
  5  6  1  0
  6  7  2  0
  8  7  1  0
  9  8  2  0
 10 11  2  0
 12 10  1  0
 12 13  1  0
 13 14  1  1
 14 15  1  0
 15 16  2  0
 16 17  1  0
 18 17  1  0
 19 18  2  0
 20 19  1  0
 21 22  1  0
 21 20  2  0
 22 23  2  0
 23 15  1  0
 23 18  1  0
 24 13  1  0
 24 25  2  0
 27 26  1  1
 27 29  1  0
 27 28  1  0
 28 24  1  0
 29 31  1  0
 30 29  2  0
M  END
$$$$
