FWA.pdb
     RDKit          3D

 31 33  0  0  1  0  0  0  0  0999 V2000
    8.2736  -17.2811   21.2244 N   0  0  0  0  0  0  0  0  0  0  0  0
    9.5768  -16.7081   21.3540 C   0  0  1  0  0  0  0  0  0  0  0  0
    9.7194  -15.4840   20.4718 C   0  0  0  0  0  0  0  0  0  0  0  0
    8.5314  -14.5851   20.6134 C   0  0  0  0  0  0  0  0  0  0  0  0
    7.4938  -14.9793   21.4218 C   0  0  0  0  0  0  0  0  0  0  0  0
    6.3964  -14.1551   21.5566 C   0  0  0  0  0  0  0  0  0  0  0  0
    6.3299  -12.9542   20.8969 C   0  0  0  0  0  0  0  0  0  0  0  0
    7.3822  -12.5781   20.0908 C   0  0  0  0  0  0  0  0  0  0  0  0
    8.4909  -13.3806   19.9371 C   0  0  0  0  0  0  0  0  0  0  0  0
    9.8586  -16.3104   22.7566 C   0  0  0  0  0  0  0  0  0  0  0  0
   10.7047  -15.4298   23.0314 O   0  0  0  0  0  0  0  0  0  0  0  0
    9.1536  -16.9411   23.8162 N   0  0  0  0  0  0  0  0  0  0  0  0
    9.5171  -16.8638   25.2068 C   0  0  1  0  0  0  0  0  0  0  0  0
    8.3083  -16.9121   26.1153 C   0  0  0  0  0  0  0  0  0  0  0  0
    7.3982  -15.7769   25.8775 C   0  0  0  0  0  0  0  0  0  0  0  0
    6.1769  -15.7486   25.2377 C   0  0  0  0  0  0  0  0  0  0  0  0
    5.6984  -14.4871   25.2534 N   0  0  0  0  0  0  0  0  0  0  0  0
    6.5458  -13.6638   25.8768 C   0  0  0  0  0  0  0  0  0  0  0  0
    6.5205  -12.3183   26.1499 C   0  0  0  0  0  0  0  0  0  0  0  0
    7.5760  -11.7616   26.8266 C   0  0  0  0  0  0  0  0  0  0  0  0
    8.6415  -12.5355   27.2253 C   0  0  0  0  0  0  0  0  0  0  0  0
    8.6678  -13.8878   26.9512 C   0  0  0  0  0  0  0  0  0  0  0  0
    7.6193  -14.4695   26.2728 C   0  0  0  0  0  0  0  0  0  0  0  0
   10.4140  -17.9652   25.5975 C   0  0  0  0  0  0  0  0  0  0  0  0
   10.0075  -19.1406   25.5471 O   0  0  0  0  0  0  0  0  0  0  0  0
   14.0493  -18.2098   26.2955 C   0  0  0  0  0  0  0  0  0  0  0  0
   12.6542  -18.7397   26.3826 C   0  0  2  0  0  0  0  0  0  0  0  0
   11.7236  -17.6811   26.0248 N   0  0  0  0  0  0  0  0  0  0  0  0
   12.3166  -19.2428   27.7393 C   0  0  0  0  0  0  0  0  0  0  0  0
   12.9892  -20.1690   28.2596 O   0  0  0  0  0  0  0  0  0  0  0  0
   11.2657  -18.7251   28.4800 O   0  0  0  0  0  0  0  0  0  0  0  0
  2  1  1  1
  2  3  1  0
  2 10  1  0
  3  4  1  0
  4  5  2  0
  4  9  1  0
  5  6  1  0
  6  7  2  0
  8  7  1  0
  9  8  2  0
 10 11  2  0
 12 10  1  0
 12 13  1  0
 13 14  1  1
 14 15  1  0
 15 16  2  0
 16 17  1  0
 18 17  1  0
 19 18  2  0
 20 19  1  0
 21 22  1  0
 21 20  2  0
 22 23  2  0
 23 15  1  0
 23 18  1  0
 24 13  1  0
 24 25  2  0
 27 26  1  1
 27 29  1  0
 27 28  1  0
 28 24  1  0
 29 31  1  0
 30 29  2  0
M  END
$$$$
