FWA.pdb
     RDKit          3D

 31 33  0  0  1  0  0  0  0  0999 V2000
    8.8668  -15.7309   20.1449 N   0  0  0  0  0  0  0  0  0  0  0  0
    9.0054  -16.7175   21.1699 C   0  0  1  0  0  0  0  0  0  0  0  0
    9.8594  -17.8756   20.6937 C   0  0  0  0  0  0  0  0  0  0  0  0
    9.1374  -18.6777   19.6569 C   0  0  0  0  0  0  0  0  0  0  0  0
    9.4815  -18.5191   18.3371 C   0  0  0  0  0  0  0  0  0  0  0  0
    8.8200  -19.2557   17.3771 C   0  0  0  0  0  0  0  0  0  0  0  0
    7.8291  -20.1388   17.7232 C   0  0  0  0  0  0  0  0  0  0  0  0
    7.4997  -20.2824   19.0534 C   0  0  0  0  0  0  0  0  0  0  0  0
    8.1430  -19.5603   20.0339 C   0  0  0  0  0  0  0  0  0  0  0  0
    9.6274  -16.1480   22.3920 C   0  0  0  0  0  0  0  0  0  0  0  0
   10.4305  -15.1896   22.3336 O   0  0  0  0  0  0  0  0  0  0  0  0
    9.3067  -16.7002   23.6608 N   0  0  0  0  0  0  0  0  0  0  0  0
    9.8446  -16.2447   24.9158 C   0  0  1  0  0  0  0  0  0  0  0  0
    8.8258  -16.3164   26.0319 C   0  0  0  0  0  0  0  0  0  0  0  0
    7.6546  -15.4630   25.7606 C   0  0  0  0  0  0  0  0  0  0  0  0
    6.4161  -15.8037   25.2587 C   0  0  0  0  0  0  0  0  0  0  0  0
    5.6521  -14.6947   25.1755 N   0  0  0  0  0  0  0  0  0  0  0  0
    6.3234  -13.6206   25.6002 C   0  0  0  0  0  0  0  0  0  0  0  0
    5.9979  -12.2913   25.7118 C   0  0  0  0  0  0  0  0  0  0  0  0
    6.9385  -11.4194   26.1983 C   0  0  0  0  0  0  0  0  0  0  0  0
    8.1861  -11.8666   26.5683 C   0  0  0  0  0  0  0  0  0  0  0  0
    8.5141  -13.2024   26.4565 C   0  0  0  0  0  0  0  0  0  0  0  0
    7.5860  -14.0971   25.9705 C   0  0  0  0  0  0  0  0  0  0  0  0
   11.0149  -17.0390   25.3275 C   0  0  0  0  0  0  0  0  0  0  0  0
   10.9079  -18.2716   25.4646 O   0  0  0  0  0  0  0  0  0  0  0  0
   14.6382  -16.3205   25.3906 C   0  0  0  0  0  0  0  0  0  0  0  0
   13.4655  -17.1565   25.7916 C   0  0  2  0  0  0  0  0  0  0  0  0
   12.2452  -16.3994   25.5628 N   0  0  0  0  0  0  0  0  0  0  0  0
   13.5183  -17.5700   27.2177 C   0  0  0  0  0  0  0  0  0  0  0  0
   12.6356  -17.1830   28.0252 O   0  0  0  0  0  0  0  0  0  0  0  0
   14.5228  -18.3855   27.7148 O   0  0  0  0  0  0  0  0  0  0  0  0
  2  1  1  6
  2  3  1  0
  2 10  1  0
  3  4  1  0
  4  5  2  0
  4  9  1  0
  5  6  1  0
  6  7  2  0
  8  7  1  0
  9  8  2  0
 10 11  2  0
 12 10  1  0
 12 13  1  0
 13 14  1  1
 14 15  1  0
 15 16  2  0
 16 17  1  0
 18 17  1  0
 19 18  2  0
 20 19  1  0
 21 22  1  0
 21 20  2  0
 22 23  2  0
 23 15  1  0
 23 18  1  0
 24 13  1  0
 24 25  2  0
 27 26  1  1
 27 29  1  0
 27 28  1  0
 28 24  1  0
 29 31  1  0
 30 29  2  0
M  END
$$$$
