FWA.pdb
     RDKit          3D

 31 33  0  0  1  0  0  0  0  0999 V2000
    6.5013  -19.0710   19.7384 N   0  0  0  0  0  0  0  0  0  0  0  0
    6.3151  -18.0499   20.7213 C   0  0  1  0  0  0  0  0  0  0  0  0
    5.3942  -18.5255   21.8272 C   0  0  0  0  0  0  0  0  0  0  0  0
    4.0674  -18.9401   21.2731 C   0  0  0  0  0  0  0  0  0  0  0  0
    3.2450  -17.9818   20.7337 C   0  0  0  0  0  0  0  0  0  0  0  0
    2.0212  -18.3577   20.2212 C   0  0  0  0  0  0  0  0  0  0  0  0
    1.6188  -19.6689   20.2438 C   0  0  0  0  0  0  0  0  0  0  0  0
    2.4596  -20.6142   20.7896 C   0  0  0  0  0  0  0  0  0  0  0  0
    3.6874  -20.2683   21.3089 C   0  0  0  0  0  0  0  0  0  0  0  0
    7.6057  -17.6396   21.3300 C   0  0  0  0  0  0  0  0  0  0  0  0
    8.6422  -18.3290   21.1974 O   0  0  0  0  0  0  0  0  0  0  0  0
    7.6717  -16.4364   22.0821 N   0  0  0  0  0  0  0  0  0  0  0  0
    8.8833  -15.8513   22.5934 C   0  0  1  0  0  0  0  0  0  0  0  0
    8.6523  -14.4689   23.1630 C   0  0  0  0  0  0  0  0  0  0  0  0
    7.7016  -14.4922   24.2897 C   0  0  0  0  0  0  0  0  0  0  0  0
    6.8303  -15.4855   24.6841 C   0  0  0  0  0  0  0  0  0  0  0  0
    6.1491  -15.0702   25.7722 N   0  0  0  0  0  0  0  0  0  0  0  0
    6.5246  -13.8384   26.1279 C   0  0  0  0  0  0  0  0  0  0  0  0
    6.1411  -12.9936   27.1402 C   0  0  0  0  0  0  0  0  0  0  0  0
    6.7363  -11.7612   27.2333 C   0  0  0  0  0  0  0  0  0  0  0  0
    7.7002  -11.3766   26.3298 C   0  0  0  0  0  0  0  0  0  0  0  0
    8.0862  -12.2250   25.3122 C   0  0  0  0  0  0  0  0  0  0  0  0
    7.5027  -13.4678   25.1982 C   0  0  0  0  0  0  0  0  0  0  0  0
    9.4816  -16.6781   23.6557 C   0  0  0  0  0  0  0  0  0  0  0  0
    8.7494  -17.3730   24.3841 O   0  0  0  0  0  0  0  0  0  0  0  0
   12.7705  -18.1465   23.9510 C   0  0  0  0  0  0  0  0  0  0  0  0
   11.5372  -17.6820   24.6565 C   0  0  2  0  0  0  0  0  0  0  0  0
   10.8760  -16.6767   23.8399 N   0  0  0  0  0  0  0  0  0  0  0  0
   11.8262  -17.1049   25.9948 C   0  0  0  0  0  0  0  0  0  0  0  0
   11.5867  -15.8931   26.2300 O   0  0  0  0  0  0  0  0  0  0  0  0
   12.3626  -17.8600   27.0259 O   0  0  0  0  0  0  0  0  0  0  0  0
  2  1  1  6
  2  3  1  0
  2 10  1  0
  3  4  1  0
  4  5  2  0
  4  9  1  0
  5  6  1  0
  6  7  2  0
  8  7  1  0
  9  8  2  0
 10 11  2  0
 12 10  1  0
 12 13  1  0
 13 14  1  1
 14 15  1  0
 15 16  2  0
 16 17  1  0
 18 17  1  0
 19 18  2  0
 20 19  1  0
 21 22  1  0
 21 20  2  0
 22 23  2  0
 23 15  1  0
 23 18  1  0
 24 13  1  0
 24 25  2  0
 27 26  1  6
 27 29  1  0
 27 28  1  0
 28 24  1  0
 29 31  1  0
 30 29  2  0
M  END
$$$$
