FWA.pdb
     RDKit          3D

 31 33  0  0  1  0  0  0  0  0999 V2000
    8.1555  -16.5369   21.4330 N   0  0  0  0  0  0  0  0  0  0  0  0
    9.0217  -15.4387   21.7281 C   0  0  1  0  0  0  0  0  0  0  0  0
    8.2858  -14.1199   21.5998 C   0  0  0  0  0  0  0  0  0  0  0  0
    7.9584  -13.8307   20.1685 C   0  0  0  0  0  0  0  0  0  0  0  0
    8.2620  -14.7713   19.2154 C   0  0  0  0  0  0  0  0  0  0  0  0
    7.9625  -14.5106   17.8947 C   0  0  0  0  0  0  0  0  0  0  0  0
    7.3688  -13.3306   17.5250 C   0  0  0  0  0  0  0  0  0  0  0  0
    7.0727  -12.4006   18.4976 C   0  0  0  0  0  0  0  0  0  0  0  0
    7.3602  -12.6334   19.8242 C   0  0  0  0  0  0  0  0  0  0  0  0
    9.5732  -15.5359   23.1033 C   0  0  0  0  0  0  0  0  0  0  0  0
   10.3423  -14.6627   23.5648 O   0  0  0  0  0  0  0  0  0  0  0  0
    9.2226  -16.6443   23.9194 N   0  0  0  0  0  0  0  0  0  0  0  0
    9.7076  -16.8677   25.2561 C   0  0  1  0  0  0  0  0  0  0  0  0
    8.5807  -16.9913   26.2579 C   0  0  0  0  0  0  0  0  0  0  0  0
    7.5863  -15.9145   26.0999 C   0  0  0  0  0  0  0  0  0  0  0  0
    6.3236  -15.9583   25.5473 C   0  0  0  0  0  0  0  0  0  0  0  0
    5.7687  -14.7302   25.6139 N   0  0  0  0  0  0  0  0  0  0  0  0
    6.6043  -13.8603   26.1881 C   0  0  0  0  0  0  0  0  0  0  0  0
    6.5134  -12.5218   26.4810 C   0  0  0  0  0  0  0  0  0  0  0  0
    7.5766  -11.9052   27.0902 C   0  0  0  0  0  0  0  0  0  0  0  0
    8.7143  -12.6131   27.4028 C   0  0  0  0  0  0  0  0  0  0  0  0
    8.8065  -13.9582   27.1088 C   0  0  0  0  0  0  0  0  0  0  0  0
    7.7516  -14.5994   26.4971 C   0  0  0  0  0  0  0  0  0  0  0  0
   10.5196  -18.0937   25.3433 C   0  0  0  0  0  0  0  0  0  0  0  0
   10.0692  -19.1660   24.8997 O   0  0  0  0  0  0  0  0  0  0  0  0
   14.0591  -18.8210   26.1448 C   0  0  0  0  0  0  0  0  0  0  0  0
   12.6254  -19.2340   26.0503 C   0  0  2  0  0  0  0  0  0  0  0  0
   11.7982  -18.0444   25.9273 N   0  0  0  0  0  0  0  0  0  0  0  0
   12.1760  -20.0161   27.2310 C   0  0  0  0  0  0  0  0  0  0  0  0
   11.3243  -19.5388   28.0233 O   0  0  0  0  0  0  0  0  0  0  0  0
   12.6647  -21.2831   27.5087 O   0  0  0  0  0  0  0  0  0  0  0  0
  2  1  1  1
  2  3  1  0
  2 10  1  0
  3  4  1  0
  4  5  2  0
  4  9  1  0
  5  6  1  0
  6  7  2  0
  8  7  1  0
  9  8  2  0
 10 11  2  0
 12 10  1  0
 12 13  1  0
 13 14  1  1
 14 15  1  0
 15 16  2  0
 16 17  1  0
 18 17  1  0
 19 18  2  0
 20 19  1  0
 21 22  1  0
 21 20  2  0
 22 23  2  0
 23 15  1  0
 23 18  1  0
 24 13  1  0
 24 25  2  0
 27 26  1  1
 27 29  1  0
 27 28  1  0
 28 24  1  0
 29 31  1  0
 30 29  2  0
M  END
$$$$
