FWA.pdb
     RDKit          3D

 31 33  0  0  1  0  0  0  0  0999 V2000
    8.8674  -16.2711   21.9538 N   0  0  0  0  0  0  0  0  0  0  0  0
   10.0671  -15.5597   22.2671 C   0  0  1  0  0  0  0  0  0  0  0  0
    9.8943  -14.0739   22.0223 C   0  0  0  0  0  0  0  0  0  0  0  0
    8.7730  -13.8196   21.0645 C   0  0  0  0  0  0  0  0  0  0  0  0
    9.0427  -13.1711   19.8846 C   0  0  0  0  0  0  0  0  0  0  0  0
    8.0136  -12.9341   18.9977 C   0  0  0  0  0  0  0  0  0  0  0  0
    6.7325  -13.3360   19.2788 C   0  0  0  0  0  0  0  0  0  0  0  0
    6.4842  -13.9850   20.4686 C   0  0  0  0  0  0  0  0  0  0  0  0
    7.4918  -14.2354   21.3734 C   0  0  0  0  0  0  0  0  0  0  0  0
   10.4624  -15.7584   23.6845 C   0  0  0  0  0  0  0  0  0  0  0  0
   11.5007  -15.2409   24.1547 O   0  0  0  0  0  0  0  0  0  0  0  0
    9.6460  -16.5539   24.5320 N   0  0  0  0  0  0  0  0  0  0  0  0
    9.8775  -16.7632   25.9371 C   0  0  1  0  0  0  0  0  0  0  0  0
    8.5870  -16.8233   26.7245 C   0  0  0  0  0  0  0  0  0  0  0  0
    7.6314  -15.7879   26.2906 C   0  0  0  0  0  0  0  0  0  0  0  0
    6.4854  -15.9112   25.5336 C   0  0  0  0  0  0  0  0  0  0  0  0
    5.9226  -14.6944   25.3813 N   0  0  0  0  0  0  0  0  0  0  0  0
    6.6411  -13.7559   26.0038 C   0  0  0  0  0  0  0  0  0  0  0  0
    6.4950  -12.3976   26.1433 C   0  0  0  0  0  0  0  0  0  0  0  0
    7.4326  -11.7030   26.8647 C   0  0  0  0  0  0  0  0  0  0  0  0
    8.5005  -12.3534   27.4387 C   0  0  0  0  0  0  0  0  0  0  0  0
    8.6481  -13.7184   27.2990 C   0  0  0  0  0  0  0  0  0  0  0  0
    7.7194  -14.4375   26.5791 C   0  0  0  0  0  0  0  0  0  0  0  0
   10.6125  -18.0150   26.1877 C   0  0  0  0  0  0  0  0  0  0  0  0
   10.8346  -18.3776   27.3576 O   0  0  0  0  0  0  0  0  0  0  0  0
   11.7371  -20.8385   24.0482 C   0  0  0  0  0  0  0  0  0  0  0  0
   11.7915  -20.0316   25.3055 C   0  0  2  0  0  0  0  0  0  0  0  0
   11.0582  -18.7921   25.1034 N   0  0  0  0  0  0  0  0  0  0  0  0
   13.1816  -19.7096   25.7194 C   0  0  0  0  0  0  0  0  0  0  0  0
   13.6022  -18.5257   25.6688 O   0  0  0  0  0  0  0  0  0  0  0  0
   14.0623  -20.6796   26.1717 O   0  0  0  0  0  0  0  0  0  0  0  0
  2  1  1  1
  2  3  1  0
  2 10  1  0
  3  4  1  0
  4  5  2  0
  4  9  1  0
  5  6  1  0
  6  7  2  0
  8  7  1  0
  9  8  2  0
 10 11  2  0
 12 10  1  0
 12 13  1  0
 13 14  1  1
 14 15  1  0
 15 16  2  0
 16 17  1  0
 18 17  1  0
 19 18  2  0
 20 19  1  0
 21 22  1  0
 21 20  2  0
 22 23  2  0
 23 15  1  0
 23 18  1  0
 24 13  1  0
 24 25  2  0
 27 26  1  6
 27 29  1  0
 27 28  1  0
 28 24  1  0
 29 31  1  0
 30 29  2  0
M  END
$$$$
