FWA.pdb
     RDKit          3D

 31 33  0  0  1  0  0  0  0  0999 V2000
   10.9495  -16.6570   20.6983 N   0  0  0  0  0  0  0  0  0  0  0  0
   10.0993  -16.1062   21.7067 C   0  0  1  0  0  0  0  0  0  0  0  0
    8.6394  -16.2983   21.3473 C   0  0  0  0  0  0  0  0  0  0  0  0
    8.0123  -14.9970   20.9567 C   0  0  0  0  0  0  0  0  0  0  0  0
    8.7820  -13.8599   20.9673 C   0  0  0  0  0  0  0  0  0  0  0  0
    8.2098  -12.6577   20.6080 C   0  0  0  0  0  0  0  0  0  0  0  0
    6.8896  -12.5853   20.2427 C   0  0  0  0  0  0  0  0  0  0  0  0
    6.1354  -13.7384   20.2390 C   0  0  0  0  0  0  0  0  0  0  0  0
    6.6797  -14.9530   20.5929 C   0  0  0  0  0  0  0  0  0  0  0  0
   10.3437  -16.7378   23.0281 C   0  0  0  0  0  0  0  0  0  0  0  0
   11.4141  -17.3351   23.2818 O   0  0  0  0  0  0  0  0  0  0  0  0
    9.3420  -16.6652   24.0326 N   0  0  0  0  0  0  0  0  0  0  0  0
    9.5900  -16.7386   25.4485 C   0  0  1  0  0  0  0  0  0  0  0  0
    8.3349  -16.5036   26.2598 C   0  0  0  0  0  0  0  0  0  0  0  0
    7.5532  -15.3653   25.7430 C   0  0  0  0  0  0  0  0  0  0  0  0
    6.5092  -15.3529   24.8422 C   0  0  0  0  0  0  0  0  0  0  0  0
    6.0966  -14.0811   24.6608 N   0  0  0  0  0  0  0  0  0  0  0  0
    6.8186  -13.2357   25.4014 C   0  0  0  0  0  0  0  0  0  0  0  0
    6.7931  -11.8728   25.5672 C   0  0  0  0  0  0  0  0  0  0  0  0
    7.6937  -11.2948   26.4256 C   0  0  0  0  0  0  0  0  0  0  0  0
    8.6067  -12.0647   27.1088 C   0  0  0  0  0  0  0  0  0  0  0  0
    8.6330  -13.4345   26.9427 C   0  0  0  0  0  0  0  0  0  0  0  0
    7.7385  -14.0378   26.0861 C   0  0  0  0  0  0  0  0  0  0  0  0
   10.1352  -18.0503   25.8389 C   0  0  0  0  0  0  0  0  0  0  0  0
    9.4875  -19.0854   25.5975 O   0  0  0  0  0  0  0  0  0  0  0  0
   13.4883  -19.2710   26.6202 C   0  0  0  0  0  0  0  0  0  0  0  0
   12.0085  -19.4012   26.7880 C   0  0  2  0  0  0  0  0  0  0  0  0
   11.3841  -18.1241   26.4817 N   0  0  0  0  0  0  0  0  0  0  0  0
   11.6222  -19.8115   28.1627 C   0  0  0  0  0  0  0  0  0  0  0  0
   12.0515  -20.8886   28.6492 O   0  0  0  0  0  0  0  0  0  0  0  0
   10.7874  -19.0417   28.9575 O   0  0  0  0  0  0  0  0  0  0  0  0
  2  1  1  6
  2  3  1  0
  2 10  1  0
  3  4  1  0
  4  5  2  0
  4  9  1  0
  5  6  1  0
  6  7  2  0
  8  7  1  0
  9  8  2  0
 10 11  2  0
 12 10  1  0
 12 13  1  0
 13 14  1  1
 14 15  1  0
 15 16  2  0
 16 17  1  0
 18 17  1  0
 19 18  2  0
 20 19  1  0
 21 22  1  0
 21 20  2  0
 22 23  2  0
 23 15  1  0
 23 18  1  0
 24 13  1  0
 24 25  2  0
 27 26  1  1
 27 29  1  0
 27 28  1  0
 28 24  1  0
 29 31  1  0
 30 29  2  0
M  END
$$$$
