GMQ.pdb
     RDKit          3D

 22 21  0  0  1  0  0  0  0  0999 V2000
    8.2551  -17.4952   19.3756 N   0  0  0  0  0  0  0  0  0  0  0  0
    7.5284  -17.5068   20.6197 C   0  0  0  0  0  0  0  0  0  0  0  0
    8.0768  -16.4448   21.5351 C   0  0  0  0  0  0  0  0  0  0  0  0
    9.0959  -15.7718   21.2245 O   0  0  0  0  0  0  0  0  0  0  0  0
    7.2094  -11.1072   26.8683 C   0  0  0  0  0  0  0  0  0  0  0  0
    6.7349  -12.8063   26.4575 S   0  0  0  0  0  0  0  0  0  0  0  0
    6.9258  -13.1209   24.6804 C   0  0  0  0  0  0  0  0  0  0  0  0
    6.7772  -14.5789   24.3885 C   0  0  0  0  0  0  0  0  0  0  0  0
    7.9634  -15.2157   23.7449 C   0  0  2  0  0  0  0  0  0  0  0  0
    7.4658  -16.1699   22.7708 N   0  0  0  0  0  0  0  0  0  0  0  0
    8.9258  -15.8176   24.6657 C   0  0  0  0  0  0  0  0  0  0  0  0
    8.7025  -16.8412   25.3408 O   0  0  0  0  0  0  0  0  0  0  0  0
   10.2641  -14.3351   29.7243 N   0  0  0  0  0  0  0  0  0  0  0  0
   10.9666  -15.5534   29.5244 C   0  0  0  0  0  0  0  0  0  0  0  0
   10.9902  -16.3586   30.5066 O   0  0  0  0  0  0  0  0  0  0  0  0
   11.6453  -15.8883   28.2413 C   0  0  0  0  0  0  0  0  0  0  0  0
   10.9828  -15.2123   27.1078 C   0  0  0  0  0  0  0  0  0  0  0  0
   11.2064  -15.6711   25.7436 C   0  0  2  0  0  0  0  0  0  0  0  0
   10.2020  -15.2038   24.8084 N   0  0  0  0  0  0  0  0  0  0  0  0
   11.5463  -17.0497   25.4697 C   0  0  0  0  0  0  0  0  0  0  0  0
   10.6907  -18.1246   25.3401 O   0  0  0  0  0  0  0  0  0  0  0  0
   12.7517  -17.3577   25.3236 O   0  0  0  0  0  0  0  0  0  0  0  0
  2  1  1  0
  2  3  1  0
  3 10  1  0
  4  3  2  0
  6  5  1  0
  6  7  1  0
  8  7  1  0
  9 11  1  0
  9  8  1  1
 10  9  1  0
 11 12  2  0
 14 13  1  0
 14 16  1  0
 15 14  2  0
 17 16  1  0
 18 17  1  1
 19 11  1  0
 19 18  1  0
 20 21  1  0
 20 18  1  0
 22 20  2  0
M  END
$$$$
