GMQ.pdb
     RDKit          3D

 22 21  0  0  1  0  0  0  0  0999 V2000
    6.8507  -15.7967   19.4448 N   0  0  0  0  0  0  0  0  0  0  0  0
    6.8797  -16.5443   20.6763 C   0  0  0  0  0  0  0  0  0  0  0  0
    7.5750  -15.7380   21.7406 C   0  0  0  0  0  0  0  0  0  0  0  0
    8.5043  -14.9361   21.4556 O   0  0  0  0  0  0  0  0  0  0  0  0
    6.0916  -10.8189   25.7978 C   0  0  0  0  0  0  0  0  0  0  0  0
    6.9983  -12.3724   26.0105 S   0  0  0  0  0  0  0  0  0  0  0  0
    6.1699  -13.7310   25.1378 C   0  0  0  0  0  0  0  0  0  0  0  0
    6.9460  -14.9991   25.2878 C   0  0  0  0  0  0  0  0  0  0  0  0
    7.9337  -15.2644   24.2011 C   0  0  2  0  0  0  0  0  0  0  0  0
    7.2071  -15.8556   23.0923 N   0  0  0  0  0  0  0  0  0  0  0  0
    9.0923  -16.0653   24.5918 C   0  0  0  0  0  0  0  0  0  0  0  0
    9.0736  -17.3043   24.7255 O   0  0  0  0  0  0  0  0  0  0  0  0
   10.4258  -14.6275   29.7341 N   0  0  0  0  0  0  0  0  0  0  0  0
   11.2613  -15.7663   29.5831 C   0  0  0  0  0  0  0  0  0  0  0  0
   11.5696  -16.3850   30.6488 O   0  0  0  0  0  0  0  0  0  0  0  0
   11.7599  -16.2267   28.2570 C   0  0  0  0  0  0  0  0  0  0  0  0
   10.9988  -15.5907   27.1630 C   0  0  0  0  0  0  0  0  0  0  0  0
   11.3187  -15.8876   25.7734 C   0  0  2  0  0  0  0  0  0  0  0  0
   10.3251  -15.3980   24.8380 N   0  0  0  0  0  0  0  0  0  0  0  0
   11.7749  -17.2023   25.3805 C   0  0  0  0  0  0  0  0  0  0  0  0
   11.0214  -18.3458   25.2098 O   0  0  0  0  0  0  0  0  0  0  0  0
   12.9948  -17.3768   25.1558 O   0  0  0  0  0  0  0  0  0  0  0  0
  2  1  1  0
  2  3  1  0
  3 10  1  0
  4  3  2  0
  6  5  1  0
  6  7  1  0
  8  7  1  0
  9 11  1  0
  9  8  1  1
 10  9  1  0
 11 12  2  0
 14 13  1  0
 14 16  1  0
 15 14  2  0
 17 16  1  0
 18 17  1  1
 19 11  1  0
 19 18  1  0
 20 21  1  0
 20 18  1  0
 22 20  2  0
M  END
$$$$
