GMQ.pdb
     RDKit          3D

 22 21  0  0  1  0  0  0  0  0999 V2000
    8.2439  -15.8580   19.4038 N   0  0  0  0  0  0  0  0  0  0  0  0
    7.3842  -16.1375   20.5258 C   0  0  0  0  0  0  0  0  0  0  0  0
    7.9854  -15.5597   21.7793 C   0  0  0  0  0  0  0  0  0  0  0  0
    9.2259  -15.3643   21.8834 O   0  0  0  0  0  0  0  0  0  0  0  0
    7.3251  -11.5205   28.1394 C   0  0  0  0  0  0  0  0  0  0  0  0
    6.8434  -12.0566   26.4777 S   0  0  0  0  0  0  0  0  0  0  0  0
    6.8427  -13.8674   26.3556 C   0  0  0  0  0  0  0  0  0  0  0  0
    6.5200  -14.2973   24.9613 C   0  0  0  0  0  0  0  0  0  0  0  0
    7.6783  -14.8238   24.1815 C   0  0  2  0  0  0  0  0  0  0  0  0
    7.1773  -15.2188   22.8778 N   0  0  0  0  0  0  0  0  0  0  0  0
    8.4336  -15.8939   24.8303 C   0  0  0  0  0  0  0  0  0  0  0  0
    8.0319  -17.0689   24.9363 O   0  0  0  0  0  0  0  0  0  0  0  0
   14.2944  -15.6749   23.6195 N   0  0  0  0  0  0  0  0  0  0  0  0
   13.7195  -16.9491   23.3675 C   0  0  0  0  0  0  0  0  0  0  0  0
   14.3242  -17.6844   22.5265 O   0  0  0  0  0  0  0  0  0  0  0  0
   12.4762  -17.4171   24.0415 C   0  0  0  0  0  0  0  0  0  0  0  0
   11.9647  -16.3872   24.9680 C   0  0  0  0  0  0  0  0  0  0  0  0
   10.7093  -16.5924   25.6775 C   0  0  2  0  0  0  0  0  0  0  0  0
    9.7099  -15.5853   25.3796 N   0  0  0  0  0  0  0  0  0  0  0  0
   10.6965  -16.9125   27.0876 C   0  0  0  0  0  0  0  0  0  0  0  0
   11.1580  -18.0590   27.7014 O   0  0  0  0  0  0  0  0  0  0  0  0
   10.2186  -16.0798   27.8922 O   0  0  0  0  0  0  0  0  0  0  0  0
  2  1  1  0
  2  3  1  0
  3 10  1  0
  4  3  2  0
  6  5  1  0
  6  7  1  0
  8  7  1  0
  9 11  1  0
  9  8  1  1
 10  9  1  0
 11 12  2  0
 14 13  1  0
 14 16  1  0
 15 14  2  0
 17 16  1  0
 18 17  1  1
 19 11  1  0
 19 18  1  0
 20 21  1  0
 20 18  1  0
 22 20  2  0
M  END
$$$$
