GMQ.pdb
     RDKit          3D

 22 21  0  0  1  0  0  0  0  0999 V2000
    7.8542  -16.1721   19.0114 N   0  0  0  0  0  0  0  0  0  0  0  0
    7.4336  -16.4911   20.3522 C   0  0  0  0  0  0  0  0  0  0  0  0
    8.1787  -15.6272   21.3345 C   0  0  0  0  0  0  0  0  0  0  0  0
    9.4346  -15.6716   21.4279 O   0  0  0  0  0  0  0  0  0  0  0  0
    7.7486  -11.5709   27.6398 C   0  0  0  0  0  0  0  0  0  0  0  0
    7.5104  -11.9890   25.8936 S   0  0  0  0  0  0  0  0  0  0  0  0
    6.8488  -13.6694   25.7139 C   0  0  0  0  0  0  0  0  0  0  0  0
    6.6479  -14.0008   24.2707 C   0  0  0  0  0  0  0  0  0  0  0  0
    7.8785  -14.4378   23.5485 C   0  0  2  0  0  0  0  0  0  0  0  0
    7.4928  -14.7402   22.1823 N   0  0  0  0  0  0  0  0  0  0  0  0
    8.6110  -15.5384   24.1720 C   0  0  0  0  0  0  0  0  0  0  0  0
    8.2088  -16.7177   24.2034 O   0  0  0  0  0  0  0  0  0  0  0  0
   11.3529  -19.5414   27.0925 N   0  0  0  0  0  0  0  0  0  0  0  0
   10.5357  -18.7013   27.8949 C   0  0  0  0  0  0  0  0  0  0  0  0
   10.4406  -19.0129   29.1228 O   0  0  0  0  0  0  0  0  0  0  0  0
    9.8205  -17.5151   27.3468 C   0  0  0  0  0  0  0  0  0  0  0  0
   10.0163  -17.4156   25.8865 C   0  0  0  0  0  0  0  0  0  0  0  0
   10.7368  -16.2860   25.3150 C   0  0  2  0  0  0  0  0  0  0  0  0
    9.8641  -15.2566   24.7852 N   0  0  0  0  0  0  0  0  0  0  0  0
   11.8638  -16.4931   24.4331 C   0  0  0  0  0  0  0  0  0  0  0  0
   12.1914  -15.7852   23.2947 O   0  0  0  0  0  0  0  0  0  0  0  0
   12.6714  -17.4155   24.6903 O   0  0  0  0  0  0  0  0  0  0  0  0
  2  1  1  0
  2  3  1  0
  3 10  1  0
  4  3  2  0
  6  5  1  0
  6  7  1  0
  8  7  1  0
  9 11  1  0
  9  8  1  1
 10  9  1  0
 11 12  2  0
 14 13  1  0
 14 16  1  0
 15 14  2  0
 17 16  1  0
 18 17  1  6
 19 11  1  0
 19 18  1  0
 20 21  1  0
 20 18  1  0
 22 20  2  0
M  END
$$$$
