GMQ.pdb
     RDKit          3D

 22 21  0  0  1  0  0  0  0  0999 V2000
    7.8573  -13.0299   19.0345 N   0  0  0  0  0  0  0  0  0  0  0  0
    7.0642  -13.6993   20.0341 C   0  0  0  0  0  0  0  0  0  0  0  0
    7.8781  -13.8791   21.2878 C   0  0  0  0  0  0  0  0  0  0  0  0
    9.1378  -13.8562   21.2624 O   0  0  0  0  0  0  0  0  0  0  0  0
    7.4102  -11.3585   27.5741 C   0  0  0  0  0  0  0  0  0  0  0  0
    6.1079  -11.9735   26.4756 S   0  0  0  0  0  0  0  0  0  0  0  0
    6.7981  -12.4929   24.8795 C   0  0  0  0  0  0  0  0  0  0  0  0
    7.1091  -13.9545   24.8950 C   0  0  0  0  0  0  0  0  0  0  0  0
    7.9486  -14.4310   23.7570 C   0  0  2  0  0  0  0  0  0  0  0  0
    7.2546  -14.0793   22.5316 N   0  0  0  0  0  0  0  0  0  0  0  0
    8.3125  -15.8461   23.7988 C   0  0  0  0  0  0  0  0  0  0  0  0
    7.9433  -16.6887   22.9579 O   0  0  0  0  0  0  0  0  0  0  0  0
   12.7357  -19.1406   22.1375 N   0  0  0  0  0  0  0  0  0  0  0  0
   11.9588  -18.1032   21.5562 C   0  0  0  0  0  0  0  0  0  0  0  0
   12.3710  -17.6446   20.4455 O   0  0  0  0  0  0  0  0  0  0  0  0
   10.7252  -17.5677   22.1970 C   0  0  0  0  0  0  0  0  0  0  0  0
   11.0424  -16.9335   23.4923 C   0  0  0  0  0  0  0  0  0  0  0  0
   10.2402  -17.2265   24.6722 C   0  0  2  0  0  0  0  0  0  0  0  0
    9.1404  -16.3015   24.8632 N   0  0  0  0  0  0  0  0  0  0  0  0
   10.8664  -17.5323   25.9392 C   0  0  0  0  0  0  0  0  0  0  0  0
   11.1491  -16.6671   26.9764 O   0  0  0  0  0  0  0  0  0  0  0  0
   11.2134  -18.7131   26.1727 O   0  0  0  0  0  0  0  0  0  0  0  0
  2  1  1  0
  2  3  1  0
  3 10  1  0
  4  3  2  0
  6  5  1  0
  6  7  1  0
  8  7  1  0
  9 11  1  0
  9  8  1  1
 10  9  1  0
 11 12  2  0
 14 13  1  0
 14 16  1  0
 15 14  2  0
 17 16  1  0
 18 17  1  6
 19 11  1  0
 19 18  1  0
 20 21  1  0
 20 18  1  0
 22 20  2  0
M  END
$$$$
