GMQ.pdb
     RDKit          3D

 22 21  0  0  1  0  0  0  0  0999 V2000
    7.7954  -16.2252   20.0735 N   0  0  0  0  0  0  0  0  0  0  0  0
    6.8931  -16.1839   21.1961 C   0  0  0  0  0  0  0  0  0  0  0  0
    7.6317  -15.7144   22.4210 C   0  0  0  0  0  0  0  0  0  0  0  0
    8.8904  -15.6592   22.4486 O   0  0  0  0  0  0  0  0  0  0  0  0
    5.8644  -11.5476   27.3194 C   0  0  0  0  0  0  0  0  0  0  0  0
    6.6116  -11.1402   25.7205 S   0  0  0  0  0  0  0  0  0  0  0  0
    6.6237  -12.5860   24.6235 C   0  0  0  0  0  0  0  0  0  0  0  0
    6.7102  -13.8467   25.4210 C   0  0  0  0  0  0  0  0  0  0  0  0
    7.5646  -14.9131   24.8210 C   0  0  2  0  0  0  0  0  0  0  0  0
    6.9365  -15.3211   23.5778 N   0  0  0  0  0  0  0  0  0  0  0  0
    7.8504  -16.0498   25.6945 C   0  0  0  0  0  0  0  0  0  0  0  0
    6.9760  -16.7385   26.2552 O   0  0  0  0  0  0  0  0  0  0  0  0
    6.3742  -20.4206   26.3206 N   0  0  0  0  0  0  0  0  0  0  0  0
    7.5962  -20.5330   27.0359 C   0  0  0  0  0  0  0  0  0  0  0  0
    7.5169  -20.9845   28.2206 O   0  0  0  0  0  0  0  0  0  0  0  0
    8.9097  -20.1482   26.4478 C   0  0  0  0  0  0  0  0  0  0  0  0
    8.8397  -18.7996   25.8504 C   0  0  0  0  0  0  0  0  0  0  0  0
    9.6210  -17.7046   26.4092 C   0  0  2  0  0  0  0  0  0  0  0  0
    9.2101  -16.4008   25.9264 N   0  0  0  0  0  0  0  0  0  0  0  0
   11.0630  -17.7826   26.4823 C   0  0  0  0  0  0  0  0  0  0  0  0
   11.8285  -18.6094   27.2789 O   0  0  0  0  0  0  0  0  0  0  0  0
   11.7470  -17.0280   25.7529 O   0  0  0  0  0  0  0  0  0  0  0  0
  2  1  1  0
  2  3  1  0
  3 10  1  0
  4  3  2  0
  6  5  1  0
  6  7  1  0
  8  7  1  0
  9 11  1  0
  9  8  1  1
 10  9  1  0
 11 12  2  0
 14 13  1  0
 14 16  1  0
 15 14  2  0
 17 16  1  0
 18 17  1  6
 19 11  1  0
 19 18  1  0
 20 21  1  0
 20 18  1  0
 22 20  2  0
M  END
$$$$
