GMQ.pdb
     RDKit          3D

 22 21  0  0  1  0  0  0  0  0999 V2000
    7.8217  -16.3172   19.8509 N   0  0  0  0  0  0  0  0  0  0  0  0
    6.8595  -15.9436   20.8563 C   0  0  0  0  0  0  0  0  0  0  0  0
    7.5689  -15.6564   22.1527 C   0  0  0  0  0  0  0  0  0  0  0  0
    8.6999  -16.1509   22.4065 O   0  0  0  0  0  0  0  0  0  0  0  0
    6.7464  -10.3217   25.7727 C   0  0  0  0  0  0  0  0  0  0  0  0
    6.5104  -11.6092   27.0247 S   0  0  0  0  0  0  0  0  0  0  0  0
    7.2366  -13.1816   26.4823 C   0  0  0  0  0  0  0  0  0  0  0  0
    6.8234  -13.4922   25.0802 C   0  0  0  0  0  0  0  0  0  0  0  0
    7.4366  -14.7238   24.5020 C   0  0  2  0  0  0  0  0  0  0  0  0
    6.9885  -14.8235   23.1250 N   0  0  0  0  0  0  0  0  0  0  0  0
    7.1933  -15.9543   25.2525 C   0  0  0  0  0  0  0  0  0  0  0  0
    6.1081  -16.5672   25.2585 O   0  0  0  0  0  0  0  0  0  0  0  0
    5.9078  -21.5737   24.8296 N   0  0  0  0  0  0  0  0  0  0  0  0
    7.1998  -21.0199   24.6256 C   0  0  0  0  0  0  0  0  0  0  0  0
    7.7127  -21.1932   23.4764 O   0  0  0  0  0  0  0  0  0  0  0  0
    7.9308  -20.2734   25.6874 C   0  0  0  0  0  0  0  0  0  0  0  0
    7.8742  -18.8191   25.4369 C   0  0  0  0  0  0  0  0  0  0  0  0
    8.2956  -17.8775   26.4652 C   0  0  2  0  0  0  0  0  0  0  0  0
    8.2561  -16.4953   26.0293 N   0  0  0  0  0  0  0  0  0  0  0  0
    9.4814  -18.1221   27.2557 C   0  0  0  0  0  0  0  0  0  0  0  0
   10.6781  -17.4355   27.2248 O   0  0  0  0  0  0  0  0  0  0  0  0
    9.4722  -19.0610   28.0849 O   0  0  0  0  0  0  0  0  0  0  0  0
  2  1  1  0
  2  3  1  0
  3 10  1  0
  4  3  2  0
  6  5  1  0
  6  7  1  0
  8  7  1  0
  9 11  1  0
  9  8  1  1
 10  9  1  0
 11 12  2  0
 14 13  1  0
 14 16  1  0
 15 14  2  0
 17 16  1  0
 18 17  1  6
 19 11  1  0
 19 18  1  0
 20 21  1  0
 20 18  1  0
 22 20  2  0
M  END
$$$$
