GMQ.pdb
     RDKit          3D

 22 21  0  0  1  0  0  0  0  0999 V2000
    7.7639  -16.8812   19.0986 N   0  0  0  0  0  0  0  0  0  0  0  0
    7.0956  -16.7847   20.3715 C   0  0  0  0  0  0  0  0  0  0  0  0
    7.8898  -15.8982   21.2933 C   0  0  0  0  0  0  0  0  0  0  0  0
    9.1413  -15.7949   21.1888 O   0  0  0  0  0  0  0  0  0  0  0  0
    6.7945  -11.2682   27.6909 C   0  0  0  0  0  0  0  0  0  0  0  0
    6.1465  -12.2076   26.2844 S   0  0  0  0  0  0  0  0  0  0  0  0
    7.4926  -12.9918   25.3535 C   0  0  0  0  0  0  0  0  0  0  0  0
    6.9542  -13.7029   24.1545 C   0  0  0  0  0  0  0  0  0  0  0  0
    7.9267  -14.6022   23.4672 C   0  0  2  0  0  0  0  0  0  0  0  0
    7.2565  -15.1546   22.3042 N   0  0  0  0  0  0  0  0  0  0  0  0
    8.5195  -15.6406   24.3080 C   0  0  0  0  0  0  0  0  0  0  0  0
    7.9917  -16.7478   24.5292 O   0  0  0  0  0  0  0  0  0  0  0  0
   11.1774  -20.2557   28.0493 N   0  0  0  0  0  0  0  0  0  0  0  0
   10.3688  -19.3652   27.2937 C   0  0  0  0  0  0  0  0  0  0  0  0
    9.3074  -18.9521   27.8560 O   0  0  0  0  0  0  0  0  0  0  0  0
   10.7274  -18.9274   25.9157 C   0  0  0  0  0  0  0  0  0  0  0  0
    9.9631  -17.7227   25.5348 C   0  0  0  0  0  0  0  0  0  0  0  0
   10.6164  -16.4219   25.4813 C   0  0  2  0  0  0  0  0  0  0  0  0
    9.7790  -15.3811   24.9181 N   0  0  0  0  0  0  0  0  0  0  0  0
   11.9736  -16.2914   24.9996 C   0  0  0  0  0  0  0  0  0  0  0  0
   13.0442  -17.1275   25.2429 O   0  0  0  0  0  0  0  0  0  0  0  0
   12.2644  -15.3171   24.2680 O   0  0  0  0  0  0  0  0  0  0  0  0
  2  1  1  0
  2  3  1  0
  3 10  1  0
  4  3  2  0
  6  5  1  0
  6  7  1  0
  8  7  1  0
  9 11  1  0
  9  8  1  1
 10  9  1  0
 11 12  2  0
 14 13  1  0
 14 16  1  0
 15 14  2  0
 17 16  1  0
 18 17  1  6
 19 11  1  0
 19 18  1  0
 20 21  1  0
 20 18  1  0
 22 20  2  0
M  END
$$$$
