GMQ.pdb
     RDKit          3D

 22 21  0  0  1  0  0  0  0  0999 V2000
    8.3712  -14.8481   19.7463 N   0  0  0  0  0  0  0  0  0  0  0  0
    7.5689  -15.4299   20.7923 C   0  0  0  0  0  0  0  0  0  0  0  0
    8.2320  -15.2010   22.1243 C   0  0  0  0  0  0  0  0  0  0  0  0
    9.4850  -15.2452   22.2509 O   0  0  0  0  0  0  0  0  0  0  0  0
    6.5543  -10.0264   26.3474 C   0  0  0  0  0  0  0  0  0  0  0  0
    6.6467  -11.8002   26.7022 S   0  0  0  0  0  0  0  0  0  0  0  0
    6.9352  -12.7507   25.1833 C   0  0  0  0  0  0  0  0  0  0  0  0
    7.0252  -14.2106   25.4892 C   0  0  0  0  0  0  0  0  0  0  0  0
    7.9784  -14.9752   24.6326 C   0  0  2  0  0  0  0  0  0  0  0  0
    7.4699  -14.9295   23.2738 N   0  0  0  0  0  0  0  0  0  0  0  0
    8.2562  -16.3411   25.0726 C   0  0  0  0  0  0  0  0  0  0  0  0
    7.4239  -17.2684   25.0440 O   0  0  0  0  0  0  0  0  0  0  0  0
   12.1250  -19.3150   22.6722 N   0  0  0  0  0  0  0  0  0  0  0  0
   12.8632  -18.6168   23.6648 C   0  0  0  0  0  0  0  0  0  0  0  0
   14.0678  -18.3339   23.3772 O   0  0  0  0  0  0  0  0  0  0  0  0
   12.2764  -18.2283   24.9777 C   0  0  0  0  0  0  0  0  0  0  0  0
   10.8569  -18.6280   25.0543 C   0  0  0  0  0  0  0  0  0  0  0  0
    9.9557  -17.9701   25.9906 C   0  0  2  0  0  0  0  0  0  0  0  0
    9.5564  -16.6423   25.5671 N   0  0  0  0  0  0  0  0  0  0  0  0
   10.2197  -17.9866   27.4122 C   0  0  0  0  0  0  0  0  0  0  0  0
   10.2474  -16.9159   28.2824 O   0  0  0  0  0  0  0  0  0  0  0  0
   10.4582  -19.0825   27.9701 O   0  0  0  0  0  0  0  0  0  0  0  0
  2  1  1  0
  2  3  1  0
  3 10  1  0
  4  3  2  0
  6  5  1  0
  6  7  1  0
  8  7  1  0
  9 11  1  0
  9  8  1  1
 10  9  1  0
 11 12  2  0
 14 13  1  0
 14 16  1  0
 15 14  2  0
 17 16  1  0
 18 17  1  6
 19 11  1  0
 19 18  1  0
 20 21  1  0
 20 18  1  0
 22 20  2  0
M  END
$$$$
