GMQ.pdb
     RDKit          3D

 22 21  0  0  1  0  0  0  0  0999 V2000
    8.6197  -18.3552   17.2298 N   0  0  0  0  0  0  0  0  0  0  0  0
    7.8219  -18.2531   18.4253 C   0  0  0  0  0  0  0  0  0  0  0  0
    8.5472  -17.4185   19.4470 C   0  0  0  0  0  0  0  0  0  0  0  0
    9.7782  -17.1713   19.3395 O   0  0  0  0  0  0  0  0  0  0  0  0
    7.1083  -11.3777   20.4426 C   0  0  0  0  0  0  0  0  0  0  0  0
    7.8750  -12.6787   21.4427 S   0  0  0  0  0  0  0  0  0  0  0  0
    6.9609  -14.2389   21.2877 C   0  0  0  0  0  0  0  0  0  0  0  0
    7.4988  -15.2570   22.2400 C   0  0  0  0  0  0  0  0  0  0  0  0
    8.5089  -16.1895   21.6595 C   0  0  2  0  0  0  0  0  0  0  0  0
    7.8701  -16.8867   20.5583 N   0  0  0  0  0  0  0  0  0  0  0  0
    9.1286  -17.1102   22.6107 C   0  0  0  0  0  0  0  0  0  0  0  0
    8.5061  -17.9822   23.2475 O   0  0  0  0  0  0  0  0  0  0  0  0
   13.1138  -19.8302   19.8571 N   0  0  0  0  0  0  0  0  0  0  0  0
   13.4961  -19.3635   21.1431 C   0  0  0  0  0  0  0  0  0  0  0  0
   14.4414  -19.9921   21.7132 O   0  0  0  0  0  0  0  0  0  0  0  0
   12.8378  -18.2026   21.8050 C   0  0  0  0  0  0  0  0  0  0  0  0
   12.3672  -18.5692   23.1558 C   0  0  0  0  0  0  0  0  0  0  0  0
   11.2478  -17.8624   23.7631 C   0  0  2  0  0  0  0  0  0  0  0  0
   10.5313  -17.0132   22.8317 N   0  0  0  0  0  0  0  0  0  0  0  0
   11.3924  -17.1992   25.0398 C   0  0  0  0  0  0  0  0  0  0  0  0
   11.0522  -15.9020   25.3653 O   0  0  0  0  0  0  0  0  0  0  0  0
   11.8812  -17.8372   26.0006 O   0  0  0  0  0  0  0  0  0  0  0  0
  2  1  1  0
  2  3  1  0
  3 10  1  0
  4  3  2  0
  6  5  1  0
  6  7  1  0
  8  7  1  0
  9 11  1  0
  9  8  1  1
 10  9  1  0
 11 12  2  0
 14 13  1  0
 14 16  1  0
 15 14  2  0
 17 16  1  0
 18 17  1  6
 19 11  1  0
 19 18  1  0
 20 21  1  0
 20 18  1  0
 22 20  2  0
M  END
$$$$
