GMQ.pdb
     RDKit          3D

 22 21  0  0  1  0  0  0  0  0999 V2000
    7.3138  -16.5179   18.7060 N   0  0  0  0  0  0  0  0  0  0  0  0
    6.7899  -16.5992   20.0459 C   0  0  0  0  0  0  0  0  0  0  0  0
    7.6481  -15.7821   20.9744 C   0  0  0  0  0  0  0  0  0  0  0  0
    8.8986  -15.7216   20.8309 O   0  0  0  0  0  0  0  0  0  0  0  0
    7.2183  -11.9463   27.8183 C   0  0  0  0  0  0  0  0  0  0  0  0
    6.6110  -13.0378   26.5066 S   0  0  0  0  0  0  0  0  0  0  0  0
    7.5164  -12.7571   24.9590 C   0  0  0  0  0  0  0  0  0  0  0  0
    6.8964  -13.5329   23.8424 C   0  0  0  0  0  0  0  0  0  0  0  0
    7.8295  -14.4411   23.1135 C   0  0  2  0  0  0  0  0  0  0  0  0
    7.0779  -15.0577   22.0356 N   0  0  0  0  0  0  0  0  0  0  0  0
    8.5157  -15.4291   23.9439 C   0  0  0  0  0  0  0  0  0  0  0  0
    8.0207  -16.5207   24.2857 O   0  0  0  0  0  0  0  0  0  0  0  0
   11.6111  -18.7565   28.8123 N   0  0  0  0  0  0  0  0  0  0  0  0
   10.7265  -17.9822   28.0151 C   0  0  0  0  0  0  0  0  0  0  0  0
   10.0497  -17.0952   28.6225 O   0  0  0  0  0  0  0  0  0  0  0  0
   10.5847  -18.1829   26.5458 C   0  0  0  0  0  0  0  0  0  0  0  0
    9.9155  -17.0236   25.9223 C   0  0  0  0  0  0  0  0  0  0  0  0
   10.6685  -16.1019   25.0827 C   0  0  2  0  0  0  0  0  0  0  0  0
    9.8328  -15.1361   24.3967 N   0  0  0  0  0  0  0  0  0  0  0  0
   11.7103  -16.5813   24.2019 C   0  0  0  0  0  0  0  0  0  0  0  0
   11.8289  -16.3827   22.8414 O   0  0  0  0  0  0  0  0  0  0  0  0
   12.6425  -17.2651   24.6841 O   0  0  0  0  0  0  0  0  0  0  0  0
  2  1  1  0
  2  3  1  0
  3 10  1  0
  4  3  2  0
  6  5  1  0
  6  7  1  0
  8  7  1  0
  9 11  1  0
  9  8  1  1
 10  9  1  0
 11 12  2  0
 14 13  1  0
 14 16  1  0
 15 14  2  0
 17 16  1  0
 18 17  1  6
 19 11  1  0
 19 18  1  0
 20 21  1  0
 20 18  1  0
 22 20  2  0
M  END
$$$$
