GMQ.pdb
     RDKit          3D

 22 21  0  0  1  0  0  0  0  0999 V2000
    8.1005  -18.0409   20.0989 N   0  0  0  0  0  0  0  0  0  0  0  0
    7.5683  -17.7987   21.4158 C   0  0  0  0  0  0  0  0  0  0  0  0
    8.1436  -16.5209   21.9661 C   0  0  0  0  0  0  0  0  0  0  0  0
    9.1299  -15.9564   21.4218 O   0  0  0  0  0  0  0  0  0  0  0  0
    6.3688  -10.8685   27.2723 C   0  0  0  0  0  0  0  0  0  0  0  0
    5.9316  -12.3277   26.2923 S   0  0  0  0  0  0  0  0  0  0  0  0
    7.3373  -12.8760   25.2838 C   0  0  0  0  0  0  0  0  0  0  0  0
    6.9809  -14.1070   24.5153 C   0  0  0  0  0  0  0  0  0  0  0  0
    8.0981  -14.6993   23.7229 C   0  0  2  0  0  0  0  0  0  0  0  0
    7.5954  -15.9154   23.1102 N   0  0  0  0  0  0  0  0  0  0  0  0
    9.3377  -14.9259   24.4636 C   0  0  0  0  0  0  0  0  0  0  0  0
    9.9962  -14.0246   25.0181 O   0  0  0  0  0  0  0  0  0  0  0  0
   10.0115  -14.4866   28.9940 N   0  0  0  0  0  0  0  0  0  0  0  0
   10.4756  -15.7997   29.2734 C   0  0  0  0  0  0  0  0  0  0  0  0
   10.9409  -15.9974   30.4387 O   0  0  0  0  0  0  0  0  0  0  0  0
   10.4284  -16.8992   28.2693 C   0  0  0  0  0  0  0  0  0  0  0  0
    9.8823  -16.4123   26.9866 C   0  0  0  0  0  0  0  0  0  0  0  0
   10.5349  -16.7551   25.7304 C   0  0  2  0  0  0  0  0  0  0  0  0
    9.8335  -16.2562   24.5638 N   0  0  0  0  0  0  0  0  0  0  0  0
   11.0245  -18.0941   25.4887 C   0  0  0  0  0  0  0  0  0  0  0  0
   10.5392  -19.0263   24.5944 O   0  0  0  0  0  0  0  0  0  0  0  0
   12.0081  -18.5060   26.1461 O   0  0  0  0  0  0  0  0  0  0  0  0
  2  1  1  0
  2  3  1  0
  3 10  1  0
  4  3  2  0
  6  5  1  0
  6  7  1  0
  8  7  1  0
  9 11  1  0
  9  8  1  1
 10  9  1  0
 11 12  2  0
 14 13  1  0
 14 16  1  0
 15 14  2  0
 17 16  1  0
 18 17  1  1
 19 11  1  0
 19 18  1  0
 20 21  1  0
 20 18  1  0
 22 20  2  0
M  END
$$$$
