EWC.pdb
     RDKit          3D

 30 31  0  0  1  0  0  0  0  0999 V2000
    9.6431  -18.1586   21.4425 N   0  0  0  0  0  0  0  0  0  0  0  0
   10.6550  -17.1076   21.5095 C   0  0  1  0  0  0  0  0  0  0  0  0
   10.2976  -16.1302   20.3923 C   0  0  0  0  0  0  0  0  0  0  0  0
   10.4409  -16.9173   19.0949 C   0  0  0  0  0  0  0  0  0  0  0  0
   11.8425  -16.8469   18.6093 C   0  0  0  0  0  0  0  0  0  0  0  0
   12.7013  -17.7158   18.9051 O   0  0  0  0  0  0  0  0  0  0  0  0
   10.5934  -16.4491   22.8391 C   0  0  0  0  0  0  0  0  0  0  0  0
   11.2184  -15.3840   23.0414 O   0  0  0  0  0  0  0  0  0  0  0  0
   12.2201  -15.7903   17.8030 O   0  0  0  0  0  0  0  0  0  0  0  0
    9.8372  -17.0171   23.8670 N   0  0  0  0  0  0  0  0  0  0  0  0
    9.5842  -16.3613   25.1633 C   0  0  1  0  0  0  0  0  0  0  0  0
    8.2281  -16.7659   25.6078 C   0  0  0  0  0  0  0  0  0  0  0  0
    7.1642  -15.7573   25.4450 C   0  0  0  0  0  0  0  0  0  0  0  0
    5.8497  -15.9247   25.0159 C   0  0  0  0  0  0  0  0  0  0  0  0
    5.2096  -14.7431   24.9938 N   0  0  0  0  0  0  0  0  0  0  0  0
    6.0514  -13.7750   25.3960 C   0  0  0  0  0  0  0  0  0  0  0  0
    5.8810  -12.4172   25.5448 C   0  0  0  0  0  0  0  0  0  0  0  0
    6.9526  -11.6739   25.9846 C   0  0  0  0  0  0  0  0  0  0  0  0
    8.1681  -12.2723   26.2699 C   0  0  0  0  0  0  0  0  0  0  0  0
    8.3209  -13.6331   26.1152 C   0  0  0  0  0  0  0  0  0  0  0  0
    7.2689  -14.3883   25.6797 C   0  0  0  0  0  0  0  0  0  0  0  0
   10.7039  -16.6609   26.0389 C   0  0  0  0  0  0  0  0  0  0  0  0
   11.4813  -17.6289   25.7237 O   0  0  0  0  0  0  0  0  0  0  0  0
   11.0407  -15.9859   27.2276 N   0  0  0  0  0  0  0  0  0  0  0  0
   12.1059  -16.4507   28.0539 C   0  0  1  0  0  0  0  0  0  0  0  0
   12.3865  -15.5503   29.2345 C   0  0  0  0  0  0  0  0  0  0  0  0
   10.9137  -14.4877   29.4397 S   0  0  0  0  0  0  0  0  0  0  0  0
   11.7453  -17.7791   28.6166 C   0  0  0  0  0  0  0  0  0  0  0  0
   12.6904  -18.4766   29.3884 O   0  0  0  0  0  0  0  0  0  0  0  0
   10.6431  -18.3357   28.4530 O   0  0  0  0  0  0  0  0  0  0  0  0
  2  1  1  1
  2  7  1  0
  3  2  1  0
  3  4  1  0
  4  5  1  0
  5  6  2  0
  7  8  2  0
  9  5  1  0
 10 11  1  0
 10  7  1  0
 12 13  1  0
 11 12  1  1
 13 14  2  0
 15 14  1  0
 16 15  1  0
 17 16  2  0
 18 17  1  0
 19 20  1  0
 19 18  2  0
 20 21  2  0
 21 16  1  0
 21 13  1  0
 22 11  1  0
 22 24  1  0
 23 22  2  0
 25 24  1  0
 25 26  1  1
 27 26  1  0
 28 25  1  0
 29 28  1  0
 30 28  2  0
M  END
$$$$
