EWC.pdb
     RDKit          3D

 30 31  0  0  1  0  0  0  0  0999 V2000
   11.0463  -16.9046   19.3518 N   0  0  0  0  0  0  0  0  0  0  0  0
   11.3190  -17.3908   20.7017 C   0  0  1  0  0  0  0  0  0  0  0  0
   12.8359  -17.5488   20.7759 C   0  0  0  0  0  0  0  0  0  0  0  0
   13.2450  -18.2155   19.4676 C   0  0  0  0  0  0  0  0  0  0  0  0
   14.7116  -18.4488   19.4523 C   0  0  0  0  0  0  0  0  0  0  0  0
   15.5114  -17.6650   18.8815 O   0  0  0  0  0  0  0  0  0  0  0  0
   10.8340  -16.3951   21.6909 C   0  0  0  0  0  0  0  0  0  0  0  0
   11.0919  -15.1803   21.5366 O   0  0  0  0  0  0  0  0  0  0  0  0
   15.2190  -19.5661   20.0874 O   0  0  0  0  0  0  0  0  0  0  0  0
   10.0886  -16.8123   22.7960 N   0  0  0  0  0  0  0  0  0  0  0  0
    9.5422  -15.8970   23.8148 C   0  0  1  0  0  0  0  0  0  0  0  0
    8.0658  -15.9042   23.6715 C   0  0  0  0  0  0  0  0  0  0  0  0
    7.3113  -15.1516   24.6913 C   0  0  0  0  0  0  0  0  0  0  0  0
    6.5225  -15.6299   25.7349 C   0  0  0  0  0  0  0  0  0  0  0  0
    5.9951  -14.6079   26.4304 N   0  0  0  0  0  0  0  0  0  0  0  0
    6.4026  -13.4463   25.8898 C   0  0  0  0  0  0  0  0  0  0  0  0
    6.1440  -12.1377   26.2297 C   0  0  0  0  0  0  0  0  0  0  0  0
    6.7184  -11.1448   25.4690 C   0  0  0  0  0  0  0  0  0  0  0  0
    7.5332  -11.4510   24.3922 C   0  0  0  0  0  0  0  0  0  0  0  0
    7.7812  -12.7667   24.0662 C   0  0  0  0  0  0  0  0  0  0  0  0
    7.2203  -13.7666   24.8092 C   0  0  0  0  0  0  0  0  0  0  0  0
   10.1020  -16.2777   25.1001 C   0  0  0  0  0  0  0  0  0  0  0  0
   10.5976  -17.4523   25.2245 O   0  0  0  0  0  0  0  0  0  0  0  0
   10.1642  -15.4766   26.2562 N   0  0  0  0  0  0  0  0  0  0  0  0
   10.8924  -15.9075   27.4041 C   0  0  1  0  0  0  0  0  0  0  0  0
   10.9614  -14.8660   28.4968 C   0  0  0  0  0  0  0  0  0  0  0  0
   10.3240  -13.3124   27.7754 S   0  0  0  0  0  0  0  0  0  0  0  0
   10.2164  -17.0921   27.9966 C   0  0  0  0  0  0  0  0  0  0  0  0
   10.8385  -17.7798   29.0528 O   0  0  0  0  0  0  0  0  0  0  0  0
    9.1142  -17.5333   27.6202 O   0  0  0  0  0  0  0  0  0  0  0  0
  2  1  1  6
  2  7  1  0
  3  2  1  0
  3  4  1  0
  4  5  1  0
  5  6  2  0
  7  8  2  0
  9  5  1  0
 10 11  1  0
 10  7  1  0
 12 13  1  0
 11 12  1  1
 13 14  2  0
 15 14  1  0
 16 15  1  0
 17 16  2  0
 18 17  1  0
 19 20  1  0
 19 18  2  0
 20 21  2  0
 21 16  1  0
 21 13  1  0
 22 11  1  0
 22 24  1  0
 23 22  2  0
 25 24  1  0
 25 26  1  1
 27 26  1  0
 28 25  1  0
 29 28  1  0
 30 28  2  0
M  END
$$$$
