EWC.pdb
     RDKit          3D

 30 31  0  0  1  0  0  0  0  0999 V2000
    9.9954  -17.4582   19.3398 N   0  0  0  0  0  0  0  0  0  0  0  0
   10.9809  -17.4489   20.4176 C   0  0  1  0  0  0  0  0  0  0  0  0
   12.2988  -17.0511   19.7570 C   0  0  0  0  0  0  0  0  0  0  0  0
   13.3544  -17.1483   20.8524 C   0  0  0  0  0  0  0  0  0  0  0  0
   14.6750  -16.7191   20.3259 C   0  0  0  0  0  0  0  0  0  0  0  0
   15.1058  -17.0920   19.2054 O   0  0  0  0  0  0  0  0  0  0  0  0
   10.5757  -16.4579   21.4466 C   0  0  0  0  0  0  0  0  0  0  0  0
   10.7099  -15.2334   21.2258 O   0  0  0  0  0  0  0  0  0  0  0  0
   15.4610  -15.8796   21.0917 O   0  0  0  0  0  0  0  0  0  0  0  0
   10.0436  -16.8904   22.6635 N   0  0  0  0  0  0  0  0  0  0  0  0
    9.4986  -15.9860   23.6928 C   0  0  1  0  0  0  0  0  0  0  0  0
    8.0199  -16.0313   23.5851 C   0  0  0  0  0  0  0  0  0  0  0  0
    7.2706  -15.3262   24.6421 C   0  0  0  0  0  0  0  0  0  0  0  0
    6.4418  -15.8483   25.6323 C   0  0  0  0  0  0  0  0  0  0  0  0
    5.9364  -14.8598   26.3899 N   0  0  0  0  0  0  0  0  0  0  0  0
    6.3977  -13.6785   25.9434 C   0  0  0  0  0  0  0  0  0  0  0  0
    6.1792  -12.3890   26.3726 C   0  0  0  0  0  0  0  0  0  0  0  0
    6.8061  -11.3663   25.6977 C   0  0  0  0  0  0  0  0  0  0  0  0
    7.6332  -11.6246   24.6177 C   0  0  0  0  0  0  0  0  0  0  0  0
    7.8405  -12.9219   24.2017 C   0  0  0  0  0  0  0  0  0  0  0  0
    7.2272  -13.9509   24.8586 C   0  0  0  0  0  0  0  0  0  0  0  0
   10.0988  -16.3480   24.9651 C   0  0  0  0  0  0  0  0  0  0  0  0
   10.6058  -17.5178   25.0883 O   0  0  0  0  0  0  0  0  0  0  0  0
   10.1897  -15.5331   26.1096 N   0  0  0  0  0  0  0  0  0  0  0  0
   11.0207  -15.9061   27.2069 C   0  0  1  0  0  0  0  0  0  0  0  0
   11.2111  -14.8002   28.2187 C   0  0  0  0  0  0  0  0  0  0  0  0
    9.5845  -13.9906   28.4165 S   0  0  0  0  0  0  0  0  0  0  0  0
   10.3892  -17.0375   27.9367 C   0  0  0  0  0  0  0  0  0  0  0  0
   11.0881  -17.6481   28.9923 O   0  0  0  0  0  0  0  0  0  0  0  0
    9.2609  -17.4976   27.6790 O   0  0  0  0  0  0  0  0  0  0  0  0
  2  1  1  6
  2  7  1  0
  3  2  1  0
  3  4  1  0
  4  5  1  0
  5  6  2  0
  7  8  2  0
  9  5  1  0
 10 11  1  0
 10  7  1  0
 12 13  1  0
 11 12  1  1
 13 14  2  0
 15 14  1  0
 16 15  1  0
 17 16  2  0
 18 17  1  0
 19 20  1  0
 19 18  2  0
 20 21  2  0
 21 16  1  0
 21 13  1  0
 22 11  1  0
 22 24  1  0
 23 22  2  0
 25 24  1  0
 25 26  1  1
 27 26  1  0
 28 25  1  0
 29 28  1  0
 30 28  2  0
M  END
$$$$
