EWC.pdb
     RDKit          3D

 30 31  0  0  1  0  0  0  0  0999 V2000
    8.5673  -15.7870   20.3422 N   0  0  0  0  0  0  0  0  0  0  0  0
    9.3723  -16.6891   21.1614 C   0  0  1  0  0  0  0  0  0  0  0  0
   10.6928  -16.8467   20.4112 C   0  0  0  0  0  0  0  0  0  0  0  0
   10.4445  -17.9244   19.3622 C   0  0  0  0  0  0  0  0  0  0  0  0
   11.7167  -18.2728   18.6798 C   0  0  0  0  0  0  0  0  0  0  0  0
   12.4122  -17.4175   18.0759 O   0  0  0  0  0  0  0  0  0  0  0  0
    9.5843  -16.0814   22.4997 C   0  0  0  0  0  0  0  0  0  0  0  0
    9.8931  -14.8727   22.5982 O   0  0  0  0  0  0  0  0  0  0  0  0
   12.1550  -19.5829   18.7077 O   0  0  0  0  0  0  0  0  0  0  0  0
    9.4394  -16.8577   23.6518 N   0  0  0  0  0  0  0  0  0  0  0  0
    9.5009  -16.3180   25.0226 C   0  0  1  0  0  0  0  0  0  0  0  0
    8.1984  -16.6055   25.6714 C   0  0  0  0  0  0  0  0  0  0  0  0
    7.1518  -15.5789   25.5084 C   0  0  0  0  0  0  0  0  0  0  0  0
    5.8558  -15.7125   25.0160 C   0  0  0  0  0  0  0  0  0  0  0  0
    5.2281  -14.5241   25.0196 N   0  0  0  0  0  0  0  0  0  0  0  0
    6.0603  -13.5842   25.5009 C   0  0  0  0  0  0  0  0  0  0  0  0
    5.8959  -12.2327   25.7032 C   0  0  0  0  0  0  0  0  0  0  0  0
    6.9541  -11.5215   26.2218 C   0  0  0  0  0  0  0  0  0  0  0  0
    8.1506  -12.1455   26.5320 C   0  0  0  0  0  0  0  0  0  0  0  0
    8.2975  -13.4996   26.3229 C   0  0  0  0  0  0  0  0  0  0  0  0
    7.2587  -14.2230   25.8089 C   0  0  0  0  0  0  0  0  0  0  0  0
   10.7028  -16.8379   25.6513 C   0  0  0  0  0  0  0  0  0  0  0  0
   11.1626  -17.9635   25.2483 O   0  0  0  0  0  0  0  0  0  0  0  0
   11.4406  -16.2247   26.6817 N   0  0  0  0  0  0  0  0  0  0  0  0
   12.4546  -16.9438   27.3807 C   0  0  1  0  0  0  0  0  0  0  0  0
   13.2744  -16.0769   28.3078 C   0  0  0  0  0  0  0  0  0  0  0  0
   13.9544  -14.7219   27.2870 S   0  0  0  0  0  0  0  0  0  0  0  0
   11.8186  -17.9836   28.2325 C   0  0  0  0  0  0  0  0  0  0  0  0
   12.6312  -18.8106   29.0270 O   0  0  0  0  0  0  0  0  0  0  0  0
   10.5910  -18.1836   28.2984 O   0  0  0  0  0  0  0  0  0  0  0  0
  2  1  1  6
  2  7  1  0
  3  2  1  0
  3  4  1  0
  4  5  1  0
  5  6  2  0
  7  8  2  0
  9  5  1  0
 10 11  1  0
 10  7  1  0
 12 13  1  0
 11 12  1  1
 13 14  2  0
 15 14  1  0
 16 15  1  0
 17 16  2  0
 18 17  1  0
 19 20  1  0
 19 18  2  0
 20 21  2  0
 21 16  1  0
 21 13  1  0
 22 11  1  0
 22 24  1  0
 23 22  2  0
 25 24  1  0
 25 26  1  1
 27 26  1  0
 28 25  1  0
 29 28  1  0
 30 28  2  0
M  END
$$$$
