EWC.pdb
     RDKit          3D

 30 31  0  0  1  0  0  0  0  0999 V2000
   10.2870  -16.4085   20.3981 N   0  0  0  0  0  0  0  0  0  0  0  0
   10.9705  -16.9975   21.5465 C   0  0  1  0  0  0  0  0  0  0  0  0
   12.4609  -16.8307   21.2591 C   0  0  0  0  0  0  0  0  0  0  0  0
   12.7612  -17.7602   20.0891 C   0  0  0  0  0  0  0  0  0  0  0  0
   14.2019  -17.6851   19.7365 C   0  0  0  0  0  0  0  0  0  0  0  0
   14.6539  -16.8311   18.9324 O   0  0  0  0  0  0  0  0  0  0  0  0
   10.5769  -16.2700   22.7798 C   0  0  0  0  0  0  0  0  0  0  0  0
   10.7931  -15.0415   22.8798 O   0  0  0  0  0  0  0  0  0  0  0  0
   15.0801  -18.5839   20.3109 O   0  0  0  0  0  0  0  0  0  0  0  0
    9.9642  -16.9556   23.8313 N   0  0  0  0  0  0  0  0  0  0  0  0
    9.5351  -16.3199   25.0907 C   0  0  1  0  0  0  0  0  0  0  0  0
    8.1634  -16.8014   25.3857 C   0  0  0  0  0  0  0  0  0  0  0  0
    7.1116  -15.7689   25.4426 C   0  0  0  0  0  0  0  0  0  0  0  0
    5.7419  -15.8935   25.2230 C   0  0  0  0  0  0  0  0  0  0  0  0
    5.1350  -14.7020   25.3586 N   0  0  0  0  0  0  0  0  0  0  0  0
    6.0531  -13.7687   25.6646 C   0  0  0  0  0  0  0  0  0  0  0  0
    5.9412  -12.4174   25.9012 C   0  0  0  0  0  0  0  0  0  0  0  0
    7.0867  -11.7141   26.1970 C   0  0  0  0  0  0  0  0  0  0  0  0
    8.3176  -12.3456   26.2554 C   0  0  0  0  0  0  0  0  0  0  0  0
    8.4110  -13.6994   26.0156 C   0  0  0  0  0  0  0  0  0  0  0  0
    7.2853  -14.4150   25.7204 C   0  0  0  0  0  0  0  0  0  0  0  0
   10.5678  -16.5597   26.0838 C   0  0  0  0  0  0  0  0  0  0  0  0
   11.5695  -17.2881   25.7569 O   0  0  0  0  0  0  0  0  0  0  0  0
   10.5924  -16.0654   27.4018 N   0  0  0  0  0  0  0  0  0  0  0  0
   11.5813  -16.5083   28.3289 C   0  0  1  0  0  0  0  0  0  0  0  0
   11.5620  -15.7492   29.6353 C   0  0  0  0  0  0  0  0  0  0  0  0
   10.9235  -14.0791   29.2569 S   0  0  0  0  0  0  0  0  0  0  0  0
   11.3300  -17.9340   28.6690 C   0  0  0  0  0  0  0  0  0  0  0  0
   12.2593  -18.6227   29.4674 O   0  0  0  0  0  0  0  0  0  0  0  0
   10.3350  -18.5814   28.2919 O   0  0  0  0  0  0  0  0  0  0  0  0
  2  1  1  6
  2  7  1  0
  3  2  1  0
  3  4  1  0
  4  5  1  0
  5  6  2  0
  7  8  2  0
  9  5  1  0
 10 11  1  0
 10  7  1  0
 12 13  1  0
 11 12  1  1
 13 14  2  0
 15 14  1  0
 16 15  1  0
 17 16  2  0
 18 17  1  0
 19 20  1  0
 19 18  2  0
 20 21  2  0
 21 16  1  0
 21 13  1  0
 22 11  1  0
 22 24  1  0
 23 22  2  0
 25 24  1  0
 25 26  1  1
 27 26  1  0
 28 25  1  0
 29 28  1  0
 30 28  2  0
M  END
$$$$
