EWC.pdb
     RDKit          3D

 30 31  0  0  1  0  0  0  0  0999 V2000
   10.0774  -17.2513   20.7646 N   0  0  0  0  0  0  0  0  0  0  0  0
   11.2452  -17.2759   21.6411 C   0  0  1  0  0  0  0  0  0  0  0  0
   12.3684  -16.6255   20.8368 C   0  0  0  0  0  0  0  0  0  0  0  0
   12.4648  -17.4254   19.5429 C   0  0  0  0  0  0  0  0  0  0  0  0
   13.8335  -17.9807   19.3888 C   0  0  0  0  0  0  0  0  0  0  0  0
   14.8642  -17.3140   19.6596 O   0  0  0  0  0  0  0  0  0  0  0  0
   10.9512  -16.5031   22.8746 C   0  0  0  0  0  0  0  0  0  0  0  0
   11.5766  -15.4467   23.1173 O   0  0  0  0  0  0  0  0  0  0  0  0
   13.9837  -19.2760   18.9322 O   0  0  0  0  0  0  0  0  0  0  0  0
    9.9756  -16.9537   23.7670 N   0  0  0  0  0  0  0  0  0  0  0  0
    9.6251  -16.2641   25.0223 C   0  0  1  0  0  0  0  0  0  0  0  0
    8.1483  -16.3060   25.1541 C   0  0  0  0  0  0  0  0  0  0  0  0
    7.4148  -15.1504   24.6044 C   0  0  0  0  0  0  0  0  0  0  0  0
    6.8961  -14.9635   23.3253 C   0  0  0  0  0  0  0  0  0  0  0  0
    6.3096  -13.7580   23.2287 N   0  0  0  0  0  0  0  0  0  0  0  0
    6.4142  -13.1182   24.4066 C   0  0  0  0  0  0  0  0  0  0  0  0
    5.9820  -11.8769   24.8156 C   0  0  0  0  0  0  0  0  0  0  0  0
    6.2442  -11.4939   26.1113 C   0  0  0  0  0  0  0  0  0  0  0  0
    6.9231  -12.3313   26.9803 C   0  0  0  0  0  0  0  0  0  0  0  0
    7.3485  -13.5707   26.5537 C   0  0  0  0  0  0  0  0  0  0  0  0
    7.0978  -13.9691   25.2711 C   0  0  0  0  0  0  0  0  0  0  0  0
   10.4194  -16.8502   26.0880 C   0  0  0  0  0  0  0  0  0  0  0  0
   10.7828  -18.0733   25.9744 O   0  0  0  0  0  0  0  0  0  0  0  0
   10.8483  -16.2056   27.2638 N   0  0  0  0  0  0  0  0  0  0  0  0
   11.6415  -16.8962   28.2269 C   0  0  1  0  0  0  0  0  0  0  0  0
   12.1175  -16.0131   29.3568 C   0  0  0  0  0  0  0  0  0  0  0  0
   10.7801  -14.8084   29.6741 S   0  0  0  0  0  0  0  0  0  0  0  0
   10.8270  -17.9725   28.8509 C   0  0  0  0  0  0  0  0  0  0  0  0
   11.4587  -18.9212   29.6734 O   0  0  0  0  0  0  0  0  0  0  0  0
    9.5978  -18.1020   28.6976 O   0  0  0  0  0  0  0  0  0  0  0  0
  2  1  1  6
  2  7  1  0
  3  2  1  0
  3  4  1  0
  4  5  1  0
  5  6  2  0
  7  8  2  0
  9  5  1  0
 10 11  1  0
 10  7  1  0
 12 13  1  0
 11 12  1  1
 13 14  2  0
 15 14  1  0
 16 15  1  0
 17 16  2  0
 18 17  1  0
 19 20  1  0
 19 18  2  0
 20 21  2  0
 21 16  1  0
 21 13  1  0
 22 11  1  0
 22 24  1  0
 23 22  2  0
 25 24  1  0
 25 26  1  1
 27 26  1  0
 28 25  1  0
 29 28  1  0
 30 28  2  0
M  END
$$$$
