EWC.pdb
     RDKit          3D

 30 31  0  0  1  0  0  0  0  0999 V2000
   11.6667  -16.9712   19.5148 N   0  0  0  0  0  0  0  0  0  0  0  0
   11.3168  -17.6220   20.7745 C   0  0  1  0  0  0  0  0  0  0  0  0
   12.6019  -18.2935   21.2533 C   0  0  0  0  0  0  0  0  0  0  0  0
   13.4658  -18.4638   20.0091 C   0  0  0  0  0  0  0  0  0  0  0  0
   14.7170  -19.1858   20.3535 C   0  0  0  0  0  0  0  0  0  0  0  0
   15.5895  -19.4674   19.4935 O   0  0  0  0  0  0  0  0  0  0  0  0
   10.8522  -16.5984   21.7449 C   0  0  0  0  0  0  0  0  0  0  0  0
   11.2868  -15.4268   21.6775 O   0  0  0  0  0  0  0  0  0  0  0  0
   14.9338  -19.5630   21.6649 O   0  0  0  0  0  0  0  0  0  0  0  0
    9.9288  -16.9411   22.7352 N   0  0  0  0  0  0  0  0  0  0  0  0
    9.4678  -16.0171   23.7878 C   0  0  1  0  0  0  0  0  0  0  0  0
    7.9864  -15.9764   23.7248 C   0  0  0  0  0  0  0  0  0  0  0  0
    7.3159  -15.1538   24.7492 C   0  0  0  0  0  0  0  0  0  0  0  0
    6.6149  -15.5575   25.8831 C   0  0  0  0  0  0  0  0  0  0  0  0
    6.1439  -14.4888   26.5484 N   0  0  0  0  0  0  0  0  0  0  0  0
    6.5046  -13.3680   25.8994 C   0  0  0  0  0  0  0  0  0  0  0  0
    6.2725  -12.0385   26.1701 C   0  0  0  0  0  0  0  0  0  0  0  0
    6.7819  -11.1014   25.3001 C   0  0  0  0  0  0  0  0  0  0  0  0
    7.5074  -11.4826   24.1841 C   0  0  0  0  0  0  0  0  0  0  0  0
    7.7301  -12.8183   23.9286 C   0  0  0  0  0  0  0  0  0  0  0  0
    7.2326  -13.7637   24.7803 C   0  0  0  0  0  0  0  0  0  0  0  0
   10.0839  -16.4253   25.0384 C   0  0  0  0  0  0  0  0  0  0  0  0
   10.3693  -17.6634   25.2009 O   0  0  0  0  0  0  0  0  0  0  0  0
   10.4135  -15.5883   26.1214 N   0  0  0  0  0  0  0  0  0  0  0  0
   11.1853  -16.0800   27.2152 C   0  0  1  0  0  0  0  0  0  0  0  0
   11.4696  -15.0336   28.2675 C   0  0  0  0  0  0  0  0  0  0  0  0
    9.9098  -14.1160   28.5232 S   0  0  0  0  0  0  0  0  0  0  0  0
   10.4321  -17.1659   27.8970 C   0  0  0  0  0  0  0  0  0  0  0  0
   11.0801  -17.9413   28.8737 O   0  0  0  0  0  0  0  0  0  0  0  0
    9.2417  -17.4487   27.6639 O   0  0  0  0  0  0  0  0  0  0  0  0
  2  1  1  6
  2  7  1  0
  3  2  1  0
  3  4  1  0
  4  5  1  0
  5  6  2  0
  7  8  2  0
  9  5  1  0
 10 11  1  0
 10  7  1  0
 12 13  1  0
 11 12  1  1
 13 14  2  0
 15 14  1  0
 16 15  1  0
 17 16  2  0
 18 17  1  0
 19 20  1  0
 19 18  2  0
 20 21  2  0
 21 16  1  0
 21 13  1  0
 22 11  1  0
 22 24  1  0
 23 22  2  0
 25 24  1  0
 25 26  1  1
 27 26  1  0
 28 25  1  0
 29 28  1  0
 30 28  2  0
M  END
$$$$
