EWC.pdb
     RDKit          3D

 30 31  0  0  1  0  0  0  0  0999 V2000
    8.1958  -15.5170   20.6382 N   0  0  0  0  0  0  0  0  0  0  0  0
    9.0552  -16.4510   21.3608 C   0  0  1  0  0  0  0  0  0  0  0  0
   10.3057  -16.6007   20.4974 C   0  0  0  0  0  0  0  0  0  0  0  0
    9.8390  -17.2677   19.2088 C   0  0  0  0  0  0  0  0  0  0  0  0
   10.9903  -17.4631   18.2912 C   0  0  0  0  0  0  0  0  0  0  0  0
   12.1754  -17.2314   18.6403 O   0  0  0  0  0  0  0  0  0  0  0  0
    9.3871  -15.8848   22.6928 C   0  0  0  0  0  0  0  0  0  0  0  0
    9.7002  -14.6780   22.8014 O   0  0  0  0  0  0  0  0  0  0  0  0
   10.7546  -17.9159   17.0073 O   0  0  0  0  0  0  0  0  0  0  0  0
    9.3505  -16.6981   23.8279 N   0  0  0  0  0  0  0  0  0  0  0  0
    9.6264  -16.2186   25.1947 C   0  0  1  0  0  0  0  0  0  0  0  0
    8.3926  -16.4203   25.9930 C   0  0  0  0  0  0  0  0  0  0  0  0
    7.3149  -15.4356   25.7818 C   0  0  0  0  0  0  0  0  0  0  0  0
    6.0075  -15.6400   25.3472 C   0  0  0  0  0  0  0  0  0  0  0  0
    5.3495  -14.4703   25.2739 N   0  0  0  0  0  0  0  0  0  0  0  0
    6.1723  -13.4744   25.6466 C   0  0  0  0  0  0  0  0  0  0  0  0
    5.9795  -12.1148   25.7416 C   0  0  0  0  0  0  0  0  0  0  0  0
    7.0351  -11.3383   26.1626 C   0  0  0  0  0  0  0  0  0  0  0  0
    8.2569  -11.9063   26.4819 C   0  0  0  0  0  0  0  0  0  0  0  0
    8.4321  -13.2693   26.3809 C   0  0  0  0  0  0  0  0  0  0  0  0
    7.3962  -14.0571   25.9649 C   0  0  0  0  0  0  0  0  0  0  0  0
   10.8455  -16.8616   25.6536 C   0  0  0  0  0  0  0  0  0  0  0  0
   11.0464  -18.0853   25.3326 O   0  0  0  0  0  0  0  0  0  0  0  0
   11.8603  -16.2730   26.4319 N   0  0  0  0  0  0  0  0  0  0  0  0
   12.9627  -17.0472   26.8999 C   0  0  1  0  0  0  0  0  0  0  0  0
   14.1581  -16.2116   27.2949 C   0  0  0  0  0  0  0  0  0  0  0  0
   14.6857  -15.3155   25.7920 S   0  0  0  0  0  0  0  0  0  0  0  0
   12.5535  -17.7953   28.1182 C   0  0  0  0  0  0  0  0  0  0  0  0
   13.5042  -18.5810   28.7921 O   0  0  0  0  0  0  0  0  0  0  0  0
   11.4050  -17.7794   28.5999 O   0  0  0  0  0  0  0  0  0  0  0  0
  2  1  1  6
  2  7  1  0
  3  2  1  0
  3  4  1  0
  4  5  1  0
  5  6  2  0
  7  8  2  0
  9  5  1  0
 10 11  1  0
 10  7  1  0
 12 13  1  0
 11 12  1  1
 13 14  2  0
 15 14  1  0
 16 15  1  0
 17 16  2  0
 18 17  1  0
 19 20  1  0
 19 18  2  0
 20 21  2  0
 21 16  1  0
 21 13  1  0
 22 11  1  0
 22 24  1  0
 23 22  2  0
 25 24  1  0
 25 26  1  1
 27 26  1  0
 28 25  1  0
 29 28  1  0
 30 28  2  0
M  END
$$$$
