EWC.pdb
     RDKit          3D

 30 31  0  0  1  0  0  0  0  0999 V2000
   10.7136  -17.1275   19.3711 N   0  0  0  0  0  0  0  0  0  0  0  0
   11.0651  -17.6618   20.6841 C   0  0  1  0  0  0  0  0  0  0  0  0
   12.5765  -17.8749   20.6424 C   0  0  0  0  0  0  0  0  0  0  0  0
   12.9482  -17.9012   19.1644 C   0  0  0  0  0  0  0  0  0  0  0  0
   14.4002  -18.1718   19.0096 C   0  0  0  0  0  0  0  0  0  0  0  0
   14.9496  -18.2704   17.8834 O   0  0  0  0  0  0  0  0  0  0  0  0
   10.6903  -16.6786   21.7320 C   0  0  0  0  0  0  0  0  0  0  0  0
   11.2592  -15.5651   21.7800 O   0  0  0  0  0  0  0  0  0  0  0  0
   15.1784  -18.3207   20.1415 O   0  0  0  0  0  0  0  0  0  0  0  0
    9.7016  -16.9947   22.6667 N   0  0  0  0  0  0  0  0  0  0  0  0
    9.2184  -16.0631   23.7025 C   0  0  1  0  0  0  0  0  0  0  0  0
    7.7368  -16.0515   23.6324 C   0  0  0  0  0  0  0  0  0  0  0  0
    7.0445  -15.2632   24.6691 C   0  0  0  0  0  0  0  0  0  0  0  0
    6.2619  -15.7029   25.7342 C   0  0  0  0  0  0  0  0  0  0  0  0
    5.8002  -14.6565   26.4401 N   0  0  0  0  0  0  0  0  0  0  0  0
    6.2464  -13.5158   25.8856 C   0  0  0  0  0  0  0  0  0  0  0  0
    6.0571  -12.1961   26.2282 C   0  0  0  0  0  0  0  0  0  0  0  0
    6.6565  -11.2321   25.4500 C   0  0  0  0  0  0  0  0  0  0  0  0
    7.4282  -11.5772   24.3534 C   0  0  0  0  0  0  0  0  0  0  0  0
    7.6069  -12.9035   24.0250 C   0  0  0  0  0  0  0  0  0  0  0  0
    7.0202  -13.8753   24.7852 C   0  0  0  0  0  0  0  0  0  0  0  0
    9.8363  -16.4399   24.9621 C   0  0  0  0  0  0  0  0  0  0  0  0
   10.5411  -17.5088   24.9988 O   0  0  0  0  0  0  0  0  0  0  0  0
    9.7459  -15.7408   26.1807 N   0  0  0  0  0  0  0  0  0  0  0  0
   10.5823  -16.0851   27.2833 C   0  0  1  0  0  0  0  0  0  0  0  0
   10.6014  -15.0377   28.3722 C   0  0  0  0  0  0  0  0  0  0  0  0
   12.1682  -14.1164   28.1800 S   0  0  0  0  0  0  0  0  0  0  0  0
   10.0746  -17.3336   27.9118 C   0  0  0  0  0  0  0  0  0  0  0  0
    8.7035  -17.6325   27.8333 O   0  0  0  0  0  0  0  0  0  0  0  0
   10.7878  -18.1555   28.5175 O   0  0  0  0  0  0  0  0  0  0  0  0
  2  1  1  6
  2  7  1  0
  3  2  1  0
  3  4  1  0
  4  5  1  0
  5  6  2  0
  7  8  2  0
  9  5  1  0
 10 11  1  0
 10  7  1  0
 12 13  1  0
 11 12  1  1
 13 14  2  0
 15 14  1  0
 16 15  1  0
 17 16  2  0
 18 17  1  0
 19 20  1  0
 19 18  2  0
 20 21  2  0
 21 16  1  0
 21 13  1  0
 22 11  1  0
 22 24  1  0
 23 22  2  0
 25 24  1  0
 25 26  1  1
 27 26  1  0
 28 25  1  0
 29 28  1  0
 30 28  2  0
M  END
$$$$
