EWC.pdb
     RDKit          3D

 30 31  0  0  1  0  0  0  0  0999 V2000
   11.1159  -16.5496   18.7445 N   0  0  0  0  0  0  0  0  0  0  0  0
   10.1354  -17.2144   19.5986 C   0  0  1  0  0  0  0  0  0  0  0  0
   10.6220  -18.6560   19.7267 C   0  0  0  0  0  0  0  0  0  0  0  0
   11.8469  -18.7588   18.8254 C   0  0  0  0  0  0  0  0  0  0  0  0
   12.3774  -20.1458   18.8442 C   0  0  0  0  0  0  0  0  0  0  0  0
   11.8149  -21.0894   18.2332 O   0  0  0  0  0  0  0  0  0  0  0  0
   10.0980  -16.5409   20.9216 C   0  0  0  0  0  0  0  0  0  0  0  0
   11.1364  -16.0253   21.3928 O   0  0  0  0  0  0  0  0  0  0  0  0
   13.5304  -20.4126   19.5573 O   0  0  0  0  0  0  0  0  0  0  0  0
    8.9035  -16.4811   21.6430 N   0  0  0  0  0  0  0  0  0  0  0  0
    8.7842  -15.9015   22.9936 C   0  0  1  0  0  0  0  0  0  0  0  0
    7.3830  -15.4436   23.1577 C   0  0  0  0  0  0  0  0  0  0  0  0
    7.0063  -14.9778   24.5056 C   0  0  0  0  0  0  0  0  0  0  0  0
    6.2848  -15.6390   25.4966 C   0  0  0  0  0  0  0  0  0  0  0  0
    6.1460  -14.8538   26.5785 N   0  0  0  0  0  0  0  0  0  0  0  0
    6.7530  -13.6757   26.3524 C   0  0  0  0  0  0  0  0  0  0  0  0
    6.8919  -12.5522   27.1355 C   0  0  0  0  0  0  0  0  0  0  0  0
    7.5825  -11.4811   26.6156 C   0  0  0  0  0  0  0  0  0  0  0  0
    8.1229  -11.5299   25.3417 C   0  0  0  0  0  0  0  0  0  0  0  0
    7.9741  -12.6629   24.5716 C   0  0  0  0  0  0  0  0  0  0  0  0
    7.2919  -13.7367   25.0699 C   0  0  0  0  0  0  0  0  0  0  0  0
    9.2965  -16.8753   23.9419 C   0  0  0  0  0  0  0  0  0  0  0  0
    9.4221  -18.0910   23.5583 O   0  0  0  0  0  0  0  0  0  0  0  0
    9.6830  -16.6250   25.2724 N   0  0  0  0  0  0  0  0  0  0  0  0
   10.6601  -17.4415   25.9144 C   0  0  1  0  0  0  0  0  0  0  0  0
   12.0803  -17.0776   25.5488 C   0  0  0  0  0  0  0  0  0  0  0  0
   13.1661  -18.1883   26.5119 S   0  0  0  0  0  0  0  0  0  0  0  0
   10.5498  -17.2704   27.3874 C   0  0  0  0  0  0  0  0  0  0  0  0
    9.6363  -16.3348   27.9027 O   0  0  0  0  0  0  0  0  0  0  0  0
   11.2207  -17.9078   28.2210 O   0  0  0  0  0  0  0  0  0  0  0  0
  2  1  1  6
  2  7  1  0
  3  2  1  0
  3  4  1  0
  4  5  1  0
  5  6  2  0
  7  8  2  0
  9  5  1  0
 10 11  1  0
 10  7  1  0
 12 13  1  0
 11 12  1  1
 13 14  2  0
 15 14  1  0
 16 15  1  0
 17 16  2  0
 18 17  1  0
 19 20  1  0
 19 18  2  0
 20 21  2  0
 21 16  1  0
 21 13  1  0
 22 11  1  0
 22 24  1  0
 23 22  2  0
 25 24  1  0
 25 26  1  6
 27 26  1  0
 28 25  1  0
 29 28  1  0
 30 28  2  0
M  END
$$$$
