EWC.pdb
     RDKit          3D

 30 31  0  0  1  0  0  0  0  0999 V2000
   11.0781  -18.7437   21.3929 N   0  0  0  0  0  0  0  0  0  0  0  0
   11.8200  -17.4859   21.3726 C   0  0  1  0  0  0  0  0  0  0  0  0
   11.7530  -17.0002   19.9265 C   0  0  0  0  0  0  0  0  0  0  0  0
   10.3751  -17.4086   19.4184 C   0  0  0  0  0  0  0  0  0  0  0  0
   10.2650  -17.1269   17.9645 C   0  0  0  0  0  0  0  0  0  0  0  0
    9.8045  -17.9662   17.1498 O   0  0  0  0  0  0  0  0  0  0  0  0
   11.1733  -16.5179   22.2945 C   0  0  0  0  0  0  0  0  0  0  0  0
   11.6186  -15.3527   22.3942 O   0  0  0  0  0  0  0  0  0  0  0  0
   10.6822  -15.8997   17.4862 O   0  0  0  0  0  0  0  0  0  0  0  0
   10.0661  -16.9060   23.0526 N   0  0  0  0  0  0  0  0  0  0  0  0
    9.4577  -16.0754   24.1081 C   0  0  1  0  0  0  0  0  0  0  0  0
    8.0505  -16.5173   24.2645 C   0  0  0  0  0  0  0  0  0  0  0  0
    7.1374  -15.5577   24.9133 C   0  0  0  0  0  0  0  0  0  0  0  0
    5.8688  -15.7715   25.4471 C   0  0  0  0  0  0  0  0  0  0  0  0
    5.3654  -14.6243   25.9338 N   0  0  0  0  0  0  0  0  0  0  0  0
    6.2558  -13.6345   25.7465 C   0  0  0  0  0  0  0  0  0  0  0  0
    6.2165  -12.2956   26.0636 C   0  0  0  0  0  0  0  0  0  0  0  0
    7.3058  -11.5200   25.7376 C   0  0  0  0  0  0  0  0  0  0  0  0
    8.4107  -12.0686   25.1086 C   0  0  0  0  0  0  0  0  0  0  0  0
    8.4328  -13.4110   24.7986 C   0  0  0  0  0  0  0  0  0  0  0  0
    7.3612  -14.1976   25.1141 C   0  0  0  0  0  0  0  0  0  0  0  0
   10.3223  -16.1349   25.2740 C   0  0  0  0  0  0  0  0  0  0  0  0
   11.3582  -16.8868   25.2260 O   0  0  0  0  0  0  0  0  0  0  0  0
   10.1449  -15.4375   26.4840 N   0  0  0  0  0  0  0  0  0  0  0  0
   10.9870  -15.6958   27.6054 C   0  0  1  0  0  0  0  0  0  0  0  0
   10.7409  -14.7630   28.7684 C   0  0  0  0  0  0  0  0  0  0  0  0
   10.2155  -13.1658   28.0518 S   0  0  0  0  0  0  0  0  0  0  0  0
   10.7250  -17.0705   28.1083 C   0  0  0  0  0  0  0  0  0  0  0  0
   11.5442  -17.5981   29.1212 O   0  0  0  0  0  0  0  0  0  0  0  0
    9.8130  -17.8092   27.6912 O   0  0  0  0  0  0  0  0  0  0  0  0
  2  1  1  6
  2  7  1  0
  3  2  1  0
  3  4  1  0
  4  5  1  0
  5  6  2  0
  7  8  2  0
  9  5  1  0
 10 11  1  0
 10  7  1  0
 12 13  1  0
 11 12  1  1
 13 14  2  0
 15 14  1  0
 16 15  1  0
 17 16  2  0
 18 17  1  0
 19 20  1  0
 19 18  2  0
 20 21  2  0
 21 16  1  0
 21 13  1  0
 22 11  1  0
 22 24  1  0
 23 22  2  0
 25 24  1  0
 25 26  1  1
 27 26  1  0
 28 25  1  0
 29 28  1  0
 30 28  2  0
M  END
$$$$
