EWC.pdb
     RDKit          3D

 30 31  0  0  1  0  0  0  0  0999 V2000
   10.1522  -18.3261   20.9042 N   0  0  0  0  0  0  0  0  0  0  0  0
   10.8643  -17.0511   20.9033 C   0  0  1  0  0  0  0  0  0  0  0  0
   10.4927  -16.3813   19.5824 C   0  0  0  0  0  0  0  0  0  0  0  0
   10.6792  -17.4503   18.5119 C   0  0  0  0  0  0  0  0  0  0  0  0
   10.5356  -16.8487   17.1617 C   0  0  0  0  0  0  0  0  0  0  0  0
   11.4979  -16.3077   16.5606 O   0  0  0  0  0  0  0  0  0  0  0  0
   10.4177  -16.2371   22.0622 C   0  0  0  0  0  0  0  0  0  0  0  0
   10.8097  -15.0552   22.1873 O   0  0  0  0  0  0  0  0  0  0  0  0
    9.3018  -16.8830   16.5406 O   0  0  0  0  0  0  0  0  0  0  0  0
    9.5586  -16.7888   23.0155 N   0  0  0  0  0  0  0  0  0  0  0  0
    9.1513  -16.1009   24.2545 C   0  0  1  0  0  0  0  0  0  0  0  0
    7.8205  -16.6310   24.6393 C   0  0  0  0  0  0  0  0  0  0  0  0
    6.8473  -15.6411   25.1380 C   0  0  0  0  0  0  0  0  0  0  0  0
    5.5257  -15.8282   25.5359 C   0  0  0  0  0  0  0  0  0  0  0  0
    4.9790  -14.6590   25.9111 N   0  0  0  0  0  0  0  0  0  0  0  0
    5.8916  -13.6804   25.7800 C   0  0  0  0  0  0  0  0  0  0  0  0
    5.8263  -12.3284   26.0300 C   0  0  0  0  0  0  0  0  0  0  0  0
    6.9504  -11.5704   25.7931 C   0  0  0  0  0  0  0  0  0  0  0  0
    8.1148  -12.1490   25.3169 C   0  0  0  0  0  0  0  0  0  0  0  0
    8.1622  -13.5042   25.0721 C   0  0  0  0  0  0  0  0  0  0  0  0
    7.0567  -14.2737   25.3011 C   0  0  0  0  0  0  0  0  0  0  0  0
   10.2367  -16.2293   25.2114 C   0  0  0  0  0  0  0  0  0  0  0  0
   11.1717  -17.0686   24.9624 O   0  0  0  0  0  0  0  0  0  0  0  0
   10.3807  -15.5129   26.4147 N   0  0  0  0  0  0  0  0  0  0  0  0
   11.4770  -15.7693   27.2899 C   0  0  1  0  0  0  0  0  0  0  0  0
   11.5413  -14.8216   28.4651 C   0  0  0  0  0  0  0  0  0  0  0  0
    9.8157  -14.5271   28.9906 S   0  0  0  0  0  0  0  0  0  0  0  0
   11.3389  -17.1355   27.8605 C   0  0  0  0  0  0  0  0  0  0  0  0
   10.1432  -17.8458   27.6578 O   0  0  0  0  0  0  0  0  0  0  0  0
   12.2226  -17.7139   28.5207 O   0  0  0  0  0  0  0  0  0  0  0  0
  2  1  1  1
  2  7  1  0
  3  2  1  0
  3  4  1  0
  4  5  1  0
  5  6  2  0
  7  8  2  0
  9  5  1  0
 10 11  1  0
 10  7  1  0
 12 13  1  0
 11 12  1  1
 13 14  2  0
 15 14  1  0
 16 15  1  0
 17 16  2  0
 18 17  1  0
 19 20  1  0
 19 18  2  0
 20 21  2  0
 21 16  1  0
 21 13  1  0
 22 11  1  0
 22 24  1  0
 23 22  2  0
 25 24  1  0
 25 26  1  1
 27 26  1  0
 28 25  1  0
 29 28  1  0
 30 28  2  0
M  END
$$$$
