EWC.pdb
     RDKit          3D

 30 31  0  0  1  0  0  0  0  0999 V2000
   10.6000  -18.6595   20.6599 N   0  0  0  0  0  0  0  0  0  0  0  0
   11.6330  -17.6424   20.8363 C   0  0  1  0  0  0  0  0  0  0  0  0
   11.8861  -17.0767   19.4408 C   0  0  0  0  0  0  0  0  0  0  0  0
   13.3463  -16.6395   19.4323 C   0  0  0  0  0  0  0  0  0  0  0  0
   13.9299  -16.8415   18.0817 C   0  0  0  0  0  0  0  0  0  0  0  0
   14.4237  -15.8977   17.4143 O   0  0  0  0  0  0  0  0  0  0  0  0
   11.1359  -16.5910   21.7598 C   0  0  0  0  0  0  0  0  0  0  0  0
   11.7766  -15.5253   21.9004 O   0  0  0  0  0  0  0  0  0  0  0  0
   13.9324  -18.1108   17.5358 O   0  0  0  0  0  0  0  0  0  0  0  0
    9.9517  -16.7893   22.4735 N   0  0  0  0  0  0  0  0  0  0  0  0
    9.4645  -15.8834   23.5300 C   0  0  1  0  0  0  0  0  0  0  0  0
    7.9843  -15.8514   23.4392 C   0  0  0  0  0  0  0  0  0  0  0  0
    7.2808  -15.1774   24.5467 C   0  0  0  0  0  0  0  0  0  0  0  0
    6.4578  -15.7227   25.5292 C   0  0  0  0  0  0  0  0  0  0  0  0
    6.0004  -14.7582   26.3459 N   0  0  0  0  0  0  0  0  0  0  0  0
    6.4888  -13.5707   25.9472 C   0  0  0  0  0  0  0  0  0  0  0  0
    6.3204  -12.2982   26.4442 C   0  0  0  0  0  0  0  0  0  0  0  0
    6.9643  -11.2627   25.8058 C   0  0  0  0  0  0  0  0  0  0  0  0
    7.7591  -11.4919   24.6954 C   0  0  0  0  0  0  0  0  0  0  0  0
    7.9164  -12.7725   24.2115 C   0  0  0  0  0  0  0  0  0  0  0  0
    7.2855  -13.8139   24.8314 C   0  0  0  0  0  0  0  0  0  0  0  0
   10.0594  -16.3054   24.7863 C   0  0  0  0  0  0  0  0  0  0  0  0
   10.4105  -17.5308   24.9124 O   0  0  0  0  0  0  0  0  0  0  0  0
   10.3017  -15.4949   25.9116 N   0  0  0  0  0  0  0  0  0  0  0  0
   11.0134  -16.0037   27.0378 C   0  0  1  0  0  0  0  0  0  0  0  0
   11.3150  -14.9536   28.0816 C   0  0  0  0  0  0  0  0  0  0  0  0
    9.7283  -14.1325   28.4668 S   0  0  0  0  0  0  0  0  0  0  0  0
   10.1868  -17.0396   27.7122 C   0  0  0  0  0  0  0  0  0  0  0  0
   10.7791  -17.8638   28.6845 O   0  0  0  0  0  0  0  0  0  0  0  0
    8.9800  -17.2385   27.4768 O   0  0  0  0  0  0  0  0  0  0  0  0
  2  1  1  6
  2  7  1  0
  3  2  1  0
  3  4  1  0
  4  5  1  0
  5  6  2  0
  7  8  2  0
  9  5  1  0
 10 11  1  0
 10  7  1  0
 12 13  1  0
 11 12  1  1
 13 14  2  0
 15 14  1  0
 16 15  1  0
 17 16  2  0
 18 17  1  0
 19 20  1  0
 19 18  2  0
 20 21  2  0
 21 16  1  0
 21 13  1  0
 22 11  1  0
 22 24  1  0
 23 22  2  0
 25 24  1  0
 25 26  1  1
 27 26  1  0
 28 25  1  0
 29 28  1  0
 30 28  2  0
M  END
$$$$
