KWS.pdb
     RDKit          3D

 30 31  0  0  1  0  0  0  0  0999 V2000
   15.7670  -19.9491    2.6071 N   0  0  0  0  0  0  0  0  0  0  0  0
   15.2828  -19.3964    3.8386 C   0  0  1  0  0  0  0  0  0  0  0  0
   14.4680  -20.4135    4.6159 C   0  0  0  0  0  0  0  0  0  0  0  0
   13.2655  -20.7290    3.7638 C   0  0  0  0  0  0  0  0  0  0  0  0
   12.2792  -21.5878    4.4974 C   0  0  0  0  0  0  0  0  0  0  0  0
   11.1024  -21.8768    3.6252 C   0  0  0  0  0  0  0  0  0  0  0  0
   10.1349  -20.8056    3.8408 N   0  0  0  0  0  0  0  0  0  0  0  0
   16.3996  -18.8329    4.6152 C   0  0  0  0  0  0  0  0  0  0  0  0
   17.5655  -19.1579    4.3385 O   0  0  0  0  0  0  0  0  0  0  0  0
   16.1151  -17.9245    5.6717 N   0  0  0  0  0  0  0  0  0  0  0  0
   17.1509  -17.2473    6.4046 C   0  0  1  0  0  0  0  0  0  0  0  0
   17.2117  -15.7820    6.2764 C   0  0  0  0  0  0  0  0  0  0  0  0
   17.4695  -15.2268    4.9450 C   0  0  0  0  0  0  0  0  0  0  0  0
   17.1570  -15.6076    3.6748 C   0  0  0  0  0  0  0  0  0  0  0  0
   17.6159  -14.7430    2.7506 N   0  0  0  0  0  0  0  0  0  0  0  0
   18.2489  -13.7650    3.4357 C   0  0  0  0  0  0  0  0  0  0  0  0
   18.8889  -12.6453    2.9520 C   0  0  0  0  0  0  0  0  0  0  0  0
   19.4595  -11.7948    3.8750 C   0  0  0  0  0  0  0  0  0  0  0  0
   19.4035  -12.0359    5.2294 C   0  0  0  0  0  0  0  0  0  0  0  0
   18.7577  -13.1641    5.6944 C   0  0  0  0  0  0  0  0  0  0  0  0
   18.1797  -14.0284    4.7866 C   0  0  0  0  0  0  0  0  0  0  0  0
   17.0372  -17.6377    7.8486 C   0  0  0  0  0  0  0  0  0  0  0  0
   15.9050  -17.6744    8.3837 O   0  0  0  0  0  0  0  0  0  0  0  0
   18.7569  -20.5955    9.9146 O   0  0  0  0  0  0  0  0  0  0  0  0
   19.1608  -19.3106   10.3222 C   0  0  0  0  0  0  0  0  0  0  0  0
   18.0240  -18.3320   10.0732 C   0  0  2  0  0  0  0  0  0  0  0  0
   18.1466  -17.9720    8.6526 N   0  0  0  0  0  0  0  0  0  0  0  0
   18.2167  -17.1717   10.9433 C   0  0  0  0  0  0  0  0  0  0  0  0
   17.6595  -17.1476   12.1973 O   0  0  0  0  0  0  0  0  0  0  0  0
   18.8931  -16.1975   10.5415 O   0  0  0  0  0  0  0  0  0  0  0  0
  2  1  1  6
  3  4  1  0
  3  2  1  0
  5  6  1  0
  5  4  1  0
  7  6  1  0
  8  2  1  0
  8  9  2  0
 10  8  1  0
 11 10  1  0
 11 12  1  1
 13 12  1  0
 14 13  2  0
 15 14  1  0
 16 21  2  0
 16 15  1  0
 17 16  1  0
 18 17  2  0
 18 19  1  0
 19 20  2  0
 20 21  1  0
 21 13  1  0
 22 11  1  0
 23 22  2  0
 25 24  1  0
 26 25  1  1
 26 28  1  0
 26 27  1  0
 27 22  1  0
 28 29  1  0
 30 28  2  0
M  END
$$$$
