KWS.pdb
     RDKit          3D

 30 31  0  0  1  0  0  0  0  0999 V2000
   21.3643  -20.5266  -10.9992 N   0  0  0  0  0  0  0  0  0  0  0  0
   21.9307  -20.9873  -12.2334 C   0  0  1  0  0  0  0  0  0  0  0  0
   21.0595  -20.6054  -13.4156 C   0  0  0  0  0  0  0  0  0  0  0  0
   19.8467  -21.4977  -13.3500 C   0  0  0  0  0  0  0  0  0  0  0  0
   20.1619  -22.8917  -13.8038 C   0  0  0  0  0  0  0  0  0  0  0  0
   19.3921  -23.8813  -12.9930 C   0  0  0  0  0  0  0  0  0  0  0  0
   17.9759  -23.5871  -13.1879 N   0  0  0  0  0  0  0  0  0  0  0  0
   23.3198  -20.5161  -12.3609 C   0  0  0  0  0  0  0  0  0  0  0  0
   23.5433  -19.3125  -12.5685 O   0  0  0  0  0  0  0  0  0  0  0  0
   24.3801  -21.4564  -12.2438 N   0  0  0  0  0  0  0  0  0  0  0  0
   25.7630  -21.0743  -12.3461 C   0  0  1  0  0  0  0  0  0  0  0  0
   26.6572  -21.5033  -11.2582 C   0  0  0  0  0  0  0  0  0  0  0  0
   26.5250  -20.8285   -9.9642 C   0  0  0  0  0  0  0  0  0  0  0  0
   25.5206  -20.1550   -9.3369 C   0  0  0  0  0  0  0  0  0  0  0  0
   25.8810  -19.7118   -8.1178 N   0  0  0  0  0  0  0  0  0  0  0  0
   27.1612  -20.1069   -7.9401 C   0  0  0  0  0  0  0  0  0  0  0  0
   27.9866  -19.9032   -6.8564 C   0  0  0  0  0  0  0  0  0  0  0  0
   29.2638  -20.4173   -6.9289 C   0  0  0  0  0  0  0  0  0  0  0  0
   29.7162  -21.1090   -8.0300 C   0  0  0  0  0  0  0  0  0  0  0  0
   28.8735  -21.3022   -9.1065 C   0  0  0  0  0  0  0  0  0  0  0  0
   27.5907  -20.7956   -9.0538 C   0  0  0  0  0  0  0  0  0  0  0  0
   26.2865  -21.5533  -13.6678 C   0  0  0  0  0  0  0  0  0  0  0  0
   26.2531  -22.7779  -13.9300 O   0  0  0  0  0  0  0  0  0  0  0  0
   28.0923  -18.9204  -16.0262 O   0  0  0  0  0  0  0  0  0  0  0  0
   27.4617  -19.9177  -16.7930 C   0  0  0  0  0  0  0  0  0  0  0  0
   27.3158  -21.1735  -15.9483 C   0  0  2  0  0  0  0  0  0  0  0  0
   26.8220  -20.6934  -14.6490 N   0  0  0  0  0  0  0  0  0  0  0  0
   28.6314  -21.8023  -15.8276 C   0  0  0  0  0  0  0  0  0  0  0  0
   29.2082  -22.4128  -16.9129 O   0  0  0  0  0  0  0  0  0  0  0  0
   29.2327  -21.7823  -14.7294 O   0  0  0  0  0  0  0  0  0  0  0  0
  2  1  1  1
  3  4  1  0
  3  2  1  0
  5  6  1  0
  5  4  1  0
  7  6  1  0
  8  2  1  0
  8  9  2  0
 10  8  1  0
 11 10  1  0
 11 12  1  1
 13 12  1  0
 14 13  2  0
 15 14  1  0
 16 21  2  0
 16 15  1  0
 17 16  1  0
 18 17  2  0
 18 19  1  0
 19 20  2  0
 20 21  1  0
 21 13  1  0
 22 11  1  0
 23 22  2  0
 25 24  1  0
 26 25  1  6
 26 28  1  0
 26 27  1  0
 27 22  1  0
 28 29  1  0
 30 28  2  0
M  END
$$$$
