KWS.pdb
     RDKit          3D

 30 31  0  0  1  0  0  0  0  0999 V2000
   26.7601  -20.7089  -16.4375 N   0  0  0  0  0  0  0  0  0  0  0  0
   26.5470  -22.1082  -16.2069 C   0  0  1  0  0  0  0  0  0  0  0  0
   27.8627  -22.8446  -16.0356 C   0  0  0  0  0  0  0  0  0  0  0  0
   28.6633  -22.5712  -17.2829 C   0  0  0  0  0  0  0  0  0  0  0  0
   28.4147  -23.6087  -18.3367 C   0  0  0  0  0  0  0  0  0  0  0  0
   29.2314  -23.3123  -19.5509 C   0  0  0  0  0  0  0  0  0  0  0  0
   28.9005  -24.3248  -20.5486 N   0  0  0  0  0  0  0  0  0  0  0  0
   25.6235  -22.3009  -15.0765 C   0  0  0  0  0  0  0  0  0  0  0  0
   25.5198  -23.4218  -14.5526 O   0  0  0  0  0  0  0  0  0  0  0  0
   24.8657  -21.1921  -14.6088 N   0  0  0  0  0  0  0  0  0  0  0  0
   24.0053  -21.2775  -13.4594 C   0  0  1  0  0  0  0  0  0  0  0  0
   24.1854  -20.2582  -12.4125 C   0  0  0  0  0  0  0  0  0  0  0  0
   25.4413  -20.2742  -11.6579 C   0  0  0  0  0  0  0  0  0  0  0  0
   26.7579  -20.1724  -11.9930 C   0  0  0  0  0  0  0  0  0  0  0  0
   27.5684  -20.2324  -10.9197 N   0  0  0  0  0  0  0  0  0  0  0  0
   26.7584  -20.3781   -9.8476 C   0  0  0  0  0  0  0  0  0  0  0  0
   27.0964  -20.4868   -8.5168 C   0  0  0  0  0  0  0  0  0  0  0  0
   26.0656  -20.6269   -7.6120 C   0  0  0  0  0  0  0  0  0  0  0  0
   24.7453  -20.6593   -8.0013 C   0  0  0  0  0  0  0  0  0  0  0  0
   24.4271  -20.5492   -9.3403 C   0  0  0  0  0  0  0  0  0  0  0  0
   25.4445  -20.4080  -10.2623 C   0  0  0  0  0  0  0  0  0  0  0  0
   22.5831  -21.2859  -13.9365 C   0  0  0  0  0  0  0  0  0  0  0  0
   22.2465  -20.5164  -14.8662 O   0  0  0  0  0  0  0  0  0  0  0  0
   18.9183  -23.3689  -12.3267 O   0  0  0  0  0  0  0  0  0  0  0  0
   19.7063  -23.5599  -13.4770 C   0  0  0  0  0  0  0  0  0  0  0  0
   20.2279  -22.2119  -13.9491 C   0  0  2  0  0  0  0  0  0  0  0  0
   21.5863  -22.1224  -13.3928 N   0  0  0  0  0  0  0  0  0  0  0  0
   19.3547  -21.1674  -13.4135 C   0  0  0  0  0  0  0  0  0  0  0  0
   18.3235  -20.6721  -14.1717 O   0  0  0  0  0  0  0  0  0  0  0  0
   19.5495  -20.7245  -12.2585 O   0  0  0  0  0  0  0  0  0  0  0  0
  2  1  1  1
  3  4  1  0
  3  2  1  0
  5  6  1  0
  5  4  1  0
  7  6  1  0
  8  2  1  0
  8  9  2  0
 10  8  1  0
 11 10  1  0
 11 12  1  1
 13 12  1  0
 14 13  2  0
 15 14  1  0
 16 21  2  0
 16 15  1  0
 17 16  1  0
 18 17  2  0
 18 19  1  0
 19 20  2  0
 20 21  1  0
 21 13  1  0
 22 11  1  0
 23 22  2  0
 25 24  1  0
 26 25  1  1
 26 28  1  0
 26 27  1  0
 27 22  1  0
 28 29  1  0
 30 28  2  0
M  END
$$$$
