KWS.pdb
     RDKit          3D

 30 31  0  0  1  0  0  0  0  0999 V2000
   29.1523  -23.4317  -16.2432 N   0  0  0  0  0  0  0  0  0  0  0  0
   28.1151  -22.4440  -16.3131 C   0  0  1  0  0  0  0  0  0  0  0  0
   27.2496  -22.6405  -17.5439 C   0  0  0  0  0  0  0  0  0  0  0  0
   26.4422  -23.8887  -17.2956 C   0  0  0  0  0  0  0  0  0  0  0  0
   27.0882  -25.0949  -17.9090 C   0  0  0  0  0  0  0  0  0  0  0  0
   26.1714  -26.2697  -17.8180 C   0  0  0  0  0  0  0  0  0  0  0  0
   26.8399  -27.3881  -18.4755 N   0  0  0  0  0  0  0  0  0  0  0  0
   27.3441  -22.4288  -15.0588 C   0  0  0  0  0  0  0  0  0  0  0  0
   26.9753  -23.5005  -14.5518 O   0  0  0  0  0  0  0  0  0  0  0  0
   27.0365  -21.1791  -14.4539 N   0  0  0  0  0  0  0  0  0  0  0  0
   26.3643  -21.0820  -13.1861 C   0  0  1  0  0  0  0  0  0  0  0  0
   26.9072  -20.1193  -12.2137 C   0  0  0  0  0  0  0  0  0  0  0  0
   27.8766  -20.6169  -11.2340 C   0  0  0  0  0  0  0  0  0  0  0  0
   29.1015  -21.2072  -11.3178 C   0  0  0  0  0  0  0  0  0  0  0  0
   29.6243  -21.4821  -10.1081 N   0  0  0  0  0  0  0  0  0  0  0  0
   28.7142  -21.0591   -9.2029 C   0  0  0  0  0  0  0  0  0  0  0  0
   28.7731  -21.1117   -7.8278 C   0  0  0  0  0  0  0  0  0  0  0  0
   27.6985  -20.6041   -7.1289 C   0  0  0  0  0  0  0  0  0  0  0  0
   26.6013  -20.0622   -7.7599 C   0  0  0  0  0  0  0  0  0  0  0  0
   26.5612  -20.0190   -9.1392 C   0  0  0  0  0  0  0  0  0  0  0  0
   27.6270  -20.5219   -9.8577 C   0  0  0  0  0  0  0  0  0  0  0  0
   24.9140  -20.7980  -13.4436 C   0  0  0  0  0  0  0  0  0  0  0  0
   24.6031  -19.8639  -14.2185 O   0  0  0  0  0  0  0  0  0  0  0  0
   22.2483  -23.2463  -14.3856 O   0  0  0  0  0  0  0  0  0  0  0  0
   21.7832  -22.6045  -13.2227 C   0  0  0  0  0  0  0  0  0  0  0  0
   22.4442  -21.2396  -13.1126 C   0  0  2  0  0  0  0  0  0  0  0  0
   23.8625  -21.5319  -12.8565 N   0  0  0  0  0  0  0  0  0  0  0  0
   21.8306  -20.5199  -11.9963 C   0  0  0  0  0  0  0  0  0  0  0  0
   20.5150  -20.1347  -12.0615 O   0  0  0  0  0  0  0  0  0  0  0  0
   22.5092  -20.2554  -10.9777 O   0  0  0  0  0  0  0  0  0  0  0  0
  2  1  1  1
  3  4  1  0
  3  2  1  0
  5  6  1  0
  5  4  1  0
  7  6  1  0
  8  2  1  0
  8  9  2  0
 10  8  1  0
 11 10  1  0
 11 12  1  1
 13 12  1  0
 14 13  2  0
 15 14  1  0
 16 21  2  0
 16 15  1  0
 17 16  1  0
 18 17  2  0
 18 19  1  0
 19 20  2  0
 20 21  1  0
 21 13  1  0
 22 11  1  0
 23 22  2  0
 25 24  1  0
 26 25  1  1
 26 28  1  0
 26 27  1  0
 27 22  1  0
 28 29  1  0
 30 28  2  0
M  END
$$$$
