KWS.pdb
     RDKit          3D

 30 31  0  0  1  0  0  0  0  0999 V2000
   27.6416  -20.1368  -15.0921 N   0  0  0  0  0  0  0  0  0  0  0  0
   27.2217  -21.5048  -15.1852 C   0  0  1  0  0  0  0  0  0  0  0  0
   28.4121  -22.4405  -15.2849 C   0  0  0  0  0  0  0  0  0  0  0  0
   28.7543  -22.5312  -16.7499 C   0  0  0  0  0  0  0  0  0  0  0  0
   29.9189  -21.6538  -17.1000 C   0  0  0  0  0  0  0  0  0  0  0  0
   30.1406  -21.6607  -18.5764 C   0  0  0  0  0  0  0  0  0  0  0  0
   31.1736  -20.6694  -18.8601 N   0  0  0  0  0  0  0  0  0  0  0  0
   26.3171  -21.8344  -14.0713 C   0  0  0  0  0  0  0  0  0  0  0  0
   25.9349  -23.0056  -13.9167 O   0  0  0  0  0  0  0  0  0  0  0  0
   25.8982  -20.7970  -13.1935 N   0  0  0  0  0  0  0  0  0  0  0  0
   25.0468  -21.0438  -12.0608 C   0  0  1  0  0  0  0  0  0  0  0  0
   25.4645  -20.4668  -10.7724 C   0  0  0  0  0  0  0  0  0  0  0  0
   26.7849  -20.8391  -10.2575 C   0  0  0  0  0  0  0  0  0  0  0  0
   27.8451  -21.5316  -10.7599 C   0  0  0  0  0  0  0  0  0  0  0  0
   28.8705  -21.6051   -9.8907 N   0  0  0  0  0  0  0  0  0  0  0  0
   28.4705  -20.9403   -8.7841 C   0  0  0  0  0  0  0  0  0  0  0  0
   29.1558  -20.7265   -7.6086 C   0  0  0  0  0  0  0  0  0  0  0  0
   28.5133  -20.0063   -6.6241 C   0  0  0  0  0  0  0  0  0  0  0  0
   27.2389  -19.5117   -6.7884 C   0  0  0  0  0  0  0  0  0  0  0  0
   26.5685  -19.7370   -7.9741 C   0  0  0  0  0  0  0  0  0  0  0  0
   27.1941  -20.4559   -8.9726 C   0  0  0  0  0  0  0  0  0  0  0  0
   23.6597  -20.5899  -12.4076 C   0  0  0  0  0  0  0  0  0  0  0  0
   23.4610  -19.3813  -12.6715 O   0  0  0  0  0  0  0  0  0  0  0  0
   21.0910  -23.2752  -13.5054 O   0  0  0  0  0  0  0  0  0  0  0  0
   20.7219  -21.9682  -13.8739 C   0  0  0  0  0  0  0  0  0  0  0  0
   21.1935  -20.9995  -12.8009 C   0  0  2  0  0  0  0  0  0  0  0  0
   22.5481  -21.4564  -12.4558 N   0  0  0  0  0  0  0  0  0  0  0  0
   20.2830  -21.0977  -11.6599 C   0  0  0  0  0  0  0  0  0  0  0  0
   18.9732  -20.7075  -11.7849 O   0  0  0  0  0  0  0  0  0  0  0  0
   20.7013  -21.5400  -10.5657 O   0  0  0  0  0  0  0  0  0  0  0  0
  2  1  1  1
  3  4  1  0
  3  2  1  0
  5  6  1  0
  5  4  1  0
  7  6  1  0
  8  2  1  0
  8  9  2  0
 10  8  1  0
 11 10  1  0
 11 12  1  1
 13 12  1  0
 14 13  2  0
 15 14  1  0
 16 21  2  0
 16 15  1  0
 17 16  1  0
 18 17  2  0
 18 19  1  0
 19 20  2  0
 20 21  1  0
 21 13  1  0
 22 11  1  0
 23 22  2  0
 25 24  1  0
 26 25  1  6
 26 28  1  0
 26 27  1  0
 27 22  1  0
 28 29  1  0
 30 28  2  0
M  END
$$$$
