KWS.pdb
     RDKit          3D

 30 31  0  0  1  0  0  0  0  0999 V2000
   28.3359  -20.9504  -15.7460 N   0  0  0  0  0  0  0  0  0  0  0  0
   27.7957  -20.0397  -14.7790 C   0  0  1  0  0  0  0  0  0  0  0  0
   27.2803  -18.7754  -15.4411 C   0  0  0  0  0  0  0  0  0  0  0  0
   28.4431  -18.1968  -16.2057 C   0  0  0  0  0  0  0  0  0  0  0  0
   28.7315  -18.9829  -17.4496 C   0  0  0  0  0  0  0  0  0  0  0  0
   29.7305  -18.2611  -18.2923 C   0  0  0  0  0  0  0  0  0  0  0  0
   30.1028  -19.1591  -19.3810 N   0  0  0  0  0  0  0  0  0  0  0  0
   26.7809  -20.7178  -13.9555 C   0  0  0  0  0  0  0  0  0  0  0  0
   26.1210  -21.6515  -14.4396 O   0  0  0  0  0  0  0  0  0  0  0  0
   26.5777  -20.2840  -12.6165 N   0  0  0  0  0  0  0  0  0  0  0  0
   25.6497  -20.9326  -11.7295 C   0  0  1  0  0  0  0  0  0  0  0  0
   25.8617  -20.7429  -10.2851 C   0  0  0  0  0  0  0  0  0  0  0  0
   27.1988  -21.0187   -9.7528 C   0  0  0  0  0  0  0  0  0  0  0  0
   28.3109  -21.6376  -10.2388 C   0  0  0  0  0  0  0  0  0  0  0  0
   29.3286  -21.6341   -9.3574 N   0  0  0  0  0  0  0  0  0  0  0  0
   28.8698  -20.9932   -8.2596 C   0  0  0  0  0  0  0  0  0  0  0  0
   29.5244  -20.7255   -7.0777 C   0  0  0  0  0  0  0  0  0  0  0  0
   28.8212  -20.0470   -6.1050 C   0  0  0  0  0  0  0  0  0  0  0  0
   27.5173  -19.6441   -6.2869 C   0  0  0  0  0  0  0  0  0  0  0  0
   26.8784  -19.9224   -7.4788 C   0  0  0  0  0  0  0  0  0  0  0  0
   27.5648  -20.6008   -8.4656 C   0  0  0  0  0  0  0  0  0  0  0  0
   24.2616  -20.5098  -12.1103 C   0  0  0  0  0  0  0  0  0  0  0  0
   24.0725  -19.3458  -12.5333 O   0  0  0  0  0  0  0  0  0  0  0  0
   22.0649  -22.8362  -13.8514 O   0  0  0  0  0  0  0  0  0  0  0  0
   21.6225  -21.5003  -13.8333 C   0  0  0  0  0  0  0  0  0  0  0  0
   21.7886  -20.9428  -12.4285 C   0  0  2  0  0  0  0  0  0  0  0  0
   23.1388  -21.3584  -12.0199 N   0  0  0  0  0  0  0  0  0  0  0  0
   20.7592  -21.5349  -11.5738 C   0  0  0  0  0  0  0  0  0  0  0  0
   19.4323  -21.2735  -11.8073 O   0  0  0  0  0  0  0  0  0  0  0  0
   21.0912  -22.2831  -10.6262 O   0  0  0  0  0  0  0  0  0  0  0  0
  2  1  1  6
  3  4  1  0
  3  2  1  0
  5  6  1  0
  5  4  1  0
  7  6  1  0
  8  2  1  0
  8  9  2  0
 10  8  1  0
 11 10  1  0
 11 12  1  1
 13 12  1  0
 14 13  2  0
 15 14  1  0
 16 21  2  0
 16 15  1  0
 17 16  1  0
 18 17  2  0
 18 19  1  0
 19 20  2  0
 20 21  1  0
 21 13  1  0
 22 11  1  0
 23 22  2  0
 25 24  1  0
 26 25  1  6
 26 28  1  0
 26 27  1  0
 27 22  1  0
 28 29  1  0
 30 28  2  0
M  END
$$$$
