KWS.pdb
     RDKit          3D

 30 31  0  0  1  0  0  0  0  0999 V2000
   29.1251  -20.5177  -16.6908 N   0  0  0  0  0  0  0  0  0  0  0  0
   28.0111  -21.3787  -16.9629 C   0  0  1  0  0  0  0  0  0  0  0  0
   28.4510  -22.6339  -17.6934 C   0  0  0  0  0  0  0  0  0  0  0  0
   28.5324  -22.2649  -19.1524 C   0  0  0  0  0  0  0  0  0  0  0  0
   28.9864  -20.8480  -19.3388 C   0  0  0  0  0  0  0  0  0  0  0  0
   29.0480  -20.5163  -20.7932 C   0  0  0  0  0  0  0  0  0  0  0  0
   27.6926  -20.1753  -21.2136 N   0  0  0  0  0  0  0  0  0  0  0  0
   27.2722  -21.6598  -15.7208 C   0  0  0  0  0  0  0  0  0  0  0  0
   26.4946  -22.6266  -15.6744 O   0  0  0  0  0  0  0  0  0  0  0  0
   27.4664  -20.8112  -14.5963 N   0  0  0  0  0  0  0  0  0  0  0  0
   26.8209  -21.0474  -13.3329 C   0  0  1  0  0  0  0  0  0  0  0  0
   27.3754  -20.3535  -12.1589 C   0  0  0  0  0  0  0  0  0  0  0  0
   26.6513  -20.4787  -10.8911 C   0  0  0  0  0  0  0  0  0  0  0  0
   25.3360  -20.5675  -10.5476 C   0  0  0  0  0  0  0  0  0  0  0  0
   25.1578  -20.6822   -9.2181 N   0  0  0  0  0  0  0  0  0  0  0  0
   26.3944  -20.6683   -8.6729 C   0  0  0  0  0  0  0  0  0  0  0  0
   26.7560  -20.7587   -7.3469 C   0  0  0  0  0  0  0  0  0  0  0  0
   28.1028  -20.7206   -7.0547 C   0  0  0  0  0  0  0  0  0  0  0  0
   29.0639  -20.5977   -8.0330 C   0  0  0  0  0  0  0  0  0  0  0  0
   28.6810  -20.5080   -9.3565 C   0  0  0  0  0  0  0  0  0  0  0  0
   27.3374  -20.5444   -9.6702 C   0  0  0  0  0  0  0  0  0  0  0  0
   25.3627  -20.7289  -13.4833 C   0  0  0  0  0  0  0  0  0  0  0  0
   25.0115  -19.5369  -13.6429 O   0  0  0  0  0  0  0  0  0  0  0  0
   22.9512  -23.7826  -13.6594 O   0  0  0  0  0  0  0  0  0  0  0  0
   22.3644  -22.6810  -14.3096 C   0  0  0  0  0  0  0  0  0  0  0  0
   22.9341  -21.3990  -13.7233 C   0  0  2  0  0  0  0  0  0  0  0  0
   24.3471  -21.7070  -13.4562 N   0  0  0  0  0  0  0  0  0  0  0  0
   22.2057  -21.0928  -12.4919 C   0  0  0  0  0  0  0  0  0  0  0  0
   20.8770  -20.7529  -12.5409 O   0  0  0  0  0  0  0  0  0  0  0  0
   22.7977  -21.1417  -11.3896 O   0  0  0  0  0  0  0  0  0  0  0  0
  2  1  1  1
  3  4  1  0
  3  2  1  0
  5  6  1  0
  5  4  1  0
  7  6  1  0
  8  2  1  0
  8  9  2  0
 10  8  1  0
 11 10  1  0
 11 12  1  1
 13 12  1  0
 14 13  2  0
 15 14  1  0
 16 21  2  0
 16 15  1  0
 17 16  1  0
 18 17  2  0
 18 19  1  0
 19 20  2  0
 20 21  1  0
 21 13  1  0
 22 11  1  0
 23 22  2  0
 25 24  1  0
 26 25  1  1
 26 28  1  0
 26 27  1  0
 27 22  1  0
 28 29  1  0
 30 28  2  0
M  END
$$$$
