KWS.pdb
     RDKit          3D

 30 31  0  0  1  0  0  0  0  0999 V2000
   28.0250  -21.5787  -15.4238 N   0  0  0  0  0  0  0  0  0  0  0  0
   27.7645  -20.5175  -14.4950 C   0  0  1  0  0  0  0  0  0  0  0  0
   26.9302  -19.4213  -15.1313 C   0  0  0  0  0  0  0  0  0  0  0  0
   27.7834  -18.8209  -16.2190 C   0  0  0  0  0  0  0  0  0  0  0  0
   28.3635  -17.5028  -15.8011 C   0  0  0  0  0  0  0  0  0  0  0  0
   28.8813  -16.7691  -16.9938 C   0  0  0  0  0  0  0  0  0  0  0  0
   30.1965  -17.3227  -17.3007 N   0  0  0  0  0  0  0  0  0  0  0  0
   27.1685  -21.0579  -13.2620 C   0  0  0  0  0  0  0  0  0  0  0  0
   26.2474  -21.8870  -13.3374 O   0  0  0  0  0  0  0  0  0  0  0  0
   27.6637  -20.6138  -12.0050 N   0  0  0  0  0  0  0  0  0  0  0  0
   26.9259  -20.7858  -10.7824 C   0  0  1  0  0  0  0  0  0  0  0  0
   27.5099  -20.2055   -9.5620 C   0  0  0  0  0  0  0  0  0  0  0  0
   26.7864  -20.4019   -8.3030 C   0  0  0  0  0  0  0  0  0  0  0  0
   25.5393  -20.8431   -7.9773 C   0  0  0  0  0  0  0  0  0  0  0  0
   25.3299  -20.8589   -6.6475 N   0  0  0  0  0  0  0  0  0  0  0  0
   26.4749  -20.4145   -6.0837 C   0  0  0  0  0  0  0  0  0  0  0  0
   26.7732  -20.2456   -4.7497 C   0  0  0  0  0  0  0  0  0  0  0  0
   28.0302  -19.7729   -4.4377 C   0  0  0  0  0  0  0  0  0  0  0  0
   28.9644  -19.4756   -5.4045 C   0  0  0  0  0  0  0  0  0  0  0  0
   28.6459  -19.6513   -6.7363 C   0  0  0  0  0  0  0  0  0  0  0  0
   27.3926  -20.1237   -7.0698 C   0  0  0  0  0  0  0  0  0  0  0  0
   25.5368  -20.2603  -10.9938 C   0  0  0  0  0  0  0  0  0  0  0  0
   25.3754  -19.0416  -11.2353 O   0  0  0  0  0  0  0  0  0  0  0  0
   21.2193  -21.1429  -12.6943 O   0  0  0  0  0  0  0  0  0  0  0  0
   22.5361  -21.5040  -12.3535 C   0  0  0  0  0  0  0  0  0  0  0  0
   23.0398  -20.5692  -11.2651 C   0  0  2  0  0  0  0  0  0  0  0  0
   24.3831  -21.0694  -10.9366 N   0  0  0  0  0  0  0  0  0  0  0  0
   22.1330  -20.6644  -10.1209 C   0  0  0  0  0  0  0  0  0  0  0  0
   20.8623  -20.1522  -10.2011 O   0  0  0  0  0  0  0  0  0  0  0  0
   22.5186  -21.2160   -9.0649 O   0  0  0  0  0  0  0  0  0  0  0  0
  2  1  1  6
  3  4  1  0
  3  2  1  0
  5  6  1  0
  5  4  1  0
  7  6  1  0
  8  2  1  0
  8  9  2  0
 10  8  1  0
 11 10  1  0
 11 12  1  1
 13 12  1  0
 14 13  2  0
 15 14  1  0
 16 21  2  0
 16 15  1  0
 17 16  1  0
 18 17  2  0
 18 19  1  0
 19 20  2  0
 20 21  1  0
 21 13  1  0
 22 11  1  0
 23 22  2  0
 25 24  1  0
 26 25  1  6
 26 28  1  0
 26 27  1  0
 27 22  1  0
 28 29  1  0
 30 28  2  0
M  END
$$$$
