KWS.pdb
     RDKit          3D

 30 31  0  0  1  0  0  0  0  0999 V2000
   28.8927  -21.3845  -14.1365 N   0  0  0  0  0  0  0  0  0  0  0  0
   27.6210  -20.8436  -14.5195 C   0  0  1  0  0  0  0  0  0  0  0  0
   27.2741  -21.2123  -15.9500 C   0  0  0  0  0  0  0  0  0  0  0  0
   28.2117  -20.4229  -16.8270 C   0  0  0  0  0  0  0  0  0  0  0  0
   27.8987  -20.6130  -18.2811 C   0  0  0  0  0  0  0  0  0  0  0  0
   28.7797  -19.7413  -19.1136 C   0  0  0  0  0  0  0  0  0  0  0  0
   29.8999  -20.5638  -19.5594 N   0  0  0  0  0  0  0  0  0  0  0  0
   26.5871  -21.2442  -13.5507 C   0  0  0  0  0  0  0  0  0  0  0  0
   25.8166  -22.1781  -13.8259 O   0  0  0  0  0  0  0  0  0  0  0  0
   26.4935  -20.5469  -12.3148 N   0  0  0  0  0  0  0  0  0  0  0  0
   25.5401  -20.9049  -11.2991 C   0  0  1  0  0  0  0  0  0  0  0  0
   25.8560  -20.5093   -9.9167 C   0  0  0  0  0  0  0  0  0  0  0  0
   27.2183  -20.7527   -9.4350 C   0  0  0  0  0  0  0  0  0  0  0  0
   28.2961  -21.4297   -9.9208 C   0  0  0  0  0  0  0  0  0  0  0  0
   29.3614  -21.3581   -9.1007 N   0  0  0  0  0  0  0  0  0  0  0  0
   28.9702  -20.6111   -8.0445 C   0  0  0  0  0  0  0  0  0  0  0  0
   29.6921  -20.2433   -6.9307 C   0  0  0  0  0  0  0  0  0  0  0  0
   29.0503  -19.4672   -5.9890 C   0  0  0  0  0  0  0  0  0  0  0  0
   27.7418  -19.0650   -6.1363 C   0  0  0  0  0  0  0  0  0  0  0  0
   27.0349  -19.4445   -7.2600 C   0  0  0  0  0  0  0  0  0  0  0  0
   27.6593  -20.2216   -8.2147 C   0  0  0  0  0  0  0  0  0  0  0  0
   24.1999  -20.3635  -11.7006 C   0  0  0  0  0  0  0  0  0  0  0  0
   23.9451  -19.1535  -11.4995 O   0  0  0  0  0  0  0  0  0  0  0  0
   22.1618  -22.1849  -14.4155 O   0  0  0  0  0  0  0  0  0  0  0  0
   21.7171  -20.8799  -14.1334 C   0  0  0  0  0  0  0  0  0  0  0  0
   21.8650  -20.6179  -12.6429 C   0  0  2  0  0  0  0  0  0  0  0  0
   23.1935  -21.1479  -12.3014 N   0  0  0  0  0  0  0  0  0  0  0  0
   20.8002  -21.3356  -11.9416 C   0  0  0  0  0  0  0  0  0  0  0  0
   19.4906  -20.9573  -12.1002 O   0  0  0  0  0  0  0  0  0  0  0  0
   21.0861  -22.2990  -11.1944 O   0  0  0  0  0  0  0  0  0  0  0  0
  2  1  1  1
  3  4  1  0
  3  2  1  0
  5  6  1  0
  5  4  1  0
  7  6  1  0
  8  2  1  0
  8  9  2  0
 10  8  1  0
 11 10  1  0
 11 12  1  1
 13 12  1  0
 14 13  2  0
 15 14  1  0
 16 21  2  0
 16 15  1  0
 17 16  1  0
 18 17  2  0
 18 19  1  0
 19 20  2  0
 20 21  1  0
 21 13  1  0
 22 11  1  0
 23 22  2  0
 25 24  1  0
 26 25  1  6
 26 28  1  0
 26 27  1  0
 27 22  1  0
 28 29  1  0
 30 28  2  0
M  END
$$$$
