KWS.pdb
     RDKit          3D

 30 31  0  0  1  0  0  0  0  0999 V2000
   20.1561  -11.6985  -18.2559 N   0  0  0  0  0  0  0  0  0  0  0  0
   19.8520  -11.4625  -16.8745 C   0  0  1  0  0  0  0  0  0  0  0  0
   19.5860  -12.7630  -16.1393 C   0  0  0  0  0  0  0  0  0  0  0  0
   18.2309  -13.2365  -16.5987 C   0  0  0  0  0  0  0  0  0  0  0  0
   17.7501  -14.4031  -15.7885 C   0  0  0  0  0  0  0  0  0  0  0  0
   16.3748  -14.7940  -16.2185 C   0  0  0  0  0  0  0  0  0  0  0  0
   15.9535  -15.8964  -15.3597 N   0  0  0  0  0  0  0  0  0  0  0  0
   20.9123  -10.6518  -16.2532 C   0  0  0  0  0  0  0  0  0  0  0  0
   21.2097  -10.8383  -15.0622 O   0  0  0  0  0  0  0  0  0  0  0  0
   21.5747   -9.6665  -17.0361 N   0  0  0  0  0  0  0  0  0  0  0  0
   22.5830   -8.7987  -16.4894 C   0  0  1  0  0  0  0  0  0  0  0  0
   23.8227   -8.6410  -17.2675 C   0  0  0  0  0  0  0  0  0  0  0  0
   24.6022   -9.8480  -17.5552 C   0  0  0  0  0  0  0  0  0  0  0  0
   24.6342  -10.7415  -18.5832 C   0  0  0  0  0  0  0  0  0  0  0  0
   25.5534  -11.7074  -18.3974 N   0  0  0  0  0  0  0  0  0  0  0  0
   26.1424  -11.4392  -17.2110 C   0  0  0  0  0  0  0  0  0  0  0  0
   27.1473  -12.1285  -16.5690 C   0  0  0  0  0  0  0  0  0  0  0  0
   27.5747  -11.6372  -15.3537 C   0  0  0  0  0  0  0  0  0  0  0  0
   27.0328  -10.5054  -14.7870 C   0  0  0  0  0  0  0  0  0  0  0  0
   26.0259   -9.8288  -15.4462 C   0  0  0  0  0  0  0  0  0  0  0  0
   25.5838  -10.3042  -16.6642 C   0  0  0  0  0  0  0  0  0  0  0  0
   21.9596   -7.4593  -16.2292 C   0  0  0  0  0  0  0  0  0  0  0  0
   21.4681   -6.8183  -17.1869 O   0  0  0  0  0  0  0  0  0  0  0  0
   21.2207   -6.2569  -12.4699 O   0  0  0  0  0  0  0  0  0  0  0  0
   20.5048   -5.6148  -13.4973 C   0  0  0  0  0  0  0  0  0  0  0  0
   21.3942   -5.5037  -14.7256 C   0  0  2  0  0  0  0  0  0  0  0  0
   21.8920   -6.8691  -14.9500 N   0  0  0  0  0  0  0  0  0  0  0  0
   22.4830   -4.5745  -14.4228 C   0  0  0  0  0  0  0  0  0  0  0  0
   22.2177   -3.2458  -14.2050 O   0  0  0  0  0  0  0  0  0  0  0  0
   23.6611   -4.9944  -14.3618 O   0  0  0  0  0  0  0  0  0  0  0  0
  2  1  1  6
  3  4  1  0
  3  2  1  0
  5  6  1  0
  5  4  1  0
  7  6  1  0
  8  2  1  0
  8  9  2  0
 10  8  1  0
 11 10  1  0
 11 12  1  6
 13 12  1  0
 14 13  2  0
 15 14  1  0
 16 21  2  0
 16 15  1  0
 17 16  1  0
 18 17  2  0
 18 19  1  0
 19 20  2  0
 20 21  1  0
 21 13  1  0
 22 11  1  0
 23 22  2  0
 25 24  1  0
 26 25  1  1
 26 28  1  0
 26 27  1  0
 27 22  1  0
 28 29  1  0
 30 28  2  0
M  END
$$$$
