KWS.pdb
     RDKit          3D

 30 31  0  0  1  0  0  0  0  0999 V2000
   19.3755  -15.9440  -17.7044 N   0  0  0  0  0  0  0  0  0  0  0  0
   19.2458  -14.5365  -17.9463 C   0  0  1  0  0  0  0  0  0  0  0  0
   17.8462  -14.0486  -17.6212 C   0  0  0  0  0  0  0  0  0  0  0  0
   17.0126  -14.3137  -18.8485 C   0  0  0  0  0  0  0  0  0  0  0  0
   17.1601  -13.2192  -19.8628 C   0  0  0  0  0  0  0  0  0  0  0  0
   16.2327  -13.4539  -21.0091 C   0  0  0  0  0  0  0  0  0  0  0  0
   16.4107  -12.3438  -21.9397 N   0  0  0  0  0  0  0  0  0  0  0  0
   20.2982  -13.7994  -17.2275 C   0  0  0  0  0  0  0  0  0  0  0  0
   20.4179  -13.9410  -15.9998 O   0  0  0  0  0  0  0  0  0  0  0  0
   21.1580  -12.9356  -17.9603 N   0  0  0  0  0  0  0  0  0  0  0  0
   22.1607  -12.1251  -17.3228 C   0  0  1  0  0  0  0  0  0  0  0  0
   23.5359  -12.2363  -17.8363 C   0  0  0  0  0  0  0  0  0  0  0  0
   24.1364  -13.5720  -17.8860 C   0  0  0  0  0  0  0  0  0  0  0  0
   24.2879  -14.5152  -18.8573 C   0  0  0  0  0  0  0  0  0  0  0  0
   24.9344  -15.6102  -18.4152 N   0  0  0  0  0  0  0  0  0  0  0  0
   25.2156  -15.3780  -17.1139 C   0  0  0  0  0  0  0  0  0  0  0  0
   25.8680  -16.1892  -16.2120 C   0  0  0  0  0  0  0  0  0  0  0  0
   26.0282  -15.7086  -14.9297 C   0  0  0  0  0  0  0  0  0  0  0  0
   25.5629  -14.4711  -14.5453 C   0  0  0  0  0  0  0  0  0  0  0  0
   24.9110  -13.6729  -15.4641 C   0  0  0  0  0  0  0  0  0  0  0  0
   24.7404  -14.1356  -16.7533 C   0  0  0  0  0  0  0  0  0  0  0  0
   21.7055  -10.6963  -17.3629 C   0  0  0  0  0  0  0  0  0  0  0  0
   21.4157  -10.1787  -18.4665 O   0  0  0  0  0  0  0  0  0  0  0  0
   19.3000   -9.4139  -14.9060 O   0  0  0  0  0  0  0  0  0  0  0  0
   19.5481   -8.6814  -16.0817 C   0  0  0  0  0  0  0  0  0  0  0  0
   21.0498   -8.5174  -16.2552 C   0  0  2  0  0  0  0  0  0  0  0  0
   21.5816   -9.8878  -16.2140 N   0  0  0  0  0  0  0  0  0  0  0  0
   21.5555   -7.7080  -15.1463 C   0  0  0  0  0  0  0  0  0  0  0  0
   21.2704   -6.3670  -15.0828 O   0  0  0  0  0  0  0  0  0  0  0  0
   22.2506   -8.2419  -14.2519 O   0  0  0  0  0  0  0  0  0  0  0  0
  2  1  1  1
  3  4  1  0
  3  2  1  0
  5  6  1  0
  5  4  1  0
  7  6  1  0
  8  2  1  0
  8  9  2  0
 10  8  1  0
 11 10  1  0
 11 12  1  6
 13 12  1  0
 14 13  2  0
 15 14  1  0
 16 21  2  0
 16 15  1  0
 17 16  1  0
 18 17  2  0
 18 19  1  0
 19 20  2  0
 20 21  1  0
 21 13  1  0
 22 11  1  0
 23 22  2  0
 25 24  1  0
 26 25  1  1
 26 28  1  0
 26 27  1  0
 27 22  1  0
 28 29  1  0
 30 28  2  0
M  END
$$$$
