VGY.pdb
     RDKit          3D

 24 24  0  0  1  0  0  0  0  0999 V2000
    9.1801  -16.8497   17.6794 C   0  0  0  0  0  0  0  0  0  0  0  0
    8.9494  -16.8907   19.1653 C   0  0  2  0  0  0  0  0  0  0  0  0
    9.7418  -18.0275   19.7758 C   0  0  0  0  0  0  0  0  0  0  0  0
    7.4994  -17.0999   19.5170 C   0  0  2  0  0  0  0  0  0  0  0  0
    6.6686  -16.3038   18.6634 N   0  0  0  0  0  0  0  0  0  0  0  0
    7.2208  -16.9374   20.9454 C   0  0  0  0  0  0  0  0  0  0  0  0
    7.1027  -15.7843   21.4216 O   0  0  0  0  0  0  0  0  0  0  0  0
    7.0762  -18.0702   21.8316 N   0  0  0  0  0  0  0  0  0  0  0  0
    6.7051  -17.8862   23.2115 C   0  0  0  0  0  0  0  0  0  0  0  0
    7.7884  -17.4802   24.0870 C   0  0  0  0  0  0  0  0  0  0  0  0
    8.9935  -17.5072   23.6567 O   0  0  0  0  0  0  0  0  0  0  0  0
    6.3393  -10.8184   24.9682 O   0  0  0  0  0  0  0  0  0  0  0  0
    6.8298  -12.0117   25.5300 C   0  0  0  0  0  0  0  0  0  0  0  0
    8.0363  -12.5207   25.0971 C   0  0  0  0  0  0  0  0  0  0  0  0
    8.5239  -13.6904   25.6433 C   0  0  0  0  0  0  0  0  0  0  0  0
    7.8350  -14.3748   26.6200 C   0  0  0  0  0  0  0  0  0  0  0  0
    8.3126  -15.6337   27.2312 C   0  0  0  0  0  0  0  0  0  0  0  0
    8.7867  -16.6539   26.2351 C   0  0  2  0  0  0  0  0  0  0  0  0
    7.6427  -17.0394   25.4228 N   0  0  0  0  0  0  0  0  0  0  0  0
    9.4672  -17.8146   26.8200 C   0  0  0  0  0  0  0  0  0  0  0  0
    8.8917  -19.0997   26.8076 O   0  0  0  0  0  0  0  0  0  0  0  0
    6.6334  -13.8542   27.0407 C   0  0  0  0  0  0  0  0  0  0  0  0
    6.1333  -12.6763   26.4969 C   0  0  0  0  0  0  0  0  0  0  0  0
   10.5961  -17.7369   27.3640 O   0  0  0  0  0  0  0  0  0  0  0  0
  2  1  1  6
  2  4  1  0
  2  3  1  0
  4  5  1  6
  6  4  1  0
  7  6  2  0
  8  6  1  0
  9 10  1  0
  9  8  1  0
 10 19  1  0
 11 10  2  0
 13 12  1  0
 13 14  2  0
 15 14  1  0
 16 15  2  0
 17 16  1  0
 18 17  1  1
 18 20  1  0
 19 18  1  0
 20 24  2  0
 20 21  1  0
 22 23  2  0
 22 16  1  0
 23 13  1  0
M  END
$$$$
