VGY.pdb
     RDKit          3D

 24 24  0  0  1  0  0  0  0  0999 V2000
    5.6317  -15.7697   21.5648 C   0  0  0  0  0  0  0  0  0  0  0  0
    6.0188  -16.4016   20.2556 C   0  0  2  0  0  0  0  0  0  0  0  0
    4.8617  -17.2171   19.7183 C   0  0  0  0  0  0  0  0  0  0  0  0
    7.2060  -17.3196   20.3884 C   0  0  2  0  0  0  0  0  0  0  0  0
    6.8669  -18.4430   21.2104 N   0  0  0  0  0  0  0  0  0  0  0  0
    8.4305  -16.6273   20.7954 C   0  0  0  0  0  0  0  0  0  0  0  0
    9.1421  -16.0736   19.9250 O   0  0  0  0  0  0  0  0  0  0  0  0
    8.8498  -16.5602   22.1771 N   0  0  0  0  0  0  0  0  0  0  0  0
   10.0023  -15.7865   22.5630 C   0  0  0  0  0  0  0  0  0  0  0  0
   10.2954  -15.7933   23.9838 C   0  0  0  0  0  0  0  0  0  0  0  0
   11.3177  -15.1600   24.4220 O   0  0  0  0  0  0  0  0  0  0  0  0
    5.8158  -11.5042   25.6115 O   0  0  0  0  0  0  0  0  0  0  0  0
    6.5191  -12.6594   26.0003 C   0  0  0  0  0  0  0  0  0  0  0  0
    7.6843  -12.5328   26.7273 C   0  0  0  0  0  0  0  0  0  0  0  0
    8.3795  -13.6609   27.1123 C   0  0  0  0  0  0  0  0  0  0  0  0
    7.9412  -14.9260   26.7895 C   0  0  0  0  0  0  0  0  0  0  0  0
    8.6534  -16.1637   27.1736 C   0  0  0  0  0  0  0  0  0  0  0  0
    9.9052  -16.4176   26.3821 C   0  0  2  0  0  0  0  0  0  0  0  0
    9.5353  -16.4559   24.9754 N   0  0  0  0  0  0  0  0  0  0  0  0
   10.6593  -17.6084   26.7893 C   0  0  0  0  0  0  0  0  0  0  0  0
   10.9440  -18.6534   25.8895 O   0  0  0  0  0  0  0  0  0  0  0  0
    6.7776  -15.0352   26.0641 C   0  0  0  0  0  0  0  0  0  0  0  0
    6.0695  -13.9048   25.6713 C   0  0  0  0  0  0  0  0  0  0  0  0
   11.0950  -17.7702   27.9556 O   0  0  0  0  0  0  0  0  0  0  0  0
  2  1  1  1
  2  4  1  0
  2  3  1  0
  4  5  1  1
  6  4  1  0
  7  6  2  0
  8  6  1  0
  9 10  1  0
  9  8  1  0
 10 19  1  0
 11 10  2  0
 13 12  1  0
 13 14  2  0
 15 14  1  0
 16 15  2  0
 17 16  1  0
 18 17  1  1
 18 20  1  0
 19 18  1  0
 20 24  2  0
 20 21  1  0
 22 23  2  0
 22 16  1  0
 23 13  1  0
M  END
$$$$
