VGY.pdb
     RDKit          3D

 24 24  0  0  1  0  0  0  0  0999 V2000
    8.0126  -12.8020   21.1565 C   0  0  0  0  0  0  0  0  0  0  0  0
    8.0886  -13.6060   19.8874 C   0  0  2  0  0  0  0  0  0  0  0  0
    6.7870  -13.4826   19.1237 C   0  0  0  0  0  0  0  0  0  0  0  0
    8.3324  -15.0699   20.1473 C   0  0  2  0  0  0  0  0  0  0  0  0
    7.1899  -15.6506   20.7876 N   0  0  0  0  0  0  0  0  0  0  0  0
    9.6005  -15.3333   20.8305 C   0  0  0  0  0  0  0  0  0  0  0  0
   10.6789  -15.0822   20.2437 O   0  0  0  0  0  0  0  0  0  0  0  0
    9.6514  -15.8772   22.1688 N   0  0  0  0  0  0  0  0  0  0  0  0
   10.8910  -15.9223   22.9016 C   0  0  0  0  0  0  0  0  0  0  0  0
   10.7546  -16.2129   24.3165 C   0  0  0  0  0  0  0  0  0  0  0  0
   11.7851  -16.1665   25.0742 O   0  0  0  0  0  0  0  0  0  0  0  0
    6.5291  -11.0345   25.6344 O   0  0  0  0  0  0  0  0  0  0  0  0
    6.9143  -12.3539   25.9358 C   0  0  0  0  0  0  0  0  0  0  0  0
    8.0911  -12.5788   26.6191 C   0  0  0  0  0  0  0  0  0  0  0  0
    8.4755  -13.8699   26.9184 C   0  0  0  0  0  0  0  0  0  0  0  0
    7.7114  -14.9555   26.5516 C   0  0  0  0  0  0  0  0  0  0  0  0
    8.0834  -16.3565   26.8438 C   0  0  0  0  0  0  0  0  0  0  0  0
    9.4771  -16.7196   26.4152 C   0  0  2  0  0  0  0  0  0  0  0  0
    9.5491  -16.5565   24.9712 N   0  0  0  0  0  0  0  0  0  0  0  0
    9.9264  -18.0483   26.8457 C   0  0  0  0  0  0  0  0  0  0  0  0
   10.1412  -18.3586   28.2022 O   0  0  0  0  0  0  0  0  0  0  0  0
    6.5409  -14.7144   25.8707 C   0  0  0  0  0  0  0  0  0  0  0  0
    6.1444  -13.4174   25.5643 C   0  0  0  0  0  0  0  0  0  0  0  0
   10.1460  -18.9851   26.0391 O   0  0  0  0  0  0  0  0  0  0  0  0
  2  1  1  1
  2  4  1  0
  2  3  1  0
  4  5  1  1
  6  4  1  0
  7  6  2  0
  8  6  1  0
  9 10  1  0
  9  8  1  0
 10 19  1  0
 11 10  2  0
 13 12  1  0
 13 14  2  0
 15 14  1  0
 16 15  2  0
 17 16  1  0
 18 17  1  6
 18 20  1  0
 19 18  1  0
 20 24  2  0
 20 21  1  0
 22 23  2  0
 22 16  1  0
 23 13  1  0
M  END
$$$$
