VGY.pdb
     RDKit          3D

 24 24  0  0  1  0  0  0  0  0999 V2000
    5.4474  -16.1469   20.9409 C   0  0  0  0  0  0  0  0  0  0  0  0
    6.6567  -15.6240   21.6670 C   0  0  2  0  0  0  0  0  0  0  0  0
    6.6685  -14.1106   21.6192 C   0  0  0  0  0  0  0  0  0  0  0  0
    7.9471  -16.1134   21.0628 C   0  0  2  0  0  0  0  0  0  0  0  0
    7.9216  -17.5409   20.9435 N   0  0  0  0  0  0  0  0  0  0  0  0
    9.1372  -15.5895   21.7363 C   0  0  0  0  0  0  0  0  0  0  0  0
    9.3982  -14.3662   21.6604 O   0  0  0  0  0  0  0  0  0  0  0  0
   10.0279  -16.4416   22.4913 N   0  0  0  0  0  0  0  0  0  0  0  0
   11.1515  -15.8891   23.2041 C   0  0  0  0  0  0  0  0  0  0  0  0
   11.0677  -15.9890   24.6490 C   0  0  0  0  0  0  0  0  0  0  0  0
   12.0209  -15.5327   25.3711 O   0  0  0  0  0  0  0  0  0  0  0  0
    6.7549  -11.2634   26.0612 O   0  0  0  0  0  0  0  0  0  0  0  0
    7.2308  -12.5487   26.3802 C   0  0  0  0  0  0  0  0  0  0  0  0
    6.7266  -13.6449   25.7121 C   0  0  0  0  0  0  0  0  0  0  0  0
    7.1883  -14.9085   26.0192 C   0  0  0  0  0  0  0  0  0  0  0  0
    8.1493  -15.1127   26.9844 C   0  0  0  0  0  0  0  0  0  0  0  0
    8.6713  -16.4462   27.3529 C   0  0  0  0  0  0  0  0  0  0  0  0
   10.0448  -16.7334   26.8154 C   0  0  2  0  0  0  0  0  0  0  0  0
    9.9958  -16.5630   25.3713 N   0  0  0  0  0  0  0  0  0  0  0  0
   10.5959  -18.0373   27.2010 C   0  0  0  0  0  0  0  0  0  0  0  0
   11.0239  -18.9774   26.2442 O   0  0  0  0  0  0  0  0  0  0  0  0
    8.6418  -14.0093   27.6416 C   0  0  0  0  0  0  0  0  0  0  0  0
    8.1834  -12.7318   27.3397 C   0  0  0  0  0  0  0  0  0  0  0  0
   10.7199  -18.3948   28.3982 O   0  0  0  0  0  0  0  0  0  0  0  0
  2  1  1  6
  2  4  1  0
  2  3  1  0
  4  5  1  1
  6  4  1  0
  7  6  2  0
  8  6  1  0
  9 10  1  0
  9  8  1  0
 10 19  1  0
 11 10  2  0
 13 12  1  0
 13 14  2  0
 15 14  1  0
 16 15  2  0
 17 16  1  0
 18 17  1  6
 18 20  1  0
 19 18  1  0
 20 24  2  0
 20 21  1  0
 22 23  2  0
 22 16  1  0
 23 13  1  0
M  END
$$$$
