VGY.pdb
     RDKit          3D

 24 24  0  0  1  0  0  0  0  0999 V2000
    6.5956  -13.7024   19.7368 C   0  0  0  0  0  0  0  0  0  0  0  0
    7.9357  -13.1393   20.1239 C   0  0  2  0  0  0  0  0  0  0  0  0
    8.1915  -11.8558   19.3624 C   0  0  0  0  0  0  0  0  0  0  0  0
    9.0672  -14.0869   19.8214 C   0  0  2  0  0  0  0  0  0  0  0  0
    9.2959  -14.1415   18.4081 N   0  0  0  0  0  0  0  0  0  0  0  0
    8.9091  -15.3982   20.4538 C   0  0  0  0  0  0  0  0  0  0  0  0
    9.2749  -16.4262   19.8376 O   0  0  0  0  0  0  0  0  0  0  0  0
    8.3412  -15.5484   21.7746 N   0  0  0  0  0  0  0  0  0  0  0  0
    8.5261  -16.7646   22.5245 C   0  0  0  0  0  0  0  0  0  0  0  0
    9.1799  -16.5975   23.8088 C   0  0  0  0  0  0  0  0  0  0  0  0
   10.4441  -16.4032   23.8547 O   0  0  0  0  0  0  0  0  0  0  0  0
    6.0457  -10.9499   25.8723 O   0  0  0  0  0  0  0  0  0  0  0  0
    6.6131  -12.1855   26.2350 C   0  0  0  0  0  0  0  0  0  0  0  0
    5.8799  -13.3427   26.0755 C   0  0  0  0  0  0  0  0  0  0  0  0
    6.4295  -14.5582   26.4288 C   0  0  0  0  0  0  0  0  0  0  0  0
    7.7038  -14.6539   26.9425 C   0  0  0  0  0  0  0  0  0  0  0  0
    8.3338  -15.9309   27.3409 C   0  0  0  0  0  0  0  0  0  0  0  0
    9.2754  -16.4931   26.3136 C   0  0  2  0  0  0  0  0  0  0  0  0
    8.5362  -16.6285   25.0677 N   0  0  0  0  0  0  0  0  0  0  0  0
    9.9366  -17.7432   26.7041 C   0  0  0  0  0  0  0  0  0  0  0  0
   10.9554  -17.7751   27.6754 O   0  0  0  0  0  0  0  0  0  0  0  0
    8.4219  -13.4907   27.0955 C   0  0  0  0  0  0  0  0  0  0  0  0
    7.8774  -12.2609   26.7425 C   0  0  0  0  0  0  0  0  0  0  0  0
    9.6387  -18.8546   26.2015 O   0  0  0  0  0  0  0  0  0  0  0  0
  2  1  1  6
  2  4  1  0
  2  3  1  0
  4  5  1  6
  6  4  1  0
  7  6  2  0
  8  6  1  0
  9 10  1  0
  9  8  1  0
 10 19  1  0
 11 10  2  0
 13 12  1  0
 13 14  2  0
 15 14  1  0
 16 15  2  0
 17 16  1  0
 18 17  1  1
 18 20  1  0
 19 18  1  0
 20 24  2  0
 20 21  1  0
 22 23  2  0
 22 16  1  0
 23 13  1  0
M  END
$$$$
