VGY.pdb
     RDKit          3D

 24 24  0  0  1  0  0  0  0  0999 V2000
    8.8066  -19.4812   20.1014 C   0  0  0  0  0  0  0  0  0  0  0  0
    7.6570  -18.9451   19.2927 C   0  0  2  0  0  0  0  0  0  0  0  0
    7.5476  -19.7079   17.9893 C   0  0  0  0  0  0  0  0  0  0  0  0
    7.8195  -17.4850   18.9590 C   0  0  2  0  0  0  0  0  0  0  0  0
    9.0090  -17.2890   18.1848 N   0  0  0  0  0  0  0  0  0  0  0  0
    7.7140  -16.6087   20.1275 C   0  0  0  0  0  0  0  0  0  0  0  0
    6.6432  -16.5774   20.7778 O   0  0  0  0  0  0  0  0  0  0  0  0
    8.8108  -15.7723   20.5597 N   0  0  0  0  0  0  0  0  0  0  0  0
    8.6558  -14.8644   21.6676 C   0  0  0  0  0  0  0  0  0  0  0  0
    8.9853  -15.4223   22.9658 C   0  0  0  0  0  0  0  0  0  0  0  0
    8.7614  -16.6610   23.1974 O   0  0  0  0  0  0  0  0  0  0  0  0
    5.9218  -10.3246   27.0022 O   0  0  0  0  0  0  0  0  0  0  0  0
    6.5033  -11.5784   26.7373 C   0  0  0  0  0  0  0  0  0  0  0  0
    5.8343  -12.4824   25.9389 C   0  0  0  0  0  0  0  0  0  0  0  0
    6.3981  -13.7139   25.6745 C   0  0  0  0  0  0  0  0  0  0  0  0
    7.6239  -14.0738   26.1893 C   0  0  0  0  0  0  0  0  0  0  0  0
    8.2661  -15.3821   25.9398 C   0  0  0  0  0  0  0  0  0  0  0  0
    9.6565  -15.2820   25.3789 C   0  0  2  0  0  0  0  0  0  0  0  0
    9.5523  -14.7074   24.0463 N   0  0  0  0  0  0  0  0  0  0  0  0
   10.4132  -16.5389   25.3826 C   0  0  0  0  0  0  0  0  0  0  0  0
   11.0613  -17.0216   24.2296 O   0  0  0  0  0  0  0  0  0  0  0  0
    8.2781  -13.1611   26.9836 C   0  0  0  0  0  0  0  0  0  0  0  0
    7.7188  -11.9176   27.2561 C   0  0  0  0  0  0  0  0  0  0  0  0
   10.5300  -17.2581   26.4052 O   0  0  0  0  0  0  0  0  0  0  0  0
  2  1  1  6
  2  4  1  0
  2  3  1  0
  4  5  1  1
  6  4  1  0
  7  6  2  0
  8  6  1  0
  9 10  1  0
  9  8  1  0
 10 19  1  0
 11 10  2  0
 13 12  1  0
 13 14  2  0
 15 14  1  0
 16 15  2  0
 17 16  1  0
 18 17  1  6
 18 20  1  0
 19 18  1  0
 20 24  2  0
 20 21  1  0
 22 23  2  0
 22 16  1  0
 23 13  1  0
M  END
$$$$
