VGY.pdb
     RDKit          3D

 24 24  0  0  1  0  0  0  0  0999 V2000
    8.1210  -12.5084   21.0974 C   0  0  0  0  0  0  0  0  0  0  0  0
    8.1319  -13.5107   19.9756 C   0  0  2  0  0  0  0  0  0  0  0  0
    7.1565  -13.0850   18.8986 C   0  0  0  0  0  0  0  0  0  0  0  0
    7.7382  -14.8910   20.4333 C   0  0  2  0  0  0  0  0  0  0  0  0
    6.3283  -14.9405   20.6834 N   0  0  0  0  0  0  0  0  0  0  0  0
    8.5604  -15.3916   21.5368 C   0  0  0  0  0  0  0  0  0  0  0  0
    8.4442  -14.8763   22.6731 O   0  0  0  0  0  0  0  0  0  0  0  0
    9.5086  -16.4681   21.3589 N   0  0  0  0  0  0  0  0  0  0  0  0
   10.4367  -16.8158   22.4046 C   0  0  0  0  0  0  0  0  0  0  0  0
   10.1015  -16.2962   23.7170 C   0  0  0  0  0  0  0  0  0  0  0  0
   10.6430  -15.2106   24.1250 O   0  0  0  0  0  0  0  0  0  0  0  0
    6.5305  -10.8144   26.2102 O   0  0  0  0  0  0  0  0  0  0  0  0
    6.8631  -12.1795   26.2873 C   0  0  0  0  0  0  0  0  0  0  0  0
    6.2509  -13.0769   25.4375 C   0  0  0  0  0  0  0  0  0  0  0  0
    6.5718  -14.4172   25.5069 C   0  0  0  0  0  0  0  0  0  0  0  0
    7.4963  -14.8938   26.4097 C   0  0  0  0  0  0  0  0  0  0  0  0
    7.8692  -16.3199   26.5263 C   0  0  0  0  0  0  0  0  0  0  0  0
    9.2640  -16.6259   26.0588 C   0  0  2  0  0  0  0  0  0  0  0  0
    9.2000  -16.8915   24.6297 N   0  0  0  0  0  0  0  0  0  0  0  0
    9.9363  -17.7036   26.7930 C   0  0  0  0  0  0  0  0  0  0  0  0
   10.4379  -17.5174   28.0954 O   0  0  0  0  0  0  0  0  0  0  0  0
    8.0978  -13.9861   27.2502 C   0  0  0  0  0  0  0  0  0  0  0  0
    7.7816  -12.6335   27.1883 C   0  0  0  0  0  0  0  0  0  0  0  0
   10.1056  -18.8506   26.3110 O   0  0  0  0  0  0  0  0  0  0  0  0
  2  1  1  1
  2  4  1  0
  2  3  1  0
  4  5  1  1
  6  4  1  0
  7  6  2  0
  8  6  1  0
  9 10  1  0
  9  8  1  0
 10 19  1  0
 11 10  2  0
 13 12  1  0
 13 14  2  0
 15 14  1  0
 16 15  2  0
 17 16  1  0
 18 17  1  1
 18 20  1  0
 19 18  1  0
 20 24  2  0
 20 21  1  0
 22 23  2  0
 22 16  1  0
 23 13  1  0
M  END
$$$$
