VGY.pdb
     RDKit          3D

 24 24  0  0  1  0  0  0  0  0999 V2000
    6.7044  -13.0859   20.9713 C   0  0  0  0  0  0  0  0  0  0  0  0
    8.0944  -13.5169   20.5901 C   0  0  2  0  0  0  0  0  0  0  0  0
    8.5413  -12.7688   19.3518 C   0  0  0  0  0  0  0  0  0  0  0  0
    8.1783  -14.9913   20.2921 C   0  0  2  0  0  0  0  0  0  0  0  0
    7.3972  -15.3018   19.1319 N   0  0  0  0  0  0  0  0  0  0  0  0
    7.8871  -15.8342   21.4536 C   0  0  0  0  0  0  0  0  0  0  0  0
    8.7714  -16.0081   22.3244 O   0  0  0  0  0  0  0  0  0  0  0  0
    6.6049  -16.4775   21.6316 N   0  0  0  0  0  0  0  0  0  0  0  0
    6.3330  -17.2724   22.8020 C   0  0  0  0  0  0  0  0  0  0  0  0
    6.6835  -16.6447   24.0622 C   0  0  0  0  0  0  0  0  0  0  0  0
    7.1466  -17.3594   25.0177 O   0  0  0  0  0  0  0  0  0  0  0  0
   10.9652  -14.8892   30.6919 O   0  0  0  0  0  0  0  0  0  0  0  0
   10.3733  -14.8734   29.4154 C   0  0  0  0  0  0  0  0  0  0  0  0
   10.5807  -15.9331   28.5573 C   0  0  0  0  0  0  0  0  0  0  0  0
   10.0037  -15.9249   27.3038 C   0  0  0  0  0  0  0  0  0  0  0  0
    9.2167  -14.8785   26.8766 C   0  0  0  0  0  0  0  0  0  0  0  0
    8.5821  -14.8209   25.5423 C   0  0  0  0  0  0  0  0  0  0  0  0
    7.0857  -14.6911   25.5837 C   0  0  2  0  0  0  0  0  0  0  0  0
    6.5607  -15.2666   24.3548 N   0  0  0  0  0  0  0  0  0  0  0  0
    6.5927  -13.3282   25.8119 C   0  0  0  0  0  0  0  0  0  0  0  0
    6.2553  -12.8637   27.0976 O   0  0  0  0  0  0  0  0  0  0  0  0
    9.0197  -13.8293   27.7441 C   0  0  0  0  0  0  0  0  0  0  0  0
    9.5966  -13.8278   29.0092 C   0  0  0  0  0  0  0  0  0  0  0  0
    6.4416  -12.4965   24.8836 O   0  0  0  0  0  0  0  0  0  0  0  0
  2  1  1  6
  2  4  1  0
  2  3  1  0
  4  5  1  6
  6  4  1  0
  7  6  2  0
  8  6  1  0
  9 10  1  0
  9  8  1  0
 10 19  1  0
 11 10  2  0
 13 12  1  0
 13 14  2  0
 15 14  1  0
 16 15  2  0
 17 16  1  0
 18 17  1  6
 18 20  1  0
 19 18  1  0
 20 24  2  0
 20 21  1  0
 22 23  2  0
 22 16  1  0
 23 13  1  0
M  END
$$$$
