VGY.pdb
     RDKit          3D

 24 24  0  0  1  0  0  0  0  0999 V2000
    7.4498  -21.6625   19.3953 C   0  0  0  0  0  0  0  0  0  0  0  0
    8.6064  -20.7015   19.4349 C   0  0  2  0  0  0  0  0  0  0  0  0
    9.9108  -21.4657   19.3488 C   0  0  0  0  0  0  0  0  0  0  0  0
    8.6339  -19.8858   20.7013 C   0  0  2  0  0  0  0  0  0  0  0  0
    7.3213  -19.3921   20.9944 N   0  0  0  0  0  0  0  0  0  0  0  0
    9.6757  -18.8568   20.7047 C   0  0  0  0  0  0  0  0  0  0  0  0
   10.8544  -19.1760   20.9862 O   0  0  0  0  0  0  0  0  0  0  0  0
    9.3889  -17.4749   20.3923 N   0  0  0  0  0  0  0  0  0  0  0  0
   10.4287  -16.4782   20.4270 C   0  0  0  0  0  0  0  0  0  0  0  0
   10.8122  -16.0409   21.7561 C   0  0  0  0  0  0  0  0  0  0  0  0
   11.8273  -15.2751   21.9018 O   0  0  0  0  0  0  0  0  0  0  0  0
   10.7042  -14.2770   30.4710 O   0  0  0  0  0  0  0  0  0  0  0  0
   10.3874  -14.6570   29.1537 C   0  0  0  0  0  0  0  0  0  0  0  0
   10.4739  -15.9846   28.7901 C   0  0  0  0  0  0  0  0  0  0  0  0
   10.1649  -16.3650   27.5002 C   0  0  0  0  0  0  0  0  0  0  0  0
    9.7674  -15.4491   26.5515 C   0  0  0  0  0  0  0  0  0  0  0  0
    9.4316  -15.8063   25.1565 C   0  0  0  0  0  0  0  0  0  0  0  0
   10.6273  -15.9374   24.2558 C   0  0  2  0  0  0  0  0  0  0  0  0
   10.1515  -16.3889   22.9570 N   0  0  0  0  0  0  0  0  0  0  0  0
   11.7011  -16.7892   24.7792 C   0  0  0  0  0  0  0  0  0  0  0  0
   12.8213  -16.2525   25.4423 O   0  0  0  0  0  0  0  0  0  0  0  0
    9.6862  -14.1291   26.9298 C   0  0  0  0  0  0  0  0  0  0  0  0
    9.9954  -13.7354   28.2271 C   0  0  0  0  0  0  0  0  0  0  0  0
   11.6897  -18.0400   24.6702 O   0  0  0  0  0  0  0  0  0  0  0  0
  2  1  1  1
  2  4  1  0
  2  3  1  0
  4  5  1  6
  6  4  1  0
  7  6  2  0
  8  6  1  0
  9 10  1  0
  9  8  1  0
 10 19  1  0
 11 10  2  0
 13 12  1  0
 13 14  2  0
 15 14  1  0
 16 15  2  0
 17 16  1  0
 18 17  1  1
 18 20  1  0
 19 18  1  0
 20 24  2  0
 20 21  1  0
 22 23  2  0
 22 16  1  0
 23 13  1  0
M  END
$$$$
