VGY.pdb
     RDKit          3D

 24 24  0  0  1  0  0  0  0  0999 V2000
    8.2504  -12.9517   17.2510 C   0  0  0  0  0  0  0  0  0  0  0  0
    7.7176  -13.4082   18.5817 C   0  0  2  0  0  0  0  0  0  0  0  0
    7.6518  -12.2353   19.5370 C   0  0  0  0  0  0  0  0  0  0  0  0
    8.5807  -14.4688   19.2141 C   0  0  2  0  0  0  0  0  0  0  0  0
    8.6727  -15.6062   18.3478 N   0  0  0  0  0  0  0  0  0  0  0  0
    8.1884  -14.7917   20.5875 C   0  0  0  0  0  0  0  0  0  0  0  0
    8.2876  -13.9151   21.4775 O   0  0  0  0  0  0  0  0  0  0  0  0
    7.6868  -16.0967   20.9544 N   0  0  0  0  0  0  0  0  0  0  0  0
    7.1877  -16.3502   22.2820 C   0  0  0  0  0  0  0  0  0  0  0  0
    8.1747  -16.2329   23.3388 C   0  0  0  0  0  0  0  0  0  0  0  0
    9.3621  -15.8480   23.0556 O   0  0  0  0  0  0  0  0  0  0  0  0
    5.8526  -10.6953   26.2128 O   0  0  0  0  0  0  0  0  0  0  0  0
    6.4601  -11.9513   26.3958 C   0  0  0  0  0  0  0  0  0  0  0  0
    7.8206  -12.0230   26.6110 C   0  0  0  0  0  0  0  0  0  0  0  0
    8.4236  -13.2510   26.7913 C   0  0  0  0  0  0  0  0  0  0  0  0
    7.7007  -14.4230   26.7629 C   0  0  0  0  0  0  0  0  0  0  0  0
    8.3015  -15.7618   26.9448 C   0  0  0  0  0  0  0  0  0  0  0  0
    8.9769  -16.2994   25.7148 C   0  0  2  0  0  0  0  0  0  0  0  0
    7.9495  -16.5119   24.7068 N   0  0  0  0  0  0  0  0  0  0  0  0
    9.7928  -17.4986   25.9357 C   0  0  0  0  0  0  0  0  0  0  0  0
   11.0823  -17.4293   26.4966 O   0  0  0  0  0  0  0  0  0  0  0  0
    6.3451  -14.3345   26.5472 C   0  0  0  0  0  0  0  0  0  0  0  0
    5.7278  -13.1021   26.3644 C   0  0  0  0  0  0  0  0  0  0  0  0
    9.3965  -18.6531   25.6411 O   0  0  0  0  0  0  0  0  0  0  0  0
  2  1  1  6
  2  4  1  0
  2  3  1  0
  4  5  1  6
  6  4  1  0
  7  6  2  0
  8  6  1  0
  9 10  1  0
  9  8  1  0
 10 19  1  0
 11 10  2  0
 13 12  1  0
 13 14  2  0
 15 14  1  0
 16 15  2  0
 17 16  1  0
 18 17  1  1
 18 20  1  0
 19 18  1  0
 20 24  2  0
 20 21  1  0
 22 23  2  0
 22 16  1  0
 23 13  1  0
M  END
$$$$
