VGY.pdb
     RDKit          3D

 24 24  0  0  1  0  0  0  0  0999 V2000
    8.1233  -13.0302   18.7134 C   0  0  0  0  0  0  0  0  0  0  0  0
    7.7750  -13.7625   19.9805 C   0  0  2  0  0  0  0  0  0  0  0  0
    7.2502  -12.7840   21.0101 C   0  0  0  0  0  0  0  0  0  0  0  0
    8.9618  -14.4699   20.5812 C   0  0  2  0  0  0  0  0  0  0  0  0
    9.5265  -15.3765   19.6263 N   0  0  0  0  0  0  0  0  0  0  0  0
    8.6774  -15.0732   21.8848 C   0  0  0  0  0  0  0  0  0  0  0  0
    8.2929  -14.3444   22.8290 O   0  0  0  0  0  0  0  0  0  0  0  0
    8.8260  -16.4914   22.1217 N   0  0  0  0  0  0  0  0  0  0  0  0
    8.5618  -17.0554   23.4209 C   0  0  0  0  0  0  0  0  0  0  0  0
    9.3617  -16.5066   24.4997 C   0  0  0  0  0  0  0  0  0  0  0  0
   10.4731  -15.9303   24.2333 O   0  0  0  0  0  0  0  0  0  0  0  0
    5.8938  -11.2097   25.5504 O   0  0  0  0  0  0  0  0  0  0  0  0
    6.6888  -12.2167   26.1285 C   0  0  0  0  0  0  0  0  0  0  0  0
    6.1813  -13.4926   26.2575 C   0  0  0  0  0  0  0  0  0  0  0  0
    6.9547  -14.4855   26.8233 C   0  0  0  0  0  0  0  0  0  0  0  0
    8.2344  -14.2398   27.2693 C   0  0  0  0  0  0  0  0  0  0  0  0
    9.0993  -15.2677   27.8871 C   0  0  0  0  0  0  0  0  0  0  0  0
    9.9249  -16.0437   26.9001 C   0  0  2  0  0  0  0  0  0  0  0  0
    9.0249  -16.5450   25.8726 N   0  0  0  0  0  0  0  0  0  0  0  0
   10.7441  -17.1099   27.4872 C   0  0  0  0  0  0  0  0  0  0  0  0
   10.5844  -18.4597   27.1200 O   0  0  0  0  0  0  0  0  0  0  0  0
    8.7258  -12.9622   27.1336 C   0  0  0  0  0  0  0  0  0  0  0  0
    7.9547  -11.9546   26.5648 C   0  0  0  0  0  0  0  0  0  0  0  0
   11.6319  -16.8886   28.3470 O   0  0  0  0  0  0  0  0  0  0  0  0
  2  1  1  6
  2  4  1  0
  2  3  1  0
  4  5  1  6
  6  4  1  0
  7  6  2  0
  8  6  1  0
  9 10  1  0
  9  8  1  0
 10 19  1  0
 11 10  2  0
 13 12  1  0
 13 14  2  0
 15 14  1  0
 16 15  2  0
 17 16  1  0
 18 17  1  1
 18 20  1  0
 19 18  1  0
 20 24  2  0
 20 21  1  0
 22 23  2  0
 22 16  1  0
 23 13  1  0
M  END
$$$$
