VGY.pdb
     RDKit          3D

 24 24  0  0  1  0  0  0  0  0999 V2000
    2.8700  -18.9634   21.7166 C   0  0  0  0  0  0  0  0  0  0  0  0
    3.8616  -17.8326   21.7475 C   0  0  2  0  0  0  0  0  0  0  0  0
    3.9314  -17.1749   20.3854 C   0  0  0  0  0  0  0  0  0  0  0  0
    5.2499  -18.2942   22.1071 C   0  0  2  0  0  0  0  0  0  0  0  0
    5.1983  -19.1581   23.2489 N   0  0  0  0  0  0  0  0  0  0  0  0
    6.2116  -17.1967   22.2291 C   0  0  0  0  0  0  0  0  0  0  0  0
    5.9857  -16.2685   23.0402 O   0  0  0  0  0  0  0  0  0  0  0  0
    7.4216  -17.1469   21.4400 N   0  0  0  0  0  0  0  0  0  0  0  0
    8.2917  -15.9998   21.4930 C   0  0  0  0  0  0  0  0  0  0  0  0
    9.0465  -15.8614   22.7242 C   0  0  0  0  0  0  0  0  0  0  0  0
   10.0900  -15.1205   22.7468 O   0  0  0  0  0  0  0  0  0  0  0  0
    4.7275  -12.4867   26.8830 O   0  0  0  0  0  0  0  0  0  0  0  0
    5.9512  -13.0872   26.5337 C   0  0  0  0  0  0  0  0  0  0  0  0
    6.0267  -14.4598   26.4214 C   0  0  0  0  0  0  0  0  0  0  0  0
    7.2232  -15.0561   26.0792 C   0  0  0  0  0  0  0  0  0  0  0  0
    8.3595  -14.3146   25.8431 C   0  0  0  0  0  0  0  0  0  0  0  0
    9.6648  -14.9069   25.4799 C   0  0  0  0  0  0  0  0  0  0  0  0
    9.5942  -16.3642   25.1202 C   0  0  2  0  0  0  0  0  0  0  0  0
    8.7341  -16.4875   23.9532 N   0  0  0  0  0  0  0  0  0  0  0  0
    9.1745  -17.2479   26.2136 C   0  0  0  0  0  0  0  0  0  0  0  0
    8.0101  -18.0350   26.1299 O   0  0  0  0  0  0  0  0  0  0  0  0
    8.2677  -12.9471   25.9593 C   0  0  0  0  0  0  0  0  0  0  0  0
    7.0669  -12.3363   26.3035 C   0  0  0  0  0  0  0  0  0  0  0  0
    9.8211  -17.3576   27.2842 O   0  0  0  0  0  0  0  0  0  0  0  0
  2  1  1  6
  2  4  1  0
  2  3  1  0
  4  5  1  1
  6  4  1  0
  7  6  2  0
  8  6  1  0
  9 10  1  0
  9  8  1  0
 10 19  1  0
 11 10  2  0
 13 12  1  0
 13 14  2  0
 15 14  1  0
 16 15  2  0
 17 16  1  0
 18 17  1  1
 18 20  1  0
 19 18  1  0
 20 24  2  0
 20 21  1  0
 22 23  2  0
 22 16  1  0
 23 13  1  0
M  END
$$$$
