VGY.pdb
     RDKit          3D

 24 24  0  0  1  0  0  0  0  0999 V2000
    8.2384  -13.2415   17.4430 C   0  0  0  0  0  0  0  0  0  0  0  0
    7.9181  -13.7228   18.8318 C   0  0  2  0  0  0  0  0  0  0  0  0
    8.2376  -12.6365   19.8371 C   0  0  0  0  0  0  0  0  0  0  0  0
    8.7075  -14.9483   19.2125 C   0  0  2  0  0  0  0  0  0  0  0  0
    8.4616  -16.0008   18.2721 N   0  0  0  0  0  0  0  0  0  0  0  0
    8.5282  -15.3410   20.6118 C   0  0  0  0  0  0  0  0  0  0  0  0
    8.8748  -14.5516   21.5212 O   0  0  0  0  0  0  0  0  0  0  0  0
    7.9608  -16.6177   20.9827 N   0  0  0  0  0  0  0  0  0  0  0  0
    7.6190  -16.9045   22.3526 C   0  0  0  0  0  0  0  0  0  0  0  0
    8.6698  -16.6311   23.3149 C   0  0  0  0  0  0  0  0  0  0  0  0
    9.8471  -16.3452   22.9021 O   0  0  0  0  0  0  0  0  0  0  0  0
    5.2023  -12.0826   27.4578 O   0  0  0  0  0  0  0  0  0  0  0  0
    6.3435  -12.7688   27.0030 C   0  0  0  0  0  0  0  0  0  0  0  0
    7.5957  -12.3249   27.3734 C   0  0  0  0  0  0  0  0  0  0  0  0
    8.7196  -12.9925   26.9314 C   0  0  0  0  0  0  0  0  0  0  0  0
    8.6296  -14.1029   26.1215 C   0  0  0  0  0  0  0  0  0  0  0  0
    9.8033  -14.8480   25.6179 C   0  0  0  0  0  0  0  0  0  0  0  0
    9.6241  -16.3399   25.6167 C   0  0  2  0  0  0  0  0  0  0  0  0
    8.5198  -16.6489   24.7211 N   0  0  0  0  0  0  0  0  0  0  0  0
    9.4450  -16.9388   26.9440 C   0  0  0  0  0  0  0  0  0  0  0  0
    8.3332  -17.7454   27.2534 O   0  0  0  0  0  0  0  0  0  0  0  0
    7.3737  -14.5328   25.7609 C   0  0  0  0  0  0  0  0  0  0  0  0
    6.2349  -13.8672   26.2009 C   0  0  0  0  0  0  0  0  0  0  0  0
   10.2646  -16.7718   27.8804 O   0  0  0  0  0  0  0  0  0  0  0  0
  2  1  1  6
  2  4  1  0
  2  3  1  0
  4  5  1  6
  6  4  1  0
  7  6  2  0
  8  6  1  0
  9 10  1  0
  9  8  1  0
 10 19  1  0
 11 10  2  0
 13 12  1  0
 13 14  2  0
 15 14  1  0
 16 15  2  0
 17 16  1  0
 18 17  1  1
 18 20  1  0
 19 18  1  0
 20 24  2  0
 20 21  1  0
 22 23  2  0
 22 16  1  0
 23 13  1  0
M  END
$$$$
