VGY.pdb
     RDKit          3D

 24 24  0  0  1  0  0  0  0  0999 V2000
    7.6499  -12.5970   20.7607 C   0  0  0  0  0  0  0  0  0  0  0  0
    7.8517  -13.4516   19.5393 C   0  0  2  0  0  0  0  0  0  0  0  0
    6.6077  -13.4148   18.6769 C   0  0  0  0  0  0  0  0  0  0  0  0
    8.1300  -14.8916   19.8840 C   0  0  2  0  0  0  0  0  0  0  0  0
    6.9811  -15.4765   20.5088 N   0  0  0  0  0  0  0  0  0  0  0  0
    9.3771  -15.0781   20.6286 C   0  0  0  0  0  0  0  0  0  0  0  0
   10.4712  -14.8451   20.0638 O   0  0  0  0  0  0  0  0  0  0  0  0
    9.3893  -15.5252   22.0032 N   0  0  0  0  0  0  0  0  0  0  0  0
   10.6132  -15.5449   22.7630 C   0  0  0  0  0  0  0  0  0  0  0  0
   10.4715  -15.9825   24.1390 C   0  0  0  0  0  0  0  0  0  0  0  0
   11.4956  -15.9978   24.9067 O   0  0  0  0  0  0  0  0  0  0  0  0
    6.4716  -11.0534   26.1885 O   0  0  0  0  0  0  0  0  0  0  0  0
    6.8178  -12.4119   26.3104 C   0  0  0  0  0  0  0  0  0  0  0  0
    7.8720  -12.7740   27.1227 C   0  0  0  0  0  0  0  0  0  0  0  0
    8.2175  -14.1041   27.2474 C   0  0  0  0  0  0  0  0  0  0  0  0
    7.5342  -15.0949   26.5778 C   0  0  0  0  0  0  0  0  0  0  0  0
    7.8697  -16.5317   26.6743 C   0  0  0  0  0  0  0  0  0  0  0  0
    9.2222  -16.8807   26.1204 C   0  0  2  0  0  0  0  0  0  0  0  0
    9.2674  -16.4118   24.7438 N   0  0  0  0  0  0  0  0  0  0  0  0
    9.5871  -18.2971   26.2354 C   0  0  0  0  0  0  0  0  0  0  0  0
    9.7963  -18.9133   27.4841 O   0  0  0  0  0  0  0  0  0  0  0  0
    6.4856  -14.7173   25.7717 C   0  0  0  0  0  0  0  0  0  0  0  0
    6.1293  -13.3798   25.6391 C   0  0  0  0  0  0  0  0  0  0  0  0
    9.7348  -19.0435   25.2367 O   0  0  0  0  0  0  0  0  0  0  0  0
  2  1  1  1
  2  4  1  0
  2  3  1  0
  4  5  1  1
  6  4  1  0
  7  6  2  0
  8  6  1  0
  9 10  1  0
  9  8  1  0
 10 19  1  0
 11 10  2  0
 13 12  1  0
 13 14  2  0
 15 14  1  0
 16 15  2  0
 17 16  1  0
 18 17  1  6
 18 20  1  0
 19 18  1  0
 20 24  2  0
 20 21  1  0
 22 23  2  0
 22 16  1  0
 23 13  1  0
M  END
$$$$
