RTF.pdb
     RDKit          3D

 30 30  0  0  1  0  0  0  0  0999 V2000
   31.5184  -26.9346  -18.1737 N   0  0  0  0  0  0  0  0  0  0  0  0
   30.4944  -27.8248  -17.7847 C   0  0  0  0  0  0  0  0  0  0  0  0
   30.8114  -29.0549  -17.4712 N   0  0  0  0  0  0  0  0  0  0  0  0
   29.1110  -27.4747  -17.7153 N   0  0  0  0  0  0  0  0  0  0  0  0
   28.6533  -26.1293  -17.7519 C   0  0  0  0  0  0  0  0  0  0  0  0
   29.7441  -25.1204  -17.9971 C   0  0  0  0  0  0  0  0  0  0  0  0
   29.5187  -23.8015  -17.2808 C   0  0  0  0  0  0  0  0  0  0  0  0
   28.2465  -23.1949  -17.8509 C   0  0  2  0  0  0  0  0  0  0  0  0
   28.5651  -22.9103  -19.2541 N   0  0  0  0  0  0  0  0  0  0  0  0
   27.8275  -21.9735  -17.1411 C   0  0  0  0  0  0  0  0  0  0  0  0
   28.1393  -20.8125  -17.5467 O   0  0  0  0  0  0  0  0  0  0  0  0
   30.0282  -29.7139  -17.2495 C   0  0  0  0  0  0  0  0  0  0  0  0
   26.3754  -19.7745  -17.5425 C   0  0  2  0  0  0  0  0  0  0  0  0
   25.5188  -20.1871  -16.3507 O   0  0  0  0  0  0  0  0  0  0  0  0
   24.4290  -20.9255  -16.8152 C   0  0  2  0  0  0  0  0  0  0  0  0
   26.3918  -20.9364  -15.3987 N   0  0  0  0  0  0  0  0  0  0  0  0
   27.0477  -22.0939  -15.9636 C   0  0  0  0  0  0  0  0  0  0  0  0
   25.7423  -21.2359  -14.1012 O   0  0  0  0  0  0  0  0  0  0  0  0
   25.2715  -22.4308  -14.0137 N   0  0  0  0  0  0  0  0  0  0  0  0
   25.5997  -20.3858  -13.0100 C   0  0  1  0  0  0  0  0  0  0  0  0
   24.9790  -20.7335  -11.7366 C   0  0  0  0  0  0  0  0  0  0  0  0
   25.9139  -20.0915  -10.6889 C   0  0  0  0  0  0  0  0  0  0  0  0
   27.2718  -20.6355  -10.7016 C   0  0  0  0  0  0  0  0  0  0  0  0
   27.5479  -21.8239  -10.0791 C   0  0  0  0  0  0  0  0  0  0  0  0
   28.8212  -22.3350  -10.1119 C   0  0  0  0  0  0  0  0  0  0  0  0
   29.8300  -21.6636  -10.7669 C   0  0  0  0  0  0  0  0  0  0  0  0
   29.5568  -20.4468  -11.4046 C   0  0  0  0  0  0  0  0  0  0  0  0
   28.2834  -19.9522  -11.3619 C   0  0  0  0  0  0  0  0  0  0  0  0
   23.6499  -20.1817  -11.5745 O   0  0  0  0  0  0  0  0  0  0  0  0
   23.1498  -19.2484  -12.5135 O   0  0  0  0  0  0  0  0  0  0  0  0
  2  1  1  0
  3  2  2  0
  4  2  1  0
  5  4  1  0
  6  5  1  0
  7  6  1  0
  8  7  1  0
  8  9  1  6
 10  8  1  0
 10 11  2  0
 13 12  1  6
 13 15  1  0
 13 14  1  0
 15 16  1  1
 16 10  1  0
 17 15  1  0
 18 17  2  0
 19 17  1  0
 20 28  1  0
 20 19  1  0
 20 21  1  1
 22 21  1  0
 22 23  2  0
 24 23  1  0
 25 24  2  0
 26 27  2  0
 26 25  1  0
 27 22  1  0
 28 29  1  0
 30 28  2  0
M  END
$$$$
