RTF.pdb
     RDKit          3D

 30 30  0  0  1  0  0  0  0  0999 V2000
   28.1603  -20.8139  -20.5313 N   0  0  0  0  0  0  0  0  0  0  0  0
   29.5658  -20.7283  -20.6287 C   0  0  0  0  0  0  0  0  0  0  0  0
   30.1058  -20.4980  -21.7980 N   0  0  0  0  0  0  0  0  0  0  0  0
   30.4573  -20.8860  -19.5234 N   0  0  0  0  0  0  0  0  0  0  0  0
   30.0138  -21.2366  -18.2190 C   0  0  0  0  0  0  0  0  0  0  0  0
   28.5342  -21.0531  -18.0079 C   0  0  0  0  0  0  0  0  0  0  0  0
   28.1933  -19.8745  -17.1145 C   0  0  0  0  0  0  0  0  0  0  0  0
   28.2672  -20.3666  -15.6780 C   0  0  2  0  0  0  0  0  0  0  0  0
   28.0329  -21.8118  -15.7660 N   0  0  0  0  0  0  0  0  0  0  0  0
   27.2769  -19.7185  -14.8000 C   0  0  0  0  0  0  0  0  0  0  0  0
   26.5775  -18.7306  -15.1798 O   0  0  0  0  0  0  0  0  0  0  0  0
   31.1495  -20.4235  -21.8417 C   0  0  0  0  0  0  0  0  0  0  0  0
   24.6538  -21.7913  -13.9118 C   0  0  1  0  0  0  0  0  0  0  0  0
   24.6234  -20.3043  -13.5767 O   0  0  0  0  0  0  0  0  0  0  0  0
   23.4323  -20.0192  -12.9068 C   0  0  1  0  0  0  0  0  0  0  0  0
   25.8496  -19.9897  -12.7846 N   0  0  0  0  0  0  0  0  0  0  0  0
   27.0945  -20.2130  -13.4842 C   0  0  0  0  0  0  0  0  0  0  0  0
   25.8533  -20.5839  -11.4273 O   0  0  0  0  0  0  0  0  0  0  0  0
   26.3685  -21.7622  -11.3720 N   0  0  0  0  0  0  0  0  0  0  0  0
   25.3755  -20.0135  -10.2526 C   0  0  1  0  0  0  0  0  0  0  0  0
   25.1760  -20.7124   -8.9878 C   0  0  0  0  0  0  0  0  0  0  0  0
   25.5991  -19.6730   -7.9273 C   0  0  0  0  0  0  0  0  0  0  0  0
   27.0156  -19.7427   -7.5689 C   0  0  0  0  0  0  0  0  0  0  0  0
   27.4803  -20.7576   -6.7750 C   0  0  0  0  0  0  0  0  0  0  0  0
   28.8142  -20.8243   -6.4590 C   0  0  0  0  0  0  0  0  0  0  0  0
   29.6958  -19.8781   -6.9331 C   0  0  0  0  0  0  0  0  0  0  0  0
   29.2288  -18.8358   -7.7440 C   0  0  0  0  0  0  0  0  0  0  0  0
   27.8974  -18.7844   -8.0487 C   0  0  0  0  0  0  0  0  0  0  0  0
   23.7979  -21.0870   -8.7484 O   0  0  0  0  0  0  0  0  0  0  0  0
   23.4759  -21.9678   -7.6884 O   0  0  0  0  0  0  0  0  0  0  0  0
  2  1  1  0
  3  2  2  0
  4  2  1  0
  5  4  1  0
  6  5  1  0
  7  6  1  0
  8  7  1  0
  8  9  1  6
 10  8  1  0
 10 11  2  0
 13 12  1  6
 13 15  1  0
 13 14  1  0
 15 16  1  6
 16 10  1  0
 17 15  1  0
 18 17  2  0
 19 17  1  0
 20 28  1  0
 20 19  1  0
 20 21  1  1
 22 21  1  0
 22 23  2  0
 24 23  1  0
 25 24  2  0
 26 27  2  0
 26 25  1  0
 27 22  1  0
 28 29  1  0
 30 28  2  0
M  END
$$$$
