RTF.pdb
     RDKit          3D

 30 30  0  0  1  0  0  0  0  0999 V2000
   32.3029  -24.7270  -15.4378 N   0  0  0  0  0  0  0  0  0  0  0  0
   32.8196  -25.4659  -16.5238 C   0  0  0  0  0  0  0  0  0  0  0  0
   33.8727  -26.2185  -16.3323 N   0  0  0  0  0  0  0  0  0  0  0  0
   32.2701  -25.4442  -17.8424 N   0  0  0  0  0  0  0  0  0  0  0  0
   31.2218  -24.5641  -18.2265 C   0  0  0  0  0  0  0  0  0  0  0  0
   31.6995  -23.2186  -18.7051 C   0  0  0  0  0  0  0  0  0  0  0  0
   30.9408  -22.0557  -18.0925 C   0  0  0  0  0  0  0  0  0  0  0  0
   29.6217  -21.9395  -18.8393 C   0  0  2  0  0  0  0  0  0  0  0  0
   29.9924  -21.4818  -20.1826 N   0  0  0  0  0  0  0  0  0  0  0  0
   28.6819  -21.0034  -18.1976 C   0  0  0  0  0  0  0  0  0  0  0  0
   28.4755  -19.8351  -18.6470 O   0  0  0  0  0  0  0  0  0  0  0  0
   34.2443  -26.7477  -17.1562 C   0  0  0  0  0  0  0  0  0  0  0  0
   26.7077  -19.3620  -18.5486 C   0  0  2  0  0  0  0  0  0  0  0  0
   25.9623  -20.0323  -17.4000 O   0  0  0  0  0  0  0  0  0  0  0  0
   25.1185  -21.0132  -17.9240 C   0  0  2  0  0  0  0  0  0  0  0  0
   26.9792  -20.5617  -16.4431 N   0  0  0  0  0  0  0  0  0  0  0  0
   27.9804  -21.4179  -17.0378 C   0  0  0  0  0  0  0  0  0  0  0  0
   26.3953  -21.1490  -15.2146 O   0  0  0  0  0  0  0  0  0  0  0  0
   26.3525  -22.4355  -15.2174 N   0  0  0  0  0  0  0  0  0  0  0  0
   25.9104  -20.4722  -14.1009 C   0  0  1  0  0  0  0  0  0  0  0  0
   25.2542  -21.0861  -12.9518 C   0  0  0  0  0  0  0  0  0  0  0  0
   25.5855  -20.1268  -11.7883 C   0  0  0  0  0  0  0  0  0  0  0  0
   24.9604  -20.5031  -10.5204 C   0  0  0  0  0  0  0  0  0  0  0  0
   23.6785  -20.1127  -10.2372 C   0  0  0  0  0  0  0  0  0  0  0  0
   23.0944  -20.4860   -9.0526 C   0  0  0  0  0  0  0  0  0  0  0  0
   23.7857  -21.2525   -8.1405 C   0  0  0  0  0  0  0  0  0  0  0  0
   25.0978  -21.6545   -8.4212 C   0  0  0  0  0  0  0  0  0  0  0  0
   25.6641  -21.2737   -9.6054 C   0  0  0  0  0  0  0  0  0  0  0  0
   23.8151  -21.1718  -13.0887 O   0  0  0  0  0  0  0  0  0  0  0  0
   23.1174  -20.2128  -13.8612 O   0  0  0  0  0  0  0  0  0  0  0  0
  2  1  1  0
  3  2  2  0
  4  2  1  0
  5  4  1  0
  6  5  1  0
  7  6  1  0
  8  7  1  0
  8  9  1  6
 10  8  1  0
 10 11  2  0
 13 12  1  6
 13 15  1  0
 13 14  1  0
 15 16  1  1
 16 10  1  0
 17 15  1  0
 18 17  2  0
 19 17  1  0
 20 28  1  0
 20 19  1  0
 20 21  1  6
 22 21  1  0
 22 23  2  0
 24 23  1  0
 25 24  2  0
 26 27  2  0
 26 25  1  0
 27 22  1  0
 28 29  1  0
 30 28  2  0
M  END
$$$$
