RTF.pdb
     RDKit          3D

 30 30  0  0  1  0  0  0  0  0999 V2000
   29.0426  -30.8551  -15.8171 N   0  0  0  0  0  0  0  0  0  0  0  0
   29.2817  -32.0603  -16.5119 C   0  0  0  0  0  0  0  0  0  0  0  0
   30.3769  -32.7297  -16.2582 N   0  0  0  0  0  0  0  0  0  0  0  0
   28.4016  -32.6071  -17.4955 N   0  0  0  0  0  0  0  0  0  0  0  0
   27.0580  -32.1711  -17.6557 C   0  0  0  0  0  0  0  0  0  0  0  0
   26.2912  -32.0702  -16.3636 C   0  0  0  0  0  0  0  0  0  0  0  0
   25.4744  -30.7967  -16.2440 C   0  0  0  0  0  0  0  0  0  0  0  0
   24.2005  -31.0057  -17.0470 C   0  0  2  0  0  0  0  0  0  0  0  0
   24.3817  -30.1910  -18.2531 N   0  0  0  0  0  0  0  0  0  0  0  0
   22.9885  -30.6056  -16.3107 C   0  0  0  0  0  0  0  0  0  0  0  0
   22.3798  -29.5177  -16.5464 O   0  0  0  0  0  0  0  0  0  0  0  0
   30.6288  -33.5090  -16.9111 C   0  0  0  0  0  0  0  0  0  0  0  0
   19.7022  -32.1906  -16.1682 C   0  0  2  0  0  0  0  0  0  0  0  0
   20.1794  -32.1649  -14.7205 O   0  0  0  0  0  0  0  0  0  0  0  0
   20.5937  -33.4487  -14.3614 C   0  0  2  0  0  0  0  0  0  0  0  0
   21.2537  -31.1334  -14.6123 N   0  0  0  0  0  0  0  0  0  0  0  0
   22.4796  -31.4631  -15.3032 C   0  0  0  0  0  0  0  0  0  0  0  0
   21.4972  -30.6670  -13.2272 O   0  0  0  0  0  0  0  0  0  0  0  0
   22.4982  -31.2350  -12.6508 N   0  0  0  0  0  0  0  0  0  0  0  0
   20.7790  -29.7106  -12.5178 C   0  0  1  0  0  0  0  0  0  0  0  0
   21.0548  -29.2808  -11.1513 C   0  0  0  0  0  0  0  0  0  0  0  0
   20.7650  -27.7646  -11.1816 C   0  0  0  0  0  0  0  0  0  0  0  0
   21.5474  -27.0367  -12.1805 C   0  0  0  0  0  0  0  0  0  0  0  0
   22.9151  -27.0174  -12.1098 C   0  0  0  0  0  0  0  0  0  0  0  0
   23.6411  -26.3467  -13.0621 C   0  0  0  0  0  0  0  0  0  0  0  0
   23.0074  -25.6893  -14.0933 C   0  0  0  0  0  0  0  0  0  0  0  0
   21.6089  -25.7024  -14.1722 C   0  0  0  0  0  0  0  0  0  0  0  0
   20.9016  -26.3749  -13.2156 C   0  0  0  0  0  0  0  0  0  0  0  0
   20.1911  -29.9001  -10.1678 O   0  0  0  0  0  0  0  0  0  0  0  0
   20.4205  -29.6873   -8.7875 O   0  0  0  0  0  0  0  0  0  0  0  0
  2  1  1  0
  3  2  2  0
  4  2  1  0
  5  4  1  0
  6  5  1  0
  7  6  1  0
  8  7  1  0
  8  9  1  6
 10  8  1  0
 10 11  2  0
 13 12  1  1
 13 15  1  0
 13 14  1  0
 15 16  1  1
 16 10  1  0
 17 15  1  0
 18 17  2  0
 19 17  1  0
 20 28  1  0
 20 19  1  0
 20 21  1  1
 22 21  1  0
 22 23  2  0
 24 23  1  0
 25 24  2  0
 26 27  2  0
 26 25  1  0
 27 22  1  0
 28 29  1  0
 30 28  2  0
M  END
$$$$
