RTF.pdb
     RDKit          3D

 30 30  0  0  1  0  0  0  0  0999 V2000
   25.3511  -30.4162  -17.9490 N   0  0  0  0  0  0  0  0  0  0  0  0
   24.4719  -29.7648  -17.0574 C   0  0  0  0  0  0  0  0  0  0  0  0
   23.8034  -30.4825  -16.1914 N   0  0  0  0  0  0  0  0  0  0  0  0
   24.2497  -28.3536  -17.0380 N   0  0  0  0  0  0  0  0  0  0  0  0
   25.0387  -27.4384  -17.7869 C   0  0  0  0  0  0  0  0  0  0  0  0
   26.4819  -27.3860  -17.3602 C   0  0  0  0  0  0  0  0  0  0  0  0
   26.7769  -26.2806  -16.3630 C   0  0  0  0  0  0  0  0  0  0  0  0
   27.9453  -25.4803  -16.9155 C   0  0  2  0  0  0  0  0  0  0  0  0
   29.1377  -26.2317  -16.5094 N   0  0  0  0  0  0  0  0  0  0  0  0
   27.9855  -24.0993  -16.4032 C   0  0  0  0  0  0  0  0  0  0  0  0
   28.6643  -23.7742  -15.3818 O   0  0  0  0  0  0  0  0  0  0  0  0
   23.1276  -29.9810  -15.5678 C   0  0  0  0  0  0  0  0  0  0  0  0
   29.1834  -21.0932  -17.9823 C   0  0  2  0  0  0  0  0  0  0  0  0
   27.7489  -20.7332  -17.6123 O   0  0  0  0  0  0  0  0  0  0  0  0
   26.9793  -20.7017  -18.7765 C   0  0  2  0  0  0  0  0  0  0  0  0
   27.2745  -21.7271  -16.6038 N   0  0  0  0  0  0  0  0  0  0  0  0
   27.2424  -23.0943  -17.0717 C   0  0  0  0  0  0  0  0  0  0  0  0
   26.0173  -21.3359  -15.9246 O   0  0  0  0  0  0  0  0  0  0  0  0
   24.9981  -22.0488  -16.2563 N   0  0  0  0  0  0  0  0  0  0  0  0
   25.8386  -20.3151  -14.9974 C   0  0  1  0  0  0  0  0  0  0  0  0
   24.5642  -19.9077  -14.4162 C   0  0  0  0  0  0  0  0  0  0  0  0
   24.9765  -19.0376  -13.2093 C   0  0  0  0  0  0  0  0  0  0  0  0
   25.1928  -19.8017  -11.9808 C   0  0  0  0  0  0  0  0  0  0  0  0
   24.1484  -20.0620  -11.1337 C   0  0  0  0  0  0  0  0  0  0  0  0
   24.3581  -20.7952   -9.9926 C   0  0  0  0  0  0  0  0  0  0  0  0
   25.6127  -21.2748   -9.6874 C   0  0  0  0  0  0  0  0  0  0  0  0
   26.6868  -21.0116  -10.5472 C   0  0  0  0  0  0  0  0  0  0  0  0
   26.4604  -20.2798  -11.6790 C   0  0  0  0  0  0  0  0  0  0  0  0
   23.7530  -19.1084  -15.3107 O   0  0  0  0  0  0  0  0  0  0  0  0
   22.3591  -18.9945  -15.0935 O   0  0  0  0  0  0  0  0  0  0  0  0
  2  1  1  0
  3  2  2  0
  4  2  1  0
  5  4  1  0
  6  5  1  0
  7  6  1  0
  8  7  1  0
  8  9  1  1
 10  8  1  0
 10 11  2  0
 13 12  1  6
 13 15  1  0
 13 14  1  0
 15 16  1  1
 16 10  1  0
 17 15  1  0
 18 17  2  0
 19 17  1  0
 20 28  1  0
 20 19  1  0
 20 21  1  1
 22 21  1  0
 22 23  2  0
 24 23  1  0
 25 24  2  0
 26 27  2  0
 26 25  1  0
 27 22  1  0
 28 29  1  0
 30 28  2  0
M  END
$$$$
