RTF.pdb
     RDKit          3D

 30 30  0  0  1  0  0  0  0  0999 V2000
   26.6805  -22.5365  -16.5784 N   0  0  0  0  0  0  0  0  0  0  0  0
   27.9220  -22.9343  -17.1195 C   0  0  0  0  0  0  0  0  0  0  0  0
   27.9632  -23.9793  -17.9057 N   0  0  0  0  0  0  0  0  0  0  0  0
   29.1600  -22.2705  -16.8590 N   0  0  0  0  0  0  0  0  0  0  0  0
   29.2404  -21.0351  -16.1602 C   0  0  0  0  0  0  0  0  0  0  0  0
   28.9484  -19.8305  -17.0153 C   0  0  0  0  0  0  0  0  0  0  0  0
   28.0818  -18.7945  -16.3231 C   0  0  0  0  0  0  0  0  0  0  0  0
   26.6880  -18.9071  -16.9195 C   0  0  2  0  0  0  0  0  0  0  0  0
   26.7127  -18.0293  -18.0943 N   0  0  0  0  0  0  0  0  0  0  0  0
   25.6286  -18.5063  -15.9769 C   0  0  0  0  0  0  0  0  0  0  0  0
   25.1585  -17.3284  -15.9457 O   0  0  0  0  0  0  0  0  0  0  0  0
   28.9066  -24.3647  -18.1477 C   0  0  0  0  0  0  0  0  0  0  0  0
   23.1265  -17.9012  -16.3105 C   0  0  2  0  0  0  0  0  0  0  0  0
   22.6992  -18.9791  -15.3207 O   0  0  0  0  0  0  0  0  0  0  0  0
   22.2812  -20.1038  -16.0342 C   0  0  2  0  0  0  0  0  0  0  0  0
   23.8498  -19.2403  -14.4054 N   0  0  0  0  0  0  0  0  0  0  0  0
   25.1123  -19.4670  -15.0714 C   0  0  0  0  0  0  0  0  0  0  0  0
   23.5695  -20.2618  -13.3694 O   0  0  0  0  0  0  0  0  0  0  0  0
   23.8576  -21.4643  -13.7270 N   0  0  0  0  0  0  0  0  0  0  0  0
   23.0485  -20.0555  -12.0967 C   0  0  1  0  0  0  0  0  0  0  0  0
   22.7010  -21.1009  -11.1405 C   0  0  0  0  0  0  0  0  0  0  0  0
   23.1461  -20.5148   -9.7832 C   0  0  0  0  0  0  0  0  0  0  0  0
   24.5965  -20.3797   -9.6490 C   0  0  0  0  0  0  0  0  0  0  0  0
   25.1310  -19.3819   -8.8777 C   0  0  0  0  0  0  0  0  0  0  0  0
   26.4926  -19.2744   -8.7435 C   0  0  0  0  0  0  0  0  0  0  0  0
   27.3325  -20.1625   -9.3785 C   0  0  0  0  0  0  0  0  0  0  0  0
   26.7944  -21.1847  -10.1707 C   0  0  0  0  0  0  0  0  0  0  0  0
   25.4364  -21.2771  -10.2936 C   0  0  0  0  0  0  0  0  0  0  0  0
   21.2812  -21.3801  -11.0836 O   0  0  0  0  0  0  0  0  0  0  0  0
   20.8129  -22.5464  -10.4327 O   0  0  0  0  0  0  0  0  0  0  0  0
  2  1  1  0
  3  2  2  0
  4  2  1  0
  5  4  1  0
  6  5  1  0
  7  6  1  0
  8  7  1  0
  8  9  1  6
 10  8  1  0
 10 11  2  0
 13 12  1  6
 13 15  1  0
 13 14  1  0
 15 16  1  1
 16 10  1  0
 17 15  1  0
 18 17  2  0
 19 17  1  0
 20 28  1  0
 20 19  1  0
 20 21  1  1
 22 21  1  0
 22 23  2  0
 24 23  1  0
 25 24  2  0
 26 27  2  0
 26 25  1  0
 27 22  1  0
 28 29  1  0
 30 28  2  0
M  END
$$$$
