RTF.pdb
     RDKit          3D

 30 30  0  0  1  0  0  0  0  0999 V2000
   28.4354  -26.2250  -16.4659 N   0  0  0  0  0  0  0  0  0  0  0  0
   27.1807  -25.5783  -16.4702 C   0  0  0  0  0  0  0  0  0  0  0  0
   26.1526  -26.1895  -15.9397 N   0  0  0  0  0  0  0  0  0  0  0  0
   26.9473  -24.2845  -17.0295 N   0  0  0  0  0  0  0  0  0  0  0  0
   27.8334  -23.6751  -17.9592 C   0  0  0  0  0  0  0  0  0  0  0  0
   28.6326  -22.5360  -17.3834 C   0  0  0  0  0  0  0  0  0  0  0  0
   27.8556  -21.6969  -16.3857 C   0  0  0  0  0  0  0  0  0  0  0  0
   27.3132  -20.4937  -17.1403 C   0  0  2  0  0  0  0  0  0  0  0  0
   28.4916  -19.6662  -17.4197 N   0  0  0  0  0  0  0  0  0  0  0  0
   26.3052  -19.7431  -16.3709 C   0  0  0  0  0  0  0  0  0  0  0  0
   26.3752  -18.4873  -16.2053 O   0  0  0  0  0  0  0  0  0  0  0  0
   25.2270  -25.7010  -15.9795 C   0  0  0  0  0  0  0  0  0  0  0  0
   24.6777  -17.7826  -16.6007 C   0  0  2  0  0  0  0  0  0  0  0  0
   23.5263  -18.6699  -16.1414 O   0  0  0  0  0  0  0  0  0  0  0  0
   22.8750  -19.1788  -17.2664 C   0  0  2  0  0  0  0  0  0  0  0  0
   24.0906  -19.7226  -15.2451 N   0  0  0  0  0  0  0  0  0  0  0  0
   25.2163  -20.4438  -15.7942 C   0  0  0  0  0  0  0  0  0  0  0  0
   23.0690  -20.6287  -14.6701 O   0  0  0  0  0  0  0  0  0  0  0  0
   23.0036  -21.7780  -15.2460 N   0  0  0  0  0  0  0  0  0  0  0  0
   22.2093  -20.3694  -13.6084 C   0  0  2  0  0  0  0  0  0  0  0  0
   21.2475  -21.3098  -13.0438 C   0  0  0  0  0  0  0  0  0  0  0  0
   20.6430  -20.5392  -11.8503 C   0  0  0  0  0  0  0  0  0  0  0  0
   19.8939  -19.3450  -12.2408 C   0  0  0  0  0  0  0  0  0  0  0  0
   18.5243  -19.3574  -12.2468 C   0  0  0  0  0  0  0  0  0  0  0  0
   17.8304  -18.2263  -12.5974 C   0  0  0  0  0  0  0  0  0  0  0  0
   18.4983  -17.0729  -12.9451 C   0  0  0  0  0  0  0  0  0  0  0  0
   19.8989  -17.0520  -12.9434 C   0  0  0  0  0  0  0  0  0  0  0  0
   20.5740  -18.1872  -12.5918 C   0  0  0  0  0  0  0  0  0  0  0  0
   20.1814  -21.6614  -13.9587 O   0  0  0  0  0  0  0  0  0  0  0  0
   19.3527  -22.7762  -13.6876 O   0  0  0  0  0  0  0  0  0  0  0  0
  2  1  1  0
  3  2  2  0
  4  2  1  0
  5  4  1  0
  6  5  1  0
  7  6  1  0
  8  7  1  0
  8  9  1  1
 10  8  1  0
 10 11  2  0
 13 12  1  6
 13 15  1  0
 13 14  1  0
 15 16  1  1
 16 10  1  0
 17 15  1  0
 18 17  2  0
 19 17  1  0
 20 28  1  0
 20 19  1  0
 20 21  1  6
 22 21  1  0
 22 23  2  0
 24 23  1  0
 25 24  2  0
 26 27  2  0
 26 25  1  0
 27 22  1  0
 28 29  1  0
 30 28  2  0
M  END
$$$$
