RTF.pdb
     RDKit          3D

 30 30  0  0  1  0  0  0  0  0999 V2000
   21.0872  -25.4647  -15.5059 N   0  0  0  0  0  0  0  0  0  0  0  0
   20.4005  -24.7791  -16.5310 C   0  0  0  0  0  0  0  0  0  0  0  0
   19.3257  -25.3210  -17.0440 N   0  0  0  0  0  0  0  0  0  0  0  0
   20.8068  -23.5171  -17.0634 N   0  0  0  0  0  0  0  0  0  0  0  0
   21.7943  -22.7017  -16.4461 C   0  0  0  0  0  0  0  0  0  0  0  0
   22.1026  -23.0884  -15.0237 C   0  0  0  0  0  0  0  0  0  0  0  0
   23.5770  -23.3484  -14.7748 C   0  0  0  0  0  0  0  0  0  0  0  0
   24.2597  -21.9935  -14.6778 C   0  0  2  0  0  0  0  0  0  0  0  0
   24.4517  -21.5719  -16.0694 N   0  0  0  0  0  0  0  0  0  0  0  0
   25.5431  -22.0504  -13.9562 C   0  0  0  0  0  0  0  0  0  0  0  0
   26.6414  -22.2917  -14.5435 O   0  0  0  0  0  0  0  0  0  0  0  0
   18.8483  -24.8051  -17.8204 C   0  0  0  0  0  0  0  0  0  0  0  0
   27.5649  -20.4205  -14.0226 C   0  0  2  0  0  0  0  0  0  0  0  0
   27.3324  -20.1033  -12.5497 O   0  0  0  0  0  0  0  0  0  0  0  0
   26.5231  -18.9698  -12.4567 C   0  0  2  0  0  0  0  0  0  0  0  0
   26.7443  -21.3171  -11.9087 N   0  0  0  0  0  0  0  0  0  0  0  0
   25.5572  -21.8273  -12.5564 C   0  0  0  0  0  0  0  0  0  0  0  0
   26.5760  -21.1962  -10.4416 O   0  0  0  0  0  0  0  0  0  0  0  0
   25.3672  -20.9559  -10.0703 N   0  0  0  0  0  0  0  0  0  0  0  0
   27.5583  -21.3153   -9.4645 C   0  0  2  0  0  0  0  0  0  0  0  0
   27.3679  -21.0914   -8.0357 C   0  0  0  0  0  0  0  0  0  0  0  0
   28.7580  -20.6246   -7.5523 C   0  0  0  0  0  0  0  0  0  0  0  0
   28.8169  -20.3421   -6.1182 C   0  0  0  0  0  0  0  0  0  0  0  0
   29.1801  -21.3223   -5.2332 C   0  0  0  0  0  0  0  0  0  0  0  0
   29.2499  -21.0425   -3.8914 C   0  0  0  0  0  0  0  0  0  0  0  0
   28.9574  -19.7811   -3.4216 C   0  0  0  0  0  0  0  0  0  0  0  0
   28.5832  -18.7732   -4.3195 C   0  0  0  0  0  0  0  0  0  0  0  0
   28.5187  -19.0692   -5.6522 C   0  0  0  0  0  0  0  0  0  0  0  0
   26.4002  -20.0557   -7.7393 O   0  0  0  0  0  0  0  0  0  0  0  0
   25.3914  -20.2827   -6.7729 O   0  0  0  0  0  0  0  0  0  0  0  0
  2  1  1  0
  3  2  2  0
  4  2  1  0
  5  4  1  0
  6  5  1  0
  7  6  1  0
  8  7  1  0
  8  9  1  6
 10  8  1  0
 10 11  2  0
 13 12  1  1
 13 15  1  0
 13 14  1  0
 15 16  1  1
 16 10  1  0
 17 15  1  0
 18 17  2  0
 19 17  1  0
 20 28  1  0
 20 19  1  0
 20 21  1  6
 22 21  1  0
 22 23  2  0
 24 23  1  0
 25 24  2  0
 26 27  2  0
 26 25  1  0
 27 22  1  0
 28 29  1  0
 30 28  2  0
M  END
$$$$
