RTF.pdb
     RDKit          3D

 30 30  0  0  1  0  0  0  0  0999 V2000
   24.6585  -27.4133  -15.5993 N   0  0  0  0  0  0  0  0  0  0  0  0
   23.8874  -26.5437  -16.4001 C   0  0  0  0  0  0  0  0  0  0  0  0
   22.5826  -26.6264  -16.3479 N   0  0  0  0  0  0  0  0  0  0  0  0
   24.4395  -25.5677  -17.2855 N   0  0  0  0  0  0  0  0  0  0  0  0
   25.8335  -25.3006  -17.3660 C   0  0  0  0  0  0  0  0  0  0  0  0
   26.5442  -25.3636  -16.0399 C   0  0  0  0  0  0  0  0  0  0  0  0
   27.4541  -24.1758  -15.7855 C   0  0  0  0  0  0  0  0  0  0  0  0
   26.5968  -22.9249  -15.8936 C   0  0  2  0  0  0  0  0  0  0  0  0
   26.8541  -22.4118  -17.2434 N   0  0  0  0  0  0  0  0  0  0  0  0
   26.9236  -21.9175  -14.8692 C   0  0  0  0  0  0  0  0  0  0  0  0
   27.9969  -21.2418  -14.9004 O   0  0  0  0  0  0  0  0  0  0  0  0
   22.0328  -25.9834  -16.9653 C   0  0  0  0  0  0  0  0  0  0  0  0
   25.5009  -18.8515  -14.4040 C   0  0  2  0  0  0  0  0  0  0  0  0
   25.2829  -19.4597  -13.0232 O   0  0  0  0  0  0  0  0  0  0  0  0
   23.9389  -19.8152  -12.8961 C   0  0  2  0  0  0  0  0  0  0  0  0
   26.2258  -20.6083  -12.8762 N   0  0  0  0  0  0  0  0  0  0  0  0
   26.0098  -21.6905  -13.8097 C   0  0  0  0  0  0  0  0  0  0  0  0
   26.3698  -21.0889  -11.4821 O   0  0  0  0  0  0  0  0  0  0  0  0
   25.6838  -22.1456  -11.2181 N   0  0  0  0  0  0  0  0  0  0  0  0
   27.1459  -20.5328  -10.4712 C   0  0  1  0  0  0  0  0  0  0  0  0
   27.0132  -20.8126   -9.0457 C   0  0  0  0  0  0  0  0  0  0  0  0
   28.0440  -19.8671   -8.3920 C   0  0  0  0  0  0  0  0  0  0  0  0
   28.0653  -19.9411   -6.9312 C   0  0  0  0  0  0  0  0  0  0  0  0
   27.3995  -19.0089   -6.1804 C   0  0  0  0  0  0  0  0  0  0  0  0
   27.4106  -19.0973   -4.8108 C   0  0  0  0  0  0  0  0  0  0  0  0
   28.0868  -20.1176   -4.1790 C   0  0  0  0  0  0  0  0  0  0  0  0
   28.7719  -21.0741   -4.9391 C   0  0  0  0  0  0  0  0  0  0  0  0
   28.7507  -20.9709   -6.3017 C   0  0  0  0  0  0  0  0  0  0  0  0
   25.6999  -20.5051   -8.5187 O   0  0  0  0  0  0  0  0  0  0  0  0
   25.1353  -21.3141   -7.5038 O   0  0  0  0  0  0  0  0  0  0  0  0
  2  1  1  0
  3  2  2  0
  4  2  1  0
  5  4  1  0
  6  5  1  0
  7  6  1  0
  8  7  1  0
  8  9  1  6
 10  8  1  0
 10 11  2  0
 13 12  1  1
 13 15  1  0
 13 14  1  0
 15 16  1  1
 16 10  1  0
 17 15  1  0
 18 17  2  0
 19 17  1  0
 20 28  1  0
 20 19  1  0
 20 21  1  1
 22 21  1  0
 22 23  2  0
 24 23  1  0
 25 24  2  0
 26 27  2  0
 26 25  1  0
 27 22  1  0
 28 29  1  0
 30 28  2  0
M  END
$$$$
