RTF.pdb
     RDKit          3D

 30 30  0  0  1  0  0  0  0  0999 V2000
   23.3386  -27.8555  -14.5274 N   0  0  0  0  0  0  0  0  0  0  0  0
   22.1712  -27.4197  -15.1905 C   0  0  0  0  0  0  0  0  0  0  0  0
   21.0273  -27.9796  -14.8905 N   0  0  0  0  0  0  0  0  0  0  0  0
   22.1502  -26.3984  -16.1893 N   0  0  0  0  0  0  0  0  0  0  0  0
   23.2936  -25.6222  -16.5227 C   0  0  0  0  0  0  0  0  0  0  0  0
   24.3133  -25.5328  -15.4182 C   0  0  0  0  0  0  0  0  0  0  0  0
   25.4909  -24.6366  -15.7548 C   0  0  0  0  0  0  0  0  0  0  0  0
   25.0804  -23.2127  -15.4157 C   0  0  2  0  0  0  0  0  0  0  0  0
   24.7932  -22.5884  -16.7115 N   0  0  0  0  0  0  0  0  0  0  0  0
   26.1273  -22.4736  -14.6884 C   0  0  0  0  0  0  0  0  0  0  0  0
   27.1873  -22.0662  -15.2540 O   0  0  0  0  0  0  0  0  0  0  0  0
   20.1656  -27.5877  -15.3385 C   0  0  0  0  0  0  0  0  0  0  0  0
   25.2587  -19.3985  -13.4099 C   0  0  2  0  0  0  0  0  0  0  0  0
   26.7121  -19.8509  -13.3242 O   0  0  0  0  0  0  0  0  0  0  0  0
   27.4486  -18.8715  -12.6556 C   0  0  1  0  0  0  0  0  0  0  0  0
   26.7361  -21.1848  -12.6534 N   0  0  0  0  0  0  0  0  0  0  0  0
   25.9485  -22.2046  -13.3082 C   0  0  0  0  0  0  0  0  0  0  0  0
   26.4786  -21.1255  -11.1955 O   0  0  0  0  0  0  0  0  0  0  0  0
   25.2362  -20.9900  -10.8874 N   0  0  0  0  0  0  0  0  0  0  0  0
   27.4120  -21.2019  -10.1676 C   0  0  2  0  0  0  0  0  0  0  0  0
   27.1543  -20.9104   -8.7616 C   0  0  0  0  0  0  0  0  0  0  0  0
   28.4270  -20.1647   -8.3057 C   0  0  0  0  0  0  0  0  0  0  0  0
   28.4395  -19.8422   -6.8789 C   0  0  0  0  0  0  0  0  0  0  0  0
   27.6952  -18.7976   -6.3982 C   0  0  0  0  0  0  0  0  0  0  0  0
   27.6995  -18.5141   -5.0553 C   0  0  0  0  0  0  0  0  0  0  0  0
   28.4471  -19.2714   -4.1807 C   0  0  0  0  0  0  0  0  0  0  0  0
   29.2126  -20.3403   -4.6641 C   0  0  0  0  0  0  0  0  0  0  0  0
   29.1970  -20.6085   -6.0041 C   0  0  0  0  0  0  0  0  0  0  0  0
   26.0098  -20.0481   -8.5531 O   0  0  0  0  0  0  0  0  0  0  0  0
   25.0007  -20.4185   -7.6323 O   0  0  0  0  0  0  0  0  0  0  0  0
  2  1  1  0
  3  2  2  0
  4  2  1  0
  5  4  1  0
  6  5  1  0
  7  6  1  0
  8  7  1  0
  8  9  1  6
 10  8  1  0
 10 11  2  0
 13 12  1  6
 13 15  1  0
 13 14  1  0
 15 16  1  6
 16 10  1  0
 17 15  1  0
 18 17  2  0
 19 17  1  0
 20 28  1  0
 20 19  1  0
 20 21  1  6
 22 21  1  0
 22 23  2  0
 24 23  1  0
 25 24  2  0
 26 27  2  0
 26 25  1  0
 27 22  1  0
 28 29  1  0
 30 28  2  0
M  END
$$$$
