RTF.pdb
     RDKit          3D

 30 30  0  0  1  0  0  0  0  0999 V2000
   30.3435  -15.8191  -16.9684 N   0  0  0  0  0  0  0  0  0  0  0  0
   29.5777  -16.5384  -17.9110 C   0  0  0  0  0  0  0  0  0  0  0  0
   29.3911  -16.0233  -19.0992 N   0  0  0  0  0  0  0  0  0  0  0  0
   28.9744  -17.8075  -17.6532 N   0  0  0  0  0  0  0  0  0  0  0  0
   28.7993  -18.3258  -16.3411 C   0  0  0  0  0  0  0  0  0  0  0  0
   28.1714  -17.3519  -15.3793 C   0  0  0  0  0  0  0  0  0  0  0  0
   26.6603  -17.4697  -15.3011 C   0  0  0  0  0  0  0  0  0  0  0  0
   26.3385  -18.9345  -15.0520 C   0  0  2  0  0  0  0  0  0  0  0  0
   25.6132  -19.3665  -16.2515 N   0  0  0  0  0  0  0  0  0  0  0  0
   25.5317  -19.1440  -13.8370 C   0  0  0  0  0  0  0  0  0  0  0  0
   24.2926  -18.8758  -13.7909 O   0  0  0  0  0  0  0  0  0  0  0  0
   28.8948  -16.6126  -19.8086 C   0  0  0  0  0  0  0  0  0  0  0  0
   24.7485  -22.1990  -12.2442 C   0  0  1  0  0  0  0  0  0  0  0  0
   24.2106  -20.8672  -11.7331 O   0  0  0  0  0  0  0  0  0  0  0  0
   23.4405  -21.1018  -10.5926 C   0  0  1  0  0  0  0  0  0  0  0  0
   25.3764  -19.9644  -11.4970 N   0  0  0  0  0  0  0  0  0  0  0  0
   26.1567  -19.6644  -12.6760 C   0  0  0  0  0  0  0  0  0  0  0  0
   26.2232  -20.3690  -10.3505 O   0  0  0  0  0  0  0  0  0  0  0  0
   27.0603  -21.3083  -10.6225 N   0  0  0  0  0  0  0  0  0  0  0  0
   26.2044  -19.8510   -9.0602 C   0  0  1  0  0  0  0  0  0  0  0  0
   26.9117  -20.4052   -7.9110 C   0  0  0  0  0  0  0  0  0  0  0  0
   27.4870  -19.1598   -7.2028 C   0  0  0  0  0  0  0  0  0  0  0  0
   28.2138  -19.4676   -5.9711 C   0  0  0  0  0  0  0  0  0  0  0  0
   29.1985  -20.4196   -5.9672 C   0  0  0  0  0  0  0  0  0  0  0  0
   29.8870  -20.6886   -4.8108 C   0  0  0  0  0  0  0  0  0  0  0  0
   29.5979  -20.0091   -3.6480 C   0  0  0  0  0  0  0  0  0  0  0  0
   28.5911  -19.0352   -3.6427 C   0  0  0  0  0  0  0  0  0  0  0  0
   27.9154  -18.7802   -4.8029 C   0  0  0  0  0  0  0  0  0  0  0  0
   26.0463  -21.1080   -6.9867 O   0  0  0  0  0  0  0  0  0  0  0  0
   26.5994  -21.9889   -6.0269 O   0  0  0  0  0  0  0  0  0  0  0  0
  2  1  1  0
  3  2  2  0
  4  2  1  0
  5  4  1  0
  6  5  1  0
  7  6  1  0
  8  7  1  0
  8  9  1  6
 10  8  1  0
 10 11  2  0
 13 12  1  6
 13 15  1  0
 13 14  1  0
 15 16  1  6
 16 10  1  0
 17 15  1  0
 18 17  2  0
 19 17  1  0
 20 28  1  0
 20 19  1  0
 20 21  1  1
 22 21  1  0
 22 23  2  0
 24 23  1  0
 25 24  2  0
 26 27  2  0
 26 25  1  0
 27 22  1  0
 28 29  1  0
 30 28  2  0
M  END
$$$$
