RTF.pdb
     RDKit          3D

 30 30  0  0  1  0  0  0  0  0999 V2000
   20.7431  -11.6682  -16.9554 N   0  0  0  0  0  0  0  0  0  0  0  0
   21.9947  -12.2216  -17.3011 C   0  0  0  0  0  0  0  0  0  0  0  0
   22.5450  -11.8797  -18.4379 N   0  0  0  0  0  0  0  0  0  0  0  0
   22.7127  -13.1512  -16.4878 N   0  0  0  0  0  0  0  0  0  0  0  0
   23.9643  -13.7055  -16.8716 C   0  0  0  0  0  0  0  0  0  0  0  0
   23.9319  -15.1960  -17.0839 C   0  0  0  0  0  0  0  0  0  0  0  0
   22.6026  -15.8295  -16.7166 C   0  0  0  0  0  0  0  0  0  0  0  0
   22.7098  -17.3116  -17.0376 C   0  0  2  0  0  0  0  0  0  0  0  0
   21.6790  -17.5489  -18.0537 N   0  0  0  0  0  0  0  0  0  0  0  0
   22.5020  -18.1688  -15.8572 C   0  0  0  0  0  0  0  0  0  0  0  0
   21.3458  -18.5089  -15.4610 O   0  0  0  0  0  0  0  0  0  0  0  0
   23.4533  -12.3354  -18.6913 C   0  0  0  0  0  0  0  0  0  0  0  0
   21.3983  -20.4068  -15.0134 C   0  0  2  0  0  0  0  0  0  0  0  0
   22.7258  -20.8098  -14.3813 O   0  0  0  0  0  0  0  0  0  0  0  0
   23.4102  -21.6438  -15.2672 C   0  0  2  0  0  0  0  0  0  0  0  0
   23.4662  -19.5593  -14.0380 N   0  0  0  0  0  0  0  0  0  0  0  0
   23.6302  -18.6335  -15.1358 C   0  0  0  0  0  0  0  0  0  0  0  0
   24.7339  -19.7963  -13.3086 O   0  0  0  0  0  0  0  0  0  0  0  0
   25.7709  -19.8658  -14.0680 N   0  0  0  0  0  0  0  0  0  0  0  0
   24.9061  -19.9424  -11.9365 C   0  0  1  0  0  0  0  0  0  0  0  0
   26.1762  -20.1801  -11.2595 C   0  0  0  0  0  0  0  0  0  0  0  0
   25.9518  -19.5937   -9.8490 C   0  0  0  0  0  0  0  0  0  0  0  0
   24.6944  -20.0145   -9.2311 C   0  0  0  0  0  0  0  0  0  0  0  0
   24.6982  -20.8999   -8.1860 C   0  0  0  0  0  0  0  0  0  0  0  0
   23.5146  -21.2748   -7.6012 C   0  0  0  0  0  0  0  0  0  0  0  0
   22.3166  -20.7687   -8.0551 C   0  0  0  0  0  0  0  0  0  0  0  0
   22.3033  -19.8641   -9.1245 C   0  0  0  0  0  0  0  0  0  0  0  0
   23.4911  -19.5018   -9.6953 C   0  0  0  0  0  0  0  0  0  0  0  0
   26.5067  -21.5843  -11.1324 O   0  0  0  0  0  0  0  0  0  0  0  0
   25.5988  -22.5708  -11.5857 O   0  0  0  0  0  0  0  0  0  0  0  0
  2  1  1  0
  3  2  2  0
  4  2  1  0
  5  4  1  0
  6  5  1  0
  7  6  1  0
  8  7  1  0
  8  9  1  6
 10  8  1  0
 10 11  2  0
 13 12  1  1
 13 15  1  0
 13 14  1  0
 15 16  1  1
 16 10  1  0
 17 15  1  0
 18 17  2  0
 19 17  1  0
 20 28  1  0
 20 19  1  0
 20 21  1  1
 22 21  1  0
 22 23  2  0
 24 23  1  0
 25 24  2  0
 26 27  2  0
 26 25  1  0
 27 22  1  0
 28 29  1  0
 30 28  2  0
M  END
$$$$
