RTF.pdb
     RDKit          3D

 30 30  0  0  1  0  0  0  0  0999 V2000
   23.1257  -14.9814  -16.4401 N   0  0  0  0  0  0  0  0  0  0  0  0
   24.2373  -14.1833  -16.7862 C   0  0  0  0  0  0  0  0  0  0  0  0
   24.0965  -13.2714  -17.7139 N   0  0  0  0  0  0  0  0  0  0  0  0
   25.5302  -14.3077  -16.1912 N   0  0  0  0  0  0  0  0  0  0  0  0
   25.8234  -15.2581  -15.1754 C   0  0  0  0  0  0  0  0  0  0  0  0
   26.8861  -16.2534  -15.5597 C   0  0  0  0  0  0  0  0  0  0  0  0
   27.2521  -17.2088  -14.4387 C   0  0  0  0  0  0  0  0  0  0  0  0
   26.5007  -18.5056  -14.6935 C   0  0  2  0  0  0  0  0  0  0  0  0
   25.5912  -18.1983  -15.8024 N   0  0  0  0  0  0  0  0  0  0  0  0
   25.7590  -18.9784  -13.5112 C   0  0  0  0  0  0  0  0  0  0  0  0
   24.6486  -18.4747  -13.1610 O   0  0  0  0  0  0  0  0  0  0  0  0
   24.9612  -12.7825  -18.0457 C   0  0  0  0  0  0  0  0  0  0  0  0
   23.8670  -21.5731  -13.0096 C   0  0  2  0  0  0  0  0  0  0  0  0
   24.8339  -21.8237  -11.8578 O   0  0  0  0  0  0  0  0  0  0  0  0
   25.6605  -22.8980  -12.1911 C   0  0  2  0  0  0  0  0  0  0  0  0
   25.5737  -20.5528  -11.5982 N   0  0  0  0  0  0  0  0  0  0  0  0
   26.3002  -20.0336  -12.7348 C   0  0  0  0  0  0  0  0  0  0  0  0
   26.4003  -20.5827  -10.3689 O   0  0  0  0  0  0  0  0  0  0  0  0
   27.6490  -20.8113  -10.5820 N   0  0  0  0  0  0  0  0  0  0  0  0
   25.9754  -20.3926   -9.0586 C   0  0  1  0  0  0  0  0  0  0  0  0
   26.7157  -20.7735   -7.8608 C   0  0  0  0  0  0  0  0  0  0  0  0
   27.5971  -19.5396   -7.5703 C   0  0  0  0  0  0  0  0  0  0  0  0
   28.3146  -19.6167   -6.2978 C   0  0  0  0  0  0  0  0  0  0  0  0
   28.0487  -18.7201   -5.2970 C   0  0  0  0  0  0  0  0  0  0  0  0
   28.7143  -18.8117   -4.1003 C   0  0  0  0  0  0  0  0  0  0  0  0
   29.6514  -19.7997   -3.8925 C   0  0  0  0  0  0  0  0  0  0  0  0
   29.9308  -20.7196   -4.9112 C   0  0  0  0  0  0  0  0  0  0  0  0
   29.2589  -20.6137   -6.0967 C   0  0  0  0  0  0  0  0  0  0  0  0
   25.8670  -21.0197   -6.7136 O   0  0  0  0  0  0  0  0  0  0  0  0
   26.4190  -21.5511   -5.5236 O   0  0  0  0  0  0  0  0  0  0  0  0
  2  1  1  0
  3  2  2  0
  4  2  1  0
  5  4  1  0
  6  5  1  0
  7  6  1  0
  8  7  1  0
  8  9  1  6
 10  8  1  0
 10 11  2  0
 13 12  1  1
 13 15  1  0
 13 14  1  0
 15 16  1  1
 16 10  1  0
 17 15  1  0
 18 17  2  0
 19 17  1  0
 20 28  1  0
 20 19  1  0
 20 21  1  1
 22 21  1  0
 22 23  2  0
 24 23  1  0
 25 24  2  0
 26 27  2  0
 26 25  1  0
 27 22  1  0
 28 29  1  0
 30 28  2  0
M  END
$$$$
