QSW.pdb
     RDKit          3D

 30 31  0  0  1  0  0  0  0  0999 V2000
   24.6748  -25.2673  -15.8381 N   0  0  0  0  0  0  0  0  0  0  0  0
   25.9369  -25.4337  -16.4431 C   0  0  0  0  0  0  0  0  0  0  0  0
   26.3531  -26.6013  -16.6875 O   0  0  0  0  0  0  0  0  0  0  0  0
   26.8054  -24.2748  -16.8128 C   0  0  0  0  0  0  0  0  0  0  0  0
   26.0924  -23.0385  -16.3473 C   0  0  0  0  0  0  0  0  0  0  0  0
   26.8743  -21.7528  -16.5490 C   0  0  2  0  0  0  0  0  0  0  0  0
   28.2362  -22.1484  -16.9636 N   0  0  0  0  0  0  0  0  0  0  0  0
   27.0102  -21.0872  -15.2260 C   0  0  0  0  0  0  0  0  0  0  0  0
   28.1670  -20.7986  -14.8019 O   0  0  0  0  0  0  0  0  0  0  0  0
   23.6004  -19.9689  -13.1370 O   0  0  0  0  0  0  0  0  0  0  0  0
   24.7032  -19.1212  -13.0682 C   0  0  0  0  0  0  0  0  0  0  0  0
   25.9483  -20.0082  -13.2014 C   0  0  2  0  0  0  0  0  0  0  0  0
   25.9121  -20.7555  -14.4143 N   0  0  0  0  0  0  0  0  0  0  0  0
   25.9833  -20.8228  -11.9806 C   0  0  0  0  0  0  0  0  0  0  0  0
   25.4817  -22.0023  -12.1303 O   0  0  0  0  0  0  0  0  0  0  0  0
   26.5070  -20.4158  -10.7329 N   0  0  0  0  0  0  0  0  0  0  0  0
   26.4820  -21.3421   -9.6315 C   0  0  1  0  0  0  0  0  0  0  0  0
   27.7394  -21.2574   -8.8047 C   0  0  0  0  0  0  0  0  0  0  0  0
   27.7274  -20.2671   -7.7252 C   0  0  0  0  0  0  0  0  0  0  0  0
   26.9982  -19.0653   -7.8240 C   0  0  0  0  0  0  0  0  0  0  0  0
   27.1536  -18.3855   -6.6778 N   0  0  0  0  0  0  0  0  0  0  0  0
   27.9358  -19.0604   -5.8313 C   0  0  0  0  0  0  0  0  0  0  0  0
   28.3836  -18.7827   -4.5650 C   0  0  0  0  0  0  0  0  0  0  0  0
   29.2017  -19.7071   -3.9644 C   0  0  0  0  0  0  0  0  0  0  0  0
   29.5978  -20.8822   -4.5477 C   0  0  0  0  0  0  0  0  0  0  0  0
   29.1236  -21.1301   -5.8345 C   0  0  0  0  0  0  0  0  0  0  0  0
   28.2869  -20.2196   -6.4859 C   0  0  0  0  0  0  0  0  0  0  0  0
   25.2371  -21.2287   -8.8720 C   0  0  0  0  0  0  0  0  0  0  0  0
   24.3436  -20.3530   -9.0842 O   0  0  0  0  0  0  0  0  0  0  0  0
   24.9568  -22.1178   -7.8370 O   0  0  0  0  0  0  0  0  0  0  0  0
  2  1  1  0
  3  2  2  0
  4  2  1  0
  5  6  1  0
  5  4  1  0
  6  8  1  0
  6  7  1  1
  8  9  2  0
 10 11  1  0
 12 11  1  1
 12 14  1  0
 13  8  1  0
 13 12  1  0
 14 15  2  0
 16 17  1  0
 16 14  1  0
 17 28  1  0
 17 18  1  1
 19 18  1  0
 20 19  2  0
 21 22  1  0
 21 20  1  0
 22 27  2  0
 23 22  1  0
 23 24  2  0
 24 25  1  0
 25 26  2  0
 27 19  1  0
 27 26  1  0
 28 29  2  0
 28 30  1  0
M  END
$$$$
