QSW.pdb
     RDKit          3D

 30 31  0  0  1  0  0  0  0  0999 V2000
   23.7732  -24.6813  -18.2726 N   0  0  0  0  0  0  0  0  0  0  0  0
   24.2282  -25.8661  -18.8856 C   0  0  0  0  0  0  0  0  0  0  0  0
   23.6894  -26.2481  -19.9627 O   0  0  0  0  0  0  0  0  0  0  0  0
   25.3332  -26.6912  -18.3091 C   0  0  0  0  0  0  0  0  0  0  0  0
   25.8502  -25.9420  -17.1154 C   0  0  0  0  0  0  0  0  0  0  0  0
   27.0184  -25.0195  -17.4145 C   0  0  2  0  0  0  0  0  0  0  0  0
   28.2382  -25.8511  -17.3547 N   0  0  0  0  0  0  0  0  0  0  0  0
   27.1209  -24.0357  -16.3039 C   0  0  0  0  0  0  0  0  0  0  0  0
   27.4388  -24.4462  -15.1499 O   0  0  0  0  0  0  0  0  0  0  0  0
   28.2550  -19.9916  -16.6028 O   0  0  0  0  0  0  0  0  0  0  0  0
   26.9797  -20.2512  -16.1070 C   0  0  0  0  0  0  0  0  0  0  0  0
   27.0297  -21.6489  -15.4757 C   0  0  2  0  0  0  0  0  0  0  0  0
   26.8843  -22.6603  -16.4690 N   0  0  0  0  0  0  0  0  0  0  0  0
   25.9876  -21.6511  -14.4418 C   0  0  0  0  0  0  0  0  0  0  0  0
   24.7877  -21.6797  -14.9157 O   0  0  0  0  0  0  0  0  0  0  0  0
   26.2106  -21.6307  -13.0466 N   0  0  0  0  0  0  0  0  0  0  0  0
   25.0790  -21.6938  -12.1594 C   0  0  1  0  0  0  0  0  0  0  0  0
   25.4594  -22.2503  -10.8113 C   0  0  0  0  0  0  0  0  0  0  0  0
   26.2604  -21.3675   -9.9597 C   0  0  0  0  0  0  0  0  0  0  0  0
   25.6743  -20.3493   -9.1815 C   0  0  0  0  0  0  0  0  0  0  0  0
   26.6480  -19.7372   -8.4905 N   0  0  0  0  0  0  0  0  0  0  0  0
   27.8352  -20.2854   -8.7618 C   0  0  0  0  0  0  0  0  0  0  0  0
   29.1036  -20.0097   -8.3188 C   0  0  0  0  0  0  0  0  0  0  0  0
   30.1294  -20.7750   -8.8153 C   0  0  0  0  0  0  0  0  0  0  0  0
   29.9668  -21.7902   -9.7214 C   0  0  0  0  0  0  0  0  0  0  0  0
   28.6644  -22.0411  -10.1491 C   0  0  0  0  0  0  0  0  0  0  0  0
   27.5876  -21.2897   -9.6704 C   0  0  0  0  0  0  0  0  0  0  0  0
   24.3652  -20.4178  -12.1193 C   0  0  0  0  0  0  0  0  0  0  0  0
   23.1564  -20.2821  -11.7579 O   0  0  0  0  0  0  0  0  0  0  0  0
   25.0064  -19.2371  -12.4869 O   0  0  0  0  0  0  0  0  0  0  0  0
  2  1  1  0
  3  2  2  0
  4  2  1  0
  5  6  1  0
  5  4  1  0
  6  8  1  0
  6  7  1  1
  8  9  2  0
 10 11  1  0
 12 11  1  6
 12 14  1  0
 13  8  1  0
 13 12  1  0
 14 15  2  0
 16 17  1  0
 16 14  1  0
 17 28  1  0
 17 18  1  1
 19 18  1  0
 20 19  2  0
 21 22  1  0
 21 20  1  0
 22 27  2  0
 23 22  1  0
 23 24  2  0
 24 25  1  0
 25 26  2  0
 27 19  1  0
 27 26  1  0
 28 29  2  0
 28 30  1  0
M  END
$$$$
