QSW.pdb
     RDKit          3D

 30 31  0  0  1  0  0  0  0  0999 V2000
   28.4753  -22.3092  -18.4592 N   0  0  0  0  0  0  0  0  0  0  0  0
   28.9007  -21.2594  -17.6205 C   0  0  0  0  0  0  0  0  0  0  0  0
   29.7085  -21.5102  -16.6819 O   0  0  0  0  0  0  0  0  0  0  0  0
   28.4334  -19.8513  -17.8023 C   0  0  0  0  0  0  0  0  0  0  0  0
   27.9745  -19.3742  -16.4550 C   0  0  0  0  0  0  0  0  0  0  0  0
   26.6498  -19.9616  -16.0019 C   0  0  2  0  0  0  0  0  0  0  0  0
   25.6015  -19.3184  -16.8208 N   0  0  0  0  0  0  0  0  0  0  0  0
   26.4146  -19.5316  -14.5978 C   0  0  0  0  0  0  0  0  0  0  0  0
   26.8939  -18.4274  -14.2074 O   0  0  0  0  0  0  0  0  0  0  0  0
   23.2752  -21.0847  -12.7425 O   0  0  0  0  0  0  0  0  0  0  0  0
   23.7233  -19.8476  -12.2859 C   0  0  0  0  0  0  0  0  0  0  0  0
   25.2549  -19.8738  -12.3777 C   0  0  2  0  0  0  0  0  0  0  0  0
   25.6790  -20.2915  -13.6726 N   0  0  0  0  0  0  0  0  0  0  0  0
   25.7001  -20.7390  -11.2784 C   0  0  0  0  0  0  0  0  0  0  0  0
   25.9806  -21.9431  -11.6479 O   0  0  0  0  0  0  0  0  0  0  0  0
   25.8354  -20.3503   -9.9267 N   0  0  0  0  0  0  0  0  0  0  0  0
   26.0407  -21.3656   -8.9273 C   0  0  1  0  0  0  0  0  0  0  0  0
   27.4457  -21.3339   -8.3826 C   0  0  0  0  0  0  0  0  0  0  0  0
   27.7828  -20.1733   -7.5546 C   0  0  0  0  0  0  0  0  0  0  0  0
   27.2682  -18.8897   -7.8253 C   0  0  0  0  0  0  0  0  0  0  0  0
   27.7245  -18.0485   -6.8849 N   0  0  0  0  0  0  0  0  0  0  0  0
   28.5044  -18.6934   -6.0134 C   0  0  0  0  0  0  0  0  0  0  0  0
   29.1941  -18.2748   -4.9042 C   0  0  0  0  0  0  0  0  0  0  0  0
   29.9253  -19.2139   -4.2200 C   0  0  0  0  0  0  0  0  0  0  0  0
   30.0100  -20.5349   -4.5743 C   0  0  0  0  0  0  0  0  0  0  0  0
   29.2965  -20.9235   -5.7067 C   0  0  0  0  0  0  0  0  0  0  0  0
   28.5365  -20.0038   -6.4346 C   0  0  0  0  0  0  0  0  0  0  0  0
   24.9867  -21.3322   -7.9137 C   0  0  0  0  0  0  0  0  0  0  0  0
   24.0468  -20.4801   -7.8827 O   0  0  0  0  0  0  0  0  0  0  0  0
   24.9587  -22.2779   -6.8914 O   0  0  0  0  0  0  0  0  0  0  0  0
  2  1  1  0
  3  2  2  0
  4  2  1  0
  5  6  1  0
  5  4  1  0
  6  8  1  0
  6  7  1  6
  8  9  2  0
 10 11  1  0
 12 11  1  6
 12 14  1  0
 13  8  1  0
 13 12  1  0
 14 15  2  0
 16 17  1  0
 16 14  1  0
 17 28  1  0
 17 18  1  1
 19 18  1  0
 20 19  2  0
 21 22  1  0
 21 20  1  0
 22 27  2  0
 23 22  1  0
 23 24  2  0
 24 25  1  0
 25 26  2  0
 27 19  1  0
 27 26  1  0
 28 29  2  0
 28 30  1  0
M  END
$$$$
