QSW.pdb
     RDKit          3D

 30 31  0  0  1  0  0  0  0  0999 V2000
   23.2818  -16.4996  -15.8687 N   0  0  0  0  0  0  0  0  0  0  0  0
   24.2985  -15.5372  -16.0329 C   0  0  0  0  0  0  0  0  0  0  0  0
   24.1086  -14.5700  -16.8234 O   0  0  0  0  0  0  0  0  0  0  0  0
   25.5990  -15.6150  -15.3004 C   0  0  0  0  0  0  0  0  0  0  0  0
   25.5482  -16.8627  -14.4672 C   0  0  0  0  0  0  0  0  0  0  0  0
   26.7779  -17.7451  -14.5876 C   0  0  2  0  0  0  0  0  0  0  0  0
   26.8406  -18.1908  -15.9948 N   0  0  0  0  0  0  0  0  0  0  0  0
   26.5491  -18.9637  -13.7664 C   0  0  0  0  0  0  0  0  0  0  0  0
   25.3882  -19.4658  -13.7264 O   0  0  0  0  0  0  0  0  0  0  0  0
   29.6255  -20.3453  -11.5119 O   0  0  0  0  0  0  0  0  0  0  0  0
   28.7916  -21.3850  -11.9159 C   0  0  0  0  0  0  0  0  0  0  0  0
   27.4230  -20.7592  -12.2161 C   0  0  2  0  0  0  0  0  0  0  0  0
   27.5634  -19.5960  -13.0274 N   0  0  0  0  0  0  0  0  0  0  0  0
   26.8033  -20.5218  -10.9066 C   0  0  0  0  0  0  0  0  0  0  0  0
   26.6281  -19.2725  -10.6352 O   0  0  0  0  0  0  0  0  0  0  0  0
   26.4081  -21.5207   -9.9886 N   0  0  0  0  0  0  0  0  0  0  0  0
   25.8545  -21.1221   -8.7212 C   0  0  1  0  0  0  0  0  0  0  0  0
   26.1485  -19.6756   -8.4159 C   0  0  0  0  0  0  0  0  0  0  0  0
   27.2873  -19.4299   -7.5278 C   0  0  0  0  0  0  0  0  0  0  0  0
   28.2607  -18.4525   -7.8164 C   0  0  0  0  0  0  0  0  0  0  0  0
   29.1506  -18.4382   -6.8126 N   0  0  0  0  0  0  0  0  0  0  0  0
   28.8272  -19.3405   -5.8825 C   0  0  0  0  0  0  0  0  0  0  0  0
   29.4178  -19.6992   -4.6977 C   0  0  0  0  0  0  0  0  0  0  0  0
   28.8194  -20.6952   -3.9666 C   0  0  0  0  0  0  0  0  0  0  0  0
   27.6767  -21.3504   -4.3445 C   0  0  0  0  0  0  0  0  0  0  0  0
   27.1052  -20.9595   -5.5540 C   0  0  0  0  0  0  0  0  0  0  0  0
   27.6771  -19.9492   -6.3321 C   0  0  0  0  0  0  0  0  0  0  0  0
   24.4451  -21.4990   -8.6165 C   0  0  0  0  0  0  0  0  0  0  0  0
   23.7691  -22.0191   -9.5561 O   0  0  0  0  0  0  0  0  0  0  0  0
   23.7469  -21.3018   -7.4275 O   0  0  0  0  0  0  0  0  0  0  0  0
  2  1  1  0
  3  2  2  0
  4  2  1  0
  5  6  1  0
  5  4  1  0
  6  8  1  0
  6  7  1  6
  8  9  2  0
 10 11  1  0
 12 11  1  1
 12 14  1  0
 13  8  1  0
 13 12  1  0
 14 15  2  0
 16 17  1  0
 16 14  1  0
 17 28  1  0
 17 18  1  6
 19 18  1  0
 20 19  2  0
 21 22  1  0
 21 20  1  0
 22 27  2  0
 23 22  1  0
 23 24  2  0
 24 25  1  0
 25 26  2  0
 27 19  1  0
 27 26  1  0
 28 29  2  0
 28 30  1  0
M  END
$$$$
