QSW.pdb
     RDKit          3D

 30 31  0  0  1  0  0  0  0  0999 V2000
   21.9713  -18.9271  -12.9655 N   0  0  0  0  0  0  0  0  0  0  0  0
   21.0277  -19.9013  -12.5821 C   0  0  0  0  0  0  0  0  0  0  0  0
   21.0606  -20.3608  -11.4056 O   0  0  0  0  0  0  0  0  0  0  0  0
   19.9805  -20.4122  -13.5183 C   0  0  0  0  0  0  0  0  0  0  0  0
   20.6994  -20.8934  -14.7450 C   0  0  0  0  0  0  0  0  0  0  0  0
   20.9932  -22.3830  -14.7534 C   0  0  2  0  0  0  0  0  0  0  0  0
   19.7920  -23.0524  -14.2129 N   0  0  0  0  0  0  0  0  0  0  0  0
   22.0928  -22.6382  -13.7852 C   0  0  0  0  0  0  0  0  0  0  0  0
   21.8250  -23.2218  -12.6947 O   0  0  0  0  0  0  0  0  0  0  0  0
   26.0150  -21.4141  -14.6227 O   0  0  0  0  0  0  0  0  0  0  0  0
   25.8237  -22.7012  -14.1263 C   0  0  0  0  0  0  0  0  0  0  0  0
   24.5638  -22.6520  -13.2516 C   0  0  2  0  0  0  0  0  0  0  0  0
   23.4272  -22.2653  -14.0194 N   0  0  0  0  0  0  0  0  0  0  0  0
   24.8903  -21.7478  -12.1421 C   0  0  0  0  0  0  0  0  0  0  0  0
   24.4292  -20.5523  -12.2953 O   0  0  0  0  0  0  0  0  0  0  0  0
   25.6286  -22.0926  -10.9877 N   0  0  0  0  0  0  0  0  0  0  0  0
   26.0844  -21.0440  -10.1135 C   0  0  1  0  0  0  0  0  0  0  0  0
   26.6269  -21.5949   -8.8197 C   0  0  0  0  0  0  0  0  0  0  0  0
   27.1484  -20.6051   -7.8739 C   0  0  0  0  0  0  0  0  0  0  0  0
   26.7444  -19.2554   -7.9086 C   0  0  0  0  0  0  0  0  0  0  0  0
   27.3614  -18.6075   -6.9089 N   0  0  0  0  0  0  0  0  0  0  0  0
   28.1438  -19.4411   -6.2184 C   0  0  0  0  0  0  0  0  0  0  0  0
   28.9641  -19.2549   -5.1351 C   0  0  0  0  0  0  0  0  0  0  0  0
   29.6527  -20.3459   -4.6658 C   0  0  0  0  0  0  0  0  0  0  0  0
   29.5735  -21.6013   -5.2093 C   0  0  0  0  0  0  0  0  0  0  0  0
   28.7307  -21.7523   -6.3089 C   0  0  0  0  0  0  0  0  0  0  0  0
   28.0079  -20.6714   -6.8212 C   0  0  0  0  0  0  0  0  0  0  0  0
   26.9790  -20.1223  -10.8131 C   0  0  0  0  0  0  0  0  0  0  0  0
   26.8497  -18.8599  -10.8167 O   0  0  0  0  0  0  0  0  0  0  0  0
   28.0667  -20.6052  -11.5368 O   0  0  0  0  0  0  0  0  0  0  0  0
  2  1  1  0
  3  2  2  0
  4  2  1  0
  5  6  1  0
  5  4  1  0
  6  8  1  0
  6  7  1  1
  8  9  2  0
 10 11  1  0
 12 11  1  6
 12 14  1  0
 13  8  1  0
 13 12  1  0
 14 15  2  0
 16 17  1  0
 16 14  1  0
 17 28  1  0
 17 18  1  1
 19 18  1  0
 20 19  2  0
 21 22  1  0
 21 20  1  0
 22 27  2  0
 23 22  1  0
 23 24  2  0
 24 25  1  0
 25 26  2  0
 27 19  1  0
 27 26  1  0
 28 29  2  0
 28 30  1  0
M  END
$$$$
