QSW.pdb
     RDKit          3D

 30 31  0  0  1  0  0  0  0  0999 V2000
   24.5164  -11.8796  -15.4077 N   0  0  0  0  0  0  0  0  0  0  0  0
   24.7976  -12.6521  -16.5526 C   0  0  0  0  0  0  0  0  0  0  0  0
   25.4639  -13.7183  -16.4274 O   0  0  0  0  0  0  0  0  0  0  0  0
   24.3316  -12.2583  -17.9171 C   0  0  0  0  0  0  0  0  0  0  0  0
   23.6421  -10.9331  -17.7692 C   0  0  0  0  0  0  0  0  0  0  0  0
   22.1678  -11.0312  -17.4199 C   0  0  2  0  0  0  0  0  0  0  0  0
   21.4732  -11.4774  -18.6453 N   0  0  0  0  0  0  0  0  0  0  0  0
   21.6741   -9.6590  -17.1282 C   0  0  0  0  0  0  0  0  0  0  0  0
   22.1783   -8.6812  -17.7537 O   0  0  0  0  0  0  0  0  0  0  0  0
   18.9106   -9.1533  -14.1483 O   0  0  0  0  0  0  0  0  0  0  0  0
   18.7677   -8.2325  -15.1833 C   0  0  0  0  0  0  0  0  0  0  0  0
   20.1436   -8.1046  -15.8506 C   0  0  2  0  0  0  0  0  0  0  0  0
   20.6656   -9.3869  -16.1882 N   0  0  0  0  0  0  0  0  0  0  0  0
   20.9673   -7.3361  -14.9093 C   0  0  0  0  0  0  0  0  0  0  0  0
   21.8162   -8.0561  -14.2565 O   0  0  0  0  0  0  0  0  0  0  0  0
   20.8914   -5.9413  -14.6961 N   0  0  0  0  0  0  0  0  0  0  0  0
   21.9259   -5.2965  -13.9308 C   0  0  1  0  0  0  0  0  0  0  0  0
   23.2972   -5.6164  -14.4685 C   0  0  0  0  0  0  0  0  0  0  0  0
   23.6402   -4.9963  -15.7507 C   0  0  0  0  0  0  0  0  0  0  0  0
   23.5026   -3.6110  -15.9694 C   0  0  0  0  0  0  0  0  0  0  0  0
   23.9221   -3.3397  -17.2146 N   0  0  0  0  0  0  0  0  0  0  0  0
   24.3272   -4.4541  -17.8292 C   0  0  0  0  0  0  0  0  0  0  0  0
   24.8244   -4.6882  -19.0859 C   0  0  0  0  0  0  0  0  0  0  0  0
   25.1417   -5.9836  -19.4115 C   0  0  0  0  0  0  0  0  0  0  0  0
   24.9924   -7.0511  -18.5654 C   0  0  0  0  0  0  0  0  0  0  0  0
   24.4842   -6.7751  -17.2974 C   0  0  0  0  0  0  0  0  0  0  0  0
   24.1485   -5.4721  -16.9197 C   0  0  0  0  0  0  0  0  0  0  0  0
   21.6487   -3.8704  -13.7611 C   0  0  0  0  0  0  0  0  0  0  0  0
   20.7076   -3.2477  -14.3416 O   0  0  0  0  0  0  0  0  0  0  0  0
   22.4346   -3.0932  -12.9135 O   0  0  0  0  0  0  0  0  0  0  0  0
  2  1  1  0
  3  2  2  0
  4  2  1  0
  5  6  1  0
  5  4  1  0
  6  8  1  0
  6  7  1  6
  8  9  2  0
 10 11  1  0
 12 11  1  1
 12 14  1  0
 13  8  1  0
 13 12  1  0
 14 15  2  0
 16 17  1  0
 16 14  1  0
 17 28  1  0
 17 18  1  6
 19 18  1  0
 20 19  2  0
 21 22  1  0
 21 20  1  0
 22 27  2  0
 23 22  1  0
 23 24  2  0
 24 25  1  0
 25 26  2  0
 27 19  1  0
 27 26  1  0
 28 29  2  0
 28 30  1  0
M  END
$$$$
