QSW.pdb
     RDKit          3D

 30 31  0  0  1  0  0  0  0  0999 V2000
   31.0650  -21.8378  -20.6226 N   0  0  0  0  0  0  0  0  0  0  0  0
   30.9834  -23.2389  -20.4928 C   0  0  0  0  0  0  0  0  0  0  0  0
   31.1702  -23.9634  -21.5110 O   0  0  0  0  0  0  0  0  0  0  0  0
   30.6867  -23.9051  -19.1881 C   0  0  0  0  0  0  0  0  0  0  0  0
   30.5998  -22.8151  -18.1597 C   0  0  0  0  0  0  0  0  0  0  0  0
   29.2068  -22.2404  -17.9742 C   0  0  2  0  0  0  0  0  0  0  0  0
   29.0840  -21.1173  -18.9264 N   0  0  0  0  0  0  0  0  0  0  0  0
   29.1326  -21.6507  -16.6110 C   0  0  0  0  0  0  0  0  0  0  0  0
   30.1970  -21.5306  -15.9372 O   0  0  0  0  0  0  0  0  0  0  0  0
   25.9879  -19.2760  -15.5700 O   0  0  0  0  0  0  0  0  0  0  0  0
   27.2317  -19.1347  -14.9597 C   0  0  0  0  0  0  0  0  0  0  0  0
   27.7921  -20.5508  -14.7713 C   0  0  2  0  0  0  0  0  0  0  0  0
   27.9325  -21.2124  -16.0257 N   0  0  0  0  0  0  0  0  0  0  0  0
   26.8817  -21.2119  -13.8284 C   0  0  0  0  0  0  0  0  0  0  0  0
   26.7443  -22.4771  -14.0415 O   0  0  0  0  0  0  0  0  0  0  0  0
   26.1962  -20.5819  -12.7654 N   0  0  0  0  0  0  0  0  0  0  0  0
   25.4164  -21.3890  -11.8642 C   0  0  1  0  0  0  0  0  0  0  0  0
   26.2522  -21.9197  -10.7277 C   0  0  0  0  0  0  0  0  0  0  0  0
   26.5355  -20.9716   -9.6474 C   0  0  0  0  0  0  0  0  0  0  0  0
   25.6160  -19.9716   -9.2729 C   0  0  0  0  0  0  0  0  0  0  0  0
   26.1374  -19.2873   -8.2433 N   0  0  0  0  0  0  0  0  0  0  0  0
   27.3382  -19.7711   -7.9152 C   0  0  0  0  0  0  0  0  0  0  0  0
   28.2490  -19.4111   -6.9550 C   0  0  0  0  0  0  0  0  0  0  0  0
   29.4190  -20.1264   -6.8903 C   0  0  0  0  0  0  0  0  0  0  0  0
   29.7327  -21.1703   -7.7209 C   0  0  0  0  0  0  0  0  0  0  0  0
   28.7836  -21.5072   -8.6842 C   0  0  0  0  0  0  0  0  0  0  0  0
   27.5772  -20.8093   -8.7873 C   0  0  0  0  0  0  0  0  0  0  0  0
   24.1929  -20.6981  -11.4580 C   0  0  0  0  0  0  0  0  0  0  0  0
   23.2452  -21.2376  -10.8089 O   0  0  0  0  0  0  0  0  0  0  0  0
   24.0016  -19.3548  -11.7727 O   0  0  0  0  0  0  0  0  0  0  0  0
  2  1  1  0
  3  2  2  0
  4  2  1  0
  5  6  1  0
  5  4  1  0
  6  8  1  0
  6  7  1  6
  8  9  2  0
 10 11  1  0
 12 11  1  6
 12 14  1  0
 13  8  1  0
 13 12  1  0
 14 15  2  0
 16 17  1  0
 16 14  1  0
 17 28  1  0
 17 18  1  1
 19 18  1  0
 20 19  2  0
 21 22  1  0
 21 20  1  0
 22 27  2  0
 23 22  1  0
 23 24  2  0
 24 25  1  0
 25 26  2  0
 27 19  1  0
 27 26  1  0
 28 29  2  0
 28 30  1  0
M  END
$$$$
