QSW.pdb
     RDKit          3D

 30 31  0  0  1  0  0  0  0  0999 V2000
   30.0071  -23.1268  -20.4005 N   0  0  0  0  0  0  0  0  0  0  0  0
   30.2319  -21.8743  -21.0067 C   0  0  0  0  0  0  0  0  0  0  0  0
   30.3325  -21.8085  -22.2645 O   0  0  0  0  0  0  0  0  0  0  0  0
   30.3525  -20.6127  -20.2144 C   0  0  0  0  0  0  0  0  0  0  0  0
   30.2353  -21.0008  -18.7691 C   0  0  0  0  0  0  0  0  0  0  0  0
   28.8085  -21.0719  -18.2548 C   0  0  2  0  0  0  0  0  0  0  0  0
   28.0845  -19.9363  -18.8623 N   0  0  0  0  0  0  0  0  0  0  0  0
   28.8371  -20.8216  -16.7891 C   0  0  0  0  0  0  0  0  0  0  0  0
   29.6473  -21.4777  -16.0718 O   0  0  0  0  0  0  0  0  0  0  0  0
   26.6058  -17.7748  -15.3412 O   0  0  0  0  0  0  0  0  0  0  0  0
   27.6677  -18.1163  -14.5072 C   0  0  0  0  0  0  0  0  0  0  0  0
   27.9611  -19.6019  -14.7554 C   0  0  2  0  0  0  0  0  0  0  0  0
   28.0068  -19.8842  -16.1516 N   0  0  0  0  0  0  0  0  0  0  0  0
   26.9276  -20.3360  -14.0153 C   0  0  0  0  0  0  0  0  0  0  0  0
   25.9739  -20.7818  -14.7616 O   0  0  0  0  0  0  0  0  0  0  0  0
   26.9220  -20.5716  -12.6220 N   0  0  0  0  0  0  0  0  0  0  0  0
   25.9181  -21.4408  -12.0667 C   0  0  1  0  0  0  0  0  0  0  0  0
   26.3489  -22.0120  -10.7400 C   0  0  0  0  0  0  0  0  0  0  0  0
   26.4142  -21.0614   -9.6273 C   0  0  0  0  0  0  0  0  0  0  0  0
   25.2966  -20.3000   -9.2306 C   0  0  0  0  0  0  0  0  0  0  0  0
   25.6522  -19.5528   -8.1745 N   0  0  0  0  0  0  0  0  0  0  0  0
   26.9289  -19.7725   -7.8496 C   0  0  0  0  0  0  0  0  0  0  0  0
   27.7356  -19.2539   -6.8691 C   0  0  0  0  0  0  0  0  0  0  0  0
   29.0338  -19.6973   -6.8152 C   0  0  0  0  0  0  0  0  0  0  0  0
   29.5712  -20.6189   -7.6753 C   0  0  0  0  0  0  0  0  0  0  0  0
   28.7221  -21.1232   -8.6585 C   0  0  0  0  0  0  0  0  0  0  0  0
   27.3923  -20.7034   -8.7518 C   0  0  0  0  0  0  0  0  0  0  0  0
   24.6042  -20.7981  -12.0625 C   0  0  0  0  0  0  0  0  0  0  0  0
   24.4180  -19.5440  -12.1162 O   0  0  0  0  0  0  0  0  0  0  0  0
   23.4425  -21.5643  -12.0020 O   0  0  0  0  0  0  0  0  0  0  0  0
  2  1  1  0
  3  2  2  0
  4  2  1  0
  5  6  1  0
  5  4  1  0
  6  8  1  0
  6  7  1  6
  8  9  2  0
 10 11  1  0
 12 11  1  6
 12 14  1  0
 13  8  1  0
 13 12  1  0
 14 15  2  0
 16 17  1  0
 16 14  1  0
 17 28  1  0
 17 18  1  1
 19 18  1  0
 20 19  2  0
 21 22  1  0
 21 20  1  0
 22 27  2  0
 23 22  1  0
 23 24  2  0
 24 25  1  0
 25 26  2  0
 27 19  1  0
 27 26  1  0
 28 29  2  0
 28 30  1  0
M  END
$$$$
