QSW.pdb
     RDKit          3D

 30 31  0  0  1  0  0  0  0  0999 V2000
   29.8607  -22.7796  -16.0086 N   0  0  0  0  0  0  0  0  0  0  0  0
   30.6245  -21.8893  -16.7900 C   0  0  0  0  0  0  0  0  0  0  0  0
   31.4757  -22.3551  -17.5991 O   0  0  0  0  0  0  0  0  0  0  0  0
   30.4624  -20.4061  -16.7006 C   0  0  0  0  0  0  0  0  0  0  0  0
   29.4230  -20.1506  -15.6481 C   0  0  0  0  0  0  0  0  0  0  0  0
   28.0112  -20.5286  -16.0592 C   0  0  2  0  0  0  0  0  0  0  0  0
   27.6281  -19.6062  -17.1480 N   0  0  0  0  0  0  0  0  0  0  0  0
   27.1070  -20.2340  -14.9158 C   0  0  0  0  0  0  0  0  0  0  0  0
   27.0517  -19.0517  -14.4680 O   0  0  0  0  0  0  0  0  0  0  0  0
   24.6661  -23.2342  -13.1638 O   0  0  0  0  0  0  0  0  0  0  0  0
   24.1582  -21.9619  -13.4149 C   0  0  0  0  0  0  0  0  0  0  0  0
   25.3335  -20.9848  -13.2782 C   0  0  2  0  0  0  0  0  0  0  0  0
   26.3002  -21.2068  -14.3014 N   0  0  0  0  0  0  0  0  0  0  0  0
   25.8366  -21.1636  -11.9107 C   0  0  0  0  0  0  0  0  0  0  0  0
   27.0727  -21.5304  -11.8572 O   0  0  0  0  0  0  0  0  0  0  0  0
   25.0927  -20.9638  -10.7261 N   0  0  0  0  0  0  0  0  0  0  0  0
   25.7369  -21.1714   -9.4558 C   0  0  1  0  0  0  0  0  0  0  0  0
   27.0365  -20.4138   -9.3607 C   0  0  0  0  0  0  0  0  0  0  0  0
   27.4554  -20.0330   -8.0095 C   0  0  0  0  0  0  0  0  0  0  0  0
   26.7258  -19.1086   -7.2355 C   0  0  0  0  0  0  0  0  0  0  0  0
   27.3312  -18.9896   -6.0441 N   0  0  0  0  0  0  0  0  0  0  0  0
   28.4101  -19.7745   -5.9827 C   0  0  0  0  0  0  0  0  0  0  0  0
   29.3400  -19.9922   -4.9983 C   0  0  0  0  0  0  0  0  0  0  0  0
   30.3541  -20.8773   -5.2681 C   0  0  0  0  0  0  0  0  0  0  0  0
   30.4955  -21.5518   -6.4526 C   0  0  0  0  0  0  0  0  0  0  0  0
   29.5324  -21.3050   -7.4292 C   0  0  0  0  0  0  0  0  0  0  0  0
   28.4805  -20.4138   -7.1999 C   0  0  0  0  0  0  0  0  0  0  0  0
   24.8095  -20.9440   -8.3479 C   0  0  0  0  0  0  0  0  0  0  0  0
   23.7664  -20.2250   -8.4205 O   0  0  0  0  0  0  0  0  0  0  0  0
   25.0324  -21.5351   -7.1065 O   0  0  0  0  0  0  0  0  0  0  0  0
  2  1  1  0
  3  2  2  0
  4  2  1  0
  5  6  1  0
  5  4  1  0
  6  8  1  0
  6  7  1  6
  8  9  2  0
 10 11  1  0
 12 11  1  6
 12 14  1  0
 13  8  1  0
 13 12  1  0
 14 15  2  0
 16 17  1  0
 16 14  1  0
 17 28  1  0
 17 18  1  1
 19 18  1  0
 20 19  2  0
 21 22  1  0
 21 20  1  0
 22 27  2  0
 23 22  1  0
 23 24  2  0
 24 25  1  0
 25 26  2  0
 27 19  1  0
 27 26  1  0
 28 29  2  0
 28 30  1  0
M  END
$$$$
