QSW.pdb
     RDKit          3D

 30 31  0  0  1  0  0  0  0  0999 V2000
   24.8857  -21.2464   -9.8216 N   0  0  0  0  0  0  0  0  0  0  0  0
   26.1199  -20.8524   -9.2666 C   0  0  0  0  0  0  0  0  0  0  0  0
   26.3124  -21.0002   -8.0266 O   0  0  0  0  0  0  0  0  0  0  0  0
   27.2182  -20.2667  -10.0941 C   0  0  0  0  0  0  0  0  0  0  0  0
   26.6950  -20.1742  -11.4980 C   0  0  0  0  0  0  0  0  0  0  0  0
   26.8946  -21.4328  -12.3235 C   0  0  2  0  0  0  0  0  0  0  0  0
   28.3074  -21.4336  -12.7558 N   0  0  0  0  0  0  0  0  0  0  0  0
   26.0737  -21.3062  -13.5572 C   0  0  0  0  0  0  0  0  0  0  0  0
   26.4929  -20.5719  -14.4987 O   0  0  0  0  0  0  0  0  0  0  0  0
   22.6595  -23.4102  -13.6986 O   0  0  0  0  0  0  0  0  0  0  0  0
   23.0351  -23.0216  -14.9822 C   0  0  0  0  0  0  0  0  0  0  0  0
   23.9395  -21.7922  -14.8221 C   0  0  2  0  0  0  0  0  0  0  0  0
   24.8465  -21.9669  -13.7368 N   0  0  0  0  0  0  0  0  0  0  0  0
   23.0287  -20.6495  -14.6816 C   0  0  0  0  0  0  0  0  0  0  0  0
   23.1078  -20.0619  -13.5354 O   0  0  0  0  0  0  0  0  0  0  0  0
   22.1324  -20.1836  -15.6695 N   0  0  0  0  0  0  0  0  0  0  0  0
   21.3086  -19.0397  -15.3788 C   0  0  1  0  0  0  0  0  0  0  0  0
   22.1388  -17.8260  -15.0477 C   0  0  0  0  0  0  0  0  0  0  0  0
   23.2705  -17.5644  -15.9404 C   0  0  0  0  0  0  0  0  0  0  0  0
   23.0919  -17.3018  -17.3133 C   0  0  0  0  0  0  0  0  0  0  0  0
   24.2970  -17.0709  -17.8560 N   0  0  0  0  0  0  0  0  0  0  0  0
   25.2563  -17.1634  -16.9313 C   0  0  0  0  0  0  0  0  0  0  0  0
   26.6189  -17.0206  -16.9954 C   0  0  0  0  0  0  0  0  0  0  0  0
   27.3304  -17.1946  -15.8344 C   0  0  0  0  0  0  0  0  0  0  0  0
   26.7682  -17.5015  -14.6229 C   0  0  0  0  0  0  0  0  0  0  0  0
   25.3816  -17.6393  -14.5963 C   0  0  0  0  0  0  0  0  0  0  0  0
   24.6148  -17.4697  -15.7524 C   0  0  0  0  0  0  0  0  0  0  0  0
   20.3033  -18.8320  -16.4208 C   0  0  0  0  0  0  0  0  0  0  0  0
   19.3479  -18.0006  -16.3414 O   0  0  0  0  0  0  0  0  0  0  0  0
   20.3502  -19.5646  -17.6045 O   0  0  0  0  0  0  0  0  0  0  0  0
  2  1  1  0
  3  2  2  0
  4  2  1  0
  5  6  1  0
  5  4  1  0
  6  8  1  0
  6  7  1  6
  8  9  2  0
 10 11  1  0
 12 11  1  1
 12 14  1  0
 13  8  1  0
 13 12  1  0
 14 15  2  0
 16 17  1  0
 16 14  1  0
 17 28  1  0
 17 18  1  6
 19 18  1  0
 20 19  2  0
 21 22  1  0
 21 20  1  0
 22 27  2  0
 23 22  1  0
 23 24  2  0
 24 25  1  0
 25 26  2  0
 27 19  1  0
 27 26  1  0
 28 29  2  0
 28 30  1  0
M  END
$$$$
