QSW.pdb
     RDKit          3D

 30 31  0  0  1  0  0  0  0  0999 V2000
   29.2477  -27.5086  -15.9585 N   0  0  0  0  0  0  0  0  0  0  0  0
   30.1556  -26.9655  -16.8898 C   0  0  0  0  0  0  0  0  0  0  0  0
   30.0025  -27.2187  -18.1182 O   0  0  0  0  0  0  0  0  0  0  0  0
   31.2971  -26.0929  -16.4782 C   0  0  0  0  0  0  0  0  0  0  0  0
   30.7043  -24.7767  -16.0664 C   0  0  0  0  0  0  0  0  0  0  0  0
   29.8337  -24.1246  -17.1256 C   0  0  2  0  0  0  0  0  0  0  0  0
   30.7471  -23.6325  -18.1775 N   0  0  0  0  0  0  0  0  0  0  0  0
   29.1979  -22.9242  -16.5203 C   0  0  0  0  0  0  0  0  0  0  0  0
   29.9304  -21.9511  -16.1768 O   0  0  0  0  0  0  0  0  0  0  0  0
   25.3501  -21.8605  -17.1408 O   0  0  0  0  0  0  0  0  0  0  0  0
   26.2550  -20.9557  -16.5911 C   0  0  0  0  0  0  0  0  0  0  0  0
   27.1431  -21.7534  -15.6269 C   0  0  2  0  0  0  0  0  0  0  0  0
   27.8132  -22.8096  -16.3097 N   0  0  0  0  0  0  0  0  0  0  0  0
   26.2540  -22.1908  -14.5438 C   0  0  0  0  0  0  0  0  0  0  0  0
   26.4412  -23.4154  -14.1825 O   0  0  0  0  0  0  0  0  0  0  0  0
   25.2719  -21.3955  -13.9116 N   0  0  0  0  0  0  0  0  0  0  0  0
   25.2498  -21.3282  -12.4741 C   0  0  1  0  0  0  0  0  0  0  0  0
   26.6021  -20.9701  -11.9130 C   0  0  0  0  0  0  0  0  0  0  0  0
   26.6164  -20.5272  -10.5166 C   0  0  0  0  0  0  0  0  0  0  0  0
   25.4445  -20.1092   -9.8550 C   0  0  0  0  0  0  0  0  0  0  0  0
   25.7658  -19.7981   -8.5900 N   0  0  0  0  0  0  0  0  0  0  0  0
   27.0708  -19.9843   -8.3754 C   0  0  0  0  0  0  0  0  0  0  0  0
   27.8608  -19.8029   -7.2689 C   0  0  0  0  0  0  0  0  0  0  0  0
   29.1986  -20.0857   -7.3912 C   0  0  0  0  0  0  0  0  0  0  0  0
   29.7909  -20.5339   -8.5428 C   0  0  0  0  0  0  0  0  0  0  0  0
   28.9572  -20.7059   -9.6463 C   0  0  0  0  0  0  0  0  0  0  0  0
   27.5887  -20.4328   -9.5695 C   0  0  0  0  0  0  0  0  0  0  0  0
   24.1461  -20.4938  -11.9996 C   0  0  0  0  0  0  0  0  0  0  0  0
   23.8741  -19.3388  -12.4494 O   0  0  0  0  0  0  0  0  0  0  0  0
   23.2997  -20.9476  -10.9907 O   0  0  0  0  0  0  0  0  0  0  0  0
  2  1  1  0
  3  2  2  0
  4  2  1  0
  5  6  1  0
  5  4  1  0
  6  8  1  0
  6  7  1  6
  8  9  2  0
 10 11  1  0
 12 11  1  6
 12 14  1  0
 13  8  1  0
 13 12  1  0
 14 15  2  0
 16 17  1  0
 16 14  1  0
 17 28  1  0
 17 18  1  6
 19 18  1  0
 20 19  2  0
 21 22  1  0
 21 20  1  0
 22 27  2  0
 23 22  1  0
 23 24  2  0
 24 25  1  0
 25 26  2  0
 27 19  1  0
 27 26  1  0
 28 29  2  0
 28 30  1  0
M  END
$$$$
