QSW.pdb
     RDKit          3D

 30 31  0  0  1  0  0  0  0  0999 V2000
   25.9019  -13.0623  -20.2653 N   0  0  0  0  0  0  0  0  0  0  0  0
   26.3806  -12.7542  -21.5547 C   0  0  0  0  0  0  0  0  0  0  0  0
   26.7411  -13.6940  -22.3183 O   0  0  0  0  0  0  0  0  0  0  0  0
   26.4749  -11.3500  -22.0581 C   0  0  0  0  0  0  0  0  0  0  0  0
   26.0064  -10.4617  -20.9424 C   0  0  0  0  0  0  0  0  0  0  0  0
   24.7125   -9.7226  -21.2334 C   0  0  2  0  0  0  0  0  0  0  0  0
   25.0056   -8.7748  -22.3282 N   0  0  0  0  0  0  0  0  0  0  0  0
   24.3760   -8.9013  -20.0400 C   0  0  0  0  0  0  0  0  0  0  0  0
   24.0639   -9.4867  -18.9624 O   0  0  0  0  0  0  0  0  0  0  0  0
   23.8527   -4.4190  -18.2305 O   0  0  0  0  0  0  0  0  0  0  0  0
   24.1454   -5.1659  -19.3689 C   0  0  0  0  0  0  0  0  0  0  0  0
   23.9668   -6.6408  -18.9847 C   0  0  2  0  0  0  0  0  0  0  0  0
   24.3888   -7.4961  -20.0437 N   0  0  0  0  0  0  0  0  0  0  0  0
   22.5546   -6.7813  -18.6094 C   0  0  0  0  0  0  0  0  0  0  0  0
   21.7713   -6.9987  -19.6116 O   0  0  0  0  0  0  0  0  0  0  0  0
   22.0391   -6.7027  -17.2961 N   0  0  0  0  0  0  0  0  0  0  0  0
   20.6407   -6.9663  -17.0799 C   0  0  1  0  0  0  0  0  0  0  0  0
   20.2366   -8.3105  -17.6292 C   0  0  0  0  0  0  0  0  0  0  0  0
   19.9913   -9.3583  -16.6352 C   0  0  0  0  0  0  0  0  0  0  0  0
   20.3064   -9.1821  -15.2730 C   0  0  0  0  0  0  0  0  0  0  0  0
   19.9405  -10.2906  -14.6116 N   0  0  0  0  0  0  0  0  0  0  0  0
   19.4050  -11.1838  -15.4478 C   0  0  0  0  0  0  0  0  0  0  0  0
   18.8980  -12.4434  -15.2541 C   0  0  0  0  0  0  0  0  0  0  0  0
   18.4229  -13.1122  -16.3548 C   0  0  0  0  0  0  0  0  0  0  0  0
   18.4248  -12.6040  -17.6275 C   0  0  0  0  0  0  0  0  0  0  0  0
   18.9479  -11.3220  -17.7858 C   0  0  0  0  0  0  0  0  0  0  0  0
   19.4415  -10.6014  -16.6947 C   0  0  0  0  0  0  0  0  0  0  0  0
   20.2672   -6.7340  -15.6850 C   0  0  0  0  0  0  0  0  0  0  0  0
   21.0932   -6.5103  -14.7480 O   0  0  0  0  0  0  0  0  0  0  0  0
   18.9284   -6.7422  -15.3007 O   0  0  0  0  0  0  0  0  0  0  0  0
  2  1  1  0
  3  2  2  0
  4  2  1  0
  5  6  1  0
  5  4  1  0
  6  8  1  0
  6  7  1  6
  8  9  2  0
 10 11  1  0
 12 11  1  6
 12 14  1  0
 13  8  1  0
 13 12  1  0
 14 15  2  0
 16 17  1  0
 16 14  1  0
 17 28  1  0
 17 18  1  1
 19 18  1  0
 20 19  2  0
 21 22  1  0
 21 20  1  0
 22 27  2  0
 23 22  1  0
 23 24  2  0
 24 25  1  0
 25 26  2  0
 27 19  1  0
 27 26  1  0
 28 29  2  0
 28 30  1  0
M  END
$$$$
