QSW.pdb
     RDKit          3D

 30 31  0  0  1  0  0  0  0  0999 V2000
   28.6963  -23.9939  -16.3818 N   0  0  0  0  0  0  0  0  0  0  0  0
   27.6351  -23.0683  -16.4431 C   0  0  0  0  0  0  0  0  0  0  0  0
   27.8745  -21.8434  -16.2461 O   0  0  0  0  0  0  0  0  0  0  0  0
   26.2294  -23.4818  -16.7382 C   0  0  0  0  0  0  0  0  0  0  0  0
   26.2491  -24.9722  -16.9167 C   0  0  0  0  0  0  0  0  0  0  0  0
   26.6958  -25.4309  -18.2933 C   0  0  2  0  0  0  0  0  0  0  0  0
   25.6160  -25.0612  -19.2317 N   0  0  0  0  0  0  0  0  0  0  0  0
   26.7585  -26.9167  -18.2829 C   0  0  0  0  0  0  0  0  0  0  0  0
   25.7373  -27.5749  -18.6369 O   0  0  0  0  0  0  0  0  0  0  0  0
   29.6980  -28.9609  -16.2548 O   0  0  0  0  0  0  0  0  0  0  0  0
   29.4984  -29.4457  -17.5450 C   0  0  0  0  0  0  0  0  0  0  0  0
   28.0710  -29.0510  -17.9468 C   0  0  2  0  0  0  0  0  0  0  0  0
   27.9030  -27.6367  -17.9001 N   0  0  0  0  0  0  0  0  0  0  0  0
   27.1871  -29.8032  -17.0479 C   0  0  0  0  0  0  0  0  0  0  0  0
   26.8654  -29.1575  -15.9779 O   0  0  0  0  0  0  0  0  0  0  0  0
   26.6959  -31.1082  -17.2767 N   0  0  0  0  0  0  0  0  0  0  0  0
   25.6623  -31.6238  -16.4180 C   0  0  1  0  0  0  0  0  0  0  0  0
   24.5155  -30.6548  -16.2841 C   0  0  0  0  0  0  0  0  0  0  0  0
   23.3616  -31.1340  -15.5192 C   0  0  0  0  0  0  0  0  0  0  0  0
   23.4663  -32.1954  -14.5981 C   0  0  0  0  0  0  0  0  0  0  0  0
   22.2628  -32.3818  -14.0352 N   0  0  0  0  0  0  0  0  0  0  0  0
   21.3737  -31.5134  -14.5240 C   0  0  0  0  0  0  0  0  0  0  0  0
   20.0400  -31.3157  -14.2724 C   0  0  0  0  0  0  0  0  0  0  0  0
   19.4035  -30.3196  -14.9706 C   0  0  0  0  0  0  0  0  0  0  0  0
   20.0131  -29.5164  -15.8985 C   0  0  0  0  0  0  0  0  0  0  0  0
   21.3682  -29.7467  -16.1281 C   0  0  0  0  0  0  0  0  0  0  0  0
   22.0593  -30.7480  -15.4402 C   0  0  0  0  0  0  0  0  0  0  0  0
   25.2791  -32.9810  -16.8060 C   0  0  0  0  0  0  0  0  0  0  0  0
   25.0170  -33.3413  -17.9942 O   0  0  0  0  0  0  0  0  0  0  0  0
   25.1840  -33.9894  -15.8499 O   0  0  0  0  0  0  0  0  0  0  0  0
  2  1  1  0
  3  2  2  0
  4  2  1  0
  5  6  1  0
  5  4  1  0
  6  8  1  0
  6  7  1  6
  8  9  2  0
 10 11  1  0
 12 11  1  1
 12 14  1  0
 13  8  1  0
 13 12  1  0
 14 15  2  0
 16 17  1  0
 16 14  1  0
 17 28  1  0
 17 18  1  6
 19 18  1  0
 20 19  2  0
 21 22  1  0
 21 20  1  0
 22 27  2  0
 23 22  1  0
 23 24  2  0
 24 25  1  0
 25 26  2  0
 27 19  1  0
 27 26  1  0
 28 29  2  0
 28 30  1  0
M  END
$$$$
