QSW.pdb
     RDKit          3D

 30 31  0  0  1  0  0  0  0  0999 V2000
   23.0857  -17.4822  -15.2827 N   0  0  0  0  0  0  0  0  0  0  0  0
   21.9950  -16.7588  -15.8059 C   0  0  0  0  0  0  0  0  0  0  0  0
   21.3376  -15.9976  -15.0413 O   0  0  0  0  0  0  0  0  0  0  0  0
   21.5859  -16.8551  -17.2403 C   0  0  0  0  0  0  0  0  0  0  0  0
   22.4289  -17.9343  -17.8554 C   0  0  0  0  0  0  0  0  0  0  0  0
   23.9199  -17.7745  -17.6177 C   0  0  2  0  0  0  0  0  0  0  0  0
   24.5194  -17.4242  -18.9219 N   0  0  0  0  0  0  0  0  0  0  0  0
   24.4688  -19.1047  -17.2420 C   0  0  0  0  0  0  0  0  0  0  0  0
   23.6681  -20.0668  -17.0559 O   0  0  0  0  0  0  0  0  0  0  0  0
   28.4480  -19.4008  -16.4685 O   0  0  0  0  0  0  0  0  0  0  0  0
   27.9514  -20.5764  -17.0262 C   0  0  0  0  0  0  0  0  0  0  0  0
   26.4447  -20.5981  -16.7360 C   0  0  2  0  0  0  0  0  0  0  0  0
   25.8426  -19.3542  -17.0838 N   0  0  0  0  0  0  0  0  0  0  0  0
   26.3221  -20.9634  -15.3195 C   0  0  0  0  0  0  0  0  0  0  0  0
   26.7253  -20.0426  -14.5103 O   0  0  0  0  0  0  0  0  0  0  0  0
   25.8147  -22.1857  -14.8244 N   0  0  0  0  0  0  0  0  0  0  0  0
   25.6424  -22.3441  -13.4042 C   0  0  1  0  0  0  0  0  0  0  0  0
   24.9046  -21.1769  -12.7998 C   0  0  0  0  0  0  0  0  0  0  0  0
   25.2136  -20.8838  -11.3981 C   0  0  0  0  0  0  0  0  0  0  0  0
   24.3040  -21.1658  -10.3593 C   0  0  0  0  0  0  0  0  0  0  0  0
   24.8764  -20.8208   -9.1960 N   0  0  0  0  0  0  0  0  0  0  0  0
   26.1021  -20.3312   -9.4002 C   0  0  0  0  0  0  0  0  0  0  0  0
   27.0591  -19.8484   -8.5445 C   0  0  0  0  0  0  0  0  0  0  0  0
   28.2352  -19.4023   -9.0946 C   0  0  0  0  0  0  0  0  0  0  0  0
   28.5108  -19.4080  -10.4369 C   0  0  0  0  0  0  0  0  0  0  0  0
   27.5150  -19.9052  -11.2756 C   0  0  0  0  0  0  0  0  0  0  0  0
   26.3020  -20.3721  -10.7617 C   0  0  0  0  0  0  0  0  0  0  0  0
   25.0863  -23.6577  -13.0811 C   0  0  0  0  0  0  0  0  0  0  0  0
   24.0747  -24.1694  -13.6515 O   0  0  0  0  0  0  0  0  0  0  0  0
   25.6677  -24.4480  -12.0924 O   0  0  0  0  0  0  0  0  0  0  0  0
  2  1  1  0
  3  2  2  0
  4  2  1  0
  5  6  1  0
  5  4  1  0
  6  8  1  0
  6  7  1  6
  8  9  2  0
 10 11  1  0
 12 11  1  1
 12 14  1  0
 13  8  1  0
 13 12  1  0
 14 15  2  0
 16 17  1  0
 16 14  1  0
 17 28  1  0
 17 18  1  6
 19 18  1  0
 20 19  2  0
 21 22  1  0
 21 20  1  0
 22 27  2  0
 23 22  1  0
 23 24  2  0
 24 25  1  0
 25 26  2  0
 27 19  1  0
 27 26  1  0
 28 29  2  0
 28 30  1  0
M  END
$$$$
