YTL.pdb
     RDKit          3D

 28 28  0  0  1  0  0  0  0  0999 V2000
    8.8080  -10.7415  -14.5052 O   0  0  0  0  0  0  0  0  0  0  0  0
   10.1907  -10.8370  -14.6763 C   0  0  0  0  0  0  0  0  0  0  0  0
   10.7484  -10.1460  -15.7473 C   0  0  0  0  0  0  0  0  0  0  0  0
   12.1243  -10.2037  -15.9688 C   0  0  0  0  0  0  0  0  0  0  0  0
   12.9554  -10.9310  -15.1516 C   0  0  0  0  0  0  0  0  0  0  0  0
   14.3887  -10.9551  -15.4376 C   0  0  0  0  0  0  0  0  0  0  0  0
   14.8107  -11.8078  -16.5855 C   0  0  2  0  0  0  0  0  0  0  0  0
   14.6878  -13.1980  -16.1160 N   0  0  0  0  0  0  0  0  0  0  0  0
   16.1920  -11.4967  -16.9709 C   0  0  0  0  0  0  0  0  0  0  0  0
   17.1029  -12.3519  -16.8312 O   0  0  0  0  0  0  0  0  0  0  0  0
   12.3747  -11.6107  -14.0911 C   0  0  0  0  0  0  0  0  0  0  0  0
   11.0117  -11.5590  -13.8641 C   0  0  0  0  0  0  0  0  0  0  0  0
   17.4296   -9.5436  -20.2539 C   0  0  0  0  0  0  0  0  0  0  0  0
   18.0909   -8.9915  -19.0031 C   0  0  1  0  0  0  0  0  0  0  0  0
   17.4647   -7.7928  -18.6817 O   0  0  0  0  0  0  0  0  0  0  0  0
   17.9511   -9.9895  -17.8464 C   0  0  2  0  0  0  0  0  0  0  0  0
   16.5836  -10.2277  -17.5187 N   0  0  0  0  0  0  0  0  0  0  0  0
   18.7481   -9.4549  -16.7300 C   0  0  0  0  0  0  0  0  0  0  0  0
   18.1176   -8.9853  -15.7419 O   0  0  0  0  0  0  0  0  0  0  0  0
   24.1008  -10.0555  -13.8934 C   0  0  0  0  0  0  0  0  0  0  0  0
   22.7329   -9.3477  -13.9356 C   0  0  2  0  0  0  0  0  0  0  0  0
   22.1250   -9.5006  -12.5708 C   0  0  0  0  0  0  0  0  0  0  0  0
   21.8848   -9.9162  -15.0391 C   0  0  0  0  0  0  0  0  0  0  0  0
   20.9327   -8.9069  -15.5571 C   0  0  2  0  0  0  0  0  0  0  0  0
   20.1491   -9.4270  -16.6792 N   0  0  0  0  0  0  0  0  0  0  0  0
   21.5434   -7.6582  -16.0458 C   0  0  0  0  0  0  0  0  0  0  0  0
   21.8571   -6.5943  -15.2117 O   0  0  0  0  0  0  0  0  0  0  0  0
   21.8043   -7.5156  -17.2576 O   0  0  0  0  0  0  0  0  0  0  0  0
  2 12  2  0
  2  1  1  0
  3  2  1  0
  4  5  1  0
  4  3  2  0
  5 11  2  0
  6  7  1  0
  6  5  1  0
  7  8  1  1
  9  7  1  0
  9 10  2  0
 11 12  1  0
 14 13  1  6
 14 16  1  0
 15 14  1  0
 16 17  1  1
 17  9  1  0
 18 16  1  0
 19 18  2  0
 21 20  1  1
 21 22  1  0
 23 21  1  0
 24 25  1  0
 24 23  1  6
 25 18  1  0
 26 24  1  0
 27 26  1  0
 28 26  2  0
M  END
$$$$
