YTL.pdb
     RDKit          3D

 28 28  0  0  1  0  0  0  0  0999 V2000
   19.4691  -23.4513   -6.5530 O   0  0  0  0  0  0  0  0  0  0  0  0
   20.2758  -22.7575   -7.4574 C   0  0  0  0  0  0  0  0  0  0  0  0
   21.0988  -21.7614   -6.9415 C   0  0  0  0  0  0  0  0  0  0  0  0
   21.9269  -21.0343   -7.7965 C   0  0  0  0  0  0  0  0  0  0  0  0
   21.9548  -21.2747   -9.1488 C   0  0  0  0  0  0  0  0  0  0  0  0
   22.8417  -20.4768   -9.9935 C   0  0  0  0  0  0  0  0  0  0  0  0
   24.0236  -21.1906  -10.5559 C   0  0  2  0  0  0  0  0  0  0  0  0
   24.9974  -21.2786   -9.4550 N   0  0  0  0  0  0  0  0  0  0  0  0
   24.5740  -20.4467  -11.6948 C   0  0  0  0  0  0  0  0  0  0  0  0
   25.3021  -19.4388  -11.5085 O   0  0  0  0  0  0  0  0  0  0  0  0
   21.1251  -22.2729   -9.6380 C   0  0  0  0  0  0  0  0  0  0  0  0
   20.3010  -22.9986   -8.7977 C   0  0  0  0  0  0  0  0  0  0  0  0
   27.0269  -21.3594  -14.1474 C   0  0  0  0  0  0  0  0  0  0  0  0
   25.8476  -20.8848  -14.9785 C   0  0  1  0  0  0  0  0  0  0  0  0
   25.1876  -22.0073  -15.4647 O   0  0  0  0  0  0  0  0  0  0  0  0
   24.8978  -20.0431  -14.1166 C   0  0  2  0  0  0  0  0  0  0  0  0
   24.3234  -20.8118  -13.0614 N   0  0  0  0  0  0  0  0  0  0  0  0
   23.9077  -19.4539  -15.0330 C   0  0  0  0  0  0  0  0  0  0  0  0
   22.7309  -19.9088  -14.9835 O   0  0  0  0  0  0  0  0  0  0  0  0
   23.2532  -14.9496  -19.3147 C   0  0  0  0  0  0  0  0  0  0  0  0
   22.6201  -16.0180  -18.4026 C   0  0  2  0  0  0  0  0  0  0  0  0
   21.4875  -15.3502  -17.6767 C   0  0  0  0  0  0  0  0  0  0  0  0
   23.6584  -16.6049  -17.4875 C   0  0  0  0  0  0  0  0  0  0  0  0
   23.1855  -17.8718  -16.8834 C   0  0  2  0  0  0  0  0  0  0  0  0
   24.1698  -18.4295  -15.9541 N   0  0  0  0  0  0  0  0  0  0  0  0
   22.8877  -18.9523  -17.8400 C   0  0  0  0  0  0  0  0  0  0  0  0
   21.5980  -19.2704  -18.2420 O   0  0  0  0  0  0  0  0  0  0  0  0
   23.8111  -19.6327  -18.3309 O   0  0  0  0  0  0  0  0  0  0  0  0
  2 12  2  0
  2  1  1  0
  3  2  1  0
  4  5  1  0
  4  3  2  0
  5 11  2  0
  6  7  1  0
  6  5  1  0
  7  8  1  1
  9  7  1  0
  9 10  2  0
 11 12  1  0
 14 13  1  1
 14 16  1  0
 15 14  1  0
 16 17  1  1
 17  9  1  0
 18 16  1  0
 19 18  2  0
 21 20  1  6
 21 22  1  0
 23 21  1  0
 24 25  1  0
 24 23  1  6
 25 18  1  0
 26 24  1  0
 27 26  1  0
 28 26  2  0
M  END
$$$$
