YTL.pdb
     RDKit          3D

 28 28  0  0  1  0  0  0  0  0999 V2000
   15.7941  -16.2518  -19.7759 O   0  0  0  0  0  0  0  0  0  0  0  0
   16.4521  -15.2951  -19.0002 C   0  0  0  0  0  0  0  0  0  0  0  0
   16.7185  -15.6242  -17.6749 C   0  0  0  0  0  0  0  0  0  0  0  0
   17.3733  -14.7087  -16.8513 C   0  0  0  0  0  0  0  0  0  0  0  0
   17.7679  -13.4769  -17.3144 C   0  0  0  0  0  0  0  0  0  0  0  0
   18.4474  -12.5596  -16.4015 C   0  0  0  0  0  0  0  0  0  0  0  0
   19.8365  -12.1723  -16.7799 C   0  0  2  0  0  0  0  0  0  0  0  0
   20.6578  -13.3759  -16.5679 N   0  0  0  0  0  0  0  0  0  0  0  0
   20.3003  -11.0580  -15.9452 C   0  0  0  0  0  0  0  0  0  0  0  0
   20.7284  -11.2658  -14.7815 O   0  0  0  0  0  0  0  0  0  0  0  0
   17.4907  -13.1733  -18.6392 C   0  0  0  0  0  0  0  0  0  0  0  0
   16.8420  -14.0748  -19.4628 C   0  0  0  0  0  0  0  0  0  0  0  0
   22.8993   -8.3067  -16.5949 C   0  0  0  0  0  0  0  0  0  0  0  0
   21.6061   -7.6342  -16.1680 C   0  0  1  0  0  0  0  0  0  0  0  0
   21.0004   -7.1114  -17.3046 O   0  0  0  0  0  0  0  0  0  0  0  0
   20.6781   -8.6526  -15.4934 C   0  0  2  0  0  0  0  0  0  0  0  0
   20.2957   -9.6926  -16.3915 N   0  0  0  0  0  0  0  0  0  0  0  0
   19.5440   -7.8906  -14.9451 C   0  0  0  0  0  0  0  0  0  0  0  0
   18.4316   -8.0068  -15.5311 O   0  0  0  0  0  0  0  0  0  0  0  0
   16.7538   -5.9739   -9.9747 C   0  0  0  0  0  0  0  0  0  0  0  0
   16.9538   -5.7435  -11.4850 C   0  0  2  0  0  0  0  0  0  0  0  0
   15.6115   -5.9303  -12.1321 C   0  0  0  0  0  0  0  0  0  0  0  0
   18.0128   -6.6679  -12.0182 C   0  0  0  0  0  0  0  0  0  0  0  0
   18.4956   -6.2206  -13.3450 C   0  0  2  0  0  0  0  0  0  0  0  0
   19.6035   -7.0482  -13.8256 N   0  0  0  0  0  0  0  0  0  0  0  0
   18.9854   -4.8321  -13.4011 C   0  0  0  0  0  0  0  0  0  0  0  0
   18.1564   -3.7488  -13.6563 O   0  0  0  0  0  0  0  0  0  0  0  0
   20.1935   -4.5812  -13.2158 O   0  0  0  0  0  0  0  0  0  0  0  0
  2 12  2  0
  2  1  1  0
  3  2  1  0
  4  5  1  0
  4  3  2  0
  5 11  2  0
  6  7  1  0
  6  5  1  0
  7  8  1  1
  9  7  1  0
  9 10  2  0
 11 12  1  0
 14 13  1  6
 14 16  1  0
 15 14  1  0
 16 17  1  6
 17  9  1  0
 18 16  1  0
 19 18  2  0
 21 20  1  1
 21 22  1  0
 23 21  1  0
 24 25  1  0
 24 23  1  1
 25 18  1  0
 26 24  1  0
 27 26  1  0
 28 26  2  0
M  END
$$$$
