YTL.pdb
     RDKit          3D

 28 28  0  0  1  0  0  0  0  0999 V2000
   28.0982  -26.6706  -18.1368 O   0  0  0  0  0  0  0  0  0  0  0  0
   27.8077  -25.6008  -17.2874 C   0  0  0  0  0  0  0  0  0  0  0  0
   28.5044  -24.4149  -17.4967 C   0  0  0  0  0  0  0  0  0  0  0  0
   28.2569  -23.3118  -16.6798 C   0  0  0  0  0  0  0  0  0  0  0  0
   27.3351  -23.3615  -15.6624 C   0  0  0  0  0  0  0  0  0  0  0  0
   27.1228  -22.1731  -14.8382 C   0  0  0  0  0  0  0  0  0  0  0  0
   25.7273  -21.6501  -14.7947 C   0  0  2  0  0  0  0  0  0  0  0  0
   25.5417  -20.9039  -16.0504 N   0  0  0  0  0  0  0  0  0  0  0  0
   25.5452  -20.7801  -13.6271 C   0  0  0  0  0  0  0  0  0  0  0  0
   25.7999  -19.5510  -13.6995 O   0  0  0  0  0  0  0  0  0  0  0  0
   26.6540  -24.5552  -15.4745 C   0  0  0  0  0  0  0  0  0  0  0  0
   26.8929  -25.6536  -16.2797 C   0  0  0  0  0  0  0  0  0  0  0  0
   22.5802  -19.6299  -12.1704 C   0  0  0  0  0  0  0  0  0  0  0  0
   23.3182  -20.2403  -10.9916 C   0  0  1  0  0  0  0  0  0  0  0  0
   22.7885  -21.5051  -10.7637 O   0  0  0  0  0  0  0  0  0  0  0  0
   24.8174  -20.3412  -11.3010 C   0  0  2  0  0  0  0  0  0  0  0  0
   25.0762  -21.2631  -12.3581 N   0  0  0  0  0  0  0  0  0  0  0  0
   25.4869  -20.6816  -10.0349 C   0  0  0  0  0  0  0  0  0  0  0  0
   25.6974  -21.9047   -9.8023 O   0  0  0  0  0  0  0  0  0  0  0  0
   28.2519  -18.1171   -5.0634 C   0  0  0  0  0  0  0  0  0  0  0  0
   27.8114  -19.3457   -5.8822 C   0  0  2  0  0  0  0  0  0  0  0  0
   29.0662  -20.0285   -6.3459 C   0  0  0  0  0  0  0  0  0  0  0  0
   26.9043  -18.9265   -7.0054 C   0  0  0  0  0  0  0  0  0  0  0  0
   26.3591  -20.1029   -7.7213 C   0  0  2  0  0  0  0  0  0  0  0  0
   25.9079  -19.7553   -9.0700 N   0  0  0  0  0  0  0  0  0  0  0  0
   25.2071  -20.7550   -7.0742 C   0  0  0  0  0  0  0  0  0  0  0  0
   25.3221  -21.9114   -6.3156 O   0  0  0  0  0  0  0  0  0  0  0  0
   24.0618  -20.2741   -7.1919 O   0  0  0  0  0  0  0  0  0  0  0  0
  2 12  2  0
  2  1  1  0
  3  2  1  0
  4  5  1  0
  4  3  2  0
  5 11  2  0
  6  7  1  0
  6  5  1  0
  7  8  1  6
  9  7  1  0
  9 10  2  0
 11 12  1  0
 14 13  1  6
 14 16  1  0
 15 14  1  0
 16 17  1  6
 17  9  1  0
 18 16  1  0
 19 18  2  0
 21 20  1  6
 21 22  1  0
 23 21  1  0
 24 25  1  0
 24 23  1  1
 25 18  1  0
 26 24  1  0
 27 26  1  0
 28 26  2  0
M  END
$$$$
