YTL.pdb
     RDKit          3D

 28 28  0  0  1  0  0  0  0  0999 V2000
   28.2413  -19.6257   -5.8962 O   0  0  0  0  0  0  0  0  0  0  0  0
   27.9032  -19.8165   -7.2376 C   0  0  0  0  0  0  0  0  0  0  0  0
   26.5845  -19.5659   -7.6032 C   0  0  0  0  0  0  0  0  0  0  0  0
   26.1876  -19.7390   -8.9290 C   0  0  0  0  0  0  0  0  0  0  0  0
   27.0700  -20.1545   -9.8966 C   0  0  0  0  0  0  0  0  0  0  0  0
   26.5929  -20.3207  -11.2682 C   0  0  0  0  0  0  0  0  0  0  0  0
   25.5835  -21.3969  -11.4819 C   0  0  2  0  0  0  0  0  0  0  0  0
   26.3367  -22.6618  -11.4529 N   0  0  0  0  0  0  0  0  0  0  0  0
   24.9053  -21.2112  -12.7699 C   0  0  0  0  0  0  0  0  0  0  0  0
   25.5168  -21.4134  -13.8497 O   0  0  0  0  0  0  0  0  0  0  0  0
   28.3787  -20.3976   -9.5063 C   0  0  0  0  0  0  0  0  0  0  0  0
   28.7808  -20.2285   -8.1942 C   0  0  0  0  0  0  0  0  0  0  0  0
   21.9077  -23.0672  -13.9825 C   0  0  0  0  0  0  0  0  0  0  0  0
   21.6000  -21.5902  -14.1568 C   0  0  1  0  0  0  0  0  0  0  0  0
   20.7849  -21.1957  -13.1021 O   0  0  0  0  0  0  0  0  0  0  0  0
   22.8998  -20.7754  -14.1559 C   0  0  2  0  0  0  0  0  0  0  0  0
   23.5341  -20.7969  -12.8786 N   0  0  0  0  0  0  0  0  0  0  0  0
   22.5508  -19.4248  -14.6263 C   0  0  0  0  0  0  0  0  0  0  0  0
   22.4797  -18.5103  -13.7586 O   0  0  0  0  0  0  0  0  0  0  0  0
   22.2175  -15.9618  -19.7308 C   0  0  0  0  0  0  0  0  0  0  0  0
   22.0809  -16.0510  -18.1987 C   0  0  2  0  0  0  0  0  0  0  0  0
   22.8707  -14.9085  -17.6273 C   0  0  0  0  0  0  0  0  0  0  0  0
   22.5346  -17.3990  -17.7118 C   0  0  0  0  0  0  0  0  0  0  0  0
   21.9094  -17.7377  -16.4126 C   0  0  2  0  0  0  0  0  0  0  0  0
   22.2918  -19.0763  -15.9597 N   0  0  0  0  0  0  0  0  0  0  0  0
   20.4360  -17.7214  -16.4001 C   0  0  0  0  0  0  0  0  0  0  0  0
   19.6962  -16.5968  -16.0624 O   0  0  0  0  0  0  0  0  0  0  0  0
   19.7912  -18.7463  -16.7010 O   0  0  0  0  0  0  0  0  0  0  0  0
  2 12  2  0
  2  1  1  0
  3  2  1  0
  4  5  1  0
  4  3  2  0
  5 11  2  0
  6  7  1  0
  6  5  1  0
  7  8  1  6
  9  7  1  0
  9 10  2  0
 11 12  1  0
 14 13  1  1
 14 16  1  0
 15 14  1  0
 16 17  1  1
 17  9  1  0
 18 16  1  0
 19 18  2  0
 21 20  1  6
 21 22  1  0
 23 21  1  0
 24 25  1  0
 24 23  1  6
 25 18  1  0
 26 24  1  0
 27 26  1  0
 28 26  2  0
M  END
$$$$
