YTL.pdb
     RDKit          3D

 28 28  0  0  1  0  0  0  0  0999 V2000
   28.7550  -20.1373   -3.5597 O   0  0  0  0  0  0  0  0  0  0  0  0
   28.4062  -19.9845   -4.9033 C   0  0  0  0  0  0  0  0  0  0  0  0
   27.1697  -20.4835   -5.3003 C   0  0  0  0  0  0  0  0  0  0  0  0
   26.7667  -20.3601   -6.6299 C   0  0  0  0  0  0  0  0  0  0  0  0
   27.5633  -19.7536   -7.5706 C   0  0  0  0  0  0  0  0  0  0  0  0
   27.0865  -19.6578   -8.9491 C   0  0  0  0  0  0  0  0  0  0  0  0
   26.8509  -20.9527   -9.6494 C   0  0  2  0  0  0  0  0  0  0  0  0
   28.1684  -21.6045   -9.7366 N   0  0  0  0  0  0  0  0  0  0  0  0
   26.2854  -20.7157  -10.9826 C   0  0  0  0  0  0  0  0  0  0  0  0
   27.0311  -20.6635  -11.9935 O   0  0  0  0  0  0  0  0  0  0  0  0
   28.7910  -19.2646   -7.1493 C   0  0  0  0  0  0  0  0  0  0  0  0
   29.1986  -19.3825   -5.8333 C   0  0  0  0  0  0  0  0  0  0  0  0
   26.0791  -22.0886  -13.3811 C   0  0  0  0  0  0  0  0  0  0  0  0
   24.5998  -21.7496  -13.3222 C   0  0  1  0  0  0  0  0  0  0  0  0
   23.9461  -22.7966  -12.6830 O   0  0  0  0  0  0  0  0  0  0  0  0
   24.3874  -20.4414  -12.5496 C   0  0  2  0  0  0  0  0  0  0  0  0
   24.8795  -20.5326  -11.2140 N   0  0  0  0  0  0  0  0  0  0  0  0
   22.9514  -20.1291  -12.6366 C   0  0  0  0  0  0  0  0  0  0  0  0
   22.2955  -20.1173  -11.5577 O   0  0  0  0  0  0  0  0  0  0  0  0
   19.2257  -16.8544  -13.9862 C   0  0  0  0  0  0  0  0  0  0  0  0
   19.4791  -17.7236  -15.2329 C   0  0  2  0  0  0  0  0  0  0  0  0
   18.3410  -18.6998  -15.3177 C   0  0  0  0  0  0  0  0  0  0  0  0
   20.8292  -18.3794  -15.1463 C   0  0  0  0  0  0  0  0  0  0  0  0
   20.9717  -19.1477  -13.8881 C   0  0  2  0  0  0  0  0  0  0  0  0
   22.2576  -19.8445  -13.8215 N   0  0  0  0  0  0  0  0  0  0  0  0
   19.9481  -20.1836  -13.6639 C   0  0  0  0  0  0  0  0  0  0  0  0
   20.0484  -21.4682  -14.1796 O   0  0  0  0  0  0  0  0  0  0  0  0
   18.9323  -19.9304  -12.9852 O   0  0  0  0  0  0  0  0  0  0  0  0
  2 12  2  0
  2  1  1  0
  3  2  1  0
  4  5  1  0
  4  3  2  0
  5 11  2  0
  6  7  1  0
  6  5  1  0
  7  8  1  6
  9  7  1  0
  9 10  2  0
 11 12  1  0
 14 13  1  1
 14 16  1  0
 15 14  1  0
 16 17  1  1
 17  9  1  0
 18 16  1  0
 19 18  2  0
 21 20  1  1
 21 22  1  0
 23 21  1  0
 24 25  1  0
 24 23  1  6
 25 18  1  0
 26 24  1  0
 27 26  1  0
 28 26  2  0
M  END
$$$$
