YTL.pdb
     RDKit          3D

 28 28  0  0  1  0  0  0  0  0999 V2000
   15.7925  -16.2850  -19.7620 O   0  0  0  0  0  0  0  0  0  0  0  0
   16.1513  -15.2898  -18.8505 C   0  0  0  0  0  0  0  0  0  0  0  0
   16.2860  -13.9953  -19.3422 C   0  0  0  0  0  0  0  0  0  0  0  0
   16.6425  -12.9593  -18.4791 C   0  0  0  0  0  0  0  0  0  0  0  0
   16.8676  -13.1811  -17.1421 C   0  0  0  0  0  0  0  0  0  0  0  0
   17.2419  -12.0547  -16.2889 C   0  0  0  0  0  0  0  0  0  0  0  0
   18.6948  -11.7231  -16.2463 C   0  0  2  0  0  0  0  0  0  0  0  0
   19.3429  -12.8567  -15.5659 N   0  0  0  0  0  0  0  0  0  0  0  0
   18.9104  -10.4696  -15.5144 C   0  0  0  0  0  0  0  0  0  0  0  0
   18.6763  -10.4010  -14.2810 O   0  0  0  0  0  0  0  0  0  0  0  0
   16.7268  -14.4803  -16.6769 C   0  0  0  0  0  0  0  0  0  0  0  0
   16.3736  -15.5133  -17.5255 C   0  0  0  0  0  0  0  0  0  0  0  0
   21.9666   -8.7899  -14.7341 C   0  0  0  0  0  0  0  0  0  0  0  0
   21.1200   -7.7093  -15.3840 C   0  0  1  0  0  0  0  0  0  0  0  0
   21.5509   -7.5603  -16.6971 O   0  0  0  0  0  0  0  0  0  0  0  0
   19.6390   -8.1082  -15.3540 C   0  0  2  0  0  0  0  0  0  0  0  0
   19.3904   -9.2703  -16.1427 N   0  0  0  0  0  0  0  0  0  0  0  0
   18.8750   -6.9238  -15.7790 C   0  0  0  0  0  0  0  0  0  0  0  0
   18.5998   -6.8228  -17.0072 O   0  0  0  0  0  0  0  0  0  0  0  0
   15.8012   -1.9671  -13.5528 C   0  0  0  0  0  0  0  0  0  0  0  0
   16.4476   -2.7016  -14.7431 C   0  0  2  0  0  0  0  0  0  0  0  0
   15.3873   -2.8301  -15.7989 C   0  0  0  0  0  0  0  0  0  0  0  0
   17.0151   -4.0203  -14.2967 C   0  0  0  0  0  0  0  0  0  0  0  0
   17.8053   -4.6562  -15.3760 C   0  0  2  0  0  0  0  0  0  0  0  0
   18.4304   -5.9019  -14.9278 N   0  0  0  0  0  0  0  0  0  0  0  0
   18.9021   -3.8361  -15.9196 C   0  0  0  0  0  0  0  0  0  0  0  0
   20.1988   -3.8878  -15.4277 O   0  0  0  0  0  0  0  0  0  0  0  0
   18.6926   -3.0489  -16.8646 O   0  0  0  0  0  0  0  0  0  0  0  0
  2 12  2  0
  2  1  1  0
  3  2  1  0
  4  5  1  0
  4  3  2  0
  5 11  2  0
  6  7  1  0
  6  5  1  0
  7  8  1  1
  9  7  1  0
  9 10  2  0
 11 12  1  0
 14 13  1  6
 14 16  1  0
 15 14  1  0
 16 17  1  6
 17  9  1  0
 18 16  1  0
 19 18  2  0
 21 20  1  1
 21 22  1  0
 23 21  1  0
 24 25  1  0
 24 23  1  1
 25 18  1  0
 26 24  1  0
 27 26  1  0
 28 26  2  0
M  END
$$$$
