YTL.pdb
     RDKit          3D

 28 28  0  0  1  0  0  0  0  0999 V2000
   24.9902   -1.5897  -23.5406 O   0  0  0  0  0  0  0  0  0  0  0  0
   24.1757   -1.7325  -22.4153 C   0  0  0  0  0  0  0  0  0  0  0  0
   24.3509   -2.8772  -21.6443 C   0  0  0  0  0  0  0  0  0  0  0  0
   23.5662   -3.0749  -20.5083 C   0  0  0  0  0  0  0  0  0  0  0  0
   22.6140   -2.1627  -20.1230 C   0  0  0  0  0  0  0  0  0  0  0  0
   21.8207   -2.4280  -18.9243 C   0  0  0  0  0  0  0  0  0  0  0  0
   20.5306   -3.1432  -19.1408 C   0  0  2  0  0  0  0  0  0  0  0  0
   19.6153   -2.1475  -19.7230 N   0  0  0  0  0  0  0  0  0  0  0  0
   20.0144   -3.6601  -17.8681 C   0  0  0  0  0  0  0  0  0  0  0  0
   19.2198   -2.9753  -17.1749 O   0  0  0  0  0  0  0  0  0  0  0  0
   22.4590   -1.0300  -20.9085 C   0  0  0  0  0  0  0  0  0  0  0  0
   23.2326   -0.8259  -22.0363 C   0  0  0  0  0  0  0  0  0  0  0  0
   17.7163   -4.0595  -16.5236 C   0  0  0  0  0  0  0  0  0  0  0  0
   18.2573   -5.4444  -16.2138 C   0  0  1  0  0  0  0  0  0  0  0  0
   17.8546   -6.2990  -17.2334 O   0  0  0  0  0  0  0  0  0  0  0  0
   19.7885   -5.4069  -16.1273 C   0  0  2  0  0  0  0  0  0  0  0  0
   20.3738   -4.9486  -17.3445 N   0  0  0  0  0  0  0  0  0  0  0  0
   20.2212   -6.7562  -15.7279 C   0  0  0  0  0  0  0  0  0  0  0  0
   20.5214   -7.5642  -16.6505 O   0  0  0  0  0  0  0  0  0  0  0  0
   22.1449   -9.9513  -10.7835 C   0  0  0  0  0  0  0  0  0  0  0  0
   21.8331   -9.9424  -12.2924 C   0  0  2  0  0  0  0  0  0  0  0  0
   23.0197  -10.5519  -12.9824 C   0  0  0  0  0  0  0  0  0  0  0  0
   21.5215   -8.5455  -12.7527 C   0  0  0  0  0  0  0  0  0  0  0  0
   20.7538   -8.5576  -14.0192 C   0  0  2  0  0  0  0  0  0  0  0  0
   20.3253   -7.2122  -14.4059 N   0  0  0  0  0  0  0  0  0  0  0  0
   19.5276   -9.3745  -14.0040 C   0  0  0  0  0  0  0  0  0  0  0  0
   19.4678  -10.6563  -14.5328 O   0  0  0  0  0  0  0  0  0  0  0  0
   18.4771   -8.9264  -13.5016 O   0  0  0  0  0  0  0  0  0  0  0  0
  2 12  2  0
  2  1  1  0
  3  2  1  0
  4  5  1  0
  4  3  2  0
  5 11  2  0
  6  7  1  0
  6  5  1  0
  7  8  1  1
  9  7  1  0
  9 10  2  0
 11 12  1  0
 14 13  1  6
 14 16  1  0
 15 14  1  0
 16 17  1  6
 17  9  1  0
 18 16  1  0
 19 18  2  0
 21 20  1  1
 21 22  1  0
 23 21  1  0
 24 25  1  0
 24 23  1  1
 25 18  1  0
 26 24  1  0
 27 26  1  0
 28 26  2  0
M  END
$$$$
