YTL.pdb
     RDKit          3D

 28 28  0  0  1  0  0  0  0  0999 V2000
   19.7127  -19.3016  -21.0931 O   0  0  0  0  0  0  0  0  0  0  0  0
   20.1974  -18.1049  -20.5611 C   0  0  0  0  0  0  0  0  0  0  0  0
   21.4449  -18.1412  -19.9461 C   0  0  0  0  0  0  0  0  0  0  0  0
   21.9810  -16.9769  -19.3962 C   0  0  0  0  0  0  0  0  0  0  0  0
   21.3066  -15.7809  -19.4440 C   0  0  0  0  0  0  0  0  0  0  0  0
   21.9196  -14.5959  -18.8468 C   0  0  0  0  0  0  0  0  0  0  0  0
   22.3089  -13.5142  -19.7961 C   0  0  2  0  0  0  0  0  0  0  0  0
   23.4022  -14.0718  -20.6096 N   0  0  0  0  0  0  0  0  0  0  0  0
   22.7479  -12.3233  -19.0595 C   0  0  0  0  0  0  0  0  0  0  0  0
   23.9412  -11.9333  -19.1273 O   0  0  0  0  0  0  0  0  0  0  0  0
   20.0651  -15.7714  -20.0626 C   0  0  0  0  0  0  0  0  0  0  0  0
   19.5260  -16.9208  -20.6104 C   0  0  0  0  0  0  0  0  0  0  0  0
   23.8636   -9.8654  -19.5648 C   0  0  0  0  0  0  0  0  0  0  0  0
   22.7479   -9.3070  -18.6987 C   0  0  1  0  0  0  0  0  0  0  0  0
   21.6712   -9.0109  -19.5265 O   0  0  0  0  0  0  0  0  0  0  0  0
   22.3347  -10.3370  -17.6395 C   0  0  2  0  0  0  0  0  0  0  0  0
   21.8659  -11.5454  -18.2345 N   0  0  0  0  0  0  0  0  0  0  0  0
   21.3457   -9.6759  -16.7722 C   0  0  0  0  0  0  0  0  0  0  0  0
   20.1346   -9.7380  -17.1239 O   0  0  0  0  0  0  0  0  0  0  0  0
   19.1320   -8.7109  -11.6874 C   0  0  0  0  0  0  0  0  0  0  0  0
   20.0475   -7.7119  -12.4207 C   0  0  2  0  0  0  0  0  0  0  0  0
   19.1484   -6.7788  -13.1800 C   0  0  0  0  0  0  0  0  0  0  0  0
   21.0278   -8.4456  -13.2931 C   0  0  0  0  0  0  0  0  0  0  0  0
   20.6502   -8.3488  -14.7220 C   0  0  2  0  0  0  0  0  0  0  0  0
   21.6437   -8.9845  -15.5892 N   0  0  0  0  0  0  0  0  0  0  0  0
   20.4918   -6.9784  -15.2396 C   0  0  0  0  0  0  0  0  0  0  0  0
   19.2529   -6.3906  -15.4536 O   0  0  0  0  0  0  0  0  0  0  0  0
   21.4942   -6.2858  -15.5086 O   0  0  0  0  0  0  0  0  0  0  0  0
  2 12  2  0
  2  1  1  0
  3  2  1  0
  4  5  1  0
  4  3  2  0
  5 11  2  0
  6  7  1  0
  6  5  1  0
  7  8  1  6
  9  7  1  0
  9 10  2  0
 11 12  1  0
 14 13  1  6
 14 16  1  0
 15 14  1  0
 16 17  1  6
 17  9  1  0
 18 16  1  0
 19 18  2  0
 21 20  1  6
 21 22  1  0
 23 21  1  0
 24 25  1  0
 24 23  1  1
 25 18  1  0
 26 24  1  0
 27 26  1  0
 28 26  2  0
M  END
$$$$
