YTL.pdb
     RDKit          3D

 28 28  0  0  1  0  0  0  0  0999 V2000
   18.2068  -17.5595  -16.0039 O   0  0  0  0  0  0  0  0  0  0  0  0
   19.3154  -18.1731  -15.4170 C   0  0  0  0  0  0  0  0  0  0  0  0
   19.1332  -19.4489  -14.8928 C   0  0  0  0  0  0  0  0  0  0  0  0
   20.2042  -20.1120  -14.2941 C   0  0  0  0  0  0  0  0  0  0  0  0
   21.4486  -19.5367  -14.2050 C   0  0  0  0  0  0  0  0  0  0  0  0
   22.5304  -20.2810  -13.5628 C   0  0  0  0  0  0  0  0  0  0  0  0
   23.7427  -20.5201  -14.3971 C   0  0  2  0  0  0  0  0  0  0  0  0
   23.3138  -21.4304  -15.4721 N   0  0  0  0  0  0  0  0  0  0  0  0
   24.8092  -21.1191  -13.5866 C   0  0  0  0  0  0  0  0  0  0  0  0
   24.9870  -22.3638  -13.5827 O   0  0  0  0  0  0  0  0  0  0  0  0
   21.6040  -18.2644  -14.7352 C   0  0  0  0  0  0  0  0  0  0  0  0
   20.5478  -17.5997  -15.3306 C   0  0  0  0  0  0  0  0  0  0  0  0
   28.3432  -20.9173  -13.9104 C   0  0  0  0  0  0  0  0  0  0  0  0
   28.1175  -20.5575  -12.4522 C   0  0  1  0  0  0  0  0  0  0  0  0
   28.2523  -19.1798  -12.3257 O   0  0  0  0  0  0  0  0  0  0  0  0
   26.7153  -20.9958  -12.0104 C   0  0  2  0  0  0  0  0  0  0  0  0
   25.6968  -20.3430  -12.7659 N   0  0  0  0  0  0  0  0  0  0  0  0
   26.6339  -20.7493  -10.5612 C   0  0  0  0  0  0  0  0  0  0  0  0
   25.9194  -19.7813  -10.1782 O   0  0  0  0  0  0  0  0  0  0  0  0
   28.2251  -21.0619   -5.5400 C   0  0  0  0  0  0  0  0  0  0  0  0
   28.4353  -19.8084   -6.4109 C   0  0  2  0  0  0  0  0  0  0  0  0
   27.3688  -18.8262   -6.0192 C   0  0  0  0  0  0  0  0  0  0  0  0
   28.4092  -20.1753   -7.8686 C   0  0  0  0  0  0  0  0  0  0  0  0
   27.3368  -21.1558   -8.1551 C   0  0  2  0  0  0  0  0  0  0  0  0
   27.2867  -21.5042   -9.5762 N   0  0  0  0  0  0  0  0  0  0  0  0
   25.9738  -20.7173   -7.8068 C   0  0  0  0  0  0  0  0  0  0  0  0
   25.3667  -19.6100   -8.3826 O   0  0  0  0  0  0  0  0  0  0  0  0
   25.3060  -21.3453   -6.9605 O   0  0  0  0  0  0  0  0  0  0  0  0
  2 12  2  0
  2  1  1  0
  3  2  1  0
  4  5  1  0
  4  3  2  0
  5 11  2  0
  6  7  1  0
  6  5  1  0
  7  8  1  6
  9  7  1  0
  9 10  2  0
 11 12  1  0
 14 13  1  6
 14 16  1  0
 15 14  1  0
 16 17  1  6
 17  9  1  0
 18 16  1  0
 19 18  2  0
 21 20  1  1
 21 22  1  0
 23 21  1  0
 24 25  1  0
 24 23  1  6
 25 18  1  0
 26 24  1  0
 27 26  1  0
 28 26  2  0
M  END
$$$$
