YTL.pdb
     RDKit          3D

 28 28  0  0  1  0  0  0  0  0999 V2000
   26.4497  -29.0839  -17.7351 O   0  0  0  0  0  0  0  0  0  0  0  0
   26.5949  -27.7953  -17.2170 C   0  0  0  0  0  0  0  0  0  0  0  0
   27.5953  -26.9984  -17.7645 C   0  0  0  0  0  0  0  0  0  0  0  0
   27.7879  -25.7019  -17.2876 C   0  0  0  0  0  0  0  0  0  0  0  0
   27.0104  -25.1817  -16.2814 C   0  0  0  0  0  0  0  0  0  0  0  0
   27.2633  -23.8172  -15.8223 C   0  0  0  0  0  0  0  0  0  0  0  0
   26.2180  -22.8101  -16.1626 C   0  0  2  0  0  0  0  0  0  0  0  0
   26.5761  -22.2985  -17.4960 N   0  0  0  0  0  0  0  0  0  0  0  0
   26.2040  -21.7332  -15.1658 C   0  0  0  0  0  0  0  0  0  0  0  0
   26.9707  -20.7437  -15.2826 O   0  0  0  0  0  0  0  0  0  0  0  0
   26.0201  -25.9963  -15.7526 C   0  0  0  0  0  0  0  0  0  0  0  0
   25.8221  -27.2827  -16.2193 C   0  0  0  0  0  0  0  0  0  0  0  0
   23.9606  -19.0598  -14.3143 C   0  0  0  0  0  0  0  0  0  0  0  0
   24.1129  -19.8600  -13.0324 C   0  0  1  0  0  0  0  0  0  0  0  0
   23.0149  -20.7053  -12.9228 O   0  0  0  0  0  0  0  0  0  0  0  0
   25.4101  -20.6782  -13.0707 C   0  0  2  0  0  0  0  0  0  0  0  0
   25.3359  -21.7390  -14.0211 N   0  0  0  0  0  0  0  0  0  0  0  0
   25.6650  -21.1284  -11.6924 C   0  0  0  0  0  0  0  0  0  0  0  0
   25.4123  -22.3356  -11.4220 O   0  0  0  0  0  0  0  0  0  0  0  0
   27.6950  -19.0255   -6.1628 C   0  0  0  0  0  0  0  0  0  0  0  0
   27.0418  -20.1433   -6.9983 C   0  0  2  0  0  0  0  0  0  0  0  0
   27.7842  -21.4098   -6.6812 C   0  0  0  0  0  0  0  0  0  0  0  0
   27.0618  -19.7836   -8.4578 C   0  0  0  0  0  0  0  0  0  0  0  0
   26.2277  -20.7158   -9.2508 C   0  0  2  0  0  0  0  0  0  0  0  0
   26.1655  -20.3226  -10.6596 N   0  0  0  0  0  0  0  0  0  0  0  0
   24.8265  -20.8359   -8.8110 C   0  0  0  0  0  0  0  0  0  0  0  0
   23.7955  -20.0880   -9.3623 O   0  0  0  0  0  0  0  0  0  0  0  0
   24.5159  -21.6354   -7.9050 O   0  0  0  0  0  0  0  0  0  0  0  0
  2 12  2  0
  2  1  1  0
  3  2  1  0
  4  5  1  0
  4  3  2  0
  5 11  2  0
  6  7  1  0
  6  5  1  0
  7  8  1  6
  9  7  1  0
  9 10  2  0
 11 12  1  0
 14 13  1  6
 14 16  1  0
 15 14  1  0
 16 17  1  6
 17  9  1  0
 18 16  1  0
 19 18  2  0
 21 20  1  1
 21 22  1  0
 23 21  1  0
 24 25  1  0
 24 23  1  1
 25 18  1  0
 26 24  1  0
 27 26  1  0
 28 26  2  0
M  END
$$$$
