YTL.pdb
     RDKit          3D

 28 28  0  0  1  0  0  0  0  0999 V2000
   28.1937  -18.8818   -3.0156 O   0  0  0  0  0  0  0  0  0  0  0  0
   28.0190  -19.3497   -4.3197 C   0  0  0  0  0  0  0  0  0  0  0  0
   27.4021  -18.4930   -5.2258 C   0  0  0  0  0  0  0  0  0  0  0  0
   27.2003  -18.9052   -6.5429 C   0  0  0  0  0  0  0  0  0  0  0  0
   27.5969  -20.1465   -6.9778 C   0  0  0  0  0  0  0  0  0  0  0  0
   27.3546  -20.5218   -8.3696 C   0  0  0  0  0  0  0  0  0  0  0  0
   25.9394  -20.4384   -8.8309 C   0  0  2  0  0  0  0  0  0  0  0  0
   25.2153  -21.4829   -8.0874 N   0  0  0  0  0  0  0  0  0  0  0  0
   25.8609  -20.6647  -10.2787 C   0  0  0  0  0  0  0  0  0  0  0  0
   26.3668  -21.6942  -10.7933 O   0  0  0  0  0  0  0  0  0  0  0  0
   28.2095  -20.9816   -6.0551 C   0  0  0  0  0  0  0  0  0  0  0  0
   28.4136  -20.5811   -4.7475 C   0  0  0  0  0  0  0  0  0  0  0  0
   23.2755  -21.7155  -12.2801 C   0  0  0  0  0  0  0  0  0  0  0  0
   23.7032  -20.4364  -12.9785 C   0  0  1  0  0  0  0  0  0  0  0  0
   22.8185  -19.4303  -12.6079 O   0  0  0  0  0  0  0  0  0  0  0  0
   25.1333  -20.0625  -12.5680 C   0  0  2  0  0  0  0  0  0  0  0  0
   25.2177  -19.7487  -11.1792 N   0  0  0  0  0  0  0  0  0  0  0  0
   25.5527  -18.9646  -13.4545 C   0  0  0  0  0  0  0  0  0  0  0  0
   25.4008  -17.7860  -13.0276 O   0  0  0  0  0  0  0  0  0  0  0  0
   29.1991  -16.3346  -16.5453 C   0  0  0  0  0  0  0  0  0  0  0  0
   28.2337  -17.3037  -17.2544 C   0  0  2  0  0  0  0  0  0  0  0  0
   27.0894  -16.4764  -17.7659 C   0  0  0  0  0  0  0  0  0  0  0  0
   27.8114  -18.3997  -16.3160 C   0  0  0  0  0  0  0  0  0  0  0  0
   26.5799  -18.0305  -15.5807 C   0  0  2  0  0  0  0  0  0  0  0  0
   26.1061  -19.1259  -14.7329 N   0  0  0  0  0  0  0  0  0  0  0  0
   25.4310  -17.6577  -16.4247 C   0  0  0  0  0  0  0  0  0  0  0  0
   25.0467  -16.3414  -16.6383 O   0  0  0  0  0  0  0  0  0  0  0  0
   24.7503  -18.5384  -16.9884 O   0  0  0  0  0  0  0  0  0  0  0  0
  2 12  2  0
  2  1  1  0
  3  2  1  0
  4  5  1  0
  4  3  2  0
  5 11  2  0
  6  7  1  0
  6  5  1  0
  7  8  1  1
  9  7  1  0
  9 10  2  0
 11 12  1  0
 14 13  1  1
 14 16  1  0
 15 14  1  0
 16 17  1  1
 17  9  1  0
 18 16  1  0
 19 18  2  0
 21 20  1  1
 21 22  1  0
 23 21  1  0
 24 25  1  0
 24 23  1  6
 25 18  1  0
 26 24  1  0
 27 26  1  0
 28 26  2  0
M  END
$$$$
