ANW.pdb
     RDKit          3D

 28 29  0  0  1  0  0  0  0  0999 V2000
    7.3612  -13.5958   21.4390 C   0  0  0  0  0  0  0  0  0  0  0  0
    7.8215  -14.8004   20.6513 C   0  0  2  0  0  0  0  0  0  0  0  0
    6.7678  -15.4415   19.9186 N   0  0  0  0  0  0  0  0  0  0  0  0
    8.5262  -15.7801   21.5230 C   0  0  0  0  0  0  0  0  0  0  0  0
    7.8161  -16.5853   22.1695 O   0  0  0  0  0  0  0  0  0  0  0  0
   11.4307  -19.2547   20.4987 N   0  0  0  0  0  0  0  0  0  0  0  0
   11.8533  -17.9109   20.6574 C   0  0  0  0  0  0  0  0  0  0  0  0
   12.2246  -17.2939   19.6167 O   0  0  0  0  0  0  0  0  0  0  0  0
   11.8746  -17.2265   21.9629 C   0  0  0  0  0  0  0  0  0  0  0  0
   10.4942  -16.8965   22.5017 C   0  0  2  0  0  0  0  0  0  0  0  0
    9.9209  -15.8385   21.6484 N   0  0  0  0  0  0  0  0  0  0  0  0
   10.4620  -16.4176   23.8741 C   0  0  0  0  0  0  0  0  0  0  0  0
   11.0864  -15.3352   24.1780 O   0  0  0  0  0  0  0  0  0  0  0  0
    9.7948  -17.0140   24.9807 N   0  0  0  0  0  0  0  0  0  0  0  0
    9.9658  -16.4932   26.3448 C   0  0  1  0  0  0  0  0  0  0  0  0
    8.6233  -16.5386   27.0515 C   0  0  0  0  0  0  0  0  0  0  0  0
    7.6628  -15.7050   26.3291 C   0  0  0  0  0  0  0  0  0  0  0  0
    6.6853  -16.1013   25.4214 C   0  0  0  0  0  0  0  0  0  0  0  0
    6.0560  -14.9827   25.0280 N   0  0  0  0  0  0  0  0  0  0  0  0
    6.5512  -13.8825   25.6126 C   0  0  0  0  0  0  0  0  0  0  0  0
    6.2427  -12.5235   25.5323 C   0  0  0  0  0  0  0  0  0  0  0  0
    6.9321  -11.6042   26.2611 C   0  0  0  0  0  0  0  0  0  0  0  0
    7.9496  -12.0387   27.0883 C   0  0  0  0  0  0  0  0  0  0  0  0
    8.2645  -13.3799   27.1768 C   0  0  0  0  0  0  0  0  0  0  0  0
    7.5683  -14.3330   26.4371 C   0  0  0  0  0  0  0  0  0  0  0  0
   10.9100  -17.3770   27.0491 C   0  0  0  0  0  0  0  0  0  0  0  0
   11.3463  -18.3994   26.5000 O   0  0  0  0  0  0  0  0  0  0  0  0
   11.3125  -17.0603   28.3353 O   0  0  0  0  0  0  0  0  0  0  0  0
  2  4  1  0
  2  1  1  1
  3  2  1  0
  4  5  2  0
  6  7  1  0
  7  9  1  0
  8  7  2  0
 10  9  1  6
 10 12  1  0
 11 10  1  0
 11  4  1  0
 12 13  2  0
 12 14  1  0
 14 15  1  0
 15 26  1  0
 15 16  1  1
 17 18  2  0
 17 16  1  0
 19 18  1  0
 20 25  2  0
 20 19  1  0
 21 20  1  0
 22 23  1  0
 22 21  2  0
 23 24  2  0
 24 25  1  0
 25 17  1  0
 26 28  1  0
 27 26  2  0
M  END
$$$$
