ANW.pdb
     RDKit          3D

 28 29  0  0  1  0  0  0  0  0999 V2000
    7.3535  -15.0282   17.8495 C   0  0  0  0  0  0  0  0  0  0  0  0
    8.7182  -14.8364   18.4693 C   0  0  2  0  0  0  0  0  0  0  0  0
    9.7945  -14.9404   17.5264 N   0  0  0  0  0  0  0  0  0  0  0  0
    8.9294  -15.7670   19.6120 C   0  0  0  0  0  0  0  0  0  0  0  0
    8.0333  -15.8117   20.4868 O   0  0  0  0  0  0  0  0  0  0  0  0
   10.9025  -20.2783   18.8227 N   0  0  0  0  0  0  0  0  0  0  0  0
   10.5666  -19.7579   20.0979 C   0  0  0  0  0  0  0  0  0  0  0  0
    9.7070  -20.3938   20.7749 O   0  0  0  0  0  0  0  0  0  0  0  0
   11.1705  -18.5301   20.6467 C   0  0  0  0  0  0  0  0  0  0  0  0
   10.1626  -17.4346   20.9445 C   0  0  2  0  0  0  0  0  0  0  0  0
   10.0645  -16.5779   19.7476 N   0  0  0  0  0  0  0  0  0  0  0  0
   10.4932  -16.5768   22.0709 C   0  0  0  0  0  0  0  0  0  0  0  0
   11.2619  -15.5626   21.8855 O   0  0  0  0  0  0  0  0  0  0  0  0
   10.0546  -16.7138   23.4178 N   0  0  0  0  0  0  0  0  0  0  0  0
   10.1062  -15.5824   24.3551 C   0  0  1  0  0  0  0  0  0  0  0  0
    9.1786  -14.4927   23.8494 C   0  0  0  0  0  0  0  0  0  0  0  0
    7.9885  -14.4321   24.6977 C   0  0  0  0  0  0  0  0  0  0  0  0
    7.0097  -15.4035   24.8843 C   0  0  0  0  0  0  0  0  0  0  0  0
    6.1237  -14.8887   25.7515 N   0  0  0  0  0  0  0  0  0  0  0  0
    6.4517  -13.6501   26.1460 C   0  0  0  0  0  0  0  0  0  0  0  0
    5.8663  -12.7249   27.0118 C   0  0  0  0  0  0  0  0  0  0  0  0
    6.4372  -11.5088   27.2280 C   0  0  0  0  0  0  0  0  0  0  0  0
    7.6139  -11.2006   26.5732 C   0  0  0  0  0  0  0  0  0  0  0  0
    8.2030  -12.1068   25.7145 C   0  0  0  0  0  0  0  0  0  0  0  0
    7.6309  -13.3555   25.4826 C   0  0  0  0  0  0  0  0  0  0  0  0
    9.6217  -16.0579   25.6620 C   0  0  0  0  0  0  0  0  0  0  0  0
    8.9363  -17.0878   25.7438 O   0  0  0  0  0  0  0  0  0  0  0  0
    9.9365  -15.3467   26.8073 O   0  0  0  0  0  0  0  0  0  0  0  0
  2  4  1  0
  2  1  1  6
  3  2  1  0
  4  5  2  0
  6  7  1  0
  7  9  1  0
  8  7  2  0
 10  9  1  6
 10 12  1  0
 11 10  1  0
 11  4  1  0
 12 13  2  0
 12 14  1  0
 14 15  1  0
 15 26  1  0
 15 16  1  6
 17 18  2  0
 17 16  1  0
 19 18  1  0
 20 25  2  0
 20 19  1  0
 21 20  1  0
 22 23  1  0
 22 21  2  0
 23 24  2  0
 24 25  1  0
 25 17  1  0
 26 28  1  0
 27 26  2  0
M  END
$$$$
