ANW.pdb
     RDKit          3D

 28 29  0  0  1  0  0  0  0  0999 V2000
    8.3841  -20.6561   20.0569 C   0  0  0  0  0  0  0  0  0  0  0  0
    8.5786  -20.1031   21.4496 C   0  0  2  0  0  0  0  0  0  0  0  0
    7.3534  -19.9482   22.1799 N   0  0  0  0  0  0  0  0  0  0  0  0
    9.3392  -18.8236   21.4227 C   0  0  0  0  0  0  0  0  0  0  0  0
   10.4823  -18.8481   20.9097 O   0  0  0  0  0  0  0  0  0  0  0  0
    8.4628  -16.0634   18.8368 N   0  0  0  0  0  0  0  0  0  0  0  0
    8.0047  -15.7672   20.1452 C   0  0  0  0  0  0  0  0  0  0  0  0
    6.7677  -15.9095   20.3718 O   0  0  0  0  0  0  0  0  0  0  0  0
    8.9000  -15.3095   21.2233 C   0  0  0  0  0  0  0  0  0  0  0  0
    9.7063  -16.4259   21.8623 C   0  0  2  0  0  0  0  0  0  0  0  0
    8.8410  -17.6184   21.9361 N   0  0  0  0  0  0  0  0  0  0  0  0
   10.1894  -16.1516   23.2060 C   0  0  0  0  0  0  0  0  0  0  0  0
   11.1768  -15.3437   23.3673 O   0  0  0  0  0  0  0  0  0  0  0  0
    9.6877  -16.6809   24.4280 N   0  0  0  0  0  0  0  0  0  0  0  0
   10.4019  -16.4778   25.6969 C   0  0  1  0  0  0  0  0  0  0  0  0
    9.9974  -15.1316   26.2694 C   0  0  0  0  0  0  0  0  0  0  0  0
    8.5453  -14.9795   26.1802 C   0  0  0  0  0  0  0  0  0  0  0  0
    7.5843  -15.9643   25.9725 C   0  0  0  0  0  0  0  0  0  0  0  0
    6.3956  -15.3405   25.9683 N   0  0  0  0  0  0  0  0  0  0  0  0
    6.5092  -14.0181   26.1580 C   0  0  0  0  0  0  0  0  0  0  0  0
    5.5901  -12.9701   26.2322 C   0  0  0  0  0  0  0  0  0  0  0  0
    6.0024  -11.6899   26.4387 C   0  0  0  0  0  0  0  0  0  0  0  0
    7.3543  -11.4404   26.5751 C   0  0  0  0  0  0  0  0  0  0  0  0
    8.2733  -12.4679   26.5038 C   0  0  0  0  0  0  0  0  0  0  0  0
    7.8672  -13.7835   26.2928 C   0  0  0  0  0  0  0  0  0  0  0  0
    9.9816  -17.5409   26.6253 C   0  0  0  0  0  0  0  0  0  0  0  0
    9.1252  -18.3712   26.2872 O   0  0  0  0  0  0  0  0  0  0  0  0
   10.5501  -17.6113   27.8857 O   0  0  0  0  0  0  0  0  0  0  0  0
  2  4  1  0
  2  1  1  6
  3  2  1  0
  4  5  2  0
  6  7  1  0
  7  9  1  0
  8  7  2  0
 10  9  1  1
 10 12  1  0
 11 10  1  0
 11  4  1  0
 12 13  2  0
 12 14  1  0
 14 15  1  0
 15 26  1  0
 15 16  1  1
 17 18  2  0
 17 16  1  0
 19 18  1  0
 20 25  2  0
 20 19  1  0
 21 20  1  0
 22 23  1  0
 22 21  2  0
 23 24  2  0
 24 25  1  0
 25 17  1  0
 26 28  1  0
 27 26  2  0
M  END
$$$$
