ANW.pdb
     RDKit          3D

 28 29  0  0  1  0  0  0  0  0999 V2000
    7.2188  -13.0148   19.1556 C   0  0  0  0  0  0  0  0  0  0  0  0
    8.5660  -13.4906   19.6475 C   0  0  2  0  0  0  0  0  0  0  0  0
    9.5119  -13.7190   18.5933 N   0  0  0  0  0  0  0  0  0  0  0  0
    8.4328  -14.7006   20.5047 C   0  0  0  0  0  0  0  0  0  0  0  0
    7.5989  -14.6512   21.4387 O   0  0  0  0  0  0  0  0  0  0  0  0
   10.4219  -20.4085   21.3311 N   0  0  0  0  0  0  0  0  0  0  0  0
    9.3666  -19.4630   21.3750 C   0  0  0  0  0  0  0  0  0  0  0  0
    8.4354  -19.6726   22.2059 O   0  0  0  0  0  0  0  0  0  0  0  0
    9.3197  -18.2736   20.5052 C   0  0  0  0  0  0  0  0  0  0  0  0
    8.9566  -16.9950   21.2386 C   0  0  2  0  0  0  0  0  0  0  0  0
    9.1852  -15.8677   20.3149 N   0  0  0  0  0  0  0  0  0  0  0  0
    9.7225  -16.7335   22.4464 C   0  0  0  0  0  0  0  0  0  0  0  0
   10.9909  -16.5405   22.3582 O   0  0  0  0  0  0  0  0  0  0  0  0
    9.2310  -16.6543   23.7797 N   0  0  0  0  0  0  0  0  0  0  0  0
   10.1195  -16.3153   24.9008 C   0  0  1  0  0  0  0  0  0  0  0  0
    9.8702  -14.8712   25.2959 C   0  0  0  0  0  0  0  0  0  0  0  0
    8.4469  -14.6800   25.5741 C   0  0  0  0  0  0  0  0  0  0  0  0
    7.4243  -15.6229   25.5351 C   0  0  0  0  0  0  0  0  0  0  0  0
    6.2965  -14.9744   25.8659 N   0  0  0  0  0  0  0  0  0  0  0  0
    6.5069  -13.6747   26.1185 C   0  0  0  0  0  0  0  0  0  0  0  0
    5.6769  -12.6158   26.4906 C   0  0  0  0  0  0  0  0  0  0  0  0
    6.1794  -11.3661   26.6836 C   0  0  0  0  0  0  0  0  0  0  0  0
    7.5334  -11.1587   26.5048 C   0  0  0  0  0  0  0  0  0  0  0  0
    8.3650  -12.1974   26.1371 C   0  0  0  0  0  0  0  0  0  0  0  0
    7.8659  -13.4822   25.9355 C   0  0  0  0  0  0  0  0  0  0  0  0
    9.7704  -17.1905   26.0325 C   0  0  0  0  0  0  0  0  0  0  0  0
   10.3311  -17.0560   27.1301 O   0  0  0  0  0  0  0  0  0  0  0  0
    8.8070  -18.1708   25.8662 O   0  0  0  0  0  0  0  0  0  0  0  0
  2  4  1  0
  2  1  1  6
  3  2  1  0
  4  5  2  0
  6  7  1  0
  7  9  1  0
  8  7  2  0
 10  9  1  6
 10 12  1  0
 11 10  1  0
 11  4  1  0
 12 13  2  0
 12 14  1  0
 14 15  1  0
 15 26  1  0
 15 16  1  1
 17 18  2  0
 17 16  1  0
 19 18  1  0
 20 25  2  0
 20 19  1  0
 21 20  1  0
 22 23  1  0
 22 21  2  0
 23 24  2  0
 24 25  1  0
 25 17  1  0
 26 28  1  0
 27 26  2  0
M  END
$$$$
