ANW.pdb
     RDKit          3D

 28 29  0  0  1  0  0  0  0  0999 V2000
    7.2234  -13.1532   19.1852 C   0  0  0  0  0  0  0  0  0  0  0  0
    8.5940  -13.5084   19.7131 C   0  0  2  0  0  0  0  0  0  0  0  0
    9.5477  -13.7961   18.6807 N   0  0  0  0  0  0  0  0  0  0  0  0
    8.5239  -14.6293   20.6904 C   0  0  0  0  0  0  0  0  0  0  0  0
    7.6927  -14.5247   21.6224 O   0  0  0  0  0  0  0  0  0  0  0  0
   11.3850  -18.3757   19.1908 N   0  0  0  0  0  0  0  0  0  0  0  0
   10.9477  -18.1573   20.5215 C   0  0  0  0  0  0  0  0  0  0  0  0
   11.8378  -17.9510   21.3971 O   0  0  0  0  0  0  0  0  0  0  0  0
    9.5253  -18.1634   20.9087 C   0  0  0  0  0  0  0  0  0  0  0  0
    9.0644  -16.8718   21.5599 C   0  0  2  0  0  0  0  0  0  0  0  0
    9.3314  -15.7722   20.6135 N   0  0  0  0  0  0  0  0  0  0  0  0
    9.7219  -16.5399   22.8135 C   0  0  0  0  0  0  0  0  0  0  0  0
   10.8102  -15.8550   22.7916 O   0  0  0  0  0  0  0  0  0  0  0  0
    9.2988  -16.8853   24.1277 N   0  0  0  0  0  0  0  0  0  0  0  0
   10.1221  -16.5644   25.3026 C   0  0  1  0  0  0  0  0  0  0  0  0
    9.8913  -15.1105   25.6723 C   0  0  0  0  0  0  0  0  0  0  0  0
    8.4652  -14.8873   25.9085 C   0  0  0  0  0  0  0  0  0  0  0  0
    7.4252  -15.8103   25.8541 C   0  0  0  0  0  0  0  0  0  0  0  0
    6.3020  -15.1350   26.1447 N   0  0  0  0  0  0  0  0  0  0  0  0
    6.5316  -13.8362   26.3853 C   0  0  0  0  0  0  0  0  0  0  0  0
    5.7133  -12.7560   26.7198 C   0  0  0  0  0  0  0  0  0  0  0  0
    6.2353  -11.5139   26.9096 C   0  0  0  0  0  0  0  0  0  0  0  0
    7.5976  -11.3358   26.7655 C   0  0  0  0  0  0  0  0  0  0  0  0
    8.4178  -12.3958   26.4351 C   0  0  0  0  0  0  0  0  0  0  0  0
    7.8987  -13.6732   26.2373 C   0  0  0  0  0  0  0  0  0  0  0  0
    9.6736  -17.4201   26.4140 C   0  0  0  0  0  0  0  0  0  0  0  0
    8.7810  -18.2629   26.2405 O   0  0  0  0  0  0  0  0  0  0  0  0
   10.2562  -17.2801   27.6621 O   0  0  0  0  0  0  0  0  0  0  0  0
  2  4  1  0
  2  1  1  6
  3  2  1  0
  4  5  2  0
  6  7  1  0
  7  9  1  0
  8  7  2  0
 10  9  1  6
 10 12  1  0
 11 10  1  0
 11  4  1  0
 12 13  2  0
 12 14  1  0
 14 15  1  0
 15 26  1  0
 15 16  1  1
 17 18  2  0
 17 16  1  0
 19 18  1  0
 20 25  2  0
 20 19  1  0
 21 20  1  0
 22 23  1  0
 22 21  2  0
 23 24  2  0
 24 25  1  0
 25 17  1  0
 26 28  1  0
 27 26  2  0
M  END
$$$$
