ANW.pdb
     RDKit          3D

 28 29  0  0  1  0  0  0  0  0999 V2000
    7.8470  -12.7317   20.6298 C   0  0  0  0  0  0  0  0  0  0  0  0
    7.9628  -14.0567   19.9126 C   0  0  2  0  0  0  0  0  0  0  0  0
    6.7806  -14.4185   19.1847 N   0  0  0  0  0  0  0  0  0  0  0  0
    8.3574  -15.1458   20.8478 C   0  0  0  0  0  0  0  0  0  0  0  0
    7.4357  -15.7479   21.4465 O   0  0  0  0  0  0  0  0  0  0  0  0
   10.1552  -19.2998   19.9683 N   0  0  0  0  0  0  0  0  0  0  0  0
   10.8961  -18.0960   20.0755 C   0  0  0  0  0  0  0  0  0  0  0  0
   11.3500  -17.5979   19.0043 O   0  0  0  0  0  0  0  0  0  0  0  0
   11.1493  -17.4229   21.3624 C   0  0  0  0  0  0  0  0  0  0  0  0
    9.9362  -16.7035   21.9241 C   0  0  2  0  0  0  0  0  0  0  0  0
    9.6882  -15.5178   21.0820 N   0  0  0  0  0  0  0  0  0  0  0  0
   10.0674  -16.2452   23.2977 C   0  0  0  0  0  0  0  0  0  0  0  0
   10.8613  -15.2689   23.5625 O   0  0  0  0  0  0  0  0  0  0  0  0
    9.3978  -16.7554   24.4452 N   0  0  0  0  0  0  0  0  0  0  0  0
    9.7951  -16.3518   25.8018 C   0  0  1  0  0  0  0  0  0  0  0  0
    8.5649  -16.3672   26.6907 C   0  0  0  0  0  0  0  0  0  0  0  0
    7.5790  -15.4170   26.1763 C   0  0  0  0  0  0  0  0  0  0  0  0
    6.4833  -15.6676   25.3558 C   0  0  0  0  0  0  0  0  0  0  0  0
    5.8799  -14.4853   25.1559 N   0  0  0  0  0  0  0  0  0  0  0  0
    6.5017  -13.4785   25.7861 C   0  0  0  0  0  0  0  0  0  0  0  0
    6.2662  -12.1059   25.8816 C   0  0  0  0  0  0  0  0  0  0  0  0
    7.0864  -11.3034   26.6128 C   0  0  0  0  0  0  0  0  0  0  0  0
    8.1641  -11.8711   27.2644 C   0  0  0  0  0  0  0  0  0  0  0  0
    8.4080  -13.2271   27.1781 C   0  0  0  0  0  0  0  0  0  0  0  0
    7.5778  -14.0618   26.4336 C   0  0  0  0  0  0  0  0  0  0  0  0
   10.7619  -17.3439   26.3017 C   0  0  0  0  0  0  0  0  0  0  0  0
   11.0840  -18.3173   25.6048 O   0  0  0  0  0  0  0  0  0  0  0  0
   11.3144  -17.1849   27.5612 O   0  0  0  0  0  0  0  0  0  0  0  0
  2  4  1  0
  2  1  1  1
  3  2  1  0
  4  5  2  0
  6  7  1  0
  7  9  1  0
  8  7  2  0
 10  9  1  6
 10 12  1  0
 11 10  1  0
 11  4  1  0
 12 13  2  0
 12 14  1  0
 14 15  1  0
 15 26  1  0
 15 16  1  1
 17 18  2  0
 17 16  1  0
 19 18  1  0
 20 25  2  0
 20 19  1  0
 21 20  1  0
 22 23  1  0
 22 21  2  0
 23 24  2  0
 24 25  1  0
 25 17  1  0
 26 28  1  0
 27 26  2  0
M  END
$$$$
