ANW.pdb
     RDKit          3D

 28 29  0  0  1  0  0  0  0  0999 V2000
    9.0214  -20.5086   19.5202 C   0  0  0  0  0  0  0  0  0  0  0  0
    8.8693  -19.8951   20.8927 C   0  0  2  0  0  0  0  0  0  0  0  0
    7.5052  -19.7890   21.3239 N   0  0  0  0  0  0  0  0  0  0  0  0
    9.5498  -18.5734   20.9732 C   0  0  0  0  0  0  0  0  0  0  0  0
   10.7808  -18.5484   20.7399 O   0  0  0  0  0  0  0  0  0  0  0  0
    6.3964  -14.7608   21.5603 N   0  0  0  0  0  0  0  0  0  0  0  0
    7.3793  -15.3576   20.7312 C   0  0  0  0  0  0  0  0  0  0  0  0
    6.9845  -16.2213   19.8947 O   0  0  0  0  0  0  0  0  0  0  0  0
    8.8107  -15.0138   20.8105 C   0  0  0  0  0  0  0  0  0  0  0  0
    9.6802  -16.1393   21.3414 C   0  0  2  0  0  0  0  0  0  0  0  0
    8.8855  -17.3813   21.2923 N   0  0  0  0  0  0  0  0  0  0  0  0
   10.1463  -15.9715   22.7083 C   0  0  0  0  0  0  0  0  0  0  0  0
   10.9908  -15.0391   22.9755 O   0  0  0  0  0  0  0  0  0  0  0  0
    9.7709  -16.7366   23.8480 N   0  0  0  0  0  0  0  0  0  0  0  0
   10.3835  -16.4967   25.1627 C   0  0  1  0  0  0  0  0  0  0  0  0
   10.0764  -15.0720   25.5866 C   0  0  0  0  0  0  0  0  0  0  0  0
    8.6287  -14.8988   25.7037 C   0  0  0  0  0  0  0  0  0  0  0  0
    7.6312  -15.8628   25.5938 C   0  0  0  0  0  0  0  0  0  0  0  0
    6.4643  -15.2248   25.7764 N   0  0  0  0  0  0  0  0  0  0  0  0
    6.6259  -13.9124   25.9977 C   0  0  0  0  0  0  0  0  0  0  0  0
    5.7442  -12.8569   26.2365 C   0  0  0  0  0  0  0  0  0  0  0  0
    6.2032  -11.5910   26.4317 C   0  0  0  0  0  0  0  0  0  0  0  0
    7.5652  -11.3635   26.3900 C   0  0  0  0  0  0  0  0  0  0  0  0
    8.4477  -12.3987   26.1548 C   0  0  0  0  0  0  0  0  0  0  0  0
    7.9935  -13.6999   25.9529 C   0  0  0  0  0  0  0  0  0  0  0  0
    9.7672  -17.4274   26.1232 C   0  0  0  0  0  0  0  0  0  0  0  0
    8.8471  -18.1799   25.7706 O   0  0  0  0  0  0  0  0  0  0  0  0
   10.2219  -17.4604   27.4305 O   0  0  0  0  0  0  0  0  0  0  0  0
  2  4  1  0
  2  1  1  6
  3  2  1  0
  4  5  2  0
  6  7  1  0
  7  9  1  0
  8  7  2  0
 10  9  1  1
 10 12  1  0
 11 10  1  0
 11  4  1  0
 12 13  2  0
 12 14  1  0
 14 15  1  0
 15 26  1  0
 15 16  1  1
 17 18  2  0
 17 16  1  0
 19 18  1  0
 20 25  2  0
 20 19  1  0
 21 20  1  0
 22 23  1  0
 22 21  2  0
 23 24  2  0
 24 25  1  0
 25 17  1  0
 26 28  1  0
 27 26  2  0
M  END
$$$$
