ANW.pdb
     RDKit          3D

 28 29  0  0  1  0  0  0  0  0999 V2000
    6.3650  -14.8751   20.8371 C   0  0  0  0  0  0  0  0  0  0  0  0
    7.8729  -14.7974   20.7772 C   0  0  2  0  0  0  0  0  0  0  0  0
    8.4097  -15.0903   19.4794 N   0  0  0  0  0  0  0  0  0  0  0  0
    8.5012  -15.6629   21.8129 C   0  0  0  0  0  0  0  0  0  0  0  0
    7.7423  -16.1714   22.6708 O   0  0  0  0  0  0  0  0  0  0  0  0
   11.1555  -19.5889   20.9448 N   0  0  0  0  0  0  0  0  0  0  0  0
   11.6058  -18.2460   21.0026 C   0  0  0  0  0  0  0  0  0  0  0  0
   11.9492  -17.7028   19.9123 O   0  0  0  0  0  0  0  0  0  0  0  0
   11.6857  -17.4811   22.2603 C   0  0  0  0  0  0  0  0  0  0  0  0
   10.3386  -16.9998   22.7687 C   0  0  2  0  0  0  0  0  0  0  0  0
    9.8765  -15.9270   21.8676 N   0  0  0  0  0  0  0  0  0  0  0  0
   10.3405  -16.4653   24.1208 C   0  0  0  0  0  0  0  0  0  0  0  0
   10.9854  -15.3805   24.3681 O   0  0  0  0  0  0  0  0  0  0  0  0
    9.6880  -17.0070   25.2637 N   0  0  0  0  0  0  0  0  0  0  0  0
    9.8859  -16.4279   26.6003 C   0  0  1  0  0  0  0  0  0  0  0  0
    8.5470  -16.3902   27.3141 C   0  0  0  0  0  0  0  0  0  0  0  0
    7.5969  -15.6029   26.5286 C   0  0  0  0  0  0  0  0  0  0  0  0
    6.6441  -16.0534   25.6199 C   0  0  0  0  0  0  0  0  0  0  0  0
    6.0152  -14.9619   25.1561 N   0  0  0  0  0  0  0  0  0  0  0  0
    6.4878  -13.8291   25.6954 C   0  0  0  0  0  0  0  0  0  0  0  0
    6.1705  -12.4787   25.5393 C   0  0  0  0  0  0  0  0  0  0  0  0
    6.8353  -11.5176   26.2363 C   0  0  0  0  0  0  0  0  0  0  0  0
    7.8367  -11.9005   27.1075 C   0  0  0  0  0  0  0  0  0  0  0  0
    8.1600  -13.2325   27.2711 C   0  0  0  0  0  0  0  0  0  0  0  0
    7.4889  -14.2281   26.5648 C   0  0  0  0  0  0  0  0  0  0  0  0
   10.8016  -17.3108   27.3424 C   0  0  0  0  0  0  0  0  0  0  0  0
   11.1591  -17.0237   28.4943 O   0  0  0  0  0  0  0  0  0  0  0  0
   11.2651  -18.4710   26.7459 O   0  0  0  0  0  0  0  0  0  0  0  0
  2  4  1  0
  2  1  1  6
  3  2  1  0
  4  5  2  0
  6  7  1  0
  7  9  1  0
  8  7  2  0
 10  9  1  6
 10 12  1  0
 11 10  1  0
 11  4  1  0
 12 13  2  0
 12 14  1  0
 14 15  1  0
 15 26  1  0
 15 16  1  1
 17 18  2  0
 17 16  1  0
 19 18  1  0
 20 25  2  0
 20 19  1  0
 21 20  1  0
 22 23  1  0
 22 21  2  0
 23 24  2  0
 24 25  1  0
 25 17  1  0
 26 28  1  0
 27 26  2  0
M  END
$$$$
