ANW.pdb
     RDKit          3D

 28 29  0  0  1  0  0  0  0  0999 V2000
    7.0572  -13.4455   19.0442 C   0  0  0  0  0  0  0  0  0  0  0  0
    8.4261  -13.7292   19.6178 C   0  0  2  0  0  0  0  0  0  0  0  0
    9.4389  -13.9106   18.6181 N   0  0  0  0  0  0  0  0  0  0  0  0
    8.3929  -14.8907   20.5485 C   0  0  0  0  0  0  0  0  0  0  0  0
    7.5286  -14.8726   21.4557 O   0  0  0  0  0  0  0  0  0  0  0  0
   11.6672  -17.9231   19.2267 N   0  0  0  0  0  0  0  0  0  0  0  0
   11.1881  -18.1728   20.5373 C   0  0  0  0  0  0  0  0  0  0  0  0
   12.0491  -18.2750   21.4591 O   0  0  0  0  0  0  0  0  0  0  0  0
    9.7551  -18.3144   20.8531 C   0  0  0  0  0  0  0  0  0  0  0  0
    9.1344  -17.0630   21.4476 C   0  0  2  0  0  0  0  0  0  0  0  0
    9.2694  -15.9803   20.4547 N   0  0  0  0  0  0  0  0  0  0  0  0
    9.7384  -16.5991   22.6861 C   0  0  0  0  0  0  0  0  0  0  0  0
   10.8742  -15.9972   22.6458 O   0  0  0  0  0  0  0  0  0  0  0  0
    9.2125  -16.7245   24.0026 N   0  0  0  0  0  0  0  0  0  0  0  0
   10.0268  -16.4003   25.1828 C   0  0  1  0  0  0  0  0  0  0  0  0
    9.8188  -14.9367   25.5267 C   0  0  0  0  0  0  0  0  0  0  0  0
    8.3863  -14.6556   25.6190 C   0  0  0  0  0  0  0  0  0  0  0  0
    7.3194  -15.5172   25.3822 C   0  0  0  0  0  0  0  0  0  0  0  0
    6.2015  -14.8053   25.5952 N   0  0  0  0  0  0  0  0  0  0  0  0
    6.4595  -13.5395   25.9541 C   0  0  0  0  0  0  0  0  0  0  0  0
    5.6570  -12.4431   26.2739 C   0  0  0  0  0  0  0  0  0  0  0  0
    6.2085  -11.2456   26.6108 C   0  0  0  0  0  0  0  0  0  0  0  0
    7.5849  -11.1298   26.6320 C   0  0  0  0  0  0  0  0  0  0  0  0
    8.3897  -12.2065   26.3179 C   0  0  0  0  0  0  0  0  0  0  0  0
    7.8404  -13.4386   25.9709 C   0  0  0  0  0  0  0  0  0  0  0  0
    9.5481  -17.2297   26.3016 C   0  0  0  0  0  0  0  0  0  0  0  0
    8.5839  -17.9945   26.1523 O   0  0  0  0  0  0  0  0  0  0  0  0
   10.1831  -17.1528   27.5295 O   0  0  0  0  0  0  0  0  0  0  0  0
  2  4  1  0
  2  1  1  6
  3  2  1  0
  4  5  2  0
  6  7  1  0
  7  9  1  0
  8  7  2  0
 10  9  1  6
 10 12  1  0
 11 10  1  0
 11  4  1  0
 12 13  2  0
 12 14  1  0
 14 15  1  0
 15 26  1  0
 15 16  1  1
 17 18  2  0
 17 16  1  0
 19 18  1  0
 20 25  2  0
 20 19  1  0
 21 20  1  0
 22 23  1  0
 22 21  2  0
 23 24  2  0
 24 25  1  0
 25 17  1  0
 26 28  1  0
 27 26  2  0
M  END
$$$$
