ANW.pdb
     RDKit          3D

 28 29  0  0  1  0  0  0  0  0999 V2000
    6.7144  -18.2119   19.5094 C   0  0  0  0  0  0  0  0  0  0  0  0
    7.1767  -17.1057   20.4291 C   0  0  2  0  0  0  0  0  0  0  0  0
    7.3139  -15.8368   19.7738 N   0  0  0  0  0  0  0  0  0  0  0  0
    8.4383  -17.4747   21.1281 C   0  0  0  0  0  0  0  0  0  0  0  0
    8.5515  -18.6609   21.5164 O   0  0  0  0  0  0  0  0  0  0  0  0
   12.7653  -18.6267   20.1963 N   0  0  0  0  0  0  0  0  0  0  0  0
   12.2185  -17.3191   20.1690 C   0  0  0  0  0  0  0  0  0  0  0  0
   12.0050  -16.8043   19.0328 O   0  0  0  0  0  0  0  0  0  0  0  0
   11.8994  -16.5583   21.3907 C   0  0  0  0  0  0  0  0  0  0  0  0
   10.6591  -17.0541   22.1121 C   0  0  2  0  0  0  0  0  0  0  0  0
    9.4825  -16.5704   21.3652 N   0  0  0  0  0  0  0  0  0  0  0  0
   10.5198  -16.6042   23.4876 C   0  0  0  0  0  0  0  0  0  0  0  0
   11.2335  -15.6182   23.9029 O   0  0  0  0  0  0  0  0  0  0  0  0
    9.6527  -17.1327   24.4847 N   0  0  0  0  0  0  0  0  0  0  0  0
    9.7166  -16.6641   25.8767 C   0  0  1  0  0  0  0  0  0  0  0  0
    8.3089  -16.6385   26.4435 C   0  0  0  0  0  0  0  0  0  0  0  0
    7.4869  -15.7103   25.6674 C   0  0  0  0  0  0  0  0  0  0  0  0
    6.6829  -15.9822   24.5646 C   0  0  0  0  0  0  0  0  0  0  0  0
    6.1293  -14.8146   24.2007 N   0  0  0  0  0  0  0  0  0  0  0  0
    6.5132  -13.7977   24.9856 C   0  0  0  0  0  0  0  0  0  0  0  0
    6.2206  -12.4331   25.0113 C   0  0  0  0  0  0  0  0  0  0  0  0
    6.7710  -11.6161   25.9499 C   0  0  0  0  0  0  0  0  0  0  0  0
    7.6300  -12.1608   26.8846 C   0  0  0  0  0  0  0  0  0  0  0  0
    7.9274  -13.5088   26.8701 C   0  0  0  0  0  0  0  0  0  0  0  0
    7.3723  -14.3582   25.9157 C   0  0  0  0  0  0  0  0  0  0  0  0
   10.5248  -17.6298   26.6402 C   0  0  0  0  0  0  0  0  0  0  0  0
   10.8914  -18.6946   26.1217 O   0  0  0  0  0  0  0  0  0  0  0  0
   10.8770  -17.3429   27.9480 O   0  0  0  0  0  0  0  0  0  0  0  0
  2  4  1  0
  2  1  1  6
  3  2  1  0
  4  5  2  0
  6  7  1  0
  7  9  1  0
  8  7  2  0
 10  9  1  6
 10 12  1  0
 11 10  1  0
 11  4  1  0
 12 13  2  0
 12 14  1  0
 14 15  1  0
 15 26  1  0
 15 16  1  1
 17 18  2  0
 17 16  1  0
 19 18  1  0
 20 25  2  0
 20 19  1  0
 21 20  1  0
 22 23  1  0
 22 21  2  0
 23 24  2  0
 24 25  1  0
 25 17  1  0
 26 28  1  0
 27 26  2  0
M  END
$$$$
