ANW.pdb
     RDKit          3D

 28 29  0  0  1  0  0  0  0  0999 V2000
    8.3249  -18.7776   18.0910 C   0  0  0  0  0  0  0  0  0  0  0  0
    8.3221  -18.5855   19.5898 C   0  0  2  0  0  0  0  0  0  0  0  0
    7.0090  -18.6085   20.1670 N   0  0  0  0  0  0  0  0  0  0  0  0
    9.0444  -17.3427   19.9775 C   0  0  0  0  0  0  0  0  0  0  0  0
   10.2466  -17.2494   19.6361 O   0  0  0  0  0  0  0  0  0  0  0  0
    8.6069  -12.5914   18.5368 N   0  0  0  0  0  0  0  0  0  0  0  0
    8.0594  -13.6577   19.2938 C   0  0  0  0  0  0  0  0  0  0  0  0
    7.2612  -14.4396   18.6996 O   0  0  0  0  0  0  0  0  0  0  0  0
    8.3812  -13.8791   20.7153 C   0  0  0  0  0  0  0  0  0  0  0  0
    9.2602  -15.0923   20.9604 C   0  0  2  0  0  0  0  0  0  0  0  0
    8.4491  -16.2952   20.6933 N   0  0  0  0  0  0  0  0  0  0  0  0
    9.7903  -15.2122   22.3089 C   0  0  0  0  0  0  0  0  0  0  0  0
   10.6875  -14.3822   22.7089 O   0  0  0  0  0  0  0  0  0  0  0  0
    9.4278  -16.1707   23.2965 N   0  0  0  0  0  0  0  0  0  0  0  0
   10.1265  -16.2357   24.5883 C   0  0  1  0  0  0  0  0  0  0  0  0
    9.7360  -15.0215   25.4111 C   0  0  0  0  0  0  0  0  0  0  0  0
    8.2822  -14.9859   25.5691 C   0  0  0  0  0  0  0  0  0  0  0  0
    7.3653  -16.0129   25.3665 C   0  0  0  0  0  0  0  0  0  0  0  0
    6.1546  -15.5005   25.6376 N   0  0  0  0  0  0  0  0  0  0  0  0
    6.2126  -14.2119   26.0029 C   0  0  0  0  0  0  0  0  0  0  0  0
    5.2529  -13.2681   26.3727 C   0  0  0  0  0  0  0  0  0  0  0  0
    5.6104  -11.9973   26.7023 C   0  0  0  0  0  0  0  0  0  0  0  0
    6.9475  -11.6518   26.6657 C   0  0  0  0  0  0  0  0  0  0  0  0
    7.9064  -12.5758   26.3019 C   0  0  0  0  0  0  0  0  0  0  0  0
    7.5564  -13.8804   25.9615 C   0  0  0  0  0  0  0  0  0  0  0  0
    9.6750  -17.4530   25.2836 C   0  0  0  0  0  0  0  0  0  0  0  0
    8.7927  -18.1706   24.7901 O   0  0  0  0  0  0  0  0  0  0  0  0
   10.2433  -17.7964   26.4984 O   0  0  0  0  0  0  0  0  0  0  0  0
  2  4  1  0
  2  1  1  6
  3  2  1  0
  4  5  2  0
  6  7  1  0
  7  9  1  0
  8  7  2  0
 10  9  1  1
 10 12  1  0
 11 10  1  0
 11  4  1  0
 12 13  2  0
 12 14  1  0
 14 15  1  0
 15 26  1  0
 15 16  1  1
 17 18  2  0
 17 16  1  0
 19 18  1  0
 20 25  2  0
 20 19  1  0
 21 20  1  0
 22 23  1  0
 22 21  2  0
 23 24  2  0
 24 25  1  0
 25 17  1  0
 26 28  1  0
 27 26  2  0
M  END
$$$$
