ANW.pdb
     RDKit          3D

 28 29  0  0  1  0  0  0  0  0999 V2000
    9.0808  -19.6919   19.3340 C   0  0  0  0  0  0  0  0  0  0  0  0
    9.1651  -19.3762   20.8093 C   0  0  2  0  0  0  0  0  0  0  0  0
    7.9969  -19.7658   21.5453 N   0  0  0  0  0  0  0  0  0  0  0  0
    9.4746  -17.9381   21.0383 C   0  0  0  0  0  0  0  0  0  0  0  0
   10.6285  -17.5473   20.7446 O   0  0  0  0  0  0  0  0  0  0  0  0
    5.6147  -15.4178   20.2386 N   0  0  0  0  0  0  0  0  0  0  0  0
    7.0138  -15.1922   20.2034 C   0  0  0  0  0  0  0  0  0  0  0  0
    7.6062  -15.3983   19.1042 O   0  0  0  0  0  0  0  0  0  0  0  0
    7.7820  -14.7376   21.3767 C   0  0  0  0  0  0  0  0  0  0  0  0
    8.9750  -15.6176   21.7036 C   0  0  2  0  0  0  0  0  0  0  0  0
    8.5494  -17.0225   21.5577 N   0  0  0  0  0  0  0  0  0  0  0  0
    9.5131  -15.4602   23.0451 C   0  0  0  0  0  0  0  0  0  0  0  0
   10.0000  -14.3237   23.3988 O   0  0  0  0  0  0  0  0  0  0  0  0
    9.5722  -16.4438   24.0720 N   0  0  0  0  0  0  0  0  0  0  0  0
   10.2026  -16.1555   25.3683 C   0  0  1  0  0  0  0  0  0  0  0  0
    9.1877  -16.4116   26.4674 C   0  0  0  0  0  0  0  0  0  0  0  0
    7.9911  -15.6061   26.2243 C   0  0  0  0  0  0  0  0  0  0  0  0
    6.7341  -16.0304   25.8043 C   0  0  0  0  0  0  0  0  0  0  0  0
    5.9686  -14.9306   25.7250 N   0  0  0  0  0  0  0  0  0  0  0  0
    6.6339  -13.8166   26.0625 C   0  0  0  0  0  0  0  0  0  0  0  0
    6.2843  -12.4672   26.1361 C   0  0  0  0  0  0  0  0  0  0  0  0
    7.1911  -11.5285   26.5209 C   0  0  0  0  0  0  0  0  0  0  0  0
    8.4727  -11.9334   26.8404 C   0  0  0  0  0  0  0  0  0  0  0  0
    8.8310  -13.2648   26.7718 C   0  0  0  0  0  0  0  0  0  0  0  0
    7.9143  -14.2375   26.3795 C   0  0  0  0  0  0  0  0  0  0  0  0
   11.3351  -17.0822   25.5343 C   0  0  0  0  0  0  0  0  0  0  0  0
   12.0919  -16.9845   26.5113 O   0  0  0  0  0  0  0  0  0  0  0  0
   11.5533  -18.0703   24.5894 O   0  0  0  0  0  0  0  0  0  0  0  0
  2  4  1  0
  2  1  1  6
  3  2  1  0
  4  5  2  0
  6  7  1  0
  7  9  1  0
  8  7  2  0
 10  9  1  1
 10 12  1  0
 11 10  1  0
 11  4  1  0
 12 13  2  0
 12 14  1  0
 14 15  1  0
 15 26  1  0
 15 16  1  1
 17 18  2  0
 17 16  1  0
 19 18  1  0
 20 25  2  0
 20 19  1  0
 21 20  1  0
 22 23  1  0
 22 21  2  0
 23 24  2  0
 24 25  1  0
 25 17  1  0
 26 28  1  0
 27 26  2  0
M  END
$$$$
