ANW.pdb
     RDKit          3D

 28 29  0  0  1  0  0  0  0  0999 V2000
    7.7494  -12.5586   20.8638 C   0  0  0  0  0  0  0  0  0  0  0  0
    7.8656  -13.8667   20.1163 C   0  0  2  0  0  0  0  0  0  0  0  0
    6.6891  -14.2046   19.3681 N   0  0  0  0  0  0  0  0  0  0  0  0
    8.2449  -14.9799   21.0292 C   0  0  0  0  0  0  0  0  0  0  0  0
    7.3141  -15.5909   21.6042 O   0  0  0  0  0  0  0  0  0  0  0  0
    9.1821  -18.1840   19.7558 N   0  0  0  0  0  0  0  0  0  0  0  0
   10.5292  -18.0993   20.1890 C   0  0  0  0  0  0  0  0  0  0  0  0
   11.4000  -18.6991   19.4936 O   0  0  0  0  0  0  0  0  0  0  0  0
   10.9382  -17.3545   21.3937 C   0  0  0  0  0  0  0  0  0  0  0  0
    9.8040  -16.5913   22.0538 C   0  0  2  0  0  0  0  0  0  0  0  0
    9.5713  -15.3650   21.2675 N   0  0  0  0  0  0  0  0  0  0  0  0
   10.0449  -16.1897   23.4303 C   0  0  0  0  0  0  0  0  0  0  0  0
   10.9040  -15.2645   23.6750 O   0  0  0  0  0  0  0  0  0  0  0  0
    9.4228  -16.7064   24.6014 N   0  0  0  0  0  0  0  0  0  0  0  0
    9.9679  -16.4313   25.9386 C   0  0  1  0  0  0  0  0  0  0  0  0
    8.8120  -16.2848   26.9114 C   0  0  0  0  0  0  0  0  0  0  0  0
    7.7572  -15.4780   26.2982 C   0  0  0  0  0  0  0  0  0  0  0  0
    6.7283  -15.8942   25.4588 C   0  0  0  0  0  0  0  0  0  0  0  0
    6.0168  -14.7967   25.1567 N   0  0  0  0  0  0  0  0  0  0  0  0
    6.5059  -13.6918   25.7376 C   0  0  0  0  0  0  0  0  0  0  0  0
    6.1281  -12.3480   25.7300 C   0  0  0  0  0  0  0  0  0  0  0  0
    6.8309  -11.4186   26.4327 C   0  0  0  0  0  0  0  0  0  0  0  0
    7.9323  -11.8274   27.1596 C   0  0  0  0  0  0  0  0  0  0  0  0
    8.3162  -13.1533   27.1755 C   0  0  0  0  0  0  0  0  0  0  0  0
    7.6073  -14.1165   26.4614 C   0  0  0  0  0  0  0  0  0  0  0  0
   10.7880  -17.5877   26.3372 C   0  0  0  0  0  0  0  0  0  0  0  0
   11.3934  -17.5886   27.4191 O   0  0  0  0  0  0  0  0  0  0  0  0
   10.8813  -18.6821   25.4943 O   0  0  0  0  0  0  0  0  0  0  0  0
  2  4  1  0
  2  1  1  1
  3  2  1  0
  4  5  2  0
  6  7  1  0
  7  9  1  0
  8  7  2  0
 10  9  1  6
 10 12  1  0
 11 10  1  0
 11  4  1  0
 12 13  2  0
 12 14  1  0
 14 15  1  0
 15 26  1  0
 15 16  1  1
 17 18  2  0
 17 16  1  0
 19 18  1  0
 20 25  2  0
 20 19  1  0
 21 20  1  0
 22 23  1  0
 22 21  2  0
 23 24  2  0
 24 25  1  0
 25 17  1  0
 26 28  1  0
 27 26  2  0
M  END
$$$$
