ANW.pdb
     RDKit          3D

 28 29  0  0  1  0  0  0  0  0999 V2000
    9.3840  -18.3714   18.4093 C   0  0  0  0  0  0  0  0  0  0  0  0
    9.5209  -18.3013   19.9125 C   0  0  2  0  0  0  0  0  0  0  0  0
    8.4099  -18.8755   20.6155 N   0  0  0  0  0  0  0  0  0  0  0  0
    9.7667  -16.9059   20.3693 C   0  0  0  0  0  0  0  0  0  0  0  0
   10.8720  -16.3938   20.0751 O   0  0  0  0  0  0  0  0  0  0  0  0
    8.2797  -12.8763   18.9034 N   0  0  0  0  0  0  0  0  0  0  0  0
    7.7117  -13.8123   19.8040 C   0  0  0  0  0  0  0  0  0  0  0  0
    6.8622  -14.6249   19.3354 O   0  0  0  0  0  0  0  0  0  0  0  0
    8.0692  -13.8676   21.2331 C   0  0  0  0  0  0  0  0  0  0  0  0
    9.2250  -14.8036   21.5374 C   0  0  2  0  0  0  0  0  0  0  0  0
    8.8336  -16.1568   21.0991 N   0  0  0  0  0  0  0  0  0  0  0  0
    9.6016  -14.8893   22.9391 C   0  0  0  0  0  0  0  0  0  0  0  0
    9.9951  -13.8290   23.5513 O   0  0  0  0  0  0  0  0  0  0  0  0
    9.5883  -16.0468   23.7669 N   0  0  0  0  0  0  0  0  0  0  0  0
   10.0339  -15.9881   25.1666 C   0  0  1  0  0  0  0  0  0  0  0  0
    8.9156  -16.5061   26.0524 C   0  0  0  0  0  0  0  0  0  0  0  0
    7.7145  -15.6974   25.8454 C   0  0  0  0  0  0  0  0  0  0  0  0
    6.5275  -16.0583   25.2151 C   0  0  0  0  0  0  0  0  0  0  0  0
    5.7245  -14.9841   25.2730 N   0  0  0  0  0  0  0  0  0  0  0  0
    6.3003  -13.9457   25.8957 C   0  0  0  0  0  0  0  0  0  0  0  0
    5.8838  -12.6481   26.1976 C   0  0  0  0  0  0  0  0  0  0  0  0
    6.7028  -11.7851   26.8579 C   0  0  0  0  0  0  0  0  0  0  0  0
    7.9623  -12.2150   27.2281 C   0  0  0  0  0  0  0  0  0  0  0  0
    8.3862  -13.4958   26.9357 C   0  0  0  0  0  0  0  0  0  0  0  0
    7.5598  -14.3909   26.2603 C   0  0  0  0  0  0  0  0  0  0  0  0
   11.2043  -16.8714   25.3040 C   0  0  0  0  0  0  0  0  0  0  0  0
   11.7869  -16.9816   26.3928 O   0  0  0  0  0  0  0  0  0  0  0  0
   11.6551  -17.5839   24.2058 O   0  0  0  0  0  0  0  0  0  0  0  0
  2  4  1  0
  2  1  1  6
  3  2  1  0
  4  5  2  0
  6  7  1  0
  7  9  1  0
  8  7  2  0
 10  9  1  1
 10 12  1  0
 11 10  1  0
 11  4  1  0
 12 13  2  0
 12 14  1  0
 14 15  1  0
 15 26  1  0
 15 16  1  1
 17 18  2  0
 17 16  1  0
 19 18  1  0
 20 25  2  0
 20 19  1  0
 21 20  1  0
 22 23  1  0
 22 21  2  0
 23 24  2  0
 24 25  1  0
 25 17  1  0
 26 28  1  0
 27 26  2  0
M  END
$$$$
