ANW.pdb
     RDKit          3D

 28 29  0  0  1  0  0  0  0  0999 V2000
    8.1218  -12.2853   20.4718 C   0  0  0  0  0  0  0  0  0  0  0  0
    8.4789  -13.4808   19.6194 C   0  0  2  0  0  0  0  0  0  0  0  0
    7.3672  -14.0118   18.8842 N   0  0  0  0  0  0  0  0  0  0  0  0
    9.1308  -14.5471   20.4284 C   0  0  0  0  0  0  0  0  0  0  0  0
    8.4090  -15.4978   20.8099 O   0  0  0  0  0  0  0  0  0  0  0  0
   12.0380  -17.1515   18.8458 N   0  0  0  0  0  0  0  0  0  0  0  0
   12.6899  -16.0952   19.5305 C   0  0  0  0  0  0  0  0  0  0  0  0
   13.4555  -15.3504   18.8517 O   0  0  0  0  0  0  0  0  0  0  0  0
   12.5102  -15.8432   20.9719 C   0  0  0  0  0  0  0  0  0  0  0  0
   11.0563  -15.7431   21.3974 C   0  0  2  0  0  0  0  0  0  0  0  0
   10.4889  -14.5324   20.7740 N   0  0  0  0  0  0  0  0  0  0  0  0
   10.8348  -15.6424   22.8308 C   0  0  0  0  0  0  0  0  0  0  0  0
   11.5260  -14.8026   23.5171 O   0  0  0  0  0  0  0  0  0  0  0  0
    9.9059  -16.3828   23.6145 N   0  0  0  0  0  0  0  0  0  0  0  0
    9.8699  -16.2532   25.0784 C   0  0  1  0  0  0  0  0  0  0  0  0
    8.4419  -16.4636   25.5476 C   0  0  0  0  0  0  0  0  0  0  0  0
    7.6146  -15.3381   25.1137 C   0  0  0  0  0  0  0  0  0  0  0  0
    6.8810  -15.2070   23.9385 C   0  0  0  0  0  0  0  0  0  0  0  0
    6.2891  -14.0034   23.9920 N   0  0  0  0  0  0  0  0  0  0  0  0
    6.5825  -13.3367   25.1176 C   0  0  0  0  0  0  0  0  0  0  0  0
    6.2218  -12.0860   25.6218 C   0  0  0  0  0  0  0  0  0  0  0  0
    6.6836  -11.6570   26.8277 C   0  0  0  0  0  0  0  0  0  0  0  0
    7.5210  -12.4836   27.5516 C   0  0  0  0  0  0  0  0  0  0  0  0
    7.8851  -13.7227   27.0642 C   0  0  0  0  0  0  0  0  0  0  0  0
    7.4209  -14.1761   25.8315 C   0  0  0  0  0  0  0  0  0  0  0  0
   10.7230  -17.3113   25.6453 C   0  0  0  0  0  0  0  0  0  0  0  0
   11.2363  -18.1684   24.9111 O   0  0  0  0  0  0  0  0  0  0  0  0
   10.9521  -17.3462   27.0102 O   0  0  0  0  0  0  0  0  0  0  0  0
  2  4  1  0
  2  1  1  1
  3  2  1  0
  4  5  2  0
  6  7  1  0
  7  9  1  0
  8  7  2  0
 10  9  1  1
 10 12  1  0
 11 10  1  0
 11  4  1  0
 12 13  2  0
 12 14  1  0
 14 15  1  0
 15 26  1  0
 15 16  1  1
 17 18  2  0
 17 16  1  0
 19 18  1  0
 20 25  2  0
 20 19  1  0
 21 20  1  0
 22 23  1  0
 22 21  2  0
 23 24  2  0
 24 25  1  0
 25 17  1  0
 26 28  1  0
 27 26  2  0
M  END
$$$$
