ANW.pdb
     RDKit          3D

 28 29  0  0  1  0  0  0  0  0999 V2000
    9.2075  -18.9434   18.7157 C   0  0  0  0  0  0  0  0  0  0  0  0
    9.3453  -18.8437   20.2171 C   0  0  2  0  0  0  0  0  0  0  0  0
    8.2423  -19.4184   20.9322 N   0  0  0  0  0  0  0  0  0  0  0  0
    9.5742  -17.4369   20.6475 C   0  0  0  0  0  0  0  0  0  0  0  0
   10.6134  -16.8732   20.2317 O   0  0  0  0  0  0  0  0  0  0  0  0
    7.8428  -13.6936   19.0831 N   0  0  0  0  0  0  0  0  0  0  0  0
    7.3619  -14.5667   20.0912 C   0  0  0  0  0  0  0  0  0  0  0  0
    6.5194  -15.4446   19.7434 O   0  0  0  0  0  0  0  0  0  0  0  0
    7.7999  -14.4864   21.4965 C   0  0  0  0  0  0  0  0  0  0  0  0
    9.0239  -15.3303   21.8036 C   0  0  2  0  0  0  0  0  0  0  0  0
    8.6950  -16.7316   21.4804 N   0  0  0  0  0  0  0  0  0  0  0  0
    9.4721  -15.2934   23.1862 C   0  0  0  0  0  0  0  0  0  0  0  0
    9.9087  -14.1879   23.6772 O   0  0  0  0  0  0  0  0  0  0  0  0
    9.4893  -16.3701   24.1167 N   0  0  0  0  0  0  0  0  0  0  0  0
   10.0774  -16.2119   25.4547 C   0  0  1  0  0  0  0  0  0  0  0  0
    8.9982  -16.4681   26.4908 C   0  0  0  0  0  0  0  0  0  0  0  0
    7.8433  -15.6143   26.2142 C   0  0  0  0  0  0  0  0  0  0  0  0
    6.6176  -15.9709   25.6602 C   0  0  0  0  0  0  0  0  0  0  0  0
    5.8843  -14.8479   25.6048 N   0  0  0  0  0  0  0  0  0  0  0  0
    6.5416  -13.7815   26.0824 C   0  0  0  0  0  0  0  0  0  0  0  0
    6.2151  -12.4327   26.2329 C   0  0  0  0  0  0  0  0  0  0  0  0
    7.1055  -11.5512   26.7636 C   0  0  0  0  0  0  0  0  0  0  0  0
    8.3470  -12.0140   27.1545 C   0  0  0  0  0  0  0  0  0  0  0  0
    8.6822  -13.3454   27.0112 C   0  0  0  0  0  0  0  0  0  0  0  0
    7.7820  -14.2600   26.4696 C   0  0  0  0  0  0  0  0  0  0  0  0
   11.1367  -17.2241   25.6035 C   0  0  0  0  0  0  0  0  0  0  0  0
   11.3756  -18.0260   24.6887 O   0  0  0  0  0  0  0  0  0  0  0  0
   11.8707  -17.2775   26.7762 O   0  0  0  0  0  0  0  0  0  0  0  0
  2  4  1  0
  2  1  1  6
  3  2  1  0
  4  5  2  0
  6  7  1  0
  7  9  1  0
  8  7  2  0
 10  9  1  1
 10 12  1  0
 11 10  1  0
 11  4  1  0
 12 13  2  0
 12 14  1  0
 14 15  1  0
 15 26  1  0
 15 16  1  1
 17 18  2  0
 17 16  1  0
 19 18  1  0
 20 25  2  0
 20 19  1  0
 21 20  1  0
 22 23  1  0
 22 21  2  0
 23 24  2  0
 24 25  1  0
 25 17  1  0
 26 28  1  0
 27 26  2  0
M  END
$$$$
