ANW.pdb
     RDKit          3D

 28 29  0  0  1  0  0  0  0  0999 V2000
   10.2259  -19.6814   19.1841 C   0  0  0  0  0  0  0  0  0  0  0  0
   10.2139  -19.3946   20.6676 C   0  0  2  0  0  0  0  0  0  0  0  0
    9.1628  -20.0704   21.3725 N   0  0  0  0  0  0  0  0  0  0  0  0
   10.1692  -17.9309   20.9357 C   0  0  0  0  0  0  0  0  0  0  0  0
   11.1231  -17.2410   20.5058 O   0  0  0  0  0  0  0  0  0  0  0  0
    7.9924  -15.5434   18.9177 N   0  0  0  0  0  0  0  0  0  0  0  0
    7.3124  -15.7564   20.1432 C   0  0  0  0  0  0  0  0  0  0  0  0
    6.2168  -16.3881   20.0954 O   0  0  0  0  0  0  0  0  0  0  0  0
    7.8269  -15.2772   21.4389 C   0  0  0  0  0  0  0  0  0  0  0  0
    9.1892  -15.8409   21.8009 C   0  0  2  0  0  0  0  0  0  0  0  0
    9.1274  -17.3053   21.6339 N   0  0  0  0  0  0  0  0  0  0  0  0
    9.6301  -15.5735   23.1604 C   0  0  0  0  0  0  0  0  0  0  0  0
    9.9715  -14.3777   23.4878 O   0  0  0  0  0  0  0  0  0  0  0  0
    9.7356  -16.5040   24.2320 N   0  0  0  0  0  0  0  0  0  0  0  0
   10.2171  -16.0888   25.5575 C   0  0  1  0  0  0  0  0  0  0  0  0
    9.1304  -16.3741   26.5780 C   0  0  0  0  0  0  0  0  0  0  0  0
    7.9086  -15.6632   26.2018 C   0  0  0  0  0  0  0  0  0  0  0  0
    6.7399  -16.1833   25.6540 C   0  0  0  0  0  0  0  0  0  0  0  0
    5.9053  -15.1457   25.4840 N   0  0  0  0  0  0  0  0  0  0  0  0
    6.4435  -13.9836   25.8808 C   0  0  0  0  0  0  0  0  0  0  0  0
    5.9859  -12.6651   25.9051 C   0  0  0  0  0  0  0  0  0  0  0  0
    6.7718  -11.6592   26.3762 C   0  0  0  0  0  0  0  0  0  0  0  0
    8.0391  -11.9641   26.8339 C   0  0  0  0  0  0  0  0  0  0  0  0
    8.5035  -13.2639   26.8154 C   0  0  0  0  0  0  0  0  0  0  0  0
    7.7112  -14.3046   26.3361 C   0  0  0  0  0  0  0  0  0  0  0  0
   11.4039  -16.8991   25.8796 C   0  0  0  0  0  0  0  0  0  0  0  0
   11.8162  -17.7570   25.0853 O   0  0  0  0  0  0  0  0  0  0  0  0
   12.0628  -16.6982   27.0806 O   0  0  0  0  0  0  0  0  0  0  0  0
  2  4  1  0
  2  1  1  6
  3  2  1  0
  4  5  2  0
  6  7  1  0
  7  9  1  0
  8  7  2  0
 10  9  1  1
 10 12  1  0
 11 10  1  0
 11  4  1  0
 12 13  2  0
 12 14  1  0
 14 15  1  0
 15 26  1  0
 15 16  1  1
 17 18  2  0
 17 16  1  0
 19 18  1  0
 20 25  2  0
 20 19  1  0
 21 20  1  0
 22 23  1  0
 22 21  2  0
 23 24  2  0
 24 25  1  0
 25 17  1  0
 26 28  1  0
 27 26  2  0
M  END
$$$$
