MTG.pdb
     RDKit          3D

 20 19  0  0  1  0  0  0  0  0999 V2000
    6.9225  -11.1089   27.6873 C   0  0  0  0  0  0  0  0  0  0  0  0
    7.0298  -12.2362   26.2953 S   0  0  0  0  0  0  0  0  0  0  0  0
    6.3171  -13.8449   26.7025 C   0  0  0  0  0  0  0  0  0  0  0  0
    6.2047  -14.7104   25.4530 C   0  0  0  0  0  0  0  0  0  0  0  0
    7.5143  -15.4424   25.2810 C   0  0  2  0  0  0  0  0  0  0  0  0
    8.6008  -14.5432   25.5251 N   0  0  0  0  0  0  0  0  0  0  0  0
    7.5387  -15.9743   23.8788 C   0  0  0  0  0  0  0  0  0  0  0  0
    6.6340  -16.7605   23.4938 O   0  0  0  0  0  0  0  0  0  0  0  0
    7.4368  -13.9212   21.0974 C   0  0  0  0  0  0  0  0  0  0  0  0
    8.4792  -14.9247   20.7126 C   0  0  1  0  0  0  0  0  0  0  0  0
    9.7307  -14.2869   20.8474 O   0  0  0  0  0  0  0  0  0  0  0  0
    8.5106  -16.1638   21.5736 C   0  0  2  0  0  0  0  0  0  0  0  0
    8.5440  -15.6299   22.9559 N   0  0  0  0  0  0  0  0  0  0  0  0
    9.6573  -17.0427   21.3441 C   0  0  0  0  0  0  0  0  0  0  0  0
   10.6327  -16.9929   22.1402 O   0  0  0  0  0  0  0  0  0  0  0  0
    9.7402  -17.9578   20.2722 N   0  0  0  0  0  0  0  0  0  0  0  0
   10.8613  -18.8738   20.1239 C   0  0  0  0  0  0  0  0  0  0  0  0
   11.9919  -18.2233   19.4274 C   0  0  0  0  0  0  0  0  0  0  0  0
   11.9858  -16.9858   19.2184 O   0  0  0  0  0  0  0  0  0  0  0  0
   13.0734  -18.9424   18.9911 O   0  0  0  0  0  0  0  0  0  0  0  0
  1  2  1  0
  3  2  1  0
  3  4  1  0
  5  4  1  0
  5  6  1  6
  7  5  1  0
  8  7  2  0
 10  9  1  1
 10 11  1  0
 10 12  1  0
 12 13  1  1
 13  7  1  0
 14 12  1  0
 14 16  1  0
 15 14  2  0
 17 16  1  0
 18 17  1  0
 19 18  2  0
 20 18  1  0
M  END
$$$$
