MTG.pdb
     RDKit          3D

 20 19  0  0  1  0  0  0  0  0999 V2000
    9.0882  -12.8932   21.7937 C   0  0  0  0  0  0  0  0  0  0  0  0
    7.8487  -12.9011   20.4961 S   0  0  0  0  0  0  0  0  0  0  0  0
    7.0204  -14.5028   20.3952 C   0  0  0  0  0  0  0  0  0  0  0  0
    6.8867  -14.9438   18.9424 C   0  0  0  0  0  0  0  0  0  0  0  0
    8.2158  -15.5170   18.5115 C   0  0  2  0  0  0  0  0  0  0  0  0
    8.1398  -15.9239   17.1414 N   0  0  0  0  0  0  0  0  0  0  0  0
    8.5091  -16.6749   19.4188 C   0  0  0  0  0  0  0  0  0  0  0  0
    7.7120  -17.6482   19.4659 O   0  0  0  0  0  0  0  0  0  0  0  0
   10.7917  -18.9329   18.8827 C   0  0  0  0  0  0  0  0  0  0  0  0
   11.0844  -18.5920   20.3110 C   0  0  1  0  0  0  0  0  0  0  0  0
   12.1639  -17.6833   20.3019 O   0  0  0  0  0  0  0  0  0  0  0  0
    9.9455  -17.9304   21.0480 C   0  0  2  0  0  0  0  0  0  0  0  0
    9.6544  -16.7256   20.2351 N   0  0  0  0  0  0  0  0  0  0  0  0
   10.2462  -17.5481   22.4276 C   0  0  0  0  0  0  0  0  0  0  0  0
   10.7771  -16.4268   22.6477 O   0  0  0  0  0  0  0  0  0  0  0  0
    9.9732  -18.3675   23.5444 N   0  0  0  0  0  0  0  0  0  0  0  0
   10.2453  -17.9325   24.9063 C   0  0  0  0  0  0  0  0  0  0  0  0
   11.4791  -18.5582   25.4285 C   0  0  0  0  0  0  0  0  0  0  0  0
   12.1682  -19.3145   24.7017 O   0  0  0  0  0  0  0  0  0  0  0  0
   11.9074  -18.3355   26.7107 O   0  0  0  0  0  0  0  0  0  0  0  0
  1  2  1  0
  3  2  1  0
  3  4  1  0
  5  4  1  0
  5  6  1  6
  7  5  1  0
  8  7  2  0
 10  9  1  6
 10 11  1  0
 10 12  1  0
 12 13  1  6
 13  7  1  0
 14 12  1  0
 14 16  1  0
 15 14  2  0
 17 16  1  0
 18 17  1  0
 19 18  2  0
 20 18  1  0
M  END
$$$$
