MTG.pdb
     RDKit          3D

 20 19  0  0  1  0  0  0  0  0999 V2000
    7.6599  -11.9146   27.8299 C   0  0  0  0  0  0  0  0  0  0  0  0
    6.2680  -11.8918   26.6977 S   0  0  0  0  0  0  0  0  0  0  0  0
    5.8903  -13.5519   26.0951 C   0  0  0  0  0  0  0  0  0  0  0  0
    7.1430  -14.2132   25.5327 C   0  0  0  0  0  0  0  0  0  0  0  0
    6.7495  -15.5741   25.0097 C   0  0  2  0  0  0  0  0  0  0  0  0
    6.2736  -16.3829   26.0903 N   0  0  0  0  0  0  0  0  0  0  0  0
    7.9689  -16.1669   24.3682 C   0  0  0  0  0  0  0  0  0  0  0  0
    8.6893  -16.9683   25.0190 O   0  0  0  0  0  0  0  0  0  0  0  0
    7.8482  -16.8907   20.5699 C   0  0  0  0  0  0  0  0  0  0  0  0
    9.2337  -16.4730   20.9538 C   0  0  1  0  0  0  0  0  0  0  0  0
    9.3825  -15.1289   20.5506 O   0  0  0  0  0  0  0  0  0  0  0  0
    9.5238  -16.5335   22.4337 C   0  0  2  0  0  0  0  0  0  0  0  0
    8.3530  -15.8640   23.0484 N   0  0  0  0  0  0  0  0  0  0  0  0
   10.7597  -15.8678   22.8454 C   0  0  0  0  0  0  0  0  0  0  0  0
   10.7480  -14.6218   23.0323 O   0  0  0  0  0  0  0  0  0  0  0  0
   11.9819  -16.5438   23.0512 N   0  0  0  0  0  0  0  0  0  0  0  0
   13.1684  -15.8608   23.5451 C   0  0  0  0  0  0  0  0  0  0  0  0
   14.3495  -16.1768   22.7134 C   0  0  0  0  0  0  0  0  0  0  0  0
   14.2299  -16.8627   21.6693 O   0  0  0  0  0  0  0  0  0  0  0  0
   15.6019  -15.7356   23.0513 O   0  0  0  0  0  0  0  0  0  0  0  0
  1  2  1  0
  3  2  1  0
  3  4  1  0
  5  4  1  0
  5  6  1  1
  7  5  1  0
  8  7  2  0
 10  9  1  1
 10 11  1  0
 10 12  1  0
 12 13  1  1
 13  7  1  0
 14 12  1  0
 14 16  1  0
 15 14  2  0
 17 16  1  0
 18 17  1  0
 19 18  2  0
 20 18  1  0
M  END
$$$$
