MTG.pdb
     RDKit          3D

 20 19  0  0  1  0  0  0  0  0999 V2000
    8.4118  -12.2911   28.0858 C   0  0  0  0  0  0  0  0  0  0  0  0
    7.1286  -11.7238   26.9671 S   0  0  0  0  0  0  0  0  0  0  0  0
    6.4657  -13.0895   25.9889 C   0  0  0  0  0  0  0  0  0  0  0  0
    7.5769  -14.0597   25.6054 C   0  0  0  0  0  0  0  0  0  0  0  0
    6.9532  -15.1833   24.8122 C   0  0  2  0  0  0  0  0  0  0  0  0
    5.9506  -15.8288   25.6038 N   0  0  0  0  0  0  0  0  0  0  0  0
    8.0597  -16.1258   24.4419 C   0  0  0  0  0  0  0  0  0  0  0  0
    8.4007  -17.0338   25.2445 O   0  0  0  0  0  0  0  0  0  0  0  0
    7.9750  -17.1920   20.7752 C   0  0  0  0  0  0  0  0  0  0  0  0
    9.3972  -17.1388   21.2401 C   0  0  1  0  0  0  0  0  0  0  0  0
    9.9314  -15.9150   20.7840 O   0  0  0  0  0  0  0  0  0  0  0  0
    9.5731  -17.1759   22.7387 C   0  0  2  0  0  0  0  0  0  0  0  0
    8.7477  -16.0415   23.2170 N   0  0  0  0  0  0  0  0  0  0  0  0
   10.9534  -17.0254   23.1993 C   0  0  0  0  0  0  0  0  0  0  0  0
   11.7221  -18.0229   23.1580 O   0  0  0  0  0  0  0  0  0  0  0  0
   11.4866  -15.8149   23.6926 N   0  0  0  0  0  0  0  0  0  0  0  0
   12.8580  -15.7124   24.1688 C   0  0  0  0  0  0  0  0  0  0  0  0
   13.7979  -15.5098   23.0454 C   0  0  0  0  0  0  0  0  0  0  0  0
   13.3876  -15.5231   21.8595 O   0  0  0  0  0  0  0  0  0  0  0  0
   15.1353  -15.3025   23.2593 O   0  0  0  0  0  0  0  0  0  0  0  0
  1  2  1  0
  3  2  1  0
  3  4  1  0
  5  4  1  0
  5  6  1  1
  7  5  1  0
  8  7  2  0
 10  9  1  1
 10 11  1  0
 10 12  1  0
 12 13  1  1
 13  7  1  0
 14 12  1  0
 14 16  1  0
 15 14  2  0
 17 16  1  0
 18 17  1  0
 19 18  2  0
 20 18  1  0
M  END
$$$$
