MTG.pdb
     RDKit          3D

 20 19  0  0  1  0  0  0  0  0999 V2000
    6.8950  -10.8017   26.0981 C   0  0  0  0  0  0  0  0  0  0  0  0
    6.1606  -12.0044   27.2090 S   0  0  0  0  0  0  0  0  0  0  0  0
    6.9007  -13.6365   26.9849 C   0  0  0  0  0  0  0  0  0  0  0  0
    6.6278  -14.1575   25.5788 C   0  0  0  0  0  0  0  0  0  0  0  0
    7.4124  -15.4356   25.4015 C   0  0  2  0  0  0  0  0  0  0  0  0
    8.7705  -15.2226   25.7999 N   0  0  0  0  0  0  0  0  0  0  0  0
    7.3119  -15.8147   23.9537 C   0  0  0  0  0  0  0  0  0  0  0  0
    6.2275  -16.2656   23.5005 O   0  0  0  0  0  0  0  0  0  0  0  0
    6.9218  -13.9524   21.3454 C   0  0  0  0  0  0  0  0  0  0  0  0
    8.0952  -14.7759   20.9133 C   0  0  1  0  0  0  0  0  0  0  0  0
    9.2514  -14.0117   21.1784 O   0  0  0  0  0  0  0  0  0  0  0  0
    8.2470  -16.0890   21.6418 C   0  0  2  0  0  0  0  0  0  0  0  0
    8.3929  -15.6879   23.0613 N   0  0  0  0  0  0  0  0  0  0  0  0
    9.3946  -16.8943   21.2242 C   0  0  0  0  0  0  0  0  0  0  0  0
   10.4458  -16.8637   21.9182 O   0  0  0  0  0  0  0  0  0  0  0  0
    9.3979  -17.7169   20.0768 N   0  0  0  0  0  0  0  0  0  0  0  0
   10.4702  -18.6635   19.8084 C   0  0  0  0  0  0  0  0  0  0  0  0
   10.2505  -19.3675   18.5268 C   0  0  0  0  0  0  0  0  0  0  0  0
   11.2028  -19.5585   17.7320 O   0  0  0  0  0  0  0  0  0  0  0  0
    9.0121  -19.8306   18.1674 O   0  0  0  0  0  0  0  0  0  0  0  0
  1  2  1  0
  3  2  1  0
  3  4  1  0
  5  4  1  0
  5  6  1  6
  7  5  1  0
  8  7  2  0
 10  9  1  1
 10 11  1  0
 10 12  1  0
 12 13  1  1
 13  7  1  0
 14 12  1  0
 14 16  1  0
 15 14  2  0
 17 16  1  0
 18 17  1  0
 19 18  2  0
 20 18  1  0
M  END
$$$$
