MTG.pdb
     RDKit          3D

 20 19  0  0  1  0  0  0  0  0999 V2000
    7.8959  -12.2101   28.1417 C   0  0  0  0  0  0  0  0  0  0  0  0
    6.6702  -11.6405   26.9614 S   0  0  0  0  0  0  0  0  0  0  0  0
    6.0219  -13.0119   25.9814 C   0  0  0  0  0  0  0  0  0  0  0  0
    7.0430  -14.1406   25.9021 C   0  0  0  0  0  0  0  0  0  0  0  0
    6.4244  -15.2657   25.1071 C   0  0  2  0  0  0  0  0  0  0  0  0
    5.6874  -16.1230   25.9848 N   0  0  0  0  0  0  0  0  0  0  0  0
    7.5479  -15.9957   24.4328 C   0  0  0  0  0  0  0  0  0  0  0  0
    8.0310  -17.0281   24.9672 O   0  0  0  0  0  0  0  0  0  0  0  0
    7.5112  -16.2940   20.6612 C   0  0  0  0  0  0  0  0  0  0  0  0
    8.9390  -16.1461   21.0871 C   0  0  1  0  0  0  0  0  0  0  0  0
    9.3236  -14.8243   20.7771 O   0  0  0  0  0  0  0  0  0  0  0  0
    9.1819  -16.3511   22.5625 C   0  0  2  0  0  0  0  0  0  0  0  0
    8.0978  -15.5732   23.2080 N   0  0  0  0  0  0  0  0  0  0  0  0
   10.4861  -15.8919   23.0401 C   0  0  0  0  0  0  0  0  0  0  0  0
   10.6256  -14.6821   23.3636 O   0  0  0  0  0  0  0  0  0  0  0  0
   11.6142  -16.7314   23.1650 N   0  0  0  0  0  0  0  0  0  0  0  0
   12.8521  -16.2753   23.7794 C   0  0  0  0  0  0  0  0  0  0  0  0
   13.8456  -15.8912   22.7538 C   0  0  0  0  0  0  0  0  0  0  0  0
   13.5637  -15.9643   21.5330 O   0  0  0  0  0  0  0  0  0  0  0  0
   15.0951  -15.4468   23.0982 O   0  0  0  0  0  0  0  0  0  0  0  0
  1  2  1  0
  3  2  1  0
  3  4  1  0
  5  4  1  0
  5  6  1  1
  7  5  1  0
  8  7  2  0
 10  9  1  1
 10 11  1  0
 10 12  1  0
 12 13  1  1
 13  7  1  0
 14 12  1  0
 14 16  1  0
 15 14  2  0
 17 16  1  0
 18 17  1  0
 19 18  2  0
 20 18  1  0
M  END
$$$$
