MTG.pdb
     RDKit          3D

 20 19  0  0  1  0  0  0  0  0999 V2000
    6.3350  -11.8137   26.5020 C   0  0  0  0  0  0  0  0  0  0  0  0
    7.6219  -12.9509   27.0219 S   0  0  0  0  0  0  0  0  0  0  0  0
    7.1858  -14.6570   26.6206 C   0  0  0  0  0  0  0  0  0  0  0  0
    7.0479  -14.8319   25.1128 C   0  0  0  0  0  0  0  0  0  0  0  0
    6.7141  -16.2803   24.8464 C   0  0  2  0  0  0  0  0  0  0  0  0
    6.4554  -16.9477   26.0858 N   0  0  0  0  0  0  0  0  0  0  0  0
    7.8892  -16.8767   24.1298 C   0  0  0  0  0  0  0  0  0  0  0  0
    7.7966  -18.0286   23.6305 O   0  0  0  0  0  0  0  0  0  0  0  0
    8.2795  -17.5829   21.7521 C   0  0  0  0  0  0  0  0  0  0  0  0
    9.6142  -16.9063   21.8006 C   0  0  1  0  0  0  0  0  0  0  0  0
    9.4280  -15.5979   21.3061 O   0  0  0  0  0  0  0  0  0  0  0  0
   10.2102  -16.7847   23.1819 C   0  0  2  0  0  0  0  0  0  0  0  0
    9.1132  -16.1968   23.9868 N   0  0  0  0  0  0  0  0  0  0  0  0
   11.4038  -15.9429   23.2642 C   0  0  0  0  0  0  0  0  0  0  0  0
   11.2901  -14.7031   23.0703 O   0  0  0  0  0  0  0  0  0  0  0  0
   12.6934  -16.4393   23.5532 N   0  0  0  0  0  0  0  0  0  0  0  0
   13.8278  -15.5562   23.7799 C   0  0  0  0  0  0  0  0  0  0  0  0
   15.0061  -15.9921   23.0000 C   0  0  0  0  0  0  0  0  0  0  0  0
   16.0892  -15.3626   23.0744 O   0  0  0  0  0  0  0  0  0  0  0  0
   14.9555  -17.0872   22.1782 O   0  0  0  0  0  0  0  0  0  0  0  0
  1  2  1  0
  3  2  1  0
  3  4  1  0
  5  4  1  0
  5  6  1  1
  7  5  1  0
  8  7  2  0
 10  9  1  1
 10 11  1  0
 10 12  1  0
 12 13  1  1
 13  7  1  0
 14 12  1  0
 14 16  1  0
 15 14  2  0
 17 16  1  0
 18 17  1  0
 19 18  2  0
 20 18  1  0
M  END
$$$$
