MTG.pdb
     RDKit          3D

 20 19  0  0  1  0  0  0  0  0999 V2000
    7.8899  -11.8243   28.1117 C   0  0  0  0  0  0  0  0  0  0  0  0
    6.3793  -11.6678   27.1561 S   0  0  0  0  0  0  0  0  0  0  0  0
    5.8725  -13.2605   26.4717 C   0  0  0  0  0  0  0  0  0  0  0  0
    7.0406  -13.9303   25.7577 C   0  0  0  0  0  0  0  0  0  0  0  0
    6.5400  -15.2315   25.1774 C   0  0  2  0  0  0  0  0  0  0  0  0
    6.0884  -16.0844   26.2343 N   0  0  0  0  0  0  0  0  0  0  0  0
    7.6820  -15.8426   24.4209 C   0  0  0  0  0  0  0  0  0  0  0  0
    8.4189  -16.6940   24.9838 O   0  0  0  0  0  0  0  0  0  0  0  0
    7.2576  -16.4926   20.6406 C   0  0  0  0  0  0  0  0  0  0  0  0
    8.6713  -16.0839   20.9163 C   0  0  1  0  0  0  0  0  0  0  0  0
    8.7899  -14.7327   20.5273 O   0  0  0  0  0  0  0  0  0  0  0  0
    9.0826  -16.1726   22.3657 C   0  0  2  0  0  0  0  0  0  0  0  0
    7.9741  -15.5029   23.0866 N   0  0  0  0  0  0  0  0  0  0  0  0
   10.3554  -15.5256   22.6840 C   0  0  0  0  0  0  0  0  0  0  0  0
   10.3456  -14.3478   23.1316 O   0  0  0  0  0  0  0  0  0  0  0  0
   11.6122  -16.1475   22.5205 N   0  0  0  0  0  0  0  0  0  0  0  0
   12.8479  -15.5203   22.9652 C   0  0  0  0  0  0  0  0  0  0  0  0
   14.0086  -16.4064   22.7323 C   0  0  0  0  0  0  0  0  0  0  0  0
   14.0631  -17.5406   23.2667 O   0  0  0  0  0  0  0  0  0  0  0  0
   15.0531  -16.0228   21.9330 O   0  0  0  0  0  0  0  0  0  0  0  0
  1  2  1  0
  3  2  1  0
  3  4  1  0
  5  4  1  0
  5  6  1  1
  7  5  1  0
  8  7  2  0
 10  9  1  1
 10 11  1  0
 10 12  1  0
 12 13  1  1
 13  7  1  0
 14 12  1  0
 14 16  1  0
 15 14  2  0
 17 16  1  0
 18 17  1  0
 19 18  2  0
 20 18  1  0
M  END
$$$$
