MTG.pdb
     RDKit          3D

 20 19  0  0  1  0  0  0  0  0999 V2000
    7.7694  -11.3878   26.3005 C   0  0  0  0  0  0  0  0  0  0  0  0
    6.9112  -12.3756   27.5283 S   0  0  0  0  0  0  0  0  0  0  0  0
    6.1120  -13.8072   26.7710 C   0  0  0  0  0  0  0  0  0  0  0  0
    7.0793  -14.5271   25.8388 C   0  0  0  0  0  0  0  0  0  0  0  0
    6.3169  -15.6343   25.1506 C   0  0  2  0  0  0  0  0  0  0  0  0
    5.8672  -16.5823   26.1239 N   0  0  0  0  0  0  0  0  0  0  0  0
    7.2518  -16.2593   24.1580 C   0  0  0  0  0  0  0  0  0  0  0  0
    6.8773  -17.2602   23.4926 O   0  0  0  0  0  0  0  0  0  0  0  0
    6.9393  -16.3072   21.8584 C   0  0  0  0  0  0  0  0  0  0  0  0
    8.3602  -15.9184   21.5911 C   0  0  1  0  0  0  0  0  0  0  0  0
    8.3668  -14.5266   21.3583 O   0  0  0  0  0  0  0  0  0  0  0  0
    9.3132  -16.1886   22.7299 C   0  0  2  0  0  0  0  0  0  0  0  0
    8.5521  -15.7707   23.9311 N   0  0  0  0  0  0  0  0  0  0  0  0
   10.5802  -15.4609   22.6566 C   0  0  0  0  0  0  0  0  0  0  0  0
   10.5573  -14.2113   22.4967 O   0  0  0  0  0  0  0  0  0  0  0  0
   11.8453  -16.0794   22.7572 N   0  0  0  0  0  0  0  0  0  0  0  0
   13.0612  -15.3162   22.9957 C   0  0  0  0  0  0  0  0  0  0  0  0
   14.2534  -16.1904   22.9641 C   0  0  0  0  0  0  0  0  0  0  0  0
   14.6161  -16.7368   21.8941 O   0  0  0  0  0  0  0  0  0  0  0  0
   14.9950  -16.4309   24.0908 O   0  0  0  0  0  0  0  0  0  0  0  0
  1  2  1  0
  3  2  1  0
  3  4  1  0
  5  4  1  0
  5  6  1  1
  7  5  1  0
  8  7  2  0
 10  9  1  1
 10 11  1  0
 10 12  1  0
 12 13  1  1
 13  7  1  0
 14 12  1  0
 14 16  1  0
 15 14  2  0
 17 16  1  0
 18 17  1  0
 19 18  2  0
 20 18  1  0
M  END
$$$$
