MTG.pdb
     RDKit          3D

 20 19  0  0  1  0  0  0  0  0999 V2000
    5.3492  -11.0747   27.7631 C   0  0  0  0  0  0  0  0  0  0  0  0
    6.7366  -12.0701   27.2116 S   0  0  0  0  0  0  0  0  0  0  0  0
    6.1819  -13.4548   26.1935 C   0  0  0  0  0  0  0  0  0  0  0  0
    7.3712  -14.2924   25.7384 C   0  0  0  0  0  0  0  0  0  0  0  0
    6.8314  -15.4995   25.0089 C   0  0  2  0  0  0  0  0  0  0  0  0
    6.1565  -16.3564   25.9355 N   0  0  0  0  0  0  0  0  0  0  0  0
    8.0022  -16.1858   24.3701 C   0  0  0  0  0  0  0  0  0  0  0  0
    8.4877  -17.2177   24.9032 O   0  0  0  0  0  0  0  0  0  0  0  0
    7.9590  -16.2319   20.6261 C   0  0  0  0  0  0  0  0  0  0  0  0
    9.3996  -16.2480   21.0336 C   0  0  1  0  0  0  0  0  0  0  0  0
    9.9174  -14.9647   20.7575 O   0  0  0  0  0  0  0  0  0  0  0  0
    9.6380  -16.5238   22.4982 C   0  0  2  0  0  0  0  0  0  0  0  0
    8.5947  -15.7220   23.1806 N   0  0  0  0  0  0  0  0  0  0  0  0
   10.9644  -16.1467   22.9865 C   0  0  0  0  0  0  0  0  0  0  0  0
   11.1444  -14.9780   23.4217 O   0  0  0  0  0  0  0  0  0  0  0  0
   12.0711  -17.0231   23.0028 N   0  0  0  0  0  0  0  0  0  0  0  0
   13.3456  -16.6466   23.5960 C   0  0  0  0  0  0  0  0  0  0  0  0
   14.3081  -16.2142   22.5600 C   0  0  0  0  0  0  0  0  0  0  0  0
   13.9691  -16.1703   21.3524 O   0  0  0  0  0  0  0  0  0  0  0  0
   15.5896  -15.8504   22.8804 O   0  0  0  0  0  0  0  0  0  0  0  0
  1  2  1  0
  3  2  1  0
  3  4  1  0
  5  4  1  0
  5  6  1  1
  7  5  1  0
  8  7  2  0
 10  9  1  1
 10 11  1  0
 10 12  1  0
 12 13  1  1
 13  7  1  0
 14 12  1  0
 14 16  1  0
 15 14  2  0
 17 16  1  0
 18 17  1  0
 19 18  2  0
 20 18  1  0
M  END
$$$$
