MTG.pdb
     RDKit          3D

 20 19  0  0  1  0  0  0  0  0999 V2000
    6.8155  -11.3359   27.5520 C   0  0  0  0  0  0  0  0  0  0  0  0
    7.0404  -12.5849   26.2834 S   0  0  0  0  0  0  0  0  0  0  0  0
    6.1839  -14.1150   26.7155 C   0  0  0  0  0  0  0  0  0  0  0  0
    6.2331  -15.1004   25.5537 C   0  0  0  0  0  0  0  0  0  0  0  0
    7.6854  -15.3511   25.2243 C   0  0  2  0  0  0  0  0  0  0  0  0
    8.4257  -14.1348   25.3687 N   0  0  0  0  0  0  0  0  0  0  0  0
    7.7332  -15.8659   23.8162 C   0  0  0  0  0  0  0  0  0  0  0  0
    7.1805  -16.9609   23.5331 O   0  0  0  0  0  0  0  0  0  0  0  0
    6.7523  -13.8514   20.9194 C   0  0  0  0  0  0  0  0  0  0  0  0
    8.0305  -14.5325   20.5399 C   0  0  1  0  0  0  0  0  0  0  0  0
    9.0604  -13.5784   20.6821 O   0  0  0  0  0  0  0  0  0  0  0  0
    8.3934  -15.7181   21.4004 C   0  0  2  0  0  0  0  0  0  0  0  0
    8.3791  -15.1698   22.7774 N   0  0  0  0  0  0  0  0  0  0  0  0
    9.6972  -16.3136   21.1077 C   0  0  0  0  0  0  0  0  0  0  0  0
    9.8693  -16.8905   20.0008 O   0  0  0  0  0  0  0  0  0  0  0  0
   10.7910  -16.2806   21.9996 N   0  0  0  0  0  0  0  0  0  0  0  0
   12.0807  -16.8642   21.6619 C   0  0  0  0  0  0  0  0  0  0  0  0
   13.0487  -16.6917   22.7662 C   0  0  0  0  0  0  0  0  0  0  0  0
   12.6822  -16.2149   23.8677 O   0  0  0  0  0  0  0  0  0  0  0  0
   14.3655  -17.0433   22.6256 O   0  0  0  0  0  0  0  0  0  0  0  0
  1  2  1  0
  3  2  1  0
  3  4  1  0
  5  4  1  0
  5  6  1  6
  7  5  1  0
  8  7  2  0
 10  9  1  1
 10 11  1  0
 10 12  1  0
 12 13  1  1
 13  7  1  0
 14 12  1  0
 14 16  1  0
 15 14  2  0
 17 16  1  0
 18 17  1  0
 19 18  2  0
 20 18  1  0
M  END
$$$$
