MTG.pdb
     RDKit          3D

 20 19  0  0  1  0  0  0  0  0999 V2000
    5.2550  -11.0413   27.9817 C   0  0  0  0  0  0  0  0  0  0  0  0
    6.6166  -11.8539   27.1417 S   0  0  0  0  0  0  0  0  0  0  0  0
    6.1899  -13.5523   26.6999 C   0  0  0  0  0  0  0  0  0  0  0  0
    7.2656  -14.1573   25.8056 C   0  0  0  0  0  0  0  0  0  0  0  0
    6.7696  -15.5042   25.3362 C   0  0  2  0  0  0  0  0  0  0  0  0
    6.7277  -16.4109   26.4428 N   0  0  0  0  0  0  0  0  0  0  0  0
    7.7154  -15.9729   24.2704 C   0  0  0  0  0  0  0  0  0  0  0  0
    8.5534  -16.8750   24.5325 O   0  0  0  0  0  0  0  0  0  0  0  0
    8.0867  -13.8367   20.6367 C   0  0  0  0  0  0  0  0  0  0  0  0
    8.1822  -15.3306   20.6650 C   0  0  1  0  0  0  0  0  0  0  0  0
    9.0904  -15.7020   19.6510 O   0  0  0  0  0  0  0  0  0  0  0  0
    8.6964  -15.9055   21.9623 C   0  0  2  0  0  0  0  0  0  0  0  0
    7.7102  -15.4418   22.9670 N   0  0  0  0  0  0  0  0  0  0  0  0
   10.0417  -15.4699   22.3371 C   0  0  0  0  0  0  0  0  0  0  0  0
   10.1727  -14.4351   23.0440 O   0  0  0  0  0  0  0  0  0  0  0  0
   11.2194  -16.1467   21.9524 N   0  0  0  0  0  0  0  0  0  0  0  0
   12.5423  -15.6646   22.3204 C   0  0  0  0  0  0  0  0  0  0  0  0
   13.6005  -16.5238   21.7471 C   0  0  0  0  0  0  0  0  0  0  0  0
   13.3034  -17.5094   21.0293 O   0  0  0  0  0  0  0  0  0  0  0  0
   14.9280  -16.2751   21.9779 O   0  0  0  0  0  0  0  0  0  0  0  0
  1  2  1  0
  3  2  1  0
  3  4  1  0
  5  4  1  0
  5  6  1  1
  7  5  1  0
  8  7  2  0
 10  9  1  1
 10 11  1  0
 10 12  1  0
 12 13  1  1
 13  7  1  0
 14 12  1  0
 14 16  1  0
 15 14  2  0
 17 16  1  0
 18 17  1  0
 19 18  2  0
 20 18  1  0
M  END
$$$$
