VQV.pdb
     RDKit          3D

 24 23  0  0  1  0  0  0  0  0999 V2000
   26.6149  -21.3297  -18.2946 C   0  0  0  0  0  0  0  0  0  0  0  0
   27.7928  -20.7830  -17.5768 C   0  0  2  0  0  0  0  0  0  0  0  0
   28.9718  -20.6951  -18.5541 C   0  0  0  0  0  0  0  0  0  0  0  0
   28.2055  -21.4767  -16.3291 C   0  0  2  0  0  0  0  0  0  0  0  0
   28.5320  -22.8668  -16.7192 N   0  0  0  0  0  0  0  0  0  0  0  0
   27.1817  -21.5733  -15.2744 C   0  0  0  0  0  0  0  0  0  0  0  0
   26.4074  -22.5909  -15.2291 O   0  0  0  0  0  0  0  0  0  0  0  0
   26.5455  -22.0707  -10.3777 N   0  0  0  0  0  0  0  0  0  0  0  0
   25.4461  -21.2185  -10.2028 C   0  0  0  0  0  0  0  0  0  0  0  0
   24.6156  -21.4681   -9.3002 O   0  0  0  0  0  0  0  0  0  0  0  0
   25.2204  -20.0131  -11.0557 C   0  0  0  0  0  0  0  0  0  0  0  0
   26.3216  -19.8738  -12.0920 C   0  0  0  0  0  0  0  0  0  0  0  0
   25.8735  -20.7314  -13.2911 C   0  0  2  0  0  0  0  0  0  0  0  0
   26.9461  -20.6169  -14.2478 N   0  0  0  0  0  0  0  0  0  0  0  0
   24.5573  -20.2992  -13.7797 C   0  0  0  0  0  0  0  0  0  0  0  0
   24.3752  -19.0888  -14.1520 O   0  0  0  0  0  0  0  0  0  0  0  0
   21.5405  -22.9430  -15.1679 C   0  0  0  0  0  0  0  0  0  0  0  0
   21.6970  -21.5020  -15.5689 C   0  0  1  0  0  0  0  0  0  0  0  0
   20.3909  -20.9605  -16.1097 C   0  0  0  0  0  0  0  0  0  0  0  0
   22.1958  -20.6471  -14.4208 C   0  0  2  0  0  0  0  0  0  0  0  0
   23.4307  -21.1504  -13.8751 N   0  0  0  0  0  0  0  0  0  0  0  0
   21.2081  -20.5200  -13.3458 C   0  0  0  0  0  0  0  0  0  0  0  0
   20.1560  -19.6463  -13.4803 O   0  0  0  0  0  0  0  0  0  0  0  0
   21.3140  -21.1995  -12.3073 O   0  0  0  0  0  0  0  0  0  0  0  0
  2  1  1  6
  2  3  1  0
  4  2  1  0
  4  5  1  6
  6  4  1  0
  6  7  2  0
  8  9  1  0
  9 11  1  0
  9 10  2  0
 11 12  1  0
 13 12  1  1
 13 14  1  0
 14  6  1  0
 15 13  1  0
 16 15  2  0
 18 17  1  1
 18 20  1  0
 19 18  1  0
 20 22  1  0
 20 21  1  1
 21 15  1  0
 22 23  1  0
 24 22  2  0
M  END
$$$$
