VQV.pdb
     RDKit          3D

 24 23  0  0  1  0  0  0  0  0999 V2000
   12.3683  -11.8477  -15.0812 C   0  0  0  0  0  0  0  0  0  0  0  0
   13.1866  -11.2692  -13.9871 C   0  0  2  0  0  0  0  0  0  0  0  0
   12.9017   -9.7646  -13.8975 C   0  0  0  0  0  0  0  0  0  0  0  0
   14.6512  -11.5164  -14.0354 C   0  0  2  0  0  0  0  0  0  0  0  0
   14.8343  -12.9611  -13.7703 N   0  0  0  0  0  0  0  0  0  0  0  0
   15.4601  -10.8062  -13.0297 C   0  0  0  0  0  0  0  0  0  0  0  0
   15.4764  -11.2182  -11.8185 O   0  0  0  0  0  0  0  0  0  0  0  0
   20.8384   -7.6183  -13.7584 N   0  0  0  0  0  0  0  0  0  0  0  0
   20.5319   -7.5426  -12.3924 C   0  0  0  0  0  0  0  0  0  0  0  0
   21.3831   -7.0822  -11.5986 O   0  0  0  0  0  0  0  0  0  0  0  0
   19.2200   -7.9923  -11.8373 C   0  0  0  0  0  0  0  0  0  0  0  0
   18.3733   -8.6420  -12.9177 C   0  0  0  0  0  0  0  0  0  0  0  0
   17.0426   -9.0124  -12.2350 C   0  0  2  0  0  0  0  0  0  0  0  0
   16.2671   -9.6584  -13.2647 N   0  0  0  0  0  0  0  0  0  0  0  0
   16.4146   -7.8268  -11.6368 C   0  0  0  0  0  0  0  0  0  0  0  0
   15.9629   -6.8921  -12.3844 O   0  0  0  0  0  0  0  0  0  0  0  0
   13.4463   -7.7197   -9.2887 C   0  0  0  0  0  0  0  0  0  0  0  0
   14.5208   -6.8364   -8.7167 C   0  0  1  0  0  0  0  0  0  0  0  0
   15.1688   -7.5015   -7.5212 C   0  0  0  0  0  0  0  0  0  0  0  0
   15.5628   -6.4699   -9.7548 C   0  0  2  0  0  0  0  0  0  0  0  0
   16.2637   -7.6302  -10.2434 N   0  0  0  0  0  0  0  0  0  0  0  0
   16.5339   -5.4934   -9.2540 C   0  0  0  0  0  0  0  0  0  0  0  0
   17.8586   -5.8402   -9.1383 O   0  0  0  0  0  0  0  0  0  0  0  0
   16.1680   -4.3474   -8.9311 O   0  0  0  0  0  0  0  0  0  0  0  0
  2  1  1  6
  2  3  1  0
  4  2  1  0
  4  5  1  1
  6  4  1  0
  6  7  2  0
  8  9  1  0
  9 11  1  0
  9 10  2  0
 11 12  1  0
 13 12  1  6
 13 14  1  0
 14  6  1  0
 15 13  1  0
 16 15  2  0
 18 17  1  6
 18 20  1  0
 19 18  1  0
 20 22  1  0
 20 21  1  1
 21 15  1  0
 22 23  1  0
 24 22  2  0
M  END
$$$$
