VQV.pdb
     RDKit          3D

 24 23  0  0  1  0  0  0  0  0999 V2000
   17.5392  -15.6229  -18.5875 C   0  0  0  0  0  0  0  0  0  0  0  0
   18.7824  -16.1775  -17.9973 C   0  0  2  0  0  0  0  0  0  0  0  0
   18.5310  -17.6354  -17.5919 C   0  0  0  0  0  0  0  0  0  0  0  0
   19.3894  -15.4241  -16.8693 C   0  0  2  0  0  0  0  0  0  0  0  0
   18.4629  -15.5777  -15.7252 N   0  0  0  0  0  0  0  0  0  0  0  0
   19.5550  -13.9748  -17.0750 C   0  0  0  0  0  0  0  0  0  0  0  0
   20.4248  -13.5449  -17.9090 O   0  0  0  0  0  0  0  0  0  0  0  0
   14.7364  -11.5236  -18.2260 N   0  0  0  0  0  0  0  0  0  0  0  0
   16.0043  -12.0212  -18.5584 C   0  0  0  0  0  0  0  0  0  0  0  0
   16.1056  -13.1815  -19.0167 O   0  0  0  0  0  0  0  0  0  0  0  0
   17.2524  -11.2184  -18.3874 C   0  0  0  0  0  0  0  0  0  0  0  0
   17.5598  -11.0093  -16.9150 C   0  0  0  0  0  0  0  0  0  0  0  0
   18.9895  -11.5458  -16.7096 C   0  0  2  0  0  0  0  0  0  0  0  0
   18.8192  -12.9481  -16.4205 N   0  0  0  0  0  0  0  0  0  0  0  0
   19.6912  -10.7790  -15.6716 C   0  0  0  0  0  0  0  0  0  0  0  0
   19.3502  -10.8964  -14.4442 O   0  0  0  0  0  0  0  0  0  0  0  0
   23.2026  -11.0558  -14.5924 C   0  0  0  0  0  0  0  0  0  0  0  0
   22.9445   -9.6002  -14.8690 C   0  0  1  0  0  0  0  0  0  0  0  0
   23.5520   -9.2000  -16.1965 C   0  0  0  0  0  0  0  0  0  0  0  0
   21.4647   -9.2730  -14.8378 C   0  0  2  0  0  0  0  0  0  0  0  0
   20.7572   -9.8857  -15.9333 N   0  0  0  0  0  0  0  0  0  0  0  0
   21.2092   -7.8301  -14.8434 C   0  0  0  0  0  0  0  0  0  0  0  0
   21.5294   -7.0721  -13.7428 O   0  0  0  0  0  0  0  0  0  0  0  0
   20.7023   -7.2824  -15.8407 O   0  0  0  0  0  0  0  0  0  0  0  0
  2  1  1  1
  2  3  1  0
  4  2  1  0
  4  5  1  1
  6  4  1  0
  6  7  2  0
  8  9  1  0
  9 11  1  0
  9 10  2  0
 11 12  1  0
 13 12  1  1
 13 14  1  0
 14  6  1  0
 15 13  1  0
 16 15  2  0
 18 17  1  6
 18 20  1  0
 19 18  1  0
 20 22  1  0
 20 21  1  6
 21 15  1  0
 22 23  1  0
 24 22  2  0
M  END
$$$$
