VQV.pdb
     RDKit          3D

 24 23  0  0  1  0  0  0  0  0999 V2000
   15.5791  -11.5836  -13.6199 C   0  0  0  0  0  0  0  0  0  0  0  0
   16.0400  -10.7897  -14.7854 C   0  0  2  0  0  0  0  0  0  0  0  0
   15.7038  -11.5557  -16.0711 C   0  0  0  0  0  0  0  0  0  0  0  0
   17.4643  -10.3656  -14.7934 C   0  0  2  0  0  0  0  0  0  0  0  0
   18.2641  -11.6088  -14.8693 N   0  0  0  0  0  0  0  0  0  0  0  0
   17.9312   -9.6466  -13.5954 C   0  0  0  0  0  0  0  0  0  0  0  0
   18.9850  -10.0406  -12.9861 O   0  0  0  0  0  0  0  0  0  0  0  0
   21.2382   -5.4636  -13.8309 N   0  0  0  0  0  0  0  0  0  0  0  0
   21.0576   -5.4920  -12.4409 C   0  0  0  0  0  0  0  0  0  0  0  0
   21.8607   -4.8736  -11.7066 O   0  0  0  0  0  0  0  0  0  0  0  0
   19.9368   -6.2360  -11.7914 C   0  0  0  0  0  0  0  0  0  0  0  0
   19.1605   -7.0421  -12.8179 C   0  0  0  0  0  0  0  0  0  0  0  0
   17.9721   -7.6543  -12.0518 C   0  0  2  0  0  0  0  0  0  0  0  0
   17.3138   -8.5056  -13.0115 N   0  0  0  0  0  0  0  0  0  0  0  0
   17.1262   -6.6023  -11.4724 C   0  0  0  0  0  0  0  0  0  0  0  0
   16.6292   -5.6916  -12.2211 O   0  0  0  0  0  0  0  0  0  0  0  0
   14.3347   -7.6543   -8.9144 C   0  0  0  0  0  0  0  0  0  0  0  0
   14.9369   -6.3328   -8.5235 C   0  0  1  0  0  0  0  0  0  0  0  0
   15.8335   -6.4990   -7.3152 C   0  0  0  0  0  0  0  0  0  0  0  0
   15.6973   -5.6971   -9.6703 C   0  0  2  0  0  0  0  0  0  0  0  0
   16.8049   -6.5140  -10.0970 N   0  0  0  0  0  0  0  0  0  0  0  0
   16.1842   -4.3540   -9.3442 C   0  0  0  0  0  0  0  0  0  0  0  0
   17.5346   -4.1002   -9.3215 O   0  0  0  0  0  0  0  0  0  0  0  0
   15.3819   -3.4367   -9.0864 O   0  0  0  0  0  0  0  0  0  0  0  0
  2  1  1  1
  2  3  1  0
  4  2  1  0
  4  5  1  1
  6  4  1  0
  6  7  2  0
  8  9  1  0
  9 11  1  0
  9 10  2  0
 11 12  1  0
 13 12  1  6
 13 14  1  0
 14  6  1  0
 15 13  1  0
 16 15  2  0
 18 17  1  6
 18 20  1  0
 19 18  1  0
 20 22  1  0
 20 21  1  1
 21 15  1  0
 22 23  1  0
 24 22  2  0
M  END
$$$$
