VQV.pdb
     RDKit          3D

 24 23  0  0  1  0  0  0  0  0999 V2000
   15.5067  -16.1338  -17.4515 C   0  0  0  0  0  0  0  0  0  0  0  0
   16.0076  -15.0616  -16.5565 C   0  0  2  0  0  0  0  0  0  0  0  0
   15.0610  -13.8580  -16.6471 C   0  0  0  0  0  0  0  0  0  0  0  0
   17.4162  -14.6273  -16.7450 C   0  0  2  0  0  0  0  0  0  0  0  0
   18.2588  -15.7777  -16.3477 N   0  0  0  0  0  0  0  0  0  0  0  0
   17.8571  -13.4884  -15.9213 C   0  0  0  0  0  0  0  0  0  0  0  0
   18.0371  -13.6431  -14.6641 O   0  0  0  0  0  0  0  0  0  0  0  0
   21.2233   -8.4169  -17.6211 N   0  0  0  0  0  0  0  0  0  0  0  0
   20.9947   -8.2879  -16.2439 C   0  0  0  0  0  0  0  0  0  0  0  0
   21.6173   -7.4143  -15.5992 O   0  0  0  0  0  0  0  0  0  0  0  0
   20.0303   -9.1569  -15.5048 C   0  0  0  0  0  0  0  0  0  0  0  0
   19.4367  -10.2071  -16.4274 C   0  0  0  0  0  0  0  0  0  0  0  0
   18.5583  -11.0992  -15.5293 C   0  0  2  0  0  0  0  0  0  0  0  0
   18.1209  -12.1709  -16.3890 N   0  0  0  0  0  0  0  0  0  0  0  0
   17.4779  -10.3175  -14.9132 C   0  0  0  0  0  0  0  0  0  0  0  0
   16.4628   -9.9648  -15.6075 O   0  0  0  0  0  0  0  0  0  0  0  0
   17.0379   -9.6832  -10.6807 C   0  0  0  0  0  0  0  0  0  0  0  0
   15.9130   -9.7238  -11.6781 C   0  0  1  0  0  0  0  0  0  0  0  0
   14.7165   -8.9584  -11.1546 C   0  0  0  0  0  0  0  0  0  0  0  0
   16.3386   -9.1904  -13.0316 C   0  0  2  0  0  0  0  0  0  0  0  0
   17.4714   -9.9083  -13.5584 N   0  0  0  0  0  0  0  0  0  0  0  0
   16.6464   -7.7581  -12.9985 C   0  0  0  0  0  0  0  0  0  0  0  0
   15.6308   -6.8359  -13.0786 O   0  0  0  0  0  0  0  0  0  0  0  0
   17.8249   -7.3676  -12.8981 O   0  0  0  0  0  0  0  0  0  0  0  0
  2  1  1  6
  2  3  1  0
  4  2  1  0
  4  5  1  1
  6  4  1  0
  6  7  2  0
  8  9  1  0
  9 11  1  0
  9 10  2  0
 11 12  1  0
 13 12  1  6
 13 14  1  0
 14  6  1  0
 15 13  1  0
 16 15  2  0
 18 17  1  1
 18 20  1  0
 19 18  1  0
 20 22  1  0
 20 21  1  1
 21 15  1  0
 22 23  1  0
 24 22  2  0
M  END
$$$$
