VQV.pdb
     RDKit          3D

 24 23  0  0  1  0  0  0  0  0999 V2000
   17.9013  -11.7991  -19.0596 C   0  0  0  0  0  0  0  0  0  0  0  0
   18.5034  -12.3822  -17.8354 C   0  0  2  0  0  0  0  0  0  0  0  0
   17.3917  -12.6382  -16.8100 C   0  0  0  0  0  0  0  0  0  0  0  0
   19.6221  -11.6311  -17.2089 C   0  0  2  0  0  0  0  0  0  0  0  0
   20.1932  -12.5263  -16.1776 N   0  0  0  0  0  0  0  0  0  0  0  0
   19.2552  -10.3840  -16.5159 C   0  0  0  0  0  0  0  0  0  0  0  0
   18.9258   -9.3508  -17.1949 O   0  0  0  0  0  0  0  0  0  0  0  0
   16.8764   -9.3122  -10.7461 N   0  0  0  0  0  0  0  0  0  0  0  0
   17.1437   -8.0501  -11.2949 C   0  0  0  0  0  0  0  0  0  0  0  0
   16.7737   -7.0245  -10.6802 O   0  0  0  0  0  0  0  0  0  0  0  0
   17.8584   -7.8743  -12.5949 C   0  0  0  0  0  0  0  0  0  0  0  0
   18.1833   -9.2213  -13.2162 C   0  0  0  0  0  0  0  0  0  0  0  0
   18.9892   -8.9063  -14.4911 C   0  0  2  0  0  0  0  0  0  0  0  0
   19.2216  -10.1892  -15.1069 N   0  0  0  0  0  0  0  0  0  0  0  0
   20.2027   -8.1445  -14.1673 C   0  0  0  0  0  0  0  0  0  0  0  0
   21.1305   -8.6797  -13.4677 O   0  0  0  0  0  0  0  0  0  0  0  0
   22.6615   -6.7493  -16.5945 C   0  0  0  0  0  0  0  0  0  0  0  0
   22.3289   -5.6537  -15.6195 C   0  0  1  0  0  0  0  0  0  0  0  0
   21.4090   -4.6376  -16.2621 C   0  0  0  0  0  0  0  0  0  0  0  0
   21.7163   -6.1987  -14.3446 C   0  0  2  0  0  0  0  0  0  0  0  0
   20.4352   -6.8126  -14.5854 N   0  0  0  0  0  0  0  0  0  0  0  0
   21.5740   -5.1731  -13.3077 C   0  0  0  0  0  0  0  0  0  0  0  0
   22.6921   -4.6265  -12.7250 O   0  0  0  0  0  0  0  0  0  0  0  0
   20.4443   -4.7908  -12.9484 O   0  0  0  0  0  0  0  0  0  0  0  0
  2  1  1  6
  2  3  1  0
  4  2  1  0
  4  5  1  1
  6  4  1  0
  6  7  2  0
  8  9  1  0
  9 11  1  0
  9 10  2  0
 11 12  1  0
 13 12  1  1
 13 14  1  0
 14  6  1  0
 15 13  1  0
 16 15  2  0
 18 17  1  6
 18 20  1  0
 19 18  1  0
 20 22  1  0
 20 21  1  6
 21 15  1  0
 22 23  1  0
 24 22  2  0
M  END
$$$$
