VQV.pdb
     RDKit          3D

 24 23  0  0  1  0  0  0  0  0999 V2000
   15.3599  -12.4880  -13.9972 C   0  0  0  0  0  0  0  0  0  0  0  0
   16.0125  -12.0608  -15.2594 C   0  0  2  0  0  0  0  0  0  0  0  0
   16.8650  -13.2190  -15.7932 C   0  0  0  0  0  0  0  0  0  0  0  0
   16.8104  -10.8078  -15.2170 C   0  0  2  0  0  0  0  0  0  0  0  0
   17.9889  -11.0981  -14.3698 N   0  0  0  0  0  0  0  0  0  0  0  0
   16.1464   -9.6389  -14.6146 C   0  0  0  0  0  0  0  0  0  0  0  0
   15.1484   -9.0984  -15.2051 O   0  0  0  0  0  0  0  0  0  0  0  0
   15.9252   -7.5704   -8.6028 N   0  0  0  0  0  0  0  0  0  0  0  0
   15.1997   -6.6513   -9.3738 C   0  0  0  0  0  0  0  0  0  0  0  0
   14.5262   -5.7668   -8.7988 O   0  0  0  0  0  0  0  0  0  0  0  0
   15.1955   -6.6820  -10.8673 C   0  0  0  0  0  0  0  0  0  0  0  0
   15.9721   -7.8810  -11.3827 C   0  0  0  0  0  0  0  0  0  0  0  0
   15.9050   -7.7892  -12.9192 C   0  0  2  0  0  0  0  0  0  0  0  0
   16.5057   -9.0132  -13.3883 N   0  0  0  0  0  0  0  0  0  0  0  0
   16.5490   -6.5588  -13.3979 C   0  0  0  0  0  0  0  0  0  0  0  0
   17.8118   -6.4009  -13.2667 O   0  0  0  0  0  0  0  0  0  0  0  0
   16.2599   -5.0934  -16.9897 C   0  0  0  0  0  0  0  0  0  0  0  0
   16.0356   -4.0169  -15.9638 C   0  0  1  0  0  0  0  0  0  0  0  0
   14.5623   -3.6847  -15.8619 C   0  0  0  0  0  0  0  0  0  0  0  0
   16.5915   -4.4040  -14.6078 C   0  0  2  0  0  0  0  0  0  0  0  0
   15.8547   -5.4925  -14.0175 N   0  0  0  0  0  0  0  0  0  0  0  0
   16.6226   -3.2770  -13.6718 C   0  0  0  0  0  0  0  0  0  0  0  0
   15.7931   -3.2716  -12.5763 O   0  0  0  0  0  0  0  0  0  0  0  0
   17.3972   -2.3200  -13.8611 O   0  0  0  0  0  0  0  0  0  0  0  0
  2  1  1  1
  2  3  1  0
  4  2  1  0
  4  5  1  1
  6  4  1  0
  6  7  2  0
  8  9  1  0
  9 11  1  0
  9 10  2  0
 11 12  1  0
 13 12  1  1
 13 14  1  0
 14  6  1  0
 15 13  1  0
 16 15  2  0
 18 17  1  6
 18 20  1  0
 19 18  1  0
 20 22  1  0
 20 21  1  1
 21 15  1  0
 22 23  1  0
 24 22  2  0
M  END
$$$$
