VQV.pdb
     RDKit          3D

 24 23  0  0  1  0  0  0  0  0999 V2000
   14.7830  -10.6561  -18.2353 C   0  0  0  0  0  0  0  0  0  0  0  0
   15.0268  -11.6786  -17.1881 C   0  0  2  0  0  0  0  0  0  0  0  0
   13.6766  -12.2106  -16.6911 C   0  0  0  0  0  0  0  0  0  0  0  0
   15.8800  -11.2787  -16.0389 C   0  0  2  0  0  0  0  0  0  0  0  0
   15.0178  -10.4715  -15.1467 N   0  0  0  0  0  0  0  0  0  0  0  0
   17.0446  -10.4360  -16.3611 C   0  0  0  0  0  0  0  0  0  0  0  0
   18.0678  -10.9533  -16.9288 O   0  0  0  0  0  0  0  0  0  0  0  0
   15.4698   -6.0050  -18.1140 N   0  0  0  0  0  0  0  0  0  0  0  0
   16.5230   -6.4209  -18.9406 C   0  0  0  0  0  0  0  0  0  0  0  0
   16.3909   -6.3492  -20.1832 O   0  0  0  0  0  0  0  0  0  0  0  0
   17.8095   -6.9513  -18.3972 C   0  0  0  0  0  0  0  0  0  0  0  0
   17.8116   -6.9053  -16.8793 C   0  0  0  0  0  0  0  0  0  0  0  0
   18.3445   -8.2773  -16.4237 C   0  0  2  0  0  0  0  0  0  0  0  0
   17.1656   -9.0425  -16.1015 N   0  0  0  0  0  0  0  0  0  0  0  0
   19.3055   -8.1254  -15.3231 C   0  0  0  0  0  0  0  0  0  0  0  0
   18.8971   -7.8159  -14.1508 O   0  0  0  0  0  0  0  0  0  0  0  0
   22.1161  -10.4960  -13.9502 C   0  0  0  0  0  0  0  0  0  0  0  0
   22.6654   -9.1294  -14.2546 C   0  0  1  0  0  0  0  0  0  0  0  0
   23.4691   -9.1581  -15.5371 C   0  0  0  0  0  0  0  0  0  0  0  0
   21.5699   -8.0848  -14.3333 C   0  0  2  0  0  0  0  0  0  0  0  0
   20.7027   -8.3019  -15.4633 N   0  0  0  0  0  0  0  0  0  0  0  0
   22.0995   -6.7195  -14.3851 C   0  0  0  0  0  0  0  0  0  0  0  0
   21.9227   -5.9572  -15.5147 O   0  0  0  0  0  0  0  0  0  0  0  0
   22.7108   -6.2418  -13.4106 O   0  0  0  0  0  0  0  0  0  0  0  0
  2  1  1  6
  2  3  1  0
  4  2  1  0
  4  5  1  1
  6  4  1  0
  6  7  2  0
  8  9  1  0
  9 11  1  0
  9 10  2  0
 11 12  1  0
 13 12  1  1
 13 14  1  0
 14  6  1  0
 15 13  1  0
 16 15  2  0
 18 17  1  6
 18 20  1  0
 19 18  1  0
 20 22  1  0
 20 21  1  6
 21 15  1  0
 22 23  1  0
 24 22  2  0
M  END
$$$$
