VQV.pdb
     RDKit          3D

 24 23  0  0  1  0  0  0  0  0999 V2000
   26.1450  -34.6467  -14.5422 C   0  0  0  0  0  0  0  0  0  0  0  0
   25.4080  -34.6597  -13.2546 C   0  0  2  0  0  0  0  0  0  0  0  0
   26.3206  -34.1011  -12.1555 C   0  0  0  0  0  0  0  0  0  0  0  0
   24.8166  -35.9544  -12.8275 C   0  0  2  0  0  0  0  0  0  0  0  0
   23.5443  -36.0917  -13.5714 N   0  0  0  0  0  0  0  0  0  0  0  0
   24.4744  -36.0688  -11.3992 C   0  0  0  0  0  0  0  0  0  0  0  0
   23.3557  -35.6168  -10.9738 O   0  0  0  0  0  0  0  0  0  0  0  0
   25.1789  -40.8313   -7.5982 N   0  0  0  0  0  0  0  0  0  0  0  0
   24.6101  -39.8267   -6.8027 C   0  0  0  0  0  0  0  0  0  0  0  0
   24.1560  -40.1228   -5.6745 O   0  0  0  0  0  0  0  0  0  0  0  0
   24.5215  -38.4034   -7.2477 C   0  0  0  0  0  0  0  0  0  0  0  0
   25.0934  -38.2404   -8.6451 C   0  0  0  0  0  0  0  0  0  0  0  0
   24.8821  -36.7582   -9.0092 C   0  0  2  0  0  0  0  0  0  0  0  0
   25.2864  -36.6563  -10.3895 N   0  0  0  0  0  0  0  0  0  0  0  0
   25.6124  -35.8833   -8.0824 C   0  0  0  0  0  0  0  0  0  0  0  0
   26.8888  -35.9389   -8.0164 O   0  0  0  0  0  0  0  0  0  0  0  0
   24.9723  -32.0322   -7.8195 C   0  0  0  0  0  0  0  0  0  0  0  0
   25.1364  -32.6278   -6.4483 C   0  0  1  0  0  0  0  0  0  0  0  0
   23.7989  -32.7046   -5.7435 C   0  0  0  0  0  0  0  0  0  0  0  0
   25.7928  -33.9931   -6.5002 C   0  0  2  0  0  0  0  0  0  0  0  0
   24.9901  -34.9464   -7.2233 N   0  0  0  0  0  0  0  0  0  0  0  0
   26.0900  -34.5235   -5.1669 C   0  0  0  0  0  0  0  0  0  0  0  0
   27.0482  -33.9219   -4.3869 O   0  0  0  0  0  0  0  0  0  0  0  0
   25.4796  -35.5187   -4.7326 O   0  0  0  0  0  0  0  0  0  0  0  0
  2  1  1  6
  2  3  1  0
  4  2  1  0
  4  5  1  6
  6  4  1  0
  6  7  2  0
  8  9  1  0
  9 11  1  0
  9 10  2  0
 11 12  1  0
 13 12  1  1
 13 14  1  0
 14  6  1  0
 15 13  1  0
 16 15  2  0
 18 17  1  6
 18 20  1  0
 19 18  1  0
 20 22  1  0
 20 21  1  1
 21 15  1  0
 22 23  1  0
 24 22  2  0
M  END
$$$$
