VQV.pdb
     RDKit          3D

 24 23  0  0  1  0  0  0  0  0999 V2000
   18.5960  -15.3445  -18.7876 C   0  0  0  0  0  0  0  0  0  0  0  0
   18.7818  -14.3352  -17.7161 C   0  0  2  0  0  0  0  0  0  0  0  0
   17.7291  -13.2326  -17.8860 C   0  0  0  0  0  0  0  0  0  0  0  0
   20.1363  -13.7402  -17.5758 C   0  0  2  0  0  0  0  0  0  0  0  0
   21.0294  -14.8430  -17.1549 N   0  0  0  0  0  0  0  0  0  0  0  0
   20.2761  -12.6842  -16.5581 C   0  0  0  0  0  0  0  0  0  0  0  0
   20.2903  -12.9935  -15.3168 O   0  0  0  0  0  0  0  0  0  0  0  0
   24.6663   -9.1050  -15.7220 N   0  0  0  0  0  0  0  0  0  0  0  0
   24.2424  -10.2785  -15.0826 C   0  0  0  0  0  0  0  0  0  0  0  0
   25.0794  -10.9774  -14.4682 O   0  0  0  0  0  0  0  0  0  0  0  0
   22.8204  -10.7356  -15.1029 C   0  0  0  0  0  0  0  0  0  0  0  0
   21.9542   -9.7634  -15.8844 C   0  0  0  0  0  0  0  0  0  0  0  0
   20.5157  -10.3030  -15.7671 C   0  0  2  0  0  0  0  0  0  0  0  0
   20.4059  -11.2904  -16.8121 N   0  0  0  0  0  0  0  0  0  0  0  0
   19.5392   -9.2082  -15.8427 C   0  0  0  0  0  0  0  0  0  0  0  0
   19.3812   -8.5617  -16.9354 O   0  0  0  0  0  0  0  0  0  0  0  0
   15.8633   -9.3711  -15.4314 C   0  0  0  0  0  0  0  0  0  0  0  0
   16.3488   -8.2501  -14.5542 C   0  0  1  0  0  0  0  0  0  0  0  0
   16.3323   -8.6731  -13.1009 C   0  0  0  0  0  0  0  0  0  0  0  0
   17.7306   -7.7751  -14.9573 C   0  0  2  0  0  0  0  0  0  0  0  0
   18.7273   -8.7966  -14.7591 N   0  0  0  0  0  0  0  0  0  0  0  0
   18.1355   -6.5596  -14.2461 C   0  0  0  0  0  0  0  0  0  0  0  0
   17.4452   -5.3877  -14.4421 O   0  0  0  0  0  0  0  0  0  0  0  0
   19.1034   -6.5792  -13.4624 O   0  0  0  0  0  0  0  0  0  0  0  0
  2  1  1  6
  2  3  1  0
  4  2  1  0
  4  5  1  1
  6  4  1  0
  6  7  2  0
  8  9  1  0
  9 11  1  0
  9 10  2  0
 11 12  1  0
 13 12  1  6
 13 14  1  0
 14  6  1  0
 15 13  1  0
 16 15  2  0
 18 17  1  6
 18 20  1  0
 19 18  1  0
 20 22  1  0
 20 21  1  1
 21 15  1  0
 22 23  1  0
 24 22  2  0
M  END
$$$$
