VQV.pdb
     RDKit          3D

 24 23  0  0  1  0  0  0  0  0999 V2000
   14.7759  -12.8187  -12.5494 C   0  0  0  0  0  0  0  0  0  0  0  0
   14.8534  -11.7266  -11.5481 C   0  0  2  0  0  0  0  0  0  0  0  0
   13.5312  -11.6706  -10.7725 C   0  0  0  0  0  0  0  0  0  0  0  0
   15.2173  -10.3755  -12.0486 C   0  0  2  0  0  0  0  0  0  0  0  0
   16.4211  -10.5582  -12.8903 N   0  0  0  0  0  0  0  0  0  0  0  0
   15.5775   -9.3816  -11.0226 C   0  0  0  0  0  0  0  0  0  0  0  0
   14.7189   -9.0389  -10.1382 O   0  0  0  0  0  0  0  0  0  0  0  0
   21.2255   -6.8705  -10.8808 N   0  0  0  0  0  0  0  0  0  0  0  0
   20.1794   -6.5301  -11.7499 C   0  0  0  0  0  0  0  0  0  0  0  0
   20.4478   -6.0163  -12.8591 O   0  0  0  0  0  0  0  0  0  0  0  0
   18.7434   -6.7564  -11.4059 C   0  0  0  0  0  0  0  0  0  0  0  0
   18.6145   -7.4235  -10.0477 C   0  0  0  0  0  0  0  0  0  0  0  0
   17.1161   -7.7423   -9.8829 C   0  0  2  0  0  0  0  0  0  0  0  0
   16.8353   -8.7289  -10.8962 N   0  0  0  0  0  0  0  0  0  0  0  0
   16.3089   -6.5179   -9.9683 C   0  0  0  0  0  0  0  0  0  0  0  0
   15.8778   -6.1096  -11.1015 O   0  0  0  0  0  0  0  0  0  0  0  0
   14.3348   -4.8693   -6.5887 C   0  0  0  0  0  0  0  0  0  0  0  0
   13.8420   -4.8196   -8.0087 C   0  0  1  0  0  0  0  0  0  0  0  0
   12.8391   -3.6987   -8.1796 C   0  0  0  0  0  0  0  0  0  0  0  0
   14.9816   -4.6728   -8.9974 C   0  0  2  0  0  0  0  0  0  0  0  0
   15.9565   -5.7237   -8.8511 N   0  0  0  0  0  0  0  0  0  0  0  0
   15.6513   -3.3737   -8.8924 C   0  0  0  0  0  0  0  0  0  0  0  0
   15.0288   -2.2410   -9.3591 O   0  0  0  0  0  0  0  0  0  0  0  0
   16.7842   -3.2865   -8.3821 O   0  0  0  0  0  0  0  0  0  0  0  0
  2  1  1  6
  2  3  1  0
  4  2  1  0
  4  5  1  6
  6  4  1  0
  6  7  2  0
  8  9  1  0
  9 11  1  0
  9 10  2  0
 11 12  1  0
 13 12  1  6
 13 14  1  0
 14  6  1  0
 15 13  1  0
 16 15  2  0
 18 17  1  1
 18 20  1  0
 19 18  1  0
 20 22  1  0
 20 21  1  1
 21 15  1  0
 22 23  1  0
 24 22  2  0
M  END
$$$$
