VQV.pdb
     RDKit          3D

 24 23  0  0  1  0  0  0  0  0999 V2000
   20.3955  -11.9401  -21.2819 C   0  0  0  0  0  0  0  0  0  0  0  0
   20.3567  -12.3501  -19.8564 C   0  0  2  0  0  0  0  0  0  0  0  0
   18.9138  -12.2392  -19.3480 C   0  0  0  0  0  0  0  0  0  0  0  0
   21.2871  -11.6563  -18.9282 C   0  0  2  0  0  0  0  0  0  0  0  0
   21.2884  -12.4484  -17.6777 N   0  0  0  0  0  0  0  0  0  0  0  0
   20.9149  -10.2829  -18.5469 C   0  0  0  0  0  0  0  0  0  0  0  0
   21.0036   -9.3374  -19.4042 O   0  0  0  0  0  0  0  0  0  0  0  0
   16.1526   -8.3212  -15.1416 N   0  0  0  0  0  0  0  0  0  0  0  0
   16.8254   -7.1579  -15.5410 C   0  0  0  0  0  0  0  0  0  0  0  0
   16.2685   -6.0469  -15.3918 O   0  0  0  0  0  0  0  0  0  0  0  0
   18.1922   -7.1869  -16.1432 C   0  0  0  0  0  0  0  0  0  0  0  0
   18.6441   -8.6169  -16.3824 C   0  0  0  0  0  0  0  0  0  0  0  0
   20.0645   -8.5101  -16.9698 C   0  0  2  0  0  0  0  0  0  0  0  0
   20.4423   -9.8687  -17.2706 N   0  0  0  0  0  0  0  0  0  0  0  0
   20.9617   -7.8071  -16.0431 C   0  0  0  0  0  0  0  0  0  0  0  0
   21.3722   -8.3886  -14.9801 O   0  0  0  0  0  0  0  0  0  0  0  0
   24.1492   -5.7757  -17.1784 C   0  0  0  0  0  0  0  0  0  0  0  0
   23.3947   -5.0342  -16.1094 C   0  0  1  0  0  0  0  0  0  0  0  0
   22.6635   -3.8502  -16.7052 C   0  0  0  0  0  0  0  0  0  0  0  0
   22.4317   -5.9389  -15.3666 C   0  0  2  0  0  0  0  0  0  0  0  0
   21.4262   -6.4852  -16.2422 N   0  0  0  0  0  0  0  0  0  0  0  0
   21.7787   -5.2613  -14.2434 C   0  0  0  0  0  0  0  0  0  0  0  0
   22.5233   -4.8469  -13.1653 O   0  0  0  0  0  0  0  0  0  0  0  0
   20.5501   -5.0569  -14.2571 O   0  0  0  0  0  0  0  0  0  0  0  0
  2  1  1  6
  2  3  1  0
  4  2  1  0
  4  5  1  1
  6  4  1  0
  6  7  2  0
  8  9  1  0
  9 11  1  0
  9 10  2  0
 11 12  1  0
 13 12  1  1
 13 14  1  0
 14  6  1  0
 15 13  1  0
 16 15  2  0
 18 17  1  6
 18 20  1  0
 19 18  1  0
 20 22  1  0
 20 21  1  6
 21 15  1  0
 22 23  1  0
 24 22  2  0
M  END
$$$$
