VQV.pdb
     RDKit          3D

 24 23  0  0  1  0  0  0  0  0999 V2000
   15.3442  -13.2083  -10.5774 C   0  0  0  0  0  0  0  0  0  0  0  0
   15.6308  -11.7840  -10.8784 C   0  0  2  0  0  0  0  0  0  0  0  0
   17.1127  -11.5063  -10.5960 C   0  0  0  0  0  0  0  0  0  0  0  0
   14.7774  -10.7672  -10.2104 C   0  0  2  0  0  0  0  0  0  0  0  0
   13.4010  -10.9952  -10.7048 N   0  0  0  0  0  0  0  0  0  0  0  0
   15.0954   -9.3600  -10.5083 C   0  0  0  0  0  0  0  0  0  0  0  0
   14.9416   -8.9095  -11.6958 O   0  0  0  0  0  0  0  0  0  0  0  0
   14.4845   -4.2236   -6.9940 N   0  0  0  0  0  0  0  0  0  0  0  0
   15.1593   -3.7928   -8.1449 C   0  0  0  0  0  0  0  0  0  0  0  0
   15.3801   -2.5712   -8.3039 O   0  0  0  0  0  0  0  0  0  0  0  0
   15.6310   -4.7385   -9.2008 C   0  0  0  0  0  0  0  0  0  0  0  0
   15.3643   -6.1767   -8.7927 C   0  0  0  0  0  0  0  0  0  0  0  0
   15.9109   -7.0426   -9.9439 C   0  0  2  0  0  0  0  0  0  0  0  0
   15.5759   -8.3965   -9.5782 N   0  0  0  0  0  0  0  0  0  0  0  0
   17.3434   -6.7922  -10.1514 C   0  0  0  0  0  0  0  0  0  0  0  0
   18.1452   -6.7807   -9.1545 O   0  0  0  0  0  0  0  0  0  0  0  0
   19.7873   -8.8917  -11.4966 C   0  0  0  0  0  0  0  0  0  0  0  0
   19.9735   -7.6083  -12.2582 C   0  0  1  0  0  0  0  0  0  0  0  0
   19.3999   -7.7354  -13.6533 C   0  0  0  0  0  0  0  0  0  0  0  0
   19.3598   -6.4270  -11.5332 C   0  0  2  0  0  0  0  0  0  0  0  0
   17.9292   -6.5537  -11.4174 N   0  0  0  0  0  0  0  0  0  0  0  0
   19.6821   -5.1481  -12.1717 C   0  0  0  0  0  0  0  0  0  0  0  0
   20.9858   -4.7170  -12.2252 O   0  0  0  0  0  0  0  0  0  0  0  0
   18.7815   -4.4455  -12.6684 O   0  0  0  0  0  0  0  0  0  0  0  0
  2  1  1  1
  2  3  1  0
  4  2  1  0
  4  5  1  6
  6  4  1  0
  6  7  2  0
  8  9  1  0
  9 11  1  0
  9 10  2  0
 11 12  1  0
 13 12  1  1
 13 14  1  0
 14  6  1  0
 15 13  1  0
 16 15  2  0
 18 17  1  1
 18 20  1  0
 19 18  1  0
 20 22  1  0
 20 21  1  6
 21 15  1  0
 22 23  1  0
 24 22  2  0
M  END
$$$$
