MHK.pdb
     RDKit          3D

 28 28  0  0  1  0  0  0  0  0999 V2000
    7.8762  -12.6622   27.9335 C   0  0  0  0  0  0  0  0  0  0  0  0
    6.3802  -11.7414   27.5585 S   0  0  0  0  0  0  0  0  0  0  0  0
    5.4161  -12.5799   26.2415 C   0  0  0  0  0  0  0  0  0  0  0  0
    6.1582  -13.8101   25.8365 C   0  0  0  0  0  0  0  0  0  0  0  0
    7.3685  -13.5334   25.0188 C   0  0  2  0  0  0  0  0  0  0  0  0
    7.0210  -12.4967   24.0433 N   0  0  0  0  0  0  0  0  0  0  0  0
    8.0071  -14.6858   24.3891 C   0  0  0  0  0  0  0  0  0  0  0  0
    7.8324  -15.8685   24.7745 O   0  0  0  0  0  0  0  0  0  0  0  0
    8.8896  -14.5265   23.2701 N   0  0  0  0  0  0  0  0  0  0  0  0
    9.5002  -15.6228   22.5562 C   0  0  1  0  0  0  0  0  0  0  0  0
    9.9711  -15.2870   21.1756 C   0  0  0  0  0  0  0  0  0  0  0  0
    8.9903  -14.7273   20.2655 C   0  0  0  0  0  0  0  0  0  0  0  0
    7.6338  -14.6124   20.4021 C   0  0  0  0  0  0  0  0  0  0  0  0
    7.2017  -14.0244   19.2561 N   0  0  0  0  0  0  0  0  0  0  0  0
    8.2467  -13.7855   18.4446 C   0  0  0  0  0  0  0  0  0  0  0  0
    9.3400  -14.2118   19.0542 N   0  0  0  0  0  0  0  0  0  0  0  0
   10.7116  -16.0808   23.3006 C   0  0  0  0  0  0  0  0  0  0  0  0
   11.4642  -15.2502   23.8324 O   0  0  0  0  0  0  0  0  0  0  0  0
   10.9966  -17.4519   23.3977 N   0  0  0  0  0  0  0  0  0  0  0  0
   12.1789  -17.9437   24.2134 C   0  0  1  0  0  0  0  0  0  0  0  0
   11.9131  -19.3881   24.3783 C   0  0  0  0  0  0  0  0  0  0  0  0
   10.8075  -19.9208   25.1623 C   0  0  0  0  0  0  0  0  0  0  0  0
   10.5478  -21.3623   25.2983 C   0  0  0  0  0  0  0  0  0  0  0  0
    9.4329  -21.6886   26.2643 C   0  0  0  0  0  0  0  0  0  0  0  0
    9.3366  -23.1363   26.3301 N   0  0  0  0  0  0  0  0  0  0  0  0
   13.3106  -17.6576   23.2988 C   0  0  0  0  0  0  0  0  0  0  0  0
   14.4503  -17.2812   23.6354 O   0  0  0  0  0  0  0  0  0  0  0  0
   13.1717  -17.8000   21.8884 O   0  0  0  0  0  0  0  0  0  0  0  0
  1  2  1  0
  3  4  1  0
  3  2  1  0
  4  5  1  0
  5  6  1  6
  7  9  1  0
  7  5  1  0
  8  7  2  0
 10  9  1  0
 11 12  1  0
 10 11  1  6
 12 16  1  0
 12 13  2  0
 13 14  1  0
 14 15  1  0
 16 15  2  0
 17 19  1  0
 17 10  1  0
 18 17  2  0
 20 19  1  0
 20 26  1  0
 20 21  1  6
 22 23  1  0
 22 21  1  0
 23 24  1  0
 24 25  1  0
 26 28  1  0
 27 26  2  0
M  END
$$$$
