MHK.pdb
     RDKit          3D

 28 28  0  0  1  0  0  0  0  0999 V2000
    7.8904  -11.7547   27.7926 C   0  0  0  0  0  0  0  0  0  0  0  0
    6.7675  -12.2889   26.4964 S   0  0  0  0  0  0  0  0  0  0  0  0
    7.0635  -14.0482   26.0670 C   0  0  0  0  0  0  0  0  0  0  0  0
    6.1309  -14.4182   24.9618 C   0  0  0  0  0  0  0  0  0  0  0  0
    6.2417  -15.8393   24.5398 C   0  0  2  0  0  0  0  0  0  0  0  0
    5.8121  -16.6741   25.6648 N   0  0  0  0  0  0  0  0  0  0  0  0
    7.5338  -16.2619   24.0065 C   0  0  0  0  0  0  0  0  0  0  0  0
    8.1800  -17.2407   24.4564 O   0  0  0  0  0  0  0  0  0  0  0  0
    8.1502  -15.5662   22.9146 N   0  0  0  0  0  0  0  0  0  0  0  0
    9.3138  -16.0408   22.2038 C   0  0  1  0  0  0  0  0  0  0  0  0
    9.6273  -15.2940   20.9452 C   0  0  0  0  0  0  0  0  0  0  0  0
    8.7805  -15.5571   19.7975 C   0  0  0  0  0  0  0  0  0  0  0  0
    7.7951  -16.4917   19.6318 C   0  0  0  0  0  0  0  0  0  0  0  0
    7.3307  -16.3100   18.3681 N   0  0  0  0  0  0  0  0  0  0  0  0
    8.0005  -15.3055   17.7766 C   0  0  0  0  0  0  0  0  0  0  0  0
    8.8859  -14.8423   18.6428 N   0  0  0  0  0  0  0  0  0  0  0  0
   10.5172  -15.8937   23.0764 C   0  0  0  0  0  0  0  0  0  0  0  0
   10.7476  -14.8122   23.6390 O   0  0  0  0  0  0  0  0  0  0  0  0
   11.3866  -16.9807   23.2590 N   0  0  0  0  0  0  0  0  0  0  0  0
   12.3767  -16.9988   24.4098 C   0  0  1  0  0  0  0  0  0  0  0  0
   12.0311  -18.2310   25.1489 C   0  0  0  0  0  0  0  0  0  0  0  0
   12.3425  -18.4423   26.5557 C   0  0  0  0  0  0  0  0  0  0  0  0
   11.9098  -19.6364   27.2978 C   0  0  0  0  0  0  0  0  0  0  0  0
   12.1716  -19.5543   28.7836 C   0  0  0  0  0  0  0  0  0  0  0  0
   11.6527  -20.7750   29.3755 N   0  0  0  0  0  0  0  0  0  0  0  0
   13.6691  -17.0921   23.6883 C   0  0  0  0  0  0  0  0  0  0  0  0
   14.8021  -16.9566   24.1901 O   0  0  0  0  0  0  0  0  0  0  0  0
   13.7141  -17.3590   22.2899 O   0  0  0  0  0  0  0  0  0  0  0  0
  1  2  1  0
  3  4  1  0
  3  2  1  0
  4  5  1  0
  5  6  1  1
  7  9  1  0
  7  5  1  0
  8  7  2  0
 10  9  1  0
 11 12  1  0
 10 11  1  6
 12 16  1  0
 12 13  2  0
 13 14  1  0
 14 15  1  0
 16 15  2  0
 17 19  1  0
 17 10  1  0
 18 17  2  0
 20 19  1  0
 20 26  1  0
 20 21  1  1
 22 23  1  0
 22 21  1  0
 23 24  1  0
 24 25  1  0
 26 28  1  0
 27 26  2  0
M  END
$$$$
