MHK.pdb
     RDKit          3D

 28 28  0  0  1  0  0  0  0  0999 V2000
    7.8986  -11.1355   26.8348 C   0  0  0  0  0  0  0  0  0  0  0  0
    6.2231  -11.7613   27.0013 S   0  0  0  0  0  0  0  0  0  0  0  0
    6.1726  -13.5690   26.6902 C   0  0  0  0  0  0  0  0  0  0  0  0
    6.2778  -13.7884   25.2174 C   0  0  0  0  0  0  0  0  0  0  0  0
    6.3326  -15.2230   24.8315 C   0  0  2  0  0  0  0  0  0  0  0  0
    6.5685  -16.0042   26.0485 N   0  0  0  0  0  0  0  0  0  0  0  0
    7.2656  -15.5758   23.7651 C   0  0  0  0  0  0  0  0  0  0  0  0
    6.9531  -16.2951   22.7837 O   0  0  0  0  0  0  0  0  0  0  0  0
    8.6218  -15.1099   23.7802 N   0  0  0  0  0  0  0  0  0  0  0  0
    9.6362  -15.5357   22.8454 C   0  0  1  0  0  0  0  0  0  0  0  0
    9.9346  -14.5553   21.7545 C   0  0  0  0  0  0  0  0  0  0  0  0
    8.8600  -14.2584   20.8268 C   0  0  0  0  0  0  0  0  0  0  0  0
    8.1466  -13.1039   20.6531 C   0  0  0  0  0  0  0  0  0  0  0  0
    7.2571  -13.3720   19.6619 N   0  0  0  0  0  0  0  0  0  0  0  0
    7.4132  -14.6391   19.2400 C   0  0  0  0  0  0  0  0  0  0  0  0
    8.3889  -15.1849   19.9463 N   0  0  0  0  0  0  0  0  0  0  0  0
   10.9237  -15.7386   23.5752 C   0  0  0  0  0  0  0  0  0  0  0  0
   11.0368  -15.3605   24.7514 O   0  0  0  0  0  0  0  0  0  0  0  0
   12.0049  -16.3578   22.9284 N   0  0  0  0  0  0  0  0  0  0  0  0
   12.8560  -17.3870   23.6504 C   0  0  1  0  0  0  0  0  0  0  0  0
   11.9635  -18.5591   23.7667 C   0  0  0  0  0  0  0  0  0  0  0  0
   11.9985  -19.4923   24.8842 C   0  0  0  0  0  0  0  0  0  0  0  0
   11.9181  -20.9505   24.7086 C   0  0  0  0  0  0  0  0  0  0  0  0
   11.9401  -21.7196   26.0089 C   0  0  0  0  0  0  0  0  0  0  0  0
   10.5603  -21.8744   26.4355 N   0  0  0  0  0  0  0  0  0  0  0  0
   13.9629  -17.5879   22.6839 C   0  0  0  0  0  0  0  0  0  0  0  0
   13.8919  -17.4521   21.4469 O   0  0  0  0  0  0  0  0  0  0  0  0
   15.2625  -17.9721   23.1223 O   0  0  0  0  0  0  0  0  0  0  0  0
  1  2  1  0
  3  4  1  0
  3  2  1  0
  4  5  1  0
  5  6  1  1
  7  9  1  0
  7  5  1  0
  8  7  2  0
 10  9  1  0
 11 12  1  0
 10 11  1  6
 12 16  1  0
 12 13  2  0
 13 14  1  0
 14 15  1  0
 16 15  2  0
 17 19  1  0
 17 10  1  0
 18 17  2  0
 20 19  1  0
 20 26  1  0
 20 21  1  6
 22 23  1  0
 22 21  1  0
 23 24  1  0
 24 25  1  0
 26 28  1  0
 27 26  2  0
M  END
$$$$
