MHK.pdb
     RDKit          3D

 28 28  0  0  1  0  0  0  0  0999 V2000
    9.2797  -12.5750   19.6063 C   0  0  0  0  0  0  0  0  0  0  0  0
    7.5264  -12.9205   19.7876 S   0  0  0  0  0  0  0  0  0  0  0  0
    7.1548  -14.6536   19.3128 C   0  0  0  0  0  0  0  0  0  0  0  0
    8.1408  -15.5422   19.9957 C   0  0  0  0  0  0  0  0  0  0  0  0
    7.5127  -16.6511   20.7611 C   0  0  2  0  0  0  0  0  0  0  0  0
    6.0759  -16.3768   20.8469 N   0  0  0  0  0  0  0  0  0  0  0  0
    8.0917  -16.9510   22.0677 C   0  0  0  0  0  0  0  0  0  0  0  0
    9.3118  -16.8103   22.3313 O   0  0  0  0  0  0  0  0  0  0  0  0
    7.2801  -17.4341   23.1468 N   0  0  0  0  0  0  0  0  0  0  0  0
    6.9342  -18.8219   23.3432 C   0  0  1  0  0  0  0  0  0  0  0  0
    6.2417  -19.4655   22.1828 C   0  0  0  0  0  0  0  0  0  0  0  0
    4.8987  -19.0072   21.8833 C   0  0  0  0  0  0  0  0  0  0  0  0
    4.0750  -18.1815   22.5985 C   0  0  0  0  0  0  0  0  0  0  0  0
    2.9315  -18.0896   21.8708 N   0  0  0  0  0  0  0  0  0  0  0  0
    3.0428  -18.8275   20.7523 C   0  0  0  0  0  0  0  0  0  0  0  0
    4.2398  -19.3894   20.7540 N   0  0  0  0  0  0  0  0  0  0  0  0
    8.1816  -19.6133   23.5644 C   0  0  0  0  0  0  0  0  0  0  0  0
    8.1153  -20.8387   23.7460 O   0  0  0  0  0  0  0  0  0  0  0  0
    9.4286  -18.9685   23.5662 N   0  0  0  0  0  0  0  0  0  0  0  0
   10.7105  -19.7568   23.7665 C   0  0  1  0  0  0  0  0  0  0  0  0
   11.6773  -19.0845   22.8736 C   0  0  0  0  0  0  0  0  0  0  0  0
   11.5933  -19.1201   21.4202 C   0  0  0  0  0  0  0  0  0  0  0  0
   12.5330  -18.3979   20.5489 C   0  0  0  0  0  0  0  0  0  0  0  0
   12.1653  -18.4519   19.0845 C   0  0  0  0  0  0  0  0  0  0  0  0
   13.1279  -17.6293   18.3730 N   0  0  0  0  0  0  0  0  0  0  0  0
   10.9818  -19.5222   25.2055 C   0  0  0  0  0  0  0  0  0  0  0  0
   10.4709  -18.6330   25.9141 O   0  0  0  0  0  0  0  0  0  0  0  0
   11.8975  -20.3420   25.9253 O   0  0  0  0  0  0  0  0  0  0  0  0
  1  2  1  0
  3  4  1  0
  3  2  1  0
  4  5  1  0
  5  6  1  1
  7  9  1  0
  7  5  1  0
  8  7  2  0
 10  9  1  0
 11 12  1  0
 10 11  1  6
 12 16  1  0
 12 13  2  0
 13 14  1  0
 14 15  1  0
 16 15  2  0
 17 19  1  0
 17 10  1  0
 18 17  2  0
 20 19  1  0
 20 26  1  0
 20 21  1  6
 22 23  1  0
 22 21  1  0
 23 24  1  0
 24 25  1  0
 26 28  1  0
 27 26  2  0
M  END
$$$$
