MHK.pdb
     RDKit          3D

 28 28  0  0  1  0  0  0  0  0999 V2000
    7.5818  -11.4042   26.3662 C   0  0  0  0  0  0  0  0  0  0  0  0
    6.1824  -12.5218   26.5041 S   0  0  0  0  0  0  0  0  0  0  0  0
    5.8272  -13.3180   24.8895 C   0  0  0  0  0  0  0  0  0  0  0  0
    6.5350  -14.6318   24.8555 C   0  0  0  0  0  0  0  0  0  0  0  0
    7.9303  -14.5436   24.3500 C   0  0  2  0  0  0  0  0  0  0  0  0
    7.8966  -13.8375   23.0665 N   0  0  0  0  0  0  0  0  0  0  0  0
    8.6734  -15.7978   24.2655 C   0  0  0  0  0  0  0  0  0  0  0  0
    8.6707  -16.6649   25.1744 O   0  0  0  0  0  0  0  0  0  0  0  0
    9.4657  -16.1156   23.1133 N   0  0  0  0  0  0  0  0  0  0  0  0
   10.1650  -17.3651   22.9293 C   0  0  1  0  0  0  0  0  0  0  0  0
   10.6961  -17.5887   21.5479 C   0  0  0  0  0  0  0  0  0  0  0  0
    9.7202  -17.7326   20.4847 C   0  0  0  0  0  0  0  0  0  0  0  0
    8.4952  -18.3417   20.4966 C   0  0  0  0  0  0  0  0  0  0  0  0
    8.0041  -18.1950   19.2384 N   0  0  0  0  0  0  0  0  0  0  0  0
    8.8881  -17.5235   18.4798 C   0  0  0  0  0  0  0  0  0  0  0  0
    9.9365  -17.2387   19.2338 N   0  0  0  0  0  0  0  0  0  0  0  0
   11.3528  -17.4021   23.8344 C   0  0  0  0  0  0  0  0  0  0  0  0
   12.0269  -16.3766   24.0159 O   0  0  0  0  0  0  0  0  0  0  0  0
   11.7046  -18.5984   24.4790 N   0  0  0  0  0  0  0  0  0  0  0  0
   12.6905  -18.5979   25.6336 C   0  0  1  0  0  0  0  0  0  0  0  0
   11.9548  -19.2751   26.7217 C   0  0  0  0  0  0  0  0  0  0  0  0
   12.5608  -19.6573   27.9896 C   0  0  0  0  0  0  0  0  0  0  0  0
   11.8199  -20.3609   29.0478 C   0  0  0  0  0  0  0  0  0  0  0  0
   12.6800  -20.7682   30.2213 C   0  0  0  0  0  0  0  0  0  0  0  0
   11.8385  -21.5411   31.1181 N   0  0  0  0  0  0  0  0  0  0  0  0
   13.7976  -19.4143   25.0793 C   0  0  0  0  0  0  0  0  0  0  0  0
   13.6884  -20.3218   24.2318 O   0  0  0  0  0  0  0  0  0  0  0  0
   15.1438  -19.2102   25.4975 O   0  0  0  0  0  0  0  0  0  0  0  0
  1  2  1  0
  3  4  1  0
  3  2  1  0
  4  5  1  0
  5  6  1  6
  7  9  1  0
  7  5  1  0
  8  7  2  0
 10  9  1  0
 11 12  1  0
 10 11  1  6
 12 16  1  0
 12 13  2  0
 13 14  1  0
 14 15  1  0
 16 15  2  0
 17 19  1  0
 17 10  1  0
 18 17  2  0
 20 19  1  0
 20 26  1  0
 20 21  1  1
 22 23  1  0
 22 21  1  0
 23 24  1  0
 24 25  1  0
 26 28  1  0
 27 26  2  0
M  END
$$$$
