MHK.pdb
     RDKit          3D

 28 28  0  0  1  0  0  0  0  0999 V2000
    6.6220  -10.6441   27.7942 C   0  0  0  0  0  0  0  0  0  0  0  0
    6.9463  -11.7070   26.3830 S   0  0  0  0  0  0  0  0  0  0  0  0
    5.8108  -13.1484   26.3828 C   0  0  0  0  0  0  0  0  0  0  0  0
    6.0807  -13.9501   25.1529 C   0  0  0  0  0  0  0  0  0  0  0  0
    7.0627  -15.0467   25.3606 C   0  0  2  0  0  0  0  0  0  0  0  0
    8.0748  -14.5670   26.3053 N   0  0  0  0  0  0  0  0  0  0  0  0
    7.6633  -15.6199   24.1593 C   0  0  0  0  0  0  0  0  0  0  0  0
    7.0003  -16.2063   23.2679 O   0  0  0  0  0  0  0  0  0  0  0  0
    9.0762  -15.5431   23.9259 N   0  0  0  0  0  0  0  0  0  0  0  0
    9.7451  -16.1408   22.7948 C   0  0  1  0  0  0  0  0  0  0  0  0
   10.1244  -15.1802   21.7115 C   0  0  0  0  0  0  0  0  0  0  0  0
    9.0431  -14.6134   20.9285 C   0  0  0  0  0  0  0  0  0  0  0  0
    7.6966  -14.8461   20.9970 C   0  0  0  0  0  0  0  0  0  0  0  0
    7.1432  -14.0634   20.0343 N   0  0  0  0  0  0  0  0  0  0  0  0
    8.1065  -13.3754   19.3969 C   0  0  0  0  0  0  0  0  0  0  0  0
    9.2672  -13.7063   19.9374 N   0  0  0  0  0  0  0  0  0  0  0  0
   11.0226  -16.7653   23.2524 C   0  0  0  0  0  0  0  0  0  0  0  0
   11.6931  -16.2244   24.1452 O   0  0  0  0  0  0  0  0  0  0  0  0
   11.4629  -17.9649   22.6711 N   0  0  0  0  0  0  0  0  0  0  0  0
   12.5495  -18.7950   23.3309 C   0  0  1  0  0  0  0  0  0  0  0  0
   12.1959  -20.1838   22.9702 C   0  0  0  0  0  0  0  0  0  0  0  0
   11.7607  -21.1826   23.9366 C   0  0  0  0  0  0  0  0  0  0  0  0
   11.2695  -22.5121   23.5432 C   0  0  0  0  0  0  0  0  0  0  0  0
   10.7082  -23.3154   24.6932 C   0  0  0  0  0  0  0  0  0  0  0  0
   10.3552  -24.6225   24.1674 N   0  0  0  0  0  0  0  0  0  0  0  0
   13.7635  -18.3010   22.6368 C   0  0  0  0  0  0  0  0  0  0  0  0
   14.9433  -18.5413   22.9594 O   0  0  0  0  0  0  0  0  0  0  0  0
   13.6658  -17.4689   21.4849 O   0  0  0  0  0  0  0  0  0  0  0  0
  1  2  1  0
  3  4  1  0
  3  2  1  0
  4  5  1  0
  5  6  1  1
  7  9  1  0
  7  5  1  0
  8  7  2  0
 10  9  1  0
 11 12  1  0
 10 11  1  6
 12 16  1  0
 12 13  2  0
 13 14  1  0
 14 15  1  0
 16 15  2  0
 17 19  1  0
 17 10  1  0
 18 17  2  0
 20 19  1  0
 20 26  1  0
 20 21  1  6
 22 23  1  0
 22 21  1  0
 23 24  1  0
 24 25  1  0
 26 28  1  0
 27 26  2  0
M  END
$$$$
