MHK.pdb
     RDKit          3D

 28 28  0  0  1  0  0  0  0  0999 V2000
    5.9704  -11.1970   26.5617 C   0  0  0  0  0  0  0  0  0  0  0  0
    6.7357  -12.1025   27.9112 S   0  0  0  0  0  0  0  0  0  0  0  0
    6.6118  -13.9115   27.6304 C   0  0  0  0  0  0  0  0  0  0  0  0
    6.3382  -14.1373   26.1804 C   0  0  0  0  0  0  0  0  0  0  0  0
    7.2339  -15.1459   25.5554 C   0  0  2  0  0  0  0  0  0  0  0  0
    8.5644  -14.9908   26.1495 N   0  0  0  0  0  0  0  0  0  0  0  0
    7.2840  -15.1577   24.0961 C   0  0  0  0  0  0  0  0  0  0  0  0
    6.2834  -15.3875   23.3724 O   0  0  0  0  0  0  0  0  0  0  0  0
    8.5073  -14.9019   23.3926 N   0  0  0  0  0  0  0  0  0  0  0  0
    8.6541  -14.9976   21.9597 C   0  0  1  0  0  0  0  0  0  0  0  0
    8.7600  -13.6833   21.2513 C   0  0  0  0  0  0  0  0  0  0  0  0
    8.5395  -13.6906   19.8178 C   0  0  0  0  0  0  0  0  0  0  0  0
    7.4545  -13.2734   19.0963 C   0  0  0  0  0  0  0  0  0  0  0  0
    7.7687  -13.5125   17.7964 N   0  0  0  0  0  0  0  0  0  0  0  0
    8.9964  -14.0549   17.7168 C   0  0  0  0  0  0  0  0  0  0  0  0
    9.4716  -14.1661   18.9458 N   0  0  0  0  0  0  0  0  0  0  0  0
    9.9139  -15.7350   21.6424 C   0  0  0  0  0  0  0  0  0  0  0  0
   10.9983  -15.3333   22.0917 O   0  0  0  0  0  0  0  0  0  0  0  0
    9.8687  -16.8829   20.8356 N   0  0  0  0  0  0  0  0  0  0  0  0
   11.1208  -17.7026   20.5800 C   0  0  1  0  0  0  0  0  0  0  0  0
   10.8337  -18.9940   21.2385 C   0  0  0  0  0  0  0  0  0  0  0  0
   11.5262  -19.4636   22.4305 C   0  0  0  0  0  0  0  0  0  0  0  0
   11.2295  -20.7553   23.0686 C   0  0  0  0  0  0  0  0  0  0  0  0
   12.1270  -21.0718   24.2420 C   0  0  0  0  0  0  0  0  0  0  0  0
   11.5840  -22.2546   24.8867 N   0  0  0  0  0  0  0  0  0  0  0  0
   11.1227  -17.7883   19.0994 C   0  0  0  0  0  0  0  0  0  0  0  0
   10.1178  -17.7830   18.3618 O   0  0  0  0  0  0  0  0  0  0  0  0
   12.3415  -17.8883   18.3692 O   0  0  0  0  0  0  0  0  0  0  0  0
  1  2  1  0
  3  4  1  0
  3  2  1  0
  4  5  1  0
  5  6  1  1
  7  9  1  0
  7  5  1  0
  8  7  2  0
 10  9  1  0
 11 12  1  0
 10 11  1  6
 12 16  1  0
 12 13  2  0
 13 14  1  0
 14 15  1  0
 16 15  2  0
 17 19  1  0
 17 10  1  0
 18 17  2  0
 20 19  1  0
 20 26  1  0
 20 21  1  1
 22 23  1  0
 22 21  1  0
 23 24  1  0
 24 25  1  0
 26 28  1  0
 27 26  2  0
M  END
$$$$
