MHK.pdb
     RDKit          3D

 28 28  0  0  1  0  0  0  0  0999 V2000
    6.7792  -10.6867   27.2080 C   0  0  0  0  0  0  0  0  0  0  0  0
    6.5582  -12.3361   27.8840 S   0  0  0  0  0  0  0  0  0  0  0  0
    5.1931  -13.2110   27.0252 C   0  0  0  0  0  0  0  0  0  0  0  0
    5.7806  -14.3559   26.2686 C   0  0  0  0  0  0  0  0  0  0  0  0
    6.9874  -13.9922   25.4804 C   0  0  2  0  0  0  0  0  0  0  0  0
    6.9112  -12.5595   25.1826 N   0  0  0  0  0  0  0  0  0  0  0  0
    7.2480  -14.7870   24.2834 C   0  0  0  0  0  0  0  0  0  0  0  0
    7.1543  -16.0393   24.2519 O   0  0  0  0  0  0  0  0  0  0  0  0
    7.6345  -14.1670   23.0495 N   0  0  0  0  0  0  0  0  0  0  0  0
    8.0853  -14.8906   21.8844 C   0  0  1  0  0  0  0  0  0  0  0  0
    8.0881  -14.0965   20.6157 C   0  0  0  0  0  0  0  0  0  0  0  0
    8.3386  -14.8242   19.3864 C   0  0  0  0  0  0  0  0  0  0  0  0
    8.6410  -16.1449   19.1964 C   0  0  0  0  0  0  0  0  0  0  0  0
    8.7837  -16.2956   17.8538 N   0  0  0  0  0  0  0  0  0  0  0  0
    8.5785  -15.1177   17.2388 C   0  0  0  0  0  0  0  0  0  0  0  0
    8.3067  -14.2166   18.1677 N   0  0  0  0  0  0  0  0  0  0  0  0
    9.4975  -15.3301   22.0942 C   0  0  0  0  0  0  0  0  0  0  0  0
   10.3623  -14.5038   22.4235 O   0  0  0  0  0  0  0  0  0  0  0  0
    9.8441  -16.6790   21.9183 N   0  0  0  0  0  0  0  0  0  0  0  0
   11.2017  -17.1961   22.3594 C   0  0  1  0  0  0  0  0  0  0  0  0
   10.8721  -18.2498   23.3417 C   0  0  0  0  0  0  0  0  0  0  0  0
   11.6861  -18.5445   24.5127 C   0  0  0  0  0  0  0  0  0  0  0  0
   11.3567  -19.6174   25.4636 C   0  0  0  0  0  0  0  0  0  0  0  0
   12.3677  -19.7729   26.5756 C   0  0  0  0  0  0  0  0  0  0  0  0
   11.8484  -20.7788   27.4856 N   0  0  0  0  0  0  0  0  0  0  0  0
   11.7437  -17.7311   21.0868 C   0  0  0  0  0  0  0  0  0  0  0  0
   12.9444  -17.7581   20.7532 O   0  0  0  0  0  0  0  0  0  0  0  0
   10.8840  -18.2855   20.0956 O   0  0  0  0  0  0  0  0  0  0  0  0
  1  2  1  0
  3  4  1  0
  3  2  1  0
  4  5  1  0
  5  6  1  6
  7  9  1  0
  7  5  1  0
  8  7  2  0
 10  9  1  0
 11 12  1  0
 10 11  1  6
 12 16  1  0
 12 13  2  0
 13 14  1  0
 14 15  1  0
 16 15  2  0
 17 19  1  0
 17 10  1  0
 18 17  2  0
 20 19  1  0
 20 26  1  0
 20 21  1  1
 22 23  1  0
 22 21  1  0
 23 24  1  0
 24 25  1  0
 26 28  1  0
 27 26  2  0
M  END
$$$$
