MHK.pdb
     RDKit          3D

 28 28  0  0  1  0  0  0  0  0999 V2000
    8.3959  -11.9646   27.4948 C   0  0  0  0  0  0  0  0  0  0  0  0
    6.6279  -12.2818   27.4985 S   0  0  0  0  0  0  0  0  0  0  0  0
    6.2539  -13.8768   26.6720 C   0  0  0  0  0  0  0  0  0  0  0  0
    6.7805  -13.8099   25.2769 C   0  0  0  0  0  0  0  0  0  0  0  0
    6.5334  -15.0451   24.4873 C   0  0  2  0  0  0  0  0  0  0  0  0
    5.7517  -15.9604   25.3229 N   0  0  0  0  0  0  0  0  0  0  0  0
    7.7068  -15.6963   23.9116 C   0  0  0  0  0  0  0  0  0  0  0  0
    8.2060  -16.7529   24.3722 O   0  0  0  0  0  0  0  0  0  0  0  0
    8.3693  -15.1522   22.7620 N   0  0  0  0  0  0  0  0  0  0  0  0
    9.4868  -15.7795   22.0973 C   0  0  1  0  0  0  0  0  0  0  0  0
    9.9298  -15.0999   20.8394 C   0  0  0  0  0  0  0  0  0  0  0  0
    8.9074  -14.8198   19.8495 C   0  0  0  0  0  0  0  0  0  0  0  0
    8.0484  -15.6727   19.2119 C   0  0  0  0  0  0  0  0  0  0  0  0
    7.3103  -14.8912   18.3811 N   0  0  0  0  0  0  0  0  0  0  0  0
    7.6963  -13.6088   18.4995 C   0  0  0  0  0  0  0  0  0  0  0  0
    8.6697  -13.5586   19.3933 N   0  0  0  0  0  0  0  0  0  0  0  0
   10.6712  -15.7661   23.0074 C   0  0  0  0  0  0  0  0  0  0  0  0
   10.8579  -14.8048   23.7691 O   0  0  0  0  0  0  0  0  0  0  0  0
   11.5721  -16.8426   22.9996 N   0  0  0  0  0  0  0  0  0  0  0  0
   12.2585  -17.2905   24.2775 C   0  0  1  0  0  0  0  0  0  0  0  0
   11.1521  -17.8215   25.1009 C   0  0  0  0  0  0  0  0  0  0  0  0
   11.3514  -18.5754   26.3308 C   0  0  0  0  0  0  0  0  0  0  0  0
   11.5881  -17.9312   27.6319 C   0  0  0  0  0  0  0  0  0  0  0  0
   11.7379  -18.9091   28.7739 C   0  0  0  0  0  0  0  0  0  0  0  0
   12.0969  -18.1375   29.9509 N   0  0  0  0  0  0  0  0  0  0  0  0
   13.1698  -18.3455   23.7714 C   0  0  0  0  0  0  0  0  0  0  0  0
   12.9495  -19.1072   22.8096 O   0  0  0  0  0  0  0  0  0  0  0  0
   14.4358  -18.5794   24.3807 O   0  0  0  0  0  0  0  0  0  0  0  0
  1  2  1  0
  3  4  1  0
  3  2  1  0
  4  5  1  0
  5  6  1  1
  7  9  1  0
  7  5  1  0
  8  7  2  0
 10  9  1  0
 11 12  1  0
 10 11  1  6
 12 16  1  0
 12 13  2  0
 13 14  1  0
 14 15  1  0
 16 15  2  0
 17 19  1  0
 17 10  1  0
 18 17  2  0
 20 19  1  0
 20 26  1  0
 20 21  1  1
 22 23  1  0
 22 21  1  0
 23 24  1  0
 24 25  1  0
 26 28  1  0
 27 26  2  0
M  END
$$$$
