MHK.pdb
     RDKit          3D

 28 28  0  0  1  0  0  0  0  0999 V2000
    8.3951  -11.0500   18.8189 C   0  0  0  0  0  0  0  0  0  0  0  0
    8.3112  -12.5180   19.8506 S   0  0  0  0  0  0  0  0  0  0  0  0
    7.0007  -13.6554   19.2540 C   0  0  0  0  0  0  0  0  0  0  0  0
    6.9257  -14.8103   20.1969 C   0  0  0  0  0  0  0  0  0  0  0  0
    8.2481  -15.2296   20.7311 C   0  0  2  0  0  0  0  0  0  0  0  0
    9.0645  -15.6790   19.6004 N   0  0  0  0  0  0  0  0  0  0  0  0
    8.2325  -16.2057   21.8171 C   0  0  0  0  0  0  0  0  0  0  0  0
    7.4663  -16.1231   22.8091 O   0  0  0  0  0  0  0  0  0  0  0  0
    9.1119  -17.3385   21.8106 N   0  0  0  0  0  0  0  0  0  0  0  0
    9.1487  -18.3427   22.8471 C   0  0  1  0  0  0  0  0  0  0  0  0
    9.7324  -19.6555   22.4274 C   0  0  0  0  0  0  0  0  0  0  0  0
    8.9654  -20.4423   21.4807 C   0  0  0  0  0  0  0  0  0  0  0  0
    7.7067  -20.2350   20.9862 C   0  0  0  0  0  0  0  0  0  0  0  0
    7.4713  -21.2747   20.1440 N   0  0  0  0  0  0  0  0  0  0  0  0
    8.5393  -22.0912   20.1186 C   0  0  0  0  0  0  0  0  0  0  0  0
    9.4536  -21.5892   20.9315 N   0  0  0  0  0  0  0  0  0  0  0  0
   10.0027  -17.8572   23.9724 C   0  0  0  0  0  0  0  0  0  0  0  0
   11.1584  -17.4648   23.7500 O   0  0  0  0  0  0  0  0  0  0  0  0
    9.4956  -17.8455   25.2814 N   0  0  0  0  0  0  0  0  0  0  0  0
   10.2980  -17.2417   26.4200 C   0  0  1  0  0  0  0  0  0  0  0  0
    9.2734  -16.5909   27.2630 C   0  0  0  0  0  0  0  0  0  0  0  0
    9.5600  -15.9770   28.5521 C   0  0  0  0  0  0  0  0  0  0  0  0
   10.2468  -14.6830   28.6842 C   0  0  0  0  0  0  0  0  0  0  0  0
   10.5492  -14.3007   30.1143 C   0  0  0  0  0  0  0  0  0  0  0  0
   11.3011  -13.0587   30.0732 N   0  0  0  0  0  0  0  0  0  0  0  0
   10.8862  -18.4520   27.0434 C   0  0  0  0  0  0  0  0  0  0  0  0
   12.0057  -18.5286   27.5863 O   0  0  0  0  0  0  0  0  0  0  0  0
   10.1756  -19.6861   27.0699 O   0  0  0  0  0  0  0  0  0  0  0  0
  1  2  1  0
  3  4  1  0
  3  2  1  0
  4  5  1  0
  5  6  1  6
  7  9  1  0
  7  5  1  0
  8  7  2  0
 10  9  1  0
 11 12  1  0
 10 11  1  6
 12 16  1  0
 12 13  2  0
 13 14  1  0
 14 15  1  0
 16 15  2  0
 17 19  1  0
 17 10  1  0
 18 17  2  0
 20 19  1  0
 20 26  1  0
 20 21  1  1
 22 23  1  0
 22 21  1  0
 23 24  1  0
 24 25  1  0
 26 28  1  0
 27 26  2  0
M  END
$$$$
