RIW.pdb
     RDKit          3D

 34 35  0  0  1  0  0  0  0  0999 V2000
   19.5377  -18.6789  -13.9858 N   0  0  0  0  0  0  0  0  0  0  0  0
   18.7114  -19.5843  -14.7325 C   0  0  0  0  0  0  0  0  0  0  0  0
   17.9052  -19.0822  -15.5767 N   0  0  0  0  0  0  0  0  0  0  0  0
   18.8661  -20.9533  -14.4645 N   0  0  0  0  0  0  0  0  0  0  0  0
   19.8279  -21.3450  -13.4245 C   0  0  0  0  0  0  0  0  0  0  0  0
   20.8608  -22.1985  -14.0936 C   0  0  0  0  0  0  0  0  0  0  0  0
   22.2418  -21.8351  -13.6825 C   0  0  0  0  0  0  0  0  0  0  0  0
   23.1170  -21.1683  -14.6735 C   0  0  2  0  0  0  0  0  0  0  0  0
   22.9031  -21.6525  -15.9926 N   0  0  0  0  0  0  0  0  0  0  0  0
   24.5527  -21.2860  -14.2550 C   0  0  0  0  0  0  0  0  0  0  0  0
   25.0914  -22.4134  -14.3204 O   0  0  0  0  0  0  0  0  0  0  0  0
   17.2284  -19.5861  -16.1792 C   0  0  0  0  0  0  0  0  0  0  0  0
   28.3541  -17.8552  -15.7347 C   0  0  0  0  0  0  0  0  0  0  0  0
   27.5749  -19.1286  -15.3587 C   0  0  2  0  0  0  0  0  0  0  0  0
   27.4753  -19.1585  -13.8793 C   0  0  0  0  0  0  0  0  0  0  0  0
   28.9010  -19.2217  -13.3226 C   0  0  2  0  0  0  0  0  0  0  0  0
   26.6773  -20.3066  -13.2980 N   0  0  0  0  0  0  0  0  0  0  0  0
   25.2854  -20.1720  -13.8002 C   0  0  0  0  0  0  0  0  0  0  0  0
   26.6110  -20.3081  -11.8244 O   0  0  0  0  0  0  0  0  0  0  0  0
   26.4227  -19.2058  -11.2323 N   0  0  0  0  0  0  0  0  0  0  0  0
   26.7452  -21.4910  -11.0429 C   0  0  2  0  0  0  0  0  0  0  0  0
   26.6042  -21.4650   -9.5882 C   0  0  0  0  0  0  0  0  0  0  0  0
   27.8820  -21.0267   -8.9445 C   0  0  0  0  0  0  0  0  0  0  0  0
   27.6647  -20.1857   -7.7593 C   0  0  0  0  0  0  0  0  0  0  0  0
   26.6915  -19.1906   -7.5981 N   0  0  0  0  0  0  0  0  0  0  0  0
   26.8280  -18.6189   -6.3924 C   0  0  0  0  0  0  0  0  0  0  0  0
   27.8649  -19.1873   -5.7125 C   0  0  0  0  0  0  0  0  0  0  0  0
   28.3768  -18.9568   -4.4548 C   0  0  0  0  0  0  0  0  0  0  0  0
   29.4365  -19.6943   -3.9857 C   0  0  0  0  0  0  0  0  0  0  0  0
   29.9463  -20.6570   -4.8283 C   0  0  0  0  0  0  0  0  0  0  0  0
   29.4377  -20.8883   -6.0834 C   0  0  0  0  0  0  0  0  0  0  0  0
   28.3747  -20.1503   -6.5592 C   0  0  0  0  0  0  0  0  0  0  0  0
   25.3741  -20.8266   -9.1653 O   0  0  0  0  0  0  0  0  0  0  0  0
   24.7866  -21.2145   -8.1220 O   0  0  0  0  0  0  0  0  0  0  0  0
  1  2  1  0
  2  3  2  0
  4  5  1  0
  4  2  1  0
  6  5  1  0
  7  6  1  0
  8  7  1  0
  8  9  1  6
 10  8  1  0
 11 10  2  0
 12 13  1  0
 13 14  1  0
 14 16  1  0
 14 15  1  1
 16 18  1  0
 16 17  1  6
 17 10  1  0
 18 20  1  0
 19 18  2  0
 21 20  1  0
 21 32  1  0
 21 22  1  6
 23 22  1  0
 23 24  2  0
 25 24  1  0
 26 25  1  0
 27 26  2  0
 28 29  2  0
 28 27  1  0
 29 30  1  0
 30 31  2  0
 31 26  1  0
 31 23  1  0
 32 33  2  0
 32 34  1  0
M  END
$$$$
