RIW.pdb
     RDKit          3D

 34 35  0  0  1  0  0  0  0  0999 V2000
   30.0553  -18.1648  -18.0704 N   0  0  0  0  0  0  0  0  0  0  0  0
   29.0503  -17.1407  -18.0337 C   0  0  0  0  0  0  0  0  0  0  0  0
   28.9493  -16.3813  -19.0475 N   0  0  0  0  0  0  0  0  0  0  0  0
   28.2615  -17.0663  -16.8751 N   0  0  0  0  0  0  0  0  0  0  0  0
   28.4559  -18.0961  -15.8447 C   0  0  0  0  0  0  0  0  0  0  0  0
   27.5374  -19.2278  -16.1891 C   0  0  0  0  0  0  0  0  0  0  0  0
   26.8770  -19.8008  -14.9876 C   0  0  0  0  0  0  0  0  0  0  0  0
   27.5893  -20.8555  -14.2306 C   0  0  2  0  0  0  0  0  0  0  0  0
   28.0470  -21.9059  -15.0718 N   0  0  0  0  0  0  0  0  0  0  0  0
   26.7244  -21.3624  -13.1147 C   0  0  0  0  0  0  0  0  0  0  0  0
   25.8187  -22.1774  -13.3994 O   0  0  0  0  0  0  0  0  0  0  0  0
   28.2763  -15.6056  -19.1897 C   0  0  0  0  0  0  0  0  0  0  0  0
   28.0832  -19.8834   -7.9059 C   0  0  0  0  0  0  0  0  0  0  0  0
   27.5990  -20.8816   -8.9733 C   0  0  2  0  0  0  0  0  0  0  0  0
   26.3236  -20.3549   -9.5168 C   0  0  0  0  0  0  0  0  0  0  0  0
   25.2599  -20.5062   -8.4249 C   0  0  2  0  0  0  0  0  0  0  0  0
   25.8210  -21.0249  -10.7782 N   0  0  0  0  0  0  0  0  0  0  0  0
   26.9128  -20.9439  -11.7828 C   0  0  0  0  0  0  0  0  0  0  0  0
   24.6345  -20.3792  -11.3708 O   0  0  0  0  0  0  0  0  0  0  0  0
   24.8085  -19.3578  -12.0970 N   0  0  0  0  0  0  0  0  0  0  0  0
   23.3081  -20.8553  -11.1653 C   0  0  1  0  0  0  0  0  0  0  0  0
   22.1878  -20.3631  -11.9649 C   0  0  0  0  0  0  0  0  0  0  0  0
   22.5394  -20.3664  -13.4194 C   0  0  0  0  0  0  0  0  0  0  0  0
   21.4400  -19.8955  -14.2732 C   0  0  0  0  0  0  0  0  0  0  0  0
   20.4471  -18.9668  -13.9342 N   0  0  0  0  0  0  0  0  0  0  0  0
   19.5999  -18.8179  -14.9635 C   0  0  0  0  0  0  0  0  0  0  0  0
   19.9752  -19.6138  -16.0056 C   0  0  0  0  0  0  0  0  0  0  0  0
   19.4422  -19.7961  -17.2625 C   0  0  0  0  0  0  0  0  0  0  0  0
   20.0322  -20.6594  -18.1533 C   0  0  0  0  0  0  0  0  0  0  0  0
   21.1635  -21.3181  -17.7255 C   0  0  0  0  0  0  0  0  0  0  0  0
   21.6967  -21.1383  -16.4721 C   0  0  0  0  0  0  0  0  0  0  0  0
   21.1079  -20.2735  -15.5741 C   0  0  0  0  0  0  0  0  0  0  0  0
   20.9259  -20.9538  -11.5674 O   0  0  0  0  0  0  0  0  0  0  0  0
   20.8828  -22.1492  -11.1758 O   0  0  0  0  0  0  0  0  0  0  0  0
  1  2  1  0
  2  3  2  0
  4  5  1  0
  4  2  1  0
  6  5  1  0
  7  6  1  0
  8  7  1  0
  8  9  1  6
 10  8  1  0
 11 10  2  0
 12 13  1  0
 13 14  1  0
 14 16  1  0
 14 15  1  6
 16 18  1  0
 16 17  1  1
 17 10  1  0
 18 20  1  0
 19 18  2  0
 21 20  1  0
 21 32  1  0
 21 22  1  1
 23 22  1  0
 23 24  2  0
 25 24  1  0
 26 25  1  0
 27 26  2  0
 28 29  2  0
 28 27  1  0
 29 30  1  0
 30 31  2  0
 31 26  1  0
 31 23  1  0
 32 33  2  0
 32 34  1  0
M  END
$$$$
