RIW.pdb
     RDKit          3D

 34 35  0  0  1  0  0  0  0  0999 V2000
   29.5600  -18.7602  -18.1274 N   0  0  0  0  0  0  0  0  0  0  0  0
   28.3326  -18.0264  -18.0041 C   0  0  0  0  0  0  0  0  0  0  0  0
   27.4313  -18.2403  -18.8740 N   0  0  0  0  0  0  0  0  0  0  0  0
   28.2331  -17.1315  -16.9274 N   0  0  0  0  0  0  0  0  0  0  0  0
   28.0573  -17.6939  -15.5811 C   0  0  0  0  0  0  0  0  0  0  0  0
   26.6897  -18.3031  -15.5447 C   0  0  0  0  0  0  0  0  0  0  0  0
   26.3479  -18.8364  -14.2004 C   0  0  0  0  0  0  0  0  0  0  0  0
   27.1296  -19.9811  -13.6794 C   0  0  2  0  0  0  0  0  0  0  0  0
   27.5779  -20.8433  -14.7166 N   0  0  0  0  0  0  0  0  0  0  0  0
   26.3374  -20.7151  -12.6383 C   0  0  0  0  0  0  0  0  0  0  0  0
   25.7226  -21.7467  -12.9894 O   0  0  0  0  0  0  0  0  0  0  0  0
   26.5323  -17.7365  -18.9876 C   0  0  0  0  0  0  0  0  0  0  0  0
   27.5715  -19.9039   -7.3938 C   0  0  0  0  0  0  0  0  0  0  0  0
   27.1885  -20.7590   -8.6154 C   0  0  2  0  0  0  0  0  0  0  0  0
   25.7786  -20.4399   -8.9469 C   0  0  0  0  0  0  0  0  0  0  0  0
   24.8925  -21.1339   -7.9079 C   0  0  2  0  0  0  0  0  0  0  0  0
   25.3192  -20.8541  -10.3290 N   0  0  0  0  0  0  0  0  0  0  0  0
   26.2772  -20.2700  -11.3030 C   0  0  0  0  0  0  0  0  0  0  0  0
   23.9762  -20.3619  -10.6894 O   0  0  0  0  0  0  0  0  0  0  0  0
   23.7546  -19.1183  -10.6160 N   0  0  0  0  0  0  0  0  0  0  0  0
   22.9242  -21.2207  -11.1180 C   0  0  1  0  0  0  0  0  0  0  0  0
   21.6714  -20.6869  -11.6493 C   0  0  0  0  0  0  0  0  0  0  0  0
   21.9419  -19.5838  -12.6235 C   0  0  0  0  0  0  0  0  0  0  0  0
   21.5771  -19.9379  -14.0022 C   0  0  0  0  0  0  0  0  0  0  0  0
   20.3937  -20.5547  -14.4296 N   0  0  0  0  0  0  0  0  0  0  0  0
   20.4396  -20.7452  -15.7566 C   0  0  0  0  0  0  0  0  0  0  0  0
   21.6174  -20.2790  -16.2624 C   0  0  0  0  0  0  0  0  0  0  0  0
   22.1145  -20.2358  -17.5461 C   0  0  0  0  0  0  0  0  0  0  0  0
   23.3468  -19.6847  -17.8001 C   0  0  0  0  0  0  0  0  0  0  0  0
   24.0414  -19.1884  -16.7194 C   0  0  0  0  0  0  0  0  0  0  0  0
   23.5478  -19.2308  -15.4380 C   0  0  0  0  0  0  0  0  0  0  0  0
   22.3119  -19.7837  -15.1777 C   0  0  0  0  0  0  0  0  0  0  0  0
   20.7499  -21.7334  -12.0432 O   0  0  0  0  0  0  0  0  0  0  0  0
   21.1874  -22.8466  -12.4352 O   0  0  0  0  0  0  0  0  0  0  0  0
  1  2  1  0
  2  3  2  0
  4  5  1  0
  4  2  1  0
  6  5  1  0
  7  6  1  0
  8  7  1  0
  8  9  1  6
 10  8  1  0
 11 10  2  0
 12 13  1  0
 13 14  1  0
 14 16  1  0
 14 15  1  6
 16 18  1  0
 16 17  1  6
 17 10  1  0
 18 20  1  0
 19 18  2  0
 21 20  1  0
 21 32  1  0
 21 22  1  1
 23 22  1  0
 23 24  2  0
 25 24  1  0
 26 25  1  0
 27 26  2  0
 28 29  2  0
 28 27  1  0
 29 30  1  0
 30 31  2  0
 31 26  1  0
 31 23  1  0
 32 33  2  0
 32 34  1  0
M  END
$$$$
