RIW.pdb
     RDKit          3D

 34 35  0  0  1  0  0  0  0  0999 V2000
   19.0086  -18.9543  -14.4169 N   0  0  0  0  0  0  0  0  0  0  0  0
   19.2452  -17.8944  -15.3553 C   0  0  0  0  0  0  0  0  0  0  0  0
   18.2334  -17.2649  -15.7967 N   0  0  0  0  0  0  0  0  0  0  0  0
   20.5808  -17.6431  -15.7061 N   0  0  0  0  0  0  0  0  0  0  0  0
   21.5431  -18.7467  -15.5799 C   0  0  0  0  0  0  0  0  0  0  0  0
   20.8178  -19.8759  -14.9153 C   0  0  0  0  0  0  0  0  0  0  0  0
   21.7125  -21.0274  -14.6294 C   0  0  0  0  0  0  0  0  0  0  0  0
   22.8457  -21.2812  -15.5482 C   0  0  2  0  0  0  0  0  0  0  0  0
   22.6010  -22.3819  -16.4135 N   0  0  0  0  0  0  0  0  0  0  0  0
   24.1152  -21.4489  -14.7668 C   0  0  0  0  0  0  0  0  0  0  0  0
   24.4292  -22.6032  -14.4001 O   0  0  0  0  0  0  0  0  0  0  0  0
   18.2257  -16.4764  -16.4699 C   0  0  0  0  0  0  0  0  0  0  0  0
   28.5908  -18.6885  -16.1286 C   0  0  0  0  0  0  0  0  0  0  0  0
   27.6179  -19.8092  -15.7191 C   0  0  2  0  0  0  0  0  0  0  0  0
   27.2102  -19.5430  -14.3182 C   0  0  0  0  0  0  0  0  0  0  0  0
   28.4797  -19.5428  -13.4609 C   0  0  2  0  0  0  0  0  0  0  0  0
   26.2245  -20.5264  -13.7232 N   0  0  0  0  0  0  0  0  0  0  0  0
   24.9390  -20.3516  -14.4476 C   0  0  0  0  0  0  0  0  0  0  0  0
   25.9502  -20.3108  -12.2900 O   0  0  0  0  0  0  0  0  0  0  0  0
   25.2398  -19.3174  -11.9590 N   0  0  0  0  0  0  0  0  0  0  0  0
   26.4444  -21.1701  -11.2676 C   0  0  2  0  0  0  0  0  0  0  0  0
   26.2783  -20.8464   -9.8518 C   0  0  0  0  0  0  0  0  0  0  0  0
   26.8957  -21.9064   -8.9948 C   0  0  0  0  0  0  0  0  0  0  0  0
   27.0059  -21.5078   -7.5848 C   0  0  0  0  0  0  0  0  0  0  0  0
   25.9752  -21.4685   -6.6364 N   0  0  0  0  0  0  0  0  0  0  0  0
   26.4567  -21.0214   -5.4670 C   0  0  0  0  0  0  0  0  0  0  0  0
   27.7890  -20.7505   -5.5750 C   0  0  0  0  0  0  0  0  0  0  0  0
   28.7121  -20.2936   -4.6605 C   0  0  0  0  0  0  0  0  0  0  0  0
   30.0258  -20.1186   -5.0215 C   0  0  0  0  0  0  0  0  0  0  0  0
   30.3591  -20.4203   -6.3233 C   0  0  0  0  0  0  0  0  0  0  0  0
   29.4401  -20.8757   -7.2373 C   0  0  0  0  0  0  0  0  0  0  0  0
   28.1202  -21.0523   -6.8802 C   0  0  0  0  0  0  0  0  0  0  0  0
   26.5983  -19.4634   -9.5618 O   0  0  0  0  0  0  0  0  0  0  0  0
   27.5787  -18.9098  -10.1245 O   0  0  0  0  0  0  0  0  0  0  0  0
  1  2  1  0
  2  3  2  0
  4  5  1  0
  4  2  1  0
  6  5  1  0
  7  6  1  0
  8  7  1  0
  8  9  1  1
 10  8  1  0
 11 10  2  0
 12 13  1  0
 13 14  1  0
 14 16  1  0
 14 15  1  1
 16 18  1  0
 16 17  1  1
 17 10  1  0
 18 20  1  0
 19 18  2  0
 21 20  1  0
 21 32  1  0
 21 22  1  6
 23 22  1  0
 23 24  2  0
 25 24  1  0
 26 25  1  0
 27 26  2  0
 28 29  2  0
 28 27  1  0
 29 30  1  0
 30 31  2  0
 31 26  1  0
 31 23  1  0
 32 33  2  0
 32 34  1  0
M  END
$$$$
