RIW.pdb
     RDKit          3D

 34 35  0  0  1  0  0  0  0  0999 V2000
   28.0164  -23.3898  -18.0793 N   0  0  0  0  0  0  0  0  0  0  0  0
   29.4219  -23.1909  -17.8669 C   0  0  0  0  0  0  0  0  0  0  0  0
   30.2126  -23.5570  -18.7919 N   0  0  0  0  0  0  0  0  0  0  0  0
   29.8037  -22.6059  -16.6495 N   0  0  0  0  0  0  0  0  0  0  0  0
   28.7436  -22.0787  -15.7788 C   0  0  0  0  0  0  0  0  0  0  0  0
   28.5728  -20.6342  -16.1355 C   0  0  0  0  0  0  0  0  0  0  0  0
   27.6261  -19.9389  -15.2253 C   0  0  0  0  0  0  0  0  0  0  0  0
   26.1745  -20.1528  -15.4252 C   0  0  2  0  0  0  0  0  0  0  0  0
   25.6789  -19.4553  -16.5601 N   0  0  0  0  0  0  0  0  0  0  0  0
   25.4246  -19.8010  -14.1746 C   0  0  0  0  0  0  0  0  0  0  0  0
   25.2519  -18.5890  -13.9165 O   0  0  0  0  0  0  0  0  0  0  0  0
   31.2472  -23.4905  -18.8001 C   0  0  0  0  0  0  0  0  0  0  0  0
   20.6492  -20.9760  -13.0363 C   0  0  0  0  0  0  0  0  0  0  0  0
   22.0227  -20.2825  -13.0884 C   0  0  2  0  0  0  0  0  0  0  0  0
   22.8691  -20.9114  -12.0456 C   0  0  0  0  0  0  0  0  0  0  0  0
   22.2184  -20.6244  -10.6889 C   0  0  2  0  0  0  0  0  0  0  0  0
   24.3092  -20.4456  -11.9999 N   0  0  0  0  0  0  0  0  0  0  0  0
   24.9240  -20.7920  -13.3075 C   0  0  0  0  0  0  0  0  0  0  0  0
   25.1187  -21.0951  -10.9517 O   0  0  0  0  0  0  0  0  0  0  0  0
   26.1264  -21.7730  -11.3071 N   0  0  0  0  0  0  0  0  0  0  0  0
   24.8194  -20.9900   -9.5634 C   0  0  1  0  0  0  0  0  0  0  0  0
   25.8471  -21.1905   -8.5435 C   0  0  0  0  0  0  0  0  0  0  0  0
   27.0936  -20.4432   -8.9000 C   0  0  0  0  0  0  0  0  0  0  0  0
   28.2030  -20.7092   -7.9738 C   0  0  0  0  0  0  0  0  0  0  0  0
   29.1599  -21.7278   -8.0743 N   0  0  0  0  0  0  0  0  0  0  0  0
   29.9912  -21.6695   -7.0232 C   0  0  0  0  0  0  0  0  0  0  0  0
   29.6409  -20.6417   -6.1978 C   0  0  0  0  0  0  0  0  0  0  0  0
   30.1890  -20.1778   -5.0225 C   0  0  0  0  0  0  0  0  0  0  0  0
   29.6493  -19.0893   -4.3815 C   0  0  0  0  0  0  0  0  0  0  0  0
   28.5518  -18.5014   -4.9701 C   0  0  0  0  0  0  0  0  0  0  0  0
   28.0030  -18.9626   -6.1421 C   0  0  0  0  0  0  0  0  0  0  0  0
   28.5404  -20.0553   -6.7888 C   0  0  0  0  0  0  0  0  0  0  0  0
   25.3255  -21.0441   -7.1997 O   0  0  0  0  0  0  0  0  0  0  0  0
   24.6857  -20.0087   -6.8790 O   0  0  0  0  0  0  0  0  0  0  0  0
  1  2  1  0
  2  3  2  0
  4  5  1  0
  4  2  1  0
  6  5  1  0
  7  6  1  0
  8  7  1  0
  8  9  1  6
 10  8  1  0
 11 10  2  0
 12 13  1  0
 13 14  1  0
 14 16  1  0
 14 15  1  6
 16 18  1  0
 16 17  1  1
 17 10  1  0
 18 20  1  0
 19 18  2  0
 21 20  1  0
 21 32  1  0
 21 22  1  1
 23 22  1  0
 23 24  2  0
 25 24  1  0
 26 25  1  0
 27 26  2  0
 28 29  2  0
 28 27  1  0
 29 30  1  0
 30 31  2  0
 31 26  1  0
 31 23  1  0
 32 33  2  0
 32 34  1  0
M  END
$$$$
