RIW.pdb
     RDKit          3D

 34 35  0  0  1  0  0  0  0  0999 V2000
   34.4140  -26.2249  -16.1540 N   0  0  0  0  0  0  0  0  0  0  0  0
   33.4829  -25.7888  -15.1526 C   0  0  0  0  0  0  0  0  0  0  0  0
   33.9516  -25.4664  -14.0163 N   0  0  0  0  0  0  0  0  0  0  0  0
   32.1278  -25.7558  -15.5168 N   0  0  0  0  0  0  0  0  0  0  0  0
   31.7914  -25.2884  -16.8689 C   0  0  0  0  0  0  0  0  0  0  0  0
   31.8289  -23.7918  -16.8284 C   0  0  0  0  0  0  0  0  0  0  0  0
   30.5126  -23.2066  -16.4636 C   0  0  0  0  0  0  0  0  0  0  0  0
   29.4559  -23.1545  -17.4996 C   0  0  2  0  0  0  0  0  0  0  0  0
   29.9529  -22.7058  -18.7534 N   0  0  0  0  0  0  0  0  0  0  0  0
   28.3034  -22.3231  -17.0192 C   0  0  0  0  0  0  0  0  0  0  0  0
   28.3389  -21.0914  -17.2366 O   0  0  0  0  0  0  0  0  0  0  0  0
   33.4193  -25.2347  -13.1573 C   0  0  0  0  0  0  0  0  0  0  0  0
   23.5539  -22.8853  -18.7107 C   0  0  0  0  0  0  0  0  0  0  0  0
   24.8262  -22.2508  -18.1201 C   0  0  2  0  0  0  0  0  0  0  0  0
   24.8391  -22.5664  -16.6711 C   0  0  0  0  0  0  0  0  0  0  0  0
   23.5826  -21.9454  -16.0530 C   0  0  2  0  0  0  0  0  0  0  0  0
   26.0488  -22.0767  -15.9033 N   0  0  0  0  0  0  0  0  0  0  0  0
   27.2082  -22.8955  -16.3428 C   0  0  0  0  0  0  0  0  0  0  0  0
   25.9359  -22.2305  -14.4406 O   0  0  0  0  0  0  0  0  0  0  0  0
   26.6409  -23.1163  -13.8753 N   0  0  0  0  0  0  0  0  0  0  0  0
   25.0750  -21.4267  -13.6400 C   0  0  1  0  0  0  0  0  0  0  0  0
   25.0851  -21.5163  -12.1811 C   0  0  0  0  0  0  0  0  0  0  0  0
   26.4733  -21.3331  -11.6533 C   0  0  0  0  0  0  0  0  0  0  0  0
   26.4976  -20.8009  -10.2839 C   0  0  0  0  0  0  0  0  0  0  0  0
   25.3948  -20.4238   -9.5059 N   0  0  0  0  0  0  0  0  0  0  0  0
   25.8184  -19.9545   -8.3228 C   0  0  0  0  0  0  0  0  0  0  0  0
   27.1800  -19.9954   -8.2562 C   0  0  0  0  0  0  0  0  0  0  0  0
   28.0634  -19.6436   -7.2597 C   0  0  0  0  0  0  0  0  0  0  0  0
   29.4162  -19.8038   -7.4365 C   0  0  0  0  0  0  0  0  0  0  0  0
   29.8288  -20.3257   -8.6423 C   0  0  0  0  0  0  0  0  0  0  0  0
   28.9497  -20.6769   -9.6378 C   0  0  0  0  0  0  0  0  0  0  0  0
   27.5911  -20.5173   -9.4657 C   0  0  0  0  0  0  0  0  0  0  0  0
   24.0182  -20.7461  -11.5746 O   0  0  0  0  0  0  0  0  0  0  0  0
   23.5930  -19.7031  -12.1364 O   0  0  0  0  0  0  0  0  0  0  0  0
  1  2  1  0
  2  3  2  0
  4  5  1  0
  4  2  1  0
  6  5  1  0
  7  6  1  0
  8  7  1  0
  8  9  1  6
 10  8  1  0
 11 10  2  0
 12 13  1  0
 13 14  1  0
 14 16  1  0
 14 15  1  1
 16 18  1  0
 16 17  1  1
 17 10  1  0
 18 20  1  0
 19 18  2  0
 21 20  1  0
 21 32  1  0
 21 22  1  1
 23 22  1  0
 23 24  2  0
 25 24  1  0
 26 25  1  0
 27 26  2  0
 28 29  2  0
 28 27  1  0
 29 30  1  0
 30 31  2  0
 31 26  1  0
 31 23  1  0
 32 33  2  0
 32 34  1  0
M  END
$$$$
