RIW.pdb
     RDKit          3D

 34 35  0  0  1  0  0  0  0  0999 V2000
   32.2556  -25.0692  -14.6048 N   0  0  0  0  0  0  0  0  0  0  0  0
   32.2265  -25.2582  -16.0273 C   0  0  0  0  0  0  0  0  0  0  0  0
   33.0899  -26.0416  -16.5329 N   0  0  0  0  0  0  0  0  0  0  0  0
   31.2415  -24.5579  -16.7410 N   0  0  0  0  0  0  0  0  0  0  0  0
   30.2531  -23.7884  -15.9722 C   0  0  0  0  0  0  0  0  0  0  0  0
   30.5173  -22.3422  -16.2579 C   0  0  0  0  0  0  0  0  0  0  0  0
   29.5881  -21.4456  -15.5226 C   0  0  0  0  0  0  0  0  0  0  0  0
   28.1362  -21.7278  -15.5940 C   0  0  2  0  0  0  0  0  0  0  0  0
   27.6409  -21.6676  -16.9249 N   0  0  0  0  0  0  0  0  0  0  0  0
   27.3871  -20.8125  -14.6712 C   0  0  0  0  0  0  0  0  0  0  0  0
   27.4164  -19.5852  -14.9126 O   0  0  0  0  0  0  0  0  0  0  0  0
   33.2086  -26.2883  -17.5329 C   0  0  0  0  0  0  0  0  0  0  0  0
   22.0453  -20.0388  -14.1709 C   0  0  0  0  0  0  0  0  0  0  0  0
   23.1901  -19.8672  -13.1559 C   0  0  2  0  0  0  0  0  0  0  0  0
   24.3741  -20.5669  -13.7110 C   0  0  0  0  0  0  0  0  0  0  0  0
   23.9985  -22.0418  -13.8844 C   0  0  2  0  0  0  0  0  0  0  0  0
   25.6361  -20.4835  -12.8783 N   0  0  0  0  0  0  0  0  0  0  0  0
   26.6686  -21.3034  -13.5634 C   0  0  0  0  0  0  0  0  0  0  0  0
   25.4913  -21.0179  -11.5111 O   0  0  0  0  0  0  0  0  0  0  0  0
   25.3959  -22.2711  -11.3649 N   0  0  0  0  0  0  0  0  0  0  0  0
   25.4584  -20.1891  -10.3535 C   0  0  1  0  0  0  0  0  0  0  0  0
   25.2340  -20.7470   -9.0212 C   0  0  0  0  0  0  0  0  0  0  0  0
   25.9079  -19.9090   -7.9806 C   0  0  0  0  0  0  0  0  0  0  0  0
   27.3175  -20.2724   -7.7802 C   0  0  0  0  0  0  0  0  0  0  0  0
   28.1037  -21.0879   -8.6051 N   0  0  0  0  0  0  0  0  0  0  0  0
   29.3298  -21.2139   -8.0759 C   0  0  0  0  0  0  0  0  0  0  0  0
   29.4182  -20.5107   -6.9105 C   0  0  0  0  0  0  0  0  0  0  0  0
   30.4571  -20.3226   -6.0260 C   0  0  0  0  0  0  0  0  0  0  0  0
   30.2927  -19.5354   -4.9123 C   0  0  0  0  0  0  0  0  0  0  0  0
   29.0552  -18.9576   -4.7357 C   0  0  0  0  0  0  0  0  0  0  0  0
   28.0173  -19.1442   -5.6163 C   0  0  0  0  0  0  0  0  0  0  0  0
   28.1769  -19.9339   -6.7351 C   0  0  0  0  0  0  0  0  0  0  0  0
   23.8502  -21.1188   -8.8056 O   0  0  0  0  0  0  0  0  0  0  0  0
   22.9623  -20.7493   -9.6176 O   0  0  0  0  0  0  0  0  0  0  0  0
  1  2  1  0
  2  3  2  0
  4  5  1  0
  4  2  1  0
  6  5  1  0
  7  6  1  0
  8  7  1  0
  8  9  1  6
 10  8  1  0
 11 10  2  0
 12 13  1  0
 13 14  1  0
 14 16  1  0
 14 15  1  6
 16 18  1  0
 16 17  1  1
 17 10  1  0
 18 20  1  0
 19 18  2  0
 21 20  1  0
 21 32  1  0
 21 22  1  1
 23 22  1  0
 23 24  2  0
 25 24  1  0
 26 25  1  0
 27 26  2  0
 28 29  2  0
 28 27  1  0
 29 30  1  0
 30 31  2  0
 31 26  1  0
 31 23  1  0
 32 33  2  0
 32 34  1  0
M  END
$$$$
