RIW.pdb
     RDKit          3D

 34 35  0  0  1  0  0  0  0  0999 V2000
   29.0046  -17.3023  -17.6316 N   0  0  0  0  0  0  0  0  0  0  0  0
   28.6477  -16.0713  -18.2775 C   0  0  0  0  0  0  0  0  0  0  0  0
   29.3222  -15.7271  -19.2979 N   0  0  0  0  0  0  0  0  0  0  0  0
   27.5785  -15.3502  -17.7235 N   0  0  0  0  0  0  0  0  0  0  0  0
   26.8282  -15.9715  -16.6231 C   0  0  0  0  0  0  0  0  0  0  0  0
   25.5941  -16.5678  -17.2269 C   0  0  0  0  0  0  0  0  0  0  0  0
   25.2043  -17.8406  -16.5665 C   0  0  0  0  0  0  0  0  0  0  0  0
   26.2552  -18.8543  -16.3198 C   0  0  2  0  0  0  0  0  0  0  0  0
   26.7369  -19.4345  -17.5247 N   0  0  0  0  0  0  0  0  0  0  0  0
   25.7568  -19.8892  -15.3550 C   0  0  0  0  0  0  0  0  0  0  0  0
   25.2716  -20.9425  -15.8246 O   0  0  0  0  0  0  0  0  0  0  0  0
   29.3236  -14.8046  -19.7711 C   0  0  0  0  0  0  0  0  0  0  0  0
   28.5771  -21.0740  -10.9680 C   0  0  0  0  0  0  0  0  0  0  0  0
   27.7233  -21.1521  -12.2466 C   0  0  2  0  0  0  0  0  0  0  0  0
   26.3365  -20.7869  -11.8685 C   0  0  0  0  0  0  0  0  0  0  0  0
   25.8505  -21.8190  -10.8463 C   0  0  2  0  0  0  0  0  0  0  0  0
   25.3398  -20.7266  -13.0068 N   0  0  0  0  0  0  0  0  0  0  0  0
   25.8257  -19.6966  -13.9611 C   0  0  0  0  0  0  0  0  0  0  0  0
   23.9793  -20.3325  -12.5952 O   0  0  0  0  0  0  0  0  0  0  0  0
   23.8377  -19.2524  -11.9514 N   0  0  0  0  0  0  0  0  0  0  0  0
   22.8231  -21.1089  -12.8926 C   0  0  1  0  0  0  0  0  0  0  0  0
   21.4887  -20.6817  -12.4761 C   0  0  0  0  0  0  0  0  0  0  0  0
   21.2356  -19.2675  -12.8947 C   0  0  0  0  0  0  0  0  0  0  0  0
   20.9003  -19.1456  -14.3202 C   0  0  0  0  0  0  0  0  0  0  0  0
   19.9376  -19.8795  -15.0259 N   0  0  0  0  0  0  0  0  0  0  0  0
   19.9450  -19.5086  -16.3150 C   0  0  0  0  0  0  0  0  0  0  0  0
   20.8822  -18.5400  -16.5245 C   0  0  0  0  0  0  0  0  0  0  0  0
   21.2486  -17.8434  -17.6548 C   0  0  0  0  0  0  0  0  0  0  0  0
   22.2292  -16.8833  -17.5968 C   0  0  0  0  0  0  0  0  0  0  0  0
   22.8121  -16.6624  -16.3687 C   0  0  0  0  0  0  0  0  0  0  0  0
   22.4487  -17.3563  -15.2400 C   0  0  0  0  0  0  0  0  0  0  0  0
   21.4656  -18.3215  -15.2932 C   0  0  0  0  0  0  0  0  0  0  0  0
   20.4748  -21.6727  -12.7749 O   0  0  0  0  0  0  0  0  0  0  0  0
   20.7364  -22.6323  -13.5464 O   0  0  0  0  0  0  0  0  0  0  0  0
  1  2  1  0
  2  3  2  0
  4  5  1  0
  4  2  1  0
  6  5  1  0
  7  6  1  0
  8  7  1  0
  8  9  1  6
 10  8  1  0
 11 10  2  0
 12 13  1  0
 13 14  1  0
 14 16  1  0
 14 15  1  1
 16 18  1  0
 16 17  1  6
 17 10  1  0
 18 20  1  0
 19 18  2  0
 21 20  1  0
 21 32  1  0
 21 22  1  1
 23 22  1  0
 23 24  2  0
 25 24  1  0
 26 25  1  0
 27 26  2  0
 28 29  2  0
 28 27  1  0
 29 30  1  0
 30 31  2  0
 31 26  1  0
 31 23  1  0
 32 33  2  0
 32 34  1  0
M  END
$$$$
