RIW.pdb
     RDKit          3D

 34 35  0  0  1  0  0  0  0  0999 V2000
   29.5518  -18.5704  -17.2239 N   0  0  0  0  0  0  0  0  0  0  0  0
   28.8335  -17.9994  -18.3276 C   0  0  0  0  0  0  0  0  0  0  0  0
   29.5148  -17.5518  -19.3024 N   0  0  0  0  0  0  0  0  0  0  0  0
   27.4331  -17.9850  -18.2347 N   0  0  0  0  0  0  0  0  0  0  0  0
   26.8064  -18.7964  -17.1816 C   0  0  0  0  0  0  0  0  0  0  0  0
   26.0926  -19.9182  -17.8707 C   0  0  0  0  0  0  0  0  0  0  0  0
   25.4040  -20.8196  -16.9107 C   0  0  0  0  0  0  0  0  0  0  0  0
   26.2304  -21.5848  -15.9493 C   0  0  2  0  0  0  0  0  0  0  0  0
   26.7952  -22.7509  -16.5338 N   0  0  0  0  0  0  0  0  0  0  0  0
   25.4314  -21.9003  -14.7196 C   0  0  0  0  0  0  0  0  0  0  0  0
   24.8411  -23.0024  -14.6713 O   0  0  0  0  0  0  0  0  0  0  0  0
   29.1652  -17.0420  -20.1347 C   0  0  0  0  0  0  0  0  0  0  0  0
   27.2283  -21.0528   -9.7778 C   0  0  0  0  0  0  0  0  0  0  0  0
   26.5205  -21.6770  -10.9942 C   0  0  2  0  0  0  0  0  0  0  0  0
   25.2866  -20.8895  -11.2328 C   0  0  0  0  0  0  0  0  0  0  0  0
   24.3943  -21.0454   -9.9975 C   0  0  2  0  0  0  0  0  0  0  0  0
   24.4875  -21.2769  -12.4592 N   0  0  0  0  0  0  0  0  0  0  0  0
   25.3383  -20.9950  -13.6442 C   0  0  0  0  0  0  0  0  0  0  0  0
   23.2370  -20.5130  -12.6285 O   0  0  0  0  0  0  0  0  0  0  0  0
   23.3157  -19.2571  -12.7617 N   0  0  0  0  0  0  0  0  0  0  0  0
   21.9512  -21.1248  -12.6525 C   0  0  1  0  0  0  0  0  0  0  0  0
   20.7468  -20.3584  -12.9670 C   0  0  0  0  0  0  0  0  0  0  0  0
   20.9799  -19.4777  -14.1540 C   0  0  0  0  0  0  0  0  0  0  0  0
   21.0327  -20.2255  -15.4179 C   0  0  0  0  0  0  0  0  0  0  0  0
   20.2327  -21.3150  -15.7872 N   0  0  0  0  0  0  0  0  0  0  0  0
   20.5989  -21.7507  -17.0019 C   0  0  0  0  0  0  0  0  0  0  0  0
   21.6270  -20.9966  -17.4862 C   0  0  0  0  0  0  0  0  0  0  0  0
   22.3222  -21.0435  -18.6744 C   0  0  0  0  0  0  0  0  0  0  0  0
   23.3227  -20.1391  -18.9347 C   0  0  0  0  0  0  0  0  0  0  0  0
   23.5846  -19.2027  -17.9594 C   0  0  0  0  0  0  0  0  0  0  0  0
   22.8930  -19.1543  -16.7733 C   0  0  0  0  0  0  0  0  0  0  0  0
   21.8884  -20.0603  -16.5069 C   0  0  0  0  0  0  0  0  0  0  0  0
   19.5524  -21.1784  -12.9508 O   0  0  0  0  0  0  0  0  0  0  0  0
   19.6471  -22.4333  -12.9280 O   0  0  0  0  0  0  0  0  0  0  0  0
  1  2  1  0
  2  3  2  0
  4  5  1  0
  4  2  1  0
  6  5  1  0
  7  6  1  0
  8  7  1  0
  8  9  1  6
 10  8  1  0
 11 10  2  0
 12 13  1  0
 13 14  1  0
 14 16  1  0
 14 15  1  6
 16 18  1  0
 16 17  1  6
 17 10  1  0
 18 20  1  0
 19 18  2  0
 21 20  1  0
 21 32  1  0
 21 22  1  1
 23 22  1  0
 23 24  2  0
 25 24  1  0
 26 25  1  0
 27 26  2  0
 28 29  2  0
 28 27  1  0
 29 30  1  0
 30 31  2  0
 31 26  1  0
 31 23  1  0
 32 33  2  0
 32 34  1  0
M  END
$$$$
