RIW.pdb
     RDKit          3D

 34 35  0  0  1  0  0  0  0  0999 V2000
   20.1798  -20.6099  -18.5748 N   0  0  0  0  0  0  0  0  0  0  0  0
   20.3075  -19.6030  -17.5599 C   0  0  0  0  0  0  0  0  0  0  0  0
   19.4186  -18.6959  -17.5183 N   0  0  0  0  0  0  0  0  0  0  0  0
   21.4089  -19.7080  -16.6962 N   0  0  0  0  0  0  0  0  0  0  0  0
   22.2258  -20.9275  -16.7703 C   0  0  0  0  0  0  0  0  0  0  0  0
   21.7756  -21.8153  -15.6513 C   0  0  0  0  0  0  0  0  0  0  0  0
   22.9057  -22.2503  -14.7900 C   0  0  0  0  0  0  0  0  0  0  0  0
   24.1956  -22.5811  -15.4377 C   0  0  2  0  0  0  0  0  0  0  0  0
   24.1688  -23.8526  -16.0723 N   0  0  0  0  0  0  0  0  0  0  0  0
   25.3146  -22.4692  -14.4450 C   0  0  0  0  0  0  0  0  0  0  0  0
   25.6284  -23.4932  -13.7982 O   0  0  0  0  0  0  0  0  0  0  0  0
   19.3708  -17.8891  -16.8689 C   0  0  0  0  0  0  0  0  0  0  0  0
   29.5210  -18.7922  -14.7811 C   0  0  0  0  0  0  0  0  0  0  0  0
   28.7241  -20.0970  -14.6004 C   0  0  2  0  0  0  0  0  0  0  0  0
   27.8325  -19.9055  -13.4309 C   0  0  0  0  0  0  0  0  0  0  0  0
   28.7199  -19.6041  -12.2193 C   0  0  2  0  0  0  0  0  0  0  0  0
   26.9327  -21.0755  -13.0928 N   0  0  0  0  0  0  0  0  0  0  0  0
   26.0006  -21.2566  -14.2356 C   0  0  0  0  0  0  0  0  0  0  0  0
   26.1090  -20.8721  -11.8862 O   0  0  0  0  0  0  0  0  0  0  0  0
   25.0258  -20.2286  -12.0020 N   0  0  0  0  0  0  0  0  0  0  0  0
   26.4760  -21.3695  -10.6032 C   0  0  2  0  0  0  0  0  0  0  0  0
   25.6226  -21.1684   -9.4336 C   0  0  0  0  0  0  0  0  0  0  0  0
   26.3393  -21.5750   -8.1845 C   0  0  0  0  0  0  0  0  0  0  0  0
   26.9504  -20.4384   -7.4816 C   0  0  0  0  0  0  0  0  0  0  0  0
   26.4324  -19.1417   -7.3647 N   0  0  0  0  0  0  0  0  0  0  0  0
   27.2919  -18.3741   -6.6782 C   0  0  0  0  0  0  0  0  0  0  0  0
   28.3891  -19.0985   -6.3150 C   0  0  0  0  0  0  0  0  0  0  0  0
   29.5168  -18.7636   -5.5986 C   0  0  0  0  0  0  0  0  0  0  0  0
   30.4881  -19.7014   -5.3458 C   0  0  0  0  0  0  0  0  0  0  0  0
   30.2732  -20.9689   -5.8398 C   0  0  0  0  0  0  0  0  0  0  0  0
   29.1495  -21.3051   -6.5551 C   0  0  0  0  0  0  0  0  0  0  0  0
   28.1720  -20.3673   -6.8122 C   0  0  0  0  0  0  0  0  0  0  0  0
   24.9598  -19.8800   -9.4504 O   0  0  0  0  0  0  0  0  0  0  0  0
   25.5767  -18.8566   -9.8459 O   0  0  0  0  0  0  0  0  0  0  0  0
  1  2  1  0
  2  3  2  0
  4  5  1  0
  4  2  1  0
  6  5  1  0
  7  6  1  0
  8  7  1  0
  8  9  1  1
 10  8  1  0
 11 10  2  0
 12 13  1  0
 13 14  1  0
 14 16  1  0
 14 15  1  6
 16 18  1  0
 16 17  1  1
 17 10  1  0
 18 20  1  0
 19 18  2  0
 21 20  1  0
 21 32  1  0
 21 22  1  6
 23 22  1  0
 23 24  2  0
 25 24  1  0
 26 25  1  0
 27 26  2  0
 28 29  2  0
 28 27  1  0
 29 30  1  0
 30 31  2  0
 31 26  1  0
 31 23  1  0
 32 33  2  0
 32 34  1  0
M  END
$$$$
