RIW.pdb
     RDKit          3D

 34 35  0  0  1  0  0  0  0  0999 V2000
   29.5339  -29.6346  -21.6643 N   0  0  0  0  0  0  0  0  0  0  0  0
   29.9059  -30.8779  -21.0513 C   0  0  0  0  0  0  0  0  0  0  0  0
   30.3083  -31.8110  -21.8143 N   0  0  0  0  0  0  0  0  0  0  0  0
   29.7927  -30.9562  -19.6544 N   0  0  0  0  0  0  0  0  0  0  0  0
   29.4924  -29.7194  -18.9195 C   0  0  0  0  0  0  0  0  0  0  0  0
   28.0002  -29.6114  -18.8510 C   0  0  0  0  0  0  0  0  0  0  0  0
   27.5579  -28.3872  -18.1341 C   0  0  0  0  0  0  0  0  0  0  0  0
   28.5216  -27.7139  -17.2337 C   0  0  2  0  0  0  0  0  0  0  0  0
   28.9493  -28.5591  -16.1740 N   0  0  0  0  0  0  0  0  0  0  0  0
   27.9421  -26.4255  -16.7292 C   0  0  0  0  0  0  0  0  0  0  0  0
   27.6670  -26.3442  -15.5113 O   0  0  0  0  0  0  0  0  0  0  0  0
   30.6305  -32.7569  -21.5378 C   0  0  0  0  0  0  0  0  0  0  0  0
   30.3300  -21.9764  -17.9277 C   0  0  0  0  0  0  0  0  0  0  0  0
   29.5341  -23.0289  -17.1346 C   0  0  2  0  0  0  0  0  0  0  0  0
   28.1279  -22.9547  -17.5999 C   0  0  0  0  0  0  0  0  0  0  0  0
   27.5754  -21.5887  -17.1814 C   0  0  2  0  0  0  0  0  0  0  0  0
   27.2042  -24.0325  -17.0728 N   0  0  0  0  0  0  0  0  0  0  0  0
   27.7087  -25.3323  -17.5865 C   0  0  0  0  0  0  0  0  0  0  0  0
   25.8056  -23.8992  -17.5223 O   0  0  0  0  0  0  0  0  0  0  0  0
   25.5903  -23.6533  -18.7447 N   0  0  0  0  0  0  0  0  0  0  0  0
   24.6921  -24.0383  -16.6455 C   0  0  1  0  0  0  0  0  0  0  0  0
   23.3201  -23.8726  -17.1216 C   0  0  0  0  0  0  0  0  0  0  0  0
   23.1105  -24.6320  -18.3939 C   0  0  0  0  0  0  0  0  0  0  0  0
   22.5519  -25.9730  -18.1727 C   0  0  0  0  0  0  0  0  0  0  0  0
   21.3292  -26.2877  -17.5648 N   0  0  0  0  0  0  0  0  0  0  0  0
   21.1815  -27.6199  -17.5145 C   0  0  0  0  0  0  0  0  0  0  0  0
   22.2632  -28.2384  -18.0691 C   0  0  0  0  0  0  0  0  0  0  0  0
   22.5641  -29.5687  -18.2616 C   0  0  0  0  0  0  0  0  0  0  0  0
   23.7355  -29.9384  -18.8764 C   0  0  0  0  0  0  0  0  0  0  0  0
   24.5736  -28.9231  -19.2807 C   0  0  0  0  0  0  0  0  0  0  0  0
   24.2759  -27.5956  -19.0894 C   0  0  0  0  0  0  0  0  0  0  0  0
   23.1019  -27.2193  -18.4721 C   0  0  0  0  0  0  0  0  0  0  0  0
   22.3457  -24.0364  -16.0618 O   0  0  0  0  0  0  0  0  0  0  0  0
   22.6755  -24.5873  -14.9792 O   0  0  0  0  0  0  0  0  0  0  0  0
  1  2  1  0
  2  3  2  0
  4  5  1  0
  4  2  1  0
  6  5  1  0
  7  6  1  0
  8  7  1  0
  8  9  1  1
 10  8  1  0
 11 10  2  0
 12 13  1  0
 13 14  1  0
 14 16  1  0
 14 15  1  6
 16 18  1  0
 16 17  1  1
 17 10  1  0
 18 20  1  0
 19 18  2  0
 21 20  1  0
 21 32  1  0
 21 22  1  6
 23 22  1  0
 23 24  2  0
 25 24  1  0
 26 25  1  0
 27 26  2  0
 28 29  2  0
 28 27  1  0
 29 30  1  0
 30 31  2  0
 31 26  1  0
 31 23  1  0
 32 33  2  0
 32 34  1  0
M  END
$$$$
