APL.pdb
     RDKit          3D

 21 21  0  0  1  0  0  0  0  0999 V2000
   10.4735  -18.3754   20.4177 C   0  0  0  0  0  0  0  0  0  0  0  0
   10.5455  -16.8510   20.2697 C   0  0  2  0  0  0  0  0  0  0  0  0
   11.7999  -16.5099   19.6958 N   0  0  0  0  0  0  0  0  0  0  0  0
   10.1720  -16.1793   21.5071 C   0  0  0  0  0  0  0  0  0  0  0  0
   11.1219  -15.8654   22.3081 O   0  0  0  0  0  0  0  0  0  0  0  0
    8.8637  -15.8457   21.9017 N   0  0  0  0  0  0  0  0  0  0  0  0
    7.6779  -16.0652   21.1016 C   0  0  0  0  0  0  0  0  0  0  0  0
    6.6748  -15.0562   21.6394 C   0  0  0  0  0  0  0  0  0  0  0  0
    7.0184  -15.0597   23.0990 C   0  0  0  0  0  0  0  0  0  0  0  0
    8.4841  -15.2540   23.1354 C   0  0  1  0  0  0  0  0  0  0  0  0
    8.9356  -16.0224   24.3261 C   0  0  0  0  0  0  0  0  0  0  0  0
    9.2304  -17.2450   24.1258 O   0  0  0  0  0  0  0  0  0  0  0  0
   10.7645  -13.8525   29.2664 C   0  0  0  0  0  0  0  0  0  0  0  0
   10.1274  -14.1937   27.9036 C   0  0  2  0  0  0  0  0  0  0  0  0
    9.1501  -13.0852   27.5847 C   0  0  0  0  0  0  0  0  0  0  0  0
    9.4835  -15.5362   28.0075 C   0  0  0  0  0  0  0  0  0  0  0  0
    9.4568  -16.3631   26.7710 C   0  0  2  0  0  0  0  0  0  0  0  0
    9.0657  -15.5325   25.6257 N   0  0  0  0  0  0  0  0  0  0  0  0
    8.5796  -17.5163   26.9223 C   0  0  0  0  0  0  0  0  0  0  0  0
    8.9251  -18.5078   27.5946 O   0  0  0  0  0  0  0  0  0  0  0  0
    7.3094  -17.5612   26.3189 O   0  0  0  0  0  0  0  0  0  0  0  0
  2  1  1  1
  3  2  1  0
  4  5  2  0
  4  2  1  0
  6  4  1  0
  7  6  1  0
  8  7  1  0
  9  8  1  0
  9 10  1  0
 10 11  1  1
 10  6  1  0
 11 18  1  0
 12 11  2  0
 14 13  1  1
 14 15  1  0
 16 14  1  0
 17 16  1  1
 18 17  1  0
 19 21  1  0
 19 17  1  0
 20 19  2  0
M  END
$$$$
