APL.pdb
     RDKit          3D

 21 21  0  0  1  0  0  0  0  0999 V2000
    9.9975  -18.7579   20.2257 C   0  0  0  0  0  0  0  0  0  0  0  0
   10.1892  -17.2958   19.8057 C   0  0  2  0  0  0  0  0  0  0  0  0
   11.4562  -17.1674   19.1755 N   0  0  0  0  0  0  0  0  0  0  0  0
    9.8935  -16.3850   20.9034 C   0  0  0  0  0  0  0  0  0  0  0  0
   10.8754  -16.0340   21.6484 O   0  0  0  0  0  0  0  0  0  0  0  0
    8.6283  -15.8578   21.2192 N   0  0  0  0  0  0  0  0  0  0  0  0
    7.4100  -16.1405   20.4910 C   0  0  0  0  0  0  0  0  0  0  0  0
    6.5103  -14.9528   20.7969 C   0  0  0  0  0  0  0  0  0  0  0  0
    6.8855  -14.6674   22.2204 C   0  0  0  0  0  0  0  0  0  0  0  0
    8.3295  -14.9790   22.2938 C   0  0  1  0  0  0  0  0  0  0  0  0
    8.7400  -15.5052   23.6228 C   0  0  0  0  0  0  0  0  0  0  0  0
    8.8159  -16.7724   23.7252 O   0  0  0  0  0  0  0  0  0  0  0  0
    9.7529  -13.4770   29.3946 C   0  0  0  0  0  0  0  0  0  0  0  0
    9.9303  -14.6804   28.4460 C   0  0  2  0  0  0  0  0  0  0  0  0
   11.3749  -15.1138   28.5501 C   0  0  0  0  0  0  0  0  0  0  0  0
    9.5393  -14.2568   27.0693 C   0  0  0  0  0  0  0  0  0  0  0  0
    9.3969  -15.3338   26.0528 C   0  0  2  0  0  0  0  0  0  0  0  0
    9.0473  -14.7477   24.7531 N   0  0  0  0  0  0  0  0  0  0  0  0
    8.4225  -16.3328   26.4707 C   0  0  0  0  0  0  0  0  0  0  0  0
    7.2003  -16.1552   26.2998 O   0  0  0  0  0  0  0  0  0  0  0  0
    8.8165  -17.5368   27.0828 O   0  0  0  0  0  0  0  0  0  0  0  0
  2  1  1  1
  3  2  1  0
  4  5  2  0
  4  2  1  0
  6  4  1  0
  7  6  1  0
  8  7  1  0
  9  8  1  0
  9 10  1  0
 10 11  1  1
 10  6  1  0
 11 18  1  0
 12 11  2  0
 14 13  1  1
 14 15  1  0
 16 14  1  0
 17 16  1  1
 18 17  1  0
 19 21  1  0
 19 17  1  0
 20 19  2  0
M  END
$$$$
