APL.pdb
     RDKit          3D

 21 21  0  0  1  0  0  0  0  0999 V2000
    8.5123  -18.3940   19.4173 C   0  0  0  0  0  0  0  0  0  0  0  0
    9.3534  -17.1247   19.2374 C   0  0  2  0  0  0  0  0  0  0  0  0
   10.5916  -17.4823   18.6388 N   0  0  0  0  0  0  0  0  0  0  0  0
    9.4060  -16.3442   20.4662 C   0  0  0  0  0  0  0  0  0  0  0  0
   10.3390  -16.6297   21.2971 O   0  0  0  0  0  0  0  0  0  0  0  0
    8.5250  -15.3072   20.8225 N   0  0  0  0  0  0  0  0  0  0  0  0
    7.4201  -14.8457   20.0097 C   0  0  0  0  0  0  0  0  0  0  0  0
    7.1761  -13.4226   20.4880 C   0  0  0  0  0  0  0  0  0  0  0  0
    7.4670  -13.5581   21.9529 C   0  0  0  0  0  0  0  0  0  0  0  0
    8.5600  -14.5518   22.0244 C   0  0  1  0  0  0  0  0  0  0  0  0
    8.5010  -15.3879   23.2530 C   0  0  0  0  0  0  0  0  0  0  0  0
    7.8314  -16.4676   23.1650 O   0  0  0  0  0  0  0  0  0  0  0  0
   10.8947  -13.4390   27.7682 C   0  0  0  0  0  0  0  0  0  0  0  0
    9.6029  -13.9785   27.1203 C   0  0  2  0  0  0  0  0  0  0  0  0
    8.4882  -13.7684   28.1197 C   0  0  0  0  0  0  0  0  0  0  0  0
    9.8164  -15.4130   26.7676 C   0  0  0  0  0  0  0  0  0  0  0  0
    8.9857  -15.9611   25.6617 C   0  0  2  0  0  0  0  0  0  0  0  0
    9.1056  -15.1024   24.4772 N   0  0  0  0  0  0  0  0  0  0  0  0
    7.5966  -16.1212   26.0703 C   0  0  0  0  0  0  0  0  0  0  0  0
    6.7140  -15.3291   25.6855 O   0  0  0  0  0  0  0  0  0  0  0  0
    7.1920  -17.1724   26.9134 O   0  0  0  0  0  0  0  0  0  0  0  0
  2  1  1  1
  3  2  1  0
  4  5  2  0
  4  2  1  0
  6  4  1  0
  7  6  1  0
  8  7  1  0
  9  8  1  0
  9 10  1  0
 10 11  1  1
 10  6  1  0
 11 18  1  0
 12 11  2  0
 14 13  1  1
 14 15  1  0
 16 14  1  0
 17 16  1  1
 18 17  1  0
 19 21  1  0
 19 17  1  0
 20 19  2  0
M  END
$$$$
