APL.pdb
     RDKit          3D

 21 21  0  0  1  0  0  0  0  0999 V2000
    5.7708  -18.4765   22.9215 C   0  0  0  0  0  0  0  0  0  0  0  0
    6.7007  -18.2579   21.7222 C   0  0  2  0  0  0  0  0  0  0  0  0
    7.1689  -19.5228   21.2750 N   0  0  0  0  0  0  0  0  0  0  0  0
    7.7007  -17.2370   22.0050 C   0  0  0  0  0  0  0  0  0  0  0  0
    8.7285  -17.6005   22.6787 O   0  0  0  0  0  0  0  0  0  0  0  0
    7.6388  -15.8895   21.6062 N   0  0  0  0  0  0  0  0  0  0  0  0
    6.5230  -15.2836   20.9116 C   0  0  0  0  0  0  0  0  0  0  0  0
    7.1336  -14.0841   20.2033 C   0  0  0  0  0  0  0  0  0  0  0  0
    8.1563  -13.6466   21.2089 C   0  0  0  0  0  0  0  0  0  0  0  0
    8.6388  -14.9042   21.8197 C   0  0  1  0  0  0  0  0  0  0  0  0
    9.0187  -14.7438   23.2486 C   0  0  0  0  0  0  0  0  0  0  0  0
   10.1248  -14.1534   23.4719 O   0  0  0  0  0  0  0  0  0  0  0  0
    6.2855  -12.2460   27.4369 C   0  0  0  0  0  0  0  0  0  0  0  0
    7.3307  -12.6757   26.3869 C   0  0  2  0  0  0  0  0  0  0  0  0
    6.9055  -12.0697   25.0688 C   0  0  0  0  0  0  0  0  0  0  0  0
    7.3859  -14.1671   26.3602 C   0  0  0  0  0  0  0  0  0  0  0  0
    8.5877  -14.7812   25.7342 C   0  0  2  0  0  0  0  0  0  0  0  0
    8.2832  -15.1739   24.3530 N   0  0  0  0  0  0  0  0  0  0  0  0
    9.0770  -15.9080   26.5172 C   0  0  0  0  0  0  0  0  0  0  0  0
    9.5318  -15.7475   27.6670 O   0  0  0  0  0  0  0  0  0  0  0  0
    9.0578  -17.2210   26.0124 O   0  0  0  0  0  0  0  0  0  0  0  0
  2  1  1  1
  3  2  1  0
  4  5  2  0
  4  2  1  0
  6  4  1  0
  7  6  1  0
  8  7  1  0
  9  8  1  0
  9 10  1  0
 10 11  1  1
 10  6  1  0
 11 18  1  0
 12 11  2  0
 14 13  1  1
 14 15  1  0
 16 14  1  0
 17 16  1  1
 18 17  1  0
 19 21  1  0
 19 17  1  0
 20 19  2  0
M  END
$$$$
