APL.pdb
     RDKit          3D

 21 21  0  0  1  0  0  0  0  0999 V2000
   10.4342  -18.6726   20.1818 C   0  0  0  0  0  0  0  0  0  0  0  0
   10.3584  -17.1989   19.7654 C   0  0  2  0  0  0  0  0  0  0  0  0
   11.5305  -16.8746   19.0304 N   0  0  0  0  0  0  0  0  0  0  0  0
   10.0208  -16.3445   20.8959 C   0  0  0  0  0  0  0  0  0  0  0  0
   10.9965  -15.8626   21.5726 O   0  0  0  0  0  0  0  0  0  0  0  0
    8.7212  -16.0024   21.3114 N   0  0  0  0  0  0  0  0  0  0  0  0
    7.5037  -16.4499   20.6697 C   0  0  0  0  0  0  0  0  0  0  0  0
    6.4719  -15.4024   21.0590 C   0  0  0  0  0  0  0  0  0  0  0  0
    6.9084  -15.0745   22.4557 C   0  0  0  0  0  0  0  0  0  0  0  0
    8.3832  -15.1800   22.4186 C   0  0  1  0  0  0  0  0  0  0  0  0
    8.9612  -15.6503   23.7057 C   0  0  0  0  0  0  0  0  0  0  0  0
    9.3899  -16.8493   23.7231 O   0  0  0  0  0  0  0  0  0  0  0  0
    9.8341  -15.7059   29.0764 C   0  0  0  0  0  0  0  0  0  0  0  0
   10.6117  -14.5955   28.3402 C   0  0  2  0  0  0  0  0  0  0  0  0
   10.6962  -13.4174   29.2838 C   0  0  0  0  0  0  0  0  0  0  0  0
    9.8956  -14.2827   27.0685 C   0  0  0  0  0  0  0  0  0  0  0  0
    9.7744  -15.3875   26.0795 C   0  0  2  0  0  0  0  0  0  0  0  0
    9.0769  -14.9072   24.8806 N   0  0  0  0  0  0  0  0  0  0  0  0
    9.1105  -16.5478   26.6583 C   0  0  0  0  0  0  0  0  0  0  0  0
    7.8671  -16.6177   26.7194 O   0  0  0  0  0  0  0  0  0  0  0  0
    9.8402  -17.6357   27.1715 O   0  0  0  0  0  0  0  0  0  0  0  0
  2  1  1  1
  3  2  1  0
  4  5  2  0
  4  2  1  0
  6  4  1  0
  7  6  1  0
  8  7  1  0
  9  8  1  0
  9 10  1  0
 10 11  1  1
 10  6  1  0
 11 18  1  0
 12 11  2  0
 14 13  1  1
 14 15  1  0
 16 14  1  0
 17 16  1  1
 18 17  1  0
 19 21  1  0
 19 17  1  0
 20 19  2  0
M  END
$$$$
