APL.pdb
     RDKit          3D

 21 21  0  0  1  0  0  0  0  0999 V2000
    7.4230  -17.0438   16.8114 C   0  0  0  0  0  0  0  0  0  0  0  0
    8.4249  -15.9111   16.5581 C   0  0  2  0  0  0  0  0  0  0  0  0
    9.2784  -16.2916   15.4876 N   0  0  0  0  0  0  0  0  0  0  0  0
    9.0584  -15.4762   17.7957 C   0  0  0  0  0  0  0  0  0  0  0  0
   10.1730  -16.0285   18.1038 O   0  0  0  0  0  0  0  0  0  0  0  0
    8.5564  -14.5063   18.6821 N   0  0  0  0  0  0  0  0  0  0  0  0
    7.3626  -13.7198   18.4570 C   0  0  0  0  0  0  0  0  0  0  0  0
    7.5657  -12.4817   19.3168 C   0  0  0  0  0  0  0  0  0  0  0  0
    8.2753  -13.0676   20.5008 C   0  0  0  0  0  0  0  0  0  0  0  0
    9.1185  -14.1425   19.9344 C   0  0  1  0  0  0  0  0  0  0  0  0
    9.2918  -15.2909   20.8634 C   0  0  0  0  0  0  0  0  0  0  0  0
    8.3606  -16.1595   20.8611 O   0  0  0  0  0  0  0  0  0  0  0  0
   12.8912  -18.9714   23.3758 C   0  0  0  0  0  0  0  0  0  0  0  0
   11.5058  -18.9921   22.6977 C   0  0  2  0  0  0  0  0  0  0  0  0
   11.4710  -20.2114   21.8046 C   0  0  0  0  0  0  0  0  0  0  0  0
   11.3262  -17.7106   21.9539 C   0  0  0  0  0  0  0  0  0  0  0  0
   10.4858  -16.6704   22.6060 C   0  0  2  0  0  0  0  0  0  0  0  0
   10.3682  -15.5021   21.7251 N   0  0  0  0  0  0  0  0  0  0  0  0
   11.0127  -16.3055   23.9142 C   0  0  0  0  0  0  0  0  0  0  0  0
   10.6444  -16.8977   24.9478 O   0  0  0  0  0  0  0  0  0  0  0  0
   11.9562  -15.2733   24.0679 O   0  0  0  0  0  0  0  0  0  0  0  0
  2  1  1  1
  3  2  1  0
  4  5  2  0
  4  2  1  0
  6  4  1  0
  7  6  1  0
  8  7  1  0
  9  8  1  0
  9 10  1  0
 10 11  1  1
 10  6  1  0
 11 18  1  0
 12 11  2  0
 14 13  1  6
 14 15  1  0
 16 14  1  0
 17 16  1  6
 18 17  1  0
 19 21  1  0
 19 17  1  0
 20 19  2  0
M  END
$$$$
