APL.pdb
     RDKit          3D

 21 21  0  0  1  0  0  0  0  0999 V2000
   10.1525  -13.1155   19.2968 C   0  0  0  0  0  0  0  0  0  0  0  0
    8.6497  -13.4132   19.2336 C   0  0  2  0  0  0  0  0  0  0  0  0
    7.9756  -12.2487   18.7767 N   0  0  0  0  0  0  0  0  0  0  0  0
    8.1757  -14.0172   20.4715 C   0  0  0  0  0  0  0  0  0  0  0  0
    7.7709  -13.2203   21.3898 O   0  0  0  0  0  0  0  0  0  0  0  0
    8.1235  -15.3952   20.7492 N   0  0  0  0  0  0  0  0  0  0  0  0
    8.6007  -16.4354   19.8634 C   0  0  0  0  0  0  0  0  0  0  0  0
    7.8218  -17.6710   20.2880 C   0  0  0  0  0  0  0  0  0  0  0  0
    7.7337  -17.4598   21.7699 C   0  0  0  0  0  0  0  0  0  0  0  0
    7.6108  -15.9947   21.9300 C   0  0  1  0  0  0  0  0  0  0  0  0
    8.2503  -15.4940   23.1758 C   0  0  0  0  0  0  0  0  0  0  0  0
    9.5143  -15.3438   23.1361 O   0  0  0  0  0  0  0  0  0  0  0  0
    8.0650  -11.7423   25.6310 C   0  0  0  0  0  0  0  0  0  0  0  0
    6.9014  -12.7358   25.8278 C   0  0  2  0  0  0  0  0  0  0  0  0
    5.8631  -12.0356   26.6747 C   0  0  0  0  0  0  0  0  0  0  0  0
    7.4416  -13.9746   26.4611 C   0  0  0  0  0  0  0  0  0  0  0  0
    8.3048  -14.8388   25.6117 C   0  0  2  0  0  0  0  0  0  0  0  0
    7.6007  -15.1762   24.3686 N   0  0  0  0  0  0  0  0  0  0  0  0
    8.7299  -16.0334   26.3290 C   0  0  0  0  0  0  0  0  0  0  0  0
    8.1677  -17.1313   26.1471 O   0  0  0  0  0  0  0  0  0  0  0  0
    9.7890  -16.0004   27.2545 O   0  0  0  0  0  0  0  0  0  0  0  0
  2  1  1  1
  3  2  1  0
  4  5  2  0
  4  2  1  0
  6  4  1  0
  7  6  1  0
  8  7  1  0
  9  8  1  0
  9 10  1  0
 10 11  1  1
 10  6  1  0
 11 18  1  0
 12 11  2  0
 14 13  1  1
 14 15  1  0
 16 14  1  0
 17 16  1  1
 18 17  1  0
 19 21  1  0
 19 17  1  0
 20 19  2  0
M  END
$$$$
