APL.pdb
     RDKit          3D

 21 21  0  0  1  0  0  0  0  0999 V2000
    9.1000  -12.3491   19.7252 C   0  0  0  0  0  0  0  0  0  0  0  0
    8.1902  -13.5488   19.4351 C   0  0  2  0  0  0  0  0  0  0  0  0
    7.0881  -13.1040   18.6562 N   0  0  0  0  0  0  0  0  0  0  0  0
    7.8920  -14.2949   20.6501 C   0  0  0  0  0  0  0  0  0  0  0  0
    7.0955  -13.7447   21.4898 O   0  0  0  0  0  0  0  0  0  0  0  0
    8.4002  -15.5632   20.9843 N   0  0  0  0  0  0  0  0  0  0  0  0
    9.2577  -16.3604   20.1335 C   0  0  0  0  0  0  0  0  0  0  0  0
    9.0434  -17.7852   20.6207 C   0  0  0  0  0  0  0  0  0  0  0  0
    8.8759  -17.5628   22.0942 C   0  0  0  0  0  0  0  0  0  0  0  0
    8.1718  -16.2662   22.1967 C   0  0  1  0  0  0  0  0  0  0  0  0
    8.5535  -15.4961   23.4104 C   0  0  0  0  0  0  0  0  0  0  0  0
    9.6386  -14.8336   23.3360 O   0  0  0  0  0  0  0  0  0  0  0  0
    7.6036  -11.7995   25.6910 C   0  0  0  0  0  0  0  0  0  0  0  0
    6.6084  -12.9741   25.7883 C   0  0  2  0  0  0  0  0  0  0  0  0
    5.3692  -12.4454   26.4743 C   0  0  0  0  0  0  0  0  0  0  0  0
    7.2656  -14.0878   26.5336 C   0  0  0  0  0  0  0  0  0  0  0  0
    8.3604  -14.8092   25.8304 C   0  0  2  0  0  0  0  0  0  0  0  0
    7.8400  -15.4322   24.6074 N   0  0  0  0  0  0  0  0  0  0  0  0
    8.9971  -15.7875   26.7021 C   0  0  0  0  0  0  0  0  0  0  0  0
    8.7059  -16.9980   26.6369 O   0  0  0  0  0  0  0  0  0  0  0  0
    9.9645  -15.4105   27.6515 O   0  0  0  0  0  0  0  0  0  0  0  0
  2  1  1  1
  3  2  1  0
  4  5  2  0
  4  2  1  0
  6  4  1  0
  7  6  1  0
  8  7  1  0
  9  8  1  0
  9 10  1  0
 10 11  1  1
 10  6  1  0
 11 18  1  0
 12 11  2  0
 14 13  1  1
 14 15  1  0
 16 14  1  0
 17 16  1  1
 18 17  1  0
 19 21  1  0
 19 17  1  0
 20 19  2  0
M  END
$$$$
