APL.pdb
     RDKit          3D

 21 21  0  0  1  0  0  0  0  0999 V2000
   10.1196  -13.0264   19.6570 C   0  0  0  0  0  0  0  0  0  0  0  0
    8.6914  -13.4997   19.3616 C   0  0  2  0  0  0  0  0  0  0  0  0
    7.9746  -12.4303   18.7602 N   0  0  0  0  0  0  0  0  0  0  0  0
    8.0909  -14.1347   20.5270 C   0  0  0  0  0  0  0  0  0  0  0  0
    7.5084  -13.3673   21.3720 O   0  0  0  0  0  0  0  0  0  0  0  0
    8.0940  -15.5130   20.8080 N   0  0  0  0  0  0  0  0  0  0  0  0
    8.6181  -16.5348   19.9273 C   0  0  0  0  0  0  0  0  0  0  0  0
    7.8885  -17.8004   20.3511 C   0  0  0  0  0  0  0  0  0  0  0  0
    7.7842  -17.5895   21.8321 C   0  0  0  0  0  0  0  0  0  0  0  0
    7.6003  -16.1302   21.9877 C   0  0  1  0  0  0  0  0  0  0  0  0
    8.2124  -15.6007   23.2355 C   0  0  0  0  0  0  0  0  0  0  0  0
    9.4500  -15.3074   23.1723 O   0  0  0  0  0  0  0  0  0  0  0  0
    7.8234  -11.8033   25.8527 C   0  0  0  0  0  0  0  0  0  0  0  0
    6.7235  -12.8848   25.8675 C   0  0  2  0  0  0  0  0  0  0  0  0
    5.5526  -12.3114   26.6330 C   0  0  0  0  0  0  0  0  0  0  0  0
    7.2859  -14.1202   26.4880 C   0  0  0  0  0  0  0  0  0  0  0  0
    8.2384  -14.9100   25.6619 C   0  0  2  0  0  0  0  0  0  0  0  0
    7.5629  -15.3968   24.4530 N   0  0  0  0  0  0  0  0  0  0  0  0
    8.8244  -16.0030   26.4263 C   0  0  0  0  0  0  0  0  0  0  0  0
    9.5833  -15.7833   27.3909 O   0  0  0  0  0  0  0  0  0  0  0  0
    8.5606  -17.3484   26.1110 O   0  0  0  0  0  0  0  0  0  0  0  0
  2  1  1  1
  3  2  1  0
  4  5  2  0
  4  2  1  0
  6  4  1  0
  7  6  1  0
  8  7  1  0
  9  8  1  0
  9 10  1  0
 10 11  1  1
 10  6  1  0
 11 18  1  0
 12 11  2  0
 14 13  1  1
 14 15  1  0
 16 14  1  0
 17 16  1  1
 18 17  1  0
 19 21  1  0
 19 17  1  0
 20 19  2  0
M  END
$$$$
