APL.pdb
     RDKit          3D

 21 21  0  0  1  0  0  0  0  0999 V2000
   10.2441  -13.2698   19.5345 C   0  0  0  0  0  0  0  0  0  0  0  0
    8.7400  -13.5202   19.3742 C   0  0  2  0  0  0  0  0  0  0  0  0
    8.1375  -12.3437   18.8526 N   0  0  0  0  0  0  0  0  0  0  0  0
    8.1636  -14.0847   20.5871 C   0  0  0  0  0  0  0  0  0  0  0  0
    7.6813  -13.2594   21.4406 O   0  0  0  0  0  0  0  0  0  0  0  0
    8.0901  -15.4529   20.9055 N   0  0  0  0  0  0  0  0  0  0  0  0
    8.5506  -16.5262   20.0508 C   0  0  0  0  0  0  0  0  0  0  0  0
    7.7527  -17.7364   20.5117 C   0  0  0  0  0  0  0  0  0  0  0  0
    7.6686  -17.4801   21.9868 C   0  0  0  0  0  0  0  0  0  0  0  0
    7.5686  -16.0091   22.1034 C   0  0  1  0  0  0  0  0  0  0  0  0
    8.2165  -15.4818   23.3339 C   0  0  0  0  0  0  0  0  0  0  0  0
    9.4739  -15.2909   23.2679 O   0  0  0  0  0  0  0  0  0  0  0  0
    7.6514  -11.6750   25.6866 C   0  0  0  0  0  0  0  0  0  0  0  0
    6.6313  -12.7964   25.9720 C   0  0  2  0  0  0  0  0  0  0  0  0
    5.5612  -12.2028   26.8597 C   0  0  0  0  0  0  0  0  0  0  0  0
    7.3531  -13.9406   26.6026 C   0  0  0  0  0  0  0  0  0  0  0  0
    8.2889  -14.7027   25.7325 C   0  0  2  0  0  0  0  0  0  0  0  0
    7.5809  -15.1793   24.5383 N   0  0  0  0  0  0  0  0  0  0  0  0
    8.9151  -15.7994   26.4588 C   0  0  0  0  0  0  0  0  0  0  0  0
    8.5187  -16.9739   26.3241 O   0  0  0  0  0  0  0  0  0  0  0  0
    9.9899  -15.5821   27.3401 O   0  0  0  0  0  0  0  0  0  0  0  0
  2  1  1  1
  3  2  1  0
  4  5  2  0
  4  2  1  0
  6  4  1  0
  7  6  1  0
  8  7  1  0
  9  8  1  0
  9 10  1  0
 10 11  1  1
 10  6  1  0
 11 18  1  0
 12 11  2  0
 14 13  1  1
 14 15  1  0
 16 14  1  0
 17 16  1  1
 18 17  1  0
 19 21  1  0
 19 17  1  0
 20 19  2  0
M  END
$$$$
