APL.pdb
     RDKit          3D

 21 21  0  0  1  0  0  0  0  0999 V2000
    5.7290  -17.9397   21.3036 C   0  0  0  0  0  0  0  0  0  0  0  0
    6.8179  -17.5182   20.3098 C   0  0  2  0  0  0  0  0  0  0  0  0
    7.4465  -18.6875   19.8032 N   0  0  0  0  0  0  0  0  0  0  0  0
    7.6791  -16.4867   20.8720 C   0  0  0  0  0  0  0  0  0  0  0  0
    8.4234  -16.8247   21.8590 O   0  0  0  0  0  0  0  0  0  0  0  0
    7.7662  -15.1542   20.4298 N   0  0  0  0  0  0  0  0  0  0  0  0
    7.0719  -14.6185   19.2785 C   0  0  0  0  0  0  0  0  0  0  0  0
    7.9025  -13.4107   18.8726 C   0  0  0  0  0  0  0  0  0  0  0  0
    8.3419  -12.9008   20.2126 C   0  0  0  0  0  0  0  0  0  0  0  0
    8.5300  -14.1187   21.0304 C   0  0  1  0  0  0  0  0  0  0  0  0
    8.2128  -13.9041   22.4674 C   0  0  0  0  0  0  0  0  0  0  0  0
    7.3703  -12.9843   22.7245 O   0  0  0  0  0  0  0  0  0  0  0  0
    5.6775  -12.9814   26.9551 C   0  0  0  0  0  0  0  0  0  0  0  0
    7.1831  -13.2148   26.7139 C   0  0  2  0  0  0  0  0  0  0  0  0
    7.8773  -11.8932   26.9530 C   0  0  0  0  0  0  0  0  0  0  0  0
    7.3630  -13.7330   25.3257 C   0  0  0  0  0  0  0  0  0  0  0  0
    8.7461  -14.1070   24.9250 C   0  0  2  0  0  0  0  0  0  0  0  0
    8.7454  -14.6102   23.5461 N   0  0  0  0  0  0  0  0  0  0  0  0
    9.3234  -15.0741   25.8491 C   0  0  0  0  0  0  0  0  0  0  0  0
    9.4847  -14.7999   27.0546 O   0  0  0  0  0  0  0  0  0  0  0  0
    9.7222  -16.3543   25.4233 O   0  0  0  0  0  0  0  0  0  0  0  0
  2  1  1  1
  3  2  1  0
  4  5  2  0
  4  2  1  0
  6  4  1  0
  7  6  1  0
  8  7  1  0
  9  8  1  0
  9 10  1  0
 10 11  1  1
 10  6  1  0
 11 18  1  0
 12 11  2  0
 14 13  1  6
 14 15  1  0
 16 14  1  0
 17 16  1  1
 18 17  1  0
 19 21  1  0
 19 17  1  0
 20 19  2  0
M  END
$$$$
