APL.pdb
     RDKit          3D

 21 21  0  0  1  0  0  0  0  0999 V2000
    5.9029  -18.4475   22.6712 C   0  0  0  0  0  0  0  0  0  0  0  0
    6.7745  -18.1328   21.4496 C   0  0  2  0  0  0  0  0  0  0  0  0
    7.1995  -19.3578   20.8682 N   0  0  0  0  0  0  0  0  0  0  0  0
    7.8035  -17.1527   21.7699 C   0  0  0  0  0  0  0  0  0  0  0  0
    8.8705  -17.5910   22.3282 O   0  0  0  0  0  0  0  0  0  0  0  0
    7.7304  -15.7700   21.5226 N   0  0  0  0  0  0  0  0  0  0  0  0
    6.6515  -15.1125   20.8168 C   0  0  0  0  0  0  0  0  0  0  0  0
    7.2762  -13.8264   20.2982 C   0  0  0  0  0  0  0  0  0  0  0  0
    8.2075  -13.4855   21.4230 C   0  0  0  0  0  0  0  0  0  0  0  0
    8.6813  -14.7943   21.9229 C   0  0  1  0  0  0  0  0  0  0  0  0
    8.9488  -14.7913   23.3859 C   0  0  0  0  0  0  0  0  0  0  0  0
   10.0375  -14.2436   23.7558 O   0  0  0  0  0  0  0  0  0  0  0  0
    8.1232  -12.1176   26.5893 C   0  0  0  0  0  0  0  0  0  0  0  0
    7.0412  -13.0278   25.9726 C   0  0  2  0  0  0  0  0  0  0  0  0
    5.7018  -12.4648   26.3904 C   0  0  0  0  0  0  0  0  0  0  0  0
    7.2701  -14.4228   26.4517 C   0  0  0  0  0  0  0  0  0  0  0  0
    8.3849  -15.1746   25.8150 C   0  0  2  0  0  0  0  0  0  0  0  0
    8.1263  -15.3251   24.3780 N   0  0  0  0  0  0  0  0  0  0  0  0
    8.5931  -16.4636   26.4610 C   0  0  0  0  0  0  0  0  0  0  0  0
    8.3306  -17.5313   25.8731 O   0  0  0  0  0  0  0  0  0  0  0  0
    9.0974  -16.5595   27.7709 O   0  0  0  0  0  0  0  0  0  0  0  0
  2  1  1  1
  3  2  1  0
  4  5  2  0
  4  2  1  0
  6  4  1  0
  7  6  1  0
  8  7  1  0
  9  8  1  0
  9 10  1  0
 10 11  1  1
 10  6  1  0
 11 18  1  0
 12 11  2  0
 14 13  1  1
 14 15  1  0
 16 14  1  0
 17 16  1  1
 18 17  1  0
 19 21  1  0
 19 17  1  0
 20 19  2  0
M  END
$$$$
