APL.pdb
     RDKit          3D

 21 21  0  0  1  0  0  0  0  0999 V2000
   10.1160  -13.4371   19.4081 C   0  0  0  0  0  0  0  0  0  0  0  0
    8.6034  -13.6481   19.2726 C   0  0  2  0  0  0  0  0  0  0  0  0
    8.0311  -12.4769   18.7068 N   0  0  0  0  0  0  0  0  0  0  0  0
    8.0231  -14.1428   20.5138 C   0  0  0  0  0  0  0  0  0  0  0  0
    7.6325  -13.2663   21.3632 O   0  0  0  0  0  0  0  0  0  0  0  0
    7.8542  -15.4948   20.8634 N   0  0  0  0  0  0  0  0  0  0  0  0
    8.2197  -16.6169   20.0258 C   0  0  0  0  0  0  0  0  0  0  0  0
    7.3427  -17.7547   20.5256 C   0  0  0  0  0  0  0  0  0  0  0  0
    7.3027  -17.4621   21.9957 C   0  0  0  0  0  0  0  0  0  0  0  0
    7.3135  -15.9856   22.0813 C   0  0  1  0  0  0  0  0  0  0  0  0
    8.0192  -15.4821   23.2897 C   0  0  0  0  0  0  0  0  0  0  0  0
    9.2846  -15.3734   23.1956 O   0  0  0  0  0  0  0  0  0  0  0  0
    7.5892  -11.6721   25.5877 C   0  0  0  0  0  0  0  0  0  0  0  0
    6.5738  -12.7662   25.9769 C   0  0  2  0  0  0  0  0  0  0  0  0
    5.5790  -12.1283   26.9197 C   0  0  0  0  0  0  0  0  0  0  0  0
    7.3198  -13.9051   26.5886 C   0  0  0  0  0  0  0  0  0  0  0  0
    8.1929  -14.6976   25.6813 C   0  0  2  0  0  0  0  0  0  0  0  0
    7.4295  -15.1210   24.5012 N   0  0  0  0  0  0  0  0  0  0  0  0
    8.7853  -15.8342   26.3736 C   0  0  0  0  0  0  0  0  0  0  0  0
    8.3391  -16.9884   26.2211 O   0  0  0  0  0  0  0  0  0  0  0  0
    9.8823  -15.6798   27.2409 O   0  0  0  0  0  0  0  0  0  0  0  0
  2  1  1  1
  3  2  1  0
  4  5  2  0
  4  2  1  0
  6  4  1  0
  7  6  1  0
  8  7  1  0
  9  8  1  0
  9 10  1  0
 10 11  1  1
 10  6  1  0
 11 18  1  0
 12 11  2  0
 14 13  1  1
 14 15  1  0
 16 14  1  0
 17 16  1  1
 18 17  1  0
 19 21  1  0
 19 17  1  0
 20 19  2  0
M  END
$$$$
