LWR.pdb
     RDKit          3D

 34 35  0  0  1  0  0  0  0  0999 V2000
   27.6683  -24.0743  -17.1004 C   0  0  0  0  0  0  0  0  0  0  0  0
   27.9060  -22.6501  -16.7015 C   0  0  2  0  0  0  0  0  0  0  0  0
   29.0297  -22.6270  -15.6841 C   0  0  0  0  0  0  0  0  0  0  0  0
   26.7257  -21.8654  -16.3124 C   0  0  0  0  0  0  0  0  0  0  0  0
   25.5872  -21.7588  -17.2457 C   0  0  2  0  0  0  0  0  0  0  0  0
   25.9810  -21.6482  -18.6382 N   0  0  0  0  0  0  0  0  0  0  0  0
   24.4899  -20.8506  -16.8596 C   0  0  0  0  0  0  0  0  0  0  0  0
   24.0081  -20.9279  -15.7170 O   0  0  0  0  0  0  0  0  0  0  0  0
   23.9365  -19.8769  -17.7244 N   0  0  0  0  0  0  0  0  0  0  0  0
   22.8906  -18.9674  -17.3790 C   0  0  1  0  0  0  0  0  0  0  0  0
   22.7220  -17.7945  -18.2547 C   0  0  0  0  0  0  0  0  0  0  0  0
   21.6476  -16.8534  -17.8696 C   0  0  0  0  0  0  0  0  0  0  0  0
   21.7511  -15.8984  -16.8920 C   0  0  0  0  0  0  0  0  0  0  0  0
   20.5708  -15.2276  -16.8290 N   0  0  0  0  0  0  0  0  0  0  0  0
   19.7092  -15.7342  -17.7493 C   0  0  0  0  0  0  0  0  0  0  0  0
   18.4020  -15.3963  -18.0726 C   0  0  0  0  0  0  0  0  0  0  0  0
   17.7351  -16.0772  -19.0650 C   0  0  0  0  0  0  0  0  0  0  0  0
   18.4039  -17.1080  -19.7319 C   0  0  0  0  0  0  0  0  0  0  0  0
   19.7009  -17.4365  -19.4046 C   0  0  0  0  0  0  0  0  0  0  0  0
   20.3887  -16.7488  -18.3951 C   0  0  0  0  0  0  0  0  0  0  0  0
   21.5956  -19.7526  -17.4539 C   0  0  0  0  0  0  0  0  0  0  0  0
   21.5240  -20.7663  -18.1928 O   0  0  0  0  0  0  0  0  0  0  0  0
   20.3927  -22.6531  -11.7825 N   0  0  0  0  0  0  0  0  0  0  0  0
   18.9763  -22.6856  -11.6774 C   0  0  0  0  0  0  0  0  0  0  0  0
   18.3946  -22.6014  -10.5172 N   0  0  0  0  0  0  0  0  0  0  0  0
   18.1224  -22.8090  -12.7997 N   0  0  0  0  0  0  0  0  0  0  0  0
   18.6592  -22.8188  -14.1468 C   0  0  0  0  0  0  0  0  0  0  0  0
   18.6623  -21.4360  -14.7456 C   0  0  0  0  0  0  0  0  0  0  0  0
   19.1914  -21.4199  -16.1629 C   0  0  0  0  0  0  0  0  0  0  0  0
   19.1867  -20.0288  -16.6859 C   0  0  2  0  0  0  0  0  0  0  0  0
   20.4655  -19.3717  -16.7107 N   0  0  0  0  0  0  0  0  0  0  0  0
   18.1066  -19.2300  -16.0216 C   0  0  0  0  0  0  0  0  0  0  0  0
   18.4291  -18.1840  -15.1728 O   0  0  0  0  0  0  0  0  0  0  0  0
   16.9230  -19.5039  -16.2308 O   0  0  0  0  0  0  0  0  0  0  0  0
  2  1  1  1
  2  3  1  0
  4  2  1  0
  5  4  1  0
  5  6  1  6
  7  5  1  0
  8  7  2  0
  9  7  1  0
 10 21  1  0
 10  9  1  0
 11 12  1  0
 10 11  1  6
 12 13  2  0
 13 14  1  0
 15 14  1  0
 16 15  2  0
 17 16  1  0
 18 19  1  0
 18 17  2  0
 19 20  2  0
 20 15  1  0
 20 12  1  0
 21 31  1  0
 22 21  2  0
 23 24  1  0
 24 26  1  0
 24 25  2  0
 26 27  1  0
 28 29  1  0
 28 27  1  0
 30 32  1  0
 30 29  1  1
 31 30  1  0
 32 34  2  0
 32 33  1  0
M  END
$$$$
