LWR.pdb
     RDKit          3D

 34 35  0  0  1  0  0  0  0  0999 V2000
   28.8275  -21.2108  -17.9022 C   0  0  0  0  0  0  0  0  0  0  0  0
   29.4134  -21.7216  -16.6215 C   0  0  2  0  0  0  0  0  0  0  0  0
   30.3955  -22.8257  -16.9600 C   0  0  0  0  0  0  0  0  0  0  0  0
   28.4669  -22.0654  -15.5509 C   0  0  0  0  0  0  0  0  0  0  0  0
   27.5466  -21.0315  -15.0384 C   0  0  2  0  0  0  0  0  0  0  0  0
   28.1736  -19.7380  -14.8377 N   0  0  0  0  0  0  0  0  0  0  0  0
   26.6341  -21.4302  -13.9492 C   0  0  0  0  0  0  0  0  0  0  0  0
   26.0932  -22.5482  -13.9858 O   0  0  0  0  0  0  0  0  0  0  0  0
   26.3261  -20.6046  -12.8422 N   0  0  0  0  0  0  0  0  0  0  0  0
   25.4420  -20.9528  -11.7755 C   0  0  1  0  0  0  0  0  0  0  0  0
   25.7463  -20.3773  -10.4537 C   0  0  0  0  0  0  0  0  0  0  0  0
   27.0832  -20.6951   -9.9061 C   0  0  0  0  0  0  0  0  0  0  0  0
   28.0283  -21.4640  -10.5340 C   0  0  0  0  0  0  0  0  0  0  0  0
   29.1233  -21.5279   -9.7314 N   0  0  0  0  0  0  0  0  0  0  0  0
   28.8995  -20.8134   -8.5977 C   0  0  0  0  0  0  0  0  0  0  0  0
   29.6962  -20.5746   -7.4861 C   0  0  0  0  0  0  0  0  0  0  0  0
   29.2265  -19.8009   -6.4498 C   0  0  0  0  0  0  0  0  0  0  0  0
   27.9378  -19.2673   -6.5467 C   0  0  0  0  0  0  0  0  0  0  0  0
   27.1543  -19.5094   -7.6534 C   0  0  0  0  0  0  0  0  0  0  0  0
   27.6238  -20.2964   -8.7141 C   0  0  0  0  0  0  0  0  0  0  0  0
   24.0713  -20.4363  -12.1669 C   0  0  0  0  0  0  0  0  0  0  0  0
   23.6719  -19.3312  -11.7218 O   0  0  0  0  0  0  0  0  0  0  0  0
   17.7629  -25.2967  -12.0088 N   0  0  0  0  0  0  0  0  0  0  0  0
   17.2740  -24.2592  -12.8473 C   0  0  0  0  0  0  0  0  0  0  0  0
   16.0033  -23.9862  -12.8933 N   0  0  0  0  0  0  0  0  0  0  0  0
   18.1151  -23.4716  -13.6695 N   0  0  0  0  0  0  0  0  0  0  0  0
   19.5497  -23.6824  -13.6868 C   0  0  0  0  0  0  0  0  0  0  0  0
   20.1771  -23.2902  -12.3742 C   0  0  0  0  0  0  0  0  0  0  0  0
   21.6575  -23.0051  -12.5023 C   0  0  0  0  0  0  0  0  0  0  0  0
   21.8699  -21.5587  -12.7697 C   0  0  2  0  0  0  0  0  0  0  0  0
   23.2307  -21.1686  -13.0223 N   0  0  0  0  0  0  0  0  0  0  0  0
   21.1861  -20.7330  -11.7226 C   0  0  0  0  0  0  0  0  0  0  0  0
   20.0931  -19.9483  -12.0514 O   0  0  0  0  0  0  0  0  0  0  0  0
   21.5974  -20.7510  -10.5606 O   0  0  0  0  0  0  0  0  0  0  0  0
  2  1  1  6
  2  3  1  0
  4  2  1  0
  5  4  1  0
  5  6  1  1
  7  5  1  0
  8  7  2  0
  9  7  1  0
 10 21  1  0
 10  9  1  0
 11 12  1  0
 10 11  1  1
 12 13  2  0
 13 14  1  0
 15 14  1  0
 16 15  2  0
 17 16  1  0
 18 19  1  0
 18 17  2  0
 19 20  2  0
 20 15  1  0
 20 12  1  0
 21 31  1  0
 22 21  2  0
 23 24  1  0
 24 26  1  0
 24 25  2  0
 26 27  1  0
 28 29  1  0
 28 27  1  0
 30 32  1  0
 30 29  1  1
 31 30  1  0
 32 34  2  0
 32 33  1  0
M  END
$$$$
