LWR.pdb
     RDKit          3D

 34 35  0  0  1  0  0  0  0  0999 V2000
   30.0495  -22.1846  -17.7416 C   0  0  0  0  0  0  0  0  0  0  0  0
   29.3204  -21.1100  -18.4885 C   0  0  2  0  0  0  0  0  0  0  0  0
   30.3345  -20.3310  -19.3027 C   0  0  0  0  0  0  0  0  0  0  0  0
   28.4003  -20.2693  -17.7094 C   0  0  0  0  0  0  0  0  0  0  0  0
   27.5193  -20.8977  -16.7057 C   0  0  2  0  0  0  0  0  0  0  0  0
   27.0274  -22.2060  -17.0967 N   0  0  0  0  0  0  0  0  0  0  0  0
   26.4973  -20.0357  -16.0811 C   0  0  0  0  0  0  0  0  0  0  0  0
   26.8312  -18.9326  -15.6169 O   0  0  0  0  0  0  0  0  0  0  0  0
   25.1319  -20.3908  -15.9716 N   0  0  0  0  0  0  0  0  0  0  0  0
   24.0881  -19.5229  -15.5269 C   0  0  1  0  0  0  0  0  0  0  0  0
   23.3560  -18.7847  -16.5710 C   0  0  0  0  0  0  0  0  0  0  0  0
   22.4154  -17.7503  -16.0877 C   0  0  0  0  0  0  0  0  0  0  0  0
   21.0500  -17.8209  -16.1855 C   0  0  0  0  0  0  0  0  0  0  0  0
   20.5274  -16.6954  -15.6311 N   0  0  0  0  0  0  0  0  0  0  0  0
   21.5326  -15.9016  -15.1782 C   0  0  0  0  0  0  0  0  0  0  0  0
   21.5176  -14.6664  -14.5444 C   0  0  0  0  0  0  0  0  0  0  0  0
   22.6976  -14.0600  -14.1797 C   0  0  0  0  0  0  0  0  0  0  0  0
   23.8996  -14.7157  -14.4622 C   0  0  0  0  0  0  0  0  0  0  0  0
   23.9050  -15.9411  -15.0912 C   0  0  0  0  0  0  0  0  0  0  0  0
   22.7083  -16.5669  -15.4667 C   0  0  0  0  0  0  0  0  0  0  0  0
   23.0707  -20.3993  -14.8229 C   0  0  0  0  0  0  0  0  0  0  0  0
   22.8054  -21.5381  -15.2829 O   0  0  0  0  0  0  0  0  0  0  0  0
   19.5960  -22.6978   -8.3250 N   0  0  0  0  0  0  0  0  0  0  0  0
   18.3097  -22.1858   -8.6439 C   0  0  0  0  0  0  0  0  0  0  0  0
   17.2350  -22.8437   -8.3222 N   0  0  0  0  0  0  0  0  0  0  0  0
   18.1145  -20.9559   -9.3170 N   0  0  0  0  0  0  0  0  0  0  0  0
   19.2410  -20.1992   -9.8281 C   0  0  0  0  0  0  0  0  0  0  0  0
   19.8151  -20.8393  -11.0654 C   0  0  0  0  0  0  0  0  0  0  0  0
   20.8579  -19.9718  -11.7356 C   0  0  0  0  0  0  0  0  0  0  0  0
   21.3214  -20.6205  -12.9898 C   0  0  2  0  0  0  0  0  0  0  0  0
   22.4128  -19.9660  -13.6592 N   0  0  0  0  0  0  0  0  0  0  0  0
   20.1535  -20.9178  -13.8807 C   0  0  0  0  0  0  0  0  0  0  0  0
   19.6837  -22.2142  -14.0120 O   0  0  0  0  0  0  0  0  0  0  0  0
   19.6060  -20.0041  -14.5013 O   0  0  0  0  0  0  0  0  0  0  0  0
  2  1  1  1
  2  3  1  0
  4  2  1  0
  5  4  1  0
  5  6  1  6
  7  5  1  0
  8  7  2  0
  9  7  1  0
 10 21  1  0
 10  9  1  0
 11 12  1  0
 10 11  1  6
 12 13  2  0
 13 14  1  0
 15 14  1  0
 16 15  2  0
 17 16  1  0
 18 19  1  0
 18 17  2  0
 19 20  2  0
 20 15  1  0
 20 12  1  0
 21 31  1  0
 22 21  2  0
 23 24  1  0
 24 26  1  0
 24 25  2  0
 26 27  1  0
 28 29  1  0
 28 27  1  0
 30 32  1  0
 30 29  1  1
 31 30  1  0
 32 34  2  0
 32 33  1  0
M  END
$$$$
