LWR.pdb
     RDKit          3D

 34 35  0  0  1  0  0  0  0  0999 V2000
   28.4788  -22.6595  -18.2773 C   0  0  0  0  0  0  0  0  0  0  0  0
   29.2705  -22.4982  -17.0158 C   0  0  2  0  0  0  0  0  0  0  0  0
   30.4799  -23.4085  -17.0989 C   0  0  0  0  0  0  0  0  0  0  0  0
   28.5285  -22.5973  -15.7509 C   0  0  0  0  0  0  0  0  0  0  0  0
   27.3416  -21.7459  -15.5392 C   0  0  2  0  0  0  0  0  0  0  0  0
   27.5686  -20.3426  -15.8321 N   0  0  0  0  0  0  0  0  0  0  0  0
   26.5610  -21.9823  -14.3092 C   0  0  0  0  0  0  0  0  0  0  0  0
   26.3816  -23.1470  -13.9156 O   0  0  0  0  0  0  0  0  0  0  0  0
   25.9889  -20.9474  -13.5321 N   0  0  0  0  0  0  0  0  0  0  0  0
   25.2931  -21.1322  -12.2983 C   0  0  1  0  0  0  0  0  0  0  0  0
   25.7382  -20.3074  -11.1614 C   0  0  0  0  0  0  0  0  0  0  0  0
   26.9731  -20.7592  -10.4837 C   0  0  0  0  0  0  0  0  0  0  0  0
   28.0156  -21.4049  -11.0960 C   0  0  0  0  0  0  0  0  0  0  0  0
   28.9677  -21.6547  -10.1588 N   0  0  0  0  0  0  0  0  0  0  0  0
   28.5562  -21.1810   -8.9538 C   0  0  0  0  0  0  0  0  0  0  0  0
   29.1607  -21.1908   -7.7040 C   0  0  0  0  0  0  0  0  0  0  0  0
   28.5215  -20.6340   -6.6203 C   0  0  0  0  0  0  0  0  0  0  0  0
   27.2593  -20.0638   -6.8109 C   0  0  0  0  0  0  0  0  0  0  0  0
   26.6670  -20.0585   -8.0545 C   0  0  0  0  0  0  0  0  0  0  0  0
   27.3101  -20.6233   -9.1646 C   0  0  0  0  0  0  0  0  0  0  0  0
   23.8464  -20.7619  -12.5608 C   0  0  0  0  0  0  0  0  0  0  0  0
   23.5705  -19.6396  -13.0539 O   0  0  0  0  0  0  0  0  0  0  0  0
   20.1586  -27.8718  -12.3993 N   0  0  0  0  0  0  0  0  0  0  0  0
   20.1209  -27.2763  -13.6886 C   0  0  0  0  0  0  0  0  0  0  0  0
   20.0337  -28.0122  -14.7573 N   0  0  0  0  0  0  0  0  0  0  0  0
   20.1745  -25.8766  -13.8934 N   0  0  0  0  0  0  0  0  0  0  0  0
   20.3168  -24.9648  -12.7748 C   0  0  0  0  0  0  0  0  0  0  0  0
   20.3549  -23.5314  -13.2376 C   0  0  0  0  0  0  0  0  0  0  0  0
   20.5037  -22.5562  -12.0905 C   0  0  0  0  0  0  0  0  0  0  0  0
   21.3952  -21.4376  -12.4935 C   0  0  2  0  0  0  0  0  0  0  0  0
   22.7988  -21.6504  -12.2645 N   0  0  0  0  0  0  0  0  0  0  0  0
   20.8802  -20.1418  -11.9443 C   0  0  0  0  0  0  0  0  0  0  0  0
   19.9110  -19.4261  -12.6279 O   0  0  0  0  0  0  0  0  0  0  0  0
   21.3204  -19.7085  -10.8774 O   0  0  0  0  0  0  0  0  0  0  0  0
  2  1  1  6
  2  3  1  0
  4  2  1  0
  5  4  1  0
  5  6  1  1
  7  5  1  0
  8  7  2  0
  9  7  1  0
 10 21  1  0
 10  9  1  0
 11 12  1  0
 10 11  1  1
 12 13  2  0
 13 14  1  0
 15 14  1  0
 16 15  2  0
 17 16  1  0
 18 19  1  0
 18 17  2  0
 19 20  2  0
 20 15  1  0
 20 12  1  0
 21 31  1  0
 22 21  2  0
 23 24  1  0
 24 26  1  0
 24 25  2  0
 26 27  1  0
 28 29  1  0
 28 27  1  0
 30 32  1  0
 30 29  1  1
 31 30  1  0
 32 34  2  0
 32 33  1  0
M  END
$$$$
