LWR.pdb
     RDKit          3D

 34 35  0  0  1  0  0  0  0  0999 V2000
   28.2997  -20.1591  -17.9009 C   0  0  0  0  0  0  0  0  0  0  0  0
   29.0220  -21.0828  -16.9686 C   0  0  2  0  0  0  0  0  0  0  0  0
   29.5130  -22.2722  -17.7703 C   0  0  0  0  0  0  0  0  0  0  0  0
   28.3293  -21.4414  -15.7228 C   0  0  0  0  0  0  0  0  0  0  0  0
   27.8233  -20.3708  -14.8418 C   0  0  2  0  0  0  0  0  0  0  0  0
   28.7058  -19.2222  -14.7510 N   0  0  0  0  0  0  0  0  0  0  0  0
   27.2467  -20.7868  -13.5486 C   0  0  0  0  0  0  0  0  0  0  0  0
   26.4367  -21.7285  -13.5171 O   0  0  0  0  0  0  0  0  0  0  0  0
   27.5607  -20.1695  -12.3148 N   0  0  0  0  0  0  0  0  0  0  0  0
   27.0641  -20.5780  -11.0392 C   0  0  1  0  0  0  0  0  0  0  0  0
   27.7640  -20.0433   -9.8581 C   0  0  0  0  0  0  0  0  0  0  0  0
   27.1170  -20.3049   -8.5538 C   0  0  0  0  0  0  0  0  0  0  0  0
   25.8839  -20.8801   -8.3885 C   0  0  0  0  0  0  0  0  0  0  0  0
   25.6302  -20.9614   -7.0557 N   0  0  0  0  0  0  0  0  0  0  0  0
   26.6784  -20.4484   -6.3603 C   0  0  0  0  0  0  0  0  0  0  0  0
   26.8991  -20.3058   -4.9970 C   0  0  0  0  0  0  0  0  0  0  0  0
   28.0681  -19.7429   -4.5390 C   0  0  0  0  0  0  0  0  0  0  0  0
   29.0177  -19.3231   -5.4753 C   0  0  0  0  0  0  0  0  0  0  0  0
   28.7905  -19.4685   -6.8260 C   0  0  0  0  0  0  0  0  0  0  0  0
   27.6028  -20.0407   -7.3024 C   0  0  0  0  0  0  0  0  0  0  0  0
   25.6337  -20.0819  -10.9555 C   0  0  0  0  0  0  0  0  0  0  0  0
   25.3779  -18.8757  -11.1971 O   0  0  0  0  0  0  0  0  0  0  0  0
   21.5902  -26.4640  -14.0184 N   0  0  0  0  0  0  0  0  0  0  0  0
   22.1639  -25.3158  -14.6274 C   0  0  0  0  0  0  0  0  0  0  0  0
   23.1810  -25.4284  -15.4299 N   0  0  0  0  0  0  0  0  0  0  0  0
   21.6803  -24.0036  -14.4078 N   0  0  0  0  0  0  0  0  0  0  0  0
   21.1943  -23.5972  -13.1034 C   0  0  0  0  0  0  0  0  0  0  0  0
   21.7284  -22.2422  -12.7173 C   0  0  0  0  0  0  0  0  0  0  0  0
   23.0381  -22.3289  -11.9647 C   0  0  0  0  0  0  0  0  0  0  0  0
   23.3001  -21.0461  -11.2615 C   0  0  2  0  0  0  0  0  0  0  0  0
   24.5793  -20.9452  -10.6126 N   0  0  0  0  0  0  0  0  0  0  0  0
   22.1418  -20.6943  -10.3781 C   0  0  0  0  0  0  0  0  0  0  0  0
   22.3326  -20.4823   -9.0226 O   0  0  0  0  0  0  0  0  0  0  0  0
   21.0112  -20.5923  -10.8588 O   0  0  0  0  0  0  0  0  0  0  0  0
  2  1  1  6
  2  3  1  0
  4  2  1  0
  5  4  1  0
  5  6  1  1
  7  5  1  0
  8  7  2  0
  9  7  1  0
 10 21  1  0
 10  9  1  0
 11 12  1  0
 10 11  1  1
 12 13  2  0
 13 14  1  0
 15 14  1  0
 16 15  2  0
 17 16  1  0
 18 19  1  0
 18 17  2  0
 19 20  2  0
 20 15  1  0
 20 12  1  0
 21 31  1  0
 22 21  2  0
 23 24  1  0
 24 26  1  0
 24 25  2  0
 26 27  1  0
 28 29  1  0
 28 27  1  0
 30 32  1  0
 30 29  1  1
 31 30  1  0
 32 34  2  0
 32 33  1  0
M  END
$$$$
