LWR.pdb
     RDKit          3D

 34 35  0  0  1  0  0  0  0  0999 V2000
   32.8186  -22.9586  -10.8446 C   0  0  0  0  0  0  0  0  0  0  0  0
   32.5430  -22.2325   -9.5636 C   0  0  2  0  0  0  0  0  0  0  0  0
   33.5552  -22.6936   -8.5335 C   0  0  0  0  0  0  0  0  0  0  0  0
   31.1531  -22.2369   -9.0855 C   0  0  0  0  0  0  0  0  0  0  0  0
   30.0804  -21.7482   -9.9737 C   0  0  2  0  0  0  0  0  0  0  0  0
   30.3966  -20.4979  -10.6395 N   0  0  0  0  0  0  0  0  0  0  0  0
   28.7004  -21.8183   -9.4554 C   0  0  0  0  0  0  0  0  0  0  0  0
   28.2357  -22.9164   -9.1058 O   0  0  0  0  0  0  0  0  0  0  0  0
   27.8517  -20.6932   -9.3290 N   0  0  0  0  0  0  0  0  0  0  0  0
   26.4756  -20.7379   -8.9487 C   0  0  1  0  0  0  0  0  0  0  0  0
   26.0912  -19.9383   -7.7723 C   0  0  0  0  0  0  0  0  0  0  0  0
   27.2094  -19.4029   -6.9653 C   0  0  0  0  0  0  0  0  0  0  0  0
   27.9008  -18.2527   -7.2441 C   0  0  0  0  0  0  0  0  0  0  0  0
   28.8464  -18.0838   -6.2825 N   0  0  0  0  0  0  0  0  0  0  0  0
   28.7757  -19.1053   -5.3896 C   0  0  0  0  0  0  0  0  0  0  0  0
   29.5134  -19.3837   -4.2469 C   0  0  0  0  0  0  0  0  0  0  0  0
   29.2381  -20.5061   -3.5003 C   0  0  0  0  0  0  0  0  0  0  0  0
   28.2052  -21.3496   -3.9201 C   0  0  0  0  0  0  0  0  0  0  0  0
   27.4784  -21.0656   -5.0552 C   0  0  0  0  0  0  0  0  0  0  0  0
   27.7513  -19.9247   -5.8225 C   0  0  0  0  0  0  0  0  0  0  0  0
   25.6871  -20.1884  -10.1214 C   0  0  0  0  0  0  0  0  0  0  0  0
   26.2874  -19.5944  -11.0517 O   0  0  0  0  0  0  0  0  0  0  0  0
   21.4172  -22.9674  -17.1155 N   0  0  0  0  0  0  0  0  0  0  0  0
   20.9412  -23.0270  -15.7783 C   0  0  0  0  0  0  0  0  0  0  0  0
   19.6704  -22.9259  -15.5210 N   0  0  0  0  0  0  0  0  0  0  0  0
   21.7957  -23.1958  -14.6624 N   0  0  0  0  0  0  0  0  0  0  0  0
   21.8620  -22.1938  -13.6163 C   0  0  0  0  0  0  0  0  0  0  0  0
   23.2027  -21.5062  -13.6002 C   0  0  0  0  0  0  0  0  0  0  0  0
   23.8996  -21.6272  -12.2628 C   0  0  0  0  0  0  0  0  0  0  0  0
   23.5006  -20.4975  -11.3835 C   0  0  2  0  0  0  0  0  0  0  0  0
   24.2908  -20.3290  -10.1940 N   0  0  0  0  0  0  0  0  0  0  0  0
   22.0238  -20.5349  -11.1310 C   0  0  0  0  0  0  0  0  0  0  0  0
   21.1903  -19.5879  -11.7030 O   0  0  0  0  0  0  0  0  0  0  0  0
   21.5459  -21.4133  -10.4102 O   0  0  0  0  0  0  0  0  0  0  0  0
  2  1  1  6
  2  3  1  0
  4  2  1  0
  5  4  1  0
  5  6  1  1
  7  5  1  0
  8  7  2  0
  9  7  1  0
 10 21  1  0
 10  9  1  0
 11 12  1  0
 10 11  1  1
 12 13  2  0
 13 14  1  0
 15 14  1  0
 16 15  2  0
 17 16  1  0
 18 19  1  0
 18 17  2  0
 19 20  2  0
 20 15  1  0
 20 12  1  0
 21 31  1  0
 22 21  2  0
 23 24  1  0
 24 26  1  0
 24 25  2  0
 26 27  1  0
 28 29  1  0
 28 27  1  0
 30 32  1  0
 30 29  1  1
 31 30  1  0
 32 34  2  0
 32 33  1  0
M  END
$$$$
