LWR.pdb
     RDKit          3D

 34 35  0  0  1  0  0  0  0  0999 V2000
   28.9500  -17.4017  -16.8815 C   0  0  0  0  0  0  0  0  0  0  0  0
   29.4747  -18.7813  -16.6255 C   0  0  2  0  0  0  0  0  0  0  0  0
   30.1703  -19.2619  -17.8838 C   0  0  0  0  0  0  0  0  0  0  0  0
   28.5327  -19.7521  -16.0504 C   0  0  0  0  0  0  0  0  0  0  0  0
   27.7963  -19.4046  -14.8193 C   0  0  2  0  0  0  0  0  0  0  0  0
   28.5798  -18.6421  -13.8648 N   0  0  0  0  0  0  0  0  0  0  0  0
   26.9779  -20.4694  -14.2076 C   0  0  0  0  0  0  0  0  0  0  0  0
   26.4189  -21.3044  -14.9384 O   0  0  0  0  0  0  0  0  0  0  0  0
   26.7817  -20.6045  -12.8128 N   0  0  0  0  0  0  0  0  0  0  0  0
   25.9376  -21.5739  -12.1897 C   0  0  1  0  0  0  0  0  0  0  0  0
   26.4035  -22.1239  -10.9046 C   0  0  0  0  0  0  0  0  0  0  0  0
   26.5032  -21.1570   -9.7896 C   0  0  0  0  0  0  0  0  0  0  0  0
   25.5077  -20.2990   -9.4006 C   0  0  0  0  0  0  0  0  0  0  0  0
   25.9626  -19.5735   -8.3451 N   0  0  0  0  0  0  0  0  0  0  0  0
   27.2338  -19.9496   -8.0480 C   0  0  0  0  0  0  0  0  0  0  0  0
   28.1196  -19.5146   -7.0714 C   0  0  0  0  0  0  0  0  0  0  0  0
   29.3758  -20.0682   -6.9785 C   0  0  0  0  0  0  0  0  0  0  0  0
   29.7315  -21.0709   -7.8855 C   0  0  0  0  0  0  0  0  0  0  0  0
   28.8463  -21.4965   -8.8512 C   0  0  0  0  0  0  0  0  0  0  0  0
   27.5644  -20.9386   -8.9540 C   0  0  0  0  0  0  0  0  0  0  0  0
   24.6188  -20.8799  -11.9104 C   0  0  0  0  0  0  0  0  0  0  0  0
   24.6155  -19.7020  -11.4730 O   0  0  0  0  0  0  0  0  0  0  0  0
   20.0112  -21.6026  -17.0005 N   0  0  0  0  0  0  0  0  0  0  0  0
   19.5501  -20.2835  -17.2566 C   0  0  0  0  0  0  0  0  0  0  0  0
   18.4217  -20.0823  -17.8710 N   0  0  0  0  0  0  0  0  0  0  0  0
   20.2690  -19.1268  -16.8705 N   0  0  0  0  0  0  0  0  0  0  0  0
   21.5122  -19.2342  -16.1316 C   0  0  0  0  0  0  0  0  0  0  0  0
   21.2876  -19.8268  -14.7645 C   0  0  0  0  0  0  0  0  0  0  0  0
   22.5447  -20.4364  -14.1840 C   0  0  0  0  0  0  0  0  0  0  0  0
   22.2551  -21.0037  -12.8413 C   0  0  2  0  0  0  0  0  0  0  0  0
   23.3909  -21.5266  -12.1313 N   0  0  0  0  0  0  0  0  0  0  0  0
   21.0983  -21.9533  -12.9194 C   0  0  0  0  0  0  0  0  0  0  0  0
   19.7982  -21.4837  -12.8305 O   0  0  0  0  0  0  0  0  0  0  0  0
   21.3029  -23.1603  -13.0639 O   0  0  0  0  0  0  0  0  0  0  0  0
  2  1  1  6
  2  3  1  0
  4  2  1  0
  5  4  1  0
  5  6  1  1
  7  5  1  0
  8  7  2  0
  9  7  1  0
 10 21  1  0
 10  9  1  0
 11 12  1  0
 10 11  1  1
 12 13  2  0
 13 14  1  0
 15 14  1  0
 16 15  2  0
 17 16  1  0
 18 19  1  0
 18 17  2  0
 19 20  2  0
 20 15  1  0
 20 12  1  0
 21 31  1  0
 22 21  2  0
 23 24  1  0
 24 26  1  0
 24 25  2  0
 26 27  1  0
 28 29  1  0
 28 27  1  0
 30 32  1  0
 30 29  1  6
 31 30  1  0
 32 34  2  0
 32 33  1  0
M  END
$$$$
