LWR.pdb
     RDKit          3D

 34 35  0  0  1  0  0  0  0  0999 V2000
   28.4403  -20.7568  -17.0236 C   0  0  0  0  0  0  0  0  0  0  0  0
   28.7051  -21.8451  -16.0288 C   0  0  2  0  0  0  0  0  0  0  0  0
   28.9423  -23.1334  -16.7918 C   0  0  0  0  0  0  0  0  0  0  0  0
   27.7532  -21.9713  -14.9160 C   0  0  0  0  0  0  0  0  0  0  0  0
   27.5832  -20.8450  -13.9774 C   0  0  2  0  0  0  0  0  0  0  0  0
   28.6758  -19.8901  -14.0057 N   0  0  0  0  0  0  0  0  0  0  0  0
   27.1101  -21.1736  -12.6187 C   0  0  0  0  0  0  0  0  0  0  0  0
   26.1136  -21.9026  -12.4799 O   0  0  0  0  0  0  0  0  0  0  0  0
   27.7288  -20.7015  -11.4370 N   0  0  0  0  0  0  0  0  0  0  0  0
   27.2408  -20.9116  -10.1110 C   0  0  1  0  0  0  0  0  0  0  0  0
   28.1477  -20.5439   -9.0096 C   0  0  0  0  0  0  0  0  0  0  0  0
   27.5716  -20.6203   -7.6493 C   0  0  0  0  0  0  0  0  0  0  0  0
   26.4492  -21.3294   -7.3087 C   0  0  0  0  0  0  0  0  0  0  0  0
   26.2328  -21.1655   -5.9770 N   0  0  0  0  0  0  0  0  0  0  0  0
   27.1965  -20.3630   -5.4543 C   0  0  0  0  0  0  0  0  0  0  0  0
   27.4131  -19.9039   -4.1621 C   0  0  0  0  0  0  0  0  0  0  0  0
   28.4841  -19.0849   -3.8877 C   0  0  0  0  0  0  0  0  0  0  0  0
   29.3395  -18.7319   -4.9358 C   0  0  0  0  0  0  0  0  0  0  0  0
   29.1170  -19.1921   -6.2148 C   0  0  0  0  0  0  0  0  0  0  0  0
   28.0287  -20.0267   -6.5044 C   0  0  0  0  0  0  0  0  0  0  0  0
   26.0072  -20.0422   -9.9639 C   0  0  0  0  0  0  0  0  0  0  0  0
   26.0171  -18.8671  -10.4086 O   0  0  0  0  0  0  0  0  0  0  0  0
   19.7900  -23.3168  -13.8389 N   0  0  0  0  0  0  0  0  0  0  0  0
   19.3652  -21.9616  -13.8017 C   0  0  0  0  0  0  0  0  0  0  0  0
   18.1412  -21.6412  -14.1023 N   0  0  0  0  0  0  0  0  0  0  0  0
   20.2234  -20.8941  -13.4442 N   0  0  0  0  0  0  0  0  0  0  0  0
   21.5996  -21.1412  -13.0597 C   0  0  0  0  0  0  0  0  0  0  0  0
   21.8681  -20.6729  -11.6529 C   0  0  0  0  0  0  0  0  0  0  0  0
   23.2835  -20.9652  -11.2055 C   0  0  0  0  0  0  0  0  0  0  0  0
   23.4975  -20.4339   -9.8341 C   0  0  2  0  0  0  0  0  0  0  0  0
   24.8443  -20.5227   -9.3383 N   0  0  0  0  0  0  0  0  0  0  0  0
   22.4679  -20.9895   -8.8975 C   0  0  0  0  0  0  0  0  0  0  0  0
   22.8262  -21.9134   -7.9296 O   0  0  0  0  0  0  0  0  0  0  0  0
   21.2943  -20.6232   -8.9873 O   0  0  0  0  0  0  0  0  0  0  0  0
  2  1  1  6
  2  3  1  0
  4  2  1  0
  5  4  1  0
  5  6  1  1
  7  5  1  0
  8  7  2  0
  9  7  1  0
 10 21  1  0
 10  9  1  0
 11 12  1  0
 10 11  1  1
 12 13  2  0
 13 14  1  0
 15 14  1  0
 16 15  2  0
 17 16  1  0
 18 19  1  0
 18 17  2  0
 19 20  2  0
 20 15  1  0
 20 12  1  0
 21 31  1  0
 22 21  2  0
 23 24  1  0
 24 26  1  0
 24 25  2  0
 26 27  1  0
 28 29  1  0
 28 27  1  0
 30 32  1  0
 30 29  1  6
 31 30  1  0
 32 34  2  0
 32 33  1  0
M  END
$$$$
