LWR.pdb
     RDKit          3D

 34 35  0  0  1  0  0  0  0  0999 V2000
   10.3553  -22.2573   -8.5987 C   0  0  0  0  0  0  0  0  0  0  0  0
   11.6691  -22.4916   -9.2793 C   0  0  2  0  0  0  0  0  0  0  0  0
   11.3954  -22.8039  -10.7373 C   0  0  0  0  0  0  0  0  0  0  0  0
   12.5953  -23.4280   -8.6268 C   0  0  0  0  0  0  0  0  0  0  0  0
   13.0467  -23.1573   -7.2479 C   0  0  2  0  0  0  0  0  0  0  0  0
   13.9299  -22.0110   -7.1361 N   0  0  0  0  0  0  0  0  0  0  0  0
   13.4696  -24.3199   -6.4433 C   0  0  0  0  0  0  0  0  0  0  0  0
   12.9520  -25.4292   -6.6561 O   0  0  0  0  0  0  0  0  0  0  0  0
   14.4461  -24.2532   -5.4214 N   0  0  0  0  0  0  0  0  0  0  0  0
   14.9468  -25.3709   -4.6862 C   0  0  1  0  0  0  0  0  0  0  0  0
   16.3436  -25.2837   -4.2256 C   0  0  0  0  0  0  0  0  0  0  0  0
   16.9083  -26.5221   -3.6462 C   0  0  0  0  0  0  0  0  0  0  0  0
   17.4365  -27.5596   -4.3696 C   0  0  0  0  0  0  0  0  0  0  0  0
   17.8576  -28.5128   -3.4970 N   0  0  0  0  0  0  0  0  0  0  0  0
   17.6096  -28.1069   -2.2245 C   0  0  0  0  0  0  0  0  0  0  0  0
   17.8501  -28.7145   -0.9995 C   0  0  0  0  0  0  0  0  0  0  0  0
   17.4973  -28.0810    0.1698 C   0  0  0  0  0  0  0  0  0  0  0  0
   16.8961  -26.8213    0.0907 C   0  0  0  0  0  0  0  0  0  0  0  0
   16.6612  -26.2259   -1.1289 C   0  0  0  0  0  0  0  0  0  0  0  0
   17.0169  -26.8632   -2.3257 C   0  0  0  0  0  0  0  0  0  0  0  0
   14.0877  -25.4873   -3.4423 C   0  0  0  0  0  0  0  0  0  0  0  0
   14.0526  -24.5389   -2.6189 O   0  0  0  0  0  0  0  0  0  0  0  0
    9.4259  -28.4600   -7.0533 N   0  0  0  0  0  0  0  0  0  0  0  0
   10.4461  -28.8603   -6.1492 C   0  0  0  0  0  0  0  0  0  0  0  0
   11.1601  -29.9220   -6.3820 N   0  0  0  0  0  0  0  0  0  0  0  0
   10.7476  -28.1493   -4.9628 N   0  0  0  0  0  0  0  0  0  0  0  0
    9.7670  -27.2755   -4.3483 C   0  0  0  0  0  0  0  0  0  0  0  0
   10.3190  -26.6171   -3.1104 C   0  0  0  0  0  0  0  0  0  0  0  0
   11.1988  -27.5466   -2.3035 C   0  0  0  0  0  0  0  0  0  0  0  0
   12.5053  -26.8927   -2.0315 C   0  0  2  0  0  0  0  0  0  0  0  0
   13.3234  -26.6384   -3.1864 N   0  0  0  0  0  0  0  0  0  0  0  0
   13.2214  -27.6073   -0.9259 C   0  0  0  0  0  0  0  0  0  0  0  0
   13.2629  -27.0653    0.3482 O   0  0  0  0  0  0  0  0  0  0  0  0
   13.7774  -28.6846   -1.1495 O   0  0  0  0  0  0  0  0  0  0  0  0
  2  1  1  1
  2  3  1  0
  4  2  1  0
  5  4  1  0
  5  6  1  6
  7  5  1  0
  8  7  2  0
  9  7  1  0
 10 21  1  0
 10  9  1  0
 11 12  1  0
 10 11  1  1
 12 13  2  0
 13 14  1  0
 15 14  1  0
 16 15  2  0
 17 16  1  0
 18 19  1  0
 18 17  2  0
 19 20  2  0
 20 15  1  0
 20 12  1  0
 21 31  1  0
 22 21  2  0
 23 24  1  0
 24 26  1  0
 24 25  2  0
 26 27  1  0
 28 29  1  0
 28 27  1  0
 30 32  1  0
 30 29  1  6
 31 30  1  0
 32 34  2  0
 32 33  1  0
M  END
$$$$
