LWR.pdb
     RDKit          3D

 34 35  0  0  1  0  0  0  0  0999 V2000
   32.6068  -26.5816  -16.9883 C   0  0  0  0  0  0  0  0  0  0  0  0
   33.1203  -25.2276  -17.3721 C   0  0  2  0  0  0  0  0  0  0  0  0
   34.5970  -25.1705  -17.0343 C   0  0  0  0  0  0  0  0  0  0  0  0
   32.3496  -24.0686  -16.8996 C   0  0  0  0  0  0  0  0  0  0  0  0
   30.8831  -24.0577  -17.0658 C   0  0  2  0  0  0  0  0  0  0  0  0
   30.4436  -24.4064  -18.4043 N   0  0  0  0  0  0  0  0  0  0  0  0
   30.1522  -22.9212  -16.4725 C   0  0  0  0  0  0  0  0  0  0  0  0
   30.4157  -22.5664  -15.3113 O   0  0  0  0  0  0  0  0  0  0  0  0
   29.1473  -22.1936  -17.1529 N   0  0  0  0  0  0  0  0  0  0  0  0
   28.4950  -21.0251  -16.6533 C   0  0  1  0  0  0  0  0  0  0  0  0
   27.8632  -20.1456  -17.6524 C   0  0  0  0  0  0  0  0  0  0  0  0
   28.1358  -18.6996  -17.5005 C   0  0  0  0  0  0  0  0  0  0  0  0
   28.9699  -17.9674  -18.3048 C   0  0  0  0  0  0  0  0  0  0  0  0
   28.9630  -16.6821  -17.8629 N   0  0  0  0  0  0  0  0  0  0  0  0
   28.1390  -16.5743  -16.7882 C   0  0  0  0  0  0  0  0  0  0  0  0
   27.7983  -15.4885  -15.9929 C   0  0  0  0  0  0  0  0  0  0  0  0
   26.9230  -15.6456  -14.9430 C   0  0  0  0  0  0  0  0  0  0  0  0
   26.3918  -16.9162  -14.7019 C   0  0  0  0  0  0  0  0  0  0  0  0
   26.7354  -17.9879  -15.4961 C   0  0  0  0  0  0  0  0  0  0  0  0
   27.6262  -17.8379  -16.5679 C   0  0  0  0  0  0  0  0  0  0  0  0
   27.3856  -21.5091  -15.7401 C   0  0  0  0  0  0  0  0  0  0  0  0
   26.6709  -22.4814  -16.0899 O   0  0  0  0  0  0  0  0  0  0  0  0
   21.8214  -20.4263   -9.8567 N   0  0  0  0  0  0  0  0  0  0  0  0
   22.8071  -20.8073   -8.9072 C   0  0  0  0  0  0  0  0  0  0  0  0
   22.4642  -21.3461   -7.7743 N   0  0  0  0  0  0  0  0  0  0  0  0
   24.1949  -20.6309   -9.1233 N   0  0  0  0  0  0  0  0  0  0  0  0
   24.6887  -20.0463  -10.3551 C   0  0  0  0  0  0  0  0  0  0  0  0
   25.0586  -21.1096  -11.3566 C   0  0  0  0  0  0  0  0  0  0  0  0
   26.2555  -20.7223  -12.1971 C   0  0  0  0  0  0  0  0  0  0  0  0
   26.0558  -21.1784  -13.5973 C   0  0  2  0  0  0  0  0  0  0  0  0
   27.1360  -20.8924  -14.5023 N   0  0  0  0  0  0  0  0  0  0  0  0
   24.7127  -20.7404  -14.0975 C   0  0  0  0  0  0  0  0  0  0  0  0
   23.6163  -21.5800  -13.9900 O   0  0  0  0  0  0  0  0  0  0  0  0
   24.5807  -19.6261  -14.6081 O   0  0  0  0  0  0  0  0  0  0  0  0
  2  1  1  1
  2  3  1  0
  4  2  1  0
  5  4  1  0
  5  6  1  6
  7  5  1  0
  8  7  2  0
  9  7  1  0
 10 21  1  0
 10  9  1  0
 11 12  1  0
 10 11  1  6
 12 13  2  0
 13 14  1  0
 15 14  1  0
 16 15  2  0
 17 16  1  0
 18 19  1  0
 18 17  2  0
 19 20  2  0
 20 15  1  0
 20 12  1  0
 21 31  1  0
 22 21  2  0
 23 24  1  0
 24 26  1  0
 24 25  2  0
 26 27  1  0
 28 29  1  0
 28 27  1  0
 30 32  1  0
 30 29  1  1
 31 30  1  0
 32 34  2  0
 32 33  1  0
M  END
$$$$
