LWR.pdb
     RDKit          3D

 34 35  0  0  1  0  0  0  0  0999 V2000
   30.5108  -23.9113  -17.3388 C   0  0  0  0  0  0  0  0  0  0  0  0
   30.0834  -22.6994  -18.1087 C   0  0  2  0  0  0  0  0  0  0  0  0
   31.3293  -21.9943  -18.6075 C   0  0  0  0  0  0  0  0  0  0  0  0
   29.1087  -21.8116  -17.4590 C   0  0  0  0  0  0  0  0  0  0  0  0
   27.9047  -22.3925  -16.8333 C   0  0  2  0  0  0  0  0  0  0  0  0
   27.3033  -23.4640  -17.6058 N   0  0  0  0  0  0  0  0  0  0  0  0
   26.9279  -21.4467  -16.2595 C   0  0  0  0  0  0  0  0  0  0  0  0
   27.3174  -20.5772  -15.4619 O   0  0  0  0  0  0  0  0  0  0  0  0
   25.5459  -21.4660  -16.5627 N   0  0  0  0  0  0  0  0  0  0  0  0
   24.5876  -20.5132  -16.0998 C   0  0  1  0  0  0  0  0  0  0  0  0
   23.4813  -20.1924  -17.0186 C   0  0  0  0  0  0  0  0  0  0  0  0
   22.5217  -19.1739  -16.5390 C   0  0  0  0  0  0  0  0  0  0  0  0
   22.8652  -17.9690  -15.9833 C   0  0  0  0  0  0  0  0  0  0  0  0
   21.7210  -17.3048  -15.6723 N   0  0  0  0  0  0  0  0  0  0  0  0
   20.6468  -18.0613  -16.0181 C   0  0  0  0  0  0  0  0  0  0  0  0
   19.2823  -17.8304  -15.9067 C   0  0  0  0  0  0  0  0  0  0  0  0
   18.3815  -18.7757  -16.3405 C   0  0  0  0  0  0  0  0  0  0  0  0
   18.8736  -19.9628  -16.8910 C   0  0  0  0  0  0  0  0  0  0  0  0
   20.2290  -20.1834  -16.9978 C   0  0  0  0  0  0  0  0  0  0  0  0
   21.1546  -19.2266  -16.5586 C   0  0  0  0  0  0  0  0  0  0  0  0
   23.9576  -21.1067  -14.8550 C   0  0  0  0  0  0  0  0  0  0  0  0
   23.5759  -22.3038  -14.8605 O   0  0  0  0  0  0  0  0  0  0  0  0
   28.5373  -21.5330  -11.0841 N   0  0  0  0  0  0  0  0  0  0  0  0
   28.0444  -20.2313  -11.3686 C   0  0  0  0  0  0  0  0  0  0  0  0
   28.5924  -19.5020  -12.2955 N   0  0  0  0  0  0  0  0  0  0  0  0
   26.9509  -19.6533  -10.6801 N   0  0  0  0  0  0  0  0  0  0  0  0
   26.0042  -20.4805   -9.9573 C   0  0  0  0  0  0  0  0  0  0  0  0
   25.0376  -21.1552  -10.8960 C   0  0  0  0  0  0  0  0  0  0  0  0
   23.8386  -20.2889  -11.2137 C   0  0  0  0  0  0  0  0  0  0  0  0
   23.1822  -20.7743  -12.4555 C   0  0  2  0  0  0  0  0  0  0  0  0
   23.7897  -20.3450  -13.6861 N   0  0  0  0  0  0  0  0  0  0  0  0
   21.7052  -20.5290  -12.3898 C   0  0  0  0  0  0  0  0  0  0  0  0
   20.8723  -21.4315  -11.7491 O   0  0  0  0  0  0  0  0  0  0  0  0
   21.2266  -19.5183  -12.9084 O   0  0  0  0  0  0  0  0  0  0  0  0
  2  1  1  1
  2  3  1  0
  4  2  1  0
  5  4  1  0
  5  6  1  6
  7  5  1  0
  8  7  2  0
  9  7  1  0
 10 21  1  0
 10  9  1  0
 11 12  1  0
 10 11  1  6
 12 13  2  0
 13 14  1  0
 15 14  1  0
 16 15  2  0
 17 16  1  0
 18 19  1  0
 18 17  2  0
 19 20  2  0
 20 15  1  0
 20 12  1  0
 21 31  1  0
 22 21  2  0
 23 24  1  0
 24 26  1  0
 24 25  2  0
 26 27  1  0
 28 29  1  0
 28 27  1  0
 30 32  1  0
 30 29  1  1
 31 30  1  0
 32 34  2  0
 32 33  1  0
M  END
$$$$
