VDE.pdb
     RDKit          3D

 25 24  0  0  1  0  0  0  0  0999 V2000
    6.8020  -13.5425   19.6395 C   0  0  0  0  0  0  0  0  0  0  0  0
    7.6003  -14.2463   20.7323 C   0  0  2  0  0  0  0  0  0  0  0  0
    8.5086  -13.2512   21.4210 C   0  0  0  0  0  0  0  0  0  0  0  0
    8.3551  -15.3729   20.0837 C   0  0  2  0  0  0  0  0  0  0  0  0
    7.4800  -16.3732   19.5170 N   0  0  0  0  0  0  0  0  0  0  0  0
    9.2593  -16.0732   21.0323 C   0  0  0  0  0  0  0  0  0  0  0  0
    8.7610  -17.0307   21.7009 O   0  0  0  0  0  0  0  0  0  0  0  0
   10.6103  -15.7197   21.2082 N   0  0  0  0  0  0  0  0  0  0  0  0
   11.4490  -16.5131   22.1246 C   0  0  1  0  0  0  0  0  0  0  0  0
   12.8534  -16.1227   21.8324 C   0  0  0  0  0  0  0  0  0  0  0  0
   13.9088  -16.7191   22.6262 C   0  0  0  0  0  0  0  0  0  0  0  0
   13.6976  -17.5315   23.5405 O   0  0  0  0  0  0  0  0  0  0  0  0
   11.0088  -16.2264   23.5269 C   0  0  0  0  0  0  0  0  0  0  0  0
   10.8809  -15.0303   23.8630 O   0  0  0  0  0  0  0  0  0  0  0  0
   15.2238  -16.3709   22.3582 O   0  0  0  0  0  0  0  0  0  0  0  0
   10.7452  -17.2714   24.4444 N   0  0  0  0  0  0  0  0  0  0  0  0
   10.2453  -17.0189   25.7691 C   0  0  1  0  0  0  0  0  0  0  0  0
    8.8785  -16.4394   25.6752 C   0  0  0  0  0  0  0  0  0  0  0  0
    7.8331  -17.2983   25.0591 C   0  0  0  0  0  0  0  0  0  0  0  0
    6.4775  -16.7483   25.0462 C   0  0  0  0  0  0  0  0  0  0  0  0
    5.5262  -17.3636   24.5463 O   0  0  0  0  0  0  0  0  0  0  0  0
   10.2786  -18.3069   26.5314 C   0  0  0  0  0  0  0  0  0  0  0  0
   10.7242  -19.4791   25.9138 O   0  0  0  0  0  0  0  0  0  0  0  0
    6.2376  -15.4851   25.6156 O   0  0  0  0  0  0  0  0  0  0  0  0
    9.9123  -18.3528   27.7162 O   0  0  0  0  0  0  0  0  0  0  0  0
  2  1  1  6
  3  2  1  0
  4  2  1  0
  4  5  1  1
  6  7  2  0
  6  4  1  0
  8  6  1  0
  9 13  1  0
  9  8  1  0
  9 10  1  1
 11 12  2  0
 11 10  1  0
 13 16  1  0
 14 13  2  0
 15 11  1  0
 16 17  1  0
 17 22  1  0
 18 19  1  0
 17 18  1  6
 19 20  1  0
 20 21  2  0
 20 24  1  0
 22 25  2  0
 22 23  1  0
M  END
$$$$
