VDE.pdb
     RDKit          3D

 25 24  0  0  1  0  0  0  0  0999 V2000
    8.8514  -14.7051   18.4187 C   0  0  0  0  0  0  0  0  0  0  0  0
    7.6698  -14.0979   19.1684 C   0  0  2  0  0  0  0  0  0  0  0  0
    6.7246  -13.4428   18.1851 C   0  0  0  0  0  0  0  0  0  0  0  0
    8.2251  -13.1307   20.1762 C   0  0  2  0  0  0  0  0  0  0  0  0
    9.0344  -12.0997   19.5683 N   0  0  0  0  0  0  0  0  0  0  0  0
    9.0687  -13.7979   21.2014 C   0  0  0  0  0  0  0  0  0  0  0  0
   10.3247  -13.6389   21.1046 O   0  0  0  0  0  0  0  0  0  0  0  0
    8.5360  -14.5774   22.2453 N   0  0  0  0  0  0  0  0  0  0  0  0
    9.4461  -15.1481   23.2547 C   0  0  1  0  0  0  0  0  0  0  0  0
    8.5745  -15.6717   24.3392 C   0  0  0  0  0  0  0  0  0  0  0  0
    9.2079  -16.2542   25.5051 C   0  0  0  0  0  0  0  0  0  0  0  0
   10.4387  -16.3292   25.6459 O   0  0  0  0  0  0  0  0  0  0  0  0
   10.2909  -16.1885   22.5867 C   0  0  0  0  0  0  0  0  0  0  0  0
    9.7076  -17.1496   22.0428 O   0  0  0  0  0  0  0  0  0  0  0  0
    8.4067  -16.7555   26.5196 O   0  0  0  0  0  0  0  0  0  0  0  0
   11.7028  -16.0910   22.5693 N   0  0  0  0  0  0  0  0  0  0  0  0
   12.5322  -17.0993   21.9660 C   0  0  1  0  0  0  0  0  0  0  0  0
   12.9764  -16.6313   20.6257 C   0  0  0  0  0  0  0  0  0  0  0  0
   13.8447  -15.4249   20.5969 C   0  0  0  0  0  0  0  0  0  0  0  0
   14.3135  -15.0041   19.2764 C   0  0  0  0  0  0  0  0  0  0  0  0
   14.1014  -15.6798   18.2606 O   0  0  0  0  0  0  0  0  0  0  0  0
   13.6752  -17.3758   22.8925 C   0  0  0  0  0  0  0  0  0  0  0  0
   13.8104  -16.6504   24.0797 O   0  0  0  0  0  0  0  0  0  0  0  0
   15.0264  -13.7989   19.1467 O   0  0  0  0  0  0  0  0  0  0  0  0
   14.5153  -18.2479   22.6212 O   0  0  0  0  0  0  0  0  0  0  0  0
  2  1  1  6
  3  2  1  0
  4  2  1  0
  4  5  1  6
  6  7  2  0
  6  4  1  0
  8  6  1  0
  9 13  1  0
  9  8  1  0
  9 10  1  1
 11 12  2  0
 11 10  1  0
 13 16  1  0
 14 13  2  0
 15 11  1  0
 16 17  1  0
 17 22  1  0
 18 19  1  0
 17 18  1  6
 19 20  1  0
 20 21  2  0
 20 24  1  0
 22 25  2  0
 22 23  1  0
M  END
$$$$
