VDE.pdb
     RDKit          3D

 25 24  0  0  1  0  0  0  0  0999 V2000
    0.1961  -26.2198   26.0300 C   0  0  0  0  0  0  0  0  0  0  0  0
   -0.0200  -25.5688   27.3925 C   0  0  2  0  0  0  0  0  0  0  0  0
    1.3042  -25.0841   27.9414 C   0  0  0  0  0  0  0  0  0  0  0  0
   -0.6806  -26.5875   28.2786 C   0  0  2  0  0  0  0  0  0  0  0  0
   -1.2630  -27.6784   27.5313 N   0  0  0  0  0  0  0  0  0  0  0  0
   -1.7643  -26.0023   29.1098 C   0  0  0  0  0  0  0  0  0  0  0  0
   -1.4109  -25.2386   30.0606 O   0  0  0  0  0  0  0  0  0  0  0  0
   -3.1295  -26.2597   28.8836 N   0  0  0  0  0  0  0  0  0  0  0  0
   -4.1260  -25.7608   29.8484 C   0  0  1  0  0  0  0  0  0  0  0  0
   -5.3191  -25.3862   29.0445 C   0  0  0  0  0  0  0  0  0  0  0  0
   -6.4882  -24.8927   29.7441 C   0  0  0  0  0  0  0  0  0  0  0  0
   -7.4403  -25.6167   30.0754 O   0  0  0  0  0  0  0  0  0  0  0  0
   -4.3770  -26.8369   30.8591 C   0  0  0  0  0  0  0  0  0  0  0  0
   -4.6359  -27.9830   30.4358 O   0  0  0  0  0  0  0  0  0  0  0  0
   -6.5555  -23.5451   30.0638 O   0  0  0  0  0  0  0  0  0  0  0  0
   -4.3240  -26.5697   32.2480 N   0  0  0  0  0  0  0  0  0  0  0  0
   -4.6279  -27.5730   33.2326 C   0  0  1  0  0  0  0  0  0  0  0  0
   -3.5515  -27.5947   34.2590 C   0  0  0  0  0  0  0  0  0  0  0  0
   -2.1804  -27.9088   33.7779 C   0  0  0  0  0  0  0  0  0  0  0  0
   -1.1152  -27.8228   34.7771 C   0  0  0  0  0  0  0  0  0  0  0  0
   -1.3347  -27.4498   35.9373 O   0  0  0  0  0  0  0  0  0  0  0  0
   -5.9744  -27.2646   33.8098 C   0  0  0  0  0  0  0  0  0  0  0  0
   -6.6327  -26.0801   33.4669 O   0  0  0  0  0  0  0  0  0  0  0  0
    0.1992  -28.1717   34.4193 O   0  0  0  0  0  0  0  0  0  0  0  0
   -6.5225  -28.0513   34.5975 O   0  0  0  0  0  0  0  0  0  0  0  0
  2  1  1  6
  3  2  1  0
  4  2  1  0
  4  5  1  6
  6  7  2  0
  6  4  1  0
  8  6  1  0
  9 13  1  0
  9  8  1  0
  9 10  1  6
 11 12  2  0
 11 10  1  0
 13 16  1  0
 14 13  2  0
 15 11  1  0
 16 17  1  0
 17 22  1  0
 18 19  1  0
 17 18  1  1
 19 20  1  0
 20 21  2  0
 20 24  1  0
 22 25  2  0
 22 23  1  0
M  END
$$$$
