VDE.pdb
     RDKit          3D

 25 24  0  0  1  0  0  0  0  0999 V2000
    7.2571  -12.4038   24.1240 C   0  0  0  0  0  0  0  0  0  0  0  0
    6.3811  -12.8454   25.2921 C   0  0  2  0  0  0  0  0  0  0  0  0
    5.6526  -11.6487   25.8637 C   0  0  0  0  0  0  0  0  0  0  0  0
    7.2750  -13.5180   26.2960 C   0  0  2  0  0  0  0  0  0  0  0  0
    8.4501  -12.7360   26.6043 N   0  0  0  0  0  0  0  0  0  0  0  0
    7.7472  -14.8498   25.8363 C   0  0  0  0  0  0  0  0  0  0  0  0
    6.8821  -15.7773   25.7766 O   0  0  0  0  0  0  0  0  0  0  0  0
    9.0829  -15.1084   25.4756 N   0  0  0  0  0  0  0  0  0  0  0  0
    9.4912  -16.4910   25.1684 C   0  0  1  0  0  0  0  0  0  0  0  0
   10.6709  -16.3773   24.2709 C   0  0  0  0  0  0  0  0  0  0  0  0
   10.4377  -16.1303   22.8622 C   0  0  0  0  0  0  0  0  0  0  0  0
   11.0565  -15.2756   22.2087 O   0  0  0  0  0  0  0  0  0  0  0  0
    9.7660  -17.1949   26.4612 C   0  0  0  0  0  0  0  0  0  0  0  0
   10.3542  -16.5549   27.3580 O   0  0  0  0  0  0  0  0  0  0  0  0
    9.4770  -16.8817   22.2027 O   0  0  0  0  0  0  0  0  0  0  0  0
    9.3749  -18.5397   26.6652 N   0  0  0  0  0  0  0  0  0  0  0  0
    9.6133  -19.2263   27.9063 C   0  0  1  0  0  0  0  0  0  0  0  0
    8.8189  -20.4837   27.9315 C   0  0  0  0  0  0  0  0  0  0  0  0
    7.3584  -20.3524   27.6866 C   0  0  0  0  0  0  0  0  0  0  0  0
    6.6113  -21.6057   27.5796 C   0  0  0  0  0  0  0  0  0  0  0  0
    7.0215  -22.6578   28.0879 O   0  0  0  0  0  0  0  0  0  0  0  0
   11.0857  -19.4675   28.0283 C   0  0  0  0  0  0  0  0  0  0  0  0
   11.6396  -19.8330   29.2586 O   0  0  0  0  0  0  0  0  0  0  0  0
    5.3910  -21.6265   26.8812 O   0  0  0  0  0  0  0  0  0  0  0  0
   11.8323  -19.3464   27.0445 O   0  0  0  0  0  0  0  0  0  0  0  0
  2  1  1  6
  3  2  1  0
  4  2  1  0
  4  5  1  6
  6  7  2  0
  6  4  1  0
  8  6  1  0
  9 13  1  0
  9  8  1  0
  9 10  1  6
 11 12  2  0
 11 10  1  0
 13 16  1  0
 14 13  2  0
 15 11  1  0
 16 17  1  0
 17 22  1  0
 18 19  1  0
 17 18  1  6
 19 20  1  0
 20 21  2  0
 20 24  1  0
 22 25  2  0
 22 23  1  0
M  END
$$$$
