VDE.pdb
     RDKit          3D

 25 24  0  0  1  0  0  0  0  0999 V2000
    9.0775  -12.2029   19.6486 C   0  0  0  0  0  0  0  0  0  0  0  0
    8.0795  -13.3110   19.3276 C   0  0  2  0  0  0  0  0  0  0  0  0
    7.7753  -14.1016   20.5813 C   0  0  0  0  0  0  0  0  0  0  0  0
    8.6788  -14.1545   18.2373 C   0  0  2  0  0  0  0  0  0  0  0  0
    7.7929  -15.2096   17.8019 N   0  0  0  0  0  0  0  0  0  0  0  0
    9.9524  -14.7988   18.6505 C   0  0  0  0  0  0  0  0  0  0  0  0
    9.8738  -15.9709   19.1324 O   0  0  0  0  0  0  0  0  0  0  0  0
   11.2058  -14.1702   18.5283 N   0  0  0  0  0  0  0  0  0  0  0  0
   12.4262  -14.9260   18.8631 C   0  0  1  0  0  0  0  0  0  0  0  0
   13.5262  -14.2832   18.0970 C   0  0  0  0  0  0  0  0  0  0  0  0
   14.8069  -14.9588   18.0411 C   0  0  0  0  0  0  0  0  0  0  0  0
   15.3530  -15.2975   16.9793 O   0  0  0  0  0  0  0  0  0  0  0  0
   12.6062  -14.8879   20.3492 C   0  0  0  0  0  0  0  0  0  0  0  0
   12.5354  -13.7767   20.9150 O   0  0  0  0  0  0  0  0  0  0  0  0
   15.4628  -15.2456   19.2286 O   0  0  0  0  0  0  0  0  0  0  0  0
   12.8486  -16.0678   21.0923 N   0  0  0  0  0  0  0  0  0  0  0  0
   13.0546  -16.0473   22.5155 C   0  0  1  0  0  0  0  0  0  0  0  0
   12.1940  -17.0811   23.1505 C   0  0  0  0  0  0  0  0  0  0  0  0
   12.4146  -17.3315   24.5992 C   0  0  0  0  0  0  0  0  0  0  0  0
   11.6689  -18.4497   25.1772 C   0  0  0  0  0  0  0  0  0  0  0  0
   10.8619  -18.2895   26.1027 O   0  0  0  0  0  0  0  0  0  0  0  0
   14.5125  -16.2652   22.7770 C   0  0  0  0  0  0  0  0  0  0  0  0
   15.0734  -15.8825   23.9989 O   0  0  0  0  0  0  0  0  0  0  0  0
   11.8673  -19.7477   24.6740 O   0  0  0  0  0  0  0  0  0  0  0  0
   15.2406  -16.7854   21.9172 O   0  0  0  0  0  0  0  0  0  0  0  0
  2  1  1  1
  3  2  1  0
  4  2  1  0
  4  5  1  1
  6  7  2  0
  6  4  1  0
  8  6  1  0
  9 13  1  0
  9  8  1  0
  9 10  1  6
 11 12  2  0
 11 10  1  0
 13 16  1  0
 14 13  2  0
 15 11  1  0
 16 17  1  0
 17 22  1  0
 18 19  1  0
 17 18  1  1
 19 20  1  0
 20 21  2  0
 20 24  1  0
 22 25  2  0
 22 23  1  0
M  END
$$$$
