VDE.pdb
     RDKit          3D

 25 24  0  0  1  0  0  0  0  0999 V2000
    7.6140  -13.4114   21.7199 C   0  0  0  0  0  0  0  0  0  0  0  0
    8.3269  -13.4479   20.3718 C   0  0  2  0  0  0  0  0  0  0  0  0
    7.6782  -12.4614   19.4254 C   0  0  0  0  0  0  0  0  0  0  0  0
    8.2676  -14.8633   19.8693 C   0  0  2  0  0  0  0  0  0  0  0  0
    6.9163  -15.3032   19.6084 N   0  0  0  0  0  0  0  0  0  0  0  0
    8.8637  -15.8324   20.8248 C   0  0  0  0  0  0  0  0  0  0  0  0
    8.0575  -16.5358   21.5084 O   0  0  0  0  0  0  0  0  0  0  0  0
   10.2523  -15.9911   20.9915 N   0  0  0  0  0  0  0  0  0  0  0  0
   10.7529  -16.9935   21.9493 C   0  0  1  0  0  0  0  0  0  0  0  0
   12.1065  -17.3760   21.4682 C   0  0  0  0  0  0  0  0  0  0  0  0
   12.8895  -18.2858   22.2799 C   0  0  0  0  0  0  0  0  0  0  0  0
   14.0998  -18.1282   22.5057 O   0  0  0  0  0  0  0  0  0  0  0  0
   10.7345  -16.3832   23.3165 C   0  0  0  0  0  0  0  0  0  0  0  0
   11.1406  -15.2079   23.4339 O   0  0  0  0  0  0  0  0  0  0  0  0
   12.2639  -19.3909   22.8365 O   0  0  0  0  0  0  0  0  0  0  0  0
   10.2739  -17.1088   24.4410 N   0  0  0  0  0  0  0  0  0  0  0  0
   10.0772  -16.4890   25.7238 C   0  0  1  0  0  0  0  0  0  0  0  0
    9.1334  -15.3486   25.5778 C   0  0  0  0  0  0  0  0  0  0  0  0
    7.6838  -15.6750   25.6271 C   0  0  0  0  0  0  0  0  0  0  0  0
    6.7706  -14.5325   25.6650 C   0  0  0  0  0  0  0  0  0  0  0  0
    7.1810  -13.3649   25.6243 O   0  0  0  0  0  0  0  0  0  0  0  0
    9.5818  -17.5346   26.6738 C   0  0  0  0  0  0  0  0  0  0  0  0
    9.6496  -17.3210   28.0536 O   0  0  0  0  0  0  0  0  0  0  0  0
    5.3849  -14.7566   25.7501 O   0  0  0  0  0  0  0  0  0  0  0  0
    9.1067  -18.6008   26.2526 O   0  0  0  0  0  0  0  0  0  0  0  0
  2  1  1  1
  3  2  1  0
  4  2  1  0
  4  5  1  1
  6  7  2  0
  6  4  1  0
  8  6  1  0
  9 13  1  0
  9  8  1  0
  9 10  1  6
 11 12  2  0
 11 10  1  0
 13 16  1  0
 14 13  2  0
 15 11  1  0
 16 17  1  0
 17 22  1  0
 18 19  1  0
 17 18  1  6
 19 20  1  0
 20 21  2  0
 20 24  1  0
 22 25  2  0
 22 23  1  0
M  END
$$$$
