VDE.pdb
     RDKit          3D

 25 24  0  0  1  0  0  0  0  0999 V2000
    7.1521  -12.6180   18.9567 C   0  0  0  0  0  0  0  0  0  0  0  0
    8.3150  -13.4242   19.5266 C   0  0  2  0  0  0  0  0  0  0  0  0
    9.3339  -12.4870   20.1372 C   0  0  0  0  0  0  0  0  0  0  0  0
    8.8811  -14.2512   18.4064 C   0  0  2  0  0  0  0  0  0  0  0  0
    7.9386  -15.2240   17.9037 N   0  0  0  0  0  0  0  0  0  0  0  0
   10.1020  -14.9962   18.8091 C   0  0  0  0  0  0  0  0  0  0  0  0
    9.9371  -16.1769   19.2459 O   0  0  0  0  0  0  0  0  0  0  0  0
   11.3970  -14.4512   18.7244 N   0  0  0  0  0  0  0  0  0  0  0  0
   12.5507  -15.2671   19.1440 C   0  0  1  0  0  0  0  0  0  0  0  0
   13.7179  -14.7410   18.3884 C   0  0  0  0  0  0  0  0  0  0  0  0
   14.9785  -15.4471   18.4978 C   0  0  0  0  0  0  0  0  0  0  0  0
   16.0317  -15.0457   17.9779 O   0  0  0  0  0  0  0  0  0  0  0  0
   12.6812  -15.1610   20.6320 C   0  0  0  0  0  0  0  0  0  0  0  0
   13.2229  -14.1360   21.0964 O   0  0  0  0  0  0  0  0  0  0  0  0
   15.0201  -16.6316   19.2173 O   0  0  0  0  0  0  0  0  0  0  0  0
   12.2087  -16.1846   21.4877 N   0  0  0  0  0  0  0  0  0  0  0  0
   12.3818  -16.1301   22.9144 C   0  0  1  0  0  0  0  0  0  0  0  0
   11.1602  -16.6604   23.5772 C   0  0  0  0  0  0  0  0  0  0  0  0
    9.8555  -16.2217   23.0154 C   0  0  0  0  0  0  0  0  0  0  0  0
    8.6633  -16.7901   23.6447 C   0  0  0  0  0  0  0  0  0  0  0  0
    8.7387  -17.5911   24.5860 O   0  0  0  0  0  0  0  0  0  0  0  0
   13.6142  -16.9055   23.2627 C   0  0  0  0  0  0  0  0  0  0  0  0
   14.1627  -16.8166   24.5453 O   0  0  0  0  0  0  0  0  0  0  0  0
    7.3902  -16.4222   23.1740 O   0  0  0  0  0  0  0  0  0  0  0  0
   14.1642  -17.6341   22.4221 O   0  0  0  0  0  0  0  0  0  0  0  0
  2  1  1  6
  3  2  1  0
  4  2  1  0
  4  5  1  1
  6  7  2  0
  6  4  1  0
  8  6  1  0
  9 13  1  0
  9  8  1  0
  9 10  1  6
 11 12  2  0
 11 10  1  0
 13 16  1  0
 14 13  2  0
 15 11  1  0
 16 17  1  0
 17 22  1  0
 18 19  1  0
 17 18  1  1
 19 20  1  0
 20 21  2  0
 20 24  1  0
 22 25  2  0
 22 23  1  0
M  END
$$$$
