VDE.pdb
     RDKit          3D

 25 24  0  0  1  0  0  0  0  0999 V2000
    8.7250  -14.0195   21.1092 C   0  0  0  0  0  0  0  0  0  0  0  0
    8.7705  -13.1549   19.8533 C   0  0  2  0  0  0  0  0  0  0  0  0
    7.4705  -12.3939   19.7111 C   0  0  0  0  0  0  0  0  0  0  0  0
    9.0432  -14.0658   18.6892 C   0  0  2  0  0  0  0  0  0  0  0  0
    7.9979  -15.0438   18.4933 N   0  0  0  0  0  0  0  0  0  0  0  0
   10.3175  -14.8153   18.8386 C   0  0  0  0  0  0  0  0  0  0  0  0
   10.2283  -16.0544   19.1007 O   0  0  0  0  0  0  0  0  0  0  0  0
   11.5826  -14.2135   18.7030 N   0  0  0  0  0  0  0  0  0  0  0  0
   12.7935  -15.0390   18.8614 C   0  0  1  0  0  0  0  0  0  0  0  0
   13.7674  -14.5297   17.8602 C   0  0  0  0  0  0  0  0  0  0  0  0
   15.1052  -15.0864   17.8620 C   0  0  0  0  0  0  0  0  0  0  0  0
   15.3489  -16.2735   18.1304 O   0  0  0  0  0  0  0  0  0  0  0  0
   13.2538  -14.9254   20.2818 C   0  0  0  0  0  0  0  0  0  0  0  0
   13.6822  -13.8174   20.6672 O   0  0  0  0  0  0  0  0  0  0  0  0
   16.1731  -14.2591   17.5496 O   0  0  0  0  0  0  0  0  0  0  0  0
   13.2072  -16.0328   21.1619 N   0  0  0  0  0  0  0  0  0  0  0  0
   13.6129  -15.9343   22.5382 C   0  0  1  0  0  0  0  0  0  0  0  0
   12.8679  -16.9398   23.3423 C   0  0  0  0  0  0  0  0  0  0  0  0
   13.1437  -16.9596   24.8030 C   0  0  0  0  0  0  0  0  0  0  0  0
   12.3249  -17.8755   25.5975 C   0  0  0  0  0  0  0  0  0  0  0  0
   11.1924  -18.2221   25.2360 O   0  0  0  0  0  0  0  0  0  0  0  0
   15.0965  -16.1255   22.6000 C   0  0  0  0  0  0  0  0  0  0  0  0
   15.8404  -15.5336   23.6247 O   0  0  0  0  0  0  0  0  0  0  0  0
   12.8298  -18.3822   26.8082 O   0  0  0  0  0  0  0  0  0  0  0  0
   15.6844  -16.8081   21.7465 O   0  0  0  0  0  0  0  0  0  0  0  0
  2  1  1  1
  3  2  1  0
  4  2  1  0
  4  5  1  1
  6  7  2  0
  6  4  1  0
  8  6  1  0
  9 13  1  0
  9  8  1  0
  9 10  1  6
 11 12  2  0
 11 10  1  0
 13 16  1  0
 14 13  2  0
 15 11  1  0
 16 17  1  0
 17 22  1  0
 18 19  1  0
 17 18  1  1
 19 20  1  0
 20 21  2  0
 20 24  1  0
 22 25  2  0
 22 23  1  0
M  END
$$$$
