VDE.pdb
     RDKit          3D

 25 24  0  0  1  0  0  0  0  0999 V2000
    9.4956  -14.5169   17.9409 C   0  0  0  0  0  0  0  0  0  0  0  0
    8.1459  -14.4295   18.6463 C   0  0  2  0  0  0  0  0  0  0  0  0
    7.0772  -14.0266   17.6538 C   0  0  0  0  0  0  0  0  0  0  0  0
    8.2912  -13.4493   19.7766 C   0  0  2  0  0  0  0  0  0  0  0  0
    8.6716  -12.1315   19.3226 N   0  0  0  0  0  0  0  0  0  0  0  0
    9.3071  -13.8760   20.7735 C   0  0  0  0  0  0  0  0  0  0  0  0
   10.4545  -13.3385   20.6911 O   0  0  0  0  0  0  0  0  0  0  0  0
    9.0460  -14.8284   21.7764 N   0  0  0  0  0  0  0  0  0  0  0  0
   10.0879  -15.1262   22.7757 C   0  0  1  0  0  0  0  0  0  0  0  0
    9.3945  -15.8209   23.8923 C   0  0  0  0  0  0  0  0  0  0  0  0
   10.1875  -16.2593   25.0230 C   0  0  0  0  0  0  0  0  0  0  0  0
   11.4189  -16.1181   25.0875 O   0  0  0  0  0  0  0  0  0  0  0  0
   11.1539  -15.9406   22.1105 C   0  0  0  0  0  0  0  0  0  0  0  0
   10.7996  -16.9608   21.4831 O   0  0  0  0  0  0  0  0  0  0  0  0
    9.5471  -16.8684   26.0914 O   0  0  0  0  0  0  0  0  0  0  0  0
   12.5182  -15.5717   22.1870 N   0  0  0  0  0  0  0  0  0  0  0  0
   13.5560  -16.3424   21.5566 C   0  0  1  0  0  0  0  0  0  0  0  0
   13.7500  -15.8570   20.1640 C   0  0  0  0  0  0  0  0  0  0  0  0
   14.7445  -14.7687   19.9718 C   0  0  0  0  0  0  0  0  0  0  0  0
   15.0409  -14.4090   18.5850 C   0  0  0  0  0  0  0  0  0  0  0  0
   15.1392  -15.2633   17.6939 O   0  0  0  0  0  0  0  0  0  0  0  0
   14.7939  -16.2241   22.3903 C   0  0  0  0  0  0  0  0  0  0  0  0
   15.9234  -16.9893   22.0857 O   0  0  0  0  0  0  0  0  0  0  0  0
   15.2211  -13.0567   18.2441 O   0  0  0  0  0  0  0  0  0  0  0  0
   14.8349  -15.4498   23.3591 O   0  0  0  0  0  0  0  0  0  0  0  0
  2  1  1  6
  3  2  1  0
  4  2  1  0
  4  5  1  6
  6  7  2  0
  6  4  1  0
  8  6  1  0
  9 13  1  0
  9  8  1  0
  9 10  1  1
 11 12  2  0
 11 10  1  0
 13 16  1  0
 14 13  2  0
 15 11  1  0
 16 17  1  0
 17 22  1  0
 18 19  1  0
 17 18  1  6
 19 20  1  0
 20 21  2  0
 20 24  1  0
 22 25  2  0
 22 23  1  0
M  END
$$$$
