VDE.pdb
     RDKit          3D

 25 24  0  0  1  0  0  0  0  0999 V2000
    7.7563  -13.1175   21.5686 C   0  0  0  0  0  0  0  0  0  0  0  0
    8.3979  -13.2909   20.1956 C   0  0  2  0  0  0  0  0  0  0  0  0
    7.8728  -12.2324   19.2504 C   0  0  0  0  0  0  0  0  0  0  0  0
    8.0968  -14.6884   19.7312 C   0  0  2  0  0  0  0  0  0  0  0  0
    6.6820  -14.9210   19.5527 N   0  0  0  0  0  0  0  0  0  0  0  0
    8.5915  -15.7220   20.6771 C   0  0  0  0  0  0  0  0  0  0  0  0
    7.7444  -16.2158   21.4837 O   0  0  0  0  0  0  0  0  0  0  0  0
    9.9294  -16.1583   20.7067 N   0  0  0  0  0  0  0  0  0  0  0  0
   10.3301  -17.1867   21.6838 C   0  0  1  0  0  0  0  0  0  0  0  0
   11.2894  -18.0723   20.9726 C   0  0  0  0  0  0  0  0  0  0  0  0
   11.7698  -19.2534   21.6609 C   0  0  0  0  0  0  0  0  0  0  0  0
   11.3489  -19.6134   22.7717 O   0  0  0  0  0  0  0  0  0  0  0  0
   10.9024  -16.4947   22.8821 C   0  0  0  0  0  0  0  0  0  0  0  0
   11.8767  -15.7339   22.7039 O   0  0  0  0  0  0  0  0  0  0  0  0
   12.7490  -20.0267   21.0560 O   0  0  0  0  0  0  0  0  0  0  0  0
   10.3615  -16.6924   24.1750 N   0  0  0  0  0  0  0  0  0  0  0  0
   10.9418  -16.0942   25.3471 C   0  0  1  0  0  0  0  0  0  0  0  0
    9.9103  -15.2796   26.0436 C   0  0  0  0  0  0  0  0  0  0  0  0
   10.3379  -13.9423   26.5326 C   0  0  0  0  0  0  0  0  0  0  0  0
    9.3208  -13.1626   27.2383 C   0  0  0  0  0  0  0  0  0  0  0  0
    8.9568  -13.4488   28.3868 O   0  0  0  0  0  0  0  0  0  0  0  0
   11.4916  -17.1912   26.2048 C   0  0  0  0  0  0  0  0  0  0  0  0
   12.4816  -16.9149   27.1522 O   0  0  0  0  0  0  0  0  0  0  0  0
    8.7335  -12.0544   26.6024 O   0  0  0  0  0  0  0  0  0  0  0  0
   11.0792  -18.3557   26.0873 O   0  0  0  0  0  0  0  0  0  0  0  0
  2  1  1  1
  3  2  1  0
  4  2  1  0
  4  5  1  1
  6  7  2  0
  6  4  1  0
  8  6  1  0
  9 13  1  0
  9  8  1  0
  9 10  1  6
 11 12  2  0
 11 10  1  0
 13 16  1  0
 14 13  2  0
 15 11  1  0
 16 17  1  0
 17 22  1  0
 18 19  1  0
 17 18  1  1
 19 20  1  0
 20 21  2  0
 20 24  1  0
 22 25  2  0
 22 23  1  0
M  END
$$$$
