VDE.pdb
     RDKit          3D

 25 24  0  0  1  0  0  0  0  0999 V2000
    8.0040  -13.0803   27.2043 C   0  0  0  0  0  0  0  0  0  0  0  0
    7.2248  -12.3728   26.1001 C   0  0  2  0  0  0  0  0  0  0  0  0
    6.5495  -11.1409   26.6620 C   0  0  0  0  0  0  0  0  0  0  0  0
    6.2489  -13.3645   25.5314 C   0  0  2  0  0  0  0  0  0  0  0  0
    5.3752  -13.9228   26.5377 N   0  0  0  0  0  0  0  0  0  0  0  0
    6.9227  -14.5055   24.8590 C   0  0  0  0  0  0  0  0  0  0  0  0
    6.9011  -15.6225   25.4623 O   0  0  0  0  0  0  0  0  0  0  0  0
    7.5652  -14.3911   23.6119 N   0  0  0  0  0  0  0  0  0  0  0  0
    8.2213  -15.5750   23.0284 C   0  0  1  0  0  0  0  0  0  0  0  0
    8.2157  -15.3601   21.5574 C   0  0  0  0  0  0  0  0  0  0  0  0
    8.7573  -16.4043   20.7112 C   0  0  0  0  0  0  0  0  0  0  0  0
    9.2467  -17.4553   21.1543 O   0  0  0  0  0  0  0  0  0  0  0  0
    9.5880  -15.6949   23.6285 C   0  0  0  0  0  0  0  0  0  0  0  0
   10.3376  -14.6976   23.5708 O   0  0  0  0  0  0  0  0  0  0  0  0
    8.7319  -16.2294   19.3359 O   0  0  0  0  0  0  0  0  0  0  0  0
   10.0207  -16.8950   24.2413 N   0  0  0  0  0  0  0  0  0  0  0  0
   11.3412  -17.0401   24.7924 C   0  0  1  0  0  0  0  0  0  0  0  0
   11.3142  -18.0701   25.8654 C   0  0  0  0  0  0  0  0  0  0  0  0
   10.5655  -17.7225   27.1018 C   0  0  0  0  0  0  0  0  0  0  0  0
   10.5135  -18.7596   28.1324 C   0  0  0  0  0  0  0  0  0  0  0  0
   10.0053  -19.8687   27.9199 O   0  0  0  0  0  0  0  0  0  0  0  0
   12.2748  -17.3898   23.6756 C   0  0  0  0  0  0  0  0  0  0  0  0
   13.6561  -17.3993   23.8897 O   0  0  0  0  0  0  0  0  0  0  0  0
   11.0535  -18.4990   29.4044 O   0  0  0  0  0  0  0  0  0  0  0  0
   11.8384  -17.6741   22.5492 O   0  0  0  0  0  0  0  0  0  0  0  0
  2  1  1  1
  3  2  1  0
  4  2  1  0
  4  5  1  1
  6  7  2  0
  6  4  1  0
  8  6  1  0
  9 13  1  0
  9  8  1  0
  9 10  1  6
 11 12  2  0
 11 10  1  0
 13 16  1  0
 14 13  2  0
 15 11  1  0
 16 17  1  0
 17 22  1  0
 18 19  1  0
 17 18  1  1
 19 20  1  0
 20 21  2  0
 20 24  1  0
 22 25  2  0
 22 23  1  0
M  END
$$$$
