VDE.pdb
     RDKit          3D

 25 24  0  0  1  0  0  0  0  0999 V2000
    9.4147  -13.8948   19.5331 C   0  0  0  0  0  0  0  0  0  0  0  0
    7.8974  -13.9540   19.6787 C   0  0  2  0  0  0  0  0  0  0  0  0
    7.2836  -12.6809   19.1385 C   0  0  0  0  0  0  0  0  0  0  0  0
    7.5931  -14.1763   21.1338 C   0  0  2  0  0  0  0  0  0  0  0  0
    8.0799  -13.1051   21.9723 N   0  0  0  0  0  0  0  0  0  0  0  0
    8.1829  -15.4374   21.6529 C   0  0  0  0  0  0  0  0  0  0  0  0
    7.7814  -16.5200   21.1247 O   0  0  0  0  0  0  0  0  0  0  0  0
    9.1438  -15.4695   22.6809 N   0  0  0  0  0  0  0  0  0  0  0  0
    9.6339  -16.7714   23.1683 C   0  0  1  0  0  0  0  0  0  0  0  0
   10.9935  -16.9371   22.5900 C   0  0  0  0  0  0  0  0  0  0  0  0
   11.7286  -18.1454   22.9053 C   0  0  0  0  0  0  0  0  0  0  0  0
   11.2944  -19.2859   22.6791 O   0  0  0  0  0  0  0  0  0  0  0  0
    9.5991  -16.7529   24.6652 C   0  0  0  0  0  0  0  0  0  0  0  0
   10.6387  -16.4103   25.2667 O   0  0  0  0  0  0  0  0  0  0  0  0
   12.9810  -18.0316   23.4893 O   0  0  0  0  0  0  0  0  0  0  0  0
    8.4306  -17.1106   25.3792 N   0  0  0  0  0  0  0  0  0  0  0  0
    8.4820  -17.8656   26.6023 C   0  0  1  0  0  0  0  0  0  0  0  0
    8.2730  -19.3066   26.2981 C   0  0  0  0  0  0  0  0  0  0  0  0
    7.0204  -19.6595   25.5792 C   0  0  0  0  0  0  0  0  0  0  0  0
    6.3011  -20.8301   26.0817 C   0  0  0  0  0  0  0  0  0  0  0  0
    6.7161  -21.4901   27.0438 O   0  0  0  0  0  0  0  0  0  0  0  0
    9.7999  -17.5963   27.2594 C   0  0  0  0  0  0  0  0  0  0  0  0
   10.9867  -17.7107   26.5298 O   0  0  0  0  0  0  0  0  0  0  0  0
    5.1028  -21.2253   25.4609 O   0  0  0  0  0  0  0  0  0  0  0  0
    9.8577  -17.2698   28.4552 O   0  0  0  0  0  0  0  0  0  0  0  0
  2  1  1  1
  3  2  1  0
  4  2  1  0
  4  5  1  1
  6  7  2  0
  6  4  1  0
  8  6  1  0
  9 13  1  0
  9  8  1  0
  9 10  1  1
 11 12  2  0
 11 10  1  0
 13 16  1  0
 14 13  2  0
 15 11  1  0
 16 17  1  0
 17 22  1  0
 18 19  1  0
 17 18  1  6
 19 20  1  0
 20 21  2  0
 20 24  1  0
 22 25  2  0
 22 23  1  0
M  END
$$$$
