VDE.pdb
     RDKit          3D

 25 24  0  0  1  0  0  0  0  0999 V2000
    7.6791  -12.9708   19.0594 C   0  0  0  0  0  0  0  0  0  0  0  0
    7.7059  -13.9900   20.1941 C   0  0  2  0  0  0  0  0  0  0  0  0
    6.8780  -13.4825   21.3545 C   0  0  0  0  0  0  0  0  0  0  0  0
    9.1458  -14.2176   20.5607 C   0  0  2  0  0  0  0  0  0  0  0  0
    9.9537  -14.5993   19.4253 N   0  0  0  0  0  0  0  0  0  0  0  0
    9.3111  -15.2781   21.5883 C   0  0  0  0  0  0  0  0  0  0  0  0
    8.5030  -15.2608   22.5674 O   0  0  0  0  0  0  0  0  0  0  0  0
   10.3053  -16.2716   21.5133 N   0  0  0  0  0  0  0  0  0  0  0  0
   10.3381  -17.3361   22.5324 C   0  0  1  0  0  0  0  0  0  0  0  0
   11.1503  -18.4352   21.9473 C   0  0  0  0  0  0  0  0  0  0  0  0
   10.6834  -19.0539   20.7229 C   0  0  0  0  0  0  0  0  0  0  0  0
    9.6161  -19.6820   20.6408 O   0  0  0  0  0  0  0  0  0  0  0  0
   10.9014  -16.7579   23.7937 C   0  0  0  0  0  0  0  0  0  0  0  0
   11.7173  -15.8181   23.6887 O   0  0  0  0  0  0  0  0  0  0  0  0
   11.4615  -18.9440   19.5806 O   0  0  0  0  0  0  0  0  0  0  0  0
   10.5255  -17.2556   25.0642 N   0  0  0  0  0  0  0  0  0  0  0  0
   11.0474  -16.7061   26.2865 C   0  0  1  0  0  0  0  0  0  0  0  0
   10.0459  -15.7755   26.8728 C   0  0  0  0  0  0  0  0  0  0  0  0
   10.0908  -14.3667   26.4000 C   0  0  0  0  0  0  0  0  0  0  0  0
    9.5609  -13.3635   27.3238 C   0  0  0  0  0  0  0  0  0  0  0  0
    9.1821  -13.6598   28.4649 O   0  0  0  0  0  0  0  0  0  0  0  0
   11.3872  -17.8431   27.1991 C   0  0  0  0  0  0  0  0  0  0  0  0
   12.1557  -17.6203   28.3454 O   0  0  0  0  0  0  0  0  0  0  0  0
    9.4752  -12.0213   26.9132 O   0  0  0  0  0  0  0  0  0  0  0  0
   10.9944  -18.9941   26.9524 O   0  0  0  0  0  0  0  0  0  0  0  0
  2  1  1  6
  3  2  1  0
  4  2  1  0
  4  5  1  6
  6  7  2  0
  6  4  1  0
  8  6  1  0
  9 13  1  0
  9  8  1  0
  9 10  1  6
 11 12  2  0
 11 10  1  0
 13 16  1  0
 14 13  2  0
 15 11  1  0
 16 17  1  0
 17 22  1  0
 18 19  1  0
 17 18  1  1
 19 20  1  0
 20 21  2  0
 20 24  1  0
 22 25  2  0
 22 23  1  0
M  END
$$$$
