PMP.pdb
     RDKit          3D

 23 24  0  0  1  0  0  0  0  0999 V2000
   27.3749  -17.9606  -15.7672 N   0  0  0  0  0  0  0  0  0  0  0  0
   28.2586  -17.0866  -16.4734 C   0  0  0  0  0  0  0  0  0  0  0  0
   29.5646  -17.8126  -16.7009 C   0  0  0  0  0  0  0  0  0  0  0  0
   29.4348  -18.9847  -15.7219 C   0  0  0  0  0  0  0  0  0  0  0  0
   27.9726  -19.2681  -15.8121 C   0  0  1  0  0  0  0  0  0  0  0  0
   27.4553  -20.1739  -14.7732 C   0  0  0  0  0  0  0  0  0  0  0  0
   27.7370  -21.4045  -14.8652 O   0  0  0  0  0  0  0  0  0  0  0  0
   27.2672  -20.5874   -8.4691 C   0  0  0  0  0  0  0  0  0  0  0  0
   25.4846  -20.6571   -8.7785 S   0  0  0  0  0  0  0  0  0  0  0  0
   25.2300  -21.2362  -10.4966 C   0  0  0  0  0  0  0  0  0  0  0  0
   26.0293  -20.3075  -11.3789 C   0  0  0  0  0  0  0  0  0  0  0  0
   25.9135  -20.6932  -12.8501 C   0  0  2  0  0  0  0  0  0  0  0  0
   26.6596  -19.7956  -13.6600 N   0  0  0  0  0  0  0  0  0  0  0  0
   24.4825  -20.8449  -13.1781 C   0  0  0  0  0  0  0  0  0  0  0  0
   23.8146  -19.7569  -13.0096 O   0  0  0  0  0  0  0  0  0  0  0  0
   23.8460  -22.0192  -13.6304 N   0  0  0  0  0  0  0  0  0  0  0  0
   24.3708  -23.3691  -13.6725 C   0  0  0  0  0  0  0  0  0  0  0  0
   23.1538  -24.2530  -13.8982 C   0  0  0  0  0  0  0  0  0  0  0  0
   22.2815  -23.3546  -14.7901 C   0  0  0  0  0  0  0  0  0  0  0  0
   22.4790  -22.0152  -14.1422 C   0  0  1  0  0  0  0  0  0  0  0  0
   21.5145  -21.8731  -13.0085 C   0  0  0  0  0  0  0  0  0  0  0  0
   21.8865  -21.9851  -11.8158 O   0  0  0  0  0  0  0  0  0  0  0  0
   20.1721  -21.6117  -13.2435 O   0  0  0  0  0  0  0  0  0  0  0  0
  2  3  1  0
  2  1  1  0
  4  3  1  0
  5  6  1  1
  5  4  1  0
  5  1  1  0
  6  7  2  0
  9  8  1  0
  9 10  1  0
 10 11  1  0
 12 11  1  1
 12 14  1  0
 13 12  1  0
 13  6  1  0
 14 15  2  0
 14 16  1  0
 16 17  1  0
 16 20  1  0
 18 17  1  0
 18 19  1  0
 19 20  1  0
 20 21  1  1
 21 22  2  0
 21 23  1  0
M  END
$$$$
