PMP.pdb
     RDKit          3D

 23 24  0  0  1  0  0  0  0  0999 V2000
   20.7219  -20.0870  -16.2244 N   0  0  0  0  0  0  0  0  0  0  0  0
   19.3182  -19.9100  -16.4286 C   0  0  0  0  0  0  0  0  0  0  0  0
   18.9620  -18.4842  -16.0750 C   0  0  0  0  0  0  0  0  0  0  0  0
   20.2091  -18.0428  -15.3010 C   0  0  0  0  0  0  0  0  0  0  0  0
   21.2770  -18.7722  -16.0455 C   0  0  1  0  0  0  0  0  0  0  0  0
   22.5908  -18.7871  -15.3813 C   0  0  0  0  0  0  0  0  0  0  0  0
   23.2180  -17.6921  -15.2824 O   0  0  0  0  0  0  0  0  0  0  0  0
   25.4086  -20.1760   -9.2961 C   0  0  0  0  0  0  0  0  0  0  0  0
   25.5325  -21.4623  -10.5642 S   0  0  0  0  0  0  0  0  0  0  0  0
   25.7962  -20.6419  -12.1797 C   0  0  0  0  0  0  0  0  0  0  0  0
   24.4815  -20.7275  -12.9173 C   0  0  0  0  0  0  0  0  0  0  0  0
   24.5116  -19.9231  -14.2129 C   0  0  2  0  0  0  0  0  0  0  0  0
   23.2325  -19.9277  -14.8312 N   0  0  0  0  0  0  0  0  0  0  0  0
   25.6422  -20.4040  -15.0307 C   0  0  0  0  0  0  0  0  0  0  0  0
   25.4877  -21.6186  -15.4295 O   0  0  0  0  0  0  0  0  0  0  0  0
   26.7969  -19.6724  -15.3775 N   0  0  0  0  0  0  0  0  0  0  0  0
   27.3029  -18.4523  -14.7819 C   0  0  0  0  0  0  0  0  0  0  0  0
   28.7286  -18.3296  -15.2972 C   0  0  0  0  0  0  0  0  0  0  0  0
   28.5985  -18.9252  -16.7086 C   0  0  0  0  0  0  0  0  0  0  0  0
   27.6894  -20.0920  -16.4535 C   0  0  1  0  0  0  0  0  0  0  0  0
   28.5075  -21.2609  -16.0059 C   0  0  0  0  0  0  0  0  0  0  0  0
   29.2352  -21.8945  -16.8073 O   0  0  0  0  0  0  0  0  0  0  0  0
   28.4857  -21.6813  -14.6837 O   0  0  0  0  0  0  0  0  0  0  0  0
  2  3  1  0
  2  1  1  0
  4  3  1  0
  5  6  1  1
  5  4  1  0
  5  1  1  0
  6  7  2  0
  9  8  1  0
  9 10  1  0
 10 11  1  0
 12 11  1  1
 12 14  1  0
 13 12  1  0
 13  6  1  0
 14 15  2  0
 14 16  1  0
 16 17  1  0
 16 20  1  0
 18 17  1  0
 18 19  1  0
 19 20  1  0
 20 21  1  1
 21 22  2  0
 21 23  1  0
M  END
$$$$
