PMP.pdb
     RDKit          3D

 23 24  0  0  1  0  0  0  0  0999 V2000
   27.5792  -18.0198  -15.7426 N   0  0  0  0  0  0  0  0  0  0  0  0
   28.5433  -17.2072  -16.4161 C   0  0  0  0  0  0  0  0  0  0  0  0
   29.7353  -18.0703  -16.7611 C   0  0  0  0  0  0  0  0  0  0  0  0
   29.4891  -19.2961  -15.8746 C   0  0  0  0  0  0  0  0  0  0  0  0
   28.0002  -19.3836  -15.9200 C   0  0  1  0  0  0  0  0  0  0  0  0
   27.4067  -20.3024  -14.9345 C   0  0  0  0  0  0  0  0  0  0  0  0
   27.4345  -21.5423  -15.1875 O   0  0  0  0  0  0  0  0  0  0  0  0
   25.9809  -19.3230   -8.5539 C   0  0  0  0  0  0  0  0  0  0  0  0
   25.9517  -21.1126   -8.8271 S   0  0  0  0  0  0  0  0  0  0  0  0
   25.4067  -21.4140  -10.5489 C   0  0  0  0  0  0  0  0  0  0  0  0
   26.2730  -20.5418  -11.4257 C   0  0  0  0  0  0  0  0  0  0  0  0
   25.9915  -20.7788  -12.9059 C   0  0  2  0  0  0  0  0  0  0  0  0
   26.7976  -19.9275  -13.7082 N   0  0  0  0  0  0  0  0  0  0  0  0
   24.5330  -20.7003  -13.1185 C   0  0  0  0  0  0  0  0  0  0  0  0
   24.0516  -19.5374  -12.8463 O   0  0  0  0  0  0  0  0  0  0  0  0
   23.6941  -21.7413  -13.5672 N   0  0  0  0  0  0  0  0  0  0  0  0
   24.0200  -23.1391  -13.7645 C   0  0  0  0  0  0  0  0  0  0  0  0
   22.6754  -23.8373  -13.8979 C   0  0  0  0  0  0  0  0  0  0  0  0
   21.8398  -22.7630  -14.6129 C   0  0  0  0  0  0  0  0  0  0  0  0
   22.2917  -21.5188  -13.9054 C   0  0  1  0  0  0  0  0  0  0  0  0
   21.4902  -21.3489  -12.6545 C   0  0  0  0  0  0  0  0  0  0  0  0
   21.9559  -21.6606  -11.5324 O   0  0  0  0  0  0  0  0  0  0  0  0
   20.2006  -20.8384  -12.6985 O   0  0  0  0  0  0  0  0  0  0  0  0
  2  3  1  0
  2  1  1  0
  4  3  1  0
  5  6  1  1
  5  4  1  0
  5  1  1  0
  6  7  2  0
  9  8  1  0
  9 10  1  0
 10 11  1  0
 12 11  1  1
 12 14  1  0
 13 12  1  0
 13  6  1  0
 14 15  2  0
 14 16  1  0
 16 17  1  0
 16 20  1  0
 18 17  1  0
 18 19  1  0
 19 20  1  0
 20 21  1  1
 21 22  2  0
 21 23  1  0
M  END
$$$$
