PMP.pdb
     RDKit          3D

 23 24  0  0  1  0  0  0  0  0999 V2000
   26.3401  -16.6387  -15.1563 N   0  0  0  0  0  0  0  0  0  0  0  0
   27.0463  -15.4846  -15.6178 C   0  0  0  0  0  0  0  0  0  0  0  0
   28.4066  -15.9240  -16.1090 C   0  0  0  0  0  0  0  0  0  0  0  0
   28.5057  -17.3312  -15.5095 C   0  0  0  0  0  0  0  0  0  0  0  0
   27.0867  -17.7817  -15.6091 C   0  0  1  0  0  0  0  0  0  0  0  0
   26.7753  -19.0080  -14.8563 C   0  0  0  0  0  0  0  0  0  0  0  0
   27.1229  -20.1167  -15.3586 O   0  0  0  0  0  0  0  0  0  0  0  0
   26.3251  -19.5159   -8.7620 C   0  0  0  0  0  0  0  0  0  0  0  0
   25.5253  -21.1253   -8.9819 S   0  0  0  0  0  0  0  0  0  0  0  0
   25.3320  -21.4212  -10.7784 C   0  0  0  0  0  0  0  0  0  0  0  0
   25.7067  -20.1285  -11.4628 C   0  0  0  0  0  0  0  0  0  0  0  0
   25.6538  -20.2617  -12.9813 C   0  0  2  0  0  0  0  0  0  0  0  0
   26.1137  -19.0693  -13.6017 N   0  0  0  0  0  0  0  0  0  0  0  0
   24.3042  -20.7245  -13.3591 C   0  0  0  0  0  0  0  0  0  0  0  0
   23.4059  -19.8135  -13.2131 O   0  0  0  0  0  0  0  0  0  0  0  0
   23.9602  -22.0070  -13.8344 N   0  0  0  0  0  0  0  0  0  0  0  0
   24.7737  -23.2056  -13.8616 C   0  0  0  0  0  0  0  0  0  0  0  0
   23.7923  -24.3362  -14.1290 C   0  0  0  0  0  0  0  0  0  0  0  0
   22.7704  -23.6466  -15.0476 C   0  0  0  0  0  0  0  0  0  0  0  0
   22.6437  -22.3028  -14.3910 C   0  0  1  0  0  0  0  0  0  0  0  0
   21.6362  -22.3895  -13.2895 C   0  0  0  0  0  0  0  0  0  0  0  0
   21.9861  -22.4345  -12.0858 O   0  0  0  0  0  0  0  0  0  0  0  0
   20.2772  -22.4229  -13.5679 O   0  0  0  0  0  0  0  0  0  0  0  0
  2  3  1  0
  2  1  1  0
  4  3  1  0
  5  6  1  1
  5  4  1  0
  5  1  1  0
  6  7  2  0
  9  8  1  0
  9 10  1  0
 10 11  1  0
 12 11  1  1
 12 14  1  0
 13 12  1  0
 13  6  1  0
 14 15  2  0
 14 16  1  0
 16 17  1  0
 16 20  1  0
 18 17  1  0
 18 19  1  0
 19 20  1  0
 20 21  1  1
 21 22  2  0
 21 23  1  0
M  END
$$$$
