PMP.pdb
     RDKit          3D

 23 24  0  0  1  0  0  0  0  0999 V2000
   18.5830  -13.5654    4.6544 N   0  0  0  0  0  0  0  0  0  0  0  0
   17.7541  -12.8168    3.7621 C   0  0  0  0  0  0  0  0  0  0  0  0
   16.6911  -12.1151    4.5759 C   0  0  0  0  0  0  0  0  0  0  0  0
   16.7878  -12.8627    5.9105 C   0  0  0  0  0  0  0  0  0  0  0  0
   18.2553  -13.1230    5.9832 C   0  0  1  0  0  0  0  0  0  0  0  0
   18.6602  -14.0808    7.0254 C   0  0  0  0  0  0  0  0  0  0  0  0
   18.4017  -13.7911    8.2301 O   0  0  0  0  0  0  0  0  0  0  0  0
   17.3771  -20.4257    5.0522 C   0  0  0  0  0  0  0  0  0  0  0  0
   18.8958  -19.7662    5.7847 S   0  0  0  0  0  0  0  0  0  0  0  0
   18.4839  -18.1898    6.6200 C   0  0  0  0  0  0  0  0  0  0  0  0
   19.7780  -17.6642    7.1935 C   0  0  0  0  0  0  0  0  0  0  0  0
   19.5967  -16.2824    7.8134 C   0  0  2  0  0  0  0  0  0  0  0  0
   19.3218  -15.3178    6.8074 N   0  0  0  0  0  0  0  0  0  0  0  0
   20.7536  -16.0120    8.6892 C   0  0  0  0  0  0  0  0  0  0  0  0
   21.7768  -15.5737    8.0419 O   0  0  0  0  0  0  0  0  0  0  0  0
   20.8067  -16.1906   10.0871 N   0  0  0  0  0  0  0  0  0  0  0  0
   19.7530  -16.6286   10.9799 C   0  0  0  0  0  0  0  0  0  0  0  0
   20.4636  -16.9810   12.2775 C   0  0  0  0  0  0  0  0  0  0  0  0
   21.6000  -15.9457   12.2976 C   0  0  0  0  0  0  0  0  0  0  0  0
   22.0217  -15.9430   10.8571 C   0  0  1  0  0  0  0  0  0  0  0  0
   22.9990  -17.0520   10.6313 C   0  0  0  0  0  0  0  0  0  0  0  0
   22.6410  -18.1483   10.1382 O   0  0  0  0  0  0  0  0  0  0  0  0
   24.3379  -16.9002   10.9624 O   0  0  0  0  0  0  0  0  0  0  0  0
  2  3  1  0
  2  1  1  0
  4  3  1  0
  5  6  1  1
  5  4  1  0
  5  1  1  0
  6  7  2  0
  9  8  1  0
  9 10  1  0
 10 11  1  0
 12 11  1  6
 12 14  1  0
 13 12  1  0
 13  6  1  0
 14 15  2  0
 14 16  1  0
 16 17  1  0
 16 20  1  0
 18 17  1  0
 18 19  1  0
 19 20  1  0
 20 21  1  1
 21 22  2  0
 21 23  1  0
M  END
$$$$
