PMP.pdb
     RDKit          3D

 23 24  0  0  1  0  0  0  0  0999 V2000
   20.9096  -22.0623  -13.9525 N   0  0  0  0  0  0  0  0  0  0  0  0
   19.5067  -22.2700  -13.7727 C   0  0  0  0  0  0  0  0  0  0  0  0
   18.8368  -20.9199  -13.6568 C   0  0  0  0  0  0  0  0  0  0  0  0
   20.0395  -20.0056  -13.3983 C   0  0  0  0  0  0  0  0  0  0  0  0
   21.0811  -20.6635  -14.2401 C   0  0  1  0  0  0  0  0  0  0  0  0
   22.4549  -20.1908  -14.0018 C   0  0  0  0  0  0  0  0  0  0  0  0
   22.7459  -19.0107  -14.3553 O   0  0  0  0  0  0  0  0  0  0  0  0
   26.4213  -20.6482   -8.1612 C   0  0  0  0  0  0  0  0  0  0  0  0
   25.0461  -20.9439   -9.3011 S   0  0  0  0  0  0  0  0  0  0  0  0
   25.3756  -20.0096  -10.8409 C   0  0  0  0  0  0  0  0  0  0  0  0
   25.4363  -21.0313  -11.9509 C   0  0  0  0  0  0  0  0  0  0  0  0
   24.8390  -20.4894  -13.2456 C   0  0  2  0  0  0  0  0  0  0  0  0
   23.5013  -20.9409  -13.4036 N   0  0  0  0  0  0  0  0  0  0  0  0
   25.7725  -20.7911  -14.3483 C   0  0  0  0  0  0  0  0  0  0  0  0
   25.6476  -21.9934  -14.7922 O   0  0  0  0  0  0  0  0  0  0  0  0
   26.7235  -19.9115  -14.9060 N   0  0  0  0  0  0  0  0  0  0  0  0
   27.1982  -18.6475  -14.3806 C   0  0  0  0  0  0  0  0  0  0  0  0
   28.4473  -18.3341  -15.1897 C   0  0  0  0  0  0  0  0  0  0  0  0
   28.0785  -18.9162  -16.5640 C   0  0  0  0  0  0  0  0  0  0  0  0
   27.3973  -20.1942  -16.1695 C   0  0  1  0  0  0  0  0  0  0  0  0
   28.4298  -21.2564  -15.9661 C   0  0  0  0  0  0  0  0  0  0  0  0
   28.7675  -21.6282  -14.8167 O   0  0  0  0  0  0  0  0  0  0  0  0
   29.0482  -21.8656  -17.0486 O   0  0  0  0  0  0  0  0  0  0  0  0
  2  3  1  0
  2  1  1  0
  4  3  1  0
  5  6  1  1
  5  4  1  0
  5  1  1  0
  6  7  2  0
  9  8  1  0
  9 10  1  0
 10 11  1  0
 12 11  1  1
 12 14  1  0
 13 12  1  0
 13  6  1  0
 14 15  2  0
 14 16  1  0
 16 17  1  0
 16 20  1  0
 18 17  1  0
 18 19  1  0
 19 20  1  0
 20 21  1  1
 21 22  2  0
 21 23  1  0
M  END
$$$$
