PMP.pdb
     RDKit          3D

 23 24  0  0  1  0  0  0  0  0999 V2000
   28.2793  -17.7325  -16.4455 N   0  0  0  0  0  0  0  0  0  0  0  0
   28.2037  -16.4891  -17.1466 C   0  0  0  0  0  0  0  0  0  0  0  0
   27.1360  -15.6399  -16.4956 C   0  0  0  0  0  0  0  0  0  0  0  0
   26.3929  -16.6813  -15.6514 C   0  0  0  0  0  0  0  0  0  0  0  0
   27.5209  -17.5649  -15.2349 C   0  0  1  0  0  0  0  0  0  0  0  0
   27.1113  -18.8432  -14.6302 C   0  0  0  0  0  0  0  0  0  0  0  0
   26.9792  -19.8449  -15.3927 O   0  0  0  0  0  0  0  0  0  0  0  0
   26.0529  -19.4836   -8.4290 C   0  0  0  0  0  0  0  0  0  0  0  0
   25.6590  -21.2131   -8.7921 S   0  0  0  0  0  0  0  0  0  0  0  0
   25.5484  -21.3993  -10.6102 C   0  0  0  0  0  0  0  0  0  0  0  0
   26.1574  -20.1504  -11.2012 C   0  0  0  0  0  0  0  0  0  0  0  0
   26.1872  -20.2077  -12.7251 C   0  0  2  0  0  0  0  0  0  0  0  0
   26.8470  -19.0658  -13.2532 N   0  0  0  0  0  0  0  0  0  0  0  0
   24.8147  -20.4588  -13.2063 C   0  0  0  0  0  0  0  0  0  0  0  0
   24.0581  -19.4206  -13.1185 O   0  0  0  0  0  0  0  0  0  0  0  0
   24.3150  -21.6742  -13.7182 N   0  0  0  0  0  0  0  0  0  0  0  0
   24.9709  -22.9648  -13.7758 C   0  0  0  0  0  0  0  0  0  0  0  0
   23.8565  -23.9548  -14.0779 C   0  0  0  0  0  0  0  0  0  0  0  0
   22.9363  -23.1170  -14.9805 C   0  0  0  0  0  0  0  0  0  0  0  0
   22.9756  -21.7862  -14.2874 C   0  0  1  0  0  0  0  0  0  0  0  0
   21.9575  -21.7747  -13.1922 C   0  0  0  0  0  0  0  0  0  0  0  0
   22.2875  -21.9252  -11.9915 O   0  0  0  0  0  0  0  0  0  0  0  0
   20.6105  -21.5962  -13.4734 O   0  0  0  0  0  0  0  0  0  0  0  0
  2  3  1  0
  2  1  1  0
  4  3  1  0
  5  6  1  6
  5  4  1  0
  5  1  1  0
  6  7  2  0
  9  8  1  0
  9 10  1  0
 10 11  1  0
 12 11  1  1
 12 14  1  0
 13 12  1  0
 13  6  1  0
 14 15  2  0
 14 16  1  0
 16 17  1  0
 16 20  1  0
 18 17  1  0
 18 19  1  0
 19 20  1  0
 20 21  1  1
 21 22  2  0
 21 23  1  0
M  END
$$$$
