PMP.pdb
     RDKit          3D

 23 24  0  0  1  0  0  0  0  0999 V2000
   14.6022  -20.5993    2.6412 N   0  0  0  0  0  0  0  0  0  0  0  0
   13.7548  -21.2597    1.6981 C   0  0  0  0  0  0  0  0  0  0  0  0
   14.5457  -22.3686    1.0428 C   0  0  0  0  0  0  0  0  0  0  0  0
   15.9793  -21.9884    1.4295 C   0  0  0  0  0  0  0  0  0  0  0  0
   15.7650  -21.4313    2.7971 C   0  0  1  0  0  0  0  0  0  0  0  0
   16.9196  -20.7086    3.3559 C   0  0  0  0  0  0  0  0  0  0  0  0
   17.9954  -21.3528    3.5291 O   0  0  0  0  0  0  0  0  0  0  0  0
   18.0618  -14.3388    3.7579 C   0  0  0  0  0  0  0  0  0  0  0  0
   17.7680  -15.1536    2.1680 S   0  0  0  0  0  0  0  0  0  0  0  0
   17.9399  -16.9594    2.4165 C   0  0  0  0  0  0  0  0  0  0  0  0
   18.0186  -17.1755    3.9088 C   0  0  0  0  0  0  0  0  0  0  0  0
   18.0725  -18.6591    4.2588 C   0  0  2  0  0  0  0  0  0  0  0  0
   16.9448  -19.3378    3.7241 N   0  0  0  0  0  0  0  0  0  0  0  0
   18.2902  -18.7844    5.7132 C   0  0  0  0  0  0  0  0  0  0  0  0
   17.1963  -18.7135    6.3888 O   0  0  0  0  0  0  0  0  0  0  0  0
   19.5290  -18.9630    6.3631 N   0  0  0  0  0  0  0  0  0  0  0  0
   20.8500  -19.0534    5.7749 C   0  0  0  0  0  0  0  0  0  0  0  0
   21.8089  -18.8760    6.9420 C   0  0  0  0  0  0  0  0  0  0  0  0
   21.0344  -19.5554    8.0832 C   0  0  0  0  0  0  0  0  0  0  0  0
   19.6362  -19.0805    7.8140 C   0  0  1  0  0  0  0  0  0  0  0  0
   19.4450  -17.7389    8.4461 C   0  0  0  0  0  0  0  0  0  0  0  0
   19.4382  -16.6885    7.7606 O   0  0  0  0  0  0  0  0  0  0  0  0
   19.2685  -17.6157    9.8169 O   0  0  0  0  0  0  0  0  0  0  0  0
  2  3  1  0
  2  1  1  0
  4  3  1  0
  5  6  1  6
  5  4  1  0
  5  1  1  0
  6  7  2  0
  9  8  1  0
  9 10  1  0
 10 11  1  0
 12 11  1  1
 12 14  1  0
 13 12  1  0
 13  6  1  0
 14 15  2  0
 14 16  1  0
 16 17  1  0
 16 20  1  0
 18 17  1  0
 18 19  1  0
 19 20  1  0
 20 21  1  1
 21 22  2  0
 21 23  1  0
M  END
$$$$
