PMP.pdb
     RDKit          3D

 23 24  0  0  1  0  0  0  0  0999 V2000
   26.4055  -16.2809  -15.4724 N   0  0  0  0  0  0  0  0  0  0  0  0
   27.0880  -15.0875  -15.8642 C   0  0  0  0  0  0  0  0  0  0  0  0
   28.3972  -15.4785  -16.5107 C   0  0  0  0  0  0  0  0  0  0  0  0
   28.5248  -16.9428  -16.0761 C   0  0  0  0  0  0  0  0  0  0  0  0
   27.0960  -17.3722  -16.1055 C   0  0  1  0  0  0  0  0  0  0  0  0
   26.8297  -18.6711  -15.4656 C   0  0  0  0  0  0  0  0  0  0  0  0
   27.2584  -19.7144  -16.0401 O   0  0  0  0  0  0  0  0  0  0  0  0
   24.6032  -20.4845   -9.0057 C   0  0  0  0  0  0  0  0  0  0  0  0
   26.1346  -21.1591   -9.6970 S   0  0  0  0  0  0  0  0  0  0  0  0
   25.8817  -21.4137  -11.4925 C   0  0  0  0  0  0  0  0  0  0  0  0
   26.0516  -20.0601  -12.1398 C   0  0  0  0  0  0  0  0  0  0  0  0
   25.8736  -20.1354  -13.6527 C   0  0  2  0  0  0  0  0  0  0  0  0
   26.1289  -18.8706  -14.2473 N   0  0  0  0  0  0  0  0  0  0  0  0
   24.5592  -20.7446  -13.9349 C   0  0  0  0  0  0  0  0  0  0  0  0
   23.5848  -19.9146  -13.7944 O   0  0  0  0  0  0  0  0  0  0  0  0
   24.3194  -22.0800  -14.3198 N   0  0  0  0  0  0  0  0  0  0  0  0
   25.2408  -23.1980  -14.3151 C   0  0  0  0  0  0  0  0  0  0  0  0
   24.3608  -24.4285  -14.4725 C   0  0  0  0  0  0  0  0  0  0  0  0
   23.2426  -23.8934  -15.3818 C   0  0  0  0  0  0  0  0  0  0  0  0
   23.0156  -22.5292  -14.7983 C   0  0  1  0  0  0  0  0  0  0  0  0
   22.0655  -22.6406  -13.6491 C   0  0  0  0  0  0  0  0  0  0  0  0
   22.4656  -22.5790  -12.4619 O   0  0  0  0  0  0  0  0  0  0  0  0
   20.7058  -22.8163  -13.8632 O   0  0  0  0  0  0  0  0  0  0  0  0
  2  3  1  0
  2  1  1  0
  4  3  1  0
  5  6  1  1
  5  4  1  0
  5  1  1  0
  6  7  2  0
  9  8  1  0
  9 10  1  0
 10 11  1  0
 12 11  1  1
 12 14  1  0
 13 12  1  0
 13  6  1  0
 14 15  2  0
 14 16  1  0
 16 17  1  0
 16 20  1  0
 18 17  1  0
 18 19  1  0
 19 20  1  0
 20 21  1  1
 21 22  2  0
 21 23  1  0
M  END
$$$$
