PMP.pdb
     RDKit          3D

 23 24  0  0  1  0  0  0  0  0999 V2000
   26.3267  -22.2639  -12.7695 N   0  0  0  0  0  0  0  0  0  0  0  0
   26.0471  -22.5455  -14.1429 C   0  0  0  0  0  0  0  0  0  0  0  0
   26.1109  -21.2489  -14.9171 C   0  0  0  0  0  0  0  0  0  0  0  0
   26.0588  -20.2167  -13.7851 C   0  0  0  0  0  0  0  0  0  0  0  0
   26.8379  -20.9202  -12.7247 C   0  0  1  0  0  0  0  0  0  0  0  0
   26.7451  -20.3130  -11.3867 C   0  0  0  0  0  0  0  0  0  0  0  0
   27.0619  -19.0936  -11.2654 O   0  0  0  0  0  0  0  0  0  0  0  0
   22.1334  -20.7650   -7.1967 C   0  0  0  0  0  0  0  0  0  0  0  0
   21.9827  -20.2507   -8.9261 S   0  0  0  0  0  0  0  0  0  0  0  0
   23.6697  -19.9965   -9.5906 C   0  0  0  0  0  0  0  0  0  0  0  0
   24.6210  -20.5224   -8.5426 C   0  0  0  0  0  0  0  0  0  0  0  0
   26.0758  -20.3304   -8.9583 C   0  0  2  0  0  0  0  0  0  0  0  0
   26.3271  -20.9720  -10.2007 N   0  0  0  0  0  0  0  0  0  0  0  0
   26.9371  -20.7235   -7.8260 C   0  0  0  0  0  0  0  0  0  0  0  0
   26.9065  -21.9895   -7.5926 O   0  0  0  0  0  0  0  0  0  0  0  0
   27.7327  -19.8643   -7.0401 N   0  0  0  0  0  0  0  0  0  0  0  0
   27.9048  -18.4311   -7.1649 C   0  0  0  0  0  0  0  0  0  0  0  0
   28.5618  -18.0029   -5.8617 C   0  0  0  0  0  0  0  0  0  0  0  0
   29.4454  -19.2211   -5.5473 C   0  0  0  0  0  0  0  0  0  0  0  0
   28.5319  -20.3521   -5.9204 C   0  0  1  0  0  0  0  0  0  0  0  0
   27.6411  -20.6644   -4.7607 C   0  0  0  0  0  0  0  0  0  0  0  0
   26.4147  -20.4028   -4.7895 O   0  0  0  0  0  0  0  0  0  0  0  0
   28.1476  -21.2561   -3.6123 O   0  0  0  0  0  0  0  0  0  0  0  0
  2  3  1  0
  2  1  1  0
  4  3  1  0
  5  6  1  1
  5  4  1  0
  5  1  1  0
  6  7  2  0
  9  8  1  0
  9 10  1  0
 10 11  1  0
 12 11  1  1
 12 14  1  0
 13 12  1  0
 13  6  1  0
 14 15  2  0
 14 16  1  0
 16 17  1  0
 16 20  1  0
 18 17  1  0
 18 19  1  0
 19 20  1  0
 20 21  1  1
 21 22  2  0
 21 23  1  0
M  END
$$$$
