PMP.pdb
     RDKit          3D

 23 24  0  0  1  0  0  0  0  0999 V2000
   28.8148  -19.4989  -16.4681 N   0  0  0  0  0  0  0  0  0  0  0  0
   28.9436  -18.4151  -17.3913 C   0  0  0  0  0  0  0  0  0  0  0  0
   28.0402  -17.2921  -16.9358 C   0  0  0  0  0  0  0  0  0  0  0  0
   27.1398  -18.0164  -15.9288 C   0  0  0  0  0  0  0  0  0  0  0  0
   28.1064  -18.9815  -15.3282 C   0  0  1  0  0  0  0  0  0  0  0  0
   27.4926  -20.0360  -14.5042 C   0  0  0  0  0  0  0  0  0  0  0  0
   27.1872  -21.1272  -15.0683 O   0  0  0  0  0  0  0  0  0  0  0  0
   27.1286  -20.5444   -8.0556 C   0  0  0  0  0  0  0  0  0  0  0  0
   25.3664  -20.7069   -8.4379 S   0  0  0  0  0  0  0  0  0  0  0  0
   25.2107  -21.1990  -10.1946 C   0  0  0  0  0  0  0  0  0  0  0  0
   26.1425  -20.2991  -10.9702 C   0  0  0  0  0  0  0  0  0  0  0  0
   26.1894  -20.6788  -12.4467 C   0  0  2  0  0  0  0  0  0  0  0  0
   27.2065  -19.9473  -13.1166 N   0  0  0  0  0  0  0  0  0  0  0  0
   24.8245  -20.5677  -12.9973 C   0  0  0  0  0  0  0  0  0  0  0  0
   24.3696  -19.3636  -12.9626 O   0  0  0  0  0  0  0  0  0  0  0  0
   24.0433  -21.6191  -13.5201 N   0  0  0  0  0  0  0  0  0  0  0  0
   24.3075  -23.0431  -13.4810 C   0  0  0  0  0  0  0  0  0  0  0  0
   22.9861  -23.6947  -13.8586 C   0  0  0  0  0  0  0  0  0  0  0  0
   22.4192  -22.6809  -14.8657 C   0  0  0  0  0  0  0  0  0  0  0  0
   22.7785  -21.3802  -14.2085 C   0  0  1  0  0  0  0  0  0  0  0  0
   21.7199  -21.0257  -13.2138 C   0  0  0  0  0  0  0  0  0  0  0  0
   21.8843  -21.2228  -11.9860 O   0  0  0  0  0  0  0  0  0  0  0  0
   20.5179  -20.4650  -13.6218 O   0  0  0  0  0  0  0  0  0  0  0  0
  2  3  1  0
  2  1  1  0
  4  3  1  0
  5  6  1  6
  5  4  1  0
  5  1  1  0
  6  7  2  0
  9  8  1  0
  9 10  1  0
 10 11  1  0
 12 11  1  1
 12 14  1  0
 13 12  1  0
 13  6  1  0
 14 15  2  0
 14 16  1  0
 16 17  1  0
 16 20  1  0
 18 17  1  0
 18 19  1  0
 19 20  1  0
 20 21  1  1
 21 22  2  0
 21 23  1  0
M  END
$$$$
