PMP.pdb
     RDKit          3D

 23 24  0  0  1  0  0  0  0  0999 V2000
   16.9059  -11.4679  -13.7426 N   0  0  0  0  0  0  0  0  0  0  0  0
   16.8221  -12.8507  -14.0952 C   0  0  0  0  0  0  0  0  0  0  0  0
   15.5485  -13.0652  -14.8805 C   0  0  0  0  0  0  0  0  0  0  0  0
   14.7831  -11.7725  -14.5764 C   0  0  0  0  0  0  0  0  0  0  0  0
   15.9028  -10.7880  -14.5174 C   0  0  1  0  0  0  0  0  0  0  0  0
   15.5390   -9.4737  -13.9625 C   0  0  0  0  0  0  0  0  0  0  0  0
   14.6583   -8.7968  -14.5693 O   0  0  0  0  0  0  0  0  0  0  0  0
   14.9809   -8.2376   -7.9646 C   0  0  0  0  0  0  0  0  0  0  0  0
   15.3873   -6.5138   -8.3405 S   0  0  0  0  0  0  0  0  0  0  0  0
   15.3494   -6.3064  -10.1592 C   0  0  0  0  0  0  0  0  0  0  0  0
   15.7773   -7.6306  -10.7451 C   0  0  0  0  0  0  0  0  0  0  0  0
   15.7124   -7.6172  -12.2689 C   0  0  2  0  0  0  0  0  0  0  0  0
   16.0876   -8.8828  -12.7940 N   0  0  0  0  0  0  0  0  0  0  0  0
   16.4724   -6.4490  -12.7548 C   0  0  0  0  0  0  0  0  0  0  0  0
   17.7364   -6.5481  -12.5298 O   0  0  0  0  0  0  0  0  0  0  0  0
   15.9418   -5.3138  -13.4017 N   0  0  0  0  0  0  0  0  0  0  0  0
   14.5552   -5.0052  -13.6866 C   0  0  0  0  0  0  0  0  0  0  0  0
   14.5522   -3.5293  -14.0539 C   0  0  0  0  0  0  0  0  0  0  0  0
   15.9077   -3.3859  -14.7648 C   0  0  0  0  0  0  0  0  0  0  0  0
   16.7891   -4.2311  -13.8921 C   0  0  1  0  0  0  0  0  0  0  0  0
   17.2740   -3.4072  -12.7423 C   0  0  0  0  0  0  0  0  0  0  0  0
   16.8365   -3.5852  -11.5803 O   0  0  0  0  0  0  0  0  0  0  0  0
   18.2273   -2.4162  -12.9279 O   0  0  0  0  0  0  0  0  0  0  0  0
  2  3  1  0
  2  1  1  0
  4  3  1  0
  5  6  1  1
  5  4  1  0
  5  1  1  0
  6  7  2  0
  9  8  1  0
  9 10  1  0
 10 11  1  0
 12 11  1  1
 12 14  1  0
 13 12  1  0
 13  6  1  0
 14 15  2  0
 14 16  1  0
 16 17  1  0
 16 20  1  0
 18 17  1  0
 18 19  1  0
 19 20  1  0
 20 21  1  1
 21 22  2  0
 21 23  1  0
M  END
$$$$
