QAF.pdb
     RDKit          3D

 26 26  0  0  1  0  0  0  0  0999 V2000
    7.8809  -12.1935   18.5053 N   0  0  0  0  0  0  0  0  0  0  0  0
    9.1543  -12.7012   18.8845 C   0  0  0  0  0  0  0  0  0  0  0  0
   10.0901  -11.8729   19.0109 O   0  0  0  0  0  0  0  0  0  0  0  0
    9.3280  -14.1520   19.1165 C   0  0  0  0  0  0  0  0  0  0  0  0
    8.9925  -14.5941   20.4691 C   0  0  0  0  0  0  0  0  0  0  0  0
    9.0504  -15.9872   20.8806 C   0  0  2  0  0  0  0  0  0  0  0  0
    8.1296  -16.7269   19.9792 N   0  0  0  0  0  0  0  0  0  0  0  0
    8.8077  -16.4380   22.2163 C   0  0  0  0  0  0  0  0  0  0  0  0
    7.7608  -16.2920   22.9008 O   0  0  0  0  0  0  0  0  0  0  0  0
   10.4662  -18.9106   24.5174 C   0  0  0  0  0  0  0  0  0  0  0  0
    9.6618  -17.6537   24.2673 C   0  0  2  0  0  0  0  0  0  0  0  0
    9.8448  -17.1534   22.9231 N   0  0  0  0  0  0  0  0  0  0  0  0
   10.0805  -16.6467   25.2552 C   0  0  0  0  0  0  0  0  0  0  0  0
   11.0311  -15.8655   24.9795 O   0  0  0  0  0  0  0  0  0  0  0  0
    9.4679  -16.5040   26.5140 N   0  0  0  0  0  0  0  0  0  0  0  0
    9.9215  -15.5855   27.5402 C   0  0  1  0  0  0  0  0  0  0  0  0
    8.6905  -14.9062   28.0805 C   0  0  0  0  0  0  0  0  0  0  0  0
    8.1112  -13.8932   27.1978 C   0  0  0  0  0  0  0  0  0  0  0  0
    6.8603  -14.0020   26.6557 C   0  0  0  0  0  0  0  0  0  0  0  0
    6.3562  -13.0217   25.8323 C   0  0  0  0  0  0  0  0  0  0  0  0
    7.0818  -11.8837   25.5116 C   0  0  0  0  0  0  0  0  0  0  0  0
    8.3420  -11.7732   26.0572 C   0  0  0  0  0  0  0  0  0  0  0  0
    8.8514  -12.7707   26.8934 C   0  0  0  0  0  0  0  0  0  0  0  0
   10.6585  -16.3682   28.5552 C   0  0  0  0  0  0  0  0  0  0  0  0
   10.6096  -17.6141   28.5328 O   0  0  0  0  0  0  0  0  0  0  0  0
   11.4058  -15.7375   29.5353 O   0  0  0  0  0  0  0  0  0  0  0  0
  2  3  2  0
  2  1  1  0
  4  2  1  0
  5  4  1  0
  6  5  1  0
  6  7  1  6
  8  6  1  0
  9  8  2  0
 11 10  1  6
 11 12  1  0
 12  8  1  0
 13 11  1  0
 14 13  2  0
 15 13  1  0
 16 17  1  1
 16 15  1  0
 17 18  1  0
 18 19  2  0
 19 20  1  0
 21 20  2  0
 22 21  1  0
 23 18  1  0
 23 22  2  0
 24 26  1  0
 24 16  1  0
 25 24  2  0
M  END
$$$$
