QAF.pdb
     RDKit          3D

 26 26  0  0  1  0  0  0  0  0999 V2000
    0.9575  -20.9060   19.8218 N   0  0  0  0  0  0  0  0  0  0  0  0
    0.7052  -19.6731   20.4846 C   0  0  0  0  0  0  0  0  0  0  0  0
   -0.4835  -19.4242   20.8047 O   0  0  0  0  0  0  0  0  0  0  0  0
    1.8254  -18.7503   20.7720 C   0  0  0  0  0  0  0  0  0  0  0  0
    3.1462  -19.2747   20.4283 C   0  0  0  0  0  0  0  0  0  0  0  0
    4.3738  -18.5298   20.6552 C   0  0  2  0  0  0  0  0  0  0  0  0
    5.4823  -19.3985   20.1817 N   0  0  0  0  0  0  0  0  0  0  0  0
    4.7575  -17.9855   21.9212 C   0  0  0  0  0  0  0  0  0  0  0  0
    4.3108  -16.9503   22.4823 O   0  0  0  0  0  0  0  0  0  0  0  0
    6.4128  -19.3015   24.9794 C   0  0  0  0  0  0  0  0  0  0  0  0
    6.1946  -18.1705   23.9983 C   0  0  2  0  0  0  0  0  0  0  0  0
    5.7730  -18.6530   22.7022 N   0  0  0  0  0  0  0  0  0  0  0  0
    7.4563  -17.4217   23.8859 C   0  0  0  0  0  0  0  0  0  0  0  0
    8.1837  -17.5817   22.8684 O   0  0  0  0  0  0  0  0  0  0  0  0
    7.9050  -16.5201   24.8687 N   0  0  0  0  0  0  0  0  0  0  0  0
    9.1046  -15.7146   24.7472 C   0  0  1  0  0  0  0  0  0  0  0  0
    8.6508  -14.3219   24.3963 C   0  0  0  0  0  0  0  0  0  0  0  0
    7.9322  -13.6238   25.4627 C   0  0  0  0  0  0  0  0  0  0  0  0
    6.5685  -13.6203   25.5664 C   0  0  0  0  0  0  0  0  0  0  0  0
    5.9365  -12.9512   26.5892 C   0  0  0  0  0  0  0  0  0  0  0  0
    6.6409  -12.2523   27.5586 C   0  0  0  0  0  0  0  0  0  0  0  0
    8.0146  -12.2552   27.4549 C   0  0  0  0  0  0  0  0  0  0  0  0
    8.6539  -12.9359   26.4149 C   0  0  0  0  0  0  0  0  0  0  0  0
    9.8349  -15.7928   26.0304 C   0  0  0  0  0  0  0  0  0  0  0  0
   10.9783  -15.3040   26.1235 O   0  0  0  0  0  0  0  0  0  0  0  0
    9.2673  -16.4028   27.1360 O   0  0  0  0  0  0  0  0  0  0  0  0
  2  3  2  0
  2  1  1  0
  4  2  1  0
  5  4  1  0
  6  5  1  0
  6  7  1  1
  8  6  1  0
  9  8  2  0
 11 10  1  1
 11 12  1  0
 12  8  1  0
 13 11  1  0
 14 13  2  0
 15 13  1  0
 16 17  1  1
 16 15  1  0
 17 18  1  0
 18 19  2  0
 19 20  1  0
 21 20  2  0
 22 21  1  0
 23 18  1  0
 23 22  2  0
 24 26  1  0
 24 16  1  0
 25 24  2  0
M  END
$$$$
