QAF.pdb
     RDKit          3D

 26 26  0  0  1  0  0  0  0  0999 V2000
    6.9656  -17.2986   15.9469 N   0  0  0  0  0  0  0  0  0  0  0  0
    8.2412  -17.8960   16.1448 C   0  0  0  0  0  0  0  0  0  0  0  0
    9.0245  -17.9194   15.1632 O   0  0  0  0  0  0  0  0  0  0  0  0
    8.5954  -18.4515   17.4695 C   0  0  0  0  0  0  0  0  0  0  0  0
    7.5442  -18.3303   18.4783 C   0  0  0  0  0  0  0  0  0  0  0  0
    7.8111  -17.9360   19.8519 C   0  0  2  0  0  0  0  0  0  0  0  0
    6.4908  -17.8650   20.5295 N   0  0  0  0  0  0  0  0  0  0  0  0
    8.5528  -16.7695   20.2201 C   0  0  0  0  0  0  0  0  0  0  0  0
    9.7932  -16.5797   20.1143 O   0  0  0  0  0  0  0  0  0  0  0  0
    7.6012  -13.2011   20.9206 C   0  0  0  0  0  0  0  0  0  0  0  0
    8.5254  -14.3882   21.0819 C   0  0  2  0  0  0  0  0  0  0  0  0
    7.8582  -15.6365   20.7866 N   0  0  0  0  0  0  0  0  0  0  0  0
    9.0265  -14.3845   22.4654 C   0  0  0  0  0  0  0  0  0  0  0  0
    9.7212  -13.4134   22.8706 O   0  0  0  0  0  0  0  0  0  0  0  0
    8.7691  -15.4236   23.3787 N   0  0  0  0  0  0  0  0  0  0  0  0
    9.2075  -15.4193   24.7609 C   0  0  1  0  0  0  0  0  0  0  0  0
    7.9612  -15.4731   25.6050 C   0  0  0  0  0  0  0  0  0  0  0  0
    7.4038  -14.1678   25.9603 C   0  0  0  0  0  0  0  0  0  0  0  0
    8.1577  -13.1478   26.4719 C   0  0  0  0  0  0  0  0  0  0  0  0
    7.5894  -11.9355   26.7890 C   0  0  0  0  0  0  0  0  0  0  0  0
    6.2367  -11.6861   26.6086 C   0  0  0  0  0  0  0  0  0  0  0  0
    5.4765  -12.7129   26.0932 C   0  0  0  0  0  0  0  0  0  0  0  0
    6.0566  -13.9433   25.7720 C   0  0  0  0  0  0  0  0  0  0  0  0
   10.1039  -16.5788   24.9555 C   0  0  0  0  0  0  0  0  0  0  0  0
   10.6129  -16.7877   26.0747 O   0  0  0  0  0  0  0  0  0  0  0  0
   10.3892  -17.4410   23.9106 O   0  0  0  0  0  0  0  0  0  0  0  0
  2  3  2  0
  2  1  1  0
  4  2  1  0
  5  4  1  0
  6  5  1  0
  6  7  1  1
  8  6  1  0
  9  8  2  0
 11 10  1  1
 11 12  1  0
 12  8  1  0
 13 11  1  0
 14 13  2  0
 15 13  1  0
 16 17  1  1
 16 15  1  0
 17 18  1  0
 18 19  2  0
 19 20  1  0
 21 20  2  0
 22 21  1  0
 23 18  1  0
 23 22  2  0
 24 26  1  0
 24 16  1  0
 25 24  2  0
M  END
$$$$
