QAF.pdb
     RDKit          3D

 26 26  0  0  1  0  0  0  0  0999 V2000
    5.3964  -19.6312   25.1430 N   0  0  0  0  0  0  0  0  0  0  0  0
    5.6776  -20.6474   24.1884 C   0  0  0  0  0  0  0  0  0  0  0  0
    5.5770  -21.8398   24.5702 O   0  0  0  0  0  0  0  0  0  0  0  0
    6.0649  -20.2745   22.8100 C   0  0  0  0  0  0  0  0  0  0  0  0
    6.1173  -18.8343   22.5638 C   0  0  0  0  0  0  0  0  0  0  0  0
    6.4605  -18.2675   21.2698 C   0  0  2  0  0  0  0  0  0  0  0  0
    6.8207  -19.4131   20.3949 N   0  0  0  0  0  0  0  0  0  0  0  0
    7.4446  -17.2472   21.0785 C   0  0  0  0  0  0  0  0  0  0  0  0
    8.6510  -17.3923   20.7475 O   0  0  0  0  0  0  0  0  0  0  0  0
    7.4107  -13.4492   20.9912 C   0  0  0  0  0  0  0  0  0  0  0  0
    8.0524  -14.7947   21.2508 C   0  0  2  0  0  0  0  0  0  0  0  0
    7.0785  -15.8631   21.2712 N   0  0  0  0  0  0  0  0  0  0  0  0
    8.7601  -14.7154   22.5385 C   0  0  0  0  0  0  0  0  0  0  0  0
    9.7009  -13.8878   22.6790 O   0  0  0  0  0  0  0  0  0  0  0  0
    8.4397  -15.5269   23.6426 N   0  0  0  0  0  0  0  0  0  0  0  0
    9.0565  -15.4039   24.9490 C   0  0  1  0  0  0  0  0  0  0  0  0
    7.9321  -15.3580   25.9502 C   0  0  0  0  0  0  0  0  0  0  0  0
    7.3519  -14.0313   26.1610 C   0  0  0  0  0  0  0  0  0  0  0  0
    8.1034  -12.9231   26.4394 C   0  0  0  0  0  0  0  0  0  0  0  0
    7.5130  -11.6946   26.6274 C   0  0  0  0  0  0  0  0  0  0  0  0
    6.1397  -11.5166   26.5455 C   0  0  0  0  0  0  0  0  0  0  0  0
    5.3819  -12.6325   26.2651 C   0  0  0  0  0  0  0  0  0  0  0  0
    5.9844  -13.8792   26.0746 C   0  0  0  0  0  0  0  0  0  0  0  0
    9.9642  -16.5565   25.1320 C   0  0  0  0  0  0  0  0  0  0  0  0
   10.6479  -16.6482   26.1708 O   0  0  0  0  0  0  0  0  0  0  0  0
   10.0684  -17.5408   24.1640 O   0  0  0  0  0  0  0  0  0  0  0  0
  2  3  2  0
  2  1  1  0
  4  2  1  0
  5  4  1  0
  6  5  1  0
  6  7  1  6
  8  6  1  0
  9  8  2  0
 11 10  1  1
 11 12  1  0
 12  8  1  0
 13 11  1  0
 14 13  2  0
 15 13  1  0
 16 17  1  1
 16 15  1  0
 17 18  1  0
 18 19  2  0
 19 20  1  0
 21 20  2  0
 22 21  1  0
 23 18  1  0
 23 22  2  0
 24 26  1  0
 24 16  1  0
 25 24  2  0
M  END
$$$$
