QAF.pdb
     RDKit          3D

 26 26  0  0  1  0  0  0  0  0999 V2000
    7.6555  -17.2366   16.5480 N   0  0  0  0  0  0  0  0  0  0  0  0
    7.0341  -18.4723   16.8796 C   0  0  0  0  0  0  0  0  0  0  0  0
    6.0052  -18.7910   16.2336 O   0  0  0  0  0  0  0  0  0  0  0  0
    7.6097  -19.3221   17.9452 C   0  0  0  0  0  0  0  0  0  0  0  0
    8.7262  -18.7148   18.6679 C   0  0  0  0  0  0  0  0  0  0  0  0
    8.5557  -17.9864   19.9144 C   0  0  2  0  0  0  0  0  0  0  0  0
    7.0955  -17.9636   20.1879 N   0  0  0  0  0  0  0  0  0  0  0  0
    9.0631  -16.6694   20.1477 C   0  0  0  0  0  0  0  0  0  0  0  0
   10.2634  -16.2894   20.1186 O   0  0  0  0  0  0  0  0  0  0  0  0
    7.5535  -13.2199   20.5270 C   0  0  0  0  0  0  0  0  0  0  0  0
    8.5925  -14.2768   20.8318 C   0  0  2  0  0  0  0  0  0  0  0  0
    8.1434  -15.5995   20.4587 N   0  0  0  0  0  0  0  0  0  0  0  0
    8.8862  -14.2177   22.2725 C   0  0  0  0  0  0  0  0  0  0  0  0
    9.4120  -13.1787   22.7559 O   0  0  0  0  0  0  0  0  0  0  0  0
    8.6079  -15.2759   23.1574 N   0  0  0  0  0  0  0  0  0  0  0  0
    8.8000  -15.2078   24.5930 C   0  0  1  0  0  0  0  0  0  0  0  0
    7.4255  -15.2111   25.2090 C   0  0  0  0  0  0  0  0  0  0  0  0
    7.0163  -13.9381   25.8033 C   0  0  0  0  0  0  0  0  0  0  0  0
    5.7381  -13.6840   26.2181 C   0  0  0  0  0  0  0  0  0  0  0  0
    5.4006  -12.4716   26.7742 C   0  0  0  0  0  0  0  0  0  0  0  0
    6.3284  -11.4539   26.9418 C   0  0  0  0  0  0  0  0  0  0  0  0
    7.6162  -11.7090   26.5243 C   0  0  0  0  0  0  0  0  0  0  0  0
    7.9562  -12.9416   25.9598 C   0  0  0  0  0  0  0  0  0  0  0  0
    9.6305  -16.3633   24.9944 C   0  0  0  0  0  0  0  0  0  0  0  0
    9.9659  -16.5008   26.1875 O   0  0  0  0  0  0  0  0  0  0  0  0
   10.0440  -17.3002   24.0627 O   0  0  0  0  0  0  0  0  0  0  0  0
  2  3  2  0
  2  1  1  0
  4  2  1  0
  5  4  1  0
  6  5  1  0
  6  7  1  6
  8  6  1  0
  9  8  2  0
 11 10  1  1
 11 12  1  0
 12  8  1  0
 13 11  1  0
 14 13  2  0
 15 13  1  0
 16 17  1  1
 16 15  1  0
 17 18  1  0
 18 19  2  0
 19 20  1  0
 21 20  2  0
 22 21  1  0
 23 18  1  0
 23 22  2  0
 24 26  1  0
 24 16  1  0
 25 24  2  0
M  END
$$$$
