QAF.pdb
     RDKit          3D

 26 26  0  0  1  0  0  0  0  0999 V2000
    7.8993  -12.2695   18.2734 N   0  0  0  0  0  0  0  0  0  0  0  0
    8.1114  -13.6757   18.2946 C   0  0  0  0  0  0  0  0  0  0  0  0
    9.2047  -14.1000   17.8447 O   0  0  0  0  0  0  0  0  0  0  0  0
    7.0644  -14.5691   18.8373 C   0  0  0  0  0  0  0  0  0  0  0  0
    6.6687  -14.2731   20.2133 C   0  0  0  0  0  0  0  0  0  0  0  0
    7.5591  -14.4591   21.3473 C   0  0  2  0  0  0  0  0  0  0  0  0
    8.8347  -13.7859   20.9908 N   0  0  0  0  0  0  0  0  0  0  0  0
    7.8820  -15.7337   21.9108 C   0  0  0  0  0  0  0  0  0  0  0  0
    7.0890  -16.5925   22.3794 O   0  0  0  0  0  0  0  0  0  0  0  0
   10.8986  -17.9768   21.9444 C   0  0  0  0  0  0  0  0  0  0  0  0
    9.6685  -17.3904   22.6019 C   0  0  2  0  0  0  0  0  0  0  0  0
    9.2640  -16.1487   21.9815 N   0  0  0  0  0  0  0  0  0  0  0  0
    9.9752  -17.1811   24.0258 C   0  0  0  0  0  0  0  0  0  0  0  0
   10.5696  -18.0863   24.6716 O   0  0  0  0  0  0  0  0  0  0  0  0
    9.6358  -16.0051   24.7201 N   0  0  0  0  0  0  0  0  0  0  0  0
   10.1804  -15.6374   26.0126 C   0  0  1  0  0  0  0  0  0  0  0  0
   10.1811  -14.1319   26.0638 C   0  0  0  0  0  0  0  0  0  0  0  0
    8.8534  -13.5192   26.1170 C   0  0  0  0  0  0  0  0  0  0  0  0
    8.2894  -13.0580   27.2744 C   0  0  0  0  0  0  0  0  0  0  0  0
    7.0380  -12.4862   27.2750 C   0  0  0  0  0  0  0  0  0  0  0  0
    6.2900  -12.3486   26.1148 C   0  0  0  0  0  0  0  0  0  0  0  0
    6.8574  -12.8129   24.9484 C   0  0  0  0  0  0  0  0  0  0  0  0
    8.1289  -13.3933   24.9508 C   0  0  0  0  0  0  0  0  0  0  0  0
    9.3386  -16.2639   27.0540 C   0  0  0  0  0  0  0  0  0  0  0  0
    8.2643  -16.8116   26.7360 O   0  0  0  0  0  0  0  0  0  0  0  0
    9.7251  -16.2527   28.3834 O   0  0  0  0  0  0  0  0  0  0  0  0
  2  3  2  0
  2  1  1  0
  4  2  1  0
  5  4  1  0
  6  5  1  0
  6  7  1  6
  8  6  1  0
  9  8  2  0
 11 10  1  6
 11 12  1  0
 12  8  1  0
 13 11  1  0
 14 13  2  0
 15 13  1  0
 16 17  1  1
 16 15  1  0
 17 18  1  0
 18 19  2  0
 19 20  1  0
 21 20  2  0
 22 21  1  0
 23 18  1  0
 23 22  2  0
 24 26  1  0
 24 16  1  0
 25 24  2  0
M  END
$$$$
