QAF.pdb
     RDKit          3D

 26 26  0  0  1  0  0  0  0  0999 V2000
    8.0402  -21.0101   23.9330 N   0  0  0  0  0  0  0  0  0  0  0  0
    8.7029  -21.4596   22.7575 C   0  0  0  0  0  0  0  0  0  0  0  0
    9.2943  -22.5661   22.8172 O   0  0  0  0  0  0  0  0  0  0  0  0
    8.6697  -20.6309   21.5323 C   0  0  0  0  0  0  0  0  0  0  0  0
    7.9961  -19.3429   21.6899 C   0  0  0  0  0  0  0  0  0  0  0  0
    7.8592  -18.3864   20.6037 C   0  0  2  0  0  0  0  0  0  0  0  0
    8.5080  -19.0052   19.4189 N   0  0  0  0  0  0  0  0  0  0  0  0
    8.2928  -17.0252   20.6763 C   0  0  0  0  0  0  0  0  0  0  0  0
    9.4092  -16.5527   20.3352 O   0  0  0  0  0  0  0  0  0  0  0  0
    6.5985  -13.7085   21.3944 C   0  0  0  0  0  0  0  0  0  0  0  0
    7.7896  -14.6410   21.3666 C   0  0  2  0  0  0  0  0  0  0  0  0
    7.3923  -16.0203   21.1923 N   0  0  0  0  0  0  0  0  0  0  0  0
    8.5250  -14.4705   22.6297 C   0  0  0  0  0  0  0  0  0  0  0  0
    9.0129  -13.3436   22.9158 O   0  0  0  0  0  0  0  0  0  0  0  0
    8.7179  -15.5143   23.5535 N   0  0  0  0  0  0  0  0  0  0  0  0
    9.4717  -15.3820   24.7851 C   0  0  1  0  0  0  0  0  0  0  0  0
    8.4669  -15.4124   25.9068 C   0  0  0  0  0  0  0  0  0  0  0  0
    7.8620  -14.1185   26.2241 C   0  0  0  0  0  0  0  0  0  0  0  0
    8.5948  -13.0139   26.5611 C   0  0  0  0  0  0  0  0  0  0  0  0
    7.9814  -11.8165   26.8491 C   0  0  0  0  0  0  0  0  0  0  0  0
    6.6026  -11.6674   26.8134 C   0  0  0  0  0  0  0  0  0  0  0  0
    5.8637  -12.7795   26.4740 C   0  0  0  0  0  0  0  0  0  0  0  0
    6.4896  -13.9946   26.1819 C   0  0  0  0  0  0  0  0  0  0  0  0
   10.4508  -16.4886   24.8382 C   0  0  0  0  0  0  0  0  0  0  0  0
   10.3720  -17.4257   24.0193 O   0  0  0  0  0  0  0  0  0  0  0  0
   11.4589  -16.5016   25.7871 O   0  0  0  0  0  0  0  0  0  0  0  0
  2  3  2  0
  2  1  1  0
  4  2  1  0
  5  4  1  0
  6  5  1  0
  6  7  1  6
  8  6  1  0
  9  8  2  0
 11 10  1  1
 11 12  1  0
 12  8  1  0
 13 11  1  0
 14 13  2  0
 15 13  1  0
 16 17  1  1
 16 15  1  0
 17 18  1  0
 18 19  2  0
 19 20  1  0
 21 20  2  0
 22 21  1  0
 23 18  1  0
 23 22  2  0
 24 26  1  0
 24 16  1  0
 25 24  2  0
M  END
$$$$
