QAF.pdb
     RDKit          3D

 26 26  0  0  1  0  0  0  0  0999 V2000
    7.3133  -17.4225   12.0937 N   0  0  0  0  0  0  0  0  0  0  0  0
    7.8642  -16.2113   12.5963 C   0  0  0  0  0  0  0  0  0  0  0  0
    7.3666  -15.1359   12.1798 O   0  0  0  0  0  0  0  0  0  0  0  0
    8.9746  -16.2582   13.5729 C   0  0  0  0  0  0  0  0  0  0  0  0
    8.5504  -16.3024   14.9714 C   0  0  0  0  0  0  0  0  0  0  0  0
    9.4893  -16.2850   16.0812 C   0  0  2  0  0  0  0  0  0  0  0  0
   10.6389  -17.1308   15.6682 N   0  0  0  0  0  0  0  0  0  0  0  0
    9.1477  -16.6399   17.4242 C   0  0  0  0  0  0  0  0  0  0  0  0
    8.2470  -16.1396   18.1483 O   0  0  0  0  0  0  0  0  0  0  0  0
   10.2079  -19.4434   19.7736 C   0  0  0  0  0  0  0  0  0  0  0  0
    9.5907  -18.1018   19.4442 C   0  0  2  0  0  0  0  0  0  0  0  0
    9.8835  -17.6901   18.0895 N   0  0  0  0  0  0  0  0  0  0  0  0
   10.1103  -17.1181   20.4073 C   0  0  0  0  0  0  0  0  0  0  0  0
   11.2021  -16.5341   20.1691 O   0  0  0  0  0  0  0  0  0  0  0  0
    9.4444  -16.7863   21.6018 N   0  0  0  0  0  0  0  0  0  0  0  0
    9.9010  -15.7736   22.5337 C   0  0  1  0  0  0  0  0  0  0  0  0
    8.7368  -14.8453   22.7607 C   0  0  0  0  0  0  0  0  0  0  0  0
    8.3422  -14.0586   21.5918 C   0  0  0  0  0  0  0  0  0  0  0  0
    9.1200  -13.0660   21.0623 C   0  0  0  0  0  0  0  0  0  0  0  0
    8.7080  -12.3542   19.9593 C   0  0  0  0  0  0  0  0  0  0  0  0
    7.4955  -12.6025   19.3327 C   0  0  0  0  0  0  0  0  0  0  0  0
    6.7114  -13.6021   19.8654 C   0  0  0  0  0  0  0  0  0  0  0  0
    7.1325  -14.3236   20.9859 C   0  0  0  0  0  0  0  0  0  0  0  0
   10.3578  -16.4601   23.7609 C   0  0  0  0  0  0  0  0  0  0  0  0
   10.9434  -15.8129   24.6516 O   0  0  0  0  0  0  0  0  0  0  0  0
   10.1451  -17.8165   23.9386 O   0  0  0  0  0  0  0  0  0  0  0  0
  2  3  2  0
  2  1  1  0
  4  2  1  0
  5  4  1  0
  6  5  1  0
  6  7  1  6
  8  6  1  0
  9  8  2  0
 11 10  1  1
 11 12  1  0
 12  8  1  0
 13 11  1  0
 14 13  2  0
 15 13  1  0
 16 17  1  1
 16 15  1  0
 17 18  1  0
 18 19  2  0
 19 20  1  0
 21 20  2  0
 22 21  1  0
 23 18  1  0
 23 22  2  0
 24 26  1  0
 24 16  1  0
 25 24  2  0
M  END
$$$$
