QAF.pdb
     RDKit          3D

 26 26  0  0  1  0  0  0  0  0999 V2000
    8.8385  -13.8063   16.4754 N   0  0  0  0  0  0  0  0  0  0  0  0
    8.6020  -13.2726   17.7724 C   0  0  0  0  0  0  0  0  0  0  0  0
    9.5900  -12.8063   18.3921 O   0  0  0  0  0  0  0  0  0  0  0  0
    7.2324  -13.2802   18.3320 C   0  0  0  0  0  0  0  0  0  0  0  0
    7.1578  -13.6410   19.7469 C   0  0  0  0  0  0  0  0  0  0  0  0
    8.0169  -14.6464   20.3507 C   0  0  2  0  0  0  0  0  0  0  0  0
    8.2090  -15.7024   19.3232 N   0  0  0  0  0  0  0  0  0  0  0  0
    7.7380  -15.2950   21.5948 C   0  0  0  0  0  0  0  0  0  0  0  0
    7.1544  -14.8131   22.6013 O   0  0  0  0  0  0  0  0  0  0  0  0
    8.3684  -18.8181   22.9445 C   0  0  0  0  0  0  0  0  0  0  0  0
    7.9313  -17.3721   23.0308 C   0  0  2  0  0  0  0  0  0  0  0  0
    8.1467  -16.6672   21.7869 N   0  0  0  0  0  0  0  0  0  0  0  0
    8.6868  -16.7373   24.1223 C   0  0  0  0  0  0  0  0  0  0  0  0
    9.8628  -16.3350   23.9102 O   0  0  0  0  0  0  0  0  0  0  0  0
    8.1603  -16.5504   25.4139 N   0  0  0  0  0  0  0  0  0  0  0  0
    8.8689  -15.8916   26.4939 C   0  0  1  0  0  0  0  0  0  0  0  0
    7.8475  -15.0717   27.2379 C   0  0  0  0  0  0  0  0  0  0  0  0
    7.4996  -13.8007   26.6021 C   0  0  0  0  0  0  0  0  0  0  0  0
    8.4319  -12.9451   26.0833 C   0  0  0  0  0  0  0  0  0  0  0  0
    8.0567  -11.7609   25.4918 C   0  0  0  0  0  0  0  0  0  0  0  0
    6.7277  -11.3760   25.3912 C   0  0  0  0  0  0  0  0  0  0  0  0
    5.7878  -12.2373   25.9135 C   0  0  0  0  0  0  0  0  0  0  0  0
    6.1720  -13.4396   26.5138 C   0  0  0  0  0  0  0  0  0  0  0  0
    9.5051  -16.9374   27.3229 C   0  0  0  0  0  0  0  0  0  0  0  0
   10.2810  -16.6120   28.2433 O   0  0  0  0  0  0  0  0  0  0  0  0
    9.2525  -18.2791   27.0931 O   0  0  0  0  0  0  0  0  0  0  0  0
  2  3  2  0
  2  1  1  0
  4  2  1  0
  5  4  1  0
  6  5  1  0
  6  7  1  6
  8  6  1  0
  9  8  2  0
 11 10  1  6
 11 12  1  0
 12  8  1  0
 13 11  1  0
 14 13  2  0
 15 13  1  0
 16 17  1  1
 16 15  1  0
 17 18  1  0
 18 19  2  0
 19 20  1  0
 21 20  2  0
 22 21  1  0
 23 18  1  0
 23 22  2  0
 24 26  1  0
 24 16  1  0
 25 24  2  0
M  END
$$$$
