QAF.pdb
     RDKit          3D

 26 26  0  0  1  0  0  0  0  0999 V2000
    9.1820  -12.4588   18.7837 N   0  0  0  0  0  0  0  0  0  0  0  0
    8.1587  -13.2738   18.2255 C   0  0  0  0  0  0  0  0  0  0  0  0
    7.9438  -13.1646   16.9928 O   0  0  0  0  0  0  0  0  0  0  0  0
    7.4036  -14.2036   19.0939 C   0  0  0  0  0  0  0  0  0  0  0  0
    7.7359  -14.1109   20.5147 C   0  0  0  0  0  0  0  0  0  0  0  0
    8.3371  -15.2068   21.2571 C   0  0  2  0  0  0  0  0  0  0  0  0
    8.5164  -16.3184   20.2877 N   0  0  0  0  0  0  0  0  0  0  0  0
    7.7855  -15.7590   22.4558 C   0  0  0  0  0  0  0  0  0  0  0  0
    6.6268  -16.2207   22.6298 O   0  0  0  0  0  0  0  0  0  0  0  0
    9.7113  -17.9857   23.3027 C   0  0  0  0  0  0  0  0  0  0  0  0
    8.9696  -17.0812   24.2624 C   0  0  2  0  0  0  0  0  0  0  0  0
    8.6006  -15.8261   23.6467 N   0  0  0  0  0  0  0  0  0  0  0  0
    9.8392  -16.8498   25.4268 C   0  0  0  0  0  0  0  0  0  0  0  0
   10.3791  -17.8332   26.0025 O   0  0  0  0  0  0  0  0  0  0  0  0
   10.1070  -15.5686   25.9434 N   0  0  0  0  0  0  0  0  0  0  0  0
   10.0325  -15.2268   27.3506 C   0  0  1  0  0  0  0  0  0  0  0  0
    8.5743  -15.0148   27.6626 C   0  0  0  0  0  0  0  0  0  0  0  0
    7.9730  -13.8457   27.0203 C   0  0  0  0  0  0  0  0  0  0  0  0
    8.6995  -12.7611   26.6124 C   0  0  0  0  0  0  0  0  0  0  0  0
    8.0900  -11.6848   26.0099 C   0  0  0  0  0  0  0  0  0  0  0  0
    6.7216  -11.6428   25.7864 C   0  0  0  0  0  0  0  0  0  0  0  0
    5.9888  -12.7348   26.1969 C   0  0  0  0  0  0  0  0  0  0  0  0
    6.6107  -13.8269   26.8087 C   0  0  0  0  0  0  0  0  0  0  0  0
   10.6469  -16.3309   28.1183 C   0  0  0  0  0  0  0  0  0  0  0  0
   11.1766  -16.0980   29.2229 O   0  0  0  0  0  0  0  0  0  0  0  0
   10.6439  -17.6259   27.6285 O   0  0  0  0  0  0  0  0  0  0  0  0
  2  3  2  0
  2  1  1  0
  4  2  1  0
  5  4  1  0
  6  5  1  0
  6  7  1  6
  8  6  1  0
  9  8  2  0
 11 10  1  6
 11 12  1  0
 12  8  1  0
 13 11  1  0
 14 13  2  0
 15 13  1  0
 16 17  1  1
 16 15  1  0
 17 18  1  0
 18 19  2  0
 19 20  1  0
 21 20  2  0
 22 21  1  0
 23 18  1  0
 23 22  2  0
 24 26  1  0
 24 16  1  0
 25 24  2  0
M  END
$$$$
