QAF.pdb
     RDKit          3D

 26 26  0  0  1  0  0  0  0  0999 V2000
   10.4257  -20.5226   17.8499 N   0  0  0  0  0  0  0  0  0  0  0  0
    9.1246  -21.0575   18.0601 C   0  0  0  0  0  0  0  0  0  0  0  0
    8.9324  -22.2528   17.7254 O   0  0  0  0  0  0  0  0  0  0  0  0
    8.0687  -20.2097   18.6560 C   0  0  0  0  0  0  0  0  0  0  0  0
    8.4792  -18.8336   18.9306 C   0  0  0  0  0  0  0  0  0  0  0  0
    8.4487  -18.2525   20.2628 C   0  0  2  0  0  0  0  0  0  0  0  0
    7.1094  -18.5665   20.8243 N   0  0  0  0  0  0  0  0  0  0  0  0
    8.7269  -16.8776   20.5429 C   0  0  0  0  0  0  0  0  0  0  0  0
    9.8109  -16.2600   20.3710 O   0  0  0  0  0  0  0  0  0  0  0  0
    6.6034  -13.8570   21.3760 C   0  0  0  0  0  0  0  0  0  0  0  0
    7.8960  -14.6432   21.3979 C   0  0  2  0  0  0  0  0  0  0  0  0
    7.6845  -16.0397   21.0891 N   0  0  0  0  0  0  0  0  0  0  0  0
    8.4917  -14.4938   22.7351 C   0  0  0  0  0  0  0  0  0  0  0  0
    8.9096  -13.3631   23.1049 O   0  0  0  0  0  0  0  0  0  0  0  0
    8.6235  -15.5622   23.6413 N   0  0  0  0  0  0  0  0  0  0  0  0
    9.2320  -15.4467   24.9524 C   0  0  1  0  0  0  0  0  0  0  0  0
    8.1023  -15.2833   25.9352 C   0  0  0  0  0  0  0  0  0  0  0  0
    7.7569  -13.8963   26.2481 C   0  0  0  0  0  0  0  0  0  0  0  0
    8.6897  -12.9469   26.5625 C   0  0  0  0  0  0  0  0  0  0  0  0
    8.3173  -11.6533   26.8471 C   0  0  0  0  0  0  0  0  0  0  0  0
    6.9908  -11.2478   26.8305 C   0  0  0  0  0  0  0  0  0  0  0  0
    6.0504  -12.2035   26.5139 C   0  0  0  0  0  0  0  0  0  0  0  0
    6.4317  -13.5168   26.2252 C   0  0  0  0  0  0  0  0  0  0  0  0
   10.0453  -16.6597   25.1829 C   0  0  0  0  0  0  0  0  0  0  0  0
   10.6683  -16.7937   26.2549 O   0  0  0  0  0  0  0  0  0  0  0  0
   10.1273  -17.6544   24.2234 O   0  0  0  0  0  0  0  0  0  0  0  0
  2  3  2  0
  2  1  1  0
  4  2  1  0
  5  4  1  0
  6  5  1  0
  6  7  1  6
  8  6  1  0
  9  8  2  0
 11 10  1  1
 11 12  1  0
 12  8  1  0
 13 11  1  0
 14 13  2  0
 15 13  1  0
 16 17  1  1
 16 15  1  0
 17 18  1  0
 18 19  2  0
 19 20  1  0
 21 20  2  0
 22 21  1  0
 23 18  1  0
 23 22  2  0
 24 26  1  0
 24 16  1  0
 25 24  2  0
M  END
$$$$
