ESG.pdb
     RDKit          3D

 20 19  0  0  1  0  0  0  0  0999 V2000
   21.8038  -11.7749  -15.9494 N   0  0  0  0  0  0  0  0  0  0  0  0
   22.3055  -10.8929  -17.0303 C   0  0  1  0  0  0  0  0  0  0  0  0
   21.8344  -11.4204  -18.3556 C   0  0  0  0  0  0  0  0  0  0  0  0
   21.9603  -12.9094  -18.4107 C   0  0  0  0  0  0  0  0  0  0  0  0
   21.4809  -13.3933  -19.7278 C   0  0  0  0  0  0  0  0  0  0  0  0
   22.2827  -13.7155  -20.6157 O   0  0  0  0  0  0  0  0  0  0  0  0
   21.7501   -9.5284  -16.7960 C   0  0  0  0  0  0  0  0  0  0  0  0
   22.0325   -8.5378  -17.4887 O   0  0  0  0  0  0  0  0  0  0  0  0
   20.0878  -13.4662  -19.9151 O   0  0  0  0  0  0  0  0  0  0  0  0
   18.9854   -8.8502  -13.6482 O   0  0  0  0  0  0  0  0  0  0  0  0
   18.9747   -8.0571  -14.7871 C   0  0  0  0  0  0  0  0  0  0  0  0
   20.3337   -7.9710  -15.4535 C   0  0  2  0  0  0  0  0  0  0  0  0
   20.8258   -9.2936  -15.7127 N   0  0  0  0  0  0  0  0  0  0  0  0
   21.2246   -7.1539  -14.6159 C   0  0  0  0  0  0  0  0  0  0  0  0
   22.1026   -7.7538  -13.9459 O   0  0  0  0  0  0  0  0  0  0  0  0
   21.1510   -5.7298  -14.5191 N   0  0  0  0  0  0  0  0  0  0  0  0
   22.0730   -5.0027  -13.6534 C   0  0  0  0  0  0  0  0  0  0  0  0
   21.8108   -3.5581  -13.7600 C   0  0  0  0  0  0  0  0  0  0  0  0
   22.4920   -2.6413  -12.9678 O   0  0  0  0  0  0  0  0  0  0  0  0
   20.9523   -3.0949  -14.5797 O   0  0  0  0  0  0  0  0  0  0  0  0
  2  3  1  0
  2  1  1  1
  4  3  1  0
  5  6  2  0
  5  4  1  0
  7  2  1  0
  7  8  2  0
  9  5  1  0
 10 11  1  0
 12 11  1  1
 12 13  1  0
 13  7  1  0
 14 12  1  0
 14 16  1  0
 15 14  2  0
 17 16  1  0
 18 17  1  0
 19 18  1  0
 20 18  2  0
M  END
$$$$
