ESG.pdb
     RDKit          3D

 20 19  0  0  1  0  0  0  0  0999 V2000
   20.4352  -12.5451  -15.8447 N   0  0  0  0  0  0  0  0  0  0  0  0
   20.1476  -11.2077  -16.4161 C   0  0  1  0  0  0  0  0  0  0  0  0
   18.7808  -10.7668  -15.9750 C   0  0  0  0  0  0  0  0  0  0  0  0
   17.7218  -11.6325  -16.5792 C   0  0  0  0  0  0  0  0  0  0  0  0
   16.3912  -11.1830  -16.1038 C   0  0  0  0  0  0  0  0  0  0  0  0
   15.7729  -10.2900  -16.6999 O   0  0  0  0  0  0  0  0  0  0  0  0
   21.1809  -10.2632  -15.9009 C   0  0  0  0  0  0  0  0  0  0  0  0
   21.6076  -10.2726  -14.7353 O   0  0  0  0  0  0  0  0  0  0  0  0
   15.8742  -11.8133  -14.9564 O   0  0  0  0  0  0  0  0  0  0  0  0
   25.0702   -7.7467  -16.6417 O   0  0  0  0  0  0  0  0  0  0  0  0
   24.0204   -8.5251  -17.1088 C   0  0  0  0  0  0  0  0  0  0  0  0
   22.7606   -8.3673  -16.2803 C   0  0  2  0  0  0  0  0  0  0  0  0
   21.7496   -9.2604  -16.7690 N   0  0  0  0  0  0  0  0  0  0  0  0
   22.3618   -6.9517  -16.2837 C   0  0  0  0  0  0  0  0  0  0  0  0
   21.8246   -6.5028  -17.3276 O   0  0  0  0  0  0  0  0  0  0  0  0
   22.5480   -6.0636  -15.1794 N   0  0  0  0  0  0  0  0  0  0  0  0
   22.1198   -4.6723  -15.2741 C   0  0  0  0  0  0  0  0  0  0  0  0
   20.7355   -4.5505  -14.7885 C   0  0  0  0  0  0  0  0  0  0  0  0
   20.0940   -3.3181  -14.7407 O   0  0  0  0  0  0  0  0  0  0  0  0
   20.0749   -5.5664  -14.3950 O   0  0  0  0  0  0  0  0  0  0  0  0
  2  3  1  0
  2  1  1  1
  4  3  1  0
  5  6  2  0
  5  4  1  0
  7  2  1  0
  7  8  2  0
  9  5  1  0
 10 11  1  0
 12 11  1  6
 12 13  1  0
 13  7  1  0
 14 12  1  0
 14 16  1  0
 15 14  2  0
 17 16  1  0
 18 17  1  0
 19 18  1  0
 20 18  2  0
M  END
$$$$
