ESG.pdb
     RDKit          3D

 20 19  0  0  1  0  0  0  0  0999 V2000
   15.4523   -9.9188  -15.9704 N   0  0  0  0  0  0  0  0  0  0  0  0
   16.7725  -10.2131  -15.3635 C   0  0  1  0  0  0  0  0  0  0  0  0
   17.7503  -10.5542  -16.4517 C   0  0  0  0  0  0  0  0  0  0  0  0
   17.5355  -11.9505  -16.9416 C   0  0  0  0  0  0  0  0  0  0  0  0
   18.2228  -12.8997  -16.0332 C   0  0  0  0  0  0  0  0  0  0  0  0
   17.5786  -13.5880  -15.2292 O   0  0  0  0  0  0  0  0  0  0  0  0
   17.2205   -8.9891  -14.6381 C   0  0  0  0  0  0  0  0  0  0  0  0
   16.9739   -7.8322  -15.0146 O   0  0  0  0  0  0  0  0  0  0  0  0
   19.6249  -12.9771  -16.1291 O   0  0  0  0  0  0  0  0  0  0  0  0
   19.0915   -7.0856  -10.5849 O   0  0  0  0  0  0  0  0  0  0  0  0
   18.5286   -8.1511  -11.2733 C   0  0  0  0  0  0  0  0  0  0  0  0
   18.4964   -7.9280  -12.7726 C   0  0  2  0  0  0  0  0  0  0  0  0
   17.9889   -9.1026  -13.4218 N   0  0  0  0  0  0  0  0  0  0  0  0
   19.8372   -7.5263  -13.2238 C   0  0  0  0  0  0  0  0  0  0  0  0
   20.7087   -8.4262  -13.3262 O   0  0  0  0  0  0  0  0  0  0  0  0
   20.2049   -6.1841  -13.5495 N   0  0  0  0  0  0  0  0  0  0  0  0
   21.5884   -5.8597  -13.8794 C   0  0  0  0  0  0  0  0  0  0  0  0
   21.6709   -4.4603  -14.3285 C   0  0  0  0  0  0  0  0  0  0  0  0
   22.8980   -3.8369  -14.5237 O   0  0  0  0  0  0  0  0  0  0  0  0
   20.6244   -3.7696  -14.5545 O   0  0  0  0  0  0  0  0  0  0  0  0
  2  3  1  0
  2  1  1  6
  4  3  1  0
  5  6  2  0
  5  4  1  0
  7  2  1  0
  7  8  2  0
  9  5  1  0
 10 11  1  0
 12 11  1  1
 12 13  1  0
 13  7  1  0
 14 12  1  0
 14 16  1  0
 15 14  2  0
 17 16  1  0
 18 17  1  0
 19 18  1  0
 20 18  2  0
M  END
$$$$
