ESG.pdb
     RDKit          3D

 20 19  0  0  1  0  0  0  0  0999 V2000
   21.0090  -20.6160  -10.5548 N   0  0  0  0  0  0  0  0  0  0  0  0
   21.6548  -20.9425  -11.8487 C   0  0  1  0  0  0  0  0  0  0  0  0
   20.8323  -20.3708  -12.9682 C   0  0  0  0  0  0  0  0  0  0  0  0
   19.5395  -21.1088  -13.1092 C   0  0  0  0  0  0  0  0  0  0  0  0
   19.6076  -21.9942  -14.2967 C   0  0  0  0  0  0  0  0  0  0  0  0
   19.9898  -21.5587  -15.3918 O   0  0  0  0  0  0  0  0  0  0  0  0
   23.0132  -20.3260  -11.8453 C   0  0  0  0  0  0  0  0  0  0  0  0
   23.2562  -19.1891  -11.4104 O   0  0  0  0  0  0  0  0  0  0  0  0
   19.2207  -23.3358  -14.1186 O   0  0  0  0  0  0  0  0  0  0  0  0
   26.6171  -22.4308  -12.4838 O   0  0  0  0  0  0  0  0  0  0  0  0
   26.5351  -21.1132  -12.0556 C   0  0  0  0  0  0  0  0  0  0  0  0
   25.3681  -20.3683  -12.6737 C   0  0  2  0  0  0  0  0  0  0  0  0
   24.1451  -21.0532  -12.3674 N   0  0  0  0  0  0  0  0  0  0  0  0
   25.6172  -20.2021  -14.1135 C   0  0  0  0  0  0  0  0  0  0  0  0
   25.0333  -20.9914  -14.8982 O   0  0  0  0  0  0  0  0  0  0  0  0
   26.4775  -19.2047  -14.6685 N   0  0  0  0  0  0  0  0  0  0  0  0
   26.6949  -19.1399  -16.1096 C   0  0  0  0  0  0  0  0  0  0  0  0
   27.5194  -17.9630  -16.4292 C   0  0  0  0  0  0  0  0  0  0  0  0
   27.9654  -17.7255  -17.7242 O   0  0  0  0  0  0  0  0  0  0  0  0
   27.8544  -17.1204  -15.5342 O   0  0  0  0  0  0  0  0  0  0  0  0
  2  3  1  0
  2  1  1  1
  4  3  1  0
  5  6  2  0
  5  4  1  0
  7  2  1  0
  7  8  2  0
  9  5  1  0
 10 11  1  0
 12 11  1  6
 12 13  1  0
 13  7  1  0
 14 12  1  0
 14 16  1  0
 15 14  2  0
 17 16  1  0
 18 17  1  0
 19 18  1  0
 20 18  2  0
M  END
$$$$
