ESG.pdb
     RDKit          3D

 20 19  0  0  1  0  0  0  0  0999 V2000
   17.0278  -10.4610  -16.7192 N   0  0  0  0  0  0  0  0  0  0  0  0
   17.7069  -10.6919  -15.4217 C   0  0  1  0  0  0  0  0  0  0  0  0
   18.0358  -12.1518  -15.2905 C   0  0  0  0  0  0  0  0  0  0  0  0
   16.7888  -12.9745  -15.2260 C   0  0  0  0  0  0  0  0  0  0  0  0
   17.1524  -14.4082  -15.1213 C   0  0  0  0  0  0  0  0  0  0  0  0
   18.3397  -14.7615  -15.0970 O   0  0  0  0  0  0  0  0  0  0  0  0
   18.9600   -9.8826  -15.4160 C   0  0  0  0  0  0  0  0  0  0  0  0
   19.7856   -9.8917  -14.4891 O   0  0  0  0  0  0  0  0  0  0  0  0
   16.0945  -15.3340  -15.0527 O   0  0  0  0  0  0  0  0  0  0  0  0
   21.4442   -9.0102  -18.5538 O   0  0  0  0  0  0  0  0  0  0  0  0
   20.8997   -7.9030  -17.9186 C   0  0  0  0  0  0  0  0  0  0  0  0
   20.4540   -8.2017  -16.5006 C   0  0  2  0  0  0  0  0  0  0  0  0
   19.2772   -9.0220  -16.5302 N   0  0  0  0  0  0  0  0  0  0  0  0
   20.2815   -6.9327  -15.7776 C   0  0  0  0  0  0  0  0  0  0  0  0
   19.2125   -6.2988  -15.9650 O   0  0  0  0  0  0  0  0  0  0  0  0
   21.2500   -6.3820  -14.8823 N   0  0  0  0  0  0  0  0  0  0  0  0
   20.9673   -5.1447  -14.1632 C   0  0  0  0  0  0  0  0  0  0  0  0
   22.0436   -4.8835  -13.1935 C   0  0  0  0  0  0  0  0  0  0  0  0
   22.0483   -3.7324  -12.4143 O   0  0  0  0  0  0  0  0  0  0  0  0
   23.0084   -5.6998  -13.0321 O   0  0  0  0  0  0  0  0  0  0  0  0
  2  3  1  0
  2  1  1  6
  4  3  1  0
  5  6  2  0
  5  4  1  0
  7  2  1  0
  7  8  2  0
  9  5  1  0
 10 11  1  0
 12 11  1  6
 12 13  1  0
 13  7  1  0
 14 12  1  0
 14 16  1  0
 15 14  2  0
 17 16  1  0
 18 17  1  0
 19 18  1  0
 20 18  2  0
M  END
$$$$
