ESG.pdb
     RDKit          3D

 20 19  0  0  1  0  0  0  0  0999 V2000
   19.1699   -9.8993  -17.5246 N   0  0  0  0  0  0  0  0  0  0  0  0
   18.1026   -9.1714  -16.7974 C   0  0  1  0  0  0  0  0  0  0  0  0
   17.0207  -10.1396  -16.4114 C   0  0  0  0  0  0  0  0  0  0  0  0
   16.4819  -10.8433  -17.6158 C   0  0  0  0  0  0  0  0  0  0  0  0
   15.8994  -12.1432  -17.2040 C   0  0  0  0  0  0  0  0  0  0  0  0
   16.5948  -13.1681  -17.1710 O   0  0  0  0  0  0  0  0  0  0  0  0
   18.7139   -8.5734  -15.5752 C   0  0  0  0  0  0  0  0  0  0  0  0
   18.0762   -7.9310  -14.7258 O   0  0  0  0  0  0  0  0  0  0  0  0
   14.5351  -12.1531  -16.8582 O   0  0  0  0  0  0  0  0  0  0  0  0
   22.6408   -9.5410  -14.4221 O   0  0  0  0  0  0  0  0  0  0  0  0
   21.7130   -9.0235  -13.5291 C   0  0  0  0  0  0  0  0  0  0  0  0
   20.7302   -8.0764  -14.1891 C   0  0  2  0  0  0  0  0  0  0  0  0
   20.1264   -8.7221  -15.3192 N   0  0  0  0  0  0  0  0  0  0  0  0
   21.4238   -6.8215  -14.5162 C   0  0  0  0  0  0  0  0  0  0  0  0
   21.7840   -6.6514  -15.7082 O   0  0  0  0  0  0  0  0  0  0  0  0
   21.7105   -5.7927  -13.5663 N   0  0  0  0  0  0  0  0  0  0  0  0
   22.3953   -4.5747  -13.9852 C   0  0  0  0  0  0  0  0  0  0  0  0
   21.4148   -3.6247  -14.5356 C   0  0  0  0  0  0  0  0  0  0  0  0
   21.0233   -2.4980  -13.8217 O   0  0  0  0  0  0  0  0  0  0  0  0
   20.8895   -3.7983  -15.6833 O   0  0  0  0  0  0  0  0  0  0  0  0
  2  3  1  0
  2  1  1  1
  4  3  1  0
  5  6  2  0
  5  4  1  0
  7  2  1  0
  7  8  2  0
  9  5  1  0
 10 11  1  0
 12 11  1  6
 12 13  1  0
 13  7  1  0
 14 12  1  0
 14 16  1  0
 15 14  2  0
 17 16  1  0
 18 17  1  0
 19 18  1  0
 20 18  2  0
M  END
$$$$
