ESG.pdb
     RDKit          3D

 20 19  0  0  1  0  0  0  0  0999 V2000
   22.3831  -11.4518  -15.6893 N   0  0  0  0  0  0  0  0  0  0  0  0
   22.6958  -10.8183  -16.9926 C   0  0  1  0  0  0  0  0  0  0  0  0
   21.9823  -11.5616  -18.0858 C   0  0  0  0  0  0  0  0  0  0  0  0
   21.8881  -13.0190  -17.7645 C   0  0  0  0  0  0  0  0  0  0  0  0
   21.2424  -13.7292  -18.8947 C   0  0  0  0  0  0  0  0  0  0  0  0
   20.0982  -13.4283  -19.2625 O   0  0  0  0  0  0  0  0  0  0  0  0
   22.2168   -9.4067  -16.9367 C   0  0  0  0  0  0  0  0  0  0  0  0
   22.3710   -8.5866  -17.8556 O   0  0  0  0  0  0  0  0  0  0  0  0
   21.9852  -14.7489  -19.5188 O   0  0  0  0  0  0  0  0  0  0  0  0
   18.8651   -6.4244  -15.5735 O   0  0  0  0  0  0  0  0  0  0  0  0
   19.4656   -7.6737  -15.6426 C   0  0  0  0  0  0  0  0  0  0  0  0
   20.9755   -7.5923  -15.7532 C   0  0  2  0  0  0  0  0  0  0  0  0
   21.5278   -8.9164  -15.7673 N   0  0  0  0  0  0  0  0  0  0  0  0
   21.4878   -6.7410  -14.6689 C   0  0  0  0  0  0  0  0  0  0  0  0
   21.9100   -7.3130  -13.6324 O   0  0  0  0  0  0  0  0  0  0  0  0
   21.5330   -5.3135  -14.7235 N   0  0  0  0  0  0  0  0  0  0  0  0
   21.9361   -4.5448  -13.5510 C   0  0  0  0  0  0  0  0  0  0  0  0
   21.9269   -3.1096  -13.8779 C   0  0  0  0  0  0  0  0  0  0  0  0
   22.1874   -2.1477  -12.9086 O   0  0  0  0  0  0  0  0  0  0  0  0
   21.6806   -2.6958  -15.0574 O   0  0  0  0  0  0  0  0  0  0  0  0
  2  3  1  0
  2  1  1  1
  4  3  1  0
  5  6  2  0
  5  4  1  0
  7  2  1  0
  7  8  2  0
  9  5  1  0
 10 11  1  0
 12 11  1  1
 12 13  1  0
 13  7  1  0
 14 12  1  0
 14 16  1  0
 15 14  2  0
 17 16  1  0
 18 17  1  0
 19 18  1  0
 20 18  2  0
M  END
$$$$
