ESG.pdb
     RDKit          3D

 20 19  0  0  1  0  0  0  0  0999 V2000
   19.6040   -9.5238  -16.6304 N   0  0  0  0  0  0  0  0  0  0  0  0
   18.4316   -9.0234  -15.8735 C   0  0  1  0  0  0  0  0  0  0  0  0
   17.9712  -10.0872  -14.9179 C   0  0  0  0  0  0  0  0  0  0  0  0
   17.3904  -11.2505  -15.6563 C   0  0  0  0  0  0  0  0  0  0  0  0
   17.0308  -12.3150  -14.6888 C   0  0  0  0  0  0  0  0  0  0  0  0
   15.8803  -12.3995  -14.2370 O   0  0  0  0  0  0  0  0  0  0  0  0
   18.8629   -7.8105  -15.1199 C   0  0  0  0  0  0  0  0  0  0  0  0
   18.1656   -7.2431  -14.2639 O   0  0  0  0  0  0  0  0  0  0  0  0
   18.0494  -13.2115  -14.3147 O   0  0  0  0  0  0  0  0  0  0  0  0
   22.4872   -7.0860  -13.6427 O   0  0  0  0  0  0  0  0  0  0  0  0
   22.0637   -6.0509  -14.4644 C   0  0  0  0  0  0  0  0  0  0  0  0
   20.5606   -6.0378  -14.6622 C   0  0  2  0  0  0  0  0  0  0  0  0
   20.1585   -7.2231  -15.3635 N   0  0  0  0  0  0  0  0  0  0  0  0
   20.1788   -4.7862  -15.3333 C   0  0  0  0  0  0  0  0  0  0  0  0
   20.3833   -4.7056  -16.5708 O   0  0  0  0  0  0  0  0  0  0  0  0
   19.5944   -3.6650  -14.6667 N   0  0  0  0  0  0  0  0  0  0  0  0
   19.2113   -2.4775  -15.4226 C   0  0  0  0  0  0  0  0  0  0  0  0
   18.6510   -1.4714  -14.5056 C   0  0  0  0  0  0  0  0  0  0  0  0
   18.2899   -0.2070  -14.9562 O   0  0  0  0  0  0  0  0  0  0  0  0
   18.4766   -1.7205  -13.2683 O   0  0  0  0  0  0  0  0  0  0  0  0
  2  3  1  0
  2  1  1  1
  4  3  1  0
  5  6  2  0
  5  4  1  0
  7  2  1  0
  7  8  2  0
  9  5  1  0
 10 11  1  0
 12 11  1  6
 12 13  1  0
 13  7  1  0
 14 12  1  0
 14 16  1  0
 15 14  2  0
 17 16  1  0
 18 17  1  0
 19 18  1  0
 20 18  2  0
M  END
$$$$
