ESG.pdb
     RDKit          3D

 20 19  0  0  1  0  0  0  0  0999 V2000
   22.1370  -11.2420  -16.0882 N   0  0  0  0  0  0  0  0  0  0  0  0
   22.5240  -10.0904  -16.9379 C   0  0  1  0  0  0  0  0  0  0  0  0
   22.0805  -10.3485  -18.3497 C   0  0  0  0  0  0  0  0  0  0  0  0
   22.5733  -11.6768  -18.8278 C   0  0  0  0  0  0  0  0  0  0  0  0
   22.0770  -11.9172  -20.2042 C   0  0  0  0  0  0  0  0  0  0  0  0
   21.3613  -11.0826  -20.7754 O   0  0  0  0  0  0  0  0  0  0  0  0
   21.8387   -8.8797  -16.3995 C   0  0  0  0  0  0  0  0  0  0  0  0
   21.9344   -7.7490  -16.9027 O   0  0  0  0  0  0  0  0  0  0  0  0
   22.4547  -13.1255  -20.8196 O   0  0  0  0  0  0  0  0  0  0  0  0
   18.1157   -8.7617  -14.5424 O   0  0  0  0  0  0  0  0  0  0  0  0
   19.1842   -8.2416  -13.8254 C   0  0  0  0  0  0  0  0  0  0  0  0
   20.3342   -7.8139  -14.7160 C   0  0  2  0  0  0  0  0  0  0  0  0
   21.0039   -8.9757  -15.2262 N   0  0  0  0  0  0  0  0  0  0  0  0
   21.2074   -6.9018  -13.9621 C   0  0  0  0  0  0  0  0  0  0  0  0
   22.0297   -7.4150  -13.1620 O   0  0  0  0  0  0  0  0  0  0  0  0
   21.1760   -5.4781  -14.0841 N   0  0  0  0  0  0  0  0  0  0  0  0
   22.1168   -4.6544  -13.3328 C   0  0  0  0  0  0  0  0  0  0  0  0
   21.8632   -3.2331  -13.6200 C   0  0  0  0  0  0  0  0  0  0  0  0
   22.5646   -2.2285  -12.9634 O   0  0  0  0  0  0  0  0  0  0  0  0
   20.9940   -2.8709  -14.4783 O   0  0  0  0  0  0  0  0  0  0  0  0
  2  3  1  0
  2  1  1  1
  4  3  1  0
  5  6  2  0
  5  4  1  0
  7  2  1  0
  7  8  2  0
  9  5  1  0
 10 11  1  0
 12 11  1  1
 12 13  1  0
 13  7  1  0
 14 12  1  0
 14 16  1  0
 15 14  2  0
 17 16  1  0
 18 17  1  0
 19 18  1  0
 20 18  2  0
M  END
$$$$
