ESG.pdb
     RDKit          3D

 20 19  0  0  1  0  0  0  0  0999 V2000
   12.8756   -8.4260   -8.9677 N   0  0  0  0  0  0  0  0  0  0  0  0
   14.2827   -8.8055   -9.2397 C   0  0  1  0  0  0  0  0  0  0  0  0
   14.3093   -9.8791  -10.2902 C   0  0  0  0  0  0  0  0  0  0  0  0
   13.6820  -11.1373   -9.7811 C   0  0  0  0  0  0  0  0  0  0  0  0
   13.7647  -12.1844  -10.8277 C   0  0  0  0  0  0  0  0  0  0  0  0
   14.8444  -12.7298  -11.0956 O   0  0  0  0  0  0  0  0  0  0  0  0
   14.9927   -7.5897   -9.7324 C   0  0  0  0  0  0  0  0  0  0  0  0
   14.4198   -6.5373  -10.0564 O   0  0  0  0  0  0  0  0  0  0  0  0
   12.5707  -12.5216  -11.4924 O   0  0  0  0  0  0  0  0  0  0  0  0
   17.7226   -4.2110   -9.3389 O   0  0  0  0  0  0  0  0  0  0  0  0
   16.9853   -5.3634   -9.1055 C   0  0  0  0  0  0  0  0  0  0  0  0
   17.1231   -6.3823  -10.2197 C   0  0  2  0  0  0  0  0  0  0  0  0
   16.4304   -7.5856   -9.8580 N   0  0  0  0  0  0  0  0  0  0  0  0
   18.5509   -6.5782  -10.5128 C   0  0  0  0  0  0  0  0  0  0  0  0
   19.2780   -7.0189   -9.5871 O   0  0  0  0  0  0  0  0  0  0  0  0
   19.1555   -6.2988  -11.7774 N   0  0  0  0  0  0  0  0  0  0  0  0
   20.5912   -6.4793  -11.9623 C   0  0  0  0  0  0  0  0  0  0  0  0
   20.9727   -6.0308  -13.3115 C   0  0  0  0  0  0  0  0  0  0  0  0
   22.3069   -5.8736  -13.6686 O   0  0  0  0  0  0  0  0  0  0  0  0
   20.0975   -5.7706  -14.2001 O   0  0  0  0  0  0  0  0  0  0  0  0
  2  3  1  0
  2  1  1  6
  4  3  1  0
  5  6  2  0
  5  4  1  0
  7  2  1  0
  7  8  2  0
  9  5  1  0
 10 11  1  0
 12 11  1  1
 12 13  1  0
 13  7  1  0
 14 12  1  0
 14 16  1  0
 15 14  2  0
 17 16  1  0
 18 17  1  0
 19 18  1  0
 20 18  2  0
M  END
$$$$
