ESG.pdb
     RDKit          3D

 20 19  0  0  1  0  0  0  0  0999 V2000
   12.9677   -6.8047   -8.5236 N   0  0  0  0  0  0  0  0  0  0  0  0
   14.3721   -7.2619   -8.3950 C   0  0  1  0  0  0  0  0  0  0  0  0
   14.4411   -8.7324   -8.6944 C   0  0  0  0  0  0  0  0  0  0  0  0
   13.6400   -9.0656   -9.9123 C   0  0  0  0  0  0  0  0  0  0  0  0
   13.6831  -10.5299  -10.1417 C   0  0  0  0  0  0  0  0  0  0  0  0
   12.7330  -11.2524   -9.8092 O   0  0  0  0  0  0  0  0  0  0  0  0
   15.1890   -6.4995   -9.3833 C   0  0  0  0  0  0  0  0  0  0  0  0
   14.7790   -6.1594  -10.5044 O   0  0  0  0  0  0  0  0  0  0  0  0
   14.8424  -11.0497  -10.7473 O   0  0  0  0  0  0  0  0  0  0  0  0
   18.2064   -3.1923  -10.4930 O   0  0  0  0  0  0  0  0  0  0  0  0
   17.5453   -3.9740   -9.5560 C   0  0  0  0  0  0  0  0  0  0  0  0
   17.3366   -5.4003  -10.0259 C   0  0  2  0  0  0  0  0  0  0  0  0
   16.5419   -6.1106   -9.0655 N   0  0  0  0  0  0  0  0  0  0  0  0
   18.6478   -6.0124  -10.2885 C   0  0  0  0  0  0  0  0  0  0  0  0
   19.3087   -6.4154   -9.2983 O   0  0  0  0  0  0  0  0  0  0  0  0
   19.2104   -6.1743  -11.5924 N   0  0  0  0  0  0  0  0  0  0  0  0
   20.4818   -6.8686  -11.7640 C   0  0  0  0  0  0  0  0  0  0  0  0
   20.8422   -6.8875  -13.1911 C   0  0  0  0  0  0  0  0  0  0  0  0
   20.0357   -6.2799  -14.1465 O   0  0  0  0  0  0  0  0  0  0  0  0
   21.9034   -7.4594  -13.6035 O   0  0  0  0  0  0  0  0  0  0  0  0
  2  3  1  0
  2  1  1  6
  4  3  1  0
  5  6  2  0
  5  4  1  0
  7  2  1  0
  7  8  2  0
  9  5  1  0
 10 11  1  0
 12 11  1  1
 12 13  1  0
 13  7  1  0
 14 12  1  0
 14 16  1  0
 15 14  2  0
 17 16  1  0
 18 17  1  0
 19 18  1  0
 20 18  2  0
M  END
$$$$
