AQG.pdb
     RDKit          3D

 19 18  0  0  1  0  0  0  0  0999 V2000
    6.9872  -14.8254   19.2073 C   0  0  0  0  0  0  0  0  0  0  0  0
    7.2617  -13.4465   19.7670 C   0  0  2  0  0  0  0  0  0  0  0  0
    8.0576  -12.6551   18.8656 N   0  0  0  0  0  0  0  0  0  0  0  0
    7.8734  -13.5167   21.1284 C   0  0  0  0  0  0  0  0  0  0  0  0
    9.1205  -13.5291   21.2887 O   0  0  0  0  0  0  0  0  0  0  0  0
    6.8292  -11.7342   28.1527 N   0  0  0  0  0  0  0  0  0  0  0  0
    6.4461  -12.4759   27.0138 C   0  0  0  0  0  0  0  0  0  0  0  0
    5.2320  -12.7332   26.8463 O   0  0  0  0  0  0  0  0  0  0  0  0
    7.4224  -12.9584   26.0147 C   0  0  0  0  0  0  0  0  0  0  0  0
    6.7446  -13.1399   24.6970 C   0  0  0  0  0  0  0  0  0  0  0  0
    7.6951  -13.6216   23.6172 C   0  0  2  0  0  0  0  0  0  0  0  0
    7.0792  -13.5730   22.3085 N   0  0  0  0  0  0  0  0  0  0  0  0
    8.0149  -15.0316   23.9202 C   0  0  0  0  0  0  0  0  0  0  0  0
    7.1077  -15.8913   23.8479 O   0  0  0  0  0  0  0  0  0  0  0  0
    9.3408  -15.4214   24.2926 N   0  0  0  0  0  0  0  0  0  0  0  0
    9.5809  -16.8197   24.5912 C   0  0  0  0  0  0  0  0  0  0  0  0
   10.9707  -17.0579   25.0298 C   0  0  0  0  0  0  0  0  0  0  0  0
   11.2874  -18.1882   25.4684 O   0  0  0  0  0  0  0  0  0  0  0  0
   11.8802  -16.0220   24.9419 O   0  0  0  0  0  0  0  0  0  0  0  0
  2  3  1  0
  2  1  1  6
  4  2  1  0
  5  4  2  0
  6  7  1  0
  7  8  2  0
  7  9  1  0
  9 10  1  0
 11 10  1  1
 11 13  1  0
 11 12  1  0
 12  4  1  0
 13 15  1  0
 14 13  2  0
 15 16  1  0
 17 19  1  0
 17 16  1  0
 18 17  2  0
M  END
$$$$
