AQG.pdb
     RDKit          3D

 19 18  0  0  1  0  0  0  0  0999 V2000
    3.5342  -22.3424   20.1853 C   0  0  0  0  0  0  0  0  0  0  0  0
    4.7828  -22.3103   21.0397 C   0  0  2  0  0  0  0  0  0  0  0  0
    5.5124  -23.5489   20.9624 N   0  0  0  0  0  0  0  0  0  0  0  0
    4.4734  -21.9381   22.4532 C   0  0  0  0  0  0  0  0  0  0  0  0
    3.8990  -20.8563   22.7372 O   0  0  0  0  0  0  0  0  0  0  0  0
    0.2442  -24.8538   25.3095 N   0  0  0  0  0  0  0  0  0  0  0  0
    1.5656  -24.5246   25.6828 C   0  0  0  0  0  0  0  0  0  0  0  0
    2.0733  -25.1076   26.6679 O   0  0  0  0  0  0  0  0  0  0  0  0
    2.3696  -23.5199   24.9558 C   0  0  0  0  0  0  0  0  0  0  0  0
    3.6768  -23.3248   25.6499 C   0  0  0  0  0  0  0  0  0  0  0  0
    4.5877  -22.3622   24.9116 C   0  0  2  0  0  0  0  0  0  0  0  0
    4.8114  -22.7855   23.5460 N   0  0  0  0  0  0  0  0  0  0  0  0
    5.8878  -22.3732   25.6129 C   0  0  0  0  0  0  0  0  0  0  0  0
    5.9749  -22.9394   26.7261 O   0  0  0  0  0  0  0  0  0  0  0  0
    7.0395  -21.7482   25.0371 N   0  0  0  0  0  0  0  0  0  0  0  0
    8.2806  -21.7863   25.7854 C   0  0  0  0  0  0  0  0  0  0  0  0
    9.4079  -21.2305   25.0103 C   0  0  0  0  0  0  0  0  0  0  0  0
    9.1946  -20.7772   23.8616 O   0  0  0  0  0  0  0  0  0  0  0  0
   10.6665  -21.2286   25.5795 O   0  0  0  0  0  0  0  0  0  0  0  0
  2  3  1  0
  2  1  1  6
  4  2  1  0
  5  4  2  0
  6  7  1  0
  7  8  2  0
  7  9  1  0
  9 10  1  0
 11 10  1  1
 11 13  1  0
 11 12  1  0
 12  4  1  0
 13 15  1  0
 14 13  2  0
 15 16  1  0
 17 19  1  0
 17 16  1  0
 18 17  2  0
M  END
$$$$
