AQG.pdb
     RDKit          3D

 19 18  0  0  1  0  0  0  0  0999 V2000
    8.1694  -18.4961   17.4292 C   0  0  0  0  0  0  0  0  0  0  0  0
    8.3332  -18.4576   18.9332 C   0  0  2  0  0  0  0  0  0  0  0  0
    7.0783  -18.6550   19.6103 N   0  0  0  0  0  0  0  0  0  0  0  0
    9.0121  -17.2043   19.3811 C   0  0  0  0  0  0  0  0  0  0  0  0
   10.1119  -16.8416   18.8913 O   0  0  0  0  0  0  0  0  0  0  0  0
    9.7253  -12.5808   19.0862 N   0  0  0  0  0  0  0  0  0  0  0  0
    8.4678  -13.0391   18.6363 C   0  0  0  0  0  0  0  0  0  0  0  0
    8.1733  -12.8926   17.4280 O   0  0  0  0  0  0  0  0  0  0  0  0
    7.4887  -13.6838   19.5363 C   0  0  0  0  0  0  0  0  0  0  0  0
    8.1320  -13.9768   20.8512 C   0  0  0  0  0  0  0  0  0  0  0  0
    9.1105  -15.1334   20.7735 C   0  0  2  0  0  0  0  0  0  0  0  0
    8.4511  -16.3604   20.3808 N   0  0  0  0  0  0  0  0  0  0  0  0
    9.6626  -15.3246   22.1302 C   0  0  0  0  0  0  0  0  0  0  0  0
    8.8912  -15.6468   23.0622 O   0  0  0  0  0  0  0  0  0  0  0  0
   11.0592  -15.1467   22.3879 N   0  0  0  0  0  0  0  0  0  0  0  0
   11.5462  -15.4263   23.7245 C   0  0  0  0  0  0  0  0  0  0  0  0
   12.4211  -16.6154   23.7539 C   0  0  0  0  0  0  0  0  0  0  0  0
   11.9697  -17.7157   23.3592 O   0  0  0  0  0  0  0  0  0  0  0  0
   13.7147  -16.4751   24.2179 O   0  0  0  0  0  0  0  0  0  0  0  0
  2  3  1  0
  2  1  1  6
  4  2  1  0
  5  4  2  0
  6  7  1  0
  7  8  2  0
  7  9  1  0
  9 10  1  0
 11 10  1  1
 11 13  1  0
 11 12  1  0
 12  4  1  0
 13 15  1  0
 14 13  2  0
 15 16  1  0
 17 19  1  0
 17 16  1  0
 18 17  2  0
M  END
$$$$
