AQG.pdb
     RDKit          3D

 19 18  0  0  1  0  0  0  0  0999 V2000
    7.2520  -15.0757   19.2131 C   0  0  0  0  0  0  0  0  0  0  0  0
    7.5430  -13.7010   19.7747 C   0  0  2  0  0  0  0  0  0  0  0  0
    8.3413  -12.9149   18.8708 N   0  0  0  0  0  0  0  0  0  0  0  0
    8.1616  -13.7806   21.1324 C   0  0  0  0  0  0  0  0  0  0  0  0
    9.4090  -13.7587   21.2885 O   0  0  0  0  0  0  0  0  0  0  0  0
    5.2583  -12.4701   26.6199 N   0  0  0  0  0  0  0  0  0  0  0  0
    6.6243  -12.5956   26.9548 C   0  0  0  0  0  0  0  0  0  0  0  0
    6.9896  -12.2817   28.1108 O   0  0  0  0  0  0  0  0  0  0  0  0
    7.6363  -13.0823   25.9940 C   0  0  0  0  0  0  0  0  0  0  0  0
    6.9928  -13.3328   24.6704 C   0  0  0  0  0  0  0  0  0  0  0  0
    7.9841  -13.8044   23.6234 C   0  0  2  0  0  0  0  0  0  0  0  0
    7.3739  -13.8848   22.3136 N   0  0  0  0  0  0  0  0  0  0  0  0
    8.4111  -15.1637   24.0134 C   0  0  0  0  0  0  0  0  0  0  0  0
    7.7240  -16.1456   23.6513 O   0  0  0  0  0  0  0  0  0  0  0  0
    9.5928  -15.3677   24.7947 N   0  0  0  0  0  0  0  0  0  0  0  0
    9.9425  -16.7269   25.1585 C   0  0  0  0  0  0  0  0  0  0  0  0
   11.2865  -17.0982   24.6726 C   0  0  0  0  0  0  0  0  0  0  0  0
   11.5958  -16.8514   23.4836 O   0  0  0  0  0  0  0  0  0  0  0  0
   12.1629  -17.7083   25.5489 O   0  0  0  0  0  0  0  0  0  0  0  0
  2  3  1  0
  2  1  1  6
  4  2  1  0
  5  4  2  0
  6  7  1  0
  7  8  2  0
  7  9  1  0
  9 10  1  0
 11 10  1  1
 11 13  1  0
 11 12  1  0
 12  4  1  0
 13 15  1  0
 14 13  2  0
 15 16  1  0
 17 19  1  0
 17 16  1  0
 18 17  2  0
M  END
$$$$
