AQG.pdb
     RDKit          3D

 19 18  0  0  1  0  0  0  0  0999 V2000
    8.0977  -12.4711   20.0848 C   0  0  0  0  0  0  0  0  0  0  0  0
    7.8089  -13.9159   19.7395 C   0  0  2  0  0  0  0  0  0  0  0  0
    6.3965  -14.1584   19.6035 N   0  0  0  0  0  0  0  0  0  0  0  0
    8.4390  -14.8524   20.7185 C   0  0  0  0  0  0  0  0  0  0  0  0
    7.8636  -15.1662   21.7916 O   0  0  0  0  0  0  0  0  0  0  0  0
    7.1992  -18.6092   19.1378 N   0  0  0  0  0  0  0  0  0  0  0  0
    8.5660  -18.7145   19.4764 C   0  0  0  0  0  0  0  0  0  0  0  0
    9.3870  -18.9990   18.5746 O   0  0  0  0  0  0  0  0  0  0  0  0
    9.0623  -18.5019   20.8521 C   0  0  0  0  0  0  0  0  0  0  0  0
   10.3659  -17.7758   20.8093 C   0  0  0  0  0  0  0  0  0  0  0  0
   10.2783  -16.3895   21.4191 C   0  0  2  0  0  0  0  0  0  0  0  0
    9.7172  -15.4349   20.4874 N   0  0  0  0  0  0  0  0  0  0  0  0
   11.6587  -15.9666   21.7319 C   0  0  0  0  0  0  0  0  0  0  0  0
   12.2948  -15.2923   20.8904 O   0  0  0  0  0  0  0  0  0  0  0  0
   12.2712  -16.3172   22.9770 N   0  0  0  0  0  0  0  0  0  0  0  0
   13.6090  -15.8246   23.2404 C   0  0  0  0  0  0  0  0  0  0  0  0
   14.1574  -16.3673   24.4995 C   0  0  0  0  0  0  0  0  0  0  0  0
   13.4214  -17.0651   25.2355 O   0  0  0  0  0  0  0  0  0  0  0  0
   15.4699  -16.0867   24.8261 O   0  0  0  0  0  0  0  0  0  0  0  0
  2  3  1  0
  2  1  1  1
  4  2  1  0
  5  4  2  0
  6  7  1  0
  7  8  2  0
  7  9  1  0
  9 10  1  0
 11 10  1  6
 11 13  1  0
 11 12  1  0
 12  4  1  0
 13 15  1  0
 14 13  2  0
 15 16  1  0
 17 19  1  0
 17 16  1  0
 18 17  2  0
M  END
$$$$
