AQG.pdb
     RDKit          3D

 19 18  0  0  1  0  0  0  0  0999 V2000
    5.6986  -20.1441   23.3647 C   0  0  0  0  0  0  0  0  0  0  0  0
    6.0649  -18.8700   22.6348 C   0  0  2  0  0  0  0  0  0  0  0  0
    6.6474  -19.1433   21.3471 N   0  0  0  0  0  0  0  0  0  0  0  0
    6.9451  -17.9935   23.4651 C   0  0  0  0  0  0  0  0  0  0  0  0
    8.1978  -18.0939   23.4257 O   0  0  0  0  0  0  0  0  0  0  0  0
    5.2826  -12.4810   26.1774 N   0  0  0  0  0  0  0  0  0  0  0  0
    6.6842  -12.5596   26.3301 C   0  0  0  0  0  0  0  0  0  0  0  0
    7.3019  -11.5452   26.7271 O   0  0  0  0  0  0  0  0  0  0  0  0
    7.4471  -13.7915   26.0394 C   0  0  0  0  0  0  0  0  0  0  0  0
    6.5519  -14.7961   25.3930 C   0  0  0  0  0  0  0  0  0  0  0  0
    7.2829  -16.0739   25.0265 C   0  0  2  0  0  0  0  0  0  0  0  0
    6.4128  -17.0041   24.3394 N   0  0  0  0  0  0  0  0  0  0  0  0
    7.7165  -16.7020   26.2913 C   0  0  0  0  0  0  0  0  0  0  0  0
    6.8742  -17.3106   26.9896 O   0  0  0  0  0  0  0  0  0  0  0  0
    9.0789  -16.6225   26.7228 N   0  0  0  0  0  0  0  0  0  0  0  0
    9.4054  -17.1242   28.0433 C   0  0  0  0  0  0  0  0  0  0  0  0
   10.0847  -18.4338   27.9819 C   0  0  0  0  0  0  0  0  0  0  0  0
   10.1347  -19.0453   26.8892 O   0  0  0  0  0  0  0  0  0  0  0  0
   10.6453  -18.9444   29.1365 O   0  0  0  0  0  0  0  0  0  0  0  0
  2  3  1  0
  2  1  1  1
  4  2  1  0
  5  4  2  0
  6  7  1  0
  7  8  2  0
  7  9  1  0
  9 10  1  0
 11 10  1  1
 11 13  1  0
 11 12  1  0
 12  4  1  0
 13 15  1  0
 14 13  2  0
 15 16  1  0
 17 19  1  0
 17 16  1  0
 18 17  2  0
M  END
$$$$
