AQG.pdb
     RDKit          3D

 19 18  0  0  1  0  0  0  0  0999 V2000
    8.0025  -12.4246   19.1353 C   0  0  0  0  0  0  0  0  0  0  0  0
    8.7011  -13.7611   19.0088 C   0  0  2  0  0  0  0  0  0  0  0  0
    7.7604  -14.8423   18.8732 N   0  0  0  0  0  0  0  0  0  0  0  0
    9.6524  -13.9940   20.1371 C   0  0  0  0  0  0  0  0  0  0  0  0
   10.6174  -13.2176   20.3540 O   0  0  0  0  0  0  0  0  0  0  0  0
    8.3112  -13.7999   25.0977 N   0  0  0  0  0  0  0  0  0  0  0  0
    8.9220  -15.0583   24.9046 C   0  0  0  0  0  0  0  0  0  0  0  0
    9.7242  -15.4748   25.7713 O   0  0  0  0  0  0  0  0  0  0  0  0
    8.6502  -15.9000   23.7205 C   0  0  0  0  0  0  0  0  0  0  0  0
    9.9396  -16.3260   23.1004 C   0  0  0  0  0  0  0  0  0  0  0  0
   10.4611  -15.3170   22.0948 C   0  0  2  0  0  0  0  0  0  0  0  0
    9.5157  -15.1020   21.0204 N   0  0  0  0  0  0  0  0  0  0  0  0
   11.6942  -15.8847   21.5124 C   0  0  0  0  0  0  0  0  0  0  0  0
   11.6137  -16.5806   20.4747 O   0  0  0  0  0  0  0  0  0  0  0  0
   12.9697  -15.6491   22.1175 N   0  0  0  0  0  0  0  0  0  0  0  0
   14.1449  -16.1866   21.4604 C   0  0  0  0  0  0  0  0  0  0  0  0
   15.3933  -15.6694   22.0559 C   0  0  0  0  0  0  0  0  0  0  0  0
   15.3253  -14.8714   23.0197 O   0  0  0  0  0  0  0  0  0  0  0  0
   16.6007  -16.0842   21.5284 O   0  0  0  0  0  0  0  0  0  0  0  0
  2  3  1  0
  2  1  1  1
  4  2  1  0
  5  4  2  0
  6  7  1  0
  7  8  2  0
  7  9  1  0
  9 10  1  0
 11 10  1  1
 11 13  1  0
 11 12  1  0
 12  4  1  0
 13 15  1  0
 14 13  2  0
 15 16  1  0
 17 19  1  0
 17 16  1  0
 18 17  2  0
M  END
$$$$
