AQG.pdb
     RDKit          3D

 19 18  0  0  1  0  0  0  0  0999 V2000
    7.5972  -14.7824   18.5396 C   0  0  0  0  0  0  0  0  0  0  0  0
    7.5694  -13.7307   19.6274 C   0  0  2  0  0  0  0  0  0  0  0  0
    7.9078  -12.4280   19.1168 N   0  0  0  0  0  0  0  0  0  0  0  0
    8.4339  -14.1127   20.7847 C   0  0  0  0  0  0  0  0  0  0  0  0
    9.6455  -13.7807   20.8376 O   0  0  0  0  0  0  0  0  0  0  0  0
    6.6837  -17.2867   26.0800 N   0  0  0  0  0  0  0  0  0  0  0  0
    8.0323  -16.9316   26.3016 C   0  0  0  0  0  0  0  0  0  0  0  0
    8.5555  -17.2209   27.4020 O   0  0  0  0  0  0  0  0  0  0  0  0
    8.8471  -16.2330   25.2856 C   0  0  0  0  0  0  0  0  0  0  0  0
    8.0022  -15.9132   24.0972 C   0  0  0  0  0  0  0  0  0  0  0  0
    8.7739  -15.1784   23.0174 C   0  0  2  0  0  0  0  0  0  0  0  0
    7.9323  -14.8685   21.8817 N   0  0  0  0  0  0  0  0  0  0  0  0
    9.8458  -16.0855   22.5587 C   0  0  0  0  0  0  0  0  0  0  0  0
    9.5518  -17.0493   21.8157 O   0  0  0  0  0  0  0  0  0  0  0  0
   11.2058  -15.8752   22.9518 N   0  0  0  0  0  0  0  0  0  0  0  0
   12.1904  -16.8618   22.5527 C   0  0  0  0  0  0  0  0  0  0  0  0
   13.5377  -16.5304   23.0583 C   0  0  0  0  0  0  0  0  0  0  0  0
   13.6971  -15.4867   23.7333 O   0  0  0  0  0  0  0  0  0  0  0  0
   14.5829  -17.3860   22.7693 O   0  0  0  0  0  0  0  0  0  0  0  0
  2  3  1  0
  2  1  1  6
  4  2  1  0
  5  4  2  0
  6  7  1  0
  7  8  2  0
  7  9  1  0
  9 10  1  0
 11 10  1  1
 11 13  1  0
 11 12  1  0
 12  4  1  0
 13 15  1  0
 14 13  2  0
 15 16  1  0
 17 19  1  0
 17 16  1  0
 18 17  2  0
M  END
$$$$
