AQG.pdb
     RDKit          3D

 19 18  0  0  1  0  0  0  0  0999 V2000
   -2.6763  -26.7087   24.8179 C   0  0  0  0  0  0  0  0  0  0  0  0
   -2.8398  -25.4262   25.6044 C   0  0  2  0  0  0  0  0  0  0  0  0
   -1.6682  -25.1284   26.3860 N   0  0  0  0  0  0  0  0  0  0  0  0
   -4.0744  -25.4498   26.4455 C   0  0  0  0  0  0  0  0  0  0  0  0
   -5.2155  -25.5822   25.9343 O   0  0  0  0  0  0  0  0  0  0  0  0
   -4.4370  -27.0448   32.4553 N   0  0  0  0  0  0  0  0  0  0  0  0
   -4.5555  -27.8934   31.3330 C   0  0  0  0  0  0  0  0  0  0  0  0
   -4.3905  -29.1246   31.4921 O   0  0  0  0  0  0  0  0  0  0  0  0
   -4.8662  -27.3839   29.9810 C   0  0  0  0  0  0  0  0  0  0  0  0
   -5.0182  -25.8995   30.0263 C   0  0  0  0  0  0  0  0  0  0  0  0
   -5.2352  -25.2962   28.6514 C   0  0  2  0  0  0  0  0  0  0  0  0
   -4.0222  -25.3243   27.8626 N   0  0  0  0  0  0  0  0  0  0  0  0
   -5.6166  -23.8836   28.8542 C   0  0  0  0  0  0  0  0  0  0  0  0
   -4.8065  -22.9825   28.5391 O   0  0  0  0  0  0  0  0  0  0  0  0
   -6.8924  -23.5376   29.4029 N   0  0  0  0  0  0  0  0  0  0  0  0
   -7.2438  -22.1329   29.4765 C   0  0  0  0  0  0  0  0  0  0  0  0
   -8.6250  -21.9358   29.9599 C   0  0  0  0  0  0  0  0  0  0  0  0
   -9.3678  -22.9338   30.1103 O   0  0  0  0  0  0  0  0  0  0  0  0
   -9.0551  -20.6516   30.2319 O   0  0  0  0  0  0  0  0  0  0  0  0
  2  3  1  0
  2  1  1  1
  4  2  1  0
  5  4  2  0
  6  7  1  0
  7  8  2  0
  7  9  1  0
  9 10  1  0
 11 10  1  1
 11 13  1  0
 11 12  1  0
 12  4  1  0
 13 15  1  0
 14 13  2  0
 15 16  1  0
 17 19  1  0
 17 16  1  0
 18 17  2  0
M  END
$$$$
