AQG.pdb
     RDKit          3D

 19 18  0  0  1  0  0  0  0  0999 V2000
    7.2173  -12.6869   19.7214 C   0  0  0  0  0  0  0  0  0  0  0  0
    8.0680  -13.2091   18.5840 C   0  0  2  0  0  0  0  0  0  0  0  0
    7.2625  -13.6376   17.4704 N   0  0  0  0  0  0  0  0  0  0  0  0
    8.9975  -14.2859   19.0409 C   0  0  0  0  0  0  0  0  0  0  0  0
    8.8013  -15.4923   18.7457 O   0  0  0  0  0  0  0  0  0  0  0  0
   15.0902  -13.6660   19.2830 N   0  0  0  0  0  0  0  0  0  0  0  0
   14.9023  -15.0198   19.6377 C   0  0  0  0  0  0  0  0  0  0  0  0
   15.9012  -15.7742   19.6746 O   0  0  0  0  0  0  0  0  0  0  0  0
   13.5739  -15.5780   19.9661 C   0  0  0  0  0  0  0  0  0  0  0  0
   12.5465  -14.4964   19.9096 C   0  0  0  0  0  0  0  0  0  0  0  0
   11.1368  -15.0248   20.0964 C   0  0  2  0  0  0  0  0  0  0  0  0
   10.1477  -14.0025   19.8303 N   0  0  0  0  0  0  0  0  0  0  0  0
   11.0098  -15.4269   21.5121 C   0  0  0  0  0  0  0  0  0  0  0  0
   10.6440  -14.5777   22.3563 O   0  0  0  0  0  0  0  0  0  0  0  0
   11.2984  -16.7666   21.9251 N   0  0  0  0  0  0  0  0  0  0  0  0
   11.0686  -17.1157   23.3134 C   0  0  0  0  0  0  0  0  0  0  0  0
   11.5067  -18.4934   23.6141 C   0  0  0  0  0  0  0  0  0  0  0  0
   11.9882  -19.1956   22.6946 O   0  0  0  0  0  0  0  0  0  0  0  0
   11.3706  -18.9652   24.9052 O   0  0  0  0  0  0  0  0  0  0  0  0
  2  3  1  0
  2  1  1  1
  4  2  1  0
  5  4  2  0
  6  7  1  0
  7  8  2  0
  7  9  1  0
  9 10  1  0
 11 10  1  1
 11 13  1  0
 11 12  1  0
 12  4  1  0
 13 15  1  0
 14 13  2  0
 15 16  1  0
 17 19  1  0
 17 16  1  0
 18 17  2  0
M  END
$$$$
