AQG.pdb
     RDKit          3D

 19 18  0  0  1  0  0  0  0  0999 V2000
    6.7348  -16.8766   20.1268 C   0  0  0  0  0  0  0  0  0  0  0  0
    6.9216  -15.3748   20.1339 C   0  0  2  0  0  0  0  0  0  0  0  0
    7.5594  -14.9124   18.9291 N   0  0  0  0  0  0  0  0  0  0  0  0
    7.6492  -14.9163   21.3557 C   0  0  0  0  0  0  0  0  0  0  0  0
    8.9037  -14.8360   21.3821 O   0  0  0  0  0  0  0  0  0  0  0  0
    5.1708  -12.2788   26.6236 N   0  0  0  0  0  0  0  0  0  0  0  0
    6.5679  -12.2566   26.8274 C   0  0  0  0  0  0  0  0  0  0  0  0
    7.0189  -11.6474   27.8243 O   0  0  0  0  0  0  0  0  0  0  0  0
    7.5152  -12.9240   25.9101 C   0  0  0  0  0  0  0  0  0  0  0  0
    6.7687  -13.5176   24.7617 C   0  0  0  0  0  0  0  0  0  0  0  0
    7.6907  -14.1354   23.7275 C   0  0  2  0  0  0  0  0  0  0  0  0
    6.9624  -14.5485   22.5471 N   0  0  0  0  0  0  0  0  0  0  0  0
    8.2857  -15.3393   24.3427 C   0  0  0  0  0  0  0  0  0  0  0  0
    7.5469  -16.3122   24.6166 O   0  0  0  0  0  0  0  0  0  0  0  0
    9.6871  -15.4042   24.6266 N   0  0  0  0  0  0  0  0  0  0  0  0
   10.2383  -16.6772   25.0480 C   0  0  0  0  0  0  0  0  0  0  0  0
   11.7074  -16.6220   25.1864 C   0  0  0  0  0  0  0  0  0  0  0  0
   12.3923  -16.1560   24.2461 O   0  0  0  0  0  0  0  0  0  0  0  0
   12.2812  -17.0880   26.3533 O   0  0  0  0  0  0  0  0  0  0  0  0
  2  3  1  0
  2  1  1  6
  4  2  1  0
  5  4  2  0
  6  7  1  0
  7  8  2  0
  7  9  1  0
  9 10  1  0
 11 10  1  1
 11 13  1  0
 11 12  1  0
 12  4  1  0
 13 15  1  0
 14 13  2  0
 15 16  1  0
 17 19  1  0
 17 16  1  0
 18 17  2  0
M  END
$$$$
