AQG.pdb
     RDKit          3D

 19 18  0  0  1  0  0  0  0  0999 V2000
    9.2106  -20.0204   16.8357 C   0  0  0  0  0  0  0  0  0  0  0  0
    9.4356  -19.9996   18.3321 C   0  0  2  0  0  0  0  0  0  0  0  0
    8.2732  -20.4515   19.0511 N   0  0  0  0  0  0  0  0  0  0  0  0
    9.8886  -18.6557   18.8022 C   0  0  0  0  0  0  0  0  0  0  0  0
   10.9321  -18.1189   18.3504 O   0  0  0  0  0  0  0  0  0  0  0  0
    7.6401  -12.0737   19.7508 N   0  0  0  0  0  0  0  0  0  0  0  0
    7.6155  -13.3331   20.3889 C   0  0  0  0  0  0  0  0  0  0  0  0
    6.5488  -13.7138   20.9233 O   0  0  0  0  0  0  0  0  0  0  0  0
    8.7989  -14.2164   20.4494 C   0  0  0  0  0  0  0  0  0  0  0  0
    8.3933  -15.6210   20.1478 C   0  0  0  0  0  0  0  0  0  0  0  0
    9.5702  -16.5782   20.1510 C   0  0  2  0  0  0  0  0  0  0  0  0
    9.1655  -17.9175   19.7812 N   0  0  0  0  0  0  0  0  0  0  0  0
   10.0881  -16.6220   21.5337 C   0  0  0  0  0  0  0  0  0  0  0  0
    9.2916  -16.8329   22.4763 O   0  0  0  0  0  0  0  0  0  0  0  0
   11.4800  -16.4275   21.8044 N   0  0  0  0  0  0  0  0  0  0  0  0
   11.9204  -16.4874   23.1844 C   0  0  0  0  0  0  0  0  0  0  0  0
   13.3744  -16.2617   23.3084 C   0  0  0  0  0  0  0  0  0  0  0  0
   14.0598  -16.1112   22.2702 O   0  0  0  0  0  0  0  0  0  0  0  0
   13.9338  -16.2236   24.5708 O   0  0  0  0  0  0  0  0  0  0  0  0
  2  3  1  0
  2  1  1  6
  4  2  1  0
  5  4  2  0
  6  7  1  0
  7  8  2  0
  7  9  1  0
  9 10  1  0
 11 10  1  1
 11 13  1  0
 11 12  1  0
 12  4  1  0
 13 15  1  0
 14 13  2  0
 15 16  1  0
 17 19  1  0
 17 16  1  0
 18 17  2  0
M  END
$$$$
