AQG.pdb
     RDKit          3D

 19 18  0  0  1  0  0  0  0  0999 V2000
    7.6616  -12.8927   19.3040 C   0  0  0  0  0  0  0  0  0  0  0  0
    8.0060  -14.2512   19.8749 C   0  0  2  0  0  0  0  0  0  0  0  0
    6.8582  -15.1193   19.9120 N   0  0  0  0  0  0  0  0  0  0  0  0
    8.6559  -14.1364   21.2154 C   0  0  0  0  0  0  0  0  0  0  0  0
    9.7298  -13.5016   21.3728 O   0  0  0  0  0  0  0  0  0  0  0  0
    5.8336  -11.8041   26.5613 N   0  0  0  0  0  0  0  0  0  0  0  0
    6.1911  -13.0367   25.9724 C   0  0  0  0  0  0  0  0  0  0  0  0
    5.7092  -14.0904   26.4475 O   0  0  0  0  0  0  0  0  0  0  0  0
    7.1106  -13.1290   24.8190 C   0  0  0  0  0  0  0  0  0  0  0  0
    7.7451  -14.4800   24.7894 C   0  0  0  0  0  0  0  0  0  0  0  0
    8.7509  -14.6240   23.6628 C   0  0  2  0  0  0  0  0  0  0  0  0
    8.0951  -14.7372   22.3777 N   0  0  0  0  0  0  0  0  0  0  0  0
    9.4977  -15.8748   23.9072 C   0  0  0  0  0  0  0  0  0  0  0  0
    8.8655  -16.9491   24.0238 O   0  0  0  0  0  0  0  0  0  0  0  0
   10.9252  -15.8710   24.0112 N   0  0  0  0  0  0  0  0  0  0  0  0
   11.6050  -17.1484   24.1004 C   0  0  0  0  0  0  0  0  0  0  0  0
   13.0733  -16.9925   24.0871 C   0  0  0  0  0  0  0  0  0  0  0  0
   13.6215  -16.4557   23.0962 O   0  0  0  0  0  0  0  0  0  0  0  0
   13.7978  -17.4456   25.1724 O   0  0  0  0  0  0  0  0  0  0  0  0
  2  3  1  0
  2  1  1  1
  4  2  1  0
  5  4  2  0
  6  7  1  0
  7  8  2  0
  7  9  1  0
  9 10  1  0
 11 10  1  1
 11 13  1  0
 11 12  1  0
 12  4  1  0
 13 15  1  0
 14 13  2  0
 15 16  1  0
 17 19  1  0
 17 16  1  0
 18 17  2  0
M  END
$$$$
