AQG.pdb
     RDKit          3D

 19 18  0  0  1  0  0  0  0  0999 V2000
    7.8008  -12.4716   19.6932 C   0  0  0  0  0  0  0  0  0  0  0  0
    8.0309  -13.8827   20.1892 C   0  0  2  0  0  0  0  0  0  0  0  0
    6.8582  -14.7016   20.0267 N   0  0  0  0  0  0  0  0  0  0  0  0
    8.5243  -13.8970   21.5994 C   0  0  0  0  0  0  0  0  0  0  0  0
    9.6139  -13.3576   21.9199 O   0  0  0  0  0  0  0  0  0  0  0  0
    7.5685  -13.0427   27.3481 N   0  0  0  0  0  0  0  0  0  0  0  0
    6.7897  -12.4121   26.3532 C   0  0  0  0  0  0  0  0  0  0  0  0
    6.3243  -11.2734   26.5881 O   0  0  0  0  0  0  0  0  0  0  0  0
    6.5042  -13.0445   25.0483 C   0  0  0  0  0  0  0  0  0  0  0  0
    7.1218  -14.4028   25.0026 C   0  0  0  0  0  0  0  0  0  0  0  0
    8.2685  -14.4858   24.0129 C   0  0  2  0  0  0  0  0  0  0  0  0
    7.7893  -14.5194   22.6477 N   0  0  0  0  0  0  0  0  0  0  0  0
    8.9791  -15.7531   24.2796 C   0  0  0  0  0  0  0  0  0  0  0  0
    8.5492  -16.8120   23.7685 O   0  0  0  0  0  0  0  0  0  0  0  0
   10.1447  -15.7822   25.1098 N   0  0  0  0  0  0  0  0  0  0  0  0
   10.9446  -16.9914   25.1184 C   0  0  0  0  0  0  0  0  0  0  0  0
   10.8737  -17.6888   26.4181 C   0  0  0  0  0  0  0  0  0  0  0  0
   10.1064  -17.2492   27.3060 O   0  0  0  0  0  0  0  0  0  0  0  0
   11.6591  -18.8082   26.6132 O   0  0  0  0  0  0  0  0  0  0  0  0
  2  3  1  0
  2  1  1  1
  4  2  1  0
  5  4  2  0
  6  7  1  0
  7  8  2  0
  7  9  1  0
  9 10  1  0
 11 10  1  1
 11 13  1  0
 11 12  1  0
 12  4  1  0
 13 15  1  0
 14 13  2  0
 15 16  1  0
 17 19  1  0
 17 16  1  0
 18 17  2  0
M  END
$$$$
