QDS.pdb
     RDKit          3D

 24 23  0  0  1  0  0  0  0  0999 V2000
   26.5620  -34.4247   -7.3747 N   0  0  0  0  0  0  0  0  0  0  0  0
   27.7112  -34.9204   -6.6798 C   0  0  0  0  0  0  0  0  0  0  0  0
   27.6309  -36.0656   -6.1490 O   0  0  0  0  0  0  0  0  0  0  0  0
   28.9132  -34.0862   -6.6176 C   0  0  0  0  0  0  0  0  0  0  0  0
   30.0348  -34.6116   -5.7991 C   0  0  0  0  0  0  0  0  0  0  0  0
   29.6758  -35.0636   -4.4124 C   0  0  2  0  0  0  0  0  0  0  0  0
   29.0612  -33.9845   -3.7058 N   0  0  0  0  0  0  0  0  0  0  0  0
   30.9178  -35.5436   -3.7461 C   0  0  0  0  0  0  0  0  0  0  0  0
   31.9813  -35.7956   -4.3611 O   0  0  0  0  0  0  0  0  0  0  0  0
   30.9270  -35.7364   -2.3424 N   0  0  0  0  0  0  0  0  0  0  0  0
   32.0805  -36.1239   -1.5769 C   0  0  1  0  0  0  0  0  0  0  0  0
   33.2608  -35.3370   -1.9917 C   0  0  0  0  0  0  0  0  0  0  0  0
   34.4852  -35.8187   -1.3231 C   0  0  0  0  0  0  0  0  0  0  0  0
   34.4138  -36.7389   -0.4903 O   0  0  0  0  0  0  0  0  0  0  0  0
   31.8205  -36.2025   -0.1321 C   0  0  0  0  0  0  0  0  0  0  0  0
   31.7139  -35.1037    0.4990 O   0  0  0  0  0  0  0  0  0  0  0  0
   35.7062  -35.2561   -1.6155 O   0  0  0  0  0  0  0  0  0  0  0  0
   32.1381  -39.7120    2.1420 O   0  0  0  0  0  0  0  0  0  0  0  0
   31.0423  -38.8634    2.3784 C   0  0  0  0  0  0  0  0  0  0  0  0
   31.3848  -37.4303    2.0301 C   0  0  2  0  0  0  0  0  0  0  0  0
   31.6799  -37.4041    0.6072 N   0  0  0  0  0  0  0  0  0  0  0  0
   32.4499  -36.8625    2.8582 C   0  0  0  0  0  0  0  0  0  0  0  0
   32.3879  -36.8408    4.1172 O   0  0  0  0  0  0  0  0  0  0  0  0
   33.5769  -36.3232    2.2651 O   0  0  0  0  0  0  0  0  0  0  0  0
  2  1  1  0
  2  3  2  0
  4  2  1  0
  5  6  1  0
  5  4  1  0
  6  7  1  1
  8 10  1  0
  8  6  1  0
  9  8  2  0
 11 10  1  0
 11 12  1  1
 12 13  1  0
 13 17  1  0
 14 13  2  0
 15 11  1  0
 16 15  2  0
 19 18  1  0
 20 21  1  0
 20 19  1  1
 21 15  1  0
 22 20  1  0
 23 22  2  0
 24 22  1  0
M  END
$$$$
