QDS.pdb
     RDKit          3D

 24 23  0  0  1  0  0  0  0  0999 V2000
   15.8934  -11.2613  -14.0299 N   0  0  0  0  0  0  0  0  0  0  0  0
   16.3993  -12.4256  -14.6916 C   0  0  0  0  0  0  0  0  0  0  0  0
   15.7629  -13.5091  -14.5476 O   0  0  0  0  0  0  0  0  0  0  0  0
   17.6174  -12.3075  -15.4959 C   0  0  0  0  0  0  0  0  0  0  0  0
   18.2067  -10.9488  -15.5985 C   0  0  0  0  0  0  0  0  0  0  0  0
   17.3876   -9.9362  -16.3468 C   0  0  2  0  0  0  0  0  0  0  0  0
   17.1851  -10.3869  -17.6874 N   0  0  0  0  0  0  0  0  0  0  0  0
   18.1004   -8.6303  -16.2888 C   0  0  0  0  0  0  0  0  0  0  0  0
   19.1217   -8.3673  -16.9674 O   0  0  0  0  0  0  0  0  0  0  0  0
   17.6219   -7.6117  -15.4280 N   0  0  0  0  0  0  0  0  0  0  0  0
   18.2114   -6.3071  -15.2968 C   0  0  1  0  0  0  0  0  0  0  0  0
   17.2026   -5.3313  -14.8339 C   0  0  0  0  0  0  0  0  0  0  0  0
   16.1866   -5.0797  -15.8745 C   0  0  0  0  0  0  0  0  0  0  0  0
   16.5358   -4.6563  -16.9899 O   0  0  0  0  0  0  0  0  0  0  0  0
   19.4923   -6.3172  -14.5751 C   0  0  0  0  0  0  0  0  0  0  0  0
   19.5038   -6.8506  -13.4208 O   0  0  0  0  0  0  0  0  0  0  0  0
   14.8548   -5.3109  -15.6184 O   0  0  0  0  0  0  0  0  0  0  0  0
   22.9898   -7.1978  -15.9403 O   0  0  0  0  0  0  0  0  0  0  0  0
   23.0741   -5.9526  -15.2927 C   0  0  0  0  0  0  0  0  0  0  0  0
   21.9440   -5.7836  -14.2993 C   0  0  2  0  0  0  0  0  0  0  0  0
   20.7093   -5.7806  -15.0659 N   0  0  0  0  0  0  0  0  0  0  0  0
   22.0951   -4.6153  -13.4304 C   0  0  0  0  0  0  0  0  0  0  0  0
   21.7729   -3.4534  -13.7986 O   0  0  0  0  0  0  0  0  0  0  0  0
   22.6071   -4.7617  -12.1541 O   0  0  0  0  0  0  0  0  0  0  0  0
  2  1  1  0
  2  3  2  0
  4  2  1  0
  5  6  1  0
  5  4  1  0
  6  7  1  6
  8 10  1  0
  8  6  1  0
  9  8  2  0
 11 10  1  0
 11 12  1  1
 12 13  1  0
 13 17  1  0
 14 13  2  0
 15 11  1  0
 16 15  2  0
 19 18  1  0
 20 21  1  0
 20 19  1  6
 21 15  1  0
 22 20  1  0
 23 22  2  0
 24 22  1  0
M  END
$$$$
