QDS.pdb
     RDKit          3D

 24 23  0  0  1  0  0  0  0  0999 V2000
   21.7737  -28.1352  -11.3137 N   0  0  0  0  0  0  0  0  0  0  0  0
   21.1942  -27.6717  -12.5378 C   0  0  0  0  0  0  0  0  0  0  0  0
   21.5634  -28.2271  -13.6125 O   0  0  0  0  0  0  0  0  0  0  0  0
   20.2111  -26.5875  -12.4878 C   0  0  0  0  0  0  0  0  0  0  0  0
   19.9076  -26.0387  -11.1422 C   0  0  0  0  0  0  0  0  0  0  0  0
   19.0043  -26.8768  -10.2832 C   0  0  2  0  0  0  0  0  0  0  0  0
   17.7925  -27.1461  -10.9906 N   0  0  0  0  0  0  0  0  0  0  0  0
   18.7666  -26.1441   -9.0090 C   0  0  0  0  0  0  0  0  0  0  0  0
   19.6875  -25.7365   -8.2617 O   0  0  0  0  0  0  0  0  0  0  0  0
   17.4381  -25.8803   -8.5930 N   0  0  0  0  0  0  0  0  0  0  0  0
   17.0731  -25.3474   -7.3086 C   0  0  1  0  0  0  0  0  0  0  0  0
   15.8803  -24.4834   -7.4306 C   0  0  0  0  0  0  0  0  0  0  0  0
   15.4525  -23.9751   -6.1127 C   0  0  0  0  0  0  0  0  0  0  0  0
   14.2411  -23.8846   -5.8484 O   0  0  0  0  0  0  0  0  0  0  0  0
   17.0408  -26.3623   -6.2454 C   0  0  0  0  0  0  0  0  0  0  0  0
   16.4121  -27.4401   -6.4908 O   0  0  0  0  0  0  0  0  0  0  0  0
   16.3858  -23.6004   -5.1739 O   0  0  0  0  0  0  0  0  0  0  0  0
   18.5332  -27.8023   -1.8111 O   0  0  0  0  0  0  0  0  0  0  0  0
   18.5706  -26.8826   -2.8740 C   0  0  0  0  0  0  0  0  0  0  0  0
   17.5552  -27.2450   -3.9371 C   0  0  2  0  0  0  0  0  0  0  0  0
   17.6544  -26.2315   -4.9740 N   0  0  0  0  0  0  0  0  0  0  0  0
   16.1976  -27.4192   -3.4183 C   0  0  0  0  0  0  0  0  0  0  0  0
   15.3726  -26.4683   -3.3520 O   0  0  0  0  0  0  0  0  0  0  0  0
   15.7774  -28.6609   -2.9778 O   0  0  0  0  0  0  0  0  0  0  0  0
  2  1  1  0
  2  3  2  0
  4  2  1  0
  5  6  1  0
  5  4  1  0
  6  7  1  6
  8 10  1  0
  8  6  1  0
  9  8  2  0
 11 10  1  0
 11 12  1  6
 12 13  1  0
 13 17  1  0
 14 13  2  0
 15 11  1  0
 16 15  2  0
 19 18  1  0
 20 21  1  0
 20 19  1  1
 21 15  1  0
 22 20  1  0
 23 22  2  0
 24 22  1  0
M  END
$$$$
