QDS.pdb
     RDKit          3D

 24 23  0  0  1  0  0  0  0  0999 V2000
   28.9057  -25.9373  -16.7598 N   0  0  0  0  0  0  0  0  0  0  0  0
   30.0757  -25.1653  -17.0501 C   0  0  0  0  0  0  0  0  0  0  0  0
   31.0152  -25.7321  -17.6792 O   0  0  0  0  0  0  0  0  0  0  0  0
   30.1284  -23.7697  -16.6094 C   0  0  0  0  0  0  0  0  0  0  0  0
   28.9253  -23.2580  -15.9060 C   0  0  0  0  0  0  0  0  0  0  0  0
   27.8070  -22.7800  -16.7875 C   0  0  2  0  0  0  0  0  0  0  0  0
   28.2591  -21.6727  -17.5691 N   0  0  0  0  0  0  0  0  0  0  0  0
   26.6512  -22.4266  -15.9180 C   0  0  0  0  0  0  0  0  0  0  0  0
   26.0954  -23.2381  -15.1400 O   0  0  0  0  0  0  0  0  0  0  0  0
   26.1294  -21.1098  -15.9519 N   0  0  0  0  0  0  0  0  0  0  0  0
   24.9618  -20.6732  -15.2356 C   0  0  1  0  0  0  0  0  0  0  0  0
   25.0439  -19.2249  -14.9528 C   0  0  0  0  0  0  0  0  0  0  0  0
   24.7604  -18.4281  -16.1623 C   0  0  0  0  0  0  0  0  0  0  0  0
   23.5837  -18.2341  -16.5132 O   0  0  0  0  0  0  0  0  0  0  0  0
   23.7039  -21.1555  -15.8242 C   0  0  0  0  0  0  0  0  0  0  0  0
   23.6509  -21.2394  -17.0919 O   0  0  0  0  0  0  0  0  0  0  0  0
   25.7903  -17.8980  -16.9048 O   0  0  0  0  0  0  0  0  0  0  0  0
   20.5453  -24.0205  -16.8275 O   0  0  0  0  0  0  0  0  0  0  0  0
   21.6335  -23.4696  -16.1280 C   0  0  0  0  0  0  0  0  0  0  0  0
   21.3429  -22.0420  -15.7158 C   0  0  2  0  0  0  0  0  0  0  0  0
   22.5514  -21.5325  -15.0895 N   0  0  0  0  0  0  0  0  0  0  0  0
   20.1488  -21.9027  -14.8807 C   0  0  0  0  0  0  0  0  0  0  0  0
   20.2118  -21.7726  -13.6283 O   0  0  0  0  0  0  0  0  0  0  0  0
   18.8928  -21.9107  -15.4594 O   0  0  0  0  0  0  0  0  0  0  0  0
  2  1  1  0
  2  3  2  0
  4  2  1  0
  5  6  1  0
  5  4  1  0
  6  7  1  1
  8 10  1  0
  8  6  1  0
  9  8  2  0
 11 10  1  0
 11 12  1  6
 12 13  1  0
 13 17  1  0
 14 13  2  0
 15 11  1  0
 16 15  2  0
 19 18  1  0
 20 21  1  0
 20 19  1  1
 21 15  1  0
 22 20  1  0
 23 22  2  0
 24 22  1  0
M  END
$$$$
