QDS.pdb
     RDKit          3D

 24 23  0  0  1  0  0  0  0  0999 V2000
   18.5386  -14.4436  -18.1860 N   0  0  0  0  0  0  0  0  0  0  0  0
   18.6066  -14.8023  -16.8018 C   0  0  0  0  0  0  0  0  0  0  0  0
   18.6134  -16.0332  -16.5112 O   0  0  0  0  0  0  0  0  0  0  0  0
   18.6649  -13.7373  -15.7982 C   0  0  0  0  0  0  0  0  0  0  0  0
   18.6103  -12.3463  -16.3139 C   0  0  0  0  0  0  0  0  0  0  0  0
   17.8418  -11.3674  -15.4729 C   0  0  2  0  0  0  0  0  0  0  0  0
   16.4502  -11.6868  -15.5252 N   0  0  0  0  0  0  0  0  0  0  0  0
   18.1288   -9.9969  -15.9793 C   0  0  0  0  0  0  0  0  0  0  0  0
   18.1437   -9.6968  -17.1968 O   0  0  0  0  0  0  0  0  0  0  0  0
   18.4050   -8.9562  -15.0583 N   0  0  0  0  0  0  0  0  0  0  0  0
   18.6626   -7.5892  -15.4210 C   0  0  1  0  0  0  0  0  0  0  0  0
   17.4074   -6.8090  -15.4095 C   0  0  0  0  0  0  0  0  0  0  0  0
   17.6523   -5.3987  -15.7694 C   0  0  0  0  0  0  0  0  0  0  0  0
   17.5400   -4.5117  -14.9058 O   0  0  0  0  0  0  0  0  0  0  0  0
   19.8050   -7.0026  -14.7052 C   0  0  0  0  0  0  0  0  0  0  0  0
   19.8336   -7.1451  -13.4420 O   0  0  0  0  0  0  0  0  0  0  0  0
   18.0045   -5.0588  -17.0552 O   0  0  0  0  0  0  0  0  0  0  0  0
   23.5584   -6.9969  -15.8876 O   0  0  0  0  0  0  0  0  0  0  0  0
   23.1701   -5.6996  -15.5093 C   0  0  0  0  0  0  0  0  0  0  0  0
   21.9887   -5.7443  -14.5632 C   0  0  2  0  0  0  0  0  0  0  0  0
   20.8719   -6.2940  -15.3134 N   0  0  0  0  0  0  0  0  0  0  0  0
   21.6918   -4.4573  -13.9323 C   0  0  0  0  0  0  0  0  0  0  0  0
   20.8824   -3.6304  -14.4328 O   0  0  0  0  0  0  0  0  0  0  0  0
   22.3069   -4.1092  -12.7436 O   0  0  0  0  0  0  0  0  0  0  0  0
  2  1  1  0
  2  3  2  0
  4  2  1  0
  5  6  1  0
  5  4  1  0
  6  7  1  6
  8 10  1  0
  8  6  1  0
  9  8  2  0
 11 10  1  0
 11 12  1  1
 12 13  1  0
 13 17  1  0
 14 13  2  0
 15 11  1  0
 16 15  2  0
 19 18  1  0
 20 21  1  0
 20 19  1  6
 21 15  1  0
 22 20  1  0
 23 22  2  0
 24 22  1  0
M  END
$$$$
