QDS.pdb
     RDKit          3D

 24 23  0  0  1  0  0  0  0  0999 V2000
   13.2881  -13.0247  -11.3744 N   0  0  0  0  0  0  0  0  0  0  0  0
   12.5842  -12.2243  -10.4189 C   0  0  0  0  0  0  0  0  0  0  0  0
   11.8174  -12.8155   -9.6050 O   0  0  0  0  0  0  0  0  0  0  0  0
   12.7837  -10.7736  -10.4290 C   0  0  0  0  0  0  0  0  0  0  0  0
   13.6487  -10.2379  -11.5101 C   0  0  0  0  0  0  0  0  0  0  0  0
   15.1285  -10.3670  -11.2873 C   0  0  2  0  0  0  0  0  0  0  0  0
   15.3682  -10.8682   -9.9710 N   0  0  0  0  0  0  0  0  0  0  0  0
   15.7478   -9.0309  -11.5072 C   0  0  0  0  0  0  0  0  0  0  0  0
   15.6138   -8.3703  -12.5647 O   0  0  0  0  0  0  0  0  0  0  0  0
   16.5378   -8.4509  -10.4839 N   0  0  0  0  0  0  0  0  0  0  0  0
   17.2028   -7.1803  -10.5841 C   0  0  1  0  0  0  0  0  0  0  0  0
   17.1558   -6.4719   -9.2878 C   0  0  0  0  0  0  0  0  0  0  0  0
   17.8399   -5.1665   -9.3680 C   0  0  0  0  0  0  0  0  0  0  0  0
   17.8686   -4.5486  -10.4463 O   0  0  0  0  0  0  0  0  0  0  0  0
   18.5165   -7.2611  -11.2391 C   0  0  0  0  0  0  0  0  0  0  0  0
   19.3787   -8.0363  -10.7169 O   0  0  0  0  0  0  0  0  0  0  0  0
   18.4463   -4.6282   -8.2565 O   0  0  0  0  0  0  0  0  0  0  0  0
   21.3005   -7.0042  -15.0930 O   0  0  0  0  0  0  0  0  0  0  0  0
   20.0546   -6.9383  -14.4449 C   0  0  0  0  0  0  0  0  0  0  0  0
   20.2267   -6.6081  -12.9772 C   0  0  2  0  0  0  0  0  0  0  0  0
   18.8931   -6.5444  -12.4030 N   0  0  0  0  0  0  0  0  0  0  0  0
   21.0251   -5.4054  -12.7350 C   0  0  0  0  0  0  0  0  0  0  0  0
   20.5106   -4.2572  -12.6578 O   0  0  0  0  0  0  0  0  0  0  0  0
   22.3961   -5.5024  -12.5815 O   0  0  0  0  0  0  0  0  0  0  0  0
  2  1  1  0
  2  3  2  0
  4  2  1  0
  5  6  1  0
  5  4  1  0
  6  7  1  1
  8 10  1  0
  8  6  1  0
  9  8  2  0
 11 10  1  0
 11 12  1  1
 12 13  1  0
 13 17  1  0
 14 13  2  0
 15 11  1  0
 16 15  2  0
 19 18  1  0
 20 21  1  0
 20 19  1  6
 21 15  1  0
 22 20  1  0
 23 22  2  0
 24 22  1  0
M  END
$$$$
