QDS.pdb
     RDKit          3D

 24 23  0  0  1  0  0  0  0  0999 V2000
   29.4414  -20.4640  -11.6944 N   0  0  0  0  0  0  0  0  0  0  0  0
   29.1380  -20.9375  -10.3780 C   0  0  0  0  0  0  0  0  0  0  0  0
   30.0692  -21.4826   -9.7181 O   0  0  0  0  0  0  0  0  0  0  0  0
   27.7774  -20.7695   -9.8631 C   0  0  0  0  0  0  0  0  0  0  0  0
   26.8306  -20.0345  -10.7390 C   0  0  0  0  0  0  0  0  0  0  0  0
   25.8085  -20.8764  -11.4480 C   0  0  2  0  0  0  0  0  0  0  0  0
   26.3923  -22.1303  -11.8061 N   0  0  0  0  0  0  0  0  0  0  0  0
   25.3250  -20.1165  -12.6337 C   0  0  0  0  0  0  0  0  0  0  0  0
   24.7735  -18.9927  -12.5590 O   0  0  0  0  0  0  0  0  0  0  0  0
   25.4821  -20.6696  -13.9287 N   0  0  0  0  0  0  0  0  0  0  0  0
   25.1205  -20.0059  -15.1516 C   0  0  1  0  0  0  0  0  0  0  0  0
   26.0294  -20.4108  -16.2444 C   0  0  0  0  0  0  0  0  0  0  0  0
   25.7755  -19.6257  -17.4681 C   0  0  0  0  0  0  0  0  0  0  0  0
   25.2454  -20.1692  -18.4525 O   0  0  0  0  0  0  0  0  0  0  0  0
   23.6804  -20.0647  -15.4417 C   0  0  0  0  0  0  0  0  0  0  0  0
   23.1361  -21.2139  -15.4481 O   0  0  0  0  0  0  0  0  0  0  0  0
   26.1217  -18.2955  -17.5270 O   0  0  0  0  0  0  0  0  0  0  0  0
   19.5761  -17.6571  -16.6175 O   0  0  0  0  0  0  0  0  0  0  0  0
   20.9510  -17.6510  -16.3233 C   0  0  0  0  0  0  0  0  0  0  0  0
   21.4636  -19.0598  -16.1110 C   0  0  2  0  0  0  0  0  0  0  0  0
   22.8566  -18.9432  -15.7132 N   0  0  0  0  0  0  0  0  0  0  0  0
   21.2563  -19.9404  -17.2618 C   0  0  0  0  0  0  0  0  0  0  0  0
   22.0329  -19.9484  -18.2548 O   0  0  0  0  0  0  0  0  0  0  0  0
   20.1777  -20.8055  -17.2878 O   0  0  0  0  0  0  0  0  0  0  0  0
  2  1  1  0
  2  3  2  0
  4  2  1  0
  5  6  1  0
  5  4  1  0
  6  7  1  6
  8 10  1  0
  8  6  1  0
  9  8  2  0
 11 10  1  0
 11 12  1  6
 12 13  1  0
 13 17  1  0
 14 13  2  0
 15 11  1  0
 16 15  2  0
 19 18  1  0
 20 21  1  0
 20 19  1  6
 21 15  1  0
 22 20  1  0
 23 22  2  0
 24 22  1  0
M  END
$$$$
