QDS.pdb
     RDKit          3D

 24 23  0  0  1  0  0  0  0  0999 V2000
   17.0993  -12.3232  -13.6167 N   0  0  0  0  0  0  0  0  0  0  0  0
   16.3429  -12.8211  -14.7254 C   0  0  0  0  0  0  0  0  0  0  0  0
   15.7012  -13.8992  -14.5649 O   0  0  0  0  0  0  0  0  0  0  0  0
   16.3477  -12.0656  -15.9799 C   0  0  0  0  0  0  0  0  0  0  0  0
   17.1719  -10.8310  -15.9990 C   0  0  0  0  0  0  0  0  0  0  0  0
   17.2404  -10.1115  -17.3158 C   0  0  2  0  0  0  0  0  0  0  0  0
   17.8436  -10.9635  -18.2912 N   0  0  0  0  0  0  0  0  0  0  0  0
   18.0046   -8.8496  -17.1143 C   0  0  0  0  0  0  0  0  0  0  0  0
   19.1957   -8.6954  -17.4750 O   0  0  0  0  0  0  0  0  0  0  0  0
   17.3776   -7.7474  -16.4823 N   0  0  0  0  0  0  0  0  0  0  0  0
   17.9881   -6.4608  -16.2853 C   0  0  1  0  0  0  0  0  0  0  0  0
   16.9527   -5.4272  -16.0757 C   0  0  0  0  0  0  0  0  0  0  0  0
   16.2237   -5.1406  -17.3266 C   0  0  0  0  0  0  0  0  0  0  0  0
   16.8559   -4.8913  -18.3675 O   0  0  0  0  0  0  0  0  0  0  0  0
   19.0955   -6.4841  -15.3187 C   0  0  0  0  0  0  0  0  0  0  0  0
   18.8259   -6.8667  -14.1363 O   0  0  0  0  0  0  0  0  0  0  0  0
   14.8481   -5.1477  -17.3486 O   0  0  0  0  0  0  0  0  0  0  0  0
   23.6923   -7.1376  -14.3447 O   0  0  0  0  0  0  0  0  0  0  0  0
   22.6112   -7.0085  -15.2344 C   0  0  0  0  0  0  0  0  0  0  0  0
   21.5021   -6.1815  -14.6193 C   0  0  2  0  0  0  0  0  0  0  0  0
   20.4344   -6.1147  -15.6032 N   0  0  0  0  0  0  0  0  0  0  0  0
   21.9419   -4.8686  -14.1445 C   0  0  0  0  0  0  0  0  0  0  0  0
   21.9014   -3.8391  -14.8710 O   0  0  0  0  0  0  0  0  0  0  0  0
   22.4241   -4.7226  -12.8565 O   0  0  0  0  0  0  0  0  0  0  0  0
  2  1  1  0
  2  3  2  0
  4  2  1  0
  5  6  1  0
  5  4  1  0
  6  7  1  6
  8 10  1  0
  8  6  1  0
  9  8  2  0
 11 10  1  0
 11 12  1  1
 12 13  1  0
 13 17  1  0
 14 13  2  0
 15 11  1  0
 16 15  2  0
 19 18  1  0
 20 21  1  0
 20 19  1  6
 21 15  1  0
 22 20  1  0
 23 22  2  0
 24 22  1  0
M  END
$$$$
