QDS.pdb
     RDKit          3D

 24 23  0  0  1  0  0  0  0  0999 V2000
   16.0975  -12.8693  -15.9796 N   0  0  0  0  0  0  0  0  0  0  0  0
   16.8911  -13.8253  -16.6905 C   0  0  0  0  0  0  0  0  0  0  0  0
   16.5624  -15.0438  -16.6063 O   0  0  0  0  0  0  0  0  0  0  0  0
   18.0342  -13.3516  -17.4739 C   0  0  0  0  0  0  0  0  0  0  0  0
   18.2760  -11.8870  -17.4617 C   0  0  0  0  0  0  0  0  0  0  0  0
   19.1941  -11.3853  -16.3839 C   0  0  2  0  0  0  0  0  0  0  0  0
   18.8040  -11.9462  -15.1291 N   0  0  0  0  0  0  0  0  0  0  0  0
   19.1367   -9.8974  -16.3827 C   0  0  0  0  0  0  0  0  0  0  0  0
   19.4730   -9.1900  -17.3620 O   0  0  0  0  0  0  0  0  0  0  0  0
   18.6829   -9.2175  -15.2254 N   0  0  0  0  0  0  0  0  0  0  0  0
   18.6759   -7.7888  -15.0654 C   0  0  1  0  0  0  0  0  0  0  0  0
   17.5298   -7.3705  -14.2313 C   0  0  0  0  0  0  0  0  0  0  0  0
   16.2496   -7.7890  -14.8349 C   0  0  0  0  0  0  0  0  0  0  0  0
   15.9197   -7.3512  -15.9506 O   0  0  0  0  0  0  0  0  0  0  0  0
   19.9887   -7.2380  -14.6983 C   0  0  0  0  0  0  0  0  0  0  0  0
   20.5790   -7.7607  -13.7006 O   0  0  0  0  0  0  0  0  0  0  0  0
   15.4183   -8.6613  -14.1709 O   0  0  0  0  0  0  0  0  0  0  0  0
   23.9575   -4.7968  -15.9643 O   0  0  0  0  0  0  0  0  0  0  0  0
   22.7078   -5.3753  -16.2480 C   0  0  0  0  0  0  0  0  0  0  0  0
   21.9471   -5.6691  -14.9723 C   0  0  2  0  0  0  0  0  0  0  0  0
   20.6433   -6.1741  -15.3688 N   0  0  0  0  0  0  0  0  0  0  0  0
   21.8784   -4.5315  -14.0537 C   0  0  0  0  0  0  0  0  0  0  0  0
   21.0012   -3.6320  -14.1568 O   0  0  0  0  0  0  0  0  0  0  0  0
   22.7961   -4.4135  -13.0259 O   0  0  0  0  0  0  0  0  0  0  0  0
  2  1  1  0
  2  3  2  0
  4  2  1  0
  5  6  1  0
  5  4  1  0
  6  7  1  1
  8 10  1  0
  8  6  1  0
  9  8  2  0
 11 10  1  0
 11 12  1  1
 12 13  1  0
 13 17  1  0
 14 13  2  0
 15 11  1  0
 16 15  2  0
 19 18  1  0
 20 21  1  0
 20 19  1  6
 21 15  1  0
 22 20  1  0
 23 22  2  0
 24 22  1  0
M  END
$$$$
