QDS.pdb
     RDKit          3D

 24 23  0  0  1  0  0  0  0  0999 V2000
   15.8549  -14.0243  -14.3546 N   0  0  0  0  0  0  0  0  0  0  0  0
   16.7706  -14.8470  -15.0851 C   0  0  0  0  0  0  0  0  0  0  0  0
   17.0220  -15.9993  -14.6280 O   0  0  0  0  0  0  0  0  0  0  0  0
   17.3665  -14.3206  -16.3150 C   0  0  0  0  0  0  0  0  0  0  0  0
   16.9495  -12.9525  -16.7126 C   0  0  0  0  0  0  0  0  0  0  0  0
   18.0012  -11.8871  -16.5891 C   0  0  2  0  0  0  0  0  0  0  0  0
   18.6866  -12.0389  -15.3447 N   0  0  0  0  0  0  0  0  0  0  0  0
   17.3339  -10.5618  -16.7115 C   0  0  0  0  0  0  0  0  0  0  0  0
   16.7155  -10.1891  -17.7368 O   0  0  0  0  0  0  0  0  0  0  0  0
   17.3854   -9.6517  -15.6268 N   0  0  0  0  0  0  0  0  0  0  0  0
   16.8199   -8.3300  -15.6396 C   0  0  1  0  0  0  0  0  0  0  0  0
   15.7320   -8.2267  -14.6446 C   0  0  0  0  0  0  0  0  0  0  0  0
   15.1505   -6.8703  -14.6285 C   0  0  0  0  0  0  0  0  0  0  0  0
   14.5180   -6.4569  -15.6156 O   0  0  0  0  0  0  0  0  0  0  0  0
   17.8319   -7.2638  -15.6166 C   0  0  0  0  0  0  0  0  0  0  0  0
   18.8158   -7.4145  -14.8253 O   0  0  0  0  0  0  0  0  0  0  0  0
   15.3037   -6.0595  -13.5275 O   0  0  0  0  0  0  0  0  0  0  0  0
   20.9071   -4.5494  -17.4822 O   0  0  0  0  0  0  0  0  0  0  0  0
   19.9310   -5.5466  -17.3099 C   0  0  0  0  0  0  0  0  0  0  0  0
   18.8384   -5.0760  -16.3732 C   0  0  2  0  0  0  0  0  0  0  0  0
   17.7945   -6.0866  -16.4059 N   0  0  0  0  0  0  0  0  0  0  0  0
   18.3541   -3.7261  -16.6662 C   0  0  0  0  0  0  0  0  0  0  0  0
   17.2463   -3.5131  -17.2289 O   0  0  0  0  0  0  0  0  0  0  0  0
   19.1187   -2.6255  -16.3245 O   0  0  0  0  0  0  0  0  0  0  0  0
  2  1  1  0
  2  3  2  0
  4  2  1  0
  5  6  1  0
  5  4  1  0
  6  7  1  1
  8 10  1  0
  8  6  1  0
  9  8  2  0
 11 10  1  0
 11 12  1  1
 12 13  1  0
 13 17  1  0
 14 13  2  0
 15 11  1  0
 16 15  2  0
 19 18  1  0
 20 21  1  0
 20 19  1  6
 21 15  1  0
 22 20  1  0
 23 22  2  0
 24 22  1  0
M  END
$$$$
