QDS.pdb
     RDKit          3D

 24 23  0  0  1  0  0  0  0  0999 V2000
   13.8311  -14.5995  -14.2056 N   0  0  0  0  0  0  0  0  0  0  0  0
   14.8113  -13.6336  -14.6001 C   0  0  0  0  0  0  0  0  0  0  0  0
   15.7341  -14.0135  -15.3772 O   0  0  0  0  0  0  0  0  0  0  0  0
   14.6996  -12.2653  -14.0904 C   0  0  0  0  0  0  0  0  0  0  0  0
   15.9583  -11.6369  -13.6166 C   0  0  0  0  0  0  0  0  0  0  0  0
   16.7094  -10.8292  -14.6362 C   0  0  2  0  0  0  0  0  0  0  0  0
   17.7798  -11.6125  -15.1673 N   0  0  0  0  0  0  0  0  0  0  0  0
   17.1905   -9.5839  -13.9769 C   0  0  0  0  0  0  0  0  0  0  0  0
   18.2095   -9.5349  -13.2475 O   0  0  0  0  0  0  0  0  0  0  0  0
   16.4772   -8.3742  -14.1650 N   0  0  0  0  0  0  0  0  0  0  0  0
   16.8175   -7.1193  -13.5517 C   0  0  1  0  0  0  0  0  0  0  0  0
   17.0095   -6.0784  -14.5831 C   0  0  0  0  0  0  0  0  0  0  0  0
   17.3755   -4.7848  -13.9741 C   0  0  0  0  0  0  0  0  0  0  0  0
   18.3563   -4.7149  -13.2134 O   0  0  0  0  0  0  0  0  0  0  0  0
   15.9451   -6.7686  -12.4215 C   0  0  0  0  0  0  0  0  0  0  0  0
   14.6939   -6.7281  -12.6448 O   0  0  0  0  0  0  0  0  0  0  0  0
   16.6383   -3.6546  -14.2427 O   0  0  0  0  0  0  0  0  0  0  0  0
   16.7856   -7.2205   -8.4182 O   0  0  0  0  0  0  0  0  0  0  0  0
   15.5051   -7.0787   -8.9813 C   0  0  0  0  0  0  0  0  0  0  0  0
   15.5030   -6.0107  -10.0546 C   0  0  2  0  0  0  0  0  0  0  0  0
   16.3906   -6.4738  -11.1082 N   0  0  0  0  0  0  0  0  0  0  0  0
   15.8353   -4.6753   -9.5557 C   0  0  0  0  0  0  0  0  0  0  0  0
   15.1425   -4.0895   -8.6804 O   0  0  0  0  0  0  0  0  0  0  0  0
   16.9438   -4.0082  -10.0444 O   0  0  0  0  0  0  0  0  0  0  0  0
  2  1  1  0
  2  3  2  0
  4  2  1  0
  5  6  1  0
  5  4  1  0
  6  7  1  1
  8 10  1  0
  8  6  1  0
  9  8  2  0
 11 10  1  0
 11 12  1  6
 12 13  1  0
 13 17  1  0
 14 13  2  0
 15 11  1  0
 16 15  2  0
 19 18  1  0
 20 21  1  0
 20 19  1  1
 21 15  1  0
 22 20  1  0
 23 22  2  0
 24 22  1  0
M  END
$$$$
