QDS.pdb
     RDKit          3D

 24 23  0  0  1  0  0  0  0  0999 V2000
   10.9722  -11.4922  -12.2631 N   0  0  0  0  0  0  0  0  0  0  0  0
   11.5934  -12.7018  -11.8155 C   0  0  0  0  0  0  0  0  0  0  0  0
   10.9721  -13.4049  -10.9672 O   0  0  0  0  0  0  0  0  0  0  0  0
   12.9052  -13.0641  -12.3562 C   0  0  0  0  0  0  0  0  0  0  0  0
   13.5684  -12.0445  -13.2073 C   0  0  0  0  0  0  0  0  0  0  0  0
   14.9532  -12.3866  -13.6778 C   0  0  2  0  0  0  0  0  0  0  0  0
   15.2703  -13.7238  -13.2870 N   0  0  0  0  0  0  0  0  0  0  0  0
   15.8970  -11.3886  -13.1030 C   0  0  0  0  0  0  0  0  0  0  0  0
   16.5051  -11.5540  -12.0189 O   0  0  0  0  0  0  0  0  0  0  0  0
   16.1390  -10.1769  -13.7964 N   0  0  0  0  0  0  0  0  0  0  0  0
   16.9964   -9.1226  -13.3274 C   0  0  1  0  0  0  0  0  0  0  0  0
   17.8857   -8.6615  -14.4140 C   0  0  0  0  0  0  0  0  0  0  0  0
   18.8176   -7.6216  -13.9358 C   0  0  0  0  0  0  0  0  0  0  0  0
   19.3037   -7.7043  -12.7947 O   0  0  0  0  0  0  0  0  0  0  0  0
   16.2797   -8.0789  -12.5800 C   0  0  0  0  0  0  0  0  0  0  0  0
   15.2325   -7.5966  -13.1162 O   0  0  0  0  0  0  0  0  0  0  0  0
   19.1523   -6.5605  -14.7451 O   0  0  0  0  0  0  0  0  0  0  0  0
   17.2746   -6.8130   -8.6323 O   0  0  0  0  0  0  0  0  0  0  0  0
   15.9644   -6.9574   -9.1215 C   0  0  0  0  0  0  0  0  0  0  0  0
   15.8907   -6.5805  -10.5861 C   0  0  2  0  0  0  0  0  0  0  0  0
   16.6654   -7.5721  -11.3133 N   0  0  0  0  0  0  0  0  0  0  0  0
   16.3016   -5.2025  -10.8599 C   0  0  0  0  0  0  0  0  0  0  0  0
   17.2841   -4.9248  -11.5993 O   0  0  0  0  0  0  0  0  0  0  0  0
   15.6050   -4.1469  -10.3004 O   0  0  0  0  0  0  0  0  0  0  0  0
  2  1  1  0
  2  3  2  0
  4  2  1  0
  5  6  1  0
  5  4  1  0
  6  7  1  1
  8 10  1  0
  8  6  1  0
  9  8  2  0
 11 10  1  0
 11 12  1  6
 12 13  1  0
 13 17  1  0
 14 13  2  0
 15 11  1  0
 16 15  2  0
 19 18  1  0
 20 21  1  0
 20 19  1  1
 21 15  1  0
 22 20  1  0
 23 22  2  0
 24 22  1  0
M  END
$$$$
