QDS.pdb
     RDKit          3D

 24 23  0  0  1  0  0  0  0  0999 V2000
   15.6812   -5.7242   -7.1149 N   0  0  0  0  0  0  0  0  0  0  0  0
   14.3342   -6.1247   -7.3880 C   0  0  0  0  0  0  0  0  0  0  0  0
   13.4293   -5.7279   -6.5984 O   0  0  0  0  0  0  0  0  0  0  0  0
   14.0709   -6.9661   -8.5573 C   0  0  0  0  0  0  0  0  0  0  0  0
   15.2552   -7.3650   -9.3586 C   0  0  0  0  0  0  0  0  0  0  0  0
   14.9831   -8.2888  -10.5114 C   0  0  2  0  0  0  0  0  0  0  0  0
   15.1102   -9.6431  -10.0745 N   0  0  0  0  0  0  0  0  0  0  0  0
   15.9344   -7.9543  -11.6069 C   0  0  0  0  0  0  0  0  0  0  0  0
   16.7722   -8.7649  -12.0689 O   0  0  0  0  0  0  0  0  0  0  0  0
   15.9152   -6.6569  -12.1760 N   0  0  0  0  0  0  0  0  0  0  0  0
   16.8248   -6.1934  -13.1881 C   0  0  1  0  0  0  0  0  0  0  0  0
   16.2853   -4.9878  -13.8512 C   0  0  0  0  0  0  0  0  0  0  0  0
   17.1472   -4.5642  -14.9719 C   0  0  0  0  0  0  0  0  0  0  0  0
   17.4875   -5.3900  -15.8366 O   0  0  0  0  0  0  0  0  0  0  0  0
   18.2191   -6.1192  -12.7275 C   0  0  0  0  0  0  0  0  0  0  0  0
   18.4213   -5.6505  -11.5629 O   0  0  0  0  0  0  0  0  0  0  0  0
   17.5769   -3.2606  -15.0665 O   0  0  0  0  0  0  0  0  0  0  0  0
   22.6507   -7.8989  -12.7979 O   0  0  0  0  0  0  0  0  0  0  0  0
   21.3420   -7.8218  -13.3061 C   0  0  0  0  0  0  0  0  0  0  0  0
   20.7049   -6.4935  -12.9564 C   0  0  2  0  0  0  0  0  0  0  0  0
   19.3493   -6.5285  -13.4792 N   0  0  0  0  0  0  0  0  0  0  0  0
   21.4759   -5.3345  -13.4091 C   0  0  0  0  0  0  0  0  0  0  0  0
   21.3261   -4.8289  -14.5542 O   0  0  0  0  0  0  0  0  0  0  0  0
   22.4096   -4.7523  -12.5713 O   0  0  0  0  0  0  0  0  0  0  0  0
  2  1  1  0
  2  3  2  0
  4  2  1  0
  5  6  1  0
  5  4  1  0
  6  7  1  1
  8 10  1  0
  8  6  1  0
  9  8  2  0
 11 10  1  0
 11 12  1  1
 12 13  1  0
 13 17  1  0
 14 13  2  0
 15 11  1  0
 16 15  2  0
 19 18  1  0
 20 21  1  0
 20 19  1  6
 21 15  1  0
 22 20  1  0
 23 22  2  0
 24 22  1  0
M  END
$$$$
