QDS.pdb
     RDKit          3D

 24 23  0  0  1  0  0  0  0  0999 V2000
   26.6959  -18.8230   -8.4994 N   0  0  0  0  0  0  0  0  0  0  0  0
   26.2895  -19.9923   -7.7804 C   0  0  0  0  0  0  0  0  0  0  0  0
   26.6944  -20.1226   -6.5893 O   0  0  0  0  0  0  0  0  0  0  0  0
   25.4325  -20.9719   -8.4516 C   0  0  0  0  0  0  0  0  0  0  0  0
   25.0588  -20.6641   -9.8550 C   0  0  0  0  0  0  0  0  0  0  0  0
   25.7220  -21.5061  -10.9074 C   0  0  2  0  0  0  0  0  0  0  0  0
   27.1239  -21.5800  -10.6421 N   0  0  0  0  0  0  0  0  0  0  0  0
   25.4271  -20.9028  -12.2363 C   0  0  0  0  0  0  0  0  0  0  0  0
   24.2670  -20.7595  -12.6905 O   0  0  0  0  0  0  0  0  0  0  0  0
   26.4958  -20.4591  -13.0540 N   0  0  0  0  0  0  0  0  0  0  0  0
   26.3538  -20.0002  -14.4090 C   0  0  1  0  0  0  0  0  0  0  0  0
   27.1765  -18.7928  -14.6316 C   0  0  0  0  0  0  0  0  0  0  0  0
   27.0341  -18.2976  -16.0147 C   0  0  0  0  0  0  0  0  0  0  0  0
   25.9088  -18.0034  -16.4533 O   0  0  0  0  0  0  0  0  0  0  0  0
   26.4846  -21.0746  -15.4040 C   0  0  0  0  0  0  0  0  0  0  0  0
   27.6631  -21.4130  -15.7412 O   0  0  0  0  0  0  0  0  0  0  0  0
   28.1392  -18.1590  -16.8225 O   0  0  0  0  0  0  0  0  0  0  0  0
   26.2110  -24.4091  -15.3199 O   0  0  0  0  0  0  0  0  0  0  0  0
   25.2595  -24.1173  -16.3130 C   0  0  0  0  0  0  0  0  0  0  0  0
   25.5827  -22.8082  -17.0018 C   0  0  2  0  0  0  0  0  0  0  0  0
   25.4023  -21.7587  -16.0127 N   0  0  0  0  0  0  0  0  0  0  0  0
   24.8216  -22.5880  -18.2326 C   0  0  0  0  0  0  0  0  0  0  0  0
   24.0817  -21.5808  -18.3984 O   0  0  0  0  0  0  0  0  0  0  0  0
   24.8978  -23.5016  -19.2681 O   0  0  0  0  0  0  0  0  0  0  0  0
  2  1  1  0
  2  3  2  0
  4  2  1  0
  5  6  1  0
  5  4  1  0
  6  7  1  1
  8 10  1  0
  8  6  1  0
  9  8  2  0
 11 10  1  0
 11 12  1  6
 12 13  1  0
 13 17  1  0
 14 13  2  0
 15 11  1  0
 16 15  2  0
 19 18  1  0
 20 21  1  0
 20 19  1  1
 21 15  1  0
 22 20  1  0
 23 22  2  0
 24 22  1  0
M  END
$$$$
