HMH.pdb
     RDKit          3D

 29 30  0  0  1  0  0  0  0  0999 V2000
   26.3912  -16.4256  -17.6782 N   0  0  0  0  0  0  0  0  0  0  0  0
   25.9838  -16.6939  -16.3362 C   0  0  1  0  0  0  0  0  0  0  0  0
   24.7142  -15.9959  -15.9733 C   0  0  0  0  0  0  0  0  0  0  0  0
   24.7660  -14.5389  -16.0699 C   0  0  0  0  0  0  0  0  0  0  0  0
   24.0353  -13.7613  -16.9348 C   0  0  0  0  0  0  0  0  0  0  0  0
   24.3732  -12.4774  -16.7060 N   0  0  0  0  0  0  0  0  0  0  0  0
   25.2881  -12.4422  -15.7281 C   0  0  0  0  0  0  0  0  0  0  0  0
   25.5209  -13.7121  -15.3462 N   0  0  0  0  0  0  0  0  0  0  0  0
   25.8088  -18.1399  -16.0609 C   0  0  0  0  0  0  0  0  0  0  0  0
   25.3176  -18.8916  -16.9416 O   0  0  0  0  0  0  0  0  0  0  0  0
   29.9698  -20.9538  -12.2647 C   0  0  0  0  0  0  0  0  0  0  0  0
   29.7504  -21.6908  -13.8845 S   0  0  0  0  0  0  0  0  0  0  0  0
   28.3995  -20.9252  -14.8206 C   0  0  0  0  0  0  0  0  0  0  0  0
   27.2337  -20.7448  -13.8726 C   0  0  0  0  0  0  0  0  0  0  0  0
   26.0206  -20.1718  -14.6179 C   0  0  2  0  0  0  0  0  0  0  0  0
   26.1710  -18.7541  -14.8281 N   0  0  0  0  0  0  0  0  0  0  0  0
   24.8431  -20.4903  -13.7716 C   0  0  0  0  0  0  0  0  0  0  0  0
   24.6706  -19.9072  -12.6715 O   0  0  0  0  0  0  0  0  0  0  0  0
   23.8606  -21.4518  -14.1436 N   0  0  0  0  0  0  0  0  0  0  0  0
   22.7497  -21.7815  -13.2610 C   0  0  1  0  0  0  0  0  0  0  0  0
   22.3909  -20.6416  -12.3573 C   0  0  0  0  0  0  0  0  0  0  0  0
   23.0905  -20.6731  -11.0601 C   0  0  0  0  0  0  0  0  0  0  0  0
   24.0080  -21.6494  -10.7297 C   0  0  0  0  0  0  0  0  0  0  0  0
   24.4688  -21.4013   -9.4829 N   0  0  0  0  0  0  0  0  0  0  0  0
   23.8564  -20.2872   -9.0266 C   0  0  0  0  0  0  0  0  0  0  0  0
   23.0325  -19.8677   -9.9924 N   0  0  0  0  0  0  0  0  0  0  0  0
   21.6262  -22.2103  -14.1330 C   0  0  0  0  0  0  0  0  0  0  0  0
   21.6798  -22.1825  -15.5188 O   0  0  0  0  0  0  0  0  0  0  0  0
   20.5614  -22.6235  -13.6074 O   0  0  0  0  0  0  0  0  0  0  0  0
  2  9  1  0
  2  1  1  6
  3  2  1  0
  4  3  1  0
  4  8  1  0
  5  6  1  0
  5  4  2  0
  6  7  1  0
  7  8  2  0
  9 10  2  0
 12 13  1  0
 12 11  1  0
 13 14  1  0
 15 14  1  1
 16 15  1  0
 16  9  1  0
 17 18  2  0
 17 15  1  0
 19 17  1  0
 20 27  1  0
 20 19  1  0
 20 21  1  6
 22 26  1  0
 22 21  1  0
 23 22  2  0
 24 23  1  0
 24 25  1  0
 25 26  2  0
 27 28  1  0
 29 27  2  0
M  END
$$$$
