HMH.pdb
     RDKit          3D

 29 30  0  0  1  0  0  0  0  0999 V2000
   19.1464  -10.4108  -15.8722 N   0  0  0  0  0  0  0  0  0  0  0  0
   18.9247   -9.1067  -15.3346 C   0  0  1  0  0  0  0  0  0  0  0  0
   17.8317   -8.3746  -16.0418 C   0  0  0  0  0  0  0  0  0  0  0  0
   18.1386   -7.9950  -17.4189 C   0  0  0  0  0  0  0  0  0  0  0  0
   18.3847   -8.8587  -18.4581 C   0  0  0  0  0  0  0  0  0  0  0  0
   18.6232   -8.1128  -19.5544 N   0  0  0  0  0  0  0  0  0  0  0  0
   18.5313   -6.8186  -19.2210 C   0  0  0  0  0  0  0  0  0  0  0  0
   18.2339   -6.7589  -17.9093 N   0  0  0  0  0  0  0  0  0  0  0  0
   18.6065   -9.1221  -13.8869 C   0  0  0  0  0  0  0  0  0  0  0  0
   17.9542  -10.0798  -13.3977 O   0  0  0  0  0  0  0  0  0  0  0  0
   22.1511   -7.8174   -8.0759 C   0  0  0  0  0  0  0  0  0  0  0  0
   22.4610   -7.5095   -9.8149 S   0  0  0  0  0  0  0  0  0  0  0  0
   21.2444   -8.3140  -10.8920 C   0  0  0  0  0  0  0  0  0  0  0  0
   19.9611   -7.5166  -10.8047 C   0  0  0  0  0  0  0  0  0  0  0  0
   18.8331   -8.2321  -11.5605 C   0  0  2  0  0  0  0  0  0  0  0  0
   19.0023   -8.0935  -12.9848 N   0  0  0  0  0  0  0  0  0  0  0  0
   17.5729   -7.6091  -11.0832 C   0  0  0  0  0  0  0  0  0  0  0  0
   17.0836   -6.6179  -11.6818 O   0  0  0  0  0  0  0  0  0  0  0  0
   16.8577   -8.0833   -9.9466 N   0  0  0  0  0  0  0  0  0  0  0  0
   15.6734   -7.3932   -9.4536 C   0  0  1  0  0  0  0  0  0  0  0  0
   14.8498   -8.2618   -8.5525 C   0  0  0  0  0  0  0  0  0  0  0  0
   13.6571   -7.5867   -8.0092 C   0  0  0  0  0  0  0  0  0  0  0  0
   13.0041   -6.5712   -8.6776 C   0  0  0  0  0  0  0  0  0  0  0  0
   11.9575   -6.1649   -7.9240 N   0  0  0  0  0  0  0  0  0  0  0  0
   11.9433   -6.9075   -6.7959 C   0  0  0  0  0  0  0  0  0  0  0  0
   12.9746   -7.7551   -6.8700 N   0  0  0  0  0  0  0  0  0  0  0  0
   16.1491   -6.1516   -8.7915 C   0  0  0  0  0  0  0  0  0  0  0  0
   15.5028   -4.9293   -8.9031 O   0  0  0  0  0  0  0  0  0  0  0  0
   17.1907   -6.1886   -8.0882 O   0  0  0  0  0  0  0  0  0  0  0  0
  2  9  1  0
  2  1  1  6
  3  2  1  0
  4  3  1  0
  4  8  1  0
  5  6  1  0
  5  4  2  0
  6  7  1  0
  7  8  2  0
  9 10  2  0
 12 13  1  0
 12 11  1  0
 13 14  1  0
 15 14  1  1
 16 15  1  0
 16  9  1  0
 17 18  2  0
 17 15  1  0
 19 17  1  0
 20 27  1  0
 20 19  1  0
 20 21  1  1
 22 26  1  0
 22 21  1  0
 23 22  2  0
 24 23  1  0
 24 25  1  0
 25 26  2  0
 27 28  1  0
 29 27  2  0
M  END
$$$$
