HMH.pdb
     RDKit          3D

 29 30  0  0  1  0  0  0  0  0999 V2000
   25.5026  -13.5638  -18.9763 N   0  0  0  0  0  0  0  0  0  0  0  0
   25.4740  -12.5178  -18.0046 C   0  0  1  0  0  0  0  0  0  0  0  0
   26.6396  -11.5919  -18.1264 C   0  0  0  0  0  0  0  0  0  0  0  0
   27.9475  -12.2379  -18.0451 C   0  0  0  0  0  0  0  0  0  0  0  0
   28.8940  -12.2716  -19.0399 C   0  0  0  0  0  0  0  0  0  0  0  0
   29.9509  -12.9607  -18.5676 N   0  0  0  0  0  0  0  0  0  0  0  0
   29.6832  -13.3512  -17.3144 C   0  0  0  0  0  0  0  0  0  0  0  0
   28.4522  -12.9022  -17.0052 N   0  0  0  0  0  0  0  0  0  0  0  0
   24.2344  -11.7071  -18.0609 C   0  0  0  0  0  0  0  0  0  0  0  0
   23.5450  -11.6865  -19.1126 O   0  0  0  0  0  0  0  0  0  0  0  0
   19.9089  -14.3080  -14.3703 C   0  0  0  0  0  0  0  0  0  0  0  0
   19.9637  -13.2212  -15.7955 S   0  0  0  0  0  0  0  0  0  0  0  0
   21.4203  -12.1415  -15.7920 C   0  0  0  0  0  0  0  0  0  0  0  0
   21.3277  -11.2481  -17.0100 C   0  0  0  0  0  0  0  0  0  0  0  0
   22.4885  -10.2441  -17.0278 C   0  0  2  0  0  0  0  0  0  0  0  0
   23.7567  -10.9260  -16.9700 N   0  0  0  0  0  0  0  0  0  0  0  0
   22.2732   -9.3619  -15.8533 C   0  0  0  0  0  0  0  0  0  0  0  0
   23.1583   -9.2497  -14.9678 O   0  0  0  0  0  0  0  0  0  0  0  0
   21.0811   -8.6068  -15.6613 N   0  0  0  0  0  0  0  0  0  0  0  0
   21.1222   -7.2374  -15.1664 C   0  0  1  0  0  0  0  0  0  0  0  0
   22.1130   -6.3979  -15.9136 C   0  0  0  0  0  0  0  0  0  0  0  0
   22.1733   -5.0003  -15.4484 C   0  0  0  0  0  0  0  0  0  0  0  0
   21.7586   -4.6131  -14.1905 C   0  0  0  0  0  0  0  0  0  0  0  0
   21.9407   -3.2786  -14.0703 N   0  0  0  0  0  0  0  0  0  0  0  0
   22.4619   -2.8232  -15.2302 C   0  0  0  0  0  0  0  0  0  0  0  0
   22.5926   -3.8767  -16.0431 N   0  0  0  0  0  0  0  0  0  0  0  0
   19.7347   -6.7135  -15.2484 C   0  0  0  0  0  0  0  0  0  0  0  0
   19.0665   -6.5018  -16.4455 O   0  0  0  0  0  0  0  0  0  0  0  0
   19.1152   -6.4411  -14.1887 O   0  0  0  0  0  0  0  0  0  0  0  0
  2  9  1  0
  2  1  1  6
  3  2  1  0
  4  3  1  0
  4  8  1  0
  5  6  1  0
  5  4  2  0
  6  7  1  0
  7  8  2  0
  9 10  2  0
 12 13  1  0
 12 11  1  0
 13 14  1  0
 15 14  1  1
 16 15  1  0
 16  9  1  0
 17 18  2  0
 17 15  1  0
 19 17  1  0
 20 27  1  0
 20 19  1  0
 20 21  1  6
 22 26  1  0
 22 21  1  0
 23 22  2  0
 24 23  1  0
 24 25  1  0
 25 26  2  0
 27 28  1  0
 29 27  2  0
M  END
$$$$
