HMH.pdb
     RDKit          3D

 29 30  0  0  1  0  0  0  0  0999 V2000
   18.0205  -13.8382  -16.2341 N   0  0  0  0  0  0  0  0  0  0  0  0
   18.3414  -12.6053  -16.8792 C   0  0  1  0  0  0  0  0  0  0  0  0
   17.1327  -11.7721  -17.1542 C   0  0  0  0  0  0  0  0  0  0  0  0
   16.1323  -12.4060  -18.0099 C   0  0  0  0  0  0  0  0  0  0  0  0
   14.9524  -12.9702  -17.5901 C   0  0  0  0  0  0  0  0  0  0  0  0
   14.3199  -13.4414  -18.6822 N   0  0  0  0  0  0  0  0  0  0  0  0
   15.0742  -13.1845  -19.7592 C   0  0  0  0  0  0  0  0  0  0  0  0
   16.1827  -12.5495  -19.3343 N   0  0  0  0  0  0  0  0  0  0  0  0
   19.3033  -11.7808  -16.1097 C   0  0  0  0  0  0  0  0  0  0  0  0
   19.0840  -11.5279  -14.8973 O   0  0  0  0  0  0  0  0  0  0  0  0
   26.7987  -10.0867  -14.6806 C   0  0  0  0  0  0  0  0  0  0  0  0
   25.5226  -10.8408  -15.6896 S   0  0  0  0  0  0  0  0  0  0  0  0
   23.8660  -10.2158  -15.2989 C   0  0  0  0  0  0  0  0  0  0  0  0
   22.8760  -10.9950  -16.1374 C   0  0  0  0  0  0  0  0  0  0  0  0
   21.4450  -10.5127  -15.8631 C   0  0  2  0  0  0  0  0  0  0  0  0
   20.4961  -11.2392  -16.6684 N   0  0  0  0  0  0  0  0  0  0  0  0
   21.4454   -9.0605  -16.1719 C   0  0  0  0  0  0  0  0  0  0  0  0
   21.6601   -8.6565  -17.3427 O   0  0  0  0  0  0  0  0  0  0  0  0
   21.2084   -8.0601  -15.1864 N   0  0  0  0  0  0  0  0  0  0  0  0
   21.2965   -6.6422  -15.5085 C   0  0  1  0  0  0  0  0  0  0  0  0
   20.6107   -5.7887  -14.4858 C   0  0  0  0  0  0  0  0  0  0  0  0
   20.6262   -4.3506  -14.8098 C   0  0  0  0  0  0  0  0  0  0  0  0
   21.6507   -3.7553  -15.5171 C   0  0  0  0  0  0  0  0  0  0  0  0
   21.3723   -2.4387  -15.6497 N   0  0  0  0  0  0  0  0  0  0  0  0
   20.1920   -2.1989  -15.0383 C   0  0  0  0  0  0  0  0  0  0  0  0
   19.7630   -3.3635  -14.5410 N   0  0  0  0  0  0  0  0  0  0  0  0
   22.7408   -6.3284  -15.6562 C   0  0  0  0  0  0  0  0  0  0  0  0
   23.2671   -5.6392  -16.7389 O   0  0  0  0  0  0  0  0  0  0  0  0
   23.5459   -6.6979  -14.7639 O   0  0  0  0  0  0  0  0  0  0  0  0
  2  9  1  0
  2  1  1  1
  3  2  1  0
  4  3  1  0
  4  8  1  0
  5  6  1  0
  5  4  2  0
  6  7  1  0
  7  8  2  0
  9 10  2  0
 12 13  1  0
 12 11  1  0
 13 14  1  0
 15 14  1  6
 16 15  1  0
 16  9  1  0
 17 18  2  0
 17 15  1  0
 19 17  1  0
 20 27  1  0
 20 19  1  0
 20 21  1  1
 22 26  1  0
 22 21  1  0
 23 22  2  0
 24 23  1  0
 24 25  1  0
 25 26  2  0
 27 28  1  0
 29 27  2  0
M  END
$$$$
