HMH.pdb
     RDKit          3D

 29 30  0  0  1  0  0  0  0  0999 V2000
   16.0599  -22.1826    5.1539 N   0  0  0  0  0  0  0  0  0  0  0  0
   17.1043  -21.2091    5.1713 C   0  0  1  0  0  0  0  0  0  0  0  0
   16.8007  -20.0290    4.3075 C   0  0  0  0  0  0  0  0  0  0  0  0
   16.5799  -20.3415    2.8974 C   0  0  0  0  0  0  0  0  0  0  0  0
   17.5486  -20.6829    1.9855 C   0  0  0  0  0  0  0  0  0  0  0  0
   16.9348  -20.8911    0.8043 N   0  0  0  0  0  0  0  0  0  0  0  0
   15.6201  -20.6884    0.9624 C   0  0  0  0  0  0  0  0  0  0  0  0
   15.4146  -20.3519    2.2497 N   0  0  0  0  0  0  0  0  0  0  0  0
   17.4141  -20.7144    6.5339 C   0  0  0  0  0  0  0  0  0  0  0  0
   16.4983  -20.6204    7.3908 O   0  0  0  0  0  0  0  0  0  0  0  0
   22.7037  -21.9642   10.2705 C   0  0  0  0  0  0  0  0  0  0  0  0
   21.2800  -22.9643    9.8371 S   0  0  0  0  0  0  0  0  0  0  0  0
   19.7908  -21.9697    9.5533 C   0  0  0  0  0  0  0  0  0  0  0  0
   20.2191  -20.6983    8.8529 C   0  0  0  0  0  0  0  0  0  0  0  0
   18.9953  -19.9458    8.3127 C   0  0  2  0  0  0  0  0  0  0  0  0
   18.7196  -20.3267    6.9506 N   0  0  0  0  0  0  0  0  0  0  0  0
   19.3258  -18.5036    8.4347 C   0  0  0  0  0  0  0  0  0  0  0  0
   19.6443  -18.0130    9.5473 O   0  0  0  0  0  0  0  0  0  0  0  0
   19.3033  -17.6085    7.3272 N   0  0  0  0  0  0  0  0  0  0  0  0
   19.5120  -16.1777    7.5039 C   0  0  1  0  0  0  0  0  0  0  0  0
   19.7943  -15.4851    6.2056 C   0  0  0  0  0  0  0  0  0  0  0  0
   19.9210  -14.0218    6.3318 C   0  0  0  0  0  0  0  0  0  0  0  0
   20.9212  -13.4192    7.0672 C   0  0  0  0  0  0  0  0  0  0  0  0
   20.7654  -12.0785    6.9861 N   0  0  0  0  0  0  0  0  0  0  0  0
   19.6859  -11.8307    6.2130 C   0  0  0  0  0  0  0  0  0  0  0  0
   19.1952  -13.0145    5.8316 N   0  0  0  0  0  0  0  0  0  0  0  0
   18.3054  -15.6538    8.1939 C   0  0  0  0  0  0  0  0  0  0  0  0
   18.3468  -14.6518    9.1523 O   0  0  0  0  0  0  0  0  0  0  0  0
   17.1772  -16.1300    7.9089 O   0  0  0  0  0  0  0  0  0  0  0  0
  2  9  1  0
  2  1  1  1
  3  2  1  0
  4  3  1  0
  4  8  1  0
  5  6  1  0
  5  4  2  0
  6  7  1  0
  7  8  2  0
  9 10  2  0
 12 13  1  0
 12 11  1  0
 13 14  1  0
 15 14  1  6
 16 15  1  0
 16  9  1  0
 17 18  2  0
 17 15  1  0
 19 17  1  0
 20 27  1  0
 20 19  1  0
 20 21  1  6
 22 26  1  0
 22 21  1  0
 23 22  2  0
 24 23  1  0
 24 25  1  0
 25 26  2  0
 27 28  1  0
 29 27  2  0
M  END
$$$$
