HMH.pdb
     RDKit          3D

 29 30  0  0  1  0  0  0  0  0999 V2000
   19.2037  -13.1215  -16.2903 N   0  0  0  0  0  0  0  0  0  0  0  0
   20.3298  -12.4136  -16.8096 C   0  0  1  0  0  0  0  0  0  0  0  0
   19.9631  -11.5010  -17.9336 C   0  0  0  0  0  0  0  0  0  0  0  0
   19.2946  -12.1512  -19.0585 C   0  0  0  0  0  0  0  0  0  0  0  0
   18.1751  -11.6904  -19.7074 C   0  0  0  0  0  0  0  0  0  0  0  0
   17.8805  -12.5747  -20.6801 N   0  0  0  0  0  0  0  0  0  0  0  0
   18.7836  -13.5637  -20.6489 C   0  0  0  0  0  0  0  0  0  0  0  0
   19.6454  -13.2930  -19.6506 N   0  0  0  0  0  0  0  0  0  0  0  0
   21.0382  -11.6151  -15.7810 C   0  0  0  0  0  0  0  0  0  0  0  0
   20.4165  -11.2026  -14.7685 O   0  0  0  0  0  0  0  0  0  0  0  0
   27.2315  -11.8508  -16.4257 C   0  0  0  0  0  0  0  0  0  0  0  0
   26.7005  -12.1797  -14.7449 S   0  0  0  0  0  0  0  0  0  0  0  0
   24.9103  -11.9888  -14.5304 C   0  0  0  0  0  0  0  0  0  0  0  0
   24.5566  -10.5647  -14.9006 C   0  0  0  0  0  0  0  0  0  0  0  0
   23.0333  -10.3780  -14.9182 C   0  0  2  0  0  0  0  0  0  0  0  0
   22.4182  -11.2734  -15.8650 N   0  0  0  0  0  0  0  0  0  0  0  0
   22.8082   -8.9528  -15.2678 C   0  0  0  0  0  0  0  0  0  0  0  0
   23.1947   -8.0375  -14.4979 O   0  0  0  0  0  0  0  0  0  0  0  0
   22.1571   -8.5440  -16.4666 N   0  0  0  0  0  0  0  0  0  0  0  0
   21.9191   -7.1368  -16.7584 C   0  0  1  0  0  0  0  0  0  0  0  0
   22.3686   -6.7640  -18.1382 C   0  0  0  0  0  0  0  0  0  0  0  0
   22.0741   -5.3650  -18.4979 C   0  0  0  0  0  0  0  0  0  0  0  0
   21.5891   -4.4464  -17.5895 C   0  0  0  0  0  0  0  0  0  0  0  0
   21.4243   -3.2628  -18.2222 N   0  0  0  0  0  0  0  0  0  0  0  0
   21.7974   -3.4237  -19.5104 C   0  0  0  0  0  0  0  0  0  0  0  0
   22.1841   -4.6957  -19.6519 N   0  0  0  0  0  0  0  0  0  0  0  0
   20.4715   -6.8940  -16.5313 C   0  0  0  0  0  0  0  0  0  0  0  0
   19.8850   -5.6393  -16.6078 O   0  0  0  0  0  0  0  0  0  0  0  0
   19.7203   -7.8634  -16.2538 O   0  0  0  0  0  0  0  0  0  0  0  0
  2  9  1  0
  2  1  1  1
  3  2  1  0
  4  3  1  0
  4  8  1  0
  5  6  1  0
  5  4  2  0
  6  7  1  0
  7  8  2  0
  9 10  2  0
 12 13  1  0
 12 11  1  0
 13 14  1  0
 15 14  1  6
 16 15  1  0
 16  9  1  0
 17 18  2  0
 17 15  1  0
 19 17  1  0
 20 27  1  0
 20 19  1  0
 20 21  1  6
 22 26  1  0
 22 21  1  0
 23 22  2  0
 24 23  1  0
 24 25  1  0
 25 26  2  0
 27 28  1  0
 29 27  2  0
M  END
$$$$
