HMH.pdb
     RDKit          3D

 29 30  0  0  1  0  0  0  0  0999 V2000
   22.4587  -13.9757  -18.9440 N   0  0  0  0  0  0  0  0  0  0  0  0
   22.7982  -12.6144  -19.2101 C   0  0  1  0  0  0  0  0  0  0  0  0
   21.7656  -11.9180  -20.0345 C   0  0  0  0  0  0  0  0  0  0  0  0
   21.5390  -12.5013  -21.3548 C   0  0  0  0  0  0  0  0  0  0  0  0
   20.3443  -12.9864  -21.8282 C   0  0  0  0  0  0  0  0  0  0  0  0
   20.5587  -13.4331  -23.0810 N   0  0  0  0  0  0  0  0  0  0  0  0
   21.8471  -13.2376  -23.3917 C   0  0  0  0  0  0  0  0  0  0  0  0
   22.4379  -12.6657  -22.3255 N   0  0  0  0  0  0  0  0  0  0  0  0
   23.0167  -11.8193  -17.9784 C   0  0  0  0  0  0  0  0  0  0  0  0
   22.1214  -11.7693  -17.0964 O   0  0  0  0  0  0  0  0  0  0  0  0
   28.6628  -13.1749  -14.6667 C   0  0  0  0  0  0  0  0  0  0  0  0
   28.0005  -11.5818  -15.1551 S   0  0  0  0  0  0  0  0  0  0  0  0
   26.2480  -11.6669  -15.6121 C   0  0  0  0  0  0  0  0  0  0  0  0
   25.8270  -10.2844  -16.0612 C   0  0  0  0  0  0  0  0  0  0  0  0
   24.3638  -10.2938  -16.5245 C   0  0  2  0  0  0  0  0  0  0  0  0
   24.2094  -11.0856  -17.7185 N   0  0  0  0  0  0  0  0  0  0  0  0
   24.0044   -8.8705  -16.7462 C   0  0  0  0  0  0  0  0  0  0  0  0
   24.5152   -8.2230  -17.6948 O   0  0  0  0  0  0  0  0  0  0  0  0
   23.0821   -8.1678  -15.9193 N   0  0  0  0  0  0  0  0  0  0  0  0
   22.6332   -6.8235  -16.2561 C   0  0  1  0  0  0  0  0  0  0  0  0
   22.0819   -6.7459  -17.6471 C   0  0  0  0  0  0  0  0  0  0  0  0
   21.5914   -5.4050  -18.0143 C   0  0  0  0  0  0  0  0  0  0  0  0
   22.4196   -4.3047  -18.1019 C   0  0  0  0  0  0  0  0  0  0  0  0
   21.6745   -3.2338  -18.4572 N   0  0  0  0  0  0  0  0  0  0  0  0
   20.3947   -3.6436  -18.5938 C   0  0  0  0  0  0  0  0  0  0  0  0
   20.3698   -4.9526  -18.3224 N   0  0  0  0  0  0  0  0  0  0  0  0
   21.6485   -6.4306  -15.2158 C   0  0  0  0  0  0  0  0  0  0  0  0
   21.2793   -7.2539  -14.1622 O   0  0  0  0  0  0  0  0  0  0  0  0
   21.1095   -5.2963  -15.2748 O   0  0  0  0  0  0  0  0  0  0  0  0
  2  9  1  0
  2  1  1  1
  3  2  1  0
  4  3  1  0
  4  8  1  0
  5  6  1  0
  5  4  2  0
  6  7  1  0
  7  8  2  0
  9 10  2  0
 12 13  1  0
 12 11  1  0
 13 14  1  0
 15 14  1  6
 16 15  1  0
 16  9  1  0
 17 18  2  0
 17 15  1  0
 19 17  1  0
 20 27  1  0
 20 19  1  0
 20 21  1  6
 22 26  1  0
 22 21  1  0
 23 22  2  0
 24 23  1  0
 24 25  1  0
 25 26  2  0
 27 28  1  0
 29 27  2  0
M  END
$$$$
