HMH.pdb
     RDKit          3D

 29 30  0  0  1  0  0  0  0  0999 V2000
   24.7332  -16.5253  -17.9793 N   0  0  0  0  0  0  0  0  0  0  0  0
   24.2783  -15.2390  -18.4005 C   0  0  1  0  0  0  0  0  0  0  0  0
   22.9665  -15.3008  -19.1118 C   0  0  0  0  0  0  0  0  0  0  0  0
   22.9655  -16.1109  -20.3278 C   0  0  0  0  0  0  0  0  0  0  0  0
   22.8384  -15.6390  -21.6114 C   0  0  0  0  0  0  0  0  0  0  0  0
   22.8866  -16.7017  -22.4381 N   0  0  0  0  0  0  0  0  0  0  0  0
   23.0391  -17.8110  -21.7026 C   0  0  0  0  0  0  0  0  0  0  0  0
   23.0861  -17.4360  -20.4104 N   0  0  0  0  0  0  0  0  0  0  0  0
   24.1507  -14.2739  -17.2827 C   0  0  0  0  0  0  0  0  0  0  0  0
   23.7503  -14.6665  -16.1569 O   0  0  0  0  0  0  0  0  0  0  0  0
   27.9276   -8.7124  -16.9209 C   0  0  0  0  0  0  0  0  0  0  0  0
   28.0811  -10.4551  -16.5279 S   0  0  0  0  0  0  0  0  0  0  0  0
   26.6235  -11.4120  -17.0253 C   0  0  0  0  0  0  0  0  0  0  0  0
   25.6490  -11.3922  -15.8677 C   0  0  0  0  0  0  0  0  0  0  0  0
   24.2974  -11.9808  -16.2948 C   0  0  2  0  0  0  0  0  0  0  0  0
   24.4608  -12.8889  -17.4017 N   0  0  0  0  0  0  0  0  0  0  0  0
   23.4465  -10.8164  -16.6470 C   0  0  0  0  0  0  0  0  0  0  0  0
   23.5334  -10.2813  -17.7811 O   0  0  0  0  0  0  0  0  0  0  0  0
   22.5026  -10.2472  -15.7451 N   0  0  0  0  0  0  0  0  0  0  0  0
   21.7120   -9.0799  -16.1115 C   0  0  1  0  0  0  0  0  0  0  0  0
   20.5043   -8.9212  -15.2390 C   0  0  0  0  0  0  0  0  0  0  0  0
   19.6542   -7.7752  -15.6094 C   0  0  0  0  0  0  0  0  0  0  0  0
   19.8767   -7.0142  -16.7388 C   0  0  0  0  0  0  0  0  0  0  0  0
   18.9330   -6.0476  -16.7980 N   0  0  0  0  0  0  0  0  0  0  0  0
   18.1236   -6.1896  -15.7261 C   0  0  0  0  0  0  0  0  0  0  0  0
   18.5772   -7.2347  -15.0264 N   0  0  0  0  0  0  0  0  0  0  0  0
   22.6279   -7.9117  -16.0575 C   0  0  0  0  0  0  0  0  0  0  0  0
   22.6047   -6.8781  -16.9823 O   0  0  0  0  0  0  0  0  0  0  0  0
   23.4765   -7.8364  -15.1328 O   0  0  0  0  0  0  0  0  0  0  0  0
  2  9  1  0
  2  1  1  1
  3  2  1  0
  4  3  1  0
  4  8  1  0
  5  6  1  0
  5  4  2  0
  6  7  1  0
  7  8  2  0
  9 10  2  0
 12 13  1  0
 12 11  1  0
 13 14  1  0
 15 14  1  6
 16 15  1  0
 16  9  1  0
 17 18  2  0
 17 15  1  0
 19 17  1  0
 20 27  1  0
 20 19  1  0
 20 21  1  1
 22 26  1  0
 22 21  1  0
 23 22  2  0
 24 23  1  0
 24 25  1  0
 25 26  2  0
 27 28  1  0
 29 27  2  0
M  END
$$$$
