HMH.pdb
     RDKit          3D

 29 30  0  0  1  0  0  0  0  0999 V2000
   15.2096   -2.6160   -8.7181 N   0  0  0  0  0  0  0  0  0  0  0  0
   15.3998   -3.9842   -8.3563 C   0  0  1  0  0  0  0  0  0  0  0  0
   14.1345   -4.6382   -7.9069 C   0  0  0  0  0  0  0  0  0  0  0  0
   13.5819   -4.1135   -6.6603 C   0  0  0  0  0  0  0  0  0  0  0  0
   14.2100   -3.2440   -5.8023 C   0  0  0  0  0  0  0  0  0  0  0  0
   13.3669   -3.0087   -4.7782 N   0  0  0  0  0  0  0  0  0  0  0  0
   12.2411   -3.7062   -4.9803 C   0  0  0  0  0  0  0  0  0  0  0  0
   12.3848   -4.3795   -6.1373 N   0  0  0  0  0  0  0  0  0  0  0  0
   15.9752   -4.7997   -9.4523 C   0  0  0  0  0  0  0  0  0  0  0  0
   15.6782   -4.5442  -10.6474 O   0  0  0  0  0  0  0  0  0  0  0  0
   22.0854   -7.4397  -13.1570 C   0  0  0  0  0  0  0  0  0  0  0  0
   21.2387   -6.5593  -11.8443 S   0  0  0  0  0  0  0  0  0  0  0  0
   19.5025   -7.0553  -11.6805 C   0  0  0  0  0  0  0  0  0  0  0  0
   18.9352   -6.3363  -10.4757 C   0  0  0  0  0  0  0  0  0  0  0  0
   17.4353   -6.6290  -10.3340 C   0  0  2  0  0  0  0  0  0  0  0  0
   16.8697   -5.8866   -9.2360 N   0  0  0  0  0  0  0  0  0  0  0  0
   17.3307   -8.0959  -10.1306 C   0  0  0  0  0  0  0  0  0  0  0  0
   17.7159   -8.6209   -9.0554 O   0  0  0  0  0  0  0  0  0  0  0  0
   16.8011   -8.9775  -11.1158 N   0  0  0  0  0  0  0  0  0  0  0  0
   16.6746  -10.4069  -10.8651 C   0  0  1  0  0  0  0  0  0  0  0  0
   15.7392  -10.6993   -9.7318 C   0  0  0  0  0  0  0  0  0  0  0  0
   14.3379  -10.3393  -10.0143 C   0  0  0  0  0  0  0  0  0  0  0  0
   13.9595   -9.6369  -11.1402 C   0  0  0  0  0  0  0  0  0  0  0  0
   12.6184   -9.4667  -11.1094 N   0  0  0  0  0  0  0  0  0  0  0  0
   12.1502  -10.0498   -9.9846 C   0  0  0  0  0  0  0  0  0  0  0  0
   13.2026  -10.5675   -9.3427 N   0  0  0  0  0  0  0  0  0  0  0  0
   16.2506  -11.0277  -12.1461 C   0  0  0  0  0  0  0  0  0  0  0  0
   16.0625  -12.3923  -12.3096 O   0  0  0  0  0  0  0  0  0  0  0  0
   16.0461  -10.2955  -13.1476 O   0  0  0  0  0  0  0  0  0  0  0  0
  2  9  1  0
  2  1  1  6
  3  2  1  0
  4  3  1  0
  4  8  1  0
  5  6  1  0
  5  4  2  0
  6  7  1  0
  7  8  2  0
  9 10  2  0
 12 13  1  0
 12 11  1  0
 13 14  1  0
 15 14  1  1
 16 15  1  0
 16  9  1  0
 17 18  2  0
 17 15  1  0
 19 17  1  0
 20 27  1  0
 20 19  1  0
 20 21  1  1
 22 26  1  0
 22 21  1  0
 23 22  2  0
 24 23  1  0
 24 25  1  0
 25 26  2  0
 27 28  1  0
 29 27  2  0
M  END
$$$$
