HMH.pdb
     RDKit          3D

 29 30  0  0  1  0  0  0  0  0999 V2000
   27.8939  -21.0124  -16.2085 N   0  0  0  0  0  0  0  0  0  0  0  0
   27.3673  -20.1074  -15.2377 C   0  0  1  0  0  0  0  0  0  0  0  0
   26.8053  -18.8692  -15.8555 C   0  0  0  0  0  0  0  0  0  0  0  0
   27.7657  -18.0724  -16.6154 C   0  0  0  0  0  0  0  0  0  0  0  0
   28.9716  -17.6052  -16.1527 C   0  0  0  0  0  0  0  0  0  0  0  0
   29.5506  -16.9195  -17.1574 N   0  0  0  0  0  0  0  0  0  0  0  0
   28.7384  -16.9509  -18.2223 C   0  0  0  0  0  0  0  0  0  0  0  0
   27.6473  -17.6606  -17.8779 N   0  0  0  0  0  0  0  0  0  0  0  0
   26.3162  -20.7154  -14.3875 C   0  0  0  0  0  0  0  0  0  0  0  0
   25.5835  -21.6266  -14.8506 O   0  0  0  0  0  0  0  0  0  0  0  0
   25.2210  -20.4670   -7.5683 C   0  0  0  0  0  0  0  0  0  0  0  0
   26.7049  -20.3242   -8.5648 S   0  0  0  0  0  0  0  0  0  0  0  0
   26.5060  -21.0442  -10.2169 C   0  0  0  0  0  0  0  0  0  0  0  0
   25.1828  -20.5594  -10.7686 C   0  0  0  0  0  0  0  0  0  0  0  0
   25.0438  -20.9482  -12.2468 C   0  0  2  0  0  0  0  0  0  0  0  0
   26.0731  -20.3248  -13.0396 N   0  0  0  0  0  0  0  0  0  0  0  0
   23.6839  -20.5100  -12.6503 C   0  0  0  0  0  0  0  0  0  0  0  0
   23.4411  -19.2951  -12.8632 O   0  0  0  0  0  0  0  0  0  0  0  0
   22.5973  -21.4152  -12.8172 N   0  0  0  0  0  0  0  0  0  0  0  0
   21.2597  -20.9421  -13.1473 C   0  0  1  0  0  0  0  0  0  0  0  0
   20.4994  -21.9340  -13.9736 C   0  0  0  0  0  0  0  0  0  0  0  0
   20.9031  -21.9552  -15.3913 C   0  0  0  0  0  0  0  0  0  0  0  0
   21.8067  -21.0586  -15.9241 C   0  0  0  0  0  0  0  0  0  0  0  0
   21.9653  -21.3383  -17.2375 N   0  0  0  0  0  0  0  0  0  0  0  0
   21.1774  -22.3938  -17.5367 C   0  0  0  0  0  0  0  0  0  0  0  0
   20.5488  -22.7470  -16.4108 N   0  0  0  0  0  0  0  0  0  0  0  0
   20.5918  -20.6219  -11.8598 C   0  0  0  0  0  0  0  0  0  0  0  0
   19.5807  -19.6804  -11.7359 O   0  0  0  0  0  0  0  0  0  0  0  0
   20.9467  -21.2247  -10.8150 O   0  0  0  0  0  0  0  0  0  0  0  0
  2  9  1  0
  2  1  1  6
  3  2  1  0
  4  3  1  0
  4  8  1  0
  5  6  1  0
  5  4  2  0
  6  7  1  0
  7  8  2  0
  9 10  2  0
 12 13  1  0
 12 11  1  0
 13 14  1  0
 15 14  1  1
 16 15  1  0
 16  9  1  0
 17 18  2  0
 17 15  1  0
 19 17  1  0
 20 27  1  0
 20 19  1  0
 20 21  1  1
 22 26  1  0
 22 21  1  0
 23 22  2  0
 24 23  1  0
 24 25  1  0
 25 26  2  0
 27 28  1  0
 29 27  2  0
M  END
$$$$
