HMH.pdb
     RDKit          3D

 29 30  0  0  1  0  0  0  0  0999 V2000
   20.2135  -13.2406  -16.6675 N   0  0  0  0  0  0  0  0  0  0  0  0
   20.8942  -12.1972  -17.3651 C   0  0  1  0  0  0  0  0  0  0  0  0
   19.9995  -11.4608  -18.3075 C   0  0  0  0  0  0  0  0  0  0  0  0
   19.4001  -12.2848  -19.3546 C   0  0  0  0  0  0  0  0  0  0  0  0
   19.9061  -12.4799  -20.6165 C   0  0  0  0  0  0  0  0  0  0  0  0
   19.0594  -13.3007  -21.2680 N   0  0  0  0  0  0  0  0  0  0  0  0
   18.0495  -13.6156  -20.4460 C   0  0  0  0  0  0  0  0  0  0  0  0
   18.2694  -12.9868  -19.2759 N   0  0  0  0  0  0  0  0  0  0  0  0
   21.5227  -11.2069  -16.4587 C   0  0  0  0  0  0  0  0  0  0  0  0
   20.9002  -10.8009  -15.4441 O   0  0  0  0  0  0  0  0  0  0  0  0
   28.0478  -12.6244  -15.0783 C   0  0  0  0  0  0  0  0  0  0  0  0
   27.2661  -11.1138  -15.6459 S   0  0  0  0  0  0  0  0  0  0  0  0
   25.4758  -11.1060  -15.3591 C   0  0  0  0  0  0  0  0  0  0  0  0
   24.9452   -9.7690  -15.8292 C   0  0  0  0  0  0  0  0  0  0  0  0
   23.4135   -9.7376  -15.7363 C   0  0  2  0  0  0  0  0  0  0  0  0
   22.8246  -10.6679  -16.6660 N   0  0  0  0  0  0  0  0  0  0  0  0
   23.0231   -8.3347  -16.0252 C   0  0  0  0  0  0  0  0  0  0  0  0
   22.9036   -7.9362  -17.2114 O   0  0  0  0  0  0  0  0  0  0  0  0
   22.7662   -7.3771  -15.0029 N   0  0  0  0  0  0  0  0  0  0  0  0
   22.2599   -6.0482  -15.3183 C   0  0  1  0  0  0  0  0  0  0  0  0
   21.0155   -6.1026  -16.1509 C   0  0  0  0  0  0  0  0  0  0  0  0
   20.4345   -4.7773  -16.4327 C   0  0  0  0  0  0  0  0  0  0  0  0
   20.9495   -3.9235  -17.3867 C   0  0  0  0  0  0  0  0  0  0  0  0
   20.2003   -2.7980  -17.4047 N   0  0  0  0  0  0  0  0  0  0  0  0
   19.2255   -2.9316  -16.4793 C   0  0  0  0  0  0  0  0  0  0  0  0
   19.3871   -4.1297  -15.9082 N   0  0  0  0  0  0  0  0  0  0  0  0
   22.0643   -5.3488  -14.0226 C   0  0  0  0  0  0  0  0  0  0  0  0
   22.2267   -5.9631  -12.7895 O   0  0  0  0  0  0  0  0  0  0  0  0
   21.7340   -4.1356  -14.0210 O   0  0  0  0  0  0  0  0  0  0  0  0
  2  9  1  0
  2  1  1  1
  3  2  1  0
  4  3  1  0
  4  8  1  0
  5  6  1  0
  5  4  2  0
  6  7  1  0
  7  8  2  0
  9 10  2  0
 12 13  1  0
 12 11  1  0
 13 14  1  0
 15 14  1  6
 16 15  1  0
 16  9  1  0
 17 18  2  0
 17 15  1  0
 19 17  1  0
 20 27  1  0
 20 19  1  0
 20 21  1  1
 22 26  1  0
 22 21  1  0
 23 22  2  0
 24 23  1  0
 24 25  1  0
 25 26  2  0
 27 28  1  0
 29 27  2  0
M  END
$$$$
