HMH.pdb
     RDKit          3D

 29 30  0  0  1  0  0  0  0  0999 V2000
   26.9381  -35.2688   -9.0174 N   0  0  0  0  0  0  0  0  0  0  0  0
   27.1762  -34.5209   -7.8246 C   0  0  1  0  0  0  0  0  0  0  0  0
   25.9253  -34.2685   -7.0485 C   0  0  0  0  0  0  0  0  0  0  0  0
   24.9888  -33.3409   -7.6789 C   0  0  0  0  0  0  0  0  0  0  0  0
   25.1287  -31.9763   -7.7487 C   0  0  0  0  0  0  0  0  0  0  0  0
   24.0568  -31.4944   -8.4074 N   0  0  0  0  0  0  0  0  0  0  0  0
   23.2633  -32.5199   -8.7441 C   0  0  0  0  0  0  0  0  0  0  0  0
   23.8452  -33.6468   -8.2921 N   0  0  0  0  0  0  0  0  0  0  0  0
   28.1563  -35.1677   -6.9200 C   0  0  0  0  0  0  0  0  0  0  0  0
   28.1918  -36.4214   -6.8261 O   0  0  0  0  0  0  0  0  0  0  0  0
   34.8692  -32.9218   -6.8175 C   0  0  0  0  0  0  0  0  0  0  0  0
   33.5489  -32.9945   -5.6064 S   0  0  0  0  0  0  0  0  0  0  0  0
   32.2927  -34.2349   -6.0197 C   0  0  0  0  0  0  0  0  0  0  0  0
   31.2232  -34.1736   -4.9506 C   0  0  0  0  0  0  0  0  0  0  0  0
   30.0614  -35.1135   -5.3003 C   0  0  2  0  0  0  0  0  0  0  0  0
   29.0896  -34.4421   -6.1256 N   0  0  0  0  0  0  0  0  0  0  0  0
   29.4893  -35.5445   -3.9999 C   0  0  0  0  0  0  0  0  0  0  0  0
   28.2444  -35.5764   -3.8288 O   0  0  0  0  0  0  0  0  0  0  0  0
   30.2944  -35.9387   -2.8933 N   0  0  0  0  0  0  0  0  0  0  0  0
   29.6976  -36.4109   -1.6511 C   0  0  1  0  0  0  0  0  0  0  0  0
   28.6829  -37.4876   -1.8875 C   0  0  0  0  0  0  0  0  0  0  0  0
   27.3120  -36.9776   -2.0711 C   0  0  0  0  0  0  0  0  0  0  0  0
   26.7910  -36.6647   -3.3101 C   0  0  0  0  0  0  0  0  0  0  0  0
   25.5222  -36.2277   -3.1444 N   0  0  0  0  0  0  0  0  0  0  0  0
   25.2392  -36.2612   -1.8240 C   0  0  0  0  0  0  0  0  0  0  0  0
   26.3305  -36.7155   -1.1993 N   0  0  0  0  0  0  0  0  0  0  0  0
   30.8184  -36.8471   -0.7794 C   0  0  0  0  0  0  0  0  0  0  0  0
   30.9956  -36.3979    0.5210 O   0  0  0  0  0  0  0  0  0  0  0  0
   31.6622  -37.6662   -1.2244 O   0  0  0  0  0  0  0  0  0  0  0  0
  2  9  1  0
  2  1  1  6
  3  2  1  0
  4  3  1  0
  4  8  1  0
  5  6  1  0
  5  4  2  0
  6  7  1  0
  7  8  2  0
  9 10  2  0
 12 13  1  0
 12 11  1  0
 13 14  1  0
 15 14  1  1
 16 15  1  0
 16  9  1  0
 17 18  2  0
 17 15  1  0
 19 17  1  0
 20 27  1  0
 20 19  1  0
 20 21  1  6
 22 26  1  0
 22 21  1  0
 23 22  2  0
 24 23  1  0
 24 25  1  0
 25 26  2  0
 27 28  1  0
 29 27  2  0
M  END
$$$$
