HMH.pdb
     RDKit          3D

 29 30  0  0  1  0  0  0  0  0999 V2000
   26.5080  -24.6019  -16.4502 N   0  0  0  0  0  0  0  0  0  0  0  0
   26.6589  -23.2089  -16.1752 C   0  0  1  0  0  0  0  0  0  0  0  0
   26.3813  -22.3566  -17.3699 C   0  0  0  0  0  0  0  0  0  0  0  0
   27.3414  -22.4997  -18.4620 C   0  0  0  0  0  0  0  0  0  0  0  0
   28.6129  -21.9811  -18.4915 C   0  0  0  0  0  0  0  0  0  0  0  0
   29.1662  -22.3368  -19.6672 N   0  0  0  0  0  0  0  0  0  0  0  0
   28.2746  -23.0574  -20.3605 C   0  0  0  0  0  0  0  0  0  0  0  0
   27.1597  -23.1504  -19.6113 N   0  0  0  0  0  0  0  0  0  0  0  0
   25.7963  -22.7397  -15.0648 C   0  0  0  0  0  0  0  0  0  0  0  0
   24.6035  -23.1312  -14.9880 O   0  0  0  0  0  0  0  0  0  0  0  0
   24.2465  -21.3972   -8.3097 C   0  0  0  0  0  0  0  0  0  0  0  0
   25.6220  -21.1799   -9.4393 S   0  0  0  0  0  0  0  0  0  0  0  0
   25.2028  -20.1229  -10.8516 C   0  0  0  0  0  0  0  0  0  0  0  0
   26.1119  -20.5120  -11.9972 C   0  0  0  0  0  0  0  0  0  0  0  0
   25.3579  -21.3897  -13.0055 C   0  0  2  0  0  0  0  0  0  0  0  0
   26.2415  -21.8479  -14.0475 N   0  0  0  0  0  0  0  0  0  0  0  0
   24.2612  -20.5404  -13.5347 C   0  0  0  0  0  0  0  0  0  0  0  0
   24.5163  -19.5490  -14.2641 O   0  0  0  0  0  0  0  0  0  0  0  0
   22.8869  -20.7894  -13.2564 N   0  0  0  0  0  0  0  0  0  0  0  0
   21.8367  -19.9386  -13.7997 C   0  0  1  0  0  0  0  0  0  0  0  0
   21.2945  -20.4689  -15.0918 C   0  0  0  0  0  0  0  0  0  0  0  0
   22.1516  -20.1790  -16.2557 C   0  0  0  0  0  0  0  0  0  0  0  0
   22.4596  -21.1260  -17.2110 C   0  0  0  0  0  0  0  0  0  0  0  0
   23.2573  -20.5541  -18.1410 N   0  0  0  0  0  0  0  0  0  0  0  0
   23.4544  -19.2660  -17.7854 C   0  0  0  0  0  0  0  0  0  0  0  0
   22.7797  -19.0642  -16.6488 N   0  0  0  0  0  0  0  0  0  0  0  0
   20.8021  -19.8115  -12.7416 C   0  0  0  0  0  0  0  0  0  0  0  0
   19.6596  -19.0367  -12.8779 O   0  0  0  0  0  0  0  0  0  0  0  0
   20.9504  -20.4307  -11.6573 O   0  0  0  0  0  0  0  0  0  0  0  0
  2  9  1  0
  2  1  1  6
  3  2  1  0
  4  3  1  0
  4  8  1  0
  5  6  1  0
  5  4  2  0
  6  7  1  0
  7  8  2  0
  9 10  2  0
 12 13  1  0
 12 11  1  0
 13 14  1  0
 15 14  1  1
 16 15  1  0
 16  9  1  0
 17 18  2  0
 17 15  1  0
 19 17  1  0
 20 27  1  0
 20 19  1  0
 20 21  1  6
 22 26  1  0
 22 21  1  0
 23 22  2  0
 24 23  1  0
 24 25  1  0
 25 26  2  0
 27 28  1  0
 29 27  2  0
M  END
$$$$
