CSK.pdb
     RDKit          3D

 22 21  0  0  1  0  0  0  0  0999 V2000
   28.5521  -19.6200  -15.7140 N   0  0  0  0  0  0  0  0  0  0  0  0
   27.8218  -19.0471  -14.6047 C   0  0  1  0  0  0  0  0  0  0  0  0
   26.9615  -17.9379  -15.1246 C   0  0  0  0  0  0  0  0  0  0  0  0
   27.4799  -16.3422  -14.4369 S   0  0  0  0  0  0  0  0  0  0  0  0
   27.0483  -20.1217  -13.9453 C   0  0  0  0  0  0  0  0  0  0  0  0
   26.6941  -21.1513  -14.5753 O   0  0  0  0  0  0  0  0  0  0  0  0
   24.7472  -21.5996   -9.9386 O   0  0  0  0  0  0  0  0  0  0  0  0
   25.7700  -20.8251  -10.4882 C   0  0  0  0  0  0  0  0  0  0  0  0
   25.7113  -20.9802  -11.9681 C   0  0  2  0  0  0  0  0  0  0  0  0
   26.6581  -20.0633  -12.5726 N   0  0  0  0  0  0  0  0  0  0  0  0
   24.3541  -20.8350  -12.5445 C   0  0  0  0  0  0  0  0  0  0  0  0
   23.9126  -19.6642  -12.6854 O   0  0  0  0  0  0  0  0  0  0  0  0
   23.5372  -21.9022  -12.9397 N   0  0  0  0  0  0  0  0  0  0  0  0
   22.1893  -21.7576  -13.5132 C   0  0  1  0  0  0  0  0  0  0  0  0
   21.7341  -23.0098  -14.1633 C   0  0  0  0  0  0  0  0  0  0  0  0
   20.4251  -23.0025  -14.8448 C   0  0  0  0  0  0  0  0  0  0  0  0
   19.9096  -24.2726  -15.4022 C   0  0  0  0  0  0  0  0  0  0  0  0
   18.6036  -24.1636  -16.1399 C   0  0  0  0  0  0  0  0  0  0  0  0
   17.5285  -23.7159  -15.2654 N   0  0  0  0  0  0  0  0  0  0  0  0
   21.2787  -21.0687  -12.6144 C   0  0  0  0  0  0  0  0  0  0  0  0
   20.5535  -20.0806  -12.9827 O   0  0  0  0  0  0  0  0  0  0  0  0
   21.1143  -21.4241  -11.2842 O   0  0  0  0  0  0  0  0  0  0  0  0
  2  1  1  6
  2  5  1  0
  2  3  1  0
  3  4  1  0
  5 10  1  0
  6  5  2  0
  9  8  1  1
  8  7  1  0
  9 11  1  0
 10  9  1  0
 11 12  2  0
 11 13  1  0
 13 14  1  0
 14 20  1  0
 14 15  1  1
 15 16  1  0
 16 17  1  0
 18 19  1  0
 18 17  1  0
 20 22  1  0
 21 20  2  0
M  END
$$$$
