CSK.pdb
     RDKit          3D

 22 21  0  0  1  0  0  0  0  0999 V2000
   14.9450  -11.1038  -13.1299 N   0  0  0  0  0  0  0  0  0  0  0  0
   16.0330  -10.6561  -12.2887 C   0  0  1  0  0  0  0  0  0  0  0  0
   17.0921  -11.7139  -12.2788 C   0  0  0  0  0  0  0  0  0  0  0  0
   16.6680  -13.0414  -11.1186 S   0  0  0  0  0  0  0  0  0  0  0  0
   16.5170   -9.3545  -12.7981 C   0  0  0  0  0  0  0  0  0  0  0  0
   16.7522   -9.1795  -14.0214 O   0  0  0  0  0  0  0  0  0  0  0  0
   17.2425   -4.6633  -12.0464 O   0  0  0  0  0  0  0  0  0  0  0  0
   16.7954   -5.8772  -11.5225 C   0  0  0  0  0  0  0  0  0  0  0  0
   17.2749   -6.9635  -12.4213 C   0  0  2  0  0  0  0  0  0  0  0  0
   16.7461   -8.2285  -11.9498 N   0  0  0  0  0  0  0  0  0  0  0  0
   18.7457   -7.0080  -12.5953 C   0  0  0  0  0  0  0  0  0  0  0  0
   19.4075   -7.6359  -11.7273 O   0  0  0  0  0  0  0  0  0  0  0  0
   19.4426   -6.4049  -13.6502 N   0  0  0  0  0  0  0  0  0  0  0  0
   20.9006   -6.4752  -13.8396 C   0  0  1  0  0  0  0  0  0  0  0  0
   21.2560   -7.1774  -15.0959 C   0  0  0  0  0  0  0  0  0  0  0  0
   22.6857   -7.3116  -15.4362 C   0  0  0  0  0  0  0  0  0  0  0  0
   23.0530   -7.9992  -16.6939 C   0  0  0  0  0  0  0  0  0  0  0  0
   24.5262   -8.2302  -16.8895 C   0  0  0  0  0  0  0  0  0  0  0  0
   24.8070   -8.8433  -18.1803 N   0  0  0  0  0  0  0  0  0  0  0  0
   21.5573   -5.2148  -13.5365 C   0  0  0  0  0  0  0  0  0  0  0  0
   22.7478   -5.1454  -13.0719 O   0  0  0  0  0  0  0  0  0  0  0  0
   20.9538   -3.9812  -13.7278 O   0  0  0  0  0  0  0  0  0  0  0  0
  2  1  1  6
  2  5  1  0
  2  3  1  0
  3  4  1  0
  5 10  1  0
  6  5  2  0
  9  8  1  1
  8  7  1  0
  9 11  1  0
 10  9  1  0
 11 12  2  0
 11 13  1  0
 13 14  1  0
 14 20  1  0
 14 15  1  6
 15 16  1  0
 16 17  1  0
 18 19  1  0
 18 17  1  0
 20 22  1  0
 21 20  2  0
M  END
$$$$
