CSK.pdb
     RDKit          3D

 22 21  0  0  1  0  0  0  0  0999 V2000
   25.0013  -10.1720  -15.5328 N   0  0  0  0  0  0  0  0  0  0  0  0
   24.2964   -9.1914  -16.3287 C   0  0  1  0  0  0  0  0  0  0  0  0
   23.7027   -9.8818  -17.5168 C   0  0  0  0  0  0  0  0  0  0  0  0
   22.5145  -11.1501  -16.9995 S   0  0  0  0  0  0  0  0  0  0  0  0
   23.2848   -8.5314  -15.4750 C   0  0  0  0  0  0  0  0  0  0  0  0
   22.5759   -9.1928  -14.6735 O   0  0  0  0  0  0  0  0  0  0  0  0
   22.8249   -5.1296  -13.0601 O   0  0  0  0  0  0  0  0  0  0  0  0
   22.4203   -5.1001  -14.3956 C   0  0  0  0  0  0  0  0  0  0  0  0
   21.9814   -6.4738  -14.7671 C   0  0  2  0  0  0  0  0  0  0  0  0
   23.0487   -7.1230  -15.5030 N   0  0  0  0  0  0  0  0  0  0  0  0
   20.6929   -6.5273  -15.4969 C   0  0  0  0  0  0  0  0  0  0  0  0
   20.7397   -6.4317  -16.7515 O   0  0  0  0  0  0  0  0  0  0  0  0
   19.4388   -6.6760  -14.8908 N   0  0  0  0  0  0  0  0  0  0  0  0
   18.1516   -6.6087  -15.6018 C   0  0  1  0  0  0  0  0  0  0  0  0
   17.3321   -7.8213  -15.3655 C   0  0  0  0  0  0  0  0  0  0  0  0
   15.9999   -7.8930  -15.9964 C   0  0  0  0  0  0  0  0  0  0  0  0
   15.2023   -9.1280  -15.8286 C   0  0  0  0  0  0  0  0  0  0  0  0
   13.8836   -9.1406  -16.5516 C   0  0  0  0  0  0  0  0  0  0  0  0
   13.2597  -10.4558  -16.5082 N   0  0  0  0  0  0  0  0  0  0  0  0
   17.5201   -5.3060  -15.4765 C   0  0  0  0  0  0  0  0  0  0  0  0
   17.6686   -4.5575  -14.4491 O   0  0  0  0  0  0  0  0  0  0  0  0
   16.7070   -4.7610  -16.4586 O   0  0  0  0  0  0  0  0  0  0  0  0
  2  1  1  1
  2  5  1  0
  2  3  1  0
  3  4  1  0
  5 10  1  0
  6  5  2  0
  9  8  1  6
  8  7  1  0
  9 11  1  0
 10  9  1  0
 11 12  2  0
 11 13  1  0
 13 14  1  0
 14 20  1  0
 14 15  1  1
 15 16  1  0
 16 17  1  0
 18 19  1  0
 18 17  1  0
 20 22  1  0
 21 20  2  0
M  END
$$$$
