CSK.pdb
     RDKit          3D

 22 21  0  0  1  0  0  0  0  0999 V2000
   26.7450  -20.4626  -12.9837 N   0  0  0  0  0  0  0  0  0  0  0  0
   26.8009  -19.9613  -14.3393 C   0  0  1  0  0  0  0  0  0  0  0  0
   26.3191  -21.0360  -15.2633 C   0  0  0  0  0  0  0  0  0  0  0  0
   27.6327  -22.2422  -15.5914 S   0  0  0  0  0  0  0  0  0  0  0  0
   25.9943  -18.7239  -14.4171 C   0  0  0  0  0  0  0  0  0  0  0  0
   24.9841  -18.5566  -13.6865 O   0  0  0  0  0  0  0  0  0  0  0  0
   26.9641  -14.8544  -14.7122 O   0  0  0  0  0  0  0  0  0  0  0  0
   26.3360  -15.3290  -15.8647 C   0  0  0  0  0  0  0  0  0  0  0  0
   25.4724  -16.4766  -15.4710 C   0  0  2  0  0  0  0  0  0  0  0  0
   26.3030  -17.6543  -15.3120 N   0  0  0  0  0  0  0  0  0  0  0  0
   24.3303  -16.7228  -16.3824 C   0  0  0  0  0  0  0  0  0  0  0  0
   24.5301  -17.4943  -17.3573 O   0  0  0  0  0  0  0  0  0  0  0  0
   23.0558  -16.1610  -16.2336 N   0  0  0  0  0  0  0  0  0  0  0  0
   21.9236  -16.3998  -17.1434 C   0  0  1  0  0  0  0  0  0  0  0  0
   20.7078  -16.8184  -16.4056 C   0  0  0  0  0  0  0  0  0  0  0  0
   19.5143  -17.1926  -17.1890 C   0  0  0  0  0  0  0  0  0  0  0  0
   18.3014  -17.6335  -16.4650 C   0  0  0  0  0  0  0  0  0  0  0  0
   17.1644  -18.0862  -17.3391 C   0  0  0  0  0  0  0  0  0  0  0  0
   15.9749  -18.3933  -16.5568 N   0  0  0  0  0  0  0  0  0  0  0  0
   21.8020  -15.3645  -18.1558 C   0  0  0  0  0  0  0  0  0  0  0  0
   22.0243  -14.1274  -17.9150 O   0  0  0  0  0  0  0  0  0  0  0  0
   21.4394  -15.6274  -19.4681 O   0  0  0  0  0  0  0  0  0  0  0  0
  2  1  1  1
  2  5  1  0
  2  3  1  0
  3  4  1  0
  5 10  1  0
  6  5  2  0
  9  8  1  6
  8  7  1  0
  9 11  1  0
 10  9  1  0
 11 12  2  0
 11 13  1  0
 13 14  1  0
 14 20  1  0
 14 15  1  1
 15 16  1  0
 16 17  1  0
 18 19  1  0
 18 17  1  0
 20 22  1  0
 21 20  2  0
M  END
$$$$
