CSK.pdb
     RDKit          3D

 22 21  0  0  1  0  0  0  0  0999 V2000
   20.7473  -15.2002  -15.5858 N   0  0  0  0  0  0  0  0  0  0  0  0
   21.3929  -14.2743  -16.4902 C   0  0  1  0  0  0  0  0  0  0  0  0
   20.4934  -14.0538  -17.6662 C   0  0  0  0  0  0  0  0  0  0  0  0
   20.5440  -15.4736  -18.7930 S   0  0  0  0  0  0  0  0  0  0  0  0
   21.6981  -13.0299  -15.7511 C   0  0  0  0  0  0  0  0  0  0  0  0
   20.8350  -12.4749  -15.0237 O   0  0  0  0  0  0  0  0  0  0  0  0
   25.1985  -10.8876  -16.4498 O   0  0  0  0  0  0  0  0  0  0  0  0
   24.7357  -10.9233  -15.1335 C   0  0  0  0  0  0  0  0  0  0  0  0
   23.2596  -11.1154  -15.1766 C   0  0  2  0  0  0  0  0  0  0  0  0
   22.9715  -12.3858  -15.8131 N   0  0  0  0  0  0  0  0  0  0  0  0
   22.5161   -9.9989  -15.8061 C   0  0  0  0  0  0  0  0  0  0  0  0
   22.0404  -10.2015  -16.9542 O   0  0  0  0  0  0  0  0  0  0  0  0
   22.3086   -8.7457  -15.2155 N   0  0  0  0  0  0  0  0  0  0  0  0
   21.5388   -7.6494  -15.8255 C   0  0  1  0  0  0  0  0  0  0  0  0
   20.2548   -8.1301  -16.3894 C   0  0  0  0  0  0  0  0  0  0  0  0
   19.3189   -7.1293  -16.9377 C   0  0  0  0  0  0  0  0  0  0  0  0
   18.0264   -7.5946  -17.4876 C   0  0  0  0  0  0  0  0  0  0  0  0
   17.1505   -6.5156  -18.0622 C   0  0  0  0  0  0  0  0  0  0  0  0
   15.8239   -7.0188  -18.3908 N   0  0  0  0  0  0  0  0  0  0  0  0
   21.5326   -6.4539  -14.9994 C   0  0  0  0  0  0  0  0  0  0  0  0
   21.5365   -6.4931  -13.7202 O   0  0  0  0  0  0  0  0  0  0  0  0
   21.5257   -5.1706  -15.5243 O   0  0  0  0  0  0  0  0  0  0  0  0
  2  1  1  1
  2  5  1  0
  2  3  1  0
  3  4  1  0
  5 10  1  0
  6  5  2  0
  9  8  1  6
  8  7  1  0
  9 11  1  0
 10  9  1  0
 11 12  2  0
 11 13  1  0
 13 14  1  0
 14 20  1  0
 14 15  1  1
 15 16  1  0
 16 17  1  0
 18 19  1  0
 18 17  1  0
 20 22  1  0
 21 20  2  0
M  END
$$$$
