CSK.pdb
     RDKit          3D

 22 21  0  0  1  0  0  0  0  0999 V2000
   28.4053  -20.3275  -15.9685 N   0  0  0  0  0  0  0  0  0  0  0  0
   28.1597  -19.9891  -14.5838 C   0  0  1  0  0  0  0  0  0  0  0  0
   28.0304  -18.5018  -14.4741 C   0  0  0  0  0  0  0  0  0  0  0  0
   26.5977  -17.9072  -15.4130 S   0  0  0  0  0  0  0  0  0  0  0  0
   26.9519  -20.7121  -14.1296 C   0  0  0  0  0  0  0  0  0  0  0  0
   26.2211  -21.3359  -14.9416 O   0  0  0  0  0  0  0  0  0  0  0  0
   25.3778  -20.2822  -10.2629 O   0  0  0  0  0  0  0  0  0  0  0  0
   25.3954  -21.5589  -10.8268 C   0  0  0  0  0  0  0  0  0  0  0  0
   25.3295  -21.4024  -12.3062 C   0  0  2  0  0  0  0  0  0  0  0  0
   26.5412  -20.7497  -12.7622 N   0  0  0  0  0  0  0  0  0  0  0  0
   24.1118  -20.7136  -12.7943 C   0  0  0  0  0  0  0  0  0  0  0  0
   24.1698  -19.4616  -12.9143 O   0  0  0  0  0  0  0  0  0  0  0  0
   22.9122  -21.3554  -13.1283 N   0  0  0  0  0  0  0  0  0  0  0  0
   21.6919  -20.6677  -13.5804 C   0  0  1  0  0  0  0  0  0  0  0  0
   21.2887  -21.1048  -14.9384 C   0  0  0  0  0  0  0  0  0  0  0  0
   20.0771  -20.5048  -15.5301 C   0  0  0  0  0  0  0  0  0  0  0  0
   19.5981  -21.0154  -16.8337 C   0  0  0  0  0  0  0  0  0  0  0  0
   18.4809  -20.2257  -17.4581 C   0  0  0  0  0  0  0  0  0  0  0  0
   18.0647  -20.7981  -18.7310 N   0  0  0  0  0  0  0  0  0  0  0  0
   20.6789  -20.6017  -12.5406 C   0  0  0  0  0  0  0  0  0  0  0  0
   20.5407  -21.5069  -11.6465 O   0  0  0  0  0  0  0  0  0  0  0  0
   19.7792  -19.5529  -12.4253 O   0  0  0  0  0  0  0  0  0  0  0  0
  2  1  1  6
  2  5  1  0
  2  3  1  0
  3  4  1  0
  5 10  1  0
  6  5  2  0
  9  8  1  1
  8  7  1  0
  9 11  1  0
 10  9  1  0
 11 12  2  0
 11 13  1  0
 13 14  1  0
 14 20  1  0
 14 15  1  6
 15 16  1  0
 16 17  1  0
 18 19  1  0
 18 17  1  0
 20 22  1  0
 21 20  2  0
M  END
$$$$
