CSK.pdb
     RDKit          3D

 22 21  0  0  1  0  0  0  0  0999 V2000
   26.0180  -32.3584   -4.0649 N   0  0  0  0  0  0  0  0  0  0  0  0
   26.0248  -33.7864   -4.2949 C   0  0  1  0  0  0  0  0  0  0  0  0
   24.6584  -34.3216   -3.9996 C   0  0  0  0  0  0  0  0  0  0  0  0
   24.6582  -36.1348   -4.0140 S   0  0  0  0  0  0  0  0  0  0  0  0
   26.4584  -34.0369   -5.6867 C   0  0  0  0  0  0  0  0  0  0  0  0
   26.0970  -33.2846   -6.6279 O   0  0  0  0  0  0  0  0  0  0  0  0
   29.3396  -36.5239   -8.6624 O   0  0  0  0  0  0  0  0  0  0  0  0
   28.7885  -36.4446   -7.3825 C   0  0  0  0  0  0  0  0  0  0  0  0
   27.7292  -35.3983   -7.4087 C   0  0  2  0  0  0  0  0  0  0  0  0
   27.3017  -35.1312   -6.0492 N   0  0  0  0  0  0  0  0  0  0  0  0
   26.5856  -35.7086   -8.2983 C   0  0  0  0  0  0  0  0  0  0  0  0
   25.6586  -36.4120   -7.8172 O   0  0  0  0  0  0  0  0  0  0  0  0
   26.4673  -35.2760   -9.6254 N   0  0  0  0  0  0  0  0  0  0  0  0
   25.3610  -35.6342  -10.5278 C   0  0  1  0  0  0  0  0  0  0  0  0
   25.2385  -34.6745  -11.6510 C   0  0  0  0  0  0  0  0  0  0  0  0
   24.1478  -34.8793  -12.6239 C   0  0  0  0  0  0  0  0  0  0  0  0
   24.0492  -33.9623  -13.7811 C   0  0  0  0  0  0  0  0  0  0  0  0
   23.0325  -34.3499  -14.8191 C   0  0  0  0  0  0  0  0  0  0  0  0
   22.9930  -33.3927  -15.9161 N   0  0  0  0  0  0  0  0  0  0  0  0
   25.3271  -37.0571  -10.8208 C   0  0  0  0  0  0  0  0  0  0  0  0
   26.3462  -37.8193  -10.6843 O   0  0  0  0  0  0  0  0  0  0  0  0
   24.1896  -37.7113  -11.2688 O   0  0  0  0  0  0  0  0  0  0  0  0
  2  1  1  6
  2  5  1  0
  2  3  1  0
  3  4  1  0
  5 10  1  0
  6  5  2  0
  9  8  1  1
  8  7  1  0
  9 11  1  0
 10  9  1  0
 11 12  2  0
 11 13  1  0
 13 14  1  0
 14 20  1  0
 14 15  1  6
 15 16  1  0
 16 17  1  0
 18 19  1  0
 18 17  1  0
 20 22  1  0
 21 20  2  0
M  END
$$$$
