KRY.pdb
     RDKit          3D

 33 33  0  0  1  0  0  0  0  0999 V2000
   24.7908  -17.4847  -16.8734 N   0  0  0  0  0  0  0  0  0  0  0  0
   23.7152  -18.1800  -17.5436 C   0  0  1  0  0  0  0  0  0  0  0  0
   24.1188  -18.8053  -18.8275 C   0  0  0  0  0  0  0  0  0  0  0  0
   24.8271  -17.9116  -19.8007 C   0  0  0  0  0  0  0  0  0  0  0  0
   26.2973  -18.1798  -19.9540 C   0  0  0  0  0  0  0  0  0  0  0  0
   26.8535  -17.1874  -20.9931 C   0  0  0  0  0  0  0  0  0  0  0  0
   28.2921  -17.4186  -21.0957 N   0  0  0  0  0  0  0  0  0  0  0  0
   23.0839  -19.1565  -16.6086 C   0  0  0  0  0  0  0  0  0  0  0  0
   22.2934  -20.0473  -16.9973 O   0  0  0  0  0  0  0  0  0  0  0  0
   28.1132  -21.8270  -14.3129 N   0  0  0  0  0  0  0  0  0  0  0  0
   27.2027  -22.1474  -15.3505 C   0  0  0  0  0  0  0  0  0  0  0  0
   27.5553  -22.4971  -16.5433 N   0  0  0  0  0  0  0  0  0  0  0  0
   25.8030  -22.0882  -15.0898 N   0  0  0  0  0  0  0  0  0  0  0  0
   25.2391  -21.9049  -13.7979 C   0  0  0  0  0  0  0  0  0  0  0  0
   25.1441  -20.4379  -13.3962 C   0  0  0  0  0  0  0  0  0  0  0  0
   23.6991  -20.1937  -13.1107 C   0  0  0  0  0  0  0  0  0  0  0  0
   22.7913  -20.0966  -14.3172 C   0  0  2  0  0  0  0  0  0  0  0  0
   23.3838  -19.0804  -15.2338 N   0  0  0  0  0  0  0  0  0  0  0  0
   21.4873  -19.5605  -13.8999 C   0  0  0  0  0  0  0  0  0  0  0  0
   21.4428  -18.6266  -13.0627 O   0  0  0  0  0  0  0  0  0  0  0  0
   26.7658  -22.6827  -17.2266 O   0  0  0  0  0  0  0  0  0  0  0  0
   20.3792  -13.6852  -16.4345 C   0  0  0  0  0  0  0  0  0  0  0  0
   19.8813  -14.9450  -16.1118 C   0  0  0  0  0  0  0  0  0  0  0  0
   18.7264  -15.1133  -15.3807 C   0  0  0  0  0  0  0  0  0  0  0  0
   18.2321  -16.3744  -15.0606 C   0  0  0  0  0  0  0  0  0  0  0  0
   18.8988  -17.5115  -15.4751 C   0  0  0  0  0  0  0  0  0  0  0  0
   18.3490  -18.8154  -15.1122 C   0  0  2  0  0  0  0  0  0  0  0  0
   18.9920  -19.4595  -13.9015 N   0  0  0  0  0  0  0  0  0  0  0  0
   20.2420  -20.0302  -14.3912 C   0  0  0  0  0  0  0  0  0  0  0  0
   18.1051  -20.5278  -13.3927 O   0  0  0  0  0  0  0  0  0  0  0  0
   18.4166  -21.8650  -13.5008 C   0  0  0  0  0  0  0  0  0  0  0  0
   20.0607  -17.3525  -16.2107 C   0  0  0  0  0  0  0  0  0  0  0  0
   20.5391  -16.0898  -16.5208 O   0  0  0  0  0  0  0  0  0  0  0  0
  2  3  1  0
  2  1  1  1
  4  3  1  0
  5  4  1  0
  6  5  1  0
  7  6  1  0
  8  2  1  0
  8  9  2  0
 10 11  1  0
 11 12  2  0
 13 11  1  0
 13 14  1  0
 14 15  1  0
 15 16  1  0
 17 16  1  1
 17 18  1  0
 18  8  1  0
 19 17  1  0
 20 19  2  0
 22 21  1  0
 23 22  2  0
 24 23  1  0
 25 31  1  0
 25 24  2  0
 26 25  1  0
 27 28  1  0
 27 26  1  1
 28 19  1  0
 29 27  1  0
 30 29  1  0
 31 32  2  0
 32 22  1  0
 33 29  2  0
M  END
$$$$
