KRY.pdb
     RDKit          3D

 33 33  0  0  1  0  0  0  0  0999 V2000
   28.4285  -21.6887  -17.4738 N   0  0  0  0  0  0  0  0  0  0  0  0
   28.0446  -20.7205  -16.4715 C   0  0  1  0  0  0  0  0  0  0  0  0
   27.7634  -19.3718  -17.0230 C   0  0  0  0  0  0  0  0  0  0  0  0
   27.1887  -19.3335  -18.4071 C   0  0  0  0  0  0  0  0  0  0  0  0
   28.1964  -19.1601  -19.5076 C   0  0  0  0  0  0  0  0  0  0  0  0
   27.4263  -18.9343  -20.8230 C   0  0  0  0  0  0  0  0  0  0  0  0
   28.4069  -18.8919  -21.9047 N   0  0  0  0  0  0  0  0  0  0  0  0
   26.9094  -21.2527  -15.6626 C   0  0  0  0  0  0  0  0  0  0  0  0
   25.9197  -21.8193  -16.1814 O   0  0  0  0  0  0  0  0  0  0  0  0
   23.1249  -19.0597   -9.3415 N   0  0  0  0  0  0  0  0  0  0  0  0
   22.6794  -20.3372   -9.7632 C   0  0  0  0  0  0  0  0  0  0  0  0
   21.5089  -20.8194   -9.5050 N   0  0  0  0  0  0  0  0  0  0  0  0
   23.5578  -21.1641  -10.5216 N   0  0  0  0  0  0  0  0  0  0  0  0
   24.8202  -21.6240  -10.0573 C   0  0  0  0  0  0  0  0  0  0  0  0
   25.5279  -22.5252  -11.0621 C   0  0  0  0  0  0  0  0  0  0  0  0
   26.2312  -21.6022  -12.0017 C   0  0  0  0  0  0  0  0  0  0  0  0
   25.8364  -21.7103  -13.4583 C   0  0  2  0  0  0  0  0  0  0  0  0
   26.9446  -21.1169  -14.2604 N   0  0  0  0  0  0  0  0  0  0  0  0
   24.6567  -20.8677  -13.7039 C   0  0  0  0  0  0  0  0  0  0  0  0
   24.7813  -19.6189  -13.7151 O   0  0  0  0  0  0  0  0  0  0  0  0
   21.2685  -21.7371   -9.9790 O   0  0  0  0  0  0  0  0  0  0  0  0
   18.3179  -16.3450  -17.1854 C   0  0  0  0  0  0  0  0  0  0  0  0
   19.3449  -17.1819  -16.7563 C   0  0  0  0  0  0  0  0  0  0  0  0
   19.4415  -18.4942  -17.1627 C   0  0  0  0  0  0  0  0  0  0  0  0
   20.4699  -19.3271  -16.7315 C   0  0  0  0  0  0  0  0  0  0  0  0
   21.4385  -18.8511  -15.8687 C   0  0  0  0  0  0  0  0  0  0  0  0
   22.4967  -19.7606  -15.4358 C   0  0  1  0  0  0  0  0  0  0  0  0
   22.2277  -20.4666  -14.1231 N   0  0  0  0  0  0  0  0  0  0  0  0
   23.3536  -21.3761  -13.9410 C   0  0  0  0  0  0  0  0  0  0  0  0
   20.9653  -21.2288  -14.2327 O   0  0  0  0  0  0  0  0  0  0  0  0
   20.8921  -22.4586  -14.8484 C   0  0  0  0  0  0  0  0  0  0  0  0
   21.3499  -17.5332  -15.4546 C   0  0  0  0  0  0  0  0  0  0  0  0
   20.3196  -16.7174  -15.8933 O   0  0  0  0  0  0  0  0  0  0  0  0
  2  3  1  0
  2  1  1  6
  4  3  1  0
  5  4  1  0
  6  5  1  0
  7  6  1  0
  8  2  1  0
  8  9  2  0
 10 11  1  0
 11 12  2  0
 13 11  1  0
 13 14  1  0
 14 15  1  0
 15 16  1  0
 17 16  1  1
 17 18  1  0
 18  8  1  0
 19 17  1  0
 20 19  2  0
 22 21  1  0
 23 22  2  0
 24 23  1  0
 25 31  1  0
 25 24  2  0
 26 25  1  0
 27 28  1  0
 27 26  1  1
 28 19  1  0
 29 27  1  0
 30 29  1  0
 31 32  2  0
 32 22  1  0
 33 29  2  0
M  END
$$$$
