KRY.pdb
     RDKit          3D

 33 33  0  0  1  0  0  0  0  0999 V2000
   25.3358  -17.4739  -16.4981 N   0  0  0  0  0  0  0  0  0  0  0  0
   24.1085  -17.1518  -15.8057 C   0  0  1  0  0  0  0  0  0  0  0  0
   22.9702  -16.8646  -16.7135 C   0  0  0  0  0  0  0  0  0  0  0  0
   23.3290  -16.4757  -18.1162 C   0  0  0  0  0  0  0  0  0  0  0  0
   23.4624  -17.6223  -19.0777 C   0  0  0  0  0  0  0  0  0  0  0  0
   23.8181  -17.0416  -20.4599 C   0  0  0  0  0  0  0  0  0  0  0  0
   23.4982  -15.6167  -20.4336 N   0  0  0  0  0  0  0  0  0  0  0  0
   23.7908  -18.2216  -14.8153 C   0  0  0  0  0  0  0  0  0  0  0  0
   22.7633  -18.1931  -14.0989 O   0  0  0  0  0  0  0  0  0  0  0  0
   23.8535  -26.2154  -14.0450 N   0  0  0  0  0  0  0  0  0  0  0  0
   24.3780  -25.7177  -15.2639 C   0  0  0  0  0  0  0  0  0  0  0  0
   24.1373  -26.2356  -16.4228 N   0  0  0  0  0  0  0  0  0  0  0  0
   25.2283  -24.5745  -15.2393 N   0  0  0  0  0  0  0  0  0  0  0  0
   25.5701  -23.8595  -14.0592 C   0  0  0  0  0  0  0  0  0  0  0  0
   24.4538  -22.9386  -13.5809 C   0  0  0  0  0  0  0  0  0  0  0  0
   24.5578  -21.7116  -14.4253 C   0  0  0  0  0  0  0  0  0  0  0  0
   24.3232  -20.3960  -13.7159 C   0  0  2  0  0  0  0  0  0  0  0  0
   24.6754  -19.3095  -14.6748 N   0  0  0  0  0  0  0  0  0  0  0  0
   25.2676  -20.2750  -12.5955 C   0  0  0  0  0  0  0  0  0  0  0  0
   26.4795  -20.0490  -12.8309 O   0  0  0  0  0  0  0  0  0  0  0  0
   24.5826  -25.7476  -17.2524 O   0  0  0  0  0  0  0  0  0  0  0  0
   29.0015  -19.0285   -4.7184 C   0  0  0  0  0  0  0  0  0  0  0  0
   28.1833  -19.0843   -5.8439 C   0  0  0  0  0  0  0  0  0  0  0  0
   27.1421  -19.9792   -5.9515 C   0  0  0  0  0  0  0  0  0  0  0  0
   26.3266  -20.0314   -7.0782 C   0  0  0  0  0  0  0  0  0  0  0  0
   26.5438  -19.1714   -8.1377 C   0  0  0  0  0  0  0  0  0  0  0  0
   25.6685  -19.2639   -9.3037 C   0  0  1  0  0  0  0  0  0  0  0  0
   25.9219  -20.4636  -10.1928 N   0  0  0  0  0  0  0  0  0  0  0  0
   24.8991  -20.3928  -11.2305 C   0  0  0  0  0  0  0  0  0  0  0  0
   25.7600  -21.6993   -9.3968 O   0  0  0  0  0  0  0  0  0  0  0  0
   26.8241  -22.4989   -9.0430 C   0  0  0  0  0  0  0  0  0  0  0  0
   27.5881  -18.2681   -8.0387 C   0  0  0  0  0  0  0  0  0  0  0  0
   28.3905  -18.2293   -6.9100 O   0  0  0  0  0  0  0  0  0  0  0  0
  2  3  1  0
  2  1  1  6
  4  3  1  0
  5  4  1  0
  6  5  1  0
  7  6  1  0
  8  2  1  0
  8  9  2  0
 10 11  1  0
 11 12  2  0
 13 11  1  0
 13 14  1  0
 14 15  1  0
 15 16  1  0
 17 16  1  6
 17 18  1  0
 18  8  1  0
 19 17  1  0
 20 19  2  0
 22 21  1  0
 23 22  2  0
 24 23  1  0
 25 31  1  0
 25 24  2  0
 26 25  1  0
 27 28  1  0
 27 26  1  6
 28 19  1  0
 29 27  1  0
 30 29  1  0
 31 32  2  0
 32 22  1  0
 33 29  2  0
M  END
$$$$
