KRY.pdb
     RDKit          3D

 33 33  0  0  1  0  0  0  0  0999 V2000
   29.4817  -22.1968  -18.6061 N   0  0  0  0  0  0  0  0  0  0  0  0
   28.6321  -22.9193  -17.6865 C   0  0  1  0  0  0  0  0  0  0  0  0
   29.3817  -23.7187  -16.6858 C   0  0  0  0  0  0  0  0  0  0  0  0
   30.1498  -24.8898  -17.2208 C   0  0  0  0  0  0  0  0  0  0  0  0
   29.3352  -25.8762  -18.0083 C   0  0  0  0  0  0  0  0  0  0  0  0
   30.2741  -27.0110  -18.4607 C   0  0  0  0  0  0  0  0  0  0  0  0
   29.4724  -27.9696  -19.2171 N   0  0  0  0  0  0  0  0  0  0  0  0
   27.6597  -21.9816  -17.0530 C   0  0  0  0  0  0  0  0  0  0  0  0
   27.9848  -20.8368  -16.6613 O   0  0  0  0  0  0  0  0  0  0  0  0
   20.9684  -21.8841  -13.9702 N   0  0  0  0  0  0  0  0  0  0  0  0
   20.0755  -21.2036  -14.8351 C   0  0  0  0  0  0  0  0  0  0  0  0
   18.9760  -20.6452  -14.4499 N   0  0  0  0  0  0  0  0  0  0  0  0
   20.3850  -21.1145  -16.2233 N   0  0  0  0  0  0  0  0  0  0  0  0
   21.5857  -21.6036  -16.8061 C   0  0  0  0  0  0  0  0  0  0  0  0
   22.8332  -21.1618  -16.0503 C   0  0  0  0  0  0  0  0  0  0  0  0
   23.9787  -21.8108  -16.7546 C   0  0  0  0  0  0  0  0  0  0  0  0
   25.3588  -21.4447  -16.2544 C   0  0  2  0  0  0  0  0  0  0  0  0
   26.3220  -22.3921  -16.8856 N   0  0  0  0  0  0  0  0  0  0  0  0
   25.4305  -21.6921  -14.8068 C   0  0  0  0  0  0  0  0  0  0  0  0
   25.4259  -22.8729  -14.3811 O   0  0  0  0  0  0  0  0  0  0  0  0
   18.3614  -20.2485  -15.2178 O   0  0  0  0  0  0  0  0  0  0  0  0
   26.8225  -20.3731   -6.1234 C   0  0  0  0  0  0  0  0  0  0  0  0
   26.7412  -20.2902   -7.5112 C   0  0  0  0  0  0  0  0  0  0  0  0
   27.2899  -21.2455   -8.3375 C   0  0  0  0  0  0  0  0  0  0  0  0
   27.2060  -21.1589   -9.7242 C   0  0  0  0  0  0  0  0  0  0  0  0
   26.5586  -20.0930  -10.3192 C   0  0  0  0  0  0  0  0  0  0  0  0
   26.4990  -20.0376  -11.7779 C   0  0  1  0  0  0  0  0  0  0  0  0
   25.5138  -20.9994  -12.4089 N   0  0  0  0  0  0  0  0  0  0  0  0
   25.5121  -20.6671  -13.8293 C   0  0  0  0  0  0  0  0  0  0  0  0
   24.1736  -20.7711  -11.8273 O   0  0  0  0  0  0  0  0  0  0  0  0
   23.6803  -21.5213  -10.7829 C   0  0  0  0  0  0  0  0  0  0  0  0
   26.0038  -19.1276   -9.4967 C   0  0  0  0  0  0  0  0  0  0  0  0
   26.0962  -19.2290   -8.1181 O   0  0  0  0  0  0  0  0  0  0  0  0
  2  3  1  0
  2  1  1  1
  4  3  1  0
  5  4  1  0
  6  5  1  0
  7  6  1  0
  8  2  1  0
  8  9  2  0
 10 11  1  0
 11 12  2  0
 13 11  1  0
 13 14  1  0
 14 15  1  0
 15 16  1  0
 17 16  1  6
 17 18  1  0
 18  8  1  0
 19 17  1  0
 20 19  2  0
 22 21  1  0
 23 22  2  0
 24 23  1  0
 25 31  1  0
 25 24  2  0
 26 25  1  0
 27 28  1  0
 27 26  1  6
 28 19  1  0
 29 27  1  0
 30 29  1  0
 31 32  2  0
 32 22  1  0
 33 29  2  0
M  END
$$$$
