KRY.pdb
     RDKit          3D

 33 33  0  0  1  0  0  0  0  0999 V2000
   29.0751  -22.6956  -16.5220 N   0  0  0  0  0  0  0  0  0  0  0  0
   27.6638  -22.7731  -16.8246 C   0  0  1  0  0  0  0  0  0  0  0  0
   27.1303  -24.1579  -16.8271 C   0  0  0  0  0  0  0  0  0  0  0  0
   27.8755  -25.1486  -17.6702 C   0  0  0  0  0  0  0  0  0  0  0  0
   27.6450  -25.0229  -19.1494 C   0  0  0  0  0  0  0  0  0  0  0  0
   28.4754  -26.1141  -19.8520 C   0  0  0  0  0  0  0  0  0  0  0  0
   28.2887  -25.9500  -21.2914 N   0  0  0  0  0  0  0  0  0  0  0  0
   26.9008  -21.8709  -15.9135 C   0  0  0  0  0  0  0  0  0  0  0  0
   27.0321  -21.9031  -14.6680 O   0  0  0  0  0  0  0  0  0  0  0  0
   26.1338  -14.1321  -15.8277 N   0  0  0  0  0  0  0  0  0  0  0  0
   25.5487  -14.7683  -16.9508 C   0  0  0  0  0  0  0  0  0  0  0  0
   25.5414  -14.2725  -18.1438 N   0  0  0  0  0  0  0  0  0  0  0  0
   24.9212  -16.0366  -16.7823 N   0  0  0  0  0  0  0  0  0  0  0  0
   24.5085  -16.5624  -15.5278 C   0  0  0  0  0  0  0  0  0  0  0  0
   23.8457  -17.9294  -15.6481 C   0  0  0  0  0  0  0  0  0  0  0  0
   24.8656  -18.8140  -16.2857 C   0  0  0  0  0  0  0  0  0  0  0  0
   25.1921  -20.0920  -15.5446 C   0  0  2  0  0  0  0  0  0  0  0  0
   25.9958  -20.9438  -16.4679 N   0  0  0  0  0  0  0  0  0  0  0  0
   23.9484  -20.8317  -15.2837 C   0  0  0  0  0  0  0  0  0  0  0  0
   23.3417  -21.3756  -16.2383 O   0  0  0  0  0  0  0  0  0  0  0  0
   25.0608  -14.8560  -18.8875 O   0  0  0  0  0  0  0  0  0  0  0  0
   17.5634  -25.0961  -10.7409 C   0  0  0  0  0  0  0  0  0  0  0  0
   18.6770  -24.3583  -11.1343 C   0  0  0  0  0  0  0  0  0  0  0  0
   19.7354  -24.9276  -11.8067 C   0  0  0  0  0  0  0  0  0  0  0  0
   20.8464  -24.1862  -12.1983 C   0  0  0  0  0  0  0  0  0  0  0  0
   20.9184  -22.8352  -11.9178 C   0  0  0  0  0  0  0  0  0  0  0  0
   22.1052  -22.0958  -12.3411 C   0  0  1  0  0  0  0  0  0  0  0  0
   22.1588  -21.7770  -13.8208 N   0  0  0  0  0  0  0  0  0  0  0  0
   23.3709  -20.9846  -13.9970 C   0  0  0  0  0  0  0  0  0  0  0  0
   20.9679  -20.9812  -14.1884 O   0  0  0  0  0  0  0  0  0  0  0  0
   20.8660  -19.6332  -13.9251 C   0  0  0  0  0  0  0  0  0  0  0  0
   19.8592  -22.2538  -11.2422 C   0  0  0  0  0  0  0  0  0  0  0  0
   18.7606  -23.0062  -10.8595 O   0  0  0  0  0  0  0  0  0  0  0  0
  2  3  1  0
  2  1  1  1
  4  3  1  0
  5  4  1  0
  6  5  1  0
  7  6  1  0
  8  2  1  0
  8  9  2  0
 10 11  1  0
 11 12  2  0
 13 11  1  0
 13 14  1  0
 14 15  1  0
 15 16  1  0
 17 16  1  6
 17 18  1  0
 18  8  1  0
 19 17  1  0
 20 19  2  0
 22 21  1  0
 23 22  2  0
 24 23  1  0
 25 31  1  0
 25 24  2  0
 26 25  1  0
 27 28  1  0
 27 26  1  6
 28 19  1  0
 29 27  1  0
 30 29  1  0
 31 32  2  0
 32 22  1  0
 33 29  2  0
M  END
$$$$
