KRY.pdb
     RDKit          3D

 33 33  0  0  1  0  0  0  0  0999 V2000
   21.8800  -13.2719  -18.0132 N   0  0  0  0  0  0  0  0  0  0  0  0
   20.7798  -12.3363  -18.0721 C   0  0  1  0  0  0  0  0  0  0  0  0
   19.6620  -12.6729  -17.1558 C   0  0  0  0  0  0  0  0  0  0  0  0
   18.8289  -13.8580  -17.5416 C   0  0  0  0  0  0  0  0  0  0  0  0
   17.3934  -13.5481  -17.8582 C   0  0  0  0  0  0  0  0  0  0  0  0
   16.7011  -14.8662  -18.2549 C   0  0  0  0  0  0  0  0  0  0  0  0
   16.4785  -15.6314  -17.0308 N   0  0  0  0  0  0  0  0  0  0  0  0
   21.2852  -10.9475  -17.8672 C   0  0  0  0  0  0  0  0  0  0  0  0
   22.2230  -10.6809  -17.0804 O   0  0  0  0  0  0  0  0  0  0  0  0
   19.8771   -4.7548  -23.5354 N   0  0  0  0  0  0  0  0  0  0  0  0
   20.8059   -5.8067  -23.3380 C   0  0  0  0  0  0  0  0  0  0  0  0
   21.3997   -6.4398  -24.2949 N   0  0  0  0  0  0  0  0  0  0  0  0
   21.1237   -6.2130  -22.0096 N   0  0  0  0  0  0  0  0  0  0  0  0
   20.5359   -5.6544  -20.8421 C   0  0  0  0  0  0  0  0  0  0  0  0
   21.1056   -6.2388  -19.5550 C   0  0  0  0  0  0  0  0  0  0  0  0
   20.7559   -7.6900  -19.5852 C   0  0  0  0  0  0  0  0  0  0  0  0
   21.2415   -8.5143  -18.4131 C   0  0  2  0  0  0  0  0  0  0  0  0
   20.6900   -9.8894  -18.5828 N   0  0  0  0  0  0  0  0  0  0  0  0
   20.6522   -7.9872  -17.1734 C   0  0  0  0  0  0  0  0  0  0  0  0
   19.4606   -8.2616  -16.8907 O   0  0  0  0  0  0  0  0  0  0  0  0
   22.0888   -7.1899  -23.9996 O   0  0  0  0  0  0  0  0  0  0  0  0
   19.4149   -6.2793   -8.7163 C   0  0  0  0  0  0  0  0  0  0  0  0
   19.9283   -6.5264   -9.9869 C   0  0  0  0  0  0  0  0  0  0  0  0
   19.4547   -7.5434  -10.7857 C   0  0  0  0  0  0  0  0  0  0  0  0
   19.9707   -7.7866  -12.0553 C   0  0  0  0  0  0  0  0  0  0  0  0
   20.9902   -7.0004  -12.5570 C   0  0  0  0  0  0  0  0  0  0  0  0
   21.5071   -7.2940  -13.8915 C   0  0  2  0  0  0  0  0  0  0  0  0
   20.6951   -6.7090  -15.0284 N   0  0  0  0  0  0  0  0  0  0  0  0
   21.3519   -7.1737  -16.2453 C   0  0  0  0  0  0  0  0  0  0  0  0
   20.7452   -5.2332  -14.9502 O   0  0  0  0  0  0  0  0  0  0  0  0
   19.7862   -4.4918  -14.2965 C   0  0  0  0  0  0  0  0  0  0  0  0
   21.4729   -5.9756  -11.7614 C   0  0  0  0  0  0  0  0  0  0  0  0
   20.9481   -5.7469  -10.4998 O   0  0  0  0  0  0  0  0  0  0  0  0
  2  3  1  0
  2  1  1  1
  4  3  1  0
  5  4  1  0
  6  5  1  0
  7  6  1  0
  8  2  1  0
  8  9  2  0
 10 11  1  0
 11 12  2  0
 13 11  1  0
 13 14  1  0
 14 15  1  0
 15 16  1  0
 17 16  1  6
 17 18  1  0
 18  8  1  0
 19 17  1  0
 20 19  2  0
 22 21  1  0
 23 22  2  0
 24 23  1  0
 25 31  1  0
 25 24  2  0
 26 25  1  0
 27 28  1  0
 27 26  1  6
 28 19  1  0
 29 27  1  0
 30 29  1  0
 31 32  2  0
 32 22  1  0
 33 29  2  0
M  END
$$$$
