KRY.pdb
     RDKit          3D

 33 33  0  0  1  0  0  0  0  0999 V2000
   27.8674  -23.2403  -17.4468 N   0  0  0  0  0  0  0  0  0  0  0  0
   27.7212  -21.9536  -16.8045 C   0  0  1  0  0  0  0  0  0  0  0  0
   27.5796  -20.8248  -17.7575 C   0  0  0  0  0  0  0  0  0  0  0  0
   28.0621  -21.0782  -19.1541 C   0  0  0  0  0  0  0  0  0  0  0  0
   29.4924  -20.6964  -19.4100 C   0  0  0  0  0  0  0  0  0  0  0  0
   29.7615  -20.8544  -20.9188 C   0  0  0  0  0  0  0  0  0  0  0  0
   29.3501  -19.6138  -21.5710 N   0  0  0  0  0  0  0  0  0  0  0  0
   26.6059  -22.0062  -15.8147 C   0  0  0  0  0  0  0  0  0  0  0  0
   25.5604  -22.6676  -16.0121 O   0  0  0  0  0  0  0  0  0  0  0  0
   23.5597  -20.6691   -8.4773 N   0  0  0  0  0  0  0  0  0  0  0  0
   24.9129  -20.7980   -8.0765 C   0  0  0  0  0  0  0  0  0  0  0  0
   25.2885  -21.1663   -6.8964 N   0  0  0  0  0  0  0  0  0  0  0  0
   25.9461  -20.5089   -9.0144 N   0  0  0  0  0  0  0  0  0  0  0  0
   25.7669  -19.7140  -10.1791 C   0  0  0  0  0  0  0  0  0  0  0  0
   25.0546  -20.4600  -11.3011 C   0  0  0  0  0  0  0  0  0  0  0  0
   26.0856  -20.6683  -12.3608 C   0  0  0  0  0  0  0  0  0  0  0  0
   25.6133  -21.3636  -13.6189 C   0  0  2  0  0  0  0  0  0  0  0  0
   26.7259  -21.2869  -14.6089 N   0  0  0  0  0  0  0  0  0  0  0  0
   24.4953  -20.6059  -14.2001 C   0  0  0  0  0  0  0  0  0  0  0  0
   24.6814  -19.4241  -14.5796 O   0  0  0  0  0  0  0  0  0  0  0  0
   26.3283  -21.1024   -6.6977 O   0  0  0  0  0  0  0  0  0  0  0  0
   17.2307  -18.3586  -18.6352 C   0  0  0  0  0  0  0  0  0  0  0  0
   18.3107  -18.9877  -18.0213 C   0  0  0  0  0  0  0  0  0  0  0  0
   19.6158  -18.6698  -18.3251 C   0  0  0  0  0  0  0  0  0  0  0  0
   20.6924  -19.3010  -17.7088 C   0  0  0  0  0  0  0  0  0  0  0  0
   20.4766  -20.2810  -16.7588 C   0  0  0  0  0  0  0  0  0  0  0  0
   21.6347  -20.9225  -16.1411 C   0  0  1  0  0  0  0  0  0  0  0  0
   22.1092  -20.2733  -14.8576 N   0  0  0  0  0  0  0  0  0  0  0  0
   23.1876  -21.1280  -14.3734 C   0  0  0  0  0  0  0  0  0  0  0  0
   20.9956  -20.2522  -13.8849 O   0  0  0  0  0  0  0  0  0  0  0  0
   20.1472  -19.1755  -13.7515 C   0  0  0  0  0  0  0  0  0  0  0  0
   19.1681  -20.6074  -16.4466 C   0  0  0  0  0  0  0  0  0  0  0  0
   18.1078  -19.9693  -17.0695 O   0  0  0  0  0  0  0  0  0  0  0  0
  2  3  1  0
  2  1  1  6
  4  3  1  0
  5  4  1  0
  6  5  1  0
  7  6  1  0
  8  2  1  0
  8  9  2  0
 10 11  1  0
 11 12  2  0
 13 11  1  0
 13 14  1  0
 14 15  1  0
 15 16  1  0
 17 16  1  1
 17 18  1  0
 18  8  1  0
 19 17  1  0
 20 19  2  0
 22 21  1  0
 23 22  2  0
 24 23  1  0
 25 31  1  0
 25 24  2  0
 26 25  1  0
 27 28  1  0
 27 26  1  6
 28 19  1  0
 29 27  1  0
 30 29  1  0
 31 32  2  0
 32 22  1  0
 33 29  2  0
M  END
$$$$
