KRY.pdb
     RDKit          3D

 33 33  0  0  1  0  0  0  0  0999 V2000
   23.6386  -20.7606  -20.0122 N   0  0  0  0  0  0  0  0  0  0  0  0
   24.3169  -20.0528  -18.9500 C   0  0  1  0  0  0  0  0  0  0  0  0
   23.4735  -19.0309  -18.2817 C   0  0  0  0  0  0  0  0  0  0  0  0
   22.9535  -17.9313  -19.1581 C   0  0  0  0  0  0  0  0  0  0  0  0
   22.0671  -16.9348  -18.4667 C   0  0  0  0  0  0  0  0  0  0  0  0
   21.6352  -15.8838  -19.5074 C   0  0  0  0  0  0  0  0  0  0  0  0
   22.7882  -15.0267  -19.7712 N   0  0  0  0  0  0  0  0  0  0  0  0
   24.9010  -21.0288  -17.9842 C   0  0  0  0  0  0  0  0  0  0  0  0
   24.3212  -22.0935  -17.6684 O   0  0  0  0  0  0  0  0  0  0  0  0
   31.1689  -24.6988  -15.0377 N   0  0  0  0  0  0  0  0  0  0  0  0
   31.5827  -24.5679  -16.3868 C   0  0  0  0  0  0  0  0  0  0  0  0
   32.2553  -25.4641  -17.0299 N   0  0  0  0  0  0  0  0  0  0  0  0
   31.2498  -23.3823  -17.1039 N   0  0  0  0  0  0  0  0  0  0  0  0
   30.3948  -22.3619  -16.6056 C   0  0  0  0  0  0  0  0  0  0  0  0
   28.9282  -22.7759  -16.5857 C   0  0  0  0  0  0  0  0  0  0  0  0
   28.1630  -21.5253  -16.3035 C   0  0  0  0  0  0  0  0  0  0  0  0
   26.6554  -21.6506  -16.3243 C   0  0  2  0  0  0  0  0  0  0  0  0
   26.1530  -20.7493  -17.4009 N   0  0  0  0  0  0  0  0  0  0  0  0
   26.1087  -21.1269  -15.0638 C   0  0  0  0  0  0  0  0  0  0  0  0
   26.1639  -19.8947  -14.8315 O   0  0  0  0  0  0  0  0  0  0  0  0
   32.4700  -25.2455  -18.0452 O   0  0  0  0  0  0  0  0  0  0  0  0
   20.5782  -19.6230   -8.4417 C   0  0  0  0  0  0  0  0  0  0  0  0
   21.2870  -20.0529   -9.5606 C   0  0  0  0  0  0  0  0  0  0  0  0
   21.5773  -21.3810   -9.7808 C   0  0  0  0  0  0  0  0  0  0  0  0
   22.2859  -21.8063  -10.9008 C   0  0  0  0  0  0  0  0  0  0  0  0
   22.7249  -20.8910  -11.8383 C   0  0  0  0  0  0  0  0  0  0  0  0
   23.4706  -21.3793  -12.9958 C   0  0  1  0  0  0  0  0  0  0  0  0
   24.9769  -21.3281  -12.8468 N   0  0  0  0  0  0  0  0  0  0  0  0
   25.5020  -21.9327  -14.0661 C   0  0  0  0  0  0  0  0  0  0  0  0
   25.3744  -22.1257  -11.6667 O   0  0  0  0  0  0  0  0  0  0  0  0
   25.5342  -21.5715  -10.4161 C   0  0  0  0  0  0  0  0  0  0  0  0
   22.4378  -19.5536  -11.6257 C   0  0  0  0  0  0  0  0  0  0  0  0
   21.7314  -19.1470  -10.5054 O   0  0  0  0  0  0  0  0  0  0  0  0
  2  3  1  0
  2  1  1  6
  4  3  1  0
  5  4  1  0
  6  5  1  0
  7  6  1  0
  8  2  1  0
  8  9  2  0
 10 11  1  0
 11 12  2  0
 13 11  1  0
 13 14  1  0
 14 15  1  0
 15 16  1  0
 17 16  1  1
 17 18  1  0
 18  8  1  0
 19 17  1  0
 20 19  2  0
 22 21  1  0
 23 22  2  0
 24 23  1  0
 25 31  1  0
 25 24  2  0
 26 25  1  0
 27 28  1  0
 27 26  1  6
 28 19  1  0
 29 27  1  0
 30 29  1  0
 31 32  2  0
 32 22  1  0
 33 29  2  0
M  END
$$$$
