KRY.pdb
     RDKit          3D

 33 33  0  0  1  0  0  0  0  0999 V2000
   22.2111  -20.8070  -20.9901 N   0  0  0  0  0  0  0  0  0  0  0  0
   22.8151  -20.1552  -19.8499 C   0  0  1  0  0  0  0  0  0  0  0  0
   21.8293  -19.6299  -18.8729 C   0  0  0  0  0  0  0  0  0  0  0  0
   20.9266  -18.5409  -19.3697 C   0  0  0  0  0  0  0  0  0  0  0  0
   21.4019  -17.1444  -19.0860 C   0  0  0  0  0  0  0  0  0  0  0  0
   20.3870  -16.1642  -19.7051 C   0  0  0  0  0  0  0  0  0  0  0  0
   20.8968  -14.8118  -19.4940 N   0  0  0  0  0  0  0  0  0  0  0  0
   23.8138  -21.0656  -19.2173 C   0  0  0  0  0  0  0  0  0  0  0  0
   23.5975  -22.2875  -19.0449 O   0  0  0  0  0  0  0  0  0  0  0  0
   29.8128  -23.4206  -15.7817 N   0  0  0  0  0  0  0  0  0  0  0  0
   29.3666  -24.2522  -16.8390 C   0  0  0  0  0  0  0  0  0  0  0  0
   29.1187  -25.5140  -16.7148 N   0  0  0  0  0  0  0  0  0  0  0  0
   29.1708  -23.6870  -18.1324 N   0  0  0  0  0  0  0  0  0  0  0  0
   29.1693  -22.2913  -18.4014 C   0  0  0  0  0  0  0  0  0  0  0  0
   28.4328  -21.4844  -17.3387 C   0  0  0  0  0  0  0  0  0  0  0  0
   27.3442  -20.7656  -18.0649 C   0  0  0  0  0  0  0  0  0  0  0  0
   25.9814  -21.4222  -18.0366 C   0  0  2  0  0  0  0  0  0  0  0  0
   25.0504  -20.5381  -18.7951 N   0  0  0  0  0  0  0  0  0  0  0  0
   25.4851  -21.4480  -16.6528 C   0  0  0  0  0  0  0  0  0  0  0  0
   24.9381  -20.4250  -16.1738 O   0  0  0  0  0  0  0  0  0  0  0  0
   28.7699  -26.0079  -17.5860 O   0  0  0  0  0  0  0  0  0  0  0  0
   24.1864  -20.5142   -8.3716 C   0  0  0  0  0  0  0  0  0  0  0  0
   24.5368  -20.7108   -9.7050 C   0  0  0  0  0  0  0  0  0  0  0  0
   25.6897  -21.3684  -10.0723 C   0  0  0  0  0  0  0  0  0  0  0  0
   26.0359  -21.5629  -11.4063 C   0  0  0  0  0  0  0  0  0  0  0  0
   25.2176  -21.0931  -12.4157 C   0  0  0  0  0  0  0  0  0  0  0  0
   25.6216  -21.3131  -13.8023 C   0  0  2  0  0  0  0  0  0  0  0  0
   25.0071  -22.5338  -14.4552 N   0  0  0  0  0  0  0  0  0  0  0  0
   25.5766  -22.5762  -15.7976 C   0  0  0  0  0  0  0  0  0  0  0  0
   23.5404  -22.3588  -14.5258 O   0  0  0  0  0  0  0  0  0  0  0  0
   22.9247  -21.6578  -15.5389 C   0  0  0  0  0  0  0  0  0  0  0  0
   24.0564  -20.4308  -12.0563 C   0  0  0  0  0  0  0  0  0  0  0  0
   23.7265  -20.2455  -10.7236 O   0  0  0  0  0  0  0  0  0  0  0  0
  2  3  1  0
  2  1  1  6
  4  3  1  0
  5  4  1  0
  6  5  1  0
  7  6  1  0
  8  2  1  0
  8  9  2  0
 10 11  1  0
 11 12  2  0
 13 11  1  0
 13 14  1  0
 14 15  1  0
 15 16  1  0
 17 16  1  1
 17 18  1  0
 18  8  1  0
 19 17  1  0
 20 19  2  0
 22 21  1  0
 23 22  2  0
 24 23  1  0
 25 31  1  0
 25 24  2  0
 26 25  1  0
 27 28  1  0
 27 26  1  1
 28 19  1  0
 29 27  1  0
 30 29  1  0
 31 32  2  0
 32 22  1  0
 33 29  2  0
M  END
$$$$
