KRY.pdb
     RDKit          3D

 33 33  0  0  1  0  0  0  0  0999 V2000
   22.8593  -30.8865  -16.8531 N   0  0  0  0  0  0  0  0  0  0  0  0
   21.9169  -30.7363  -15.7674 C   0  0  1  0  0  0  0  0  0  0  0  0
   22.1013  -31.7264  -14.6774 C   0  0  0  0  0  0  0  0  0  0  0  0
   22.0063  -33.1686  -15.0754 C   0  0  0  0  0  0  0  0  0  0  0  0
   22.0021  -34.1431  -13.9320 C   0  0  0  0  0  0  0  0  0  0  0  0
   21.9108  -35.5637  -14.5215 C   0  0  0  0  0  0  0  0  0  0  0  0
   21.9405  -36.5055  -13.4054 N   0  0  0  0  0  0  0  0  0  0  0  0
   21.9394  -29.3301  -15.2689 C   0  0  0  0  0  0  0  0  0  0  0  0
   22.7365  -28.4709  -15.7116 O   0  0  0  0  0  0  0  0  0  0  0  0
   20.7570  -22.0251  -15.8933 N   0  0  0  0  0  0  0  0  0  0  0  0
   21.3435  -22.9014  -16.8400 C   0  0  0  0  0  0  0  0  0  0  0  0
   22.3511  -22.5932  -17.5875 N   0  0  0  0  0  0  0  0  0  0  0  0
   20.8075  -24.2122  -16.9989 N   0  0  0  0  0  0  0  0  0  0  0  0
   19.7568  -24.7464  -16.2045 C   0  0  0  0  0  0  0  0  0  0  0  0
   20.2421  -25.2781  -14.8611 C   0  0  0  0  0  0  0  0  0  0  0  0
   20.5072  -26.7313  -15.0779 C   0  0  0  0  0  0  0  0  0  0  0  0
   20.9713  -27.5094  -13.8662 C   0  0  2  0  0  0  0  0  0  0  0  0
   21.0319  -28.9460  -14.2616 N   0  0  0  0  0  0  0  0  0  0  0  0
   19.9505  -27.4178  -12.8119 C   0  0  0  0  0  0  0  0  0  0  0  0
   18.7483  -27.6407  -13.0954 O   0  0  0  0  0  0  0  0  0  0  0  0
   22.6391  -23.3203  -18.3039 O   0  0  0  0  0  0  0  0  0  0  0  0
   16.2611  -25.6312   -4.8768 C   0  0  0  0  0  0  0  0  0  0  0  0
   17.1314  -25.8318   -5.9453 C   0  0  0  0  0  0  0  0  0  0  0  0
   17.5549  -27.0868   -6.3222 C   0  0  0  0  0  0  0  0  0  0  0  0
   18.4246  -27.2828   -7.3910 C   0  0  0  0  0  0  0  0  0  0  0  0
   18.8948  -26.2041   -8.1154 C   0  0  0  0  0  0  0  0  0  0  0  0
   19.8110  -26.4537   -9.2256 C   0  0  1  0  0  0  0  0  0  0  0  0
   19.1500  -26.9585  -10.4914 N   0  0  0  0  0  0  0  0  0  0  0  0
   20.2324  -27.0925  -11.4601 C   0  0  0  0  0  0  0  0  0  0  0  0
   18.1664  -25.9572  -10.9568 O   0  0  0  0  0  0  0  0  0  0  0  0
   18.5076  -24.9111  -11.7850 C   0  0  0  0  0  0  0  0  0  0  0  0
   18.4746  -24.9385   -7.7441 C   0  0  0  0  0  0  0  0  0  0  0  0
   17.6085  -24.7609   -6.6775 O   0  0  0  0  0  0  0  0  0  0  0  0
  2  3  1  0
  2  1  1  6
  4  3  1  0
  5  4  1  0
  6  5  1  0
  7  6  1  0
  8  2  1  0
  8  9  2  0
 10 11  1  0
 11 12  2  0
 13 11  1  0
 13 14  1  0
 14 15  1  0
 15 16  1  0
 17 16  1  6
 17 18  1  0
 18  8  1  0
 19 17  1  0
 20 19  2  0
 22 21  1  0
 23 22  2  0
 24 23  1  0
 25 31  1  0
 25 24  2  0
 26 25  1  0
 27 28  1  0
 27 26  1  1
 28 19  1  0
 29 27  1  0
 30 29  1  0
 31 32  2  0
 32 22  1  0
 33 29  2  0
M  END
$$$$
