MSA.pdb
     RDKit          3D

 20 19  0  0  1  0  0  0  0  0999 V2000
   14.2489  -14.0531  -11.6088 C   0  0  0  0  0  0  0  0  0  0  0  0
   14.6776  -12.6869  -10.4830 S   0  0  0  0  0  0  0  0  0  0  0  0
   15.7458  -11.5280  -11.3568 C   0  0  0  0  0  0  0  0  0  0  0  0
   16.1571  -10.3924  -10.4312 C   0  0  0  0  0  0  0  0  0  0  0  0
   17.0119   -9.3786  -11.1614 C   0  0  2  0  0  0  0  0  0  0  0  0
   18.3473   -9.8849  -11.3042 N   0  0  0  0  0  0  0  0  0  0  0  0
   16.9716   -8.1259  -10.3559 C   0  0  0  0  0  0  0  0  0  0  0  0
   17.7144   -8.0449   -9.3517 O   0  0  0  0  0  0  0  0  0  0  0  0
   15.2194   -4.8064  -11.7736 O   0  0  0  0  0  0  0  0  0  0  0  0
   16.0426   -4.5986  -10.6776 C   0  0  0  0  0  0  0  0  0  0  0  0
   16.0464   -5.8438   -9.8292 C   0  0  2  0  0  0  0  0  0  0  0  0
   16.1392   -7.0234  -10.6646 N   0  0  0  0  0  0  0  0  0  0  0  0
   14.8385   -5.8358   -8.9872 C   0  0  0  0  0  0  0  0  0  0  0  0
   13.8184   -6.4621   -9.3750 O   0  0  0  0  0  0  0  0  0  0  0  0
   13.6181   -4.3765   -5.6952 C   0  0  0  0  0  0  0  0  0  0  0  0
   13.4634   -5.1237   -7.0141 C   0  0  2  0  0  0  0  0  0  0  0  0
   14.7309   -5.1597   -7.7399 N   0  0  0  0  0  0  0  0  0  0  0  0
   12.4511   -4.4989   -7.8636 C   0  0  0  0  0  0  0  0  0  0  0  0
   12.7729   -3.6508   -8.7142 O   0  0  0  0  0  0  0  0  0  0  0  0
   11.1043   -4.8214   -7.7586 O   0  0  0  0  0  0  0  0  0  0  0  0
  2  1  1  0
  3  4  1  0
  3  2  1  0
  5  4  1  0
  5  7  1  0
  5  6  1  1
  7  8  2  0
  9 10  1  0
 11 10  1  6
 11 13  1  0
 12 11  1  0
 12  7  1  0
 13 17  1  0
 13 14  2  0
 16 15  1  1
 16 18  1  0
 17 16  1  0
 18 19  2  0
 18 20  1  0
M  END
$$$$
