MSA.pdb
     RDKit          3D

 20 19  0  0  1  0  0  0  0  0999 V2000
   26.8708  -15.0477  -15.3967 C   0  0  0  0  0  0  0  0  0  0  0  0
   25.9120  -13.7591  -16.2556 S   0  0  0  0  0  0  0  0  0  0  0  0
   25.3521  -12.5477  -15.0444 C   0  0  0  0  0  0  0  0  0  0  0  0
   24.7293  -11.3508  -15.7479 C   0  0  0  0  0  0  0  0  0  0  0  0
   23.2692  -11.6021  -16.0583 C   0  0  2  0  0  0  0  0  0  0  0  0
   23.1588  -12.5375  -17.1413 N   0  0  0  0  0  0  0  0  0  0  0  0
   22.6703  -10.2806  -16.3971 C   0  0  0  0  0  0  0  0  0  0  0  0
   22.8837   -9.8100  -17.5372 O   0  0  0  0  0  0  0  0  0  0  0  0
   19.6636   -8.8861  -14.2010 O   0  0  0  0  0  0  0  0  0  0  0  0
   19.7608   -8.3364  -15.4699 C   0  0  0  0  0  0  0  0  0  0  0  0
   21.2123   -8.2957  -15.8723 C   0  0  2  0  0  0  0  0  0  0  0  0
   21.8740   -9.5291  -15.5000 N   0  0  0  0  0  0  0  0  0  0  0  0
   21.8314   -7.1093  -15.2581 C   0  0  0  0  0  0  0  0  0  0  0  0
   22.2890   -7.1942  -14.0891 O   0  0  0  0  0  0  0  0  0  0  0  0
   22.7151   -3.5224  -16.1531 C   0  0  0  0  0  0  0  0  0  0  0  0
   22.6186   -4.7280  -15.2264 C   0  0  2  0  0  0  0  0  0  0  0  0
   21.9561   -5.8442  -15.8972 N   0  0  0  0  0  0  0  0  0  0  0  0
   21.8791   -4.4042  -14.0078 C   0  0  0  0  0  0  0  0  0  0  0  0
   20.6688   -4.6726  -13.9105 O   0  0  0  0  0  0  0  0  0  0  0  0
   22.4883   -3.7908  -12.9208 O   0  0  0  0  0  0  0  0  0  0  0  0
  2  1  1  0
  3  4  1  0
  3  2  1  0
  5  4  1  0
  5  7  1  0
  5  6  1  6
  7  8  2  0
  9 10  1  0
 11 10  1  1
 11 13  1  0
 12 11  1  0
 12  7  1  0
 13 17  1  0
 13 14  2  0
 16 15  1  6
 16 18  1  0
 17 16  1  0
 18 19  2  0
 18 20  1  0
M  END
$$$$
