MSA.pdb
     RDKit          3D

 20 19  0  0  1  0  0  0  0  0999 V2000
   22.0648   -9.5914  -12.2384 C   0  0  0  0  0  0  0  0  0  0  0  0
   22.4698  -10.8432  -13.4980 S   0  0  0  0  0  0  0  0  0  0  0  0
   23.9680  -10.3346  -14.3612 C   0  0  0  0  0  0  0  0  0  0  0  0
   23.6622   -9.1868  -15.3122 C   0  0  0  0  0  0  0  0  0  0  0  0
   22.6001   -9.5810  -16.3161 C   0  0  2  0  0  0  0  0  0  0  0  0
   23.1838  -10.3963  -17.3431 N   0  0  0  0  0  0  0  0  0  0  0  0
   22.0351   -8.3146  -16.8607 C   0  0  0  0  0  0  0  0  0  0  0  0
   22.8321   -7.4245  -17.2341 O   0  0  0  0  0  0  0  0  0  0  0  0
   18.2324   -8.2362  -18.0199 O   0  0  0  0  0  0  0  0  0  0  0  0
   19.0212   -7.2452  -18.5833 C   0  0  0  0  0  0  0  0  0  0  0  0
   20.1082   -6.8755  -17.6076 C   0  0  2  0  0  0  0  0  0  0  0  0
   20.6470   -8.0637  -16.9783 N   0  0  0  0  0  0  0  0  0  0  0  0
   19.5543   -5.9179  -16.6360 C   0  0  0  0  0  0  0  0  0  0  0  0
   19.1988   -6.3328  -15.5027 O   0  0  0  0  0  0  0  0  0  0  0  0
   18.8024   -2.2020  -16.3468 C   0  0  0  0  0  0  0  0  0  0  0  0
   18.8516   -3.6417  -15.8505 C   0  0  2  0  0  0  0  0  0  0  0  0
   19.3851   -4.5269  -16.8833 N   0  0  0  0  0  0  0  0  0  0  0  0
   17.5246   -4.1160  -15.4623 C   0  0  0  0  0  0  0  0  0  0  0  0
   16.8305   -4.7767  -16.2549 O   0  0  0  0  0  0  0  0  0  0  0  0
   16.9889   -3.8526  -14.2083 O   0  0  0  0  0  0  0  0  0  0  0  0
  2  1  1  0
  3  4  1  0
  3  2  1  0
  5  4  1  0
  5  7  1  0
  5  6  1  6
  7  8  2  0
  9 10  1  0
 11 10  1  6
 11 13  1  0
 12 11  1  0
 12  7  1  0
 13 17  1  0
 13 14  2  0
 16 15  1  6
 16 18  1  0
 17 16  1  0
 18 19  2  0
 18 20  1  0
M  END
$$$$
