MSA.pdb
     RDKit          3D

 20 19  0  0  1  0  0  0  0  0999 V2000
   10.9885  -11.1560  -16.1029 C   0  0  0  0  0  0  0  0  0  0  0  0
   10.8378  -12.7855  -15.3032 S   0  0  0  0  0  0  0  0  0  0  0  0
   12.4207  -13.6390  -15.4218 C   0  0  0  0  0  0  0  0  0  0  0  0
   13.5114  -12.8189  -14.7484 C   0  0  0  0  0  0  0  0  0  0  0  0
   14.8688  -13.4622  -14.9355 C   0  0  2  0  0  0  0  0  0  0  0  0
   14.9425  -14.6698  -14.1632 N   0  0  0  0  0  0  0  0  0  0  0  0
   15.8811  -12.4585  -14.5025 C   0  0  0  0  0  0  0  0  0  0  0  0
   16.0906  -12.3219  -13.2760 O   0  0  0  0  0  0  0  0  0  0  0  0
   19.8969  -10.1138  -15.1827 O   0  0  0  0  0  0  0  0  0  0  0  0
   18.9312  -10.9739  -15.6822 C   0  0  0  0  0  0  0  0  0  0  0  0
   17.6289  -10.7077  -14.9726 C   0  0  2  0  0  0  0  0  0  0  0  0
   16.6179  -11.6517  -15.4023 N   0  0  0  0  0  0  0  0  0  0  0  0
   17.2431   -9.3083  -15.2195 C   0  0  0  0  0  0  0  0  0  0  0  0
   16.7732   -8.9925  -16.3430 O   0  0  0  0  0  0  0  0  0  0  0  0
   16.5290   -6.1418  -13.3424 C   0  0  0  0  0  0  0  0  0  0  0  0
   16.9562   -6.8959  -14.5955 C   0  0  2  0  0  0  0  0  0  0  0  0
   17.3626   -8.2599  -14.2651 N   0  0  0  0  0  0  0  0  0  0  0  0
   18.0657   -6.2233  -15.2686 C   0  0  0  0  0  0  0  0  0  0  0  0
   19.2196   -6.6821  -15.2019 O   0  0  0  0  0  0  0  0  0  0  0  0
   17.8815   -5.0581  -16.0017 O   0  0  0  0  0  0  0  0  0  0  0  0
  2  1  1  0
  3  4  1  0
  3  2  1  0
  5  4  1  0
  5  7  1  0
  5  6  1  1
  7  8  2  0
  9 10  1  0
 11 10  1  6
 11 13  1  0
 12 11  1  0
 12  7  1  0
 13 17  1  0
 13 14  2  0
 16 15  1  1
 16 18  1  0
 17 16  1  0
 18 19  2  0
 18 20  1  0
M  END
$$$$
