MSA.pdb
     RDKit          3D

 20 19  0  0  1  0  0  0  0  0999 V2000
   30.8292  -27.5048  -23.2136 C   0  0  0  0  0  0  0  0  0  0  0  0
   32.5317  -28.0766  -22.9101 S   0  0  0  0  0  0  0  0  0  0  0  0
   33.1127  -27.3715  -21.3566 C   0  0  0  0  0  0  0  0  0  0  0  0
   32.2253  -27.8283  -20.2080 C   0  0  0  0  0  0  0  0  0  0  0  0
   32.2075  -26.8035  -19.0941 C   0  0  2  0  0  0  0  0  0  0  0  0
   33.5350  -26.6275  -18.5773 N   0  0  0  0  0  0  0  0  0  0  0  0
   31.2668  -27.3142  -18.0579 C   0  0  0  0  0  0  0  0  0  0  0  0
   31.7045  -28.1251  -17.2107 O   0  0  0  0  0  0  0  0  0  0  0  0
   27.5294  -25.9221  -18.0204 O   0  0  0  0  0  0  0  0  0  0  0  0
   27.8592  -26.4343  -16.7751 C   0  0  0  0  0  0  0  0  0  0  0  0
   29.0154  -27.3876  -16.9321 C   0  0  2  0  0  0  0  0  0  0  0  0
   29.9059  -26.9326  -17.9799 N   0  0  0  0  0  0  0  0  0  0  0  0
   28.4762  -28.7337  -17.1875 C   0  0  0  0  0  0  0  0  0  0  0  0
   28.2572  -29.0898  -18.3742 O   0  0  0  0  0  0  0  0  0  0  0  0
   27.7317  -31.9454  -15.3187 C   0  0  0  0  0  0  0  0  0  0  0  0
   27.6607  -31.0094  -16.5189 C   0  0  2  0  0  0  0  0  0  0  0  0
   28.1761  -29.6864  -16.1743 N   0  0  0  0  0  0  0  0  0  0  0  0
   26.2887  -30.8695  -17.0035 C   0  0  0  0  0  0  0  0  0  0  0  0
   25.6464  -29.8251  -16.7957 O   0  0  0  0  0  0  0  0  0  0  0  0
   25.6520  -31.8833  -17.7075 O   0  0  0  0  0  0  0  0  0  0  0  0
  2  1  1  0
  3  4  1  0
  3  2  1  0
  5  4  1  0
  5  7  1  0
  5  6  1  1
  7  8  2  0
  9 10  1  0
 11 10  1  6
 11 13  1  0
 12 11  1  0
 12  7  1  0
 13 17  1  0
 13 14  2  0
 16 15  1  1
 16 18  1  0
 17 16  1  0
 18 19  2  0
 18 20  1  0
M  END
$$$$
