MSA.pdb
     RDKit          3D

 20 19  0  0  1  0  0  0  0  0999 V2000
   33.2585   -9.6352  -23.1210 C   0  0  0  0  0  0  0  0  0  0  0  0
   33.2656   -8.4576  -21.7315 S   0  0  0  0  0  0  0  0  0  0  0  0
   32.4897   -9.2385  -20.3046 C   0  0  0  0  0  0  0  0  0  0  0  0
   32.5153   -8.2951  -19.1110 C   0  0  0  0  0  0  0  0  0  0  0  0
   32.0439   -8.9954  -17.8545 C   0  0  2  0  0  0  0  0  0  0  0  0
   30.6397   -9.2753  -17.9544 N   0  0  0  0  0  0  0  0  0  0  0  0
   32.3536   -8.0858  -16.7160 C   0  0  0  0  0  0  0  0  0  0  0  0
   31.4173   -7.4185  -16.2213 O   0  0  0  0  0  0  0  0  0  0  0  0
   35.1743   -8.5835  -13.7523 O   0  0  0  0  0  0  0  0  0  0  0  0
   35.2786   -7.3907  -14.4510 C   0  0  0  0  0  0  0  0  0  0  0  0
   33.9358   -7.0579  -15.0482 C   0  0  2  0  0  0  0  0  0  0  0  0
   33.6484   -7.9354  -16.1641 N   0  0  0  0  0  0  0  0  0  0  0  0
   33.9359   -5.6353  -15.4276 C   0  0  0  0  0  0  0  0  0  0  0  0
   34.5133   -5.2855  -16.4894 O   0  0  0  0  0  0  0  0  0  0  0  0
   32.3722   -2.3608  -14.3239 C   0  0  0  0  0  0  0  0  0  0  0  0
   33.3250   -3.2188  -15.1470 C   0  0  2  0  0  0  0  0  0  0  0  0
   33.3201   -4.6000  -14.6705 N   0  0  0  0  0  0  0  0  0  0  0  0
   34.6917   -2.7038  -15.0861 C   0  0  0  0  0  0  0  0  0  0  0  0
   35.0234   -1.7062  -15.7502 O   0  0  0  0  0  0  0  0  0  0  0  0
   35.6656   -3.2987  -14.2945 O   0  0  0  0  0  0  0  0  0  0  0  0
  2  1  1  0
  3  4  1  0
  3  2  1  0
  5  4  1  0
  5  7  1  0
  5  6  1  6
  7  8  2  0
  9 10  1  0
 11 10  1  6
 11 13  1  0
 12 11  1  0
 12  7  1  0
 13 17  1  0
 13 14  2  0
 16 15  1  1
 16 18  1  0
 17 16  1  0
 18 19  2  0
 18 20  1  0
M  END
$$$$
