MSA.pdb
     RDKit          3D

 20 19  0  0  1  0  0  0  0  0999 V2000
   10.8937   -9.2907   -9.0500 C   0  0  0  0  0  0  0  0  0  0  0  0
   11.7473  -10.8887   -9.2372 S   0  0  0  0  0  0  0  0  0  0  0  0
   13.1308  -10.6784  -10.3729 C   0  0  0  0  0  0  0  0  0  0  0  0
   14.2040   -9.8066   -9.7376 C   0  0  0  0  0  0  0  0  0  0  0  0
   15.3279   -9.5305  -10.7133 C   0  0  2  0  0  0  0  0  0  0  0  0
   16.2010  -10.6678  -10.7800 N   0  0  0  0  0  0  0  0  0  0  0  0
   16.0317   -8.3130  -10.2217 C   0  0  0  0  0  0  0  0  0  0  0  0
   16.8891   -8.4496   -9.3200 O   0  0  0  0  0  0  0  0  0  0  0  0
   16.7947   -5.4588  -12.5409 O   0  0  0  0  0  0  0  0  0  0  0  0
   17.4001   -5.2986  -11.3041 C   0  0  0  0  0  0  0  0  0  0  0  0
   16.4792   -5.8348  -10.2389 C   0  0  2  0  0  0  0  0  0  0  0  0
   15.7833   -7.0110  -10.7187 N   0  0  0  0  0  0  0  0  0  0  0  0
   15.5623   -4.7570   -9.8320 C   0  0  0  0  0  0  0  0  0  0  0  0
   14.5884   -4.4695  -10.5748 O   0  0  0  0  0  0  0  0  0  0  0  0
   14.9402   -2.4266   -6.9046 C   0  0  0  0  0  0  0  0  0  0  0  0
   14.7811   -2.8933   -8.3463 C   0  0  2  0  0  0  0  0  0  0  0  0
   15.6937   -3.9966   -8.6366 N   0  0  0  0  0  0  0  0  0  0  0  0
   15.0404   -1.8064   -9.2887 C   0  0  0  0  0  0  0  0  0  0  0  0
   16.1504   -1.6950   -9.8381 O   0  0  0  0  0  0  0  0  0  0  0  0
   14.0712   -0.8638   -9.6067 O   0  0  0  0  0  0  0  0  0  0  0  0
  2  1  1  0
  3  4  1  0
  3  2  1  0
  5  4  1  0
  5  7  1  0
  5  6  1  1
  7  8  2  0
  9 10  1  0
 11 10  1  6
 11 13  1  0
 12 11  1  0
 12  7  1  0
 13 17  1  0
 13 14  2  0
 16 15  1  1
 16 18  1  0
 17 16  1  0
 18 19  2  0
 18 20  1  0
M  END
$$$$
