MSA.pdb
     RDKit          3D

 20 19  0  0  1  0  0  0  0  0999 V2000
   26.2297  -32.7492  -20.1705 C   0  0  0  0  0  0  0  0  0  0  0  0
   27.7359  -32.2183  -19.2946 S   0  0  0  0  0  0  0  0  0  0  0  0
   27.4308  -32.2894  -17.5198 C   0  0  0  0  0  0  0  0  0  0  0  0
   27.7238  -30.9392  -16.8821 C   0  0  0  0  0  0  0  0  0  0  0  0
   29.2064  -30.7680  -16.6290 C   0  0  2  0  0  0  0  0  0  0  0  0
   29.5887  -31.5182  -15.4666 N   0  0  0  0  0  0  0  0  0  0  0  0
   29.4448  -29.3076  -16.4559 C   0  0  0  0  0  0  0  0  0  0  0  0
   28.9826  -28.7504  -15.4348 O   0  0  0  0  0  0  0  0  0  0  0  0
   32.7785  -26.9029  -17.3616 O   0  0  0  0  0  0  0  0  0  0  0  0
   31.5933  -26.6686  -18.0415 C   0  0  0  0  0  0  0  0  0  0  0  0
   30.4411  -27.1100  -17.1766 C   0  0  2  0  0  0  0  0  0  0  0  0
   30.1651  -28.5168  -17.3830 N   0  0  0  0  0  0  0  0  0  0  0  0
   29.2818  -26.2525  -17.4744 C   0  0  0  0  0  0  0  0  0  0  0  0
   28.5861  -26.4967  -18.4939 O   0  0  0  0  0  0  0  0  0  0  0  0
   27.1270  -23.6570  -15.8067 C   0  0  0  0  0  0  0  0  0  0  0  0
   27.6912  -24.3639  -17.0329 C   0  0  2  0  0  0  0  0  0  0  0  0
   28.8762  -25.1429  -16.6814 N   0  0  0  0  0  0  0  0  0  0  0  0
   28.0484  -23.4087  -18.0801 C   0  0  0  0  0  0  0  0  0  0  0  0
   29.2296  -23.0533  -18.2379 O   0  0  0  0  0  0  0  0  0  0  0  0
   27.0966  -22.8640  -18.9324 O   0  0  0  0  0  0  0  0  0  0  0  0
  2  1  1  0
  3  4  1  0
  3  2  1  0
  5  4  1  0
  5  7  1  0
  5  6  1  1
  7  8  2  0
  9 10  1  0
 11 10  1  6
 11 13  1  0
 12 11  1  0
 12  7  1  0
 13 17  1  0
 13 14  2  0
 16 15  1  1
 16 18  1  0
 17 16  1  0
 18 19  2  0
 18 20  1  0
M  END
$$$$
