MSA.pdb
     RDKit          3D

 20 19  0  0  1  0  0  0  0  0999 V2000
   19.9072   -9.7264  -21.9822 C   0  0  0  0  0  0  0  0  0  0  0  0
   18.8500  -11.1045  -21.4337 S   0  0  0  0  0  0  0  0  0  0  0  0
   19.6111  -11.8844  -19.9983 C   0  0  0  0  0  0  0  0  0  0  0  0
   19.3853  -11.0338  -18.7570 C   0  0  0  0  0  0  0  0  0  0  0  0
   20.1219  -11.6059  -17.5647 C   0  0  2  0  0  0  0  0  0  0  0  0
   19.5923  -12.9010  -17.2446 N   0  0  0  0  0  0  0  0  0  0  0  0
   19.9444  -10.6370  -16.4470 C   0  0  0  0  0  0  0  0  0  0  0  0
   18.8388  -10.6071  -15.8609 O   0  0  0  0  0  0  0  0  0  0  0  0
   22.9210   -9.4074  -14.2419 O   0  0  0  0  0  0  0  0  0  0  0  0
   21.6489   -9.1161  -13.7742 C   0  0  0  0  0  0  0  0  0  0  0  0
   20.7629   -8.7867  -14.9477 C   0  0  2  0  0  0  0  0  0  0  0  0
   20.9575   -9.7490  -16.0126 N   0  0  0  0  0  0  0  0  0  0  0  0
   21.0460   -7.4049  -15.3700 C   0  0  0  0  0  0  0  0  0  0  0  0
   21.9665   -7.1959  -16.2019 O   0  0  0  0  0  0  0  0  0  0  0  0
   19.6294   -3.9127  -15.0152 C   0  0  0  0  0  0  0  0  0  0  0  0
   20.7331   -4.9166  -15.3241 C   0  0  2  0  0  0  0  0  0  0  0  0
   20.3442   -6.2597  -14.9004 N   0  0  0  0  0  0  0  0  0  0  0  0
   21.9826   -4.5551  -14.6573 C   0  0  0  0  0  0  0  0  0  0  0  0
   22.3076   -5.0936  -13.5846 O   0  0  0  0  0  0  0  0  0  0  0  0
   22.8491   -3.6072  -15.1861 O   0  0  0  0  0  0  0  0  0  0  0  0
  2  1  1  0
  3  4  1  0
  3  2  1  0
  5  4  1  0
  5  7  1  0
  5  6  1  1
  7  8  2  0
  9 10  1  0
 11 10  1  1
 11 13  1  0
 12 11  1  0
 12  7  1  0
 13 17  1  0
 13 14  2  0
 16 15  1  1
 16 18  1  0
 17 16  1  0
 18 19  2  0
 18 20  1  0
M  END
$$$$
