MSA.pdb
     RDKit          3D

 20 19  0  0  1  0  0  0  0  0999 V2000
   29.2884  -19.9820   -8.5192 C   0  0  0  0  0  0  0  0  0  0  0  0
   28.4140  -19.4468   -7.0137 S   0  0  0  0  0  0  0  0  0  0  0  0
   26.6387  -19.5289   -7.3132 C   0  0  0  0  0  0  0  0  0  0  0  0
   26.3562  -20.3191   -8.5825 C   0  0  0  0  0  0  0  0  0  0  0  0
   24.8781  -20.3123   -8.9092 C   0  0  2  0  0  0  0  0  0  0  0  0
   24.1679  -21.1151   -7.9546 N   0  0  0  0  0  0  0  0  0  0  0  0
   24.7440  -20.8417  -10.2954 C   0  0  0  0  0  0  0  0  0  0  0  0
   25.1969  -21.9830  -10.5385 O   0  0  0  0  0  0  0  0  0  0  0  0
   21.5277  -20.3844  -12.4518 O   0  0  0  0  0  0  0  0  0  0  0  0
   22.6207  -20.0818  -13.2490 C   0  0  0  0  0  0  0  0  0  0  0  0
   23.8509  -20.7091  -12.6462 C   0  0  2  0  0  0  0  0  0  0  0  0
   24.1328  -20.1241  -11.3515 N   0  0  0  0  0  0  0  0  0  0  0  0
   24.9649  -20.5533  -13.5963 C   0  0  0  0  0  0  0  0  0  0  0  0
   25.5684  -19.4509  -13.6558 O   0  0  0  0  0  0  0  0  0  0  0  0
   27.4263  -22.6318  -15.4254 C   0  0  0  0  0  0  0  0  0  0  0  0
   26.5903  -21.3618  -15.3271 C   0  0  2  0  0  0  0  0  0  0  0  0
   25.4238  -21.5751  -14.4736 N   0  0  0  0  0  0  0  0  0  0  0  0
   26.1362  -20.9209  -16.6447 C   0  0  0  0  0  0  0  0  0  0  0  0
   24.9372  -21.0064  -16.9635 O   0  0  0  0  0  0  0  0  0  0  0  0
   27.0126  -20.3945  -17.5848 O   0  0  0  0  0  0  0  0  0  0  0  0
  2  1  1  0
  3  4  1  0
  3  2  1  0
  5  4  1  0
  5  7  1  0
  5  6  1  1
  7  8  2  0
  9 10  1  0
 11 10  1  6
 11 13  1  0
 12 11  1  0
 12  7  1  0
 13 17  1  0
 13 14  2  0
 16 15  1  6
 16 18  1  0
 17 16  1  0
 18 19  2  0
 18 20  1  0
M  END
$$$$
