MSA.pdb
     RDKit          3D

 20 19  0  0  1  0  0  0  0  0999 V2000
   21.1797  -13.9380  -14.4292 C   0  0  0  0  0  0  0  0  0  0  0  0
   22.2580  -13.3742  -15.7844 S   0  0  0  0  0  0  0  0  0  0  0  0
   21.2301  -12.6985  -17.1015 C   0  0  0  0  0  0  0  0  0  0  0  0
   20.8197  -11.2717  -16.7679 C   0  0  0  0  0  0  0  0  0  0  0  0
   19.3828  -11.2160  -16.2949 C   0  0  2  0  0  0  0  0  0  0  0  0
   18.4996  -11.4490  -17.4020 N   0  0  0  0  0  0  0  0  0  0  0  0
   19.1825   -9.8678  -15.6934 C   0  0  0  0  0  0  0  0  0  0  0  0
   19.0520   -8.8903  -16.4643 O   0  0  0  0  0  0  0  0  0  0  0  0
   17.4712   -9.3224  -12.0887 O   0  0  0  0  0  0  0  0  0  0  0  0
   18.5475   -8.4643  -12.2534 C   0  0  0  0  0  0  0  0  0  0  0  0
   18.8449   -8.3341  -13.7248 C   0  0  2  0  0  0  0  0  0  0  0  0
   19.1321   -9.6327  -14.2984 N   0  0  0  0  0  0  0  0  0  0  0  0
   19.9537   -7.3799  -13.8919 C   0  0  0  0  0  0  0  0  0  0  0  0
   21.1368   -7.7885  -13.7640 O   0  0  0  0  0  0  0  0  0  0  0  0
   20.5180   -3.8172  -15.0540 C   0  0  0  0  0  0  0  0  0  0  0  0
   20.9473   -5.1420  -14.4359 C   0  0  2  0  0  0  0  0  0  0  0  0
   19.7892   -5.9992  -14.1937 N   0  0  0  0  0  0  0  0  0  0  0  0
   21.6536   -4.9355  -13.1729 C   0  0  0  0  0  0  0  0  0  0  0  0
   22.7353   -4.3227  -13.1443 O   0  0  0  0  0  0  0  0  0  0  0  0
   21.1535   -5.4084  -11.9666 O   0  0  0  0  0  0  0  0  0  0  0  0
  2  1  1  0
  3  4  1  0
  3  2  1  0
  5  4  1  0
  5  7  1  0
  5  6  1  6
  7  8  2  0
  9 10  1  0
 11 10  1  1
 11 13  1  0
 12 11  1  0
 12  7  1  0
 13 17  1  0
 13 14  2  0
 16 15  1  1
 16 18  1  0
 17 16  1  0
 18 19  2  0
 18 20  1  0
M  END
$$$$
