MSA.pdb
     RDKit          3D

 20 19  0  0  1  0  0  0  0  0999 V2000
   23.7852  -16.5566  -14.8045 C   0  0  0  0  0  0  0  0  0  0  0  0
   23.3791  -14.8603  -15.3291 S   0  0  0  0  0  0  0  0  0  0  0  0
   24.8577  -13.8395  -15.1888 C   0  0  0  0  0  0  0  0  0  0  0  0
   24.5386  -12.3988  -15.5604 C   0  0  0  0  0  0  0  0  0  0  0  0
   23.8029  -12.3285  -16.8815 C   0  0  2  0  0  0  0  0  0  0  0  0
   24.6703  -12.7569  -17.9418 N   0  0  0  0  0  0  0  0  0  0  0  0
   23.3658  -10.9147  -17.0529 C   0  0  0  0  0  0  0  0  0  0  0  0
   24.1790  -10.1003  -17.5451 O   0  0  0  0  0  0  0  0  0  0  0  0
   19.6630   -9.6653  -15.7904 O   0  0  0  0  0  0  0  0  0  0  0  0
   20.1423   -9.0007  -16.9086 C   0  0  0  0  0  0  0  0  0  0  0  0
   21.6470   -9.0795  -16.9134 C   0  0  2  0  0  0  0  0  0  0  0  0
   22.0816  -10.4428  -16.6894 N   0  0  0  0  0  0  0  0  0  0  0  0
   22.1644   -8.1433  -15.9015 C   0  0  0  0  0  0  0  0  0  0  0  0
   22.3559   -8.5552  -14.7282 O   0  0  0  0  0  0  0  0  0  0  0  0
   23.4643   -4.5854  -15.6558 C   0  0  0  0  0  0  0  0  0  0  0  0
   22.9957   -5.9203  -15.0900 C   0  0  2  0  0  0  0  0  0  0  0  0
   22.4721   -6.7768  -16.1516 N   0  0  0  0  0  0  0  0  0  0  0  0
   21.9567   -5.7339  -14.0789 C   0  0  0  0  0  0  0  0  0  0  0  0
   20.7574   -5.8954  -14.3651 O   0  0  0  0  0  0  0  0  0  0  0  0
   22.2602   -5.3732  -12.7725 O   0  0  0  0  0  0  0  0  0  0  0  0
  2  1  1  0
  3  4  1  0
  3  2  1  0
  5  4  1  0
  5  7  1  0
  5  6  1  6
  7  8  2  0
  9 10  1  0
 11 10  1  1
 11 13  1  0
 12 11  1  0
 12  7  1  0
 13 17  1  0
 13 14  2  0
 16 15  1  6
 16 18  1  0
 17 16  1  0
 18 19  2  0
 18 20  1  0
M  END
$$$$
