MSA.pdb
     RDKit          3D

 20 19  0  0  1  0  0  0  0  0999 V2000
   16.1272  -12.5902  -21.2111 C   0  0  0  0  0  0  0  0  0  0  0  0
   16.2479  -11.0918  -20.1826 S   0  0  0  0  0  0  0  0  0  0  0  0
   17.2054  -11.4773  -18.7052 C   0  0  0  0  0  0  0  0  0  0  0  0
   17.3601  -10.2348  -17.8406 C   0  0  0  0  0  0  0  0  0  0  0  0
   18.8157   -9.9777  -17.5142 C   0  0  2  0  0  0  0  0  0  0  0  0
   19.4025  -11.1618  -16.9541 N   0  0  0  0  0  0  0  0  0  0  0  0
   18.8445   -8.8339  -16.5600 C   0  0  0  0  0  0  0  0  0  0  0  0
   18.3434   -7.7467  -16.9256 O   0  0  0  0  0  0  0  0  0  0  0  0
   18.7519   -8.7801  -12.3591 O   0  0  0  0  0  0  0  0  0  0  0  0
   19.8637   -8.2310  -12.9789 C   0  0  0  0  0  0  0  0  0  0  0  0
   19.4751   -7.7782  -14.3624 C   0  0  2  0  0  0  0  0  0  0  0  0
   19.4077   -8.9101  -15.2635 N   0  0  0  0  0  0  0  0  0  0  0  0
   20.4379   -6.7553  -14.8039 C   0  0  0  0  0  0  0  0  0  0  0  0
   21.5030   -7.1198  -15.3657 O   0  0  0  0  0  0  0  0  0  0  0  0
   20.6926   -2.9941  -15.1640 C   0  0  0  0  0  0  0  0  0  0  0  0
   21.2616   -4.4066  -15.1145 C   0  0  2  0  0  0  0  0  0  0  0  0
   20.2546   -5.3537  -14.6415 N   0  0  0  0  0  0  0  0  0  0  0  0
   22.4274   -4.4798  -14.2356 C   0  0  0  0  0  0  0  0  0  0  0  0
   22.2962   -4.7560  -13.0302 O   0  0  0  0  0  0  0  0  0  0  0  0
   23.7144   -4.2469  -14.7027 O   0  0  0  0  0  0  0  0  0  0  0  0
  2  1  1  0
  3  4  1  0
  3  2  1  0
  5  4  1  0
  5  7  1  0
  5  6  1  1
  7  8  2  0
  9 10  1  0
 11 10  1  1
 11 13  1  0
 12 11  1  0
 12  7  1  0
 13 17  1  0
 13 14  2  0
 16 15  1  1
 16 18  1  0
 17 16  1  0
 18 19  2  0
 18 20  1  0
M  END
$$$$
