CSK.pdb
     RDKit          3D

 22 21  0  0  1  0  0  0  0  0999 V2000
    8.6363  -17.4467   16.4773 N   0  0  0  0  0  0  0  0  0  0  0  0
    7.8858  -17.4599   17.7137 C   0  0  1  0  0  0  0  0  0  0  0  0
    7.7673  -18.8766   18.1823 C   0  0  0  0  0  0  0  0  0  0  0  0
    9.3934  -19.5515   18.6161 S   0  0  0  0  0  0  0  0  0  0  0  0
    8.5686  -16.5811   18.6881 C   0  0  0  0  0  0  0  0  0  0  0  0
    9.7379  -16.1650   18.4837 O   0  0  0  0  0  0  0  0  0  0  0  0
    6.8964  -15.6791   22.4119 O   0  0  0  0  0  0  0  0  0  0  0  0
    7.5860  -14.6678   21.7412 C   0  0  0  0  0  0  0  0  0  0  0  0
    8.6189  -15.3139   20.8848 C   0  0  2  0  0  0  0  0  0  0  0  0
    7.9565  -16.1537   19.9058 N   0  0  0  0  0  0  0  0  0  0  0  0
    9.6599  -16.0539   21.6359 C   0  0  0  0  0  0  0  0  0  0  0  0
    9.5008  -17.2964   21.7642 O   0  0  0  0  0  0  0  0  0  0  0  0
   10.7980  -15.4700   22.2070 N   0  0  0  0  0  0  0  0  0  0  0  0
   11.8101  -16.1983   22.9893 C   0  0  1  0  0  0  0  0  0  0  0  0
   13.1252  -15.5150   22.9531 C   0  0  0  0  0  0  0  0  0  0  0  0
   14.3406  -16.3503   22.8961 C   0  0  0  0  0  0  0  0  0  0  0  0
   15.6607  -15.6820   22.9092 C   0  0  0  0  0  0  0  0  0  0  0  0
   16.8455  -16.6075   22.9454 C   0  0  0  0  0  0  0  0  0  0  0  0
   18.1015  -15.8711   22.9834 N   0  0  0  0  0  0  0  0  0  0  0  0
   11.2956  -16.6513   24.2706 C   0  0  0  0  0  0  0  0  0  0  0  0
   10.3068  -16.0917   24.8596 O   0  0  0  0  0  0  0  0  0  0  0  0
   11.8278  -17.7289   24.9621 O   0  0  0  0  0  0  0  0  0  0  0  0
  2  1  1  6
  2  5  1  0
  2  3  1  0
  3  4  1  0
  5 10  1  0
  6  5  2  0
  9  8  1  1
  8  7  1  0
  9 11  1  0
 10  9  1  0
 11 12  2  0
 11 13  1  0
 13 14  1  0
 14 20  1  0
 14 15  1  1
 15 16  1  0
 16 17  1  0
 18 19  1  0
 18 17  1  0
 20 22  1  0
 21 20  2  0
M  END
$$$$
