CSK.pdb
     RDKit          3D

 22 21  0  0  1  0  0  0  0  0999 V2000
   11.9382  -17.2119   18.1871 N   0  0  0  0  0  0  0  0  0  0  0  0
   10.8132  -17.3771   19.0810 C   0  0  1  0  0  0  0  0  0  0  0  0
   10.2654  -18.7591   18.9049 C   0  0  0  0  0  0  0  0  0  0  0  0
   11.4100  -19.9971   19.5721 S   0  0  0  0  0  0  0  0  0  0  0  0
   11.2655  -17.1034   20.4624 C   0  0  0  0  0  0  0  0  0  0  0  0
   12.4877  -17.0984   20.7597 O   0  0  0  0  0  0  0  0  0  0  0  0
    8.6140  -16.7447   23.7564 O   0  0  0  0  0  0  0  0  0  0  0  0
    9.7075  -15.8865   23.6296 C   0  0  0  0  0  0  0  0  0  0  0  0
   10.7803  -16.6226   22.9052 C   0  0  2  0  0  0  0  0  0  0  0  0
   10.3603  -16.8313   21.5332 N   0  0  0  0  0  0  0  0  0  0  0  0
   11.1999  -17.8867   23.5546 C   0  0  0  0  0  0  0  0  0  0  0  0
   11.1745  -18.9298   22.8498 O   0  0  0  0  0  0  0  0  0  0  0  0
   11.6191  -17.9980   24.8866 N   0  0  0  0  0  0  0  0  0  0  0  0
   12.6438  -18.9395   25.3663 C   0  0  1  0  0  0  0  0  0  0  0  0
   13.8062  -18.9976   24.4481 C   0  0  0  0  0  0  0  0  0  0  0  0
   14.1937  -20.3121   23.9004 C   0  0  0  0  0  0  0  0  0  0  0  0
   15.6223  -20.5650   23.6092 C   0  0  0  0  0  0  0  0  0  0  0  0
   15.9447  -21.9620   23.1553 C   0  0  0  0  0  0  0  0  0  0  0  0
   17.3202  -22.0715   22.6894 N   0  0  0  0  0  0  0  0  0  0  0  0
   12.8889  -18.8079   26.7926 C   0  0  0  0  0  0  0  0  0  0  0  0
   13.0687  -19.8141   27.5627 O   0  0  0  0  0  0  0  0  0  0  0  0
   12.9528  -17.5835   27.4402 O   0  0  0  0  0  0  0  0  0  0  0  0
  2  1  1  6
  2  5  1  0
  2  3  1  0
  3  4  1  0
  5 10  1  0
  6  5  2  0
  9  8  1  1
  8  7  1  0
  9 11  1  0
 10  9  1  0
 11 12  2  0
 11 13  1  0
 13 14  1  0
 14 20  1  0
 14 15  1  6
 15 16  1  0
 16 17  1  0
 18 19  1  0
 18 17  1  0
 20 22  1  0
 21 20  2  0
M  END
$$$$
