CSK.pdb
     RDKit          3D

 22 21  0  0  1  0  0  0  0  0999 V2000
    8.7119  -17.7246   17.2016 N   0  0  0  0  0  0  0  0  0  0  0  0
    8.6970  -17.1153   18.5133 C   0  0  1  0  0  0  0  0  0  0  0  0
    7.9138  -17.9952   19.4369 C   0  0  0  0  0  0  0  0  0  0  0  0
    6.6769  -18.9540   18.5211 S   0  0  0  0  0  0  0  0  0  0  0  0
   10.0944  -16.9098   18.9527 C   0  0  0  0  0  0  0  0  0  0  0  0
   10.8165  -17.8778   19.3046 O   0  0  0  0  0  0  0  0  0  0  0  0
   13.8850  -13.9579   19.2945 O   0  0  0  0  0  0  0  0  0  0  0  0
   12.5353  -14.0818   18.9611 C   0  0  0  0  0  0  0  0  0  0  0  0
   12.0585  -15.3938   19.4796 C   0  0  2  0  0  0  0  0  0  0  0  0
   10.7068  -15.6206   19.0064 N   0  0  0  0  0  0  0  0  0  0  0  0
   12.1634  -15.5446   20.9499 C   0  0  0  0  0  0  0  0  0  0  0  0
   11.3109  -14.9389   21.6512 O   0  0  0  0  0  0  0  0  0  0  0  0
   13.1375  -16.3085   21.6057 N   0  0  0  0  0  0  0  0  0  0  0  0
   13.3292  -16.3477   23.0645 C   0  0  1  0  0  0  0  0  0  0  0  0
   12.6857  -17.5386   23.6690 C   0  0  0  0  0  0  0  0  0  0  0  0
   12.8317  -17.7441   25.1232 C   0  0  0  0  0  0  0  0  0  0  0  0
   12.1460  -18.8969   25.7481 C   0  0  0  0  0  0  0  0  0  0  0  0
   12.1695  -18.9164   27.2516 C   0  0  0  0  0  0  0  0  0  0  0  0
   11.4579  -20.0697   27.7850 N   0  0  0  0  0  0  0  0  0  0  0  0
   14.6915  -16.0210   23.4506 C   0  0  0  0  0  0  0  0  0  0  0  0
   15.0588  -15.9032   24.6709 O   0  0  0  0  0  0  0  0  0  0  0  0
   15.7096  -15.8129   22.5325 O   0  0  0  0  0  0  0  0  0  0  0  0
  2  1  1  6
  2  5  1  0
  2  3  1  0
  3  4  1  0
  5 10  1  0
  6  5  2  0
  9  8  1  1
  8  7  1  0
  9 11  1  0
 10  9  1  0
 11 12  2  0
 11 13  1  0
 13 14  1  0
 14 20  1  0
 14 15  1  6
 15 16  1  0
 16 17  1  0
 18 19  1  0
 18 17  1  0
 20 22  1  0
 21 20  2  0
M  END
$$$$
