CSK.pdb
     RDKit          3D

 22 21  0  0  1  0  0  0  0  0999 V2000
    1.4767  -20.7593   20.4871 N   0  0  0  0  0  0  0  0  0  0  0  0
    1.7759  -19.7250   21.4528 C   0  0  1  0  0  0  0  0  0  0  0  0
    1.1693  -20.1111   22.7657 C   0  0  0  0  0  0  0  0  0  0  0  0
    0.2449  -18.7255   23.4823 S   0  0  0  0  0  0  0  0  0  0  0  0
    3.2436  -19.5534   21.5192 C   0  0  0  0  0  0  0  0  0  0  0  0
    4.0184  -20.5437   21.4840 O   0  0  0  0  0  0  0  0  0  0  0  0
    7.0375  -16.5735   21.4410 O   0  0  0  0  0  0  0  0  0  0  0  0
    5.6485  -16.6971   21.3802 C   0  0  0  0  0  0  0  0  0  0  0  0
    5.2992  -18.0898   21.7755 C   0  0  2  0  0  0  0  0  0  0  0  0
    3.8688  -18.2737   21.6264 N   0  0  0  0  0  0  0  0  0  0  0  0
    5.7701  -18.4781   23.1257 C   0  0  0  0  0  0  0  0  0  0  0  0
    5.0840  -18.0882   24.1069 O   0  0  0  0  0  0  0  0  0  0  0  0
    6.9157  -19.2426   23.3815 N   0  0  0  0  0  0  0  0  0  0  0  0
    7.4831  -19.4799   24.7188 C   0  0  1  0  0  0  0  0  0  0  0  0
    7.4151  -20.9120   25.0957 C   0  0  0  0  0  0  0  0  0  0  0  0
    7.8775  -21.2985   26.4429 C   0  0  0  0  0  0  0  0  0  0  0  0
    7.8852  -22.7333   26.8047 C   0  0  0  0  0  0  0  0  0  0  0  0
    8.2699  -23.0317   28.2276 C   0  0  0  0  0  0  0  0  0  0  0  0
    8.2471  -24.4619   28.5015 N   0  0  0  0  0  0  0  0  0  0  0  0
    8.7314  -18.7646   24.9229 C   0  0  0  0  0  0  0  0  0  0  0  0
    9.3382  -18.1433   23.9828 O   0  0  0  0  0  0  0  0  0  0  0  0
    9.3694  -18.6902   26.1517 O   0  0  0  0  0  0  0  0  0  0  0  0
  2  1  1  6
  2  5  1  0
  2  3  1  0
  3  4  1  0
  5 10  1  0
  6  5  2  0
  9  8  1  1
  8  7  1  0
  9 11  1  0
 10  9  1  0
 11 12  2  0
 11 13  1  0
 13 14  1  0
 14 20  1  0
 14 15  1  6
 15 16  1  0
 16 17  1  0
 18 19  1  0
 18 17  1  0
 20 22  1  0
 21 20  2  0
M  END
$$$$
