CSK.pdb
     RDKit          3D

 22 21  0  0  1  0  0  0  0  0999 V2000
    9.3093  -17.3197   18.1100 N   0  0  0  0  0  0  0  0  0  0  0  0
    8.8733  -17.5408   19.4712 C   0  0  1  0  0  0  0  0  0  0  0  0
    8.9035  -19.0119   19.7467 C   0  0  0  0  0  0  0  0  0  0  0  0
   10.2359  -19.8159   18.8159 S   0  0  0  0  0  0  0  0  0  0  0  0
    9.7457  -16.7624   20.3772 C   0  0  0  0  0  0  0  0  0  0  0  0
   10.8361  -16.2792   19.9771 O   0  0  0  0  0  0  0  0  0  0  0  0
    8.9098  -16.4173   24.4554 O   0  0  0  0  0  0  0  0  0  0  0  0
    9.5057  -15.3278   23.8183 C   0  0  0  0  0  0  0  0  0  0  0  0
   10.3063  -15.8516   22.6772 C   0  0  2  0  0  0  0  0  0  0  0  0
    9.4144  -16.5115   21.7437 N   0  0  0  0  0  0  0  0  0  0  0  0
   11.4374  -16.7230   23.0733 C   0  0  0  0  0  0  0  0  0  0  0  0
   11.2894  -17.9633   22.9140 O   0  0  0  0  0  0  0  0  0  0  0  0
   12.6485  -16.2643   23.6074 N   0  0  0  0  0  0  0  0  0  0  0  0
   13.7794  -17.1287   23.9823 C   0  0  1  0  0  0  0  0  0  0  0  0
   15.0373  -16.6991   23.3259 C   0  0  0  0  0  0  0  0  0  0  0  0
   16.2510  -17.5072   23.5541 C   0  0  0  0  0  0  0  0  0  0  0  0
   17.5339  -17.0337   22.9890 C   0  0  0  0  0  0  0  0  0  0  0  0
   18.7085  -17.9444   23.2186 C   0  0  0  0  0  0  0  0  0  0  0  0
   19.9408  -17.3750   22.6911 N   0  0  0  0  0  0  0  0  0  0  0  0
   13.8013  -17.4216   25.4054 C   0  0  0  0  0  0  0  0  0  0  0  0
   14.5418  -18.3318   25.9163 O   0  0  0  0  0  0  0  0  0  0  0  0
   13.0264  -16.7394   26.3310 O   0  0  0  0  0  0  0  0  0  0  0  0
  2  1  1  6
  2  5  1  0
  2  3  1  0
  3  4  1  0
  5 10  1  0
  6  5  2  0
  9  8  1  1
  8  7  1  0
  9 11  1  0
 10  9  1  0
 11 12  2  0
 11 13  1  0
 13 14  1  0
 14 20  1  0
 14 15  1  1
 15 16  1  0
 16 17  1  0
 18 19  1  0
 18 17  1  0
 20 22  1  0
 21 20  2  0
M  END
$$$$
