CSK.pdb
     RDKit          3D

 22 21  0  0  1  0  0  0  0  0999 V2000
   -2.9120  -23.5903   21.2496 N   0  0  0  0  0  0  0  0  0  0  0  0
   -3.7537  -24.4305   22.0728 C   0  0  1  0  0  0  0  0  0  0  0  0
   -3.0823  -25.7581   22.2388 C   0  0  0  0  0  0  0  0  0  0  0  0
   -3.1796  -26.7266   20.7090 S   0  0  0  0  0  0  0  0  0  0  0  0
   -3.9974  -23.7383   23.3571 C   0  0  0  0  0  0  0  0  0  0  0  0
   -3.0857  -23.0893   23.9316 O   0  0  0  0  0  0  0  0  0  0  0  0
   -7.6879  -22.5344   24.3992 O   0  0  0  0  0  0  0  0  0  0  0  0
   -6.5277  -21.9213   24.8748 C   0  0  0  0  0  0  0  0  0  0  0  0
   -5.5543  -22.9953   25.2165 C   0  0  2  0  0  0  0  0  0  0  0  0
   -5.2624  -23.7602   24.0199 N   0  0  0  0  0  0  0  0  0  0  0  0
   -5.9730  -23.8642   26.3413 C   0  0  0  0  0  0  0  0  0  0  0  0
   -6.7550  -24.8138   26.0725 O   0  0  0  0  0  0  0  0  0  0  0  0
   -5.5612  -23.7022   27.6703 N   0  0  0  0  0  0  0  0  0  0  0  0
   -6.0251  -24.5272   28.7976 C   0  0  1  0  0  0  0  0  0  0  0  0
   -4.8909  -25.0472   29.5981 C   0  0  0  0  0  0  0  0  0  0  0  0
   -4.0038  -26.0495   28.9765 C   0  0  0  0  0  0  0  0  0  0  0  0
   -2.8831  -26.5952   29.7739 C   0  0  0  0  0  0  0  0  0  0  0  0
   -2.0340  -27.6164   29.0682 C   0  0  0  0  0  0  0  0  0  0  0  0
   -0.8579  -27.9704   29.8509 N   0  0  0  0  0  0  0  0  0  0  0  0
   -7.1512  -23.9273   29.4930 C   0  0  0  0  0  0  0  0  0  0  0  0
   -7.5049  -22.7093   29.3219 O   0  0  0  0  0  0  0  0  0  0  0  0
   -7.9403  -24.6221   30.3970 O   0  0  0  0  0  0  0  0  0  0  0  0
  2  1  1  6
  2  5  1  0
  2  3  1  0
  3  4  1  0
  5 10  1  0
  6  5  2  0
  9  8  1  6
  8  7  1  0
  9 11  1  0
 10  9  1  0
 11 12  2  0
 11 13  1  0
 13 14  1  0
 14 20  1  0
 14 15  1  1
 15 16  1  0
 16 17  1  0
 18 19  1  0
 18 17  1  0
 20 22  1  0
 21 20  2  0
M  END
$$$$
