CSK.pdb
     RDKit          3D

 22 21  0  0  1  0  0  0  0  0999 V2000
    8.3476  -12.7847   18.5762 N   0  0  0  0  0  0  0  0  0  0  0  0
    7.9158  -13.9755   19.2744 C   0  0  1  0  0  0  0  0  0  0  0  0
    8.3022  -15.1703   18.4595 C   0  0  0  0  0  0  0  0  0  0  0  0
    6.8615  -15.8594   17.6006 S   0  0  0  0  0  0  0  0  0  0  0  0
    8.5188  -13.9741   20.6250 C   0  0  0  0  0  0  0  0  0  0  0  0
    9.7143  -13.6268   20.8052 O   0  0  0  0  0  0  0  0  0  0  0  0
    6.3770  -15.0802   24.0977 O   0  0  0  0  0  0  0  0  0  0  0  0
    7.3506  -14.0806   24.1266 C   0  0  0  0  0  0  0  0  0  0  0  0
    8.3885  -14.4287   23.1170 C   0  0  2  0  0  0  0  0  0  0  0  0
    7.7967  -14.3607   21.7951 N   0  0  0  0  0  0  0  0  0  0  0  0
    9.0628  -15.7262   23.3561 C   0  0  0  0  0  0  0  0  0  0  0  0
    8.6608  -16.7139   22.6865 O   0  0  0  0  0  0  0  0  0  0  0  0
   10.1075  -15.9260   24.2677 N   0  0  0  0  0  0  0  0  0  0  0  0
   10.7529  -17.2224   24.5313 C   0  0  1  0  0  0  0  0  0  0  0  0
   12.1016  -17.2964   23.9205 C   0  0  0  0  0  0  0  0  0  0  0  0
   12.8612  -18.5536   24.0639 C   0  0  0  0  0  0  0  0  0  0  0  0
   14.2200  -18.6305   23.4833 C   0  0  0  0  0  0  0  0  0  0  0  0
   14.9150  -19.9530   23.6556 C   0  0  0  0  0  0  0  0  0  0  0  0
   16.2538  -19.9349   23.0825 N   0  0  0  0  0  0  0  0  0  0  0  0
   10.5886  -17.6497   25.9105 C   0  0  0  0  0  0  0  0  0  0  0  0
   10.4893  -18.8796   26.2499 O   0  0  0  0  0  0  0  0  0  0  0  0
   10.5294  -16.7640   26.9758 O   0  0  0  0  0  0  0  0  0  0  0  0
  2  1  1  6
  2  5  1  0
  2  3  1  0
  3  4  1  0
  5 10  1  0
  6  5  2  0
  9  8  1  1
  8  7  1  0
  9 11  1  0
 10  9  1  0
 11 12  2  0
 11 13  1  0
 13 14  1  0
 14 20  1  0
 14 15  1  1
 15 16  1  0
 16 17  1  0
 18 19  1  0
 18 17  1  0
 20 22  1  0
 21 20  2  0
M  END
$$$$
