CSK.pdb
     RDKit          3D

 22 21  0  0  1  0  0  0  0  0999 V2000
   -2.6900  -75.2236  -31.5519 N   0  0  0  0  0  0  0  0  0  0  0  0
   -2.0773  -76.5271  -31.4196 C   0  0  1  0  0  0  0  0  0  0  0  0
   -2.3685  -77.3167  -32.6577 C   0  0  0  0  0  0  0  0  0  0  0  0
   -3.7848  -76.6194  -33.5499 S   0  0  0  0  0  0  0  0  0  0  0  0
   -0.6301  -76.3443  -31.1745 C   0  0  0  0  0  0  0  0  0  0  0  0
   -0.1038  -75.2021  -31.1975 O   0  0  0  0  0  0  0  0  0  0  0  0
    3.0748  -76.4075  -28.9249 O   0  0  0  0  0  0  0  0  0  0  0  0
    1.7511  -76.3785  -29.3668 C   0  0  0  0  0  0  0  0  0  0  0  0
    1.6507  -77.2669  -30.5576 C   0  0  2  0  0  0  0  0  0  0  0  0
    0.2517  -77.4339  -30.9002 N   0  0  0  0  0  0  0  0  0  0  0  0
    2.3440  -78.5680  -30.4096 C   0  0  0  0  0  0  0  0  0  0  0  0
    2.1069  -79.2290  -29.3645 O   0  0  0  0  0  0  0  0  0  0  0  0
    3.2366  -79.1070  -31.3452 N   0  0  0  0  0  0  0  0  0  0  0  0
    3.9427  -80.3888  -31.1874 C   0  0  1  0  0  0  0  0  0  0  0  0
    3.8417  -80.9020  -29.8003 C   0  0  0  0  0  0  0  0  0  0  0  0
    2.9105  -82.0164  -29.5380 C   0  0  0  0  0  0  0  0  0  0  0  0
    1.4823  -81.7066  -29.3060 C   0  0  0  0  0  0  0  0  0  0  0  0
    0.5547  -82.8891  -29.3593 C   0  0  0  0  0  0  0  0  0  0  0  0
    1.2848  -84.1477  -29.2954 N   0  0  0  0  0  0  0  0  0  0  0  0
    3.6820  -81.3010  -32.2881 C   0  0  0  0  0  0  0  0  0  0  0  0
    2.5005  -81.5946  -32.6825 O   0  0  0  0  0  0  0  0  0  0  0  0
    4.6886  -81.9274  -33.0071 O   0  0  0  0  0  0  0  0  0  0  0  0
  2  1  1  6
  2  5  1  0
  2  3  1  0
  3  4  1  0
  5 10  1  0
  6  5  2  0
  9  8  1  1
  8  7  1  0
  9 11  1  0
 10  9  1  0
 11 12  2  0
 11 13  1  0
 13 14  1  0
 14 20  1  0
 14 15  1  1
 15 16  1  0
 16 17  1  0
 18 19  1  0
 18 17  1  0
 20 22  1  0
 21 20  2  0
M  END
$$$$
