CSK.pdb
     RDKit          3D

 22 21  0  0  1  0  0  0  0  0999 V2000
   12.1850  -14.5350   18.1572 N   0  0  0  0  0  0  0  0  0  0  0  0
   10.9840  -15.2602   18.5091 C   0  0  1  0  0  0  0  0  0  0  0  0
   11.3432  -16.6971   18.7264 C   0  0  0  0  0  0  0  0  0  0  0  0
   12.5127  -16.8695   20.1013 S   0  0  0  0  0  0  0  0  0  0  0  0
   10.3832  -14.6250   19.7022 C   0  0  0  0  0  0  0  0  0  0  0  0
   11.0878  -13.9870   20.5261 O   0  0  0  0  0  0  0  0  0  0  0  0
    6.4063  -15.3460   20.8608 O   0  0  0  0  0  0  0  0  0  0  0  0
    6.9269  -14.0621   21.0300 C   0  0  0  0  0  0  0  0  0  0  0  0
    8.3982  -14.1905   21.2204 C   0  0  2  0  0  0  0  0  0  0  0  0
    8.9866  -14.6925   19.9940 N   0  0  0  0  0  0  0  0  0  0  0  0
    8.7939  -15.0000   22.3967 C   0  0  0  0  0  0  0  0  0  0  0  0
    9.2372  -16.1574   22.1740 O   0  0  0  0  0  0  0  0  0  0  0  0
    8.7092  -14.5685   23.7267 N   0  0  0  0  0  0  0  0  0  0  0  0
    9.0463  -15.3935   24.8981 C   0  0  1  0  0  0  0  0  0  0  0  0
    9.2822  -14.5626   26.1029 C   0  0  0  0  0  0  0  0  0  0  0  0
    9.7059  -15.2415   27.3430 C   0  0  0  0  0  0  0  0  0  0  0  0
    9.9024  -14.4288   28.5638 C   0  0  0  0  0  0  0  0  0  0  0  0
   10.3850  -15.1901   29.7677 C   0  0  0  0  0  0  0  0  0  0  0  0
   10.5588  -14.3175   30.9208 N   0  0  0  0  0  0  0  0  0  0  0  0
    8.1899  -16.5617   25.0146 C   0  0  0  0  0  0  0  0  0  0  0  0
    8.5943  -17.6743   25.5009 O   0  0  0  0  0  0  0  0  0  0  0  0
    6.8626  -16.5707   24.6134 O   0  0  0  0  0  0  0  0  0  0  0  0
  2  1  1  1
  2  5  1  0
  2  3  1  0
  3  4  1  0
  5 10  1  0
  6  5  2  0
  9  8  1  6
  8  7  1  0
  9 11  1  0
 10  9  1  0
 11 12  2  0
 11 13  1  0
 13 14  1  0
 14 20  1  0
 14 15  1  1
 15 16  1  0
 16 17  1  0
 18 19  1  0
 18 17  1  0
 20 22  1  0
 21 20  2  0
M  END
$$$$
