CSK.pdb
     RDKit          3D

 22 21  0  0  1  0  0  0  0  0999 V2000
    9.1058  -17.2204   16.7777 N   0  0  0  0  0  0  0  0  0  0  0  0
    8.3085  -17.3771   17.9743 C   0  0  1  0  0  0  0  0  0  0  0  0
    8.2162  -18.8362   18.2958 C   0  0  0  0  0  0  0  0  0  0  0  0
    7.2115  -19.1079   19.7806 S   0  0  0  0  0  0  0  0  0  0  0  0
    8.9250  -16.5815   19.0581 C   0  0  0  0  0  0  0  0  0  0  0  0
   10.1745  -16.4911   19.1713 O   0  0  0  0  0  0  0  0  0  0  0  0
    6.6997  -14.9622   22.2438 O   0  0  0  0  0  0  0  0  0  0  0  0
    7.7202  -14.1966   21.6778 C   0  0  0  0  0  0  0  0  0  0  0  0
    8.7413  -15.1335   21.1326 C   0  0  2  0  0  0  0  0  0  0  0  0
    8.1560  -15.8749   20.0326 N   0  0  0  0  0  0  0  0  0  0  0  0
    9.3499  -16.0298   22.1433 C   0  0  0  0  0  0  0  0  0  0  0  0
    8.7842  -17.1368   22.3434 O   0  0  0  0  0  0  0  0  0  0  0  0
   10.5011  -15.7316   22.8837 N   0  0  0  0  0  0  0  0  0  0  0  0
   11.0743  -16.5981   23.9264 C   0  0  1  0  0  0  0  0  0  0  0  0
   12.5198  -16.3346   24.1231 C   0  0  0  0  0  0  0  0  0  0  0  0
   13.2475  -17.1554   25.1105 C   0  0  0  0  0  0  0  0  0  0  0  0
   14.1908  -18.1841   24.6190 C   0  0  0  0  0  0  0  0  0  0  0  0
   14.8994  -18.9658   25.6906 C   0  0  0  0  0  0  0  0  0  0  0  0
   15.7075  -20.0386   25.1274 N   0  0  0  0  0  0  0  0  0  0  0  0
   10.2181  -16.6927   25.0967 C   0  0  0  0  0  0  0  0  0  0  0  0
   10.3427  -17.6138   25.9764 O   0  0  0  0  0  0  0  0  0  0  0  0
    9.1971  -15.7931   25.3628 O   0  0  0  0  0  0  0  0  0  0  0  0
  2  1  1  6
  2  5  1  0
  2  3  1  0
  3  4  1  0
  5 10  1  0
  6  5  2  0
  9  8  1  1
  8  7  1  0
  9 11  1  0
 10  9  1  0
 11 12  2  0
 11 13  1  0
 13 14  1  0
 14 20  1  0
 14 15  1  1
 15 16  1  0
 16 17  1  0
 18 19  1  0
 18 17  1  0
 20 22  1  0
 21 20  2  0
M  END
$$$$
