CSK.pdb
     RDKit          3D

 22 21  0  0  1  0  0  0  0  0999 V2000
    9.8366  -18.6216   18.1024 N   0  0  0  0  0  0  0  0  0  0  0  0
    9.6601  -17.9588   19.3759 C   0  0  1  0  0  0  0  0  0  0  0  0
    8.9188  -18.8812   20.2927 C   0  0  0  0  0  0  0  0  0  0  0  0
    7.2841  -19.2842   19.6197 S   0  0  0  0  0  0  0  0  0  0  0  0
   10.9906  -17.5714   19.8932 C   0  0  0  0  0  0  0  0  0  0  0  0
   11.8783  -18.4331   20.1206 O   0  0  0  0  0  0  0  0  0  0  0  0
   12.8264  -14.6127   18.7152 O   0  0  0  0  0  0  0  0  0  0  0  0
   13.0313  -14.5183   20.0926 C   0  0  0  0  0  0  0  0  0  0  0  0
   12.6383  -15.8199   20.7001 C   0  0  2  0  0  0  0  0  0  0  0  0
   11.3503  -16.2161   20.1650 N   0  0  0  0  0  0  0  0  0  0  0  0
   12.6500  -15.8312   22.1817 C   0  0  0  0  0  0  0  0  0  0  0  0
   11.6882  -15.2678   22.7675 O   0  0  0  0  0  0  0  0  0  0  0  0
   13.6490  -16.4209   22.9669 N   0  0  0  0  0  0  0  0  0  0  0  0
   13.7301  -16.3210   24.4332 C   0  0  1  0  0  0  0  0  0  0  0  0
   13.8268  -17.6571   25.0681 C   0  0  0  0  0  0  0  0  0  0  0  0
   12.7268  -18.6148   24.8421 C   0  0  0  0  0  0  0  0  0  0  0  0
   12.8156  -19.9550   25.4630 C   0  0  0  0  0  0  0  0  0  0  0  0
   11.6796  -20.8858   25.1397 C   0  0  0  0  0  0  0  0  0  0  0  0
   11.8533  -22.1857   25.7733 N   0  0  0  0  0  0  0  0  0  0  0  0
   14.6441  -15.2770   24.8650 C   0  0  0  0  0  0  0  0  0  0  0  0
   15.5603  -14.7993   24.1098 O   0  0  0  0  0  0  0  0  0  0  0  0
   14.6002  -14.7068   26.1281 O   0  0  0  0  0  0  0  0  0  0  0  0
  2  1  1  6
  2  5  1  0
  2  3  1  0
  3  4  1  0
  5 10  1  0
  6  5  2  0
  9  8  1  1
  8  7  1  0
  9 11  1  0
 10  9  1  0
 11 12  2  0
 11 13  1  0
 13 14  1  0
 14 20  1  0
 14 15  1  1
 15 16  1  0
 16 17  1  0
 18 19  1  0
 18 17  1  0
 20 22  1  0
 21 20  2  0
M  END
$$$$
