CSK.pdb
     RDKit          3D

 22 21  0  0  1  0  0  0  0  0999 V2000
   12.1820  -18.6707   17.8907 N   0  0  0  0  0  0  0  0  0  0  0  0
   11.0071  -18.4763   18.7116 C   0  0  1  0  0  0  0  0  0  0  0  0
   10.2439  -19.7632   18.7609 C   0  0  0  0  0  0  0  0  0  0  0  0
   10.3716  -20.6505   17.1847 S   0  0  0  0  0  0  0  0  0  0  0  0
   11.4377  -18.0050   20.0458 C   0  0  0  0  0  0  0  0  0  0  0  0
   12.6550  -17.9581   20.3595 O   0  0  0  0  0  0  0  0  0  0  0  0
    8.6924  -16.7367   22.9371 O   0  0  0  0  0  0  0  0  0  0  0  0
    9.9464  -16.1283   22.8627 C   0  0  0  0  0  0  0  0  0  0  0  0
   10.9169  -17.1473   22.3753 C   0  0  2  0  0  0  0  0  0  0  0  0
   10.5162  -17.5791   21.0505 N   0  0  0  0  0  0  0  0  0  0  0  0
   11.1146  -18.2921   23.2951 C   0  0  0  0  0  0  0  0  0  0  0  0
   10.3051  -19.2517   23.1991 O   0  0  0  0  0  0  0  0  0  0  0  0
   12.1318  -18.3778   24.2545 N   0  0  0  0  0  0  0  0  0  0  0  0
   12.3182  -19.5080   25.1789 C   0  0  1  0  0  0  0  0  0  0  0  0
   13.4411  -20.3795   24.7580 C   0  0  0  0  0  0  0  0  0  0  0  0
   14.3601  -19.8753   23.7190 C   0  0  0  0  0  0  0  0  0  0  0  0
   15.5444  -20.6889   23.3654 C   0  0  0  0  0  0  0  0  0  0  0  0
   16.4775  -20.0598   22.3678 C   0  0  0  0  0  0  0  0  0  0  0  0
   17.6538  -20.8869   22.1368 N   0  0  0  0  0  0  0  0  0  0  0  0
   12.2371  -19.1004   26.5713 C   0  0  0  0  0  0  0  0  0  0  0  0
   12.1069  -17.8793   26.9317 O   0  0  0  0  0  0  0  0  0  0  0  0
   12.2896  -19.9976   27.6273 O   0  0  0  0  0  0  0  0  0  0  0  0
  2  1  1  6
  2  5  1  0
  2  3  1  0
  3  4  1  0
  5 10  1  0
  6  5  2  0
  9  8  1  1
  8  7  1  0
  9 11  1  0
 10  9  1  0
 11 12  2  0
 11 13  1  0
 13 14  1  0
 14 20  1  0
 14 15  1  1
 15 16  1  0
 16 17  1  0
 18 19  1  0
 18 17  1  0
 20 22  1  0
 21 20  2  0
M  END
$$$$
