IQK.pdb
     RDKit          3D

 27 26  0  0  1  0  0  0  0  0999 V2000
    7.1285  -12.0390   20.6082 C   0  0  0  0  0  0  0  0  0  0  0  0
    7.3680  -13.4086   20.0176 C   0  0  0  0  0  0  0  0  0  0  0  0
    8.0040  -14.3635   21.0036 C   0  0  2  0  0  0  0  0  0  0  0  0
    9.3733  -13.8058   21.4238 C   0  0  0  0  0  0  0  0  0  0  0  0
    8.2623  -15.6648   20.3465 C   0  0  2  0  0  0  0  0  0  0  0  0
    7.0039  -16.2395   19.8719 N   0  0  0  0  0  0  0  0  0  0  0  0
    9.0224  -16.6596   21.0842 C   0  0  0  0  0  0  0  0  0  0  0  0
    8.4095  -17.4106   21.8859 O   0  0  0  0  0  0  0  0  0  0  0  0
   13.9940  -19.1221   18.8877 N   0  0  0  0  0  0  0  0  0  0  0  0
   14.2547  -19.5531   20.2221 C   0  0  0  0  0  0  0  0  0  0  0  0
   15.3464  -20.1147   20.4595 O   0  0  0  0  0  0  0  0  0  0  0  0
   13.2173  -19.3217   21.2925 C   0  0  0  0  0  0  0  0  0  0  0  0
   12.2877  -18.2882   20.7674 C   0  0  0  0  0  0  0  0  0  0  0  0
   11.1353  -17.9223   21.6317 C   0  0  2  0  0  0  0  0  0  0  0  0
   10.4172  -16.8636   20.9780 N   0  0  0  0  0  0  0  0  0  0  0  0
   11.4491  -17.6567   23.0402 C   0  0  0  0  0  0  0  0  0  0  0  0
   11.8268  -16.4838   23.3821 O   0  0  0  0  0  0  0  0  0  0  0  0
   11.3577  -18.6315   24.0531 N   0  0  0  0  0  0  0  0  0  0  0  0
   11.7979  -18.3275   25.4677 C   0  0  1  0  0  0  0  0  0  0  0  0
   11.1244  -19.2836   26.3443 C   0  0  0  0  0  0  0  0  0  0  0  0
   11.3570  -19.3287   27.7650 C   0  0  0  0  0  0  0  0  0  0  0  0
   10.7360  -20.3622   28.6211 C   0  0  0  0  0  0  0  0  0  0  0  0
   11.1125  -20.2868   30.0874 C   0  0  0  0  0  0  0  0  0  0  0  0
   10.4230  -21.2010   30.9332 N   0  0  0  0  0  0  0  0  0  0  0  0
   13.2384  -18.2021   25.3881 C   0  0  0  0  0  0  0  0  0  0  0  0
   13.8533  -17.3063   26.0938 O   0  0  0  0  0  0  0  0  0  0  0  0
   14.0914  -18.9565   24.6254 O   0  0  0  0  0  0  0  0  0  0  0  0
  2  1  1  0
  3  5  1  0
  3  2  1  0
  3  4  1  6
  5  6  1  1
  7  8  2  0
  7  5  1  0
  9 10  1  0
 10 11  2  0
 10 12  1  0
 12 13  1  0
 14 13  1  6
 14 15  1  0
 15  7  1  0
 16 14  1  0
 17 16  2  0
 18 16  1  0
 19 18  1  0
 19 25  1  0
 20 21  1  0
 19 20  1  1
 22 21  1  0
 23 24  1  0
 23 22  1  0
 25 27  1  0
 26 25  2  0
M  END
$$$$
