IQK.pdb
     RDKit          3D

 27 26  0  0  1  0  0  0  0  0999 V2000
    7.2866  -11.9493   18.7040 C   0  0  0  0  0  0  0  0  0  0  0  0
    8.0661  -13.2227   18.4742 C   0  0  0  0  0  0  0  0  0  0  0  0
    8.0564  -14.1358   19.6803 C   0  0  2  0  0  0  0  0  0  0  0  0
    8.7768  -13.4332   20.8421 C   0  0  0  0  0  0  0  0  0  0  0  0
    8.8289  -15.3640   19.3860 C   0  0  2  0  0  0  0  0  0  0  0  0
    8.2414  -16.0573   18.2401 N   0  0  0  0  0  0  0  0  0  0  0  0
    9.0599  -16.2987   20.4744 C   0  0  0  0  0  0  0  0  0  0  0  0
    8.1074  -17.0292   20.8510 O   0  0  0  0  0  0  0  0  0  0  0  0
   10.7986  -20.7363   24.3578 N   0  0  0  0  0  0  0  0  0  0  0  0
   11.6311  -20.1177   23.3788 C   0  0  0  0  0  0  0  0  0  0  0  0
   11.9697  -20.7901   22.3803 O   0  0  0  0  0  0  0  0  0  0  0  0
   12.0728  -18.6890   23.5764 C   0  0  0  0  0  0  0  0  0  0  0  0
   11.6841  -17.9498   22.3473 C   0  0  0  0  0  0  0  0  0  0  0  0
   10.4277  -17.1584   22.4106 C   0  0  2  0  0  0  0  0  0  0  0  0
   10.2846  -16.4645   21.1608 N   0  0  0  0  0  0  0  0  0  0  0  0
   10.2655  -16.3065   23.5941 C   0  0  0  0  0  0  0  0  0  0  0  0
   11.1113  -15.3712   23.8071 O   0  0  0  0  0  0  0  0  0  0  0  0
    9.2180  -16.4600   24.5235 N   0  0  0  0  0  0  0  0  0  0  0  0
    9.1162  -15.5625   25.7366 C   0  0  1  0  0  0  0  0  0  0  0  0
    7.8522  -14.8363   25.6314 C   0  0  0  0  0  0  0  0  0  0  0  0
    7.3887  -13.9361   26.6558 C   0  0  0  0  0  0  0  0  0  0  0  0
    6.6990  -12.6709   26.3238 C   0  0  0  0  0  0  0  0  0  0  0  0
    6.3441  -11.8057   27.5166 C   0  0  0  0  0  0  0  0  0  0  0  0
    5.6596  -10.5979   27.2010 N   0  0  0  0  0  0  0  0  0  0  0  0
    9.4499  -16.4164   26.8576 C   0  0  0  0  0  0  0  0  0  0  0  0
    9.8518  -15.8964   27.9742 O   0  0  0  0  0  0  0  0  0  0  0  0
    9.3855  -17.7848   26.9005 O   0  0  0  0  0  0  0  0  0  0  0  0
  2  1  1  0
  3  5  1  0
  3  2  1  0
  3  4  1  1
  5  6  1  6
  7  8  2  0
  7  5  1  0
  9 10  1  0
 10 11  2  0
 10 12  1  0
 12 13  1  0
 14 13  1  6
 14 15  1  0
 15  7  1  0
 16 14  1  0
 17 16  2  0
 18 16  1  0
 19 18  1  0
 19 25  1  0
 20 21  1  0
 19 20  1  1
 22 21  1  0
 23 24  1  0
 23 22  1  0
 25 27  1  0
 26 25  2  0
M  END
$$$$
