IQK.pdb
     RDKit          3D

 27 26  0  0  1  0  0  0  0  0999 V2000
    6.2253  -11.5237   26.0329 C   0  0  0  0  0  0  0  0  0  0  0  0
    5.8892  -12.8997   25.5079 C   0  0  0  0  0  0  0  0  0  0  0  0
    7.1090  -13.7843   25.3734 C   0  0  2  0  0  0  0  0  0  0  0  0
    8.0499  -13.1775   24.3204 C   0  0  0  0  0  0  0  0  0  0  0  0
    6.7094  -15.1159   24.8645 C   0  0  2  0  0  0  0  0  0  0  0  0
    5.6485  -15.6704   25.7048 N   0  0  0  0  0  0  0  0  0  0  0  0
    7.7534  -16.1048   24.6554 C   0  0  0  0  0  0  0  0  0  0  0  0
    8.0469  -16.8779   25.6034 O   0  0  0  0  0  0  0  0  0  0  0  0
   10.3354  -17.0723   19.2367 N   0  0  0  0  0  0  0  0  0  0  0  0
   11.1768  -17.9838   19.9408 C   0  0  0  0  0  0  0  0  0  0  0  0
   12.0517  -18.6007   19.2945 O   0  0  0  0  0  0  0  0  0  0  0  0
   10.9866  -18.1737   21.4250 C   0  0  0  0  0  0  0  0  0  0  0  0
    9.8890  -17.2592   21.8336 C   0  0  0  0  0  0  0  0  0  0  0  0
    9.5232  -17.2531   23.2741 C   0  0  2  0  0  0  0  0  0  0  0  0
    8.4824  -16.2799   23.4569 N   0  0  0  0  0  0  0  0  0  0  0  0
   10.6389  -17.1259   24.2184 C   0  0  0  0  0  0  0  0  0  0  0  0
   11.3699  -16.0774   24.1789 O   0  0  0  0  0  0  0  0  0  0  0  0
   10.9574  -18.1049   25.1802 N   0  0  0  0  0  0  0  0  0  0  0  0
   12.1284  -17.9209   26.1194 C   0  0  1  0  0  0  0  0  0  0  0  0
   11.5838  -17.5190   27.4149 C   0  0  0  0  0  0  0  0  0  0  0  0
   11.0236  -16.2127   27.6479 C   0  0  0  0  0  0  0  0  0  0  0  0
   10.5424  -15.8013   28.9842 C   0  0  0  0  0  0  0  0  0  0  0  0
    9.9344  -14.4141   29.0441 C   0  0  0  0  0  0  0  0  0  0  0  0
    9.4603  -14.0202   30.3274 N   0  0  0  0  0  0  0  0  0  0  0  0
   12.9416  -19.1046   25.9333 C   0  0  0  0  0  0  0  0  0  0  0  0
   14.0828  -19.2113   26.5373 O   0  0  0  0  0  0  0  0  0  0  0  0
   12.6430  -20.1980   25.1627 O   0  0  0  0  0  0  0  0  0  0  0  0
  2  1  1  0
  3  5  1  0
  3  2  1  0
  3  4  1  6
  5  6  1  1
  7  8  2  0
  7  5  1  0
  9 10  1  0
 10 11  2  0
 10 12  1  0
 12 13  1  0
 14 13  1  6
 14 15  1  0
 15  7  1  0
 16 14  1  0
 17 16  2  0
 18 16  1  0
 19 18  1  0
 19 25  1  0
 20 21  1  0
 19 20  1  1
 22 21  1  0
 23 24  1  0
 23 22  1  0
 25 27  1  0
 26 25  2  0
M  END
$$$$
