IQK.pdb
     RDKit          3D

 27 26  0  0  1  0  0  0  0  0999 V2000
    5.3728  -10.8335   26.3680 C   0  0  0  0  0  0  0  0  0  0  0  0
    6.0994  -11.8143   27.2580 C   0  0  0  0  0  0  0  0  0  0  0  0
    7.0220  -12.7291   26.4831 C   0  0  2  0  0  0  0  0  0  0  0  0
    7.8606  -11.8833   25.5117 C   0  0  0  0  0  0  0  0  0  0  0  0
    6.2245  -13.6593   25.6521 C   0  0  2  0  0  0  0  0  0  0  0  0
    5.4022  -14.5112   26.5107 N   0  0  0  0  0  0  0  0  0  0  0  0
    6.9280  -14.4660   24.6694 C   0  0  0  0  0  0  0  0  0  0  0  0
    7.4212  -15.5639   25.0356 O   0  0  0  0  0  0  0  0  0  0  0  0
    7.9164  -12.9580   18.3703 N   0  0  0  0  0  0  0  0  0  0  0  0
    8.1776  -14.3063   18.7553 C   0  0  0  0  0  0  0  0  0  0  0  0
    7.7997  -15.2227   17.9930 O   0  0  0  0  0  0  0  0  0  0  0  0
    8.8921  -14.5816   20.0549 C   0  0  0  0  0  0  0  0  0  0  0  0
    8.0286  -14.0427   21.1374 C   0  0  0  0  0  0  0  0  0  0  0  0
    7.9842  -14.8152   22.4063 C   0  0  2  0  0  0  0  0  0  0  0  0
    7.1102  -14.1208   23.3107 N   0  0  0  0  0  0  0  0  0  0  0  0
    9.2841  -15.1759   22.9832 C   0  0  0  0  0  0  0  0  0  0  0  0
    9.9658  -14.2788   23.5880 O   0  0  0  0  0  0  0  0  0  0  0  0
    9.8339  -16.4708   22.9093 N   0  0  0  0  0  0  0  0  0  0  0  0
   11.0593  -16.8431   23.7137 C   0  0  1  0  0  0  0  0  0  0  0  0
   10.6538  -17.8757   24.6652 C   0  0  0  0  0  0  0  0  0  0  0  0
   11.5910  -18.5371   25.5364 C   0  0  0  0  0  0  0  0  0  0  0  0
   11.1571  -19.5658   26.5059 C   0  0  0  0  0  0  0  0  0  0  0  0
   12.2697  -20.1600   27.3464 C   0  0  0  0  0  0  0  0  0  0  0  0
   11.8607  -21.1803   28.2511 N   0  0  0  0  0  0  0  0  0  0  0  0
   12.1033  -17.0372   22.7290 C   0  0  0  0  0  0  0  0  0  0  0  0
   13.3465  -17.0514   23.0935 O   0  0  0  0  0  0  0  0  0  0  0  0
   11.9415  -17.2280   21.3815 O   0  0  0  0  0  0  0  0  0  0  0  0
  2  1  1  0
  3  5  1  0
  3  2  1  0
  3  4  1  6
  5  6  1  1
  7  8  2  0
  7  5  1  0
  9 10  1  0
 10 11  2  0
 10 12  1  0
 12 13  1  0
 14 13  1  6
 14 15  1  0
 15  7  1  0
 16 14  1  0
 17 16  2  0
 18 16  1  0
 19 18  1  0
 19 25  1  0
 20 21  1  0
 19 20  1  6
 22 21  1  0
 23 24  1  0
 23 22  1  0
 25 27  1  0
 26 25  2  0
M  END
$$$$
