IQK.pdb
     RDKit          3D

 27 26  0  0  1  0  0  0  0  0999 V2000
    7.6129  -11.0287   25.7567 C   0  0  0  0  0  0  0  0  0  0  0  0
    7.7546  -12.5326   25.7448 C   0  0  0  0  0  0  0  0  0  0  0  0
    6.4187  -13.2422   25.7263 C   0  0  2  0  0  0  0  0  0  0  0  0
    5.7151  -13.0133   27.0735 C   0  0  0  0  0  0  0  0  0  0  0  0
    6.6280  -14.7026   25.6026 C   0  0  2  0  0  0  0  0  0  0  0  0
    7.5398  -15.1638   26.6490 N   0  0  0  0  0  0  0  0  0  0  0  0
    7.0418  -15.2228   24.3104 C   0  0  0  0  0  0  0  0  0  0  0  0
    6.1536  -15.5835   23.4958 O   0  0  0  0  0  0  0  0  0  0  0  0
    8.5729  -17.6342   19.3753 N   0  0  0  0  0  0  0  0  0  0  0  0
    7.6736  -16.6093   19.7936 C   0  0  0  0  0  0  0  0  0  0  0  0
    6.4545  -16.8809   19.8544 O   0  0  0  0  0  0  0  0  0  0  0  0
    8.2144  -15.2455   20.1442 C   0  0  0  0  0  0  0  0  0  0  0  0
    7.9239  -15.0305   21.5856 C   0  0  0  0  0  0  0  0  0  0  0  0
    8.7691  -15.7723   22.5573 C   0  0  2  0  0  0  0  0  0  0  0  0
    8.3806  -15.3611   23.8779 N   0  0  0  0  0  0  0  0  0  0  0  0
   10.2153  -15.7276   22.3141 C   0  0  0  0  0  0  0  0  0  0  0  0
   10.6585  -16.0140   21.1492 O   0  0  0  0  0  0  0  0  0  0  0  0
   11.1585  -15.3830   23.3022 N   0  0  0  0  0  0  0  0  0  0  0  0
   11.9000  -16.4501   24.0759 C   0  0  1  0  0  0  0  0  0  0  0  0
   10.9336  -17.0856   24.9695 C   0  0  0  0  0  0  0  0  0  0  0  0
   11.2926  -17.5772   26.2749 C   0  0  0  0  0  0  0  0  0  0  0  0
   10.6891  -18.8054   26.8350 C   0  0  0  0  0  0  0  0  0  0  0  0
   10.9947  -19.0563   28.2983 C   0  0  0  0  0  0  0  0  0  0  0  0
   10.3082  -20.1621   28.8751 N   0  0  0  0  0  0  0  0  0  0  0  0
   12.6528  -17.1772   23.0750 C   0  0  0  0  0  0  0  0  0  0  0  0
   13.8541  -16.8032   22.7658 O   0  0  0  0  0  0  0  0  0  0  0  0
   12.2420  -18.2810   22.3741 O   0  0  0  0  0  0  0  0  0  0  0  0
  2  1  1  0
  3  5  1  0
  3  2  1  0
  3  4  1  1
  5  6  1  1
  7  8  2  0
  7  5  1  0
  9 10  1  0
 10 11  2  0
 10 12  1  0
 12 13  1  0
 14 13  1  6
 14 15  1  0
 15  7  1  0
 16 14  1  0
 17 16  2  0
 18 16  1  0
 19 18  1  0
 19 25  1  0
 20 21  1  0
 19 20  1  6
 22 21  1  0
 23 24  1  0
 23 22  1  0
 25 27  1  0
 26 25  2  0
M  END
$$$$
