IQK.pdb
     RDKit          3D

 27 26  0  0  1  0  0  0  0  0999 V2000
    6.2923  -11.3377   27.8153 C   0  0  0  0  0  0  0  0  0  0  0  0
    5.7824  -12.5150   27.0178 C   0  0  0  0  0  0  0  0  0  0  0  0
    6.8830  -13.2242   26.2601 C   0  0  2  0  0  0  0  0  0  0  0  0
    7.4787  -12.2558   25.2258 C   0  0  0  0  0  0  0  0  0  0  0  0
    6.3161  -14.3595   25.4975 C   0  0  2  0  0  0  0  0  0  0  0  0
    5.7345  -15.3351   26.4188 N   0  0  0  0  0  0  0  0  0  0  0  0
    7.1750  -15.0276   24.5345 C   0  0  0  0  0  0  0  0  0  0  0  0
    7.7901  -16.0638   24.8958 O   0  0  0  0  0  0  0  0  0  0  0  0
    8.2486  -12.7851   18.9549 N   0  0  0  0  0  0  0  0  0  0  0  0
    8.9192  -14.0267   18.7469 C   0  0  0  0  0  0  0  0  0  0  0  0
    9.3083  -14.3021   17.5909 O   0  0  0  0  0  0  0  0  0  0  0  0
    9.1346  -14.9581   19.9137 C   0  0  0  0  0  0  0  0  0  0  0  0
    8.2614  -14.4714   21.0132 C   0  0  0  0  0  0  0  0  0  0  0  0
    8.2892  -15.2438   22.2826 C   0  0  2  0  0  0  0  0  0  0  0  0
    7.3841  -14.6093   23.2004 N   0  0  0  0  0  0  0  0  0  0  0  0
    9.6194  -15.5146   22.8394 C   0  0  0  0  0  0  0  0  0  0  0  0
   10.3021  -14.5447   23.3174 O   0  0  0  0  0  0  0  0  0  0  0  0
   10.1977  -16.7986   22.8790 N   0  0  0  0  0  0  0  0  0  0  0  0
   11.4093  -17.0801   23.7392 C   0  0  1  0  0  0  0  0  0  0  0  0
   10.9651  -17.9218   24.8485 C   0  0  0  0  0  0  0  0  0  0  0  0
   11.8675  -18.4119   25.8584 C   0  0  0  0  0  0  0  0  0  0  0  0
   11.4024  -19.2842   26.9581 C   0  0  0  0  0  0  0  0  0  0  0  0
   12.4991  -19.8104   27.8625 C   0  0  0  0  0  0  0  0  0  0  0  0
   12.0437  -20.5098   29.0158 N   0  0  0  0  0  0  0  0  0  0  0  0
   12.4419  -17.4782   22.8051 C   0  0  0  0  0  0  0  0  0  0  0  0
   12.9714  -18.6580   22.8849 O   0  0  0  0  0  0  0  0  0  0  0  0
   12.9597  -16.7306   21.7797 O   0  0  0  0  0  0  0  0  0  0  0  0
  2  1  1  0
  3  5  1  0
  3  2  1  0
  3  4  1  6
  5  6  1  1
  7  8  2  0
  7  5  1  0
  9 10  1  0
 10 11  2  0
 10 12  1  0
 12 13  1  0
 14 13  1  6
 14 15  1  0
 15  7  1  0
 16 14  1  0
 17 16  2  0
 18 16  1  0
 19 18  1  0
 19 25  1  0
 20 21  1  0
 19 20  1  1
 22 21  1  0
 23 24  1  0
 23 22  1  0
 25 27  1  0
 26 25  2  0
M  END
$$$$
