IQK.pdb
     RDKit          3D

 27 26  0  0  1  0  0  0  0  0999 V2000
    6.8958  -11.7587   27.8554 C   0  0  0  0  0  0  0  0  0  0  0  0
    6.1586  -12.6934   26.9254 C   0  0  0  0  0  0  0  0  0  0  0  0
    7.0813  -13.3887   25.9488 C   0  0  2  0  0  0  0  0  0  0  0  0
    7.7037  -12.3365   25.0171 C   0  0  0  0  0  0  0  0  0  0  0  0
    6.3011  -14.3059   25.0875 C   0  0  2  0  0  0  0  0  0  0  0  0
    5.4546  -15.1644   25.9155 N   0  0  0  0  0  0  0  0  0  0  0  0
    7.0256  -15.1040   24.1131 C   0  0  0  0  0  0  0  0  0  0  0  0
    6.3765  -15.9004   23.3872 O   0  0  0  0  0  0  0  0  0  0  0  0
    6.1828  -15.3162   19.6037 N   0  0  0  0  0  0  0  0  0  0  0  0
    7.4299  -14.6738   19.3456 C   0  0  0  0  0  0  0  0  0  0  0  0
    7.4800  -13.8274   18.4265 O   0  0  0  0  0  0  0  0  0  0  0  0
    8.6352  -15.0318   20.1789 C   0  0  0  0  0  0  0  0  0  0  0  0
    8.3095  -14.6592   21.5800 C   0  0  0  0  0  0  0  0  0  0  0  0
    9.0652  -15.3582   22.6521 C   0  0  2  0  0  0  0  0  0  0  0  0
    8.4230  -15.0635   23.9030 N   0  0  0  0  0  0  0  0  0  0  0  0
   10.5170  -15.1459   22.6560 C   0  0  0  0  0  0  0  0  0  0  0  0
   10.9703  -13.9537   22.7479 O   0  0  0  0  0  0  0  0  0  0  0  0
   11.4549  -16.1930   22.5630 N   0  0  0  0  0  0  0  0  0  0  0  0
   12.0693  -16.7999   23.8045 C   0  0  1  0  0  0  0  0  0  0  0  0
   11.0208  -17.5668   24.4744 C   0  0  0  0  0  0  0  0  0  0  0  0
   11.2505  -18.2851   25.7015 C   0  0  0  0  0  0  0  0  0  0  0  0
   10.1899  -19.0964   26.3366 C   0  0  0  0  0  0  0  0  0  0  0  0
   10.5518  -19.6716   27.6915 C   0  0  0  0  0  0  0  0  0  0  0  0
    9.5036  -20.3815   28.3429 N   0  0  0  0  0  0  0  0  0  0  0  0
   13.3148  -17.3848   23.3530 C   0  0  0  0  0  0  0  0  0  0  0  0
   13.4458  -17.7655   22.1216 O   0  0  0  0  0  0  0  0  0  0  0  0
   14.4457  -17.5946   24.0982 O   0  0  0  0  0  0  0  0  0  0  0  0
  2  1  1  0
  3  5  1  0
  3  2  1  0
  3  4  1  6
  5  6  1  1
  7  8  2  0
  7  5  1  0
  9 10  1  0
 10 11  2  0
 10 12  1  0
 12 13  1  0
 14 13  1  6
 14 15  1  0
 15  7  1  0
 16 14  1  0
 17 16  2  0
 18 16  1  0
 19 18  1  0
 19 25  1  0
 20 21  1  0
 19 20  1  6
 22 21  1  0
 23 24  1  0
 23 22  1  0
 25 27  1  0
 26 25  2  0
M  END
$$$$
