IQK.pdb
     RDKit          3D

 27 26  0  0  1  0  0  0  0  0999 V2000
    6.4749  -11.4344   27.6359 C   0  0  0  0  0  0  0  0  0  0  0  0
    5.9484  -12.4028   26.6030 C   0  0  0  0  0  0  0  0  0  0  0  0
    7.0296  -13.3012   26.0442 C   0  0  2  0  0  0  0  0  0  0  0  0
    8.0385  -12.4411   25.2665 C   0  0  0  0  0  0  0  0  0  0  0  0
    6.4416  -14.2471   25.0688 C   0  0  2  0  0  0  0  0  0  0  0  0
    5.3971  -15.0411   25.7151 N   0  0  0  0  0  0  0  0  0  0  0  0
    7.3463  -15.1122   24.3309 C   0  0  0  0  0  0  0  0  0  0  0  0
    7.7012  -16.1985   24.8569 O   0  0  0  0  0  0  0  0  0  0  0  0
    8.8247  -15.4702   18.3912 N   0  0  0  0  0  0  0  0  0  0  0  0
    7.8186  -14.6480   18.9796 C   0  0  0  0  0  0  0  0  0  0  0  0
    6.8933  -14.2315   18.2490 O   0  0  0  0  0  0  0  0  0  0  0  0
    7.9018  -14.3098   20.4473 C   0  0  0  0  0  0  0  0  0  0  0  0
    9.0237  -15.1088   21.0050 C   0  0  0  0  0  0  0  0  0  0  0  0
    8.8394  -15.6584   22.3735 C   0  0  2  0  0  0  0  0  0  0  0  0
    7.8728  -14.8371   23.0481 N   0  0  0  0  0  0  0  0  0  0  0  0
   10.0678  -15.8954   23.1401 C   0  0  0  0  0  0  0  0  0  0  0  0
   10.6557  -14.9037   23.6935 O   0  0  0  0  0  0  0  0  0  0  0  0
   10.6465  -17.1692   23.3049 N   0  0  0  0  0  0  0  0  0  0  0  0
   11.8056  -17.3805   24.2531 C   0  0  1  0  0  0  0  0  0  0  0  0
   11.4122  -18.4326   25.1883 C   0  0  0  0  0  0  0  0  0  0  0  0
   12.3033  -18.9451   26.1970 C   0  0  0  0  0  0  0  0  0  0  0  0
   11.9006  -20.0405   27.1049 C   0  0  0  0  0  0  0  0  0  0  0  0
   12.9871  -20.5211   28.0462 C   0  0  0  0  0  0  0  0  0  0  0  0
   12.6249  -21.6246   28.8695 N   0  0  0  0  0  0  0  0  0  0  0  0
   12.9708  -17.4738   23.3981 C   0  0  0  0  0  0  0  0  0  0  0  0
   12.8369  -17.7882   22.1484 O   0  0  0  0  0  0  0  0  0  0  0  0
   14.2755  -17.2522   23.7544 O   0  0  0  0  0  0  0  0  0  0  0  0
  2  1  1  0
  3  5  1  0
  3  2  1  0
  3  4  1  6
  5  6  1  1
  7  8  2  0
  7  5  1  0
  9 10  1  0
 10 11  2  0
 10 12  1  0
 12 13  1  0
 14 13  1  6
 14 15  1  0
 15  7  1  0
 16 14  1  0
 17 16  2  0
 18 16  1  0
 19 18  1  0
 19 25  1  0
 20 21  1  0
 19 20  1  6
 22 21  1  0
 23 24  1  0
 23 22  1  0
 25 27  1  0
 26 25  2  0
M  END
$$$$
