IQK.pdb
     RDKit          3D

 27 26  0  0  1  0  0  0  0  0999 V2000
    6.3770  -11.5317   27.8577 C   0  0  0  0  0  0  0  0  0  0  0  0
    5.8485  -12.7079   27.0708 C   0  0  0  0  0  0  0  0  0  0  0  0
    6.9111  -13.3573   26.2119 C   0  0  2  0  0  0  0  0  0  0  0  0
    7.4245  -12.3279   25.1925 C   0  0  0  0  0  0  0  0  0  0  0  0
    6.3165  -14.4649   25.4300 C   0  0  2  0  0  0  0  0  0  0  0  0
    5.7885  -15.4844   26.3360 N   0  0  0  0  0  0  0  0  0  0  0  0
    7.1324  -15.0830   24.3986 C   0  0  0  0  0  0  0  0  0  0  0  0
    7.7399  -16.1500   24.6726 O   0  0  0  0  0  0  0  0  0  0  0  0
    7.4365  -12.9607   18.7025 N   0  0  0  0  0  0  0  0  0  0  0  0
    8.4454  -13.9529   18.5232 C   0  0  0  0  0  0  0  0  0  0  0  0
    8.9553  -14.0794   17.3884 O   0  0  0  0  0  0  0  0  0  0  0  0
    8.8601  -14.8092   19.6937 C   0  0  0  0  0  0  0  0  0  0  0  0
    8.0104  -14.4001   20.8420 C   0  0  0  0  0  0  0  0  0  0  0  0
    8.1724  -15.1699   22.1030 C   0  0  2  0  0  0  0  0  0  0  0  0
    7.3067  -14.5829   23.0879 N   0  0  0  0  0  0  0  0  0  0  0  0
    9.5525  -15.3717   22.5583 C   0  0  0  0  0  0  0  0  0  0  0  0
   10.1705  -14.4016   23.1174 O   0  0  0  0  0  0  0  0  0  0  0  0
   10.2476  -16.5885   22.4138 N   0  0  0  0  0  0  0  0  0  0  0  0
   11.6285  -16.7706   23.0031 C   0  0  1  0  0  0  0  0  0  0  0  0
   11.5699  -17.9309   23.8899 C   0  0  0  0  0  0  0  0  0  0  0  0
   11.1737  -17.8309   25.2710 C   0  0  0  0  0  0  0  0  0  0  0  0
   11.1429  -19.0139   26.1576 C   0  0  0  0  0  0  0  0  0  0  0  0
   10.5370  -18.7705   27.5255 C   0  0  0  0  0  0  0  0  0  0  0  0
   10.5902  -19.8821   28.4133 N   0  0  0  0  0  0  0  0  0  0  0  0
   12.5282  -16.6810   21.8718 C   0  0  0  0  0  0  0  0  0  0  0  0
   12.0833  -16.8723   20.6702 O   0  0  0  0  0  0  0  0  0  0  0  0
   13.8682  -16.3952   21.9040 O   0  0  0  0  0  0  0  0  0  0  0  0
  2  1  1  0
  3  5  1  0
  3  2  1  0
  3  4  1  6
  5  6  1  1
  7  8  2  0
  7  5  1  0
  9 10  1  0
 10 11  2  0
 10 12  1  0
 12 13  1  0
 14 13  1  6
 14 15  1  0
 15  7  1  0
 16 14  1  0
 17 16  2  0
 18 16  1  0
 19 18  1  0
 19 25  1  0
 20 21  1  0
 19 20  1  6
 22 21  1  0
 23 24  1  0
 23 22  1  0
 25 27  1  0
 26 25  2  0
M  END
$$$$
