PIW.pdb
     RDKit          3D

 30 32  0  0  1  0  0  0  0  0999 V2000
    8.8714  -14.8149   17.6322 N   0  0  0  0  0  0  0  0  0  0  0  0
    8.7358  -13.9875   16.4631 C   0  0  0  0  0  0  0  0  0  0  0  0
    8.1262  -12.6822   16.8905 C   0  0  0  0  0  0  0  0  0  0  0  0
    7.6964  -12.9717   18.3318 C   0  0  0  0  0  0  0  0  0  0  0  0
    8.7765  -13.9363   18.7603 C   0  0  1  0  0  0  0  0  0  0  0  0
    8.4582  -14.6165   20.0187 C   0  0  0  0  0  0  0  0  0  0  0  0
    8.2932  -13.9625   21.0685 O   0  0  0  0  0  0  0  0  0  0  0  0
    5.9932  -19.6138   19.6266 C   0  0  0  0  0  0  0  0  0  0  0  0
    6.3684  -18.2075   19.9854 C   0  0  0  0  0  0  0  0  0  0  0  0
    7.5201  -18.1621   20.9714 C   0  0  2  0  0  0  0  0  0  0  0  0
    7.1761  -18.9233   22.2220 C   0  0  0  0  0  0  0  0  0  0  0  0
    7.9355  -16.7392   21.2664 C   0  0  2  0  0  0  0  0  0  0  0  0
    8.3332  -16.0387   20.0576 N   0  0  0  0  0  0  0  0  0  0  0  0
    9.0278  -16.6947   22.2784 C   0  0  0  0  0  0  0  0  0  0  0  0
   10.2099  -16.9844   22.0279 O   0  0  0  0  0  0  0  0  0  0  0  0
    8.7749  -16.3061   23.6324 N   0  0  0  0  0  0  0  0  0  0  0  0
    9.7413  -16.1780   24.6495 C   0  0  1  0  0  0  0  0  0  0  0  0
    9.5701  -15.0682   25.6227 C   0  0  0  0  0  0  0  0  0  0  0  0
    8.1350  -14.7109   25.7935 C   0  0  0  0  0  0  0  0  0  0  0  0
    7.0171  -15.5092   25.8185 C   0  0  0  0  0  0  0  0  0  0  0  0
    5.9174  -14.7270   26.0011 N   0  0  0  0  0  0  0  0  0  0  0  0
    6.2852  -13.4377   26.0964 C   0  0  0  0  0  0  0  0  0  0  0  0
    5.5742  -12.2700   26.2813 C   0  0  0  0  0  0  0  0  0  0  0  0
    6.1908  -11.0334   26.3479 C   0  0  0  0  0  0  0  0  0  0  0  0
    7.5637  -10.9976   26.2220 C   0  0  0  0  0  0  0  0  0  0  0  0
    8.2708  -12.1664   26.0373 C   0  0  0  0  0  0  0  0  0  0  0  0
    7.6569  -13.4118   25.9696 C   0  0  0  0  0  0  0  0  0  0  0  0
    9.8352  -17.4640   25.3765 C   0  0  0  0  0  0  0  0  0  0  0  0
   10.9194  -17.8168   26.1516 O   0  0  0  0  0  0  0  0  0  0  0  0
    8.8824  -18.2664   25.2798 O   0  0  0  0  0  0  0  0  0  0  0  0
  1  2  1  0
  3  2  1  0
  4  3  1  0
  5  4  1  0
  5  1  1  0
  5  6  1  1
  6 13  1  0
  7  6  2  0
  9  8  1  0
 10  9  1  0
 10 11  1  1
 12 13  1  6
 12 10  1  0
 14 16  1  0
 14 12  1  0
 15 14  2  0
 17 16  1  0
 17 28  1  0
 17 18  1  1
 19 18  1  0
 20 19  2  0
 21 22  1  0
 21 20  1  0
 22 27  2  0
 23 22  1  0
 23 24  2  0
 24 25  1  0
 25 26  2  0
 27 19  1  0
 27 26  1  0
 28 30  2  0
 28 29  1  0
M  END
$$$$
