PIW.pdb
     RDKit          3D

 30 32  0  0  1  0  0  0  0  0999 V2000
    8.9072  -19.2329   18.9894 N   0  0  0  0  0  0  0  0  0  0  0  0
    8.6441  -19.9981   17.7999 C   0  0  0  0  0  0  0  0  0  0  0  0
    9.2720  -19.2777   16.6403 C   0  0  0  0  0  0  0  0  0  0  0  0
    9.6612  -17.9306   17.2567 C   0  0  0  0  0  0  0  0  0  0  0  0
    9.9902  -18.3509   18.6694 C   0  0  1  0  0  0  0  0  0  0  0  0
   10.1183  -17.2110   19.5814 C   0  0  0  0  0  0  0  0  0  0  0  0
   11.1674  -16.5361   19.6088 O   0  0  0  0  0  0  0  0  0  0  0  0
    7.6284  -12.1730   21.0299 C   0  0  0  0  0  0  0  0  0  0  0  0
    8.5570  -13.2666   21.4648 C   0  0  0  0  0  0  0  0  0  0  0  0
    8.1696  -14.6081   20.8726 C   0  0  2  0  0  0  0  0  0  0  0  0
    6.7343  -14.9299   21.1856 C   0  0  0  0  0  0  0  0  0  0  0  0
    9.1104  -15.7010   21.3250 C   0  0  2  0  0  0  0  0  0  0  0  0
    9.0414  -16.8592   20.4510 N   0  0  0  0  0  0  0  0  0  0  0  0
    8.8406  -16.0955   22.7361 C   0  0  0  0  0  0  0  0  0  0  0  0
    7.7379  -15.9538   23.2911 O   0  0  0  0  0  0  0  0  0  0  0  0
    9.8599  -16.6752   23.5564 N   0  0  0  0  0  0  0  0  0  0  0  0
   10.0223  -16.4705   24.9409 C   0  0  1  0  0  0  0  0  0  0  0  0
    9.8527  -15.0864   25.4542 C   0  0  0  0  0  0  0  0  0  0  0  0
    8.4184  -14.7668   25.6935 C   0  0  0  0  0  0  0  0  0  0  0  0
    7.3067  -15.5720   25.6359 C   0  0  0  0  0  0  0  0  0  0  0  0
    6.2051  -14.8293   25.9351 N   0  0  0  0  0  0  0  0  0  0  0  0
    6.5657  -13.5593   26.1871 C   0  0  0  0  0  0  0  0  0  0  0  0
    5.8501  -12.4310   26.5309 C   0  0  0  0  0  0  0  0  0  0  0  0
    6.4592  -11.2072   26.7434 C   0  0  0  0  0  0  0  0  0  0  0  0
    7.8294  -11.1432   26.5997 C   0  0  0  0  0  0  0  0  0  0  0  0
    8.5411  -12.2727   26.2561 C   0  0  0  0  0  0  0  0  0  0  0  0
    7.9346  -13.5050   26.0412 C   0  0  0  0  0  0  0  0  0  0  0  0
    9.1074  -17.3824   25.6637 C   0  0  0  0  0  0  0  0  0  0  0  0
    9.1635  -17.5857   27.0262 O   0  0  0  0  0  0  0  0  0  0  0  0
    8.2433  -17.9961   25.0023 O   0  0  0  0  0  0  0  0  0  0  0  0
  1  2  1  0
  3  2  1  0
  4  3  1  0
  5  4  1  0
  5  1  1  0
  5  6  1  1
  6 13  1  0
  7  6  2  0
  9  8  1  0
 10  9  1  0
 10 11  1  1
 12 13  1  6
 12 10  1  0
 14 16  1  0
 14 12  1  0
 15 14  2  0
 17 16  1  0
 17 28  1  0
 17 18  1  6
 19 18  1  0
 20 19  2  0
 21 22  1  0
 21 20  1  0
 22 27  2  0
 23 22  1  0
 23 24  2  0
 24 25  1  0
 25 26  2  0
 27 19  1  0
 27 26  1  0
 28 30  2  0
 28 29  1  0
M  END
$$$$
