PIW.pdb
     RDKit          3D

 30 32  0  0  1  0  0  0  0  0999 V2000
    8.5754  -14.8122   18.0929 N   0  0  0  0  0  0  0  0  0  0  0  0
    8.4910  -13.9172   16.9697 C   0  0  0  0  0  0  0  0  0  0  0  0
    8.0508  -12.5750   17.4820 C   0  0  0  0  0  0  0  0  0  0  0  0
    7.6456  -12.8864   18.9259 C   0  0  0  0  0  0  0  0  0  0  0  0
    8.6241  -13.9863   19.2629 C   0  0  1  0  0  0  0  0  0  0  0  0
    8.2781  -14.6887   20.5016 C   0  0  0  0  0  0  0  0  0  0  0  0
    8.2548  -14.0796   21.5903 O   0  0  0  0  0  0  0  0  0  0  0  0
    5.4369  -19.4282   19.8420 C   0  0  0  0  0  0  0  0  0  0  0  0
    5.8613  -18.0741   20.3254 C   0  0  0  0  0  0  0  0  0  0  0  0
    6.9905  -18.1607   21.3343 C   0  0  2  0  0  0  0  0  0  0  0  0
    6.5479  -18.9104   22.5605 C   0  0  0  0  0  0  0  0  0  0  0  0
    7.5347  -16.7910   21.6692 C   0  0  2  0  0  0  0  0  0  0  0  0
    7.9632  -16.0815   20.4763 N   0  0  0  0  0  0  0  0  0  0  0  0
    8.6502  -16.8792   22.6528 C   0  0  0  0  0  0  0  0  0  0  0  0
    9.8188  -17.1673   22.3436 O   0  0  0  0  0  0  0  0  0  0  0  0
    8.4375  -16.6313   24.0461 N   0  0  0  0  0  0  0  0  0  0  0  0
    9.4432  -16.4643   25.0186 C   0  0  1  0  0  0  0  0  0  0  0  0
    9.4528  -15.1905   25.7837 C   0  0  0  0  0  0  0  0  0  0  0  0
    8.0720  -14.6843   26.0150 C   0  0  0  0  0  0  0  0  0  0  0  0
    6.8786  -15.3607   26.0927 C   0  0  0  0  0  0  0  0  0  0  0  0
    5.8762  -14.4671   26.3190 N   0  0  0  0  0  0  0  0  0  0  0  0
    6.3811  -13.2236   26.3914 C   0  0  0  0  0  0  0  0  0  0  0  0
    5.8054  -11.9875   26.6010 C   0  0  0  0  0  0  0  0  0  0  0  0
    6.5507  -10.8225   26.6342 C   0  0  0  0  0  0  0  0  0  0  0  0
    7.9130  -10.9313   26.4485 C   0  0  0  0  0  0  0  0  0  0  0  0
    8.4847  -12.1680   26.2393 C   0  0  0  0  0  0  0  0  0  0  0  0
    7.7411  -13.3421   26.2049 C   0  0  0  0  0  0  0  0  0  0  0  0
    9.3856  -17.6062   25.9586 C   0  0  0  0  0  0  0  0  0  0  0  0
   10.4052  -17.9180   26.8327 O   0  0  0  0  0  0  0  0  0  0  0  0
    8.3603  -18.3201   25.9563 O   0  0  0  0  0  0  0  0  0  0  0  0
  1  2  1  0
  3  2  1  0
  4  3  1  0
  5  4  1  0
  5  1  1  0
  5  6  1  1
  6 13  1  0
  7  6  2  0
  9  8  1  0
 10  9  1  0
 10 11  1  1
 12 13  1  6
 12 10  1  0
 14 16  1  0
 14 12  1  0
 15 14  2  0
 17 16  1  0
 17 28  1  0
 17 18  1  1
 19 18  1  0
 20 19  2  0
 21 22  1  0
 21 20  1  0
 22 27  2  0
 23 22  1  0
 23 24  2  0
 24 25  1  0
 25 26  2  0
 27 19  1  0
 27 26  1  0
 28 30  2  0
 28 29  1  0
M  END
$$$$
