PIW.pdb
     RDKit          3D

 30 32  0  0  1  0  0  0  0  0999 V2000
   10.4531  -17.9603   18.1961 N   0  0  0  0  0  0  0  0  0  0  0  0
   11.0404  -18.3243   16.9343 C   0  0  0  0  0  0  0  0  0  0  0  0
   12.3321  -17.5698   16.7924 C   0  0  0  0  0  0  0  0  0  0  0  0
   12.2624  -16.5698   17.9505 C   0  0  0  0  0  0  0  0  0  0  0  0
   11.5046  -17.3784   18.9765 C   0  0  1  0  0  0  0  0  0  0  0  0
   11.0312  -16.5635   20.0988 C   0  0  0  0  0  0  0  0  0  0  0  0
   11.8350  -16.1222   20.9450 O   0  0  0  0  0  0  0  0  0  0  0  0
    6.6258  -13.3749   19.3370 C   0  0  0  0  0  0  0  0  0  0  0  0
    7.9530  -13.9035   19.7916 C   0  0  0  0  0  0  0  0  0  0  0  0
    7.8175  -14.8152   20.9962 C   0  0  2  0  0  0  0  0  0  0  0  0
    7.2326  -14.0673   22.1624 C   0  0  0  0  0  0  0  0  0  0  0  0
    9.1356  -15.4691   21.3417 C   0  0  2  0  0  0  0  0  0  0  0  0
    9.6414  -16.2650   20.2367 N   0  0  0  0  0  0  0  0  0  0  0  0
    9.0195  -16.2999   22.5728 C   0  0  0  0  0  0  0  0  0  0  0  0
    8.7969  -17.5224   22.5593 O   0  0  0  0  0  0  0  0  0  0  0  0
    9.1609  -15.7259   23.8761 N   0  0  0  0  0  0  0  0  0  0  0  0
    9.3038  -16.4398   25.0823 C   0  0  1  0  0  0  0  0  0  0  0  0
    9.2097  -15.6704   26.3501 C   0  0  0  0  0  0  0  0  0  0  0  0
    7.9290  -14.9161   26.4349 C   0  0  0  0  0  0  0  0  0  0  0  0
    6.6302  -15.3594   26.3691 C   0  0  0  0  0  0  0  0  0  0  0  0
    5.7910  -14.2944   26.4970 N   0  0  0  0  0  0  0  0  0  0  0  0
    6.5055  -13.1656   26.6448 C   0  0  0  0  0  0  0  0  0  0  0  0
    6.1481  -11.8433   26.8089 C   0  0  0  0  0  0  0  0  0  0  0  0
    7.0871  -10.8363   26.9430 C   0  0  0  0  0  0  0  0  0  0  0  0
    8.4180  -11.1964   26.9077 C   0  0  0  0  0  0  0  0  0  0  0  0
    8.7714  -12.5187   26.7436 C   0  0  0  0  0  0  0  0  0  0  0  0
    7.8324  -13.5349   26.6083 C   0  0  0  0  0  0  0  0  0  0  0  0
    8.3171  -17.5430   25.0981 C   0  0  0  0  0  0  0  0  0  0  0  0
    8.4450  -18.6602   25.8958 O   0  0  0  0  0  0  0  0  0  0  0  0
    7.3207  -17.4530   24.3497 O   0  0  0  0  0  0  0  0  0  0  0  0
  1  2  1  0
  3  2  1  0
  4  3  1  0
  5  4  1  0
  5  1  1  0
  5  6  1  1
  6 13  1  0
  7  6  2  0
  9  8  1  0
 10  9  1  0
 10 11  1  1
 12 13  1  6
 12 10  1  0
 14 16  1  0
 14 12  1  0
 15 14  2  0
 17 16  1  0
 17 28  1  0
 17 18  1  1
 19 18  1  0
 20 19  2  0
 21 22  1  0
 21 20  1  0
 22 27  2  0
 23 22  1  0
 23 24  2  0
 24 25  1  0
 25 26  2  0
 27 19  1  0
 27 26  1  0
 28 30  2  0
 28 29  1  0
M  END
$$$$
