PIW.pdb
     RDKit          3D

 30 32  0  0  1  0  0  0  0  0999 V2000
    6.5486  -17.7111   22.1315 N   0  0  0  0  0  0  0  0  0  0  0  0
    5.4645  -18.3481   21.4325 C   0  0  0  0  0  0  0  0  0  0  0  0
    4.9144  -17.3633   20.4398 C   0  0  0  0  0  0  0  0  0  0  0  0
    5.6087  -16.0594   20.8448 C   0  0  0  0  0  0  0  0  0  0  0  0
    6.9371  -16.5866   21.3328 C   0  0  1  0  0  0  0  0  0  0  0  0
    7.7105  -15.5779   22.0621 C   0  0  0  0  0  0  0  0  0  0  0  0
    8.5548  -14.8759   21.4693 O   0  0  0  0  0  0  0  0  0  0  0  0
    5.1881  -12.9499   26.0365 C   0  0  0  0  0  0  0  0  0  0  0  0
    6.0670  -13.3538   24.8912 C   0  0  0  0  0  0  0  0  0  0  0  0
    7.4239  -13.8409   25.3623 C   0  0  2  0  0  0  0  0  0  0  0  0
    8.1467  -12.7535   26.1084 C   0  0  0  0  0  0  0  0  0  0  0  0
    8.2421  -14.3847   24.2137 C   0  0  2  0  0  0  0  0  0  0  0  0
    7.5059  -15.3867   23.4625 N   0  0  0  0  0  0  0  0  0  0  0  0
    9.5399  -14.9394   24.6906 C   0  0  0  0  0  0  0  0  0  0  0  0
   10.4111  -14.2598   25.2592 O   0  0  0  0  0  0  0  0  0  0  0  0
    9.8688  -16.3215   24.5183 N   0  0  0  0  0  0  0  0  0  0  0  0
   11.0163  -16.9666   25.0203 C   0  0  1  0  0  0  0  0  0  0  0  0
   10.8170  -18.0143   26.0550 C   0  0  0  0  0  0  0  0  0  0  0  0
    9.9869  -17.5125   27.1844 C   0  0  0  0  0  0  0  0  0  0  0  0
    8.8154  -17.9997   27.7117 C   0  0  0  0  0  0  0  0  0  0  0  0
    8.4276  -17.2008   28.7441 N   0  0  0  0  0  0  0  0  0  0  0  0
    9.3137  -16.2034   28.9071 C   0  0  0  0  0  0  0  0  0  0  0  0
    9.3858  -15.1471   29.7916 C   0  0  0  0  0  0  0  0  0  0  0  0
   10.4203  -14.2290   29.7618 C   0  0  0  0  0  0  0  0  0  0  0  0
   11.3983  -14.4010   28.8047 C   0  0  0  0  0  0  0  0  0  0  0  0
   11.3229  -15.4576   27.9226 C   0  0  0  0  0  0  0  0  0  0  0  0
   10.2860  -16.3832   27.9476 C   0  0  0  0  0  0  0  0  0  0  0  0
   11.7759  -17.5322   23.8827 C   0  0  0  0  0  0  0  0  0  0  0  0
   11.2910  -17.5670   22.5925 O   0  0  0  0  0  0  0  0  0  0  0  0
   12.9122  -18.0003   24.1076 O   0  0  0  0  0  0  0  0  0  0  0  0
  1  2  1  0
  3  2  1  0
  4  3  1  0
  5  4  1  0
  5  1  1  0
  5  6  1  1
  6 13  1  0
  7  6  2  0
  9  8  1  0
 10  9  1  0
 10 11  1  6
 12 13  1  1
 12 10  1  0
 14 16  1  0
 14 12  1  0
 15 14  2  0
 17 16  1  0
 17 28  1  0
 17 18  1  1
 19 18  1  0
 20 19  2  0
 21 22  1  0
 21 20  1  0
 22 27  2  0
 23 22  1  0
 23 24  2  0
 24 25  1  0
 25 26  2  0
 27 19  1  0
 27 26  1  0
 28 30  2  0
 28 29  1  0
M  END
$$$$
