PIW.pdb
     RDKit          3D

 30 32  0  0  1  0  0  0  0  0999 V2000
    6.5702  -20.2065   20.7339 N   0  0  0  0  0  0  0  0  0  0  0  0
    5.6628  -21.1686   21.2999 C   0  0  0  0  0  0  0  0  0  0  0  0
    5.1428  -20.6067   22.5928 C   0  0  0  0  0  0  0  0  0  0  0  0
    6.0443  -19.3880   22.8125 C   0  0  0  0  0  0  0  0  0  0  0  0
    6.2940  -18.9606   21.3857 C   0  0  1  0  0  0  0  0  0  0  0  0
    7.3750  -17.9777   21.2726 C   0  0  0  0  0  0  0  0  0  0  0  0
    8.5670  -18.3459   21.2540 O   0  0  0  0  0  0  0  0  0  0  0  0
    8.5230  -12.1780   19.4697 C   0  0  0  0  0  0  0  0  0  0  0  0
    8.8619  -13.3489   20.3424 C   0  0  0  0  0  0  0  0  0  0  0  0
    7.7228  -14.3475   20.4187 C   0  0  2  0  0  0  0  0  0  0  0  0
    6.4835  -13.6954   20.9671 C   0  0  0  0  0  0  0  0  0  0  0  0
    8.1186  -15.5737   21.2086 C   0  0  2  0  0  0  0  0  0  0  0  0
    7.0753  -16.5842   21.1824 N   0  0  0  0  0  0  0  0  0  0  0  0
    8.4684  -15.2213   22.6131 C   0  0  0  0  0  0  0  0  0  0  0  0
    7.8868  -14.3383   23.2661 O   0  0  0  0  0  0  0  0  0  0  0  0
    9.5205  -15.8949   23.3113 N   0  0  0  0  0  0  0  0  0  0  0  0
   10.0295  -15.5433   24.5772 C   0  0  1  0  0  0  0  0  0  0  0  0
    9.2863  -16.0205   25.7721 C   0  0  0  0  0  0  0  0  0  0  0  0
    7.9252  -15.4214   25.8413 C   0  0  0  0  0  0  0  0  0  0  0  0
    6.6966  -15.9720   25.5669 C   0  0  0  0  0  0  0  0  0  0  0  0
    5.7330  -15.0326   25.7757 N   0  0  0  0  0  0  0  0  0  0  0  0
    6.2975  -13.8816   26.1793 C   0  0  0  0  0  0  0  0  0  0  0  0
    5.7778  -12.6489   26.5164 C   0  0  0  0  0  0  0  0  0  0  0  0
    6.5798  -11.5929   26.9108 C   0  0  0  0  0  0  0  0  0  0  0  0
    7.9410  -11.8092   26.9594 C   0  0  0  0  0  0  0  0  0  0  0  0
    8.4567  -13.0422   26.6219 C   0  0  0  0  0  0  0  0  0  0  0  0
    7.6560  -14.1070   26.2248 C   0  0  0  0  0  0  0  0  0  0  0  0
   11.4387  -15.9886   24.6599 C   0  0  0  0  0  0  0  0  0  0  0  0
   12.2442  -15.7494   25.7530 O   0  0  0  0  0  0  0  0  0  0  0  0
   11.9177  -16.6117   23.6887 O   0  0  0  0  0  0  0  0  0  0  0  0
  1  2  1  0
  3  2  1  0
  4  3  1  0
  5  4  1  0
  5  1  1  0
  5  6  1  1
  6 13  1  0
  7  6  2  0
  9  8  1  0
 10  9  1  0
 10 11  1  1
 12 13  1  1
 12 10  1  0
 14 16  1  0
 14 12  1  0
 15 14  2  0
 17 16  1  0
 17 28  1  0
 17 18  1  1
 19 18  1  0
 20 19  2  0
 21 22  1  0
 21 20  1  0
 22 27  2  0
 23 22  1  0
 23 24  2  0
 24 25  1  0
 25 26  2  0
 27 19  1  0
 27 26  1  0
 28 30  2  0
 28 29  1  0
M  END
$$$$
