PIW.pdb
     RDKit          3D

 30 32  0  0  1  0  0  0  0  0999 V2000
    8.0025  -14.6073   18.2650 N   0  0  0  0  0  0  0  0  0  0  0  0
    7.6652  -13.3556   17.6412 C   0  0  0  0  0  0  0  0  0  0  0  0
    7.6789  -12.2929   18.7034 C   0  0  0  0  0  0  0  0  0  0  0  0
    7.7853  -13.1126   19.9930 C   0  0  0  0  0  0  0  0  0  0  0  0
    8.6169  -14.2802   19.5176 C   0  0  1  0  0  0  0  0  0  0  0  0
    8.6356  -15.3870   20.4778 C   0  0  0  0  0  0  0  0  0  0  0  0
    7.5692  -15.8644   20.9157 O   0  0  0  0  0  0  0  0  0  0  0  0
   10.7365  -20.0284   19.7327 C   0  0  0  0  0  0  0  0  0  0  0  0
    9.9929  -18.8312   20.2437 C   0  0  0  0  0  0  0  0  0  0  0  0
   10.6967  -18.1878   21.4232 C   0  0  2  0  0  0  0  0  0  0  0  0
   10.9404  -19.1988   22.5096 C   0  0  0  0  0  0  0  0  0  0  0  0
    9.9362  -16.9826   21.9265 C   0  0  2  0  0  0  0  0  0  0  0  0
    9.8777  -15.9327   20.9243 N   0  0  0  0  0  0  0  0  0  0  0  0
   10.5249  -16.4630   23.1926 C   0  0  0  0  0  0  0  0  0  0  0  0
   11.6460  -15.9315   23.2627 O   0  0  0  0  0  0  0  0  0  0  0  0
    9.8174  -16.5468   24.4338 N   0  0  0  0  0  0  0  0  0  0  0  0
   10.3323  -16.2147   25.7025 C   0  0  1  0  0  0  0  0  0  0  0  0
    9.8848  -14.9351   26.3110 C   0  0  0  0  0  0  0  0  0  0  0  0
    8.4301  -14.7076   26.0912 C   0  0  0  0  0  0  0  0  0  0  0  0
    7.4359  -15.5880   25.7387 C   0  0  0  0  0  0  0  0  0  0  0  0
    6.2553  -14.9142   25.6565 N   0  0  0  0  0  0  0  0  0  0  0  0
    6.4497  -13.6161   25.9456 C   0  0  0  0  0  0  0  0  0  0  0  0
    5.6008  -12.5301   26.0041 C   0  0  0  0  0  0  0  0  0  0  0  0
    6.0461  -11.2623   26.3329 C   0  0  0  0  0  0  0  0  0  0  0  0
    7.3892  -11.1090   26.6064 C   0  0  0  0  0  0  0  0  0  0  0  0
    8.2344  -12.1964   26.5469 C   0  0  0  0  0  0  0  0  0  0  0  0
    7.7928  -13.4726   26.2171 C   0  0  0  0  0  0  0  0  0  0  0  0
   10.0512  -17.3308   26.6332 C   0  0  0  0  0  0  0  0  0  0  0  0
   10.6619  -17.4622   27.8623 O   0  0  0  0  0  0  0  0  0  0  0  0
    9.2186  -18.1942   26.2835 O   0  0  0  0  0  0  0  0  0  0  0  0
  1  2  1  0
  3  2  1  0
  4  3  1  0
  5  4  1  0
  5  1  1  0
  5  6  1  1
  6 13  1  0
  7  6  2  0
  9  8  1  0
 10  9  1  0
 10 11  1  1
 12 13  1  6
 12 10  1  0
 14 16  1  0
 14 12  1  0
 15 14  2  0
 17 16  1  0
 17 28  1  0
 17 18  1  1
 19 18  1  0
 20 19  2  0
 21 22  1  0
 21 20  1  0
 22 27  2  0
 23 22  1  0
 23 24  2  0
 24 25  1  0
 25 26  2  0
 27 19  1  0
 27 26  1  0
 28 30  2  0
 28 29  1  0
M  END
$$$$
