PIW.pdb
     RDKit          3D

 30 32  0  0  1  0  0  0  0  0999 V2000
    8.7082  -15.1660   17.7970 N   0  0  0  0  0  0  0  0  0  0  0  0
    8.5820  -14.4427   16.5599 C   0  0  0  0  0  0  0  0  0  0  0  0
    8.1291  -13.0475   16.8860 C   0  0  0  0  0  0  0  0  0  0  0  0
    7.7625  -13.1547   18.3693 C   0  0  0  0  0  0  0  0  0  0  0  0
    8.7683  -14.1803   18.8353 C   0  0  1  0  0  0  0  0  0  0  0  0
    8.4634  -14.7030   20.1700 C   0  0  0  0  0  0  0  0  0  0  0  0
    8.4876  -13.9515   21.1657 O   0  0  0  0  0  0  0  0  0  0  0  0
    5.9333  -19.8299   22.7025 C   0  0  0  0  0  0  0  0  0  0  0  0
    6.5937  -18.4904   22.8325 C   0  0  0  0  0  0  0  0  0  0  0  0
    7.1450  -17.9993   21.5076 C   0  0  2  0  0  0  0  0  0  0  0  0
    8.1311  -18.9864   20.9464 C   0  0  0  0  0  0  0  0  0  0  0  0
    7.7362  -16.6144   21.6376 C   0  0  2  0  0  0  0  0  0  0  0  0
    8.1344  -16.0816   20.3462 N   0  0  0  0  0  0  0  0  0  0  0  0
    8.8874  -16.6056   22.5830 C   0  0  0  0  0  0  0  0  0  0  0  0
   10.0307  -16.9857   22.2785 O   0  0  0  0  0  0  0  0  0  0  0  0
    8.7421  -16.1477   23.9311 N   0  0  0  0  0  0  0  0  0  0  0  0
    9.7780  -16.0240   24.8780 C   0  0  1  0  0  0  0  0  0  0  0  0
    9.6128  -15.0045   25.9464 C   0  0  0  0  0  0  0  0  0  0  0  0
    8.1757  -14.7082   26.1980 C   0  0  0  0  0  0  0  0  0  0  0  0
    7.0927  -15.5510   26.2649 C   0  0  0  0  0  0  0  0  0  0  0  0
    5.9743  -14.8168   26.5194 N   0  0  0  0  0  0  0  0  0  0  0  0
    6.2958  -13.5157   26.6208 C   0  0  0  0  0  0  0  0  0  0  0  0
    5.5502  -12.3809   26.8650 C   0  0  0  0  0  0  0  0  0  0  0  0
    6.1205  -11.1219   26.9238 C   0  0  0  0  0  0  0  0  0  0  0  0
    7.4826  -11.0289   26.7280 C   0  0  0  0  0  0  0  0  0  0  0  0
    8.2243  -12.1650   26.4843 C   0  0  0  0  0  0  0  0  0  0  0  0
    7.6569  -13.4326   26.4239 C   0  0  0  0  0  0  0  0  0  0  0  0
   10.0182  -17.3496   25.4912 C   0  0  0  0  0  0  0  0  0  0  0  0
   11.1544  -17.6553   26.2099 O   0  0  0  0  0  0  0  0  0  0  0  0
    9.1455  -18.2320   25.3477 O   0  0  0  0  0  0  0  0  0  0  0  0
  1  2  1  0
  3  2  1  0
  4  3  1  0
  5  4  1  0
  5  1  1  0
  5  6  1  1
  6 13  1  0
  7  6  2  0
  9  8  1  0
 10  9  1  0
 10 11  1  1
 12 13  1  6
 12 10  1  0
 14 16  1  0
 14 12  1  0
 15 14  2  0
 17 16  1  0
 17 28  1  0
 17 18  1  1
 19 18  1  0
 20 19  2  0
 21 22  1  0
 21 20  1  0
 22 27  2  0
 23 22  1  0
 23 24  2  0
 24 25  1  0
 25 26  2  0
 27 19  1  0
 27 26  1  0
 28 30  2  0
 28 29  1  0
M  END
$$$$
