PIW.pdb
     RDKit          3D

 30 32  0  0  1  0  0  0  0  0999 V2000
   10.0957  -18.4547   18.6311 N   0  0  0  0  0  0  0  0  0  0  0  0
   10.4380  -18.8927   17.3042 C   0  0  0  0  0  0  0  0  0  0  0  0
   11.4770  -17.9522   16.7621 C   0  0  0  0  0  0  0  0  0  0  0  0
   11.4711  -16.8196   17.7932 C   0  0  0  0  0  0  0  0  0  0  0  0
   11.1551  -17.5877   19.0545 C   0  0  1  0  0  0  0  0  0  0  0  0
   10.7956  -16.7116   20.1729 C   0  0  0  0  0  0  0  0  0  0  0  0
   11.6821  -16.1658   20.8608 O   0  0  0  0  0  0  0  0  0  0  0  0
    6.3412  -13.6182   19.6939 C   0  0  0  0  0  0  0  0  0  0  0  0
    7.6997  -14.1532   20.0336 C   0  0  0  0  0  0  0  0  0  0  0  0
    7.6874  -14.9560   21.3204 C   0  0  2  0  0  0  0  0  0  0  0  0
    7.2349  -14.1018   22.4724 C   0  0  0  0  0  0  0  0  0  0  0  0
    9.0305  -15.5985   21.5804 C   0  0  2  0  0  0  0  0  0  0  0  0
    9.4234  -16.4724   20.4887 N   0  0  0  0  0  0  0  0  0  0  0  0
    9.0318  -16.3429   22.8709 C   0  0  0  0  0  0  0  0  0  0  0  0
    8.6185  -17.5084   22.9932 O   0  0  0  0  0  0  0  0  0  0  0  0
    9.5210  -15.7458   24.0760 N   0  0  0  0  0  0  0  0  0  0  0  0
    9.6429  -16.3860   25.3251 C   0  0  1  0  0  0  0  0  0  0  0  0
    9.2953  -15.5987   26.5364 C   0  0  0  0  0  0  0  0  0  0  0  0
    7.9733  -14.9299   26.3897 C   0  0  0  0  0  0  0  0  0  0  0  0
    6.7348  -15.4588   26.1177 C   0  0  0  0  0  0  0  0  0  0  0  0
    5.8203  -14.4504   26.0805 N   0  0  0  0  0  0  0  0  0  0  0  0
    6.4267  -13.2753   26.3208 C   0  0  0  0  0  0  0  0  0  0  0  0
    5.9637  -11.9777   26.3940 C   0  0  0  0  0  0  0  0  0  0  0  0
    6.8011  -10.9094   26.6610 C   0  0  0  0  0  0  0  0  0  0  0  0
    8.1391  -11.1811   26.8562 C   0  0  0  0  0  0  0  0  0  0  0  0
    8.5981  -12.4788   26.7823 C   0  0  0  0  0  0  0  0  0  0  0  0
    7.7616  -13.5562   26.5144 C   0  0  0  0  0  0  0  0  0  0  0  0
    8.8432  -17.6314   25.2975 C   0  0  0  0  0  0  0  0  0  0  0  0
    8.9628  -18.6275   26.2431 O   0  0  0  0  0  0  0  0  0  0  0  0
    8.0206  -17.7829   24.3695 O   0  0  0  0  0  0  0  0  0  0  0  0
  1  2  1  0
  3  2  1  0
  4  3  1  0
  5  4  1  0
  5  1  1  0
  5  6  1  1
  6 13  1  0
  7  6  2  0
  9  8  1  0
 10  9  1  0
 10 11  1  1
 12 13  1  6
 12 10  1  0
 14 16  1  0
 14 12  1  0
 15 14  2  0
 17 16  1  0
 17 28  1  0
 17 18  1  1
 19 18  1  0
 20 19  2  0
 21 22  1  0
 21 20  1  0
 22 27  2  0
 23 22  1  0
 23 24  2  0
 24 25  1  0
 25 26  2  0
 27 19  1  0
 27 26  1  0
 28 30  2  0
 28 29  1  0
M  END
$$$$
