PIW.pdb
     RDKit          3D

 30 32  0  0  1  0  0  0  0  0999 V2000
    7.3085  -19.5254   20.2200 N   0  0  0  0  0  0  0  0  0  0  0  0
    6.5679  -20.4389   19.3914 C   0  0  0  0  0  0  0  0  0  0  0  0
    7.0546  -20.2781   17.9789 C   0  0  0  0  0  0  0  0  0  0  0  0
    7.9231  -19.0195   18.0674 C   0  0  0  0  0  0  0  0  0  0  0  0
    8.4702  -19.1519   19.4688 C   0  0  1  0  0  0  0  0  0  0  0  0
    9.1142  -17.9231   19.9409 C   0  0  0  0  0  0  0  0  0  0  0  0
   10.3528  -17.7895   19.8710 O   0  0  0  0  0  0  0  0  0  0  0  0
    7.4064  -12.0090   20.4250 C   0  0  0  0  0  0  0  0  0  0  0  0
    8.4382  -13.0805   20.6109 C   0  0  0  0  0  0  0  0  0  0  0  0
    7.8239  -14.4673   20.5984 C   0  0  2  0  0  0  0  0  0  0  0  0
    6.7734  -14.5902   21.6675 C   0  0  0  0  0  0  0  0  0  0  0  0
    8.8833  -15.5389   20.7144 C   0  0  2  0  0  0  0  0  0  0  0  0
    8.3294  -16.8626   20.4878 N   0  0  0  0  0  0  0  0  0  0  0  0
    9.5687  -15.4794   22.0358 C   0  0  0  0  0  0  0  0  0  0  0  0
   10.4624  -14.6610   22.3110 O   0  0  0  0  0  0  0  0  0  0  0  0
    9.2306  -16.3830   23.0928 N   0  0  0  0  0  0  0  0  0  0  0  0
    9.7458  -16.3509   24.4037 C   0  0  1  0  0  0  0  0  0  0  0  0
    9.6020  -15.0839   25.1665 C   0  0  0  0  0  0  0  0  0  0  0  0
    8.1929  -14.8623   25.5927 C   0  0  0  0  0  0  0  0  0  0  0  0
    7.1162  -15.7159   25.5820 C   0  0  0  0  0  0  0  0  0  0  0  0
    6.0266  -15.0616   26.0710 N   0  0  0  0  0  0  0  0  0  0  0  0
    6.3607  -13.8024   26.4017 C   0  0  0  0  0  0  0  0  0  0  0  0
    5.6432  -12.7486   26.9289 C   0  0  0  0  0  0  0  0  0  0  0  0
    6.2214  -11.5189   27.1887 C   0  0  0  0  0  0  0  0  0  0  0  0
    7.5621  -11.3710   26.9008 C   0  0  0  0  0  0  0  0  0  0  0  0
    8.2758  -12.4262   26.3741 C   0  0  0  0  0  0  0  0  0  0  0  0
    7.7003  -13.6640   26.1109 C   0  0  0  0  0  0  0  0  0  0  0  0
    9.1463  -17.4636   25.1742 C   0  0  0  0  0  0  0  0  0  0  0  0
    9.5851  -17.8386   26.4263 O   0  0  0  0  0  0  0  0  0  0  0  0
    8.1960  -18.0911   24.6604 O   0  0  0  0  0  0  0  0  0  0  0  0
  1  2  1  0
  3  2  1  0
  4  3  1  0
  5  4  1  0
  5  1  1  0
  5  6  1  1
  6 13  1  0
  7  6  2  0
  9  8  1  0
 10  9  1  0
 10 11  1  1
 12 13  1  1
 12 10  1  0
 14 16  1  0
 14 12  1  0
 15 14  2  0
 17 16  1  0
 17 28  1  0
 17 18  1  1
 19 18  1  0
 20 19  2  0
 21 22  1  0
 21 20  1  0
 22 27  2  0
 23 22  1  0
 23 24  2  0
 24 25  1  0
 25 26  2  0
 27 19  1  0
 27 26  1  0
 28 30  2  0
 28 29  1  0
M  END
$$$$
