PIW.pdb
     RDKit          3D

 30 32  0  0  1  0  0  0  0  0999 V2000
    8.6665  -14.9132   17.7506 N   0  0  0  0  0  0  0  0  0  0  0  0
    8.4806  -14.0960   16.5813 C   0  0  0  0  0  0  0  0  0  0  0  0
    7.9036  -12.7814   17.0248 C   0  0  0  0  0  0  0  0  0  0  0  0
    7.5426  -13.0531   18.4884 C   0  0  0  0  0  0  0  0  0  0  0  0
    8.6344  -14.0230   18.8731 C   0  0  1  0  0  0  0  0  0  0  0  0
    8.3725  -14.6881   20.1524 C   0  0  0  0  0  0  0  0  0  0  0  0
    8.2173  -14.0194   21.1943 O   0  0  0  0  0  0  0  0  0  0  0  0
    5.7856  -19.5776   19.7658 C   0  0  0  0  0  0  0  0  0  0  0  0
    6.2252  -18.1904   20.1263 C   0  0  0  0  0  0  0  0  0  0  0  0
    7.3726  -18.1992   21.1182 C   0  0  2  0  0  0  0  0  0  0  0  0
    6.9900  -18.9510   22.3632 C   0  0  0  0  0  0  0  0  0  0  0  0
    7.8471  -16.7969   21.4224 C   0  0  2  0  0  0  0  0  0  0  0  0
    8.2920  -16.1124   20.2209 N   0  0  0  0  0  0  0  0  0  0  0  0
    8.9265  -16.8032   22.4492 C   0  0  0  0  0  0  0  0  0  0  0  0
   10.0378  -17.3316   22.2758 O   0  0  0  0  0  0  0  0  0  0  0  0
    8.7438  -16.1860   23.7274 N   0  0  0  0  0  0  0  0  0  0  0  0
    9.7021  -16.1209   24.7581 C   0  0  1  0  0  0  0  0  0  0  0  0
    9.5855  -15.0064   25.7339 C   0  0  0  0  0  0  0  0  0  0  0  0
    8.1660  -14.6042   25.9334 C   0  0  0  0  0  0  0  0  0  0  0  0
    7.0284  -15.3701   26.0168 C   0  0  0  0  0  0  0  0  0  0  0  0
    5.9558  -14.5522   26.2043 N   0  0  0  0  0  0  0  0  0  0  0  0
    6.3605  -13.2712   26.2458 C   0  0  0  0  0  0  0  0  0  0  0  0
    5.6865  -12.0788   26.4115 C   0  0  0  0  0  0  0  0  0  0  0  0
    6.3375  -10.8582   26.4189 C   0  0  0  0  0  0  0  0  0  0  0  0
    7.7067  -10.8645   26.2529 C   0  0  0  0  0  0  0  0  0  0  0  0
    8.3767  -12.0578   26.0876 C   0  0  0  0  0  0  0  0  0  0  0  0
    7.7280  -13.2873   26.0792 C   0  0  0  0  0  0  0  0  0  0  0  0
    9.7075  -17.4130   25.4804 C   0  0  0  0  0  0  0  0  0  0  0  0
   10.7431  -17.8194   26.2946 O   0  0  0  0  0  0  0  0  0  0  0  0
    8.7228  -18.1693   25.3421 O   0  0  0  0  0  0  0  0  0  0  0  0
  1  2  1  0
  3  2  1  0
  4  3  1  0
  5  4  1  0
  5  1  1  0
  5  6  1  1
  6 13  1  0
  7  6  2  0
  9  8  1  0
 10  9  1  0
 10 11  1  1
 12 13  1  6
 12 10  1  0
 14 16  1  0
 14 12  1  0
 15 14  2  0
 17 16  1  0
 17 28  1  0
 17 18  1  1
 19 18  1  0
 20 19  2  0
 21 22  1  0
 21 20  1  0
 22 27  2  0
 23 22  1  0
 23 24  2  0
 24 25  1  0
 25 26  2  0
 27 19  1  0
 27 26  1  0
 28 30  2  0
 28 29  1  0
M  END
$$$$
