PIW.pdb
     RDKit          3D

 30 32  0  0  1  0  0  0  0  0999 V2000
    8.9778  -14.7685   17.8846 N   0  0  0  0  0  0  0  0  0  0  0  0
    8.8488  -13.8760   16.7636 C   0  0  0  0  0  0  0  0  0  0  0  0
    8.2448  -12.5938   17.2625 C   0  0  0  0  0  0  0  0  0  0  0  0
    7.8104  -12.9616   18.6845 C   0  0  0  0  0  0  0  0  0  0  0  0
    8.8849  -13.9543   19.0601 C   0  0  1  0  0  0  0  0  0  0  0  0
    8.5605  -14.7024   20.2777 C   0  0  0  0  0  0  0  0  0  0  0  0
    8.3348  -14.1032   21.3486 O   0  0  0  0  0  0  0  0  0  0  0  0
    6.4388  -19.9070   19.7993 C   0  0  0  0  0  0  0  0  0  0  0  0
    6.7281  -18.4768   20.1429 C   0  0  0  0  0  0  0  0  0  0  0  0
    7.8990  -18.3491   21.0986 C   0  0  2  0  0  0  0  0  0  0  0  0
    7.6730  -19.1868   22.3269 C   0  0  0  0  0  0  0  0  0  0  0  0
    8.1761  -16.9027   21.4383 C   0  0  2  0  0  0  0  0  0  0  0  0
    8.4990  -16.1291   20.2520 N   0  0  0  0  0  0  0  0  0  0  0  0
    9.2634  -16.7847   22.4499 C   0  0  0  0  0  0  0  0  0  0  0  0
   10.4525  -17.0603   22.2171 O   0  0  0  0  0  0  0  0  0  0  0  0
    8.9970  -16.3359   23.7825 N   0  0  0  0  0  0  0  0  0  0  0  0
    9.9574  -16.1294   24.7924 C   0  0  1  0  0  0  0  0  0  0  0  0
    9.7363  -14.9964   25.7280 C   0  0  0  0  0  0  0  0  0  0  0  0
    8.2853  -14.7572   25.9595 C   0  0  0  0  0  0  0  0  0  0  0  0
    7.2341  -15.6411   26.0007 C   0  0  0  0  0  0  0  0  0  0  0  0
    6.0848  -14.9524   26.2444 N   0  0  0  0  0  0  0  0  0  0  0  0
    6.3551  -13.6412   26.3639 C   0  0  0  0  0  0  0  0  0  0  0  0
    5.5633  -12.5380   26.6074 C   0  0  0  0  0  0  0  0  0  0  0  0
    6.0845  -11.2590   26.6879 C   0  0  0  0  0  0  0  0  0  0  0  0
    7.4449  -11.1125   26.5149 C   0  0  0  0  0  0  0  0  0  0  0  0
    8.2329  -12.2172   26.2718 C   0  0  0  0  0  0  0  0  0  0  0  0
    7.7150  -13.5046   26.1897 C   0  0  0  0  0  0  0  0  0  0  0  0
   10.1111  -17.3845   25.5619 C   0  0  0  0  0  0  0  0  0  0  0  0
   11.1628  -17.6201   26.4216 O   0  0  0  0  0  0  0  0  0  0  0  0
    9.2422  -18.2713   25.4222 O   0  0  0  0  0  0  0  0  0  0  0  0
  1  2  1  0
  3  2  1  0
  4  3  1  0
  5  4  1  0
  5  1  1  0
  5  6  1  1
  6 13  1  0
  7  6  2  0
  9  8  1  0
 10  9  1  0
 10 11  1  1
 12 13  1  6
 12 10  1  0
 14 16  1  0
 14 12  1  0
 15 14  2  0
 17 16  1  0
 17 28  1  0
 17 18  1  1
 19 18  1  0
 20 19  2  0
 21 22  1  0
 21 20  1  0
 22 27  2  0
 23 22  1  0
 23 24  2  0
 24 25  1  0
 25 26  2  0
 27 19  1  0
 27 26  1  0
 28 30  2  0
 28 29  1  0
M  END
$$$$
