PLL.pdb
     RDKit          3D

 24 24  0  0  1  0  0  0  0  0999 V2000
   27.0440  -18.1866  -14.1820 N   0  0  0  0  0  0  0  0  0  0  0  0
   27.4422  -17.1913  -15.1464 C   0  0  0  0  0  0  0  0  0  0  0  0
   28.0920  -17.9004  -16.2897 C   0  0  0  0  0  0  0  0  0  0  0  0
   27.8096  -19.3694  -16.0873 C   0  0  0  0  0  0  0  0  0  0  0  0
   26.9604  -19.4436  -14.8397 C   0  0  1  0  0  0  0  0  0  0  0  0
   27.4382  -20.5756  -13.9802 C   0  0  0  0  0  0  0  0  0  0  0  0
   27.3220  -21.7558  -14.3995 O   0  0  0  0  0  0  0  0  0  0  0  0
   32.0017  -21.0688  -10.3666 C   0  0  0  0  0  0  0  0  0  0  0  0
   30.5698  -21.6359  -10.3789 C   0  0  2  0  0  0  0  0  0  0  0  0
   30.7149  -23.1179  -10.1105 C   0  0  0  0  0  0  0  0  0  0  0  0
   30.0094  -21.3391  -11.7218 C   0  0  0  0  0  0  0  0  0  0  0  0
   28.5237  -21.4146  -11.8470 C   0  0  2  0  0  0  0  0  0  0  0  0
   28.0186  -20.3376  -12.7034 N   0  0  0  0  0  0  0  0  0  0  0  0
   27.7829  -21.4749  -10.5803 C   0  0  0  0  0  0  0  0  0  0  0  0
   27.8428  -22.4781   -9.8621 O   0  0  0  0  0  0  0  0  0  0  0  0
   27.6029  -18.2997   -6.4702 C   0  0  0  0  0  0  0  0  0  0  0  0
   27.4922  -19.5331   -7.3531 C   0  0  1  0  0  0  0  0  0  0  0  0
   27.6433  -20.7352   -6.4428 C   0  0  0  0  0  0  0  0  0  0  0  0
   26.1279  -19.4881   -7.9962 C   0  0  0  0  0  0  0  0  0  0  0  0
   25.9679  -20.5489   -9.0672 C   0  0  2  0  0  0  0  0  0  0  0  0
   26.9625  -20.4022  -10.1050 N   0  0  0  0  0  0  0  0  0  0  0  0
   24.6343  -20.4032   -9.6722 C   0  0  0  0  0  0  0  0  0  0  0  0
   23.5050  -20.6268   -8.9199 O   0  0  0  0  0  0  0  0  0  0  0  0
   24.5244  -20.0754  -10.8727 O   0  0  0  0  0  0  0  0  0  0  0  0
  1  2  1  0
  3  2  1  0
  4  3  1  0
  5  4  1  0
  5  1  1  0
  6  7  2  0
  5  6  1  1
  9  8  1  6
  9 11  1  0
  9 10  1  0
 12 11  1  1
 12 13  1  0
 13  6  1  0
 14 12  1  0
 14 15  2  0
 17 16  1  1
 17 18  1  0
 17 19  1  0
 20 21  1  0
 20 19  1  1
 21 14  1  0
 22 20  1  0
 23 22  1  0
 24 22  2  0
M  END
$$$$
