PLL.pdb
     RDKit          3D

 24 24  0  0  1  0  0  0  0  0999 V2000
   23.3668  -18.5401  -14.1594 N   0  0  0  0  0  0  0  0  0  0  0  0
   22.9616  -17.8008  -15.3291 C   0  0  0  0  0  0  0  0  0  0  0  0
   23.0828  -18.7115  -16.5072 C   0  0  0  0  0  0  0  0  0  0  0  0
   23.3074  -20.0951  -15.9466 C   0  0  0  0  0  0  0  0  0  0  0  0
   23.2638  -19.9283  -14.4455 C   0  0  1  0  0  0  0  0  0  0  0  0
   24.3705  -20.7274  -13.8246 C   0  0  0  0  0  0  0  0  0  0  0  0
   24.3751  -21.9779  -13.9603 O   0  0  0  0  0  0  0  0  0  0  0  0
   30.2162  -20.2430  -13.0421 C   0  0  0  0  0  0  0  0  0  0  0  0
   28.8486  -20.6832  -13.5968 C   0  0  2  0  0  0  0  0  0  0  0  0
   28.8055  -20.1811  -15.0234 C   0  0  0  0  0  0  0  0  0  0  0  0
   27.8192  -20.0581  -12.7278 C   0  0  0  0  0  0  0  0  0  0  0  0
   26.5560  -20.8316  -12.5419 C   0  0  2  0  0  0  0  0  0  0  0  0
   25.4111  -20.0968  -13.0877 N   0  0  0  0  0  0  0  0  0  0  0  0
   26.2876  -21.2875  -11.1719 C   0  0  0  0  0  0  0  0  0  0  0  0
   26.6724  -22.3975  -10.7901 O   0  0  0  0  0  0  0  0  0  0  0  0
   27.3894  -18.5969   -6.8496 C   0  0  0  0  0  0  0  0  0  0  0  0
   27.1283  -19.7774   -7.7725 C   0  0  1  0  0  0  0  0  0  0  0  0
   27.8245  -20.9741   -7.1564 C   0  0  0  0  0  0  0  0  0  0  0  0
   25.6323  -19.9678   -7.8245 C   0  0  0  0  0  0  0  0  0  0  0  0
   25.2217  -20.9630   -8.8916 C   0  0  2  0  0  0  0  0  0  0  0  0
   25.5799  -20.4963  -10.2112 N   0  0  0  0  0  0  0  0  0  0  0  0
   23.7608  -21.1315   -8.8345 C   0  0  0  0  0  0  0  0  0  0  0  0
   22.9921  -20.8883   -9.9486 O   0  0  0  0  0  0  0  0  0  0  0  0
   23.2143  -21.4964   -7.7720 O   0  0  0  0  0  0  0  0  0  0  0  0
  1  2  1  0
  3  2  1  0
  4  3  1  0
  5  4  1  0
  5  1  1  0
  6  7  2  0
  5  6  1  1
  9  8  1  1
  9 11  1  0
  9 10  1  0
 12 11  1  1
 12 13  1  0
 13  6  1  0
 14 12  1  0
 14 15  2  0
 17 16  1  1
 17 18  1  0
 17 19  1  0
 20 21  1  0
 20 19  1  1
 21 14  1  0
 22 20  1  0
 23 22  1  0
 24 22  2  0
M  END
$$$$
