PLL.pdb
     RDKit          3D

 24 24  0  0  1  0  0  0  0  0999 V2000
   23.4509  -12.5893  -19.6400 N   0  0  0  0  0  0  0  0  0  0  0  0
   23.6366  -13.9700  -20.0117 C   0  0  0  0  0  0  0  0  0  0  0  0
   22.6758  -14.7891  -19.2129 C   0  0  0  0  0  0  0  0  0  0  0  0
   21.7282  -13.8096  -18.5638 C   0  0  0  0  0  0  0  0  0  0  0  0
   22.1628  -12.4488  -19.0564 C   0  0  1  0  0  0  0  0  0  0  0  0
   22.1523  -11.4798  -17.9121 C   0  0  0  0  0  0  0  0  0  0  0  0
   21.0956  -11.3272  -17.2470 O   0  0  0  0  0  0  0  0  0  0  0  0
   24.8699  -11.4694  -14.5032 C   0  0  0  0  0  0  0  0  0  0  0  0
   25.4832  -10.7788  -15.7356 C   0  0  2  0  0  0  0  0  0  0  0  0
   26.9281  -10.5095  -15.3764 C   0  0  0  0  0  0  0  0  0  0  0  0
   24.6976   -9.5385  -15.9595 C   0  0  0  0  0  0  0  0  0  0  0  0
   23.3211   -9.7206  -16.5079 C   0  0  2  0  0  0  0  0  0  0  0  0
   23.3131  -10.7331  -17.5677 N   0  0  0  0  0  0  0  0  0  0  0  0
   22.6452   -8.4921  -16.9448 C   0  0  0  0  0  0  0  0  0  0  0  0
   23.0175   -7.8945  -17.9598 O   0  0  0  0  0  0  0  0  0  0  0  0
   19.4846   -5.2550  -18.8899 C   0  0  0  0  0  0  0  0  0  0  0  0
   18.7520   -5.7886  -17.6685 C   0  0  1  0  0  0  0  0  0  0  0  0
   17.3359   -6.0979  -18.1107 C   0  0  0  0  0  0  0  0  0  0  0  0
   19.4841   -7.0331  -17.2300 C   0  0  0  0  0  0  0  0  0  0  0  0
   20.8530   -6.7176  -16.6606 C   0  0  2  0  0  0  0  0  0  0  0  0
   21.5375   -7.9191  -16.2416 N   0  0  0  0  0  0  0  0  0  0  0  0
   20.6805   -5.8437  -15.4891 C   0  0  0  0  0  0  0  0  0  0  0  0
   20.8928   -6.3347  -14.2222 O   0  0  0  0  0  0  0  0  0  0  0  0
   20.3402   -4.6515  -15.6428 O   0  0  0  0  0  0  0  0  0  0  0  0
  1  2  1  0
  3  2  1  0
  4  3  1  0
  5  4  1  0
  5  1  1  0
  6  7  2  0
  5  6  1  1
  9  8  1  1
  9 11  1  0
  9 10  1  0
 12 11  1  6
 12 13  1  0
 13  6  1  0
 14 12  1  0
 14 15  2  0
 17 16  1  6
 17 18  1  0
 17 19  1  0
 20 21  1  0
 20 19  1  1
 21 14  1  0
 22 20  1  0
 23 22  1  0
 24 22  2  0
M  END
$$$$
