PLL.pdb
     RDKit          3D

 24 24  0  0  1  0  0  0  0  0999 V2000
   24.4904  -19.7516  -12.3843 N   0  0  0  0  0  0  0  0  0  0  0  0
   24.1889  -19.1367  -13.6531 C   0  0  0  0  0  0  0  0  0  0  0  0
   25.1262  -19.7053  -14.6681 C   0  0  0  0  0  0  0  0  0  0  0  0
   25.8021  -20.8801  -14.0034 C   0  0  0  0  0  0  0  0  0  0  0  0
   25.1862  -20.9669  -12.6263 C   0  0  1  0  0  0  0  0  0  0  0  0
   26.2639  -21.2239  -11.6157 C   0  0  0  0  0  0  0  0  0  0  0  0
   26.9230  -22.2933  -11.6800 O   0  0  0  0  0  0  0  0  0  0  0  0
   28.5500  -17.7555   -7.1851 C   0  0  0  0  0  0  0  0  0  0  0  0
   28.7551  -19.1668   -7.7665 C   0  0  2  0  0  0  0  0  0  0  0  0
   30.2525  -19.3802   -7.8027 C   0  0  0  0  0  0  0  0  0  0  0  0
   28.1344  -19.1622   -9.1157 C   0  0  0  0  0  0  0  0  0  0  0  0
   27.6268  -20.4754   -9.6120 C   0  0  2  0  0  0  0  0  0  0  0  0
   26.5518  -20.2818  -10.5893 N   0  0  0  0  0  0  0  0  0  0  0  0
   27.2311  -21.4355   -8.5734 C   0  0  0  0  0  0  0  0  0  0  0  0
   28.0106  -22.3185   -8.2011 O   0  0  0  0  0  0  0  0  0  0  0  0
   27.2612  -22.1189   -3.9172 C   0  0  0  0  0  0  0  0  0  0  0  0
   26.2603  -21.0064   -4.1893 C   0  0  1  0  0  0  0  0  0  0  0  0
   26.6534  -19.8410   -3.3039 C   0  0  0  0  0  0  0  0  0  0  0  0
   26.3801  -20.6604   -5.6531 C   0  0  0  0  0  0  0  0  0  0  0  0
   25.7367  -21.7076   -6.5403 C   0  0  2  0  0  0  0  0  0  0  0  0
   25.9479  -21.4132   -7.9390 N   0  0  0  0  0  0  0  0  0  0  0  0
   24.2888  -21.7162   -6.2766 C   0  0  0  0  0  0  0  0  0  0  0  0
   23.8028  -22.2369   -5.1001 O   0  0  0  0  0  0  0  0  0  0  0  0
   23.4962  -21.2498   -7.1221 O   0  0  0  0  0  0  0  0  0  0  0  0
  1  2  1  0
  3  2  1  0
  4  3  1  0
  5  4  1  0
  5  1  1  0
  6  7  2  0
  5  6  1  1
  9  8  1  6
  9 11  1  0
  9 10  1  0
 12 11  1  1
 12 13  1  0
 13  6  1  0
 14 12  1  0
 14 15  2  0
 17 16  1  1
 17 18  1  0
 17 19  1  0
 20 21  1  0
 20 19  1  1
 21 14  1  0
 22 20  1  0
 23 22  1  0
 24 22  2  0
M  END
$$$$
