PLL.pdb
     RDKit          3D

 24 24  0  0  1  0  0  0  0  0999 V2000
   27.8739  -20.6088  -15.6526 N   0  0  0  0  0  0  0  0  0  0  0  0
   27.9504  -19.7015  -16.7706 C   0  0  0  0  0  0  0  0  0  0  0  0
   27.0147  -18.5683  -16.5013 C   0  0  0  0  0  0  0  0  0  0  0  0
   26.5956  -18.7044  -15.0574 C   0  0  0  0  0  0  0  0  0  0  0  0
   27.3512  -19.9040  -14.5348 C   0  0  1  0  0  0  0  0  0  0  0  0
   26.4314  -20.7463  -13.7024 C   0  0  0  0  0  0  0  0  0  0  0  0
   26.2102  -21.9362  -14.0454 O   0  0  0  0  0  0  0  0  0  0  0  0
   26.9425  -21.7062   -9.7013 C   0  0  0  0  0  0  0  0  0  0  0  0
   26.2319  -20.3408   -9.7531 C   0  0  2  0  0  0  0  0  0  0  0  0
   26.1998  -19.8424   -8.3249 C   0  0  0  0  0  0  0  0  0  0  0  0
   24.8795  -20.5894  -10.3140 C   0  0  0  0  0  0  0  0  0  0  0  0
   24.8250  -20.9805  -11.7537 C   0  0  2  0  0  0  0  0  0  0  0  0
   25.8071  -20.2240  -12.5357 N   0  0  0  0  0  0  0  0  0  0  0  0
   23.4960  -20.9238  -12.3762 C   0  0  0  0  0  0  0  0  0  0  0  0
   22.5003  -21.3407  -11.7757 O   0  0  0  0  0  0  0  0  0  0  0  0
   21.6080  -16.8889  -15.8939 C   0  0  0  0  0  0  0  0  0  0  0  0
   21.7656  -17.8758  -14.7474 C   0  0  1  0  0  0  0  0  0  0  0  0
   20.5061  -17.7760  -13.9107 C   0  0  0  0  0  0  0  0  0  0  0  0
   21.9173  -19.2433  -15.3667 C   0  0  0  0  0  0  0  0  0  0  0  0
   21.9735  -20.3391  -14.3207 C   0  0  2  0  0  0  0  0  0  0  0  0
   23.2710  -20.3950  -13.6875 N   0  0  0  0  0  0  0  0  0  0  0  0
   21.7190  -21.6287  -14.9825 C   0  0  0  0  0  0  0  0  0  0  0  0
   22.7273  -22.5563  -15.1016 O   0  0  0  0  0  0  0  0  0  0  0  0
   20.5844  -21.8846  -15.4386 O   0  0  0  0  0  0  0  0  0  0  0  0
  1  2  1  0
  3  2  1  0
  4  3  1  0
  5  4  1  0
  5  1  1  0
  6  7  2  0
  5  6  1  6
  9  8  1  1
  9 11  1  0
  9 10  1  0
 12 11  1  1
 12 13  1  0
 13  6  1  0
 14 12  1  0
 14 15  2  0
 17 16  1  6
 17 18  1  0
 17 19  1  0
 20 21  1  0
 20 19  1  6
 21 14  1  0
 22 20  1  0
 23 22  1  0
 24 22  2  0
M  END
$$$$
