PLL.pdb
     RDKit          3D

 24 24  0  0  1  0  0  0  0  0999 V2000
   26.5095  -22.6944  -17.6282 N   0  0  0  0  0  0  0  0  0  0  0  0
   27.1230  -22.9766  -18.9021 C   0  0  0  0  0  0  0  0  0  0  0  0
   28.5987  -23.0661  -18.6863 C   0  0  0  0  0  0  0  0  0  0  0  0
   28.8025  -23.1025  -17.1909 C   0  0  0  0  0  0  0  0  0  0  0  0
   27.4126  -23.0745  -16.5988 C   0  0  1  0  0  0  0  0  0  0  0  0
   27.3879  -22.1301  -15.4342 C   0  0  0  0  0  0  0  0  0  0  0  0
   28.1617  -22.3327  -14.4635 O   0  0  0  0  0  0  0  0  0  0  0  0
   28.3551  -18.0565  -15.2589 C   0  0  0  0  0  0  0  0  0  0  0  0
   26.9241  -18.1628  -15.8183 C   0  0  2  0  0  0  0  0  0  0  0  0
   26.5344  -16.7554  -16.2140 C   0  0  0  0  0  0  0  0  0  0  0  0
   26.0833  -18.7148  -14.7257 C   0  0  0  0  0  0  0  0  0  0  0  0
   26.4192  -20.0960  -14.2695 C   0  0  2  0  0  0  0  0  0  0  0  0
   26.5071  -21.0133  -15.4093 N   0  0  0  0  0  0  0  0  0  0  0  0
   25.5553  -20.6431  -13.2153 C   0  0  0  0  0  0  0  0  0  0  0  0
   24.7544  -21.5500  -13.4641 O   0  0  0  0  0  0  0  0  0  0  0  0
   26.4643  -19.5392   -7.6666 C   0  0  0  0  0  0  0  0  0  0  0  0
   26.1683  -20.4630   -8.8381 C   0  0  1  0  0  0  0  0  0  0  0  0
   25.9289  -21.8415   -8.2559 C   0  0  0  0  0  0  0  0  0  0  0  0
   24.9347  -19.9228   -9.5187 C   0  0  0  0  0  0  0  0  0  0  0  0
   24.6635  -20.6155  -10.8394 C   0  0  2  0  0  0  0  0  0  0  0  0
   25.5827  -20.1740  -11.8629 N   0  0  0  0  0  0  0  0  0  0  0  0
   23.2939  -20.2864  -11.2658 C   0  0  0  0  0  0  0  0  0  0  0  0
   22.2178  -20.9114  -10.6804 O   0  0  0  0  0  0  0  0  0  0  0  0
   23.1049  -19.4369  -12.1621 O   0  0  0  0  0  0  0  0  0  0  0  0
  1  2  1  0
  3  2  1  0
  4  3  1  0
  5  4  1  0
  5  1  1  0
  6  7  2  0
  5  6  1  1
  9  8  1  1
  9 11  1  0
  9 10  1  0
 12 11  1  6
 12 13  1  0
 13  6  1  0
 14 12  1  0
 14 15  2  0
 17 16  1  1
 17 18  1  0
 17 19  1  0
 20 21  1  0
 20 19  1  1
 21 14  1  0
 22 20  1  0
 23 22  1  0
 24 22  2  0
M  END
$$$$
