PLL.pdb
     RDKit          3D

 24 24  0  0  1  0  0  0  0  0999 V2000
   27.1900  -19.1245  -12.8380 N   0  0  0  0  0  0  0  0  0  0  0  0
   27.3914  -17.9401  -13.6352 C   0  0  0  0  0  0  0  0  0  0  0  0
   28.5410  -18.2000  -14.5533 C   0  0  0  0  0  0  0  0  0  0  0  0
   28.8272  -19.6792  -14.4589 C   0  0  0  0  0  0  0  0  0  0  0  0
   27.7880  -20.2259  -13.5079 C   0  0  1  0  0  0  0  0  0  0  0  0
   28.4389  -21.1903  -12.5619 C   0  0  0  0  0  0  0  0  0  0  0  0
   29.0602  -22.1806  -13.0262 O   0  0  0  0  0  0  0  0  0  0  0  0
   32.8883  -21.3159   -9.6620 C   0  0  0  0  0  0  0  0  0  0  0  0
   31.6361  -22.2122   -9.6484 C   0  0  2  0  0  0  0  0  0  0  0  0
   32.1037  -23.5747  -10.1115 C   0  0  0  0  0  0  0  0  0  0  0  0
   30.6583  -21.5861  -10.5744 C   0  0  0  0  0  0  0  0  0  0  0  0
   29.2181  -21.7338  -10.2103 C   0  0  2  0  0  0  0  0  0  0  0  0
   28.3657  -21.0043  -11.1534 N   0  0  0  0  0  0  0  0  0  0  0  0
   28.8778  -21.3989   -8.8214 C   0  0  0  0  0  0  0  0  0  0  0  0
   29.4486  -21.9588   -7.8799 O   0  0  0  0  0  0  0  0  0  0  0  0
   28.3732  -18.0888   -4.9261 C   0  0  0  0  0  0  0  0  0  0  0  0
   28.3845  -19.3411   -5.7893 C   0  0  1  0  0  0  0  0  0  0  0  0
   28.6847  -20.5041   -4.8653 C   0  0  0  0  0  0  0  0  0  0  0  0
   27.0124  -19.4581   -6.4060 C   0  0  0  0  0  0  0  0  0  0  0  0
   26.9317  -20.5965   -7.4037 C   0  0  2  0  0  0  0  0  0  0  0  0
   27.8868  -20.4257   -8.4743 N   0  0  0  0  0  0  0  0  0  0  0  0
   25.5783  -20.6149   -7.9815 C   0  0  0  0  0  0  0  0  0  0  0  0
   25.3909  -20.3332   -9.3144 O   0  0  0  0  0  0  0  0  0  0  0  0
   24.5944  -20.8868   -7.2613 O   0  0  0  0  0  0  0  0  0  0  0  0
  1  2  1  0
  3  2  1  0
  4  3  1  0
  5  4  1  0
  5  1  1  0
  6  7  2  0
  5  6  1  1
  9  8  1  6
  9 11  1  0
  9 10  1  0
 12 11  1  6
 12 13  1  0
 13  6  1  0
 14 12  1  0
 14 15  2  0
 17 16  1  1
 17 18  1  0
 17 19  1  0
 20 21  1  0
 20 19  1  1
 21 14  1  0
 22 20  1  0
 23 22  1  0
 24 22  2  0
M  END
$$$$
