PLL.pdb
     RDKit          3D

 24 24  0  0  1  0  0  0  0  0999 V2000
   25.6935  -17.5016  -15.3045 N   0  0  0  0  0  0  0  0  0  0  0  0
   26.1523  -16.3617  -16.0589 C   0  0  0  0  0  0  0  0  0  0  0  0
   26.6133  -16.8544  -17.3919 C   0  0  0  0  0  0  0  0  0  0  0  0
   26.1482  -18.2869  -17.4935 C   0  0  0  0  0  0  0  0  0  0  0  0
   25.3906  -18.5514  -16.2132 C   0  0  1  0  0  0  0  0  0  0  0  0
   25.7707  -19.9008  -15.6809 C   0  0  0  0  0  0  0  0  0  0  0  0
   25.4811  -20.9273  -16.3477 O   0  0  0  0  0  0  0  0  0  0  0  0
   29.3376  -19.3716  -13.4296 C   0  0  0  0  0  0  0  0  0  0  0  0
   28.8670  -20.6187  -12.6581 C   0  0  2  0  0  0  0  0  0  0  0  0
   30.1151  -21.2150  -12.0449 C   0  0  0  0  0  0  0  0  0  0  0  0
   28.2224  -21.5129  -13.6532 C   0  0  0  0  0  0  0  0  0  0  0  0
   26.7510  -21.3411  -13.8378 C   0  0  2  0  0  0  0  0  0  0  0  0
   26.4508  -20.0385  -14.4391 N   0  0  0  0  0  0  0  0  0  0  0  0
   25.9307  -21.5734  -12.6419 C   0  0  0  0  0  0  0  0  0  0  0  0
   25.8767  -22.6927  -12.1221 O   0  0  0  0  0  0  0  0  0  0  0  0
   26.2234  -19.1813   -8.0885 C   0  0  0  0  0  0  0  0  0  0  0  0
   25.9573  -20.2017   -9.1847 C   0  0  1  0  0  0  0  0  0  0  0  0
   26.0292  -21.5684   -8.5340 C   0  0  0  0  0  0  0  0  0  0  0  0
   24.5783  -19.9124   -9.7244 C   0  0  0  0  0  0  0  0  0  0  0  0
   24.2421  -20.7790  -10.9219 C   0  0  2  0  0  0  0  0  0  0  0  0
   25.1582  -20.5444  -12.0142 N   0  0  0  0  0  0  0  0  0  0  0  0
   22.8811  -20.4451  -11.3715 C   0  0  0  0  0  0  0  0  0  0  0  0
   21.8063  -20.6562  -10.5400 O   0  0  0  0  0  0  0  0  0  0  0  0
   22.6984  -19.9683  -12.5117 O   0  0  0  0  0  0  0  0  0  0  0  0
  1  2  1  0
  3  2  1  0
  4  3  1  0
  5  4  1  0
  5  1  1  0
  6  7  2  0
  5  6  1  1
  9  8  1  6
  9 11  1  0
  9 10  1  0
 12 11  1  1
 12 13  1  0
 13  6  1  0
 14 12  1  0
 14 15  2  0
 17 16  1  1
 17 18  1  0
 17 19  1  0
 20 21  1  0
 20 19  1  1
 21 14  1  0
 22 20  1  0
 23 22  1  0
 24 22  2  0
M  END
$$$$
