PLL.pdb
     RDKit          3D

 24 24  0  0  1  0  0  0  0  0999 V2000
   26.7803  -19.0472  -16.2190 N   0  0  0  0  0  0  0  0  0  0  0  0
   27.7189  -17.9527  -16.2110 C   0  0  0  0  0  0  0  0  0  0  0  0
   28.7153  -18.2162  -15.1293 C   0  0  0  0  0  0  0  0  0  0  0  0
   28.4888  -19.6421  -14.6886 C   0  0  0  0  0  0  0  0  0  0  0  0
   27.3828  -20.1626  -15.5768 C   0  0  1  0  0  0  0  0  0  0  0  0
   26.4080  -20.9455  -14.7490 C   0  0  0  0  0  0  0  0  0  0  0  0
   26.8155  -21.9447  -14.1025 O   0  0  0  0  0  0  0  0  0  0  0  0
   25.3371  -22.0011  -11.1056 C   0  0  0  0  0  0  0  0  0  0  0  0
   25.9942  -20.7075  -11.6219 C   0  0  2  0  0  0  0  0  0  0  0  0
   26.5119  -19.9933  -10.3926 C   0  0  0  0  0  0  0  0  0  0  0  0
   24.9333  -19.9493  -12.3327 C   0  0  0  0  0  0  0  0  0  0  0  0
   24.2481  -20.6647  -13.4495 C   0  0  2  0  0  0  0  0  0  0  0  0
   25.0352  -20.5784  -14.6830 N   0  0  0  0  0  0  0  0  0  0  0  0
   22.8505  -20.2801  -13.6858 C   0  0  0  0  0  0  0  0  0  0  0  0
   22.0811  -20.0871  -12.7389 O   0  0  0  0  0  0  0  0  0  0  0  0
   21.7603  -17.5202  -18.3254 C   0  0  0  0  0  0  0  0  0  0  0  0
   21.9120  -17.9678  -16.8797 C   0  0  1  0  0  0  0  0  0  0  0  0
   21.6999  -16.7389  -16.0188 C   0  0  0  0  0  0  0  0  0  0  0  0
   20.8510  -19.0120  -16.6328 C   0  0  0  0  0  0  0  0  0  0  0  0
   20.9631  -19.6217  -15.2495 C   0  0  2  0  0  0  0  0  0  0  0  0
   22.3000  -20.1076  -14.9961 N   0  0  0  0  0  0  0  0  0  0  0  0
   20.0282  -20.7550  -15.1625 C   0  0  0  0  0  0  0  0  0  0  0  0
   18.6708  -20.5339  -15.1636 O   0  0  0  0  0  0  0  0  0  0  0  0
   20.4659  -21.9226  -15.0872 O   0  0  0  0  0  0  0  0  0  0  0  0
  1  2  1  0
  3  2  1  0
  4  3  1  0
  5  4  1  0
  5  1  1  0
  6  7  2  0
  5  6  1  1
  9  8  1  1
  9 11  1  0
  9 10  1  0
 12 11  1  1
 12 13  1  0
 13  6  1  0
 14 12  1  0
 14 15  2  0
 17 16  1  6
 17 18  1  0
 17 19  1  0
 20 21  1  0
 20 19  1  6
 21 14  1  0
 22 20  1  0
 23 22  1  0
 24 22  2  0
M  END
$$$$
