PLL.pdb
     RDKit          3D

 24 24  0  0  1  0  0  0  0  0999 V2000
   24.1482  -18.3395  -14.9033 N   0  0  0  0  0  0  0  0  0  0  0  0
   23.9357  -17.5455  -16.0879 C   0  0  0  0  0  0  0  0  0  0  0  0
   24.1144  -18.4388  -17.2720 C   0  0  0  0  0  0  0  0  0  0  0  0
   24.1646  -19.8473  -16.7312 C   0  0  0  0  0  0  0  0  0  0  0  0
   23.9676  -19.7084  -15.2395 C   0  0  1  0  0  0  0  0  0  0  0  0
   24.9314  -20.6082  -14.5254 C   0  0  0  0  0  0  0  0  0  0  0  0
   24.8348  -21.8534  -14.6755 O   0  0  0  0  0  0  0  0  0  0  0  0
   30.6222  -20.1799  -12.4093 C   0  0  0  0  0  0  0  0  0  0  0  0
   29.3986  -21.1126  -12.4781 C   0  0  2  0  0  0  0  0  0  0  0  0
   29.8225  -22.2799  -13.3423 C   0  0  0  0  0  0  0  0  0  0  0  0
   28.2944  -20.3176  -13.0734 C   0  0  0  0  0  0  0  0  0  0  0  0
   26.9319  -20.9230  -12.9984 C   0  0  2  0  0  0  0  0  0  0  0  0
   25.9492  -20.0789  -13.6842 N   0  0  0  0  0  0  0  0  0  0  0  0
   26.4715  -21.2832  -11.6511 C   0  0  0  0  0  0  0  0  0  0  0  0
   26.8727  -22.3147  -11.1025 O   0  0  0  0  0  0  0  0  0  0  0  0
   27.2894  -18.8900   -7.1093 C   0  0  0  0  0  0  0  0  0  0  0  0
   26.9338  -20.0419   -8.0368 C   0  0  1  0  0  0  0  0  0  0  0  0
   26.9722  -21.3037   -7.1985 C   0  0  0  0  0  0  0  0  0  0  0  0
   25.5478  -19.7647   -8.5649 C   0  0  0  0  0  0  0  0  0  0  0  0
   25.1011  -20.8096   -9.5681 C   0  0  2  0  0  0  0  0  0  0  0  0
   25.5502  -20.4833  -10.9020 N   0  0  0  0  0  0  0  0  0  0  0  0
   23.6302  -20.8577   -9.5674 C   0  0  0  0  0  0  0  0  0  0  0  0
   22.9554  -21.3781   -8.4880 O   0  0  0  0  0  0  0  0  0  0  0  0
   22.9898  -20.4253  -10.5490 O   0  0  0  0  0  0  0  0  0  0  0  0
  1  2  1  0
  3  2  1  0
  4  3  1  0
  5  4  1  0
  5  1  1  0
  6  7  2  0
  5  6  1  1
  9  8  1  6
  9 11  1  0
  9 10  1  0
 12 11  1  1
 12 13  1  0
 13  6  1  0
 14 12  1  0
 14 15  2  0
 17 16  1  1
 17 18  1  0
 17 19  1  0
 20 21  1  0
 20 19  1  1
 21 14  1  0
 22 20  1  0
 23 22  1  0
 24 22  2  0
M  END
$$$$
