PLL.pdb
     RDKit          3D

 24 24  0  0  1  0  0  0  0  0999 V2000
   28.0080  -20.3423  -15.8921 N   0  0  0  0  0  0  0  0  0  0  0  0
   28.3262  -19.4267  -16.9596 C   0  0  0  0  0  0  0  0  0  0  0  0
   27.6351  -18.1340  -16.6709 C   0  0  0  0  0  0  0  0  0  0  0  0
   27.1271  -18.2373  -15.2531 C   0  0  0  0  0  0  0  0  0  0  0  0
   27.5899  -19.5892  -14.7618 C   0  0  1  0  0  0  0  0  0  0  0  0
   26.4753  -20.2523  -14.0090 C   0  0  0  0  0  0  0  0  0  0  0  0
   25.9616  -21.3027  -14.4726 O   0  0  0  0  0  0  0  0  0  0  0  0
   26.2932  -21.9761   -9.9899 C   0  0  0  0  0  0  0  0  0  0  0  0
   26.2566  -20.4366   -9.9678 C   0  0  2  0  0  0  0  0  0  0  0  0
   26.3514  -20.0465   -8.5091 C   0  0  0  0  0  0  0  0  0  0  0  0
   24.9719  -20.0355  -10.5958 C   0  0  0  0  0  0  0  0  0  0  0  0
   24.8495  -20.2846  -12.0627 C   0  0  2  0  0  0  0  0  0  0  0  0
   25.9913  -19.7150  -12.7840 N   0  0  0  0  0  0  0  0  0  0  0  0
   23.5790  -19.8709  -12.6721 C   0  0  0  0  0  0  0  0  0  0  0  0
   23.1107  -18.7489  -12.4534 O   0  0  0  0  0  0  0  0  0  0  0  0
   20.6574  -22.8637  -16.1742 C   0  0  0  0  0  0  0  0  0  0  0  0
   21.9767  -22.1736  -15.8632 C   0  0  1  0  0  0  0  0  0  0  0  0
   22.8904  -22.4282  -17.0450 C   0  0  0  0  0  0  0  0  0  0  0  0
   21.6725  -20.7048  -15.6992 C   0  0  0  0  0  0  0  0  0  0  0  0
   21.6292  -20.2915  -14.2414 C   0  0  2  0  0  0  0  0  0  0  0  0
   22.8172  -20.7186  -13.5386 N   0  0  0  0  0  0  0  0  0  0  0  0
   20.4592  -20.9244  -13.6120 C   0  0  0  0  0  0  0  0  0  0  0  0
   19.1881  -20.5521  -13.9823 O   0  0  0  0  0  0  0  0  0  0  0  0
   20.6178  -21.8031  -12.7382 O   0  0  0  0  0  0  0  0  0  0  0  0
  1  2  1  0
  3  2  1  0
  4  3  1  0
  5  4  1  0
  5  1  1  0
  6  7  2  0
  5  6  1  6
  9  8  1  1
  9 11  1  0
  9 10  1  0
 12 11  1  1
 12 13  1  0
 13  6  1  0
 14 12  1  0
 14 15  2  0
 17 16  1  6
 17 18  1  0
 17 19  1  0
 20 21  1  0
 20 19  1  6
 21 14  1  0
 22 20  1  0
 23 22  1  0
 24 22  2  0
M  END
$$$$
