PLL.pdb
     RDKit          3D

 24 24  0  0  1  0  0  0  0  0999 V2000
   15.2701  -22.0148    2.7990 N   0  0  0  0  0  0  0  0  0  0  0  0
   13.9144  -22.0097    3.2899 C   0  0  0  0  0  0  0  0  0  0  0  0
   13.5119  -20.5862    3.4989 C   0  0  0  0  0  0  0  0  0  0  0  0
   14.5847  -19.7470    2.8480 C   0  0  0  0  0  0  0  0  0  0  0  0
   15.5539  -20.7372    2.2453 C   0  0  1  0  0  0  0  0  0  0  0  0
   16.9580  -20.2892    2.5221 C   0  0  0  0  0  0  0  0  0  0  0  0
   17.6394  -20.9028    3.3831 O   0  0  0  0  0  0  0  0  0  0  0  0
   20.8949  -16.2092    0.4533 C   0  0  0  0  0  0  0  0  0  0  0  0
   20.9024  -17.6497    0.9980 C   0  0  2  0  0  0  0  0  0  0  0  0
   21.8995  -18.4038    0.1457 C   0  0  0  0  0  0  0  0  0  0  0  0
   19.5146  -18.1605    0.8607 C   0  0  0  0  0  0  0  0  0  0  0  0
   18.8810  -18.6890    2.1048 C   0  0  2  0  0  0  0  0  0  0  0  0
   17.5298  -19.1859    1.8296 N   0  0  0  0  0  0  0  0  0  0  0  0
   18.8849  -17.7762    3.2553 C   0  0  0  0  0  0  0  0  0  0  0  0
   19.9487  -17.3692    3.7336 O   0  0  0  0  0  0  0  0  0  0  0  0
   16.4137  -13.2789    3.1466 C   0  0  0  0  0  0  0  0  0  0  0  0
   17.4158  -14.3711    3.4876 C   0  0  1  0  0  0  0  0  0  0  0  0
   18.7073  -13.6744    3.8660 C   0  0  0  0  0  0  0  0  0  0  0  0
   16.8392  -15.1457    4.6470 C   0  0  0  0  0  0  0  0  0  0  0  0
   17.6676  -16.3701    4.9822 C   0  0  2  0  0  0  0  0  0  0  0  0
   17.6866  -17.3086    3.8839 N   0  0  0  0  0  0  0  0  0  0  0  0
   17.0698  -17.0310    6.1534 C   0  0  0  0  0  0  0  0  0  0  0  0
   17.0185  -16.3805    7.3639 O   0  0  0  0  0  0  0  0  0  0  0  0
   16.6066  -18.1867    6.0507 O   0  0  0  0  0  0  0  0  0  0  0  0
  1  2  1  0
  3  2  1  0
  4  3  1  0
  5  4  1  0
  5  1  1  0
  6  7  2  0
  5  6  1  1
  9  8  1  6
  9 11  1  0
  9 10  1  0
 12 11  1  6
 12 13  1  0
 13  6  1  0
 14 12  1  0
 14 15  2  0
 17 16  1  1
 17 18  1  0
 17 19  1  0
 20 21  1  0
 20 19  1  6
 21 14  1  0
 22 20  1  0
 23 22  1  0
 24 22  2  0
M  END
$$$$
