HRD.pdb
     RDKit          3D

 30 30  0  0  1  0  0  0  0  0999 V2000
   18.4889  -26.0550  -12.0336 N   0  0  0  0  0  0  0  0  0  0  0  0
   18.4775  -24.9054  -11.1184 C   0  0  1  0  0  0  0  0  0  0  0  0
   18.0275  -23.7464  -11.9863 C   0  0  0  0  0  0  0  0  0  0  0  0
   19.1381  -23.4473  -12.9255 C   0  0  0  0  0  0  0  0  0  0  0  0
   20.3342  -22.7897  -12.7040 C   0  0  0  0  0  0  0  0  0  0  0  0
   21.0503  -22.7384  -13.8345 N   0  0  0  0  0  0  0  0  0  0  0  0
   20.3479  -23.3487  -14.7888 C   0  0  0  0  0  0  0  0  0  0  0  0
   19.1865  -23.7821  -14.2475 N   0  0  0  0  0  0  0  0  0  0  0  0
   17.5228  -25.2061  -10.0406 C   0  0  0  0  0  0  0  0  0  0  0  0
   16.3906  -25.6379  -10.3481 O   0  0  0  0  0  0  0  0  0  0  0  0
   15.0091  -22.8975   -2.9992 N   0  0  0  0  0  0  0  0  0  0  0  0
   14.5775  -24.2128   -2.7466 C   0  0  0  0  0  0  0  0  0  0  0  0
   13.3664  -24.4319   -2.3404 N   0  0  0  0  0  0  0  0  0  0  0  0
   15.4302  -25.3361   -2.9189 N   0  0  0  0  0  0  0  0  0  0  0  0
   16.5359  -25.3145   -3.8493 C   0  0  0  0  0  0  0  0  0  0  0  0
   16.0710  -25.1696   -5.2878 C   0  0  0  0  0  0  0  0  0  0  0  0
   17.1812  -25.2554   -6.2921 C   0  0  0  0  0  0  0  0  0  0  0  0
   16.7038  -25.0549   -7.6641 C   0  0  2  0  0  0  0  0  0  0  0  0
   17.7616  -25.0522   -8.6673 N   0  0  0  0  0  0  0  0  0  0  0  0
   15.9918  -23.7729   -7.8167 C   0  0  0  0  0  0  0  0  0  0  0  0
   16.5902  -22.6884   -7.6883 O   0  0  0  0  0  0  0  0  0  0  0  0
   12.9900  -25.3615   -2.1039 N   0  0  0  0  0  0  0  0  0  0  0  0
   14.5984  -23.6886   -8.1151 C   0  0  2  0  0  0  0  0  0  0  0  0
   13.8864  -22.4307   -8.2169 C   0  0  0  0  0  0  0  0  0  0  0  0
   13.7497  -22.1172   -9.7024 C   0  0  0  0  0  0  0  0  0  0  0  0
   12.8507  -20.9599   -9.8940 O   0  0  0  0  0  0  0  0  0  0  0  0
   11.5965  -21.1481   -9.9919 C   0  0  0  0  0  0  0  0  0  0  0  0
   12.5475  -22.5073   -7.6116 O   0  0  0  0  0  0  0  0  0  0  0  0
   12.0408  -23.7353   -7.2344 O   0  0  0  0  0  0  0  0  0  0  0  0
   13.3570  -19.6762   -9.9694 O   0  0  0  0  0  0  0  0  0  0  0  0
  2  1  1  6
  2  3  1  0
  2  9  1  0
  3  4  1  0
  4  5  2  0
  4  8  1  0
  5  6  1  0
  6  7  1  0
  8  7  2  0
  9 10  2  0
 12 11  1  0
 12 14  1  0
 13 12  2  0
 15 14  1  0
 15 16  1  0
 18 17  1  1
 17 16  1  0
 19  9  1  0
 19 18  1  0
 20 21  2  0
 20 18  1  0
 22 20  1  0
 23 27  1  0
 23 22  1  0
 23 24  1  6
 25 24  1  0
 25 26  2  0
 27 28  1  0
 29 25  1  0
 30 27  2  0
M  END
$$$$
