HRD.pdb
     RDKit          3D

 30 30  0  0  1  0  0  0  0  0999 V2000
   17.3787  -11.4321  -14.4350 N   0  0  0  0  0  0  0  0  0  0  0  0
   18.0312  -10.7749  -15.5758 C   0  0  1  0  0  0  0  0  0  0  0  0
   16.8790  -10.3357  -16.4580 C   0  0  0  0  0  0  0  0  0  0  0  0
   16.3476  -11.5536  -17.1208 C   0  0  0  0  0  0  0  0  0  0  0  0
   17.0064  -12.6961  -17.5365 C   0  0  0  0  0  0  0  0  0  0  0  0
   16.1404  -13.5534  -18.0919 N   0  0  0  0  0  0  0  0  0  0  0  0
   14.9308  -12.9955  -18.0472 C   0  0  0  0  0  0  0  0  0  0  0  0
   15.0460  -11.7824  -17.4601 N   0  0  0  0  0  0  0  0  0  0  0  0
   18.8036   -9.6386  -15.0505 C   0  0  0  0  0  0  0  0  0  0  0  0
   18.3193   -8.9692  -14.1124 O   0  0  0  0  0  0  0  0  0  0  0  0
   27.1618   -9.9710  -15.4525 N   0  0  0  0  0  0  0  0  0  0  0  0
   26.2826  -10.5475  -16.3877 C   0  0  0  0  0  0  0  0  0  0  0  0
   26.7197  -11.4275  -17.2330 N   0  0  0  0  0  0  0  0  0  0  0  0
   24.9068  -10.1982  -16.4495 N   0  0  0  0  0  0  0  0  0  0  0  0
   24.3041   -9.3121  -15.4798 C   0  0  0  0  0  0  0  0  0  0  0  0
   22.8286   -9.0807  -15.7550 C   0  0  0  0  0  0  0  0  0  0  0  0
   22.1572   -8.2003  -14.7437 C   0  0  0  0  0  0  0  0  0  0  0  0
   20.7304   -8.0174  -15.0288 C   0  0  2  0  0  0  0  0  0  0  0  0
   20.0611   -9.2202  -15.5092 N   0  0  0  0  0  0  0  0  0  0  0  0
   20.5029   -6.9845  -16.0560 C   0  0  0  0  0  0  0  0  0  0  0  0
   20.6823   -7.2312  -17.2634 O   0  0  0  0  0  0  0  0  0  0  0  0
   26.1284  -11.9253  -17.9145 N   0  0  0  0  0  0  0  0  0  0  0  0
   20.0715   -5.6601  -15.7441 C   0  0  1  0  0  0  0  0  0  0  0  0
   19.8349   -4.6474  -16.7531 C   0  0  0  0  0  0  0  0  0  0  0  0
   18.9732   -3.5691  -16.1062 C   0  0  0  0  0  0  0  0  0  0  0  0
   17.6427   -4.1187  -15.7718 O   0  0  0  0  0  0  0  0  0  0  0  0
   17.0501   -4.8786  -16.6021 C   0  0  0  0  0  0  0  0  0  0  0  0
   21.0894   -4.0448  -17.2307 O   0  0  0  0  0  0  0  0  0  0  0  0
   21.0732   -3.2384  -18.3515 O   0  0  0  0  0  0  0  0  0  0  0  0
   17.0345   -3.8153  -14.5685 O   0  0  0  0  0  0  0  0  0  0  0  0
  2  1  1  1
  2  3  1  0
  2  9  1  0
  3  4  1  0
  4  5  2  0
  4  8  1  0
  5  6  1  0
  6  7  1  0
  8  7  2  0
  9 10  2  0
 12 11  1  0
 12 14  1  0
 13 12  2  0
 15 14  1  0
 15 16  1  0
 18 17  1  6
 17 16  1  0
 19  9  1  0
 19 18  1  0
 20 21  2  0
 20 18  1  0
 22 20  1  0
 23 27  1  0
 23 22  1  0
 23 24  1  6
 25 24  1  0
 25 26  2  0
 27 28  1  0
 29 25  1  0
 30 27  2  0
M  END
$$$$
