HRD.pdb
     RDKit          3D

 30 30  0  0  1  0  0  0  0  0999 V2000
   22.1304  -18.0806  -17.9282 N   0  0  0  0  0  0  0  0  0  0  0  0
   22.3810  -18.5040  -16.5436 C   0  0  1  0  0  0  0  0  0  0  0  0
   21.2155  -17.9272  -15.7640 C   0  0  0  0  0  0  0  0  0  0  0  0
   21.4381  -16.4624  -15.6656 C   0  0  0  0  0  0  0  0  0  0  0  0
   22.6121  -15.7363  -15.7479 C   0  0  0  0  0  0  0  0  0  0  0  0
   22.3588  -14.4292  -15.6033 N   0  0  0  0  0  0  0  0  0  0  0  0
   21.0451  -14.2865  -15.4288 C   0  0  0  0  0  0  0  0  0  0  0  0
   20.4779  -15.5139  -15.4649 N   0  0  0  0  0  0  0  0  0  0  0  0
   22.3981  -19.9747  -16.5258 C   0  0  0  0  0  0  0  0  0  0  0  0
   21.4125  -20.5896  -16.9875 O   0  0  0  0  0  0  0  0  0  0  0  0
   29.3183  -24.9581  -16.2297 N   0  0  0  0  0  0  0  0  0  0  0  0
   28.0244  -25.5103  -16.1986 C   0  0  0  0  0  0  0  0  0  0  0  0
   27.8603  -26.7646  -15.9161 N   0  0  0  0  0  0  0  0  0  0  0  0
   26.8641  -24.7371  -16.4715 N   0  0  0  0  0  0  0  0  0  0  0  0
   26.9425  -23.3196  -16.7420 C   0  0  0  0  0  0  0  0  0  0  0  0
   25.5706  -22.6956  -16.9291 C   0  0  0  0  0  0  0  0  0  0  0  0
   24.6556  -22.8880  -15.7568 C   0  0  0  0  0  0  0  0  0  0  0  0
   23.3594  -22.2303  -15.9520 C   0  0  2  0  0  0  0  0  0  0  0  0
   23.4360  -20.7765  -16.0292 N   0  0  0  0  0  0  0  0  0  0  0  0
   22.4189  -22.5332  -14.8578 C   0  0  0  0  0  0  0  0  0  0  0  0
   22.4344  -21.8769  -13.7995 O   0  0  0  0  0  0  0  0  0  0  0  0
   26.9485  -27.2442  -15.9002 N   0  0  0  0  0  0  0  0  0  0  0  0
   21.4476  -23.5764  -14.9343 C   0  0  1  0  0  0  0  0  0  0  0  0
   20.4902  -23.8441  -13.8801 C   0  0  0  0  0  0  0  0  0  0  0  0
   19.6495  -22.5836  -13.7135 C   0  0  0  0  0  0  0  0  0  0  0  0
   18.5617  -22.8263  -12.7429 O   0  0  0  0  0  0  0  0  0  0  0  0
   18.7470  -23.6388  -11.7819 C   0  0  0  0  0  0  0  0  0  0  0  0
   19.6095  -24.9748  -14.2128 O   0  0  0  0  0  0  0  0  0  0  0  0
   19.0960  -25.7585  -13.1983 O   0  0  0  0  0  0  0  0  0  0  0  0
   17.3454  -22.1821  -12.8683 O   0  0  0  0  0  0  0  0  0  0  0  0
  2  1  1  6
  2  3  1  0
  2  9  1  0
  3  4  1  0
  4  5  2  0
  4  8  1  0
  5  6  1  0
  6  7  1  0
  8  7  2  0
  9 10  2  0
 12 11  1  0
 12 14  1  0
 13 12  2  0
 15 14  1  0
 15 16  1  0
 18 17  1  1
 17 16  1  0
 19  9  1  0
 19 18  1  0
 20 21  2  0
 20 18  1  0
 22 20  1  0
 23 27  1  0
 23 22  1  0
 23 24  1  6
 25 24  1  0
 25 26  2  0
 27 28  1  0
 29 25  1  0
 30 27  2  0
M  END
$$$$
