HRD.pdb
     RDKit          3D

 30 30  0  0  1  0  0  0  0  0999 V2000
   27.0037  -19.3745  -18.4794 N   0  0  0  0  0  0  0  0  0  0  0  0
   26.2047  -18.7012  -17.4462 C   0  0  1  0  0  0  0  0  0  0  0  0
   25.3870  -17.6829  -18.2164 C   0  0  0  0  0  0  0  0  0  0  0  0
   26.2892  -16.5464  -18.5313 C   0  0  0  0  0  0  0  0  0  0  0  0
   27.6252  -16.3632  -18.2247 C   0  0  0  0  0  0  0  0  0  0  0  0
   28.0523  -15.1869  -18.7014 N   0  0  0  0  0  0  0  0  0  0  0  0
   27.0244  -14.5986  -19.3129 C   0  0  0  0  0  0  0  0  0  0  0  0
   25.9505  -15.4152  -19.2151 N   0  0  0  0  0  0  0  0  0  0  0  0
   25.3675  -19.7221  -16.7977 C   0  0  0  0  0  0  0  0  0  0  0  0
   24.8815  -20.6328  -17.5029 O   0  0  0  0  0  0  0  0  0  0  0  0
   26.2848  -19.6314   -9.4543 N   0  0  0  0  0  0  0  0  0  0  0  0
   25.5258  -20.8044   -9.6211 C   0  0  0  0  0  0  0  0  0  0  0  0
   24.6383  -21.1349   -8.7362 N   0  0  0  0  0  0  0  0  0  0  0  0
   25.6944  -21.6629  -10.7405 N   0  0  0  0  0  0  0  0  0  0  0  0
   26.5742  -21.3202  -11.8347 C   0  0  0  0  0  0  0  0  0  0  0  0
   25.8367  -20.6271  -12.9670 C   0  0  0  0  0  0  0  0  0  0  0  0
   24.9047  -21.5283  -13.7205 C   0  0  0  0  0  0  0  0  0  0  0  0
   24.2497  -20.8390  -14.8370 C   0  0  2  0  0  0  0  0  0  0  0  0
   25.0513  -19.7768  -15.4325 N   0  0  0  0  0  0  0  0  0  0  0  0
   22.9796  -20.2125  -14.4273 C   0  0  0  0  0  0  0  0  0  0  0  0
   22.9697  -19.1847  -13.7241 O   0  0  0  0  0  0  0  0  0  0  0  0
   24.0424  -21.9736   -8.7931 N   0  0  0  0  0  0  0  0  0  0  0  0
   21.7023  -20.7294  -14.7999 C   0  0  1  0  0  0  0  0  0  0  0  0
   20.4528  -20.1290  -14.3784 C   0  0  0  0  0  0  0  0  0  0  0  0
   19.4097  -20.4910  -15.4294 C   0  0  0  0  0  0  0  0  0  0  0  0
   19.6000  -19.6610  -16.6372 O   0  0  0  0  0  0  0  0  0  0  0  0
   20.4595  -18.7233  -16.6261 C   0  0  0  0  0  0  0  0  0  0  0  0
   20.0162  -20.6335  -13.0670 O   0  0  0  0  0  0  0  0  0  0  0  0
   20.5816  -21.7865  -12.5592 O   0  0  0  0  0  0  0  0  0  0  0  0
   18.8542  -19.8907  -17.7778 O   0  0  0  0  0  0  0  0  0  0  0  0
  2  1  1  6
  2  3  1  0
  2  9  1  0
  3  4  1  0
  4  5  2  0
  4  8  1  0
  5  6  1  0
  6  7  1  0
  8  7  2  0
  9 10  2  0
 12 11  1  0
 12 14  1  0
 13 12  2  0
 15 14  1  0
 15 16  1  0
 18 17  1  1
 17 16  1  0
 19  9  1  0
 19 18  1  0
 20 21  2  0
 20 18  1  0
 22 20  1  0
 23 27  1  0
 23 22  1  0
 23 24  1  1
 25 24  1  0
 25 26  2  0
 27 28  1  0
 29 25  1  0
 30 27  2  0
M  END
$$$$
