HRD.pdb
     RDKit          3D

 30 30  0  0  1  0  0  0  0  0999 V2000
   13.9791  -22.9642   -4.4230 N   0  0  0  0  0  0  0  0  0  0  0  0
   13.7434  -23.9130   -3.3260 C   0  0  1  0  0  0  0  0  0  0  0  0
   14.9274  -24.8578   -3.3936 C   0  0  0  0  0  0  0  0  0  0  0  0
   14.6796  -25.7882   -4.5241 C   0  0  0  0  0  0  0  0  0  0  0  0
   13.9405  -26.9561   -4.5658 C   0  0  0  0  0  0  0  0  0  0  0  0
   13.9823  -27.4866   -5.7947 N   0  0  0  0  0  0  0  0  0  0  0  0
   14.7322  -26.6899   -6.5561 C   0  0  0  0  0  0  0  0  0  0  0  0
   15.1599  -25.6571   -5.7945 N   0  0  0  0  0  0  0  0  0  0  0  0
   13.7079  -23.1428   -2.0734 C   0  0  0  0  0  0  0  0  0  0  0  0
   14.5892  -22.2780   -1.8782 O   0  0  0  0  0  0  0  0  0  0  0  0
    6.4594  -20.6954    1.9752 N   0  0  0  0  0  0  0  0  0  0  0  0
    6.9623  -20.0261    0.8443 C   0  0  0  0  0  0  0  0  0  0  0  0
    6.2529  -19.1101    0.2631 N   0  0  0  0  0  0  0  0  0  0  0  0
    8.2408  -20.3180    0.2976 N   0  0  0  0  0  0  0  0  0  0  0  0
    9.1014  -21.3255    0.8747 C   0  0  0  0  0  0  0  0  0  0  0  0
   10.4815  -21.3308    0.2411 C   0  0  0  0  0  0  0  0  0  0  0  0
   11.3886  -22.3964    0.7800 C   0  0  0  0  0  0  0  0  0  0  0  0
   12.6930  -22.4046    0.1098 C   0  0  2  0  0  0  0  0  0  0  0  0
   12.7601  -23.2858   -1.0497 N   0  0  0  0  0  0  0  0  0  0  0  0
   13.7736  -22.8363    1.0151 C   0  0  0  0  0  0  0  0  0  0  0  0
   14.1771  -24.0144    1.0150 O   0  0  0  0  0  0  0  0  0  0  0  0
    6.5819  -18.5278   -0.5207 N   0  0  0  0  0  0  0  0  0  0  0  0
   14.4171  -21.9533    1.9336 C   0  0  2  0  0  0  0  0  0  0  0  0
   15.4551  -22.3834    2.8485 C   0  0  0  0  0  0  0  0  0  0  0  0
   16.4839  -21.2604    2.9121 C   0  0  0  0  0  0  0  0  0  0  0  0
   17.5616  -21.6153    3.8592 O   0  0  0  0  0  0  0  0  0  0  0  0
   18.1693  -20.6950    4.4929 C   0  0  0  0  0  0  0  0  0  0  0  0
   14.9270  -22.6351    4.1986 O   0  0  0  0  0  0  0  0  0  0  0  0
   13.6362  -22.2528    4.5063 O   0  0  0  0  0  0  0  0  0  0  0  0
   17.9174  -22.9351    4.0629 O   0  0  0  0  0  0  0  0  0  0  0  0
  2  1  1  6
  2  3  1  0
  2  9  1  0
  3  4  1  0
  4  5  2  0
  4  8  1  0
  5  6  1  0
  6  7  1  0
  8  7  2  0
  9 10  2  0
 12 11  1  0
 12 14  1  0
 13 12  2  0
 15 14  1  0
 15 16  1  0
 18 17  1  1
 17 16  1  0
 19  9  1  0
 19 18  1  0
 20 21  2  0
 20 18  1  0
 22 20  1  0
 23 27  1  0
 23 22  1  0
 23 24  1  6
 25 24  1  0
 25 26  2  0
 27 28  1  0
 29 25  1  0
 30 27  2  0
M  END
$$$$
