HRD.pdb
     RDKit          3D

 30 30  0  0  1  0  0  0  0  0999 V2000
   27.7105  -21.5423  -16.8432 N   0  0  0  0  0  0  0  0  0  0  0  0
   27.3064  -20.4373  -15.9629 C   0  0  1  0  0  0  0  0  0  0  0  0
   26.5923  -19.4706  -16.8873 C   0  0  0  0  0  0  0  0  0  0  0  0
   27.6333  -18.8015  -17.7081 C   0  0  0  0  0  0  0  0  0  0  0  0
   27.9364  -18.9499  -19.0491 C   0  0  0  0  0  0  0  0  0  0  0  0
   28.9565  -18.1497  -19.3842 N   0  0  0  0  0  0  0  0  0  0  0  0
   29.3254  -17.4818  -18.2913 C   0  0  0  0  0  0  0  0  0  0  0  0
   28.5289  -17.8703  -17.2694 N   0  0  0  0  0  0  0  0  0  0  0  0
   26.4161  -20.9938  -14.9328 C   0  0  0  0  0  0  0  0  0  0  0  0
   25.6190  -21.9003  -15.2578 O   0  0  0  0  0  0  0  0  0  0  0  0
   29.8814  -20.8674   -7.4933 N   0  0  0  0  0  0  0  0  0  0  0  0
   30.2708  -21.6988   -8.5597 C   0  0  0  0  0  0  0  0  0  0  0  0
   31.4400  -22.2581   -8.5534 N   0  0  0  0  0  0  0  0  0  0  0  0
   29.4210  -21.9563   -9.6688 N   0  0  0  0  0  0  0  0  0  0  0  0
   28.0962  -21.3858   -9.7589 C   0  0  0  0  0  0  0  0  0  0  0  0
   27.3948  -21.7682  -11.0505 C   0  0  0  0  0  0  0  0  0  0  0  0
   26.0464  -21.1332  -11.2156 C   0  0  0  0  0  0  0  0  0  0  0  0
   25.5402  -21.2562  -12.5864 C   0  0  2  0  0  0  0  0  0  0  0  0
   26.3705  -20.5983  -13.5881 N   0  0  0  0  0  0  0  0  0  0  0  0
   24.1917  -20.6777  -12.7286 C   0  0  0  0  0  0  0  0  0  0  0  0
   23.9926  -19.4627  -12.5410 O   0  0  0  0  0  0  0  0  0  0  0  0
   31.8022  -22.8604   -9.3069 N   0  0  0  0  0  0  0  0  0  0  0  0
   23.0468  -21.4531  -13.0828 C   0  0  1  0  0  0  0  0  0  0  0  0
   21.7222  -20.8848  -13.2315 C   0  0  0  0  0  0  0  0  0  0  0  0
   21.1848  -21.3581  -14.5771 C   0  0  0  0  0  0  0  0  0  0  0  0
   20.6743  -20.2069  -15.3506 O   0  0  0  0  0  0  0  0  0  0  0  0
   20.7508  -19.0362  -14.8591 C   0  0  0  0  0  0  0  0  0  0  0  0
   20.8123  -21.3264  -12.1628 O   0  0  0  0  0  0  0  0  0  0  0  0
   19.6178  -20.6613  -11.9685 O   0  0  0  0  0  0  0  0  0  0  0  0
   20.1136  -20.3878  -16.6008 O   0  0  0  0  0  0  0  0  0  0  0  0
  2  1  1  6
  2  3  1  0
  2  9  1  0
  3  4  1  0
  4  5  2  0
  4  8  1  0
  5  6  1  0
  6  7  1  0
  8  7  2  0
  9 10  2  0
 12 11  1  0
 12 14  1  0
 13 12  2  0
 15 14  1  0
 15 16  1  0
 18 17  1  1
 17 16  1  0
 19  9  1  0
 19 18  1  0
 20 21  2  0
 20 18  1  0
 22 20  1  0
 23 27  1  0
 23 22  1  0
 23 24  1  1
 25 24  1  0
 25 26  2  0
 27 28  1  0
 29 25  1  0
 30 27  2  0
M  END
$$$$
