HRD.pdb
     RDKit          3D

 30 30  0  0  1  0  0  0  0  0999 V2000
   24.5598  -14.4499  -17.5038 N   0  0  0  0  0  0  0  0  0  0  0  0
   24.6663  -13.4473  -16.4349 C   0  0  1  0  0  0  0  0  0  0  0  0
   26.1595  -13.2864  -16.2265 C   0  0  0  0  0  0  0  0  0  0  0  0
   26.6736  -14.5876  -15.7289 C   0  0  0  0  0  0  0  0  0  0  0  0
   27.3917  -15.5682  -16.3885 C   0  0  0  0  0  0  0  0  0  0  0  0
   27.6527  -16.5871  -15.5596 N   0  0  0  0  0  0  0  0  0  0  0  0
   27.1211  -16.2926  -14.3734 C   0  0  0  0  0  0  0  0  0  0  0  0
   26.5250  -15.0819  -14.4658 N   0  0  0  0  0  0  0  0  0  0  0  0
   24.0288  -12.2134  -16.9193 C   0  0  0  0  0  0  0  0  0  0  0  0
   24.2711  -11.8333  -18.0854 O   0  0  0  0  0  0  0  0  0  0  0  0
   16.1928  -12.5292  -17.7637 N   0  0  0  0  0  0  0  0  0  0  0  0
   16.7839  -12.8667  -16.5322 C   0  0  0  0  0  0  0  0  0  0  0  0
   16.1600  -13.6446  -15.7041 N   0  0  0  0  0  0  0  0  0  0  0  0
   18.0618  -12.3800  -16.1466 N   0  0  0  0  0  0  0  0  0  0  0  0
   18.9289  -11.6996  -17.0814 C   0  0  0  0  0  0  0  0  0  0  0  0
   20.2696  -11.3430  -16.4634 C   0  0  0  0  0  0  0  0  0  0  0  0
   21.1764  -10.5845  -17.3859 C   0  0  0  0  0  0  0  0  0  0  0  0
   22.4575  -10.2525  -16.7540 C   0  0  2  0  0  0  0  0  0  0  0  0
   23.1545  -11.3994  -16.1846 N   0  0  0  0  0  0  0  0  0  0  0  0
   22.2934   -9.2855  -15.6533 C   0  0  0  0  0  0  0  0  0  0  0  0
   22.2297   -9.6669  -14.4695 O   0  0  0  0  0  0  0  0  0  0  0  0
   16.5398  -13.9566  -14.7985 N   0  0  0  0  0  0  0  0  0  0  0  0
   22.1979   -7.8770  -15.8641 C   0  0  1  0  0  0  0  0  0  0  0  0
   21.9585   -6.9316  -14.7924 C   0  0  0  0  0  0  0  0  0  0  0  0
   22.3303   -5.5528  -15.3257 C   0  0  0  0  0  0  0  0  0  0  0  0
   22.0669   -4.5251  -14.2967 O   0  0  0  0  0  0  0  0  0  0  0  0
   22.7754   -4.4975  -13.2406 C   0  0  0  0  0  0  0  0  0  0  0  0
   20.5489   -6.9253  -14.3708 O   0  0  0  0  0  0  0  0  0  0  0  0
   20.2328   -6.6348  -13.0583 O   0  0  0  0  0  0  0  0  0  0  0  0
   21.0590   -3.5952  -14.4680 O   0  0  0  0  0  0  0  0  0  0  0  0
  2  1  1  6
  2  3  1  0
  2  9  1  0
  3  4  1  0
  4  5  2  0
  4  8  1  0
  5  6  1  0
  6  7  1  0
  8  7  2  0
  9 10  2  0
 12 11  1  0
 12 14  1  0
 13 12  2  0
 15 14  1  0
 15 16  1  0
 18 17  1  1
 17 16  1  0
 19  9  1  0
 19 18  1  0
 20 21  2  0
 20 18  1  0
 22 20  1  0
 23 27  1  0
 23 22  1  0
 23 24  1  6
 25 24  1  0
 25 26  2  0
 27 28  1  0
 29 25  1  0
 30 27  2  0
M  END
$$$$
