HRD.pdb
     RDKit          3D

 30 30  0  0  1  0  0  0  0  0999 V2000
   22.5085  -17.4142  -20.1022 N   0  0  0  0  0  0  0  0  0  0  0  0
   22.2039  -17.0591  -18.7093 C   0  0  1  0  0  0  0  0  0  0  0  0
   20.8395  -16.4022  -18.7852 C   0  0  0  0  0  0  0  0  0  0  0  0
   21.0522  -15.0052  -19.2415 C   0  0  0  0  0  0  0  0  0  0  0  0
   21.2849  -13.8577  -18.5059 C   0  0  0  0  0  0  0  0  0  0  0  0
   21.4195  -12.8043  -19.3219 N   0  0  0  0  0  0  0  0  0  0  0  0
   21.2802  -13.2396  -20.5739 C   0  0  0  0  0  0  0  0  0  0  0  0
   21.0570  -14.5731  -20.5358 N   0  0  0  0  0  0  0  0  0  0  0  0
   22.1868  -18.3050  -17.9276 C   0  0  0  0  0  0  0  0  0  0  0  0
   21.5092  -19.2667  -18.3504 O   0  0  0  0  0  0  0  0  0  0  0  0
   28.3240  -20.7038  -14.8647 N   0  0  0  0  0  0  0  0  0  0  0  0
   27.1177  -21.3681  -14.5759 C   0  0  0  0  0  0  0  0  0  0  0  0
   26.8803  -22.5349  -15.0879 N   0  0  0  0  0  0  0  0  0  0  0  0
   26.1253  -20.8030  -13.7307 N   0  0  0  0  0  0  0  0  0  0  0  0
   24.9447  -21.5427  -13.3460 C   0  0  0  0  0  0  0  0  0  0  0  0
   23.7612  -21.2423  -14.2491 C   0  0  0  0  0  0  0  0  0  0  0  0
   23.9268  -19.9957  -15.0658 C   0  0  0  0  0  0  0  0  0  0  0  0
   22.8015  -19.7796  -15.9811 C   0  0  2  0  0  0  0  0  0  0  0  0
   22.8716  -18.5272  -16.7242 N   0  0  0  0  0  0  0  0  0  0  0  0
   21.5101  -19.7619  -15.2701 C   0  0  0  0  0  0  0  0  0  0  0  0
   21.2148  -18.8278  -14.5012 O   0  0  0  0  0  0  0  0  0  0  0  0
   26.0586  -23.1143  -14.8624 N   0  0  0  0  0  0  0  0  0  0  0  0
   20.5315  -20.7914  -15.4107 C   0  0  2  0  0  0  0  0  0  0  0  0
   19.2436  -20.7538  -14.7476 C   0  0  0  0  0  0  0  0  0  0  0  0
   18.3976  -21.8652  -15.3582 C   0  0  0  0  0  0  0  0  0  0  0  0
   17.0383  -21.8421  -14.7784 O   0  0  0  0  0  0  0  0  0  0  0  0
   16.7182  -20.9186  -13.9644 C   0  0  0  0  0  0  0  0  0  0  0  0
   19.3657  -20.9770  -13.2984 O   0  0  0  0  0  0  0  0  0  0  0  0
   18.6268  -20.2022  -12.4262 O   0  0  0  0  0  0  0  0  0  0  0  0
   16.1120  -22.8129  -15.1092 O   0  0  0  0  0  0  0  0  0  0  0  0
  2  1  1  6
  2  3  1  0
  2  9  1  0
  3  4  1  0
  4  5  2  0
  4  8  1  0
  5  6  1  0
  6  7  1  0
  8  7  2  0
  9 10  2  0
 12 11  1  0
 12 14  1  0
 13 12  2  0
 15 14  1  0
 15 16  1  0
 18 17  1  1
 17 16  1  0
 19  9  1  0
 19 18  1  0
 20 21  2  0
 20 18  1  0
 22 20  1  0
 23 27  1  0
 23 22  1  0
 23 24  1  6
 25 24  1  0
 25 26  2  0
 27 28  1  0
 29 25  1  0
 30 27  2  0
M  END
$$$$
