HRD.pdb
     RDKit          3D

 30 30  0  0  1  0  0  0  0  0999 V2000
   26.6055  -18.4382  -18.8591 N   0  0  0  0  0  0  0  0  0  0  0  0
   25.2823  -18.0986  -18.3178 C   0  0  1  0  0  0  0  0  0  0  0  0
   24.3523  -18.2250  -19.5086 C   0  0  0  0  0  0  0  0  0  0  0  0
   24.6650  -17.1018  -20.4281 C   0  0  0  0  0  0  0  0  0  0  0  0
   24.1339  -15.8262  -20.4828 C   0  0  0  0  0  0  0  0  0  0  0  0
   24.7038  -15.1298  -21.4746 N   0  0  0  0  0  0  0  0  0  0  0  0
   25.5957  -15.9230  -22.0679 C   0  0  0  0  0  0  0  0  0  0  0  0
   25.5795  -17.1212  -21.4406 N   0  0  0  0  0  0  0  0  0  0  0  0
   24.9747  -19.0699  -17.2569 C   0  0  0  0  0  0  0  0  0  0  0  0
   24.0428  -19.8824  -17.4421 O   0  0  0  0  0  0  0  0  0  0  0  0
   25.3656  -19.3929   -9.2200 N   0  0  0  0  0  0  0  0  0  0  0  0
   25.2243  -20.7914   -9.2828 C   0  0  0  0  0  0  0  0  0  0  0  0
   24.5285  -21.4147   -8.3843 N   0  0  0  0  0  0  0  0  0  0  0  0
   25.8259  -21.5683  -10.3091 N   0  0  0  0  0  0  0  0  0  0  0  0
   26.4621  -20.9542  -11.4522 C   0  0  0  0  0  0  0  0  0  0  0  0
   25.5099  -20.8051  -12.6259 C   0  0  0  0  0  0  0  0  0  0  0  0
   26.1204  -20.1263  -13.8155 C   0  0  0  0  0  0  0  0  0  0  0  0
   25.1905  -20.0488  -14.9468 C   0  0  2  0  0  0  0  0  0  0  0  0
   25.6389  -19.1778  -16.0265 N   0  0  0  0  0  0  0  0  0  0  0  0
   23.8670  -19.5447  -14.5371 C   0  0  0  0  0  0  0  0  0  0  0  0
   23.7464  -18.4330  -13.9889 O   0  0  0  0  0  0  0  0  0  0  0  0
   24.3791  -22.4341   -8.3661 N   0  0  0  0  0  0  0  0  0  0  0  0
   22.6597  -20.2798  -14.7360 C   0  0  2  0  0  0  0  0  0  0  0  0
   21.3776  -19.8505  -14.2149 C   0  0  0  0  0  0  0  0  0  0  0  0
   20.4333  -19.7278  -15.4052 C   0  0  0  0  0  0  0  0  0  0  0  0
   19.0772  -19.3697  -14.9396 O   0  0  0  0  0  0  0  0  0  0  0  0
   18.1900  -20.2750  -14.8332 C   0  0  0  0  0  0  0  0  0  0  0  0
   20.8242  -20.8174  -13.2537 O   0  0  0  0  0  0  0  0  0  0  0  0
   21.1659  -22.1513  -13.3576 O   0  0  0  0  0  0  0  0  0  0  0  0
   18.7615  -18.0627  -14.6200 O   0  0  0  0  0  0  0  0  0  0  0  0
  2  1  1  6
  2  3  1  0
  2  9  1  0
  3  4  1  0
  4  5  2  0
  4  8  1  0
  5  6  1  0
  6  7  1  0
  8  7  2  0
  9 10  2  0
 12 11  1  0
 12 14  1  0
 13 12  2  0
 15 14  1  0
 15 16  1  0
 18 17  1  1
 17 16  1  0
 19  9  1  0
 19 18  1  0
 20 21  2  0
 20 18  1  0
 22 20  1  0
 23 27  1  0
 23 22  1  0
 23 24  1  6
 25 24  1  0
 25 26  2  0
 27 28  1  0
 29 25  1  0
 30 27  2  0
M  END
$$$$
