HRD.pdb
     RDKit          3D

 30 30  0  0  1  0  0  0  0  0999 V2000
   39.0261  -10.7034   -5.8755 N   0  0  0  0  0  0  0  0  0  0  0  0
   39.8823  -10.0925   -6.9017 C   0  0  1  0  0  0  0  0  0  0  0  0
   39.3760   -8.6671   -7.0048 C   0  0  0  0  0  0  0  0  0  0  0  0
   38.1541   -8.6975   -7.8480 C   0  0  0  0  0  0  0  0  0  0  0  0
   36.8433   -8.4028   -7.5210 C   0  0  0  0  0  0  0  0  0  0  0  0
   36.0525   -8.5627   -8.5899 N   0  0  0  0  0  0  0  0  0  0  0  0
   36.8188   -8.9550   -9.6075 C   0  0  0  0  0  0  0  0  0  0  0  0
   38.0951   -9.0398   -9.1676 N   0  0  0  0  0  0  0  0  0  0  0  0
   41.2705  -10.1640   -6.4210 C   0  0  0  0  0  0  0  0  0  0  0  0
   41.4858  -10.0429   -5.1955 O   0  0  0  0  0  0  0  0  0  0  0  0
   47.8814  -15.3133   -8.1140 N   0  0  0  0  0  0  0  0  0  0  0  0
   46.8631  -15.2622   -7.1442 C   0  0  0  0  0  0  0  0  0  0  0  0
   46.4724  -16.3486   -6.5551 N   0  0  0  0  0  0  0  0  0  0  0  0
   46.2285  -14.0456   -6.7756 N   0  0  0  0  0  0  0  0  0  0  0  0
   46.7634  -12.7613   -7.1669 C   0  0  0  0  0  0  0  0  0  0  0  0
   45.9262  -11.6083   -6.6414 C   0  0  0  0  0  0  0  0  0  0  0  0
   44.5092  -11.6191   -7.1316 C   0  0  0  0  0  0  0  0  0  0  0  0
   43.7595  -10.4404   -6.6853 C   0  0  2  0  0  0  0  0  0  0  0  0
   42.4060  -10.3587   -7.2207 N   0  0  0  0  0  0  0  0  0  0  0  0
   44.4288   -9.1847   -7.0712 C   0  0  0  0  0  0  0  0  0  0  0  0
   44.4221   -8.7921   -8.2530 O   0  0  0  0  0  0  0  0  0  0  0  0
   45.7642  -16.3840   -5.8074 N   0  0  0  0  0  0  0  0  0  0  0  0
   45.1153   -8.3513   -6.1376 C   0  0  2  0  0  0  0  0  0  0  0  0
   45.7292   -7.0912   -6.5051 C   0  0  0  0  0  0  0  0  0  0  0  0
   45.3011   -6.0675   -5.4599 C   0  0  0  0  0  0  0  0  0  0  0  0
   45.8560   -4.7396   -5.7963 O   0  0  0  0  0  0  0  0  0  0  0  0
   45.2198   -3.6900   -5.4623 C   0  0  0  0  0  0  0  0  0  0  0  0
   47.1977   -7.1810   -6.5238 O   0  0  0  0  0  0  0  0  0  0  0  0
   47.8248   -8.2111   -5.8511 O   0  0  0  0  0  0  0  0  0  0  0  0
   47.0569   -4.6253   -6.4705 O   0  0  0  0  0  0  0  0  0  0  0  0
  2  1  1  1
  2  3  1  0
  2  9  1  0
  3  4  1  0
  4  5  2  0
  4  8  1  0
  5  6  1  0
  6  7  1  0
  8  7  2  0
  9 10  2  0
 12 11  1  0
 12 14  1  0
 13 12  2  0
 15 14  1  0
 15 16  1  0
 18 17  1  6
 17 16  1  0
 19  9  1  0
 19 18  1  0
 20 21  2  0
 20 18  1  0
 22 20  1  0
 23 27  1  0
 23 22  1  0
 23 24  1  1
 25 24  1  0
 25 26  2  0
 27 28  1  0
 29 25  1  0
 30 27  2  0
M  END
$$$$
