HRD.pdb
     RDKit          3D

 30 30  0  0  1  0  0  0  0  0999 V2000
   27.8893  -10.5539  -19.4444 N   0  0  0  0  0  0  0  0  0  0  0  0
   27.8197   -9.6172  -18.3144 C   0  0  1  0  0  0  0  0  0  0  0  0
   28.7767   -8.5050  -18.6966 C   0  0  0  0  0  0  0  0  0  0  0  0
   30.1525   -9.0472  -18.5617 C   0  0  0  0  0  0  0  0  0  0  0  0
   31.1134   -9.2786  -19.5289 C   0  0  0  0  0  0  0  0  0  0  0  0
   32.2222   -9.7793  -18.9692 N   0  0  0  0  0  0  0  0  0  0  0  0
   32.0060   -9.8792  -17.6577 C   0  0  0  0  0  0  0  0  0  0  0  0
   30.7536   -9.4378  -17.4007 N   0  0  0  0  0  0  0  0  0  0  0  0
   26.4283   -9.1520  -18.2091 C   0  0  0  0  0  0  0  0  0  0  0  0
   25.8272   -8.8230  -19.2546 O   0  0  0  0  0  0  0  0  0  0  0  0
   18.9834  -11.8082  -14.2226 N   0  0  0  0  0  0  0  0  0  0  0  0
   18.6890  -10.6744  -15.0021 C   0  0  0  0  0  0  0  0  0  0  0  0
   17.4604  -10.2884  -15.1487 N   0  0  0  0  0  0  0  0  0  0  0  0
   19.7013   -9.9182  -15.6518 N   0  0  0  0  0  0  0  0  0  0  0  0
   21.1021  -10.2436  -15.5085 C   0  0  0  0  0  0  0  0  0  0  0  0
   21.9962   -9.2625  -16.2465 C   0  0  0  0  0  0  0  0  0  0  0  0
   23.4349   -9.6816  -16.3019 C   0  0  0  0  0  0  0  0  0  0  0  0
   24.2734   -8.6941  -16.9893 C   0  0  2  0  0  0  0  0  0  0  0  0
   25.6900   -9.0370  -17.0223 N   0  0  0  0  0  0  0  0  0  0  0  0
   24.1886   -7.3652  -16.3566 C   0  0  0  0  0  0  0  0  0  0  0  0
   24.7966   -7.1196  -15.2978 O   0  0  0  0  0  0  0  0  0  0  0  0
   17.1678   -9.4754  -15.7101 N   0  0  0  0  0  0  0  0  0  0  0  0
   23.4207   -6.2925  -16.9017 C   0  0  2  0  0  0  0  0  0  0  0  0
   23.3293   -4.9883  -16.2768 C   0  0  0  0  0  0  0  0  0  0  0  0
   23.1389   -3.9720  -17.3969 C   0  0  0  0  0  0  0  0  0  0  0  0
   23.0579   -2.6082  -16.8334 O   0  0  0  0  0  0  0  0  0  0  0  0
   23.1399   -2.4425  -15.5748 C   0  0  0  0  0  0  0  0  0  0  0  0
   22.1927   -4.9039  -15.3463 O   0  0  0  0  0  0  0  0  0  0  0  0
   21.2284   -5.8923  -15.3590 O   0  0  0  0  0  0  0  0  0  0  0  0
   22.8925   -1.5112  -17.6576 O   0  0  0  0  0  0  0  0  0  0  0  0
  2  1  1  6
  2  3  1  0
  2  9  1  0
  3  4  1  0
  4  5  2  0
  4  8  1  0
  5  6  1  0
  6  7  1  0
  8  7  2  0
  9 10  2  0
 12 11  1  0
 12 14  1  0
 13 12  2  0
 15 14  1  0
 15 16  1  0
 18 17  1  1
 17 16  1  0
 19  9  1  0
 19 18  1  0
 20 21  2  0
 20 18  1  0
 22 20  1  0
 23 27  1  0
 23 22  1  0
 23 24  1  6
 25 24  1  0
 25 26  2  0
 27 28  1  0
 29 25  1  0
 30 27  2  0
M  END
$$$$
