HRD.pdb
     RDKit          3D

 30 30  0  0  1  0  0  0  0  0999 V2000
   23.7045  -21.9814  -19.3730 N   0  0  0  0  0  0  0  0  0  0  0  0
   23.0876  -20.7252  -18.9251 C   0  0  1  0  0  0  0  0  0  0  0  0
   21.9365  -20.5143  -19.8893 C   0  0  0  0  0  0  0  0  0  0  0  0
   22.5267  -20.1298  -21.1965 C   0  0  0  0  0  0  0  0  0  0  0  0
   23.0235  -18.9111  -21.6211 C   0  0  0  0  0  0  0  0  0  0  0  0
   23.4623  -19.0047  -22.8829 N   0  0  0  0  0  0  0  0  0  0  0  0
   23.2632  -20.2579  -23.2908 C   0  0  0  0  0  0  0  0  0  0  0  0
   22.6961  -20.9481  -22.2751 N   0  0  0  0  0  0  0  0  0  0  0  0
   22.6334  -20.9233  -17.5402 C   0  0  0  0  0  0  0  0  0  0  0  0
   22.1074  -22.0152  -17.2339 O   0  0  0  0  0  0  0  0  0  0  0  0
   25.0757  -21.1564   -9.7604 N   0  0  0  0  0  0  0  0  0  0  0  0
   25.3091  -21.2085  -11.1470 C   0  0  0  0  0  0  0  0  0  0  0  0
   25.6154  -22.3341  -11.7121 N   0  0  0  0  0  0  0  0  0  0  0  0
   25.2242  -20.0558  -11.9733 N   0  0  0  0  0  0  0  0  0  0  0  0
   25.6286  -20.0846  -13.3606 C   0  0  0  0  0  0  0  0  0  0  0  0
   24.5257  -20.6015  -14.2678 C   0  0  0  0  0  0  0  0  0  0  0  0
   23.2202  -19.8832  -14.0999 C   0  0  0  0  0  0  0  0  0  0  0  0
   22.2561  -20.2341  -15.1477 C   0  0  2  0  0  0  0  0  0  0  0  0
   22.7336  -19.9852  -16.5025 N   0  0  0  0  0  0  0  0  0  0  0  0
   20.9974  -19.4785  -15.0121 C   0  0  0  0  0  0  0  0  0  0  0  0
   20.8061  -18.4310  -15.6579 O   0  0  0  0  0  0  0  0  0  0  0  0
   25.7089  -22.4693  -12.7293 N   0  0  0  0  0  0  0  0  0  0  0  0
   19.9352  -19.8864  -14.1502 C   0  0  1  0  0  0  0  0  0  0  0  0
   18.5709  -19.4226  -14.3027 C   0  0  0  0  0  0  0  0  0  0  0  0
   18.1404  -19.7699  -15.7232 C   0  0  0  0  0  0  0  0  0  0  0  0
   17.4964  -18.6001  -16.3563 O   0  0  0  0  0  0  0  0  0  0  0  0
   17.3782  -17.5165  -15.7005 C   0  0  0  0  0  0  0  0  0  0  0  0
   17.6603  -20.0722  -13.3468 O   0  0  0  0  0  0  0  0  0  0  0  0
   16.7092  -19.3153  -12.6915 O   0  0  0  0  0  0  0  0  0  0  0  0
   17.0198  -18.6702  -17.6517 O   0  0  0  0  0  0  0  0  0  0  0  0
  2  1  1  6
  2  3  1  0
  2  9  1  0
  3  4  1  0
  4  5  2  0
  4  8  1  0
  5  6  1  0
  6  7  1  0
  8  7  2  0
  9 10  2  0
 12 11  1  0
 12 14  1  0
 13 12  2  0
 15 14  1  0
 15 16  1  0
 18 17  1  1
 17 16  1  0
 19  9  1  0
 19 18  1  0
 20 21  2  0
 20 18  1  0
 22 20  1  0
 23 27  1  0
 23 22  1  0
 23 24  1  1
 25 24  1  0
 25 26  2  0
 27 28  1  0
 29 25  1  0
 30 27  2  0
M  END
$$$$
