HRD.pdb
     RDKit          3D

 30 30  0  0  1  0  0  0  0  0999 V2000
   27.8900  -21.6257  -14.1888 N   0  0  0  0  0  0  0  0  0  0  0  0
   26.9410  -21.1047  -13.1952 C   0  0  1  0  0  0  0  0  0  0  0  0
   27.6364  -19.8841  -12.6246 C   0  0  0  0  0  0  0  0  0  0  0  0
   28.6748  -20.3735  -11.6827 C   0  0  0  0  0  0  0  0  0  0  0  0
   30.0530  -20.3531  -11.7934 C   0  0  0  0  0  0  0  0  0  0  0  0
   30.6126  -20.9027  -10.7080 N   0  0  0  0  0  0  0  0  0  0  0  0
   29.6296  -21.2808   -9.8911 C   0  0  0  0  0  0  0  0  0  0  0  0
   28.4505  -20.9643  -10.4733 N   0  0  0  0  0  0  0  0  0  0  0  0
   25.6981  -20.7649  -13.9047 C   0  0  0  0  0  0  0  0  0  0  0  0
   25.7369  -20.6281  -15.1466 O   0  0  0  0  0  0  0  0  0  0  0  0
   22.6262  -25.4537  -14.2644 N   0  0  0  0  0  0  0  0  0  0  0  0
   21.2997  -25.5754  -14.7177 C   0  0  0  0  0  0  0  0  0  0  0  0
   20.9935  -26.4797  -15.5943 N   0  0  0  0  0  0  0  0  0  0  0  0
   20.2583  -24.7306  -14.2484 N   0  0  0  0  0  0  0  0  0  0  0  0
   20.5184  -23.6384  -13.3383 C   0  0  0  0  0  0  0  0  0  0  0  0
   21.2625  -22.4978  -14.0107 C   0  0  0  0  0  0  0  0  0  0  0  0
   22.5547  -22.1414  -13.3386 C   0  0  0  0  0  0  0  0  0  0  0  0
   23.1882  -20.9657  -13.9443 C   0  0  2  0  0  0  0  0  0  0  0  0
   24.4418  -20.5736  -13.3116 N   0  0  0  0  0  0  0  0  0  0  0  0
   22.3135  -19.7802  -13.8891 C   0  0  0  0  0  0  0  0  0  0  0  0
   21.3716  -19.7161  -13.0770 O   0  0  0  0  0  0  0  0  0  0  0  0
   20.0304  -26.7282  -15.8636 N   0  0  0  0  0  0  0  0  0  0  0  0
   22.4822  -18.6496  -14.7440 C   0  0  2  0  0  0  0  0  0  0  0  0
   21.6077  -18.3683  -15.8646 C   0  0  0  0  0  0  0  0  0  0  0  0
   21.9268  -19.3951  -16.9451 C   0  0  0  0  0  0  0  0  0  0  0  0
   21.6113  -18.8406  -18.2782 O   0  0  0  0  0  0  0  0  0  0  0  0
   21.2722  -17.6193  -18.3864 C   0  0  0  0  0  0  0  0  0  0  0  0
   20.1880  -18.4785  -15.4942 O   0  0  0  0  0  0  0  0  0  0  0  0
   19.6964  -19.6847  -15.0354 O   0  0  0  0  0  0  0  0  0  0  0  0
   21.6790  -19.6337  -19.4080 O   0  0  0  0  0  0  0  0  0  0  0  0
  2  1  1  6
  2  3  1  0
  2  9  1  0
  3  4  1  0
  4  5  2  0
  4  8  1  0
  5  6  1  0
  6  7  1  0
  8  7  2  0
  9 10  2  0
 12 11  1  0
 12 14  1  0
 13 12  2  0
 15 14  1  0
 15 16  1  0
 18 17  1  1
 17 16  1  0
 19  9  1  0
 19 18  1  0
 20 21  2  0
 20 18  1  0
 22 20  1  0
 23 27  1  0
 23 22  1  0
 23 24  1  6
 25 24  1  0
 25 26  2  0
 27 28  1  0
 29 25  1  0
 30 27  2  0
M  END
$$$$
