PPA.pdb
     RDKit          3D

 20 21  0  0  1  0  0  0  0  0999 V2000
    8.4961  -14.2736   21.0701 N   0  0  0  0  0  0  0  0  0  0  0  0
    7.8676  -15.1500   20.1184 C   0  0  0  0  0  0  0  0  0  0  0  0
    6.4031  -15.1368   20.5058 C   0  0  0  0  0  0  0  0  0  0  0  0
    6.5181  -15.1407   22.0363 C   0  0  0  0  0  0  0  0  0  0  0  0
    7.6755  -14.1881   22.2298 C   0  0  1  0  0  0  0  0  0  0  0  0
    8.3571  -14.3878   23.5146 C   0  0  0  0  0  0  0  0  0  0  0  0
    9.3912  -15.0898   23.5581 O   0  0  0  0  0  0  0  0  0  0  0  0
    7.8676  -13.7979   24.7307 N   0  0  0  0  0  0  0  0  0  0  0  0
    6.7801  -12.8494   24.7596 C   0  0  0  0  0  0  0  0  0  0  0  0
    6.6455  -12.3632   26.1906 C   0  0  0  0  0  0  0  0  0  0  0  0
    7.2626  -13.4709   26.9734 C   0  0  0  0  0  0  0  0  0  0  0  0
    8.3239  -14.0100   26.0629 C   0  0  1  0  0  0  0  0  0  0  0  0
    8.6192  -15.4348   26.3882 C   0  0  0  0  0  0  0  0  0  0  0  0
    7.7233  -16.2817   26.2164 O   0  0  0  0  0  0  0  0  0  0  0  0
   11.5860  -17.5973   26.6449 C   0  0  0  0  0  0  0  0  0  0  0  0
   10.2277  -17.2124   27.1850 C   0  0  2  0  0  0  0  0  0  0  0  0
    9.8805  -15.8509   26.8835 N   0  0  0  0  0  0  0  0  0  0  0  0
   10.0886  -17.5219   28.6289 C   0  0  0  0  0  0  0  0  0  0  0  0
   10.3334  -18.8200   29.0405 O   0  0  0  0  0  0  0  0  0  0  0  0
    9.7634  -16.6752   29.4890 O   0  0  0  0  0  0  0  0  0  0  0  0
  2  1  1  0
  3  2  1  0
  4  3  1  0
  4  5  1  0
  5  1  1  0
  5  6  1  1
  7  6  2  0
  8  6  1  0
  8  9  1  0
 10  9  1  0
 11 12  1  0
 11 10  1  0
 12  8  1  0
 12 13  1  1
 13 17  1  0
 14 13  2  0
 16 18  1  0
 16 15  1  1
 17 16  1  0
 18 19  1  0
 20 18  2  0
M  END
$$$$
