PPA.pdb
     RDKit          3D

 20 21  0  0  1  0  0  0  0  0999 V2000
    8.4753  -14.2730   21.3812 N   0  0  0  0  0  0  0  0  0  0  0  0
    7.8530  -15.2106   20.4854 C   0  0  0  0  0  0  0  0  0  0  0  0
    6.3849  -15.1674   20.8570 C   0  0  0  0  0  0  0  0  0  0  0  0
    6.4856  -15.0675   22.3853 C   0  0  0  0  0  0  0  0  0  0  0  0
    7.6441  -14.1068   22.5246 C   0  0  1  0  0  0  0  0  0  0  0  0
    8.3130  -14.2204   23.8264 C   0  0  0  0  0  0  0  0  0  0  0  0
    9.3628  -14.8936   23.9203 O   0  0  0  0  0  0  0  0  0  0  0  0
    7.7934  -13.5779   25.0028 N   0  0  0  0  0  0  0  0  0  0  0  0
    6.6666  -12.6767   24.9709 C   0  0  0  0  0  0  0  0  0  0  0  0
    6.5050  -12.1092   26.3689 C   0  0  0  0  0  0  0  0  0  0  0  0
    7.1650  -13.1392   27.2198 C   0  0  0  0  0  0  0  0  0  0  0  0
    8.2524  -13.6878   26.3465 C   0  0  1  0  0  0  0  0  0  0  0  0
    8.6064  -15.0759   26.7598 C   0  0  0  0  0  0  0  0  0  0  0  0
    7.7334  -15.9598   26.6830 O   0  0  0  0  0  0  0  0  0  0  0  0
   11.6170  -17.1593   27.0797 C   0  0  0  0  0  0  0  0  0  0  0  0
   10.2878  -16.7329   27.6594 C   0  0  2  0  0  0  0  0  0  0  0  0
    9.8980  -15.4167   27.2340 N   0  0  0  0  0  0  0  0  0  0  0  0
   10.2434  -16.8835   29.1342 C   0  0  0  0  0  0  0  0  0  0  0  0
   10.5121  -18.1318   29.6671 O   0  0  0  0  0  0  0  0  0  0  0  0
    9.9772  -15.9460   29.9171 O   0  0  0  0  0  0  0  0  0  0  0  0
  2  1  1  0
  3  2  1  0
  4  3  1  0
  4  5  1  0
  5  1  1  0
  5  6  1  1
  7  6  2  0
  8  6  1  0
  8  9  1  0
 10  9  1  0
 11 12  1  0
 11 10  1  0
 12  8  1  0
 12 13  1  1
 13 17  1  0
 14 13  2  0
 16 18  1  0
 16 15  1  1
 17 16  1  0
 18 19  1  0
 20 18  2  0
M  END
$$$$
