PPA.pdb
     RDKit          3D

 20 21  0  0  1  0  0  0  0  0999 V2000
    9.0800  -14.0105   20.9480 N   0  0  0  0  0  0  0  0  0  0  0  0
    8.4371  -14.4229   19.7292 C   0  0  0  0  0  0  0  0  0  0  0  0
    7.0484  -13.8237   19.8157 C   0  0  0  0  0  0  0  0  0  0  0  0
    6.7410  -14.0426   21.3034 C   0  0  0  0  0  0  0  0  0  0  0  0
    8.0815  -13.7070   21.9158 C   0  0  1  0  0  0  0  0  0  0  0  0
    8.2624  -14.3182   23.2382 C   0  0  0  0  0  0  0  0  0  0  0  0
    9.0183  -15.3072   23.3589 O   0  0  0  0  0  0  0  0  0  0  0  0
    7.5920  -13.8112   24.4044 N   0  0  0  0  0  0  0  0  0  0  0  0
    6.7457  -12.6424   24.3761 C   0  0  0  0  0  0  0  0  0  0  0  0
    6.3321  -12.3521   25.8068 C   0  0  0  0  0  0  0  0  0  0  0  0
    6.4863  -13.6781   26.4689 C   0  0  0  0  0  0  0  0  0  0  0  0
    7.6244  -14.3194   25.7343 C   0  0  1  0  0  0  0  0  0  0  0  0
    7.5348  -15.8050   25.8232 C   0  0  0  0  0  0  0  0  0  0  0  0
    6.4589  -16.3546   25.5238 O   0  0  0  0  0  0  0  0  0  0  0  0
    9.3138  -18.7751   25.3205 C   0  0  0  0  0  0  0  0  0  0  0  0
    8.5775  -18.0300   26.4102 C   0  0  2  0  0  0  0  0  0  0  0  0
    8.6303  -16.6046   26.2355 N   0  0  0  0  0  0  0  0  0  0  0  0
    9.0091  -18.4468   27.7666 C   0  0  0  0  0  0  0  0  0  0  0  0
    9.5456  -17.4825   28.6014 O   0  0  0  0  0  0  0  0  0  0  0  0
    8.9139  -19.6180   28.1928 O   0  0  0  0  0  0  0  0  0  0  0  0
  2  1  1  0
  3  2  1  0
  4  3  1  0
  4  5  1  0
  5  1  1  0
  5  6  1  1
  7  6  2  0
  8  6  1  0
  8  9  1  0
 10  9  1  0
 11 12  1  0
 11 10  1  0
 12  8  1  0
 12 13  1  6
 13 17  1  0
 14 13  2  0
 16 18  1  0
 16 15  1  6
 17 16  1  0
 18 19  1  0
 20 18  2  0
M  END
$$$$
