PPA.pdb
     RDKit          3D

 20 21  0  0  1  0  0  0  0  0999 V2000
    8.5509  -14.3294   21.3949 N   0  0  0  0  0  0  0  0  0  0  0  0
    7.9923  -15.3338   20.5300 C   0  0  0  0  0  0  0  0  0  0  0  0
    6.5188  -15.3547   20.8814 C   0  0  0  0  0  0  0  0  0  0  0  0
    6.5919  -15.1889   22.4055 C   0  0  0  0  0  0  0  0  0  0  0  0
    7.6956  -14.1626   22.5202 C   0  0  1  0  0  0  0  0  0  0  0  0
    8.3506  -14.1884   23.8338 C   0  0  0  0  0  0  0  0  0  0  0  0
    9.4101  -14.8368   23.9785 O   0  0  0  0  0  0  0  0  0  0  0  0
    7.8064  -13.4874   24.9646 N   0  0  0  0  0  0  0  0  0  0  0  0
    6.6613  -12.6139   24.8688 C   0  0  0  0  0  0  0  0  0  0  0  0
    6.4745  -11.9667   26.2284 C   0  0  0  0  0  0  0  0  0  0  0  0
    7.1475  -12.9291   27.1456 C   0  0  0  0  0  0  0  0  0  0  0  0
    8.2544  -13.5061   26.3163 C   0  0  1  0  0  0  0  0  0  0  0  0
    8.6332  -14.8588   26.8159 C   0  0  0  0  0  0  0  0  0  0  0  0
    7.7803  -15.7648   26.7834 O   0  0  0  0  0  0  0  0  0  0  0  0
   11.7148  -16.8202   27.3493 C   0  0  0  0  0  0  0  0  0  0  0  0
   10.3389  -16.4213   27.8315 C   0  0  2  0  0  0  0  0  0  0  0  0
    9.9262  -15.1421   27.3230 N   0  0  0  0  0  0  0  0  0  0  0  0
   10.2134  -16.5072   29.3069 C   0  0  0  0  0  0  0  0  0  0  0  0
   10.4527  -17.7303   29.9080 O   0  0  0  0  0  0  0  0  0  0  0  0
    9.9043  -15.5370   30.0319 O   0  0  0  0  0  0  0  0  0  0  0  0
  2  1  1  0
  3  2  1  0
  4  3  1  0
  4  5  1  0
  5  1  1  0
  5  6  1  1
  7  6  2  0
  8  6  1  0
  8  9  1  0
 10  9  1  0
 11 12  1  0
 11 10  1  0
 12  8  1  0
 12 13  1  1
 13 17  1  0
 14 13  2  0
 16 18  1  0
 16 15  1  1
 17 16  1  0
 18 19  1  0
 20 18  2  0
M  END
$$$$
