PPA.pdb
     RDKit          3D

 20 21  0  0  1  0  0  0  0  0999 V2000
    8.5580  -14.2447   21.3443 N   0  0  0  0  0  0  0  0  0  0  0  0
    7.8866  -15.0805   20.3854 C   0  0  0  0  0  0  0  0  0  0  0  0
    6.4149  -14.9038   20.6983 C   0  0  0  0  0  0  0  0  0  0  0  0
    6.4565  -14.8720   22.2323 C   0  0  0  0  0  0  0  0  0  0  0  0
    7.6971  -14.0387   22.4588 C   0  0  1  0  0  0  0  0  0  0  0  0
    8.2925  -14.2679   23.7809 C   0  0  0  0  0  0  0  0  0  0  0  0
    9.2464  -15.0687   23.8939 O   0  0  0  0  0  0  0  0  0  0  0  0
    7.8081  -13.5960   24.9559 N   0  0  0  0  0  0  0  0  0  0  0  0
    6.7793  -12.5847   24.9126 C   0  0  0  0  0  0  0  0  0  0  0  0
    6.6373  -12.0275   26.3168 C   0  0  0  0  0  0  0  0  0  0  0  0
    7.1662  -13.1333   27.1641 C   0  0  0  0  0  0  0  0  0  0  0  0
    8.2163  -13.7745   26.3085 C   0  0  1  0  0  0  0  0  0  0  0  0
    8.4169  -15.1981   26.7035 C   0  0  0  0  0  0  0  0  0  0  0  0
    7.4505  -15.9786   26.6248 O   0  0  0  0  0  0  0  0  0  0  0  0
   11.0708  -17.6667   26.8178 C   0  0  0  0  0  0  0  0  0  0  0  0
    9.9123  -17.0440   27.5628 C   0  0  2  0  0  0  0  0  0  0  0  0
    9.6661  -15.6860   27.1627 N   0  0  0  0  0  0  0  0  0  0  0  0
   10.0509  -17.1808   29.0332 C   0  0  0  0  0  0  0  0  0  0  0  0
   10.1819  -18.4550   29.5565 O   0  0  0  0  0  0  0  0  0  0  0  0
   10.0554  -16.2098   29.8203 O   0  0  0  0  0  0  0  0  0  0  0  0
  2  1  1  0
  3  2  1  0
  4  3  1  0
  4  5  1  0
  5  1  1  0
  5  6  1  1
  7  6  2  0
  8  6  1  0
  8  9  1  0
 10  9  1  0
 11 12  1  0
 11 10  1  0
 12  8  1  0
 12 13  1  1
 13 17  1  0
 14 13  2  0
 16 18  1  0
 16 15  1  6
 17 16  1  0
 18 19  1  0
 20 18  2  0
M  END
$$$$
