PPA.pdb
     RDKit          3D

 20 21  0  0  1  0  0  0  0  0999 V2000
    8.7766  -14.1120   21.1445 N   0  0  0  0  0  0  0  0  0  0  0  0
    8.1323  -14.8196   20.0707 C   0  0  0  0  0  0  0  0  0  0  0  0
    6.6556  -14.5506   20.2764 C   0  0  0  0  0  0  0  0  0  0  0  0
    6.5660  -14.6348   21.8063 C   0  0  0  0  0  0  0  0  0  0  0  0
    7.8393  -13.9209   22.1983 C   0  0  1  0  0  0  0  0  0  0  0  0
    8.2994  -14.2927   23.5419 C   0  0  0  0  0  0  0  0  0  0  0  0
    9.2356  -15.1127   23.6649 O   0  0  0  0  0  0  0  0  0  0  0  0
    7.7016  -13.7397   24.7265 N   0  0  0  0  0  0  0  0  0  0  0  0
    6.7017  -12.6995   24.6878 C   0  0  0  0  0  0  0  0  0  0  0  0
    6.4171  -12.2958   26.1225 C   0  0  0  0  0  0  0  0  0  0  0  0
    6.8306  -13.5032   26.8917 C   0  0  0  0  0  0  0  0  0  0  0  0
    7.9563  -14.0777   26.0863 C   0  0  1  0  0  0  0  0  0  0  0  0
    8.0872  -15.5414   26.3380 C   0  0  0  0  0  0  0  0  0  0  0  0
    7.0959  -16.2688   26.1443 O   0  0  0  0  0  0  0  0  0  0  0  0
   10.3930  -18.1806   26.0182 C   0  0  0  0  0  0  0  0  0  0  0  0
    9.4826  -17.5291   27.0338 C   0  0  2  0  0  0  0  0  0  0  0  0
    9.2980  -16.1253   26.7879 N   0  0  0  0  0  0  0  0  0  0  0  0
    9.9071  -17.8048   28.4279 C   0  0  0  0  0  0  0  0  0  0  0  0
   10.1361  -16.7247   29.2618 O   0  0  0  0  0  0  0  0  0  0  0  0
   10.0680  -18.9565   28.8866 O   0  0  0  0  0  0  0  0  0  0  0  0
  2  1  1  0
  3  2  1  0
  4  3  1  0
  4  5  1  0
  5  1  1  0
  5  6  1  1
  7  6  2  0
  8  6  1  0
  8  9  1  0
 10  9  1  0
 11 12  1  0
 11 10  1  0
 12  8  1  0
 12 13  1  6
 13 17  1  0
 14 13  2  0
 16 18  1  0
 16 15  1  6
 17 16  1  0
 18 19  1  0
 20 18  2  0
M  END
$$$$
