PPA.pdb
     RDKit          3D

 20 21  0  0  1  0  0  0  0  0999 V2000
    8.9151  -14.2877   21.7849 N   0  0  0  0  0  0  0  0  0  0  0  0
    8.3952  -15.1922   20.7948 C   0  0  0  0  0  0  0  0  0  0  0  0
    6.9028  -14.9317   20.7949 C   0  0  0  0  0  0  0  0  0  0  0  0
    6.6511  -14.7453   22.2975 C   0  0  0  0  0  0  0  0  0  0  0  0
    7.8691  -13.9384   22.6846 C   0  0  1  0  0  0  0  0  0  0  0  0
    8.1864  -14.0529   24.1134 C   0  0  0  0  0  0  0  0  0  0  0  0
    9.1204  -14.8010   24.4765 O   0  0  0  0  0  0  0  0  0  0  0  0
    7.4503  -13.3274   25.1125 N   0  0  0  0  0  0  0  0  0  0  0  0
    6.3755  -12.4198   24.7897 C   0  0  0  0  0  0  0  0  0  0  0  0
    5.9422  -11.7574   26.0842 C   0  0  0  0  0  0  0  0  0  0  0  0
    6.3883  -12.7334   27.1180 C   0  0  0  0  0  0  0  0  0  0  0  0
    7.6194  -13.3502   26.5264 C   0  0  1  0  0  0  0  0  0  0  0  0
    7.8482  -14.7103   27.0926 C   0  0  0  0  0  0  0  0  0  0  0  0
    8.2012  -14.8073   28.2823 O   0  0  0  0  0  0  0  0  0  0  0  0
    7.0566  -18.2388   25.9997 C   0  0  0  0  0  0  0  0  0  0  0  0
    7.7974  -17.2234   26.8393 C   0  0  2  0  0  0  0  0  0  0  0  0
    7.6769  -15.8879   26.3224 N   0  0  0  0  0  0  0  0  0  0  0  0
    9.2099  -17.6105   27.0734 C   0  0  0  0  0  0  0  0  0  0  0  0
    9.4550  -18.7995   27.7373 O   0  0  0  0  0  0  0  0  0  0  0  0
   10.1856  -16.9220   26.7040 O   0  0  0  0  0  0  0  0  0  0  0  0
  2  1  1  0
  3  2  1  0
  4  3  1  0
  4  5  1  0
  5  1  1  0
  5  6  1  1
  7  6  2  0
  8  6  1  0
  8  9  1  0
 10  9  1  0
 11 12  1  0
 11 10  1  0
 12  8  1  0
 12 13  1  1
 13 17  1  0
 14 13  2  0
 16 18  1  0
 16 15  1  6
 17 16  1  0
 18 19  1  0
 20 18  2  0
M  END
$$$$
