PPA.pdb
     RDKit          3D

 20 21  0  0  1  0  0  0  0  0999 V2000
    5.8057  -13.0676   26.5429 N   0  0  0  0  0  0  0  0  0  0  0  0
    6.2219  -12.1944   27.6073 C   0  0  0  0  0  0  0  0  0  0  0  0
    7.0260  -11.1137   26.9139 C   0  0  0  0  0  0  0  0  0  0  0  0
    7.7810  -11.9510   25.8724 C   0  0  0  0  0  0  0  0  0  0  0  0
    6.6909  -12.9048   25.4404 C   0  0  1  0  0  0  0  0  0  0  0  0
    7.2265  -14.1418   24.8591 C   0  0  0  0  0  0  0  0  0  0  0  0
    7.4480  -15.1232   25.6019 O   0  0  0  0  0  0  0  0  0  0  0  0
    7.5063  -14.2585   23.4538 N   0  0  0  0  0  0  0  0  0  0  0  0
    7.0840  -13.2745   22.4861 C   0  0  0  0  0  0  0  0  0  0  0  0
    7.4470  -13.8094   21.1133 C   0  0  0  0  0  0  0  0  0  0  0  0
    8.5479  -14.7674   21.4146 C   0  0  0  0  0  0  0  0  0  0  0  0
    8.2054  -15.2965   22.7743 C   0  0  1  0  0  0  0  0  0  0  0  0
    9.4326  -15.7686   23.4773 C   0  0  0  0  0  0  0  0  0  0  0  0
   10.2326  -14.9197   23.9116 O   0  0  0  0  0  0  0  0  0  0  0  0
   10.7921  -19.1268   24.6269 C   0  0  0  0  0  0  0  0  0  0  0  0
   10.8987  -17.6556   24.2970 C   0  0  2  0  0  0  0  0  0  0  0  0
    9.7134  -17.1453   23.6646 N   0  0  0  0  0  0  0  0  0  0  0  0
   12.1270  -17.3395   23.5280 C   0  0  0  0  0  0  0  0  0  0  0  0
   13.2888  -17.0881   24.2361 O   0  0  0  0  0  0  0  0  0  0  0  0
   12.1670  -17.2886   22.2797 O   0  0  0  0  0  0  0  0  0  0  0  0
  2  1  1  0
  3  2  1  0
  4  3  1  0
  4  5  1  0
  5  1  1  0
  5  6  1  1
  7  6  2  0
  8  6  1  0
  8  9  1  0
 10  9  1  0
 11 12  1  0
 11 10  1  0
 12  8  1  0
 12 13  1  1
 13 17  1  0
 14 13  2  0
 16 18  1  0
 16 15  1  6
 17 16  1  0
 18 19  1  0
 20 18  2  0
M  END
$$$$
