PPA.pdb
     RDKit          3D

 20 21  0  0  1  0  0  0  0  0999 V2000
    8.5093  -14.3947   21.4228 N   0  0  0  0  0  0  0  0  0  0  0  0
    8.0635  -15.4627   20.5688 C   0  0  0  0  0  0  0  0  0  0  0  0
    6.5897  -15.6085   20.8880 C   0  0  0  0  0  0  0  0  0  0  0  0
    6.6111  -15.4056   22.4092 C   0  0  0  0  0  0  0  0  0  0  0  0
    7.6158  -14.2823   22.5249 C   0  0  1  0  0  0  0  0  0  0  0  0
    8.2387  -14.2221   23.8528 C   0  0  0  0  0  0  0  0  0  0  0  0
    9.3237  -14.8123   24.0490 O   0  0  0  0  0  0  0  0  0  0  0  0
    7.6346  -13.5018   24.9403 N   0  0  0  0  0  0  0  0  0  0  0  0
    6.4206  -12.7348   24.7941 C   0  0  0  0  0  0  0  0  0  0  0  0
    6.1764  -12.0241   26.1123 C   0  0  0  0  0  0  0  0  0  0  0  0
    6.9251  -12.8692   27.0848 C   0  0  0  0  0  0  0  0  0  0  0  0
    8.0788  -13.4007   26.2895 C   0  0  1  0  0  0  0  0  0  0  0  0
    8.5682  -14.6841   26.8695 C   0  0  0  0  0  0  0  0  0  0  0  0
    7.8042  -15.6667   26.8679 O   0  0  0  0  0  0  0  0  0  0  0  0
   11.7877  -16.3446   27.4323 C   0  0  0  0  0  0  0  0  0  0  0  0
   10.4032  -16.0386   27.9560 C   0  0  2  0  0  0  0  0  0  0  0  0
    9.8682  -14.8179   27.4187 N   0  0  0  0  0  0  0  0  0  0  0  0
   10.3416  -16.0756   29.4375 C   0  0  0  0  0  0  0  0  0  0  0  0
    9.8805  -14.9493   30.0958 O   0  0  0  0  0  0  0  0  0  0  0  0
   10.6828  -17.0663   30.1190 O   0  0  0  0  0  0  0  0  0  0  0  0
  2  1  1  0
  3  2  1  0
  4  3  1  0
  4  5  1  0
  5  1  1  0
  5  6  1  1
  7  6  2  0
  8  6  1  0
  8  9  1  0
 10  9  1  0
 11 12  1  0
 11 10  1  0
 12  8  1  0
 12 13  1  1
 13 17  1  0
 14 13  2  0
 16 18  1  0
 16 15  1  1
 17 16  1  0
 18 19  1  0
 20 18  2  0
M  END
$$$$
