PPA.pdb
     RDKit          3D

 20 21  0  0  1  0  0  0  0  0999 V2000
    8.5982  -14.2464   21.4212 N   0  0  0  0  0  0  0  0  0  0  0  0
    8.0103  -15.2043   20.5236 C   0  0  0  0  0  0  0  0  0  0  0  0
    6.5360  -15.1896   20.8717 C   0  0  0  0  0  0  0  0  0  0  0  0
    6.6102  -15.0753   22.4006 C   0  0  0  0  0  0  0  0  0  0  0  0
    7.7457  -14.0889   22.5500 C   0  0  1  0  0  0  0  0  0  0  0  0
    8.3961  -14.1776   23.8630 C   0  0  0  0  0  0  0  0  0  0  0  0
    9.4243  -14.8776   23.9925 O   0  0  0  0  0  0  0  0  0  0  0  0
    7.8824  -13.4808   25.0107 N   0  0  0  0  0  0  0  0  0  0  0  0
    6.7914  -12.5391   24.9326 C   0  0  0  0  0  0  0  0  0  0  0  0
    6.6290  -11.9238   26.3100 C   0  0  0  0  0  0  0  0  0  0  0  0
    7.2354  -12.9516   27.2025 C   0  0  0  0  0  0  0  0  0  0  0  0
    8.3151  -13.5670   26.3647 C   0  0  1  0  0  0  0  0  0  0  0  0
    8.6092  -14.9542   26.8251 C   0  0  0  0  0  0  0  0  0  0  0  0
    7.7003  -15.8031   26.7729 O   0  0  0  0  0  0  0  0  0  0  0  0
   11.5242  -17.1546   27.2448 C   0  0  0  0  0  0  0  0  0  0  0  0
   10.2130  -16.6460   27.7987 C   0  0  2  0  0  0  0  0  0  0  0  0
    9.8836  -15.3328   27.3170 N   0  0  0  0  0  0  0  0  0  0  0  0
   10.1563  -16.7329   29.2783 C   0  0  0  0  0  0  0  0  0  0  0  0
    9.8968  -15.5730   29.9866 O   0  0  0  0  0  0  0  0  0  0  0  0
   10.3300  -17.7941   29.9156 O   0  0  0  0  0  0  0  0  0  0  0  0
  2  1  1  0
  3  2  1  0
  4  3  1  0
  4  5  1  0
  5  1  1  0
  5  6  1  1
  7  6  2  0
  8  6  1  0
  8  9  1  0
 10  9  1  0
 11 12  1  0
 11 10  1  0
 12  8  1  0
 12 13  1  1
 13 17  1  0
 14 13  2  0
 16 18  1  0
 16 15  1  1
 17 16  1  0
 18 19  1  0
 20 18  2  0
M  END
$$$$
