PPA.pdb
     RDKit          3D

 20 21  0  0  1  0  0  0  0  0999 V2000
    8.8086  -14.6631   21.2157 N   0  0  0  0  0  0  0  0  0  0  0  0
    8.7471  -15.9183   20.5160 C   0  0  0  0  0  0  0  0  0  0  0  0
    7.3777  -16.4705   20.8548 C   0  0  0  0  0  0  0  0  0  0  0  0
    7.2742  -16.0747   22.3342 C   0  0  0  0  0  0  0  0  0  0  0  0
    7.8799  -14.6905   22.2939 C   0  0  1  0  0  0  0  0  0  0  0  0
    8.4001  -14.2681   23.6000 C   0  0  0  0  0  0  0  0  0  0  0  0
    9.6243  -14.3693   23.8349 O   0  0  0  0  0  0  0  0  0  0  0  0
    7.5390  -13.7399   24.6227 N   0  0  0  0  0  0  0  0  0  0  0  0
    6.1521  -13.4153   24.3893 C   0  0  0  0  0  0  0  0  0  0  0  0
    5.6221  -12.7699   25.6562 C   0  0  0  0  0  0  0  0  0  0  0  0
    6.5506  -13.2861   26.7011 C   0  0  0  0  0  0  0  0  0  0  0  0
    7.8546  -13.4457   25.9799 C   0  0  1  0  0  0  0  0  0  0  0  0
    8.7003  -14.4761   26.6479 C   0  0  0  0  0  0  0  0  0  0  0  0
    8.6846  -15.6381   26.2020 O   0  0  0  0  0  0  0  0  0  0  0  0
   11.3712  -14.4187   29.3527 C   0  0  0  0  0  0  0  0  0  0  0  0
   10.4375  -15.0944   28.3747 C   0  0  2  0  0  0  0  0  0  0  0  0
    9.5158  -14.1742   27.7673 N   0  0  0  0  0  0  0  0  0  0  0  0
    9.7515  -16.2666   28.9705 C   0  0  0  0  0  0  0  0  0  0  0  0
    8.3769  -16.2080   29.1176 O   0  0  0  0  0  0  0  0  0  0  0  0
   10.3474  -17.2996   29.3450 O   0  0  0  0  0  0  0  0  0  0  0  0
  2  1  1  0
  3  2  1  0
  4  3  1  0
  4  5  1  0
  5  1  1  0
  5  6  1  1
  7  6  2  0
  8  6  1  0
  8  9  1  0
 10  9  1  0
 11 12  1  0
 11 10  1  0
 12  8  1  0
 12 13  1  1
 13 17  1  0
 14 13  2  0
 16 18  1  0
 16 15  1  1
 17 16  1  0
 18 19  1  0
 20 18  2  0
M  END
$$$$
