PPA.pdb
     RDKit          3D

 20 21  0  0  1  0  0  0  0  0999 V2000
    8.5998  -14.2998   21.3800 N   0  0  0  0  0  0  0  0  0  0  0  0
    8.0260  -15.2484   20.4637 C   0  0  0  0  0  0  0  0  0  0  0  0
    6.5483  -15.2462   20.7972 C   0  0  0  0  0  0  0  0  0  0  0  0
    6.6067  -15.1521   22.3281 C   0  0  0  0  0  0  0  0  0  0  0  0
    7.7353  -14.1620   22.5022 C   0  0  1  0  0  0  0  0  0  0  0  0
    8.3730  -14.2651   23.8204 C   0  0  0  0  0  0  0  0  0  0  0  0
    9.3641  -15.0139   23.9657 O   0  0  0  0  0  0  0  0  0  0  0  0
    7.8886  -13.5276   24.9552 N   0  0  0  0  0  0  0  0  0  0  0  0
    6.8506  -12.5296   24.8567 C   0  0  0  0  0  0  0  0  0  0  0  0
    6.7107  -11.8896   26.2253 C   0  0  0  0  0  0  0  0  0  0  0  0
    7.2537  -12.9376   27.1350 C   0  0  0  0  0  0  0  0  0  0  0  0
    8.3052  -13.6204   26.3139 C   0  0  1  0  0  0  0  0  0  0  0  0
    8.5204  -15.0157   26.7932 C   0  0  0  0  0  0  0  0  0  0  0  0
    7.5918  -15.8357   26.6719 O   0  0  0  0  0  0  0  0  0  0  0  0
   11.1942  -17.4045   27.2308 C   0  0  0  0  0  0  0  0  0  0  0  0
    9.9934  -16.7562   27.8809 C   0  0  2  0  0  0  0  0  0  0  0  0
    9.7420  -15.4335   27.3784 N   0  0  0  0  0  0  0  0  0  0  0  0
   10.0691  -16.7904   29.3617 C   0  0  0  0  0  0  0  0  0  0  0  0
   10.2304  -18.0203   29.9747 O   0  0  0  0  0  0  0  0  0  0  0  0
    9.9950  -15.7709   30.0813 O   0  0  0  0  0  0  0  0  0  0  0  0
  2  1  1  0
  3  2  1  0
  4  3  1  0
  4  5  1  0
  5  1  1  0
  5  6  1  1
  7  6  2  0
  8  6  1  0
  8  9  1  0
 10  9  1  0
 11 12  1  0
 11 10  1  0
 12  8  1  0
 12 13  1  1
 13 17  1  0
 14 13  2  0
 16 18  1  0
 16 15  1  6
 17 16  1  0
 18 19  1  0
 20 18  2  0
M  END
$$$$
