PPA.pdb
     RDKit          3D

 20 21  0  0  1  0  0  0  0  0999 V2000
    9.4281  -14.2498   16.3766 N   0  0  0  0  0  0  0  0  0  0  0  0
    9.1230  -15.1568   15.3028 C   0  0  0  0  0  0  0  0  0  0  0  0
    7.6892  -15.5735   15.5591 C   0  0  0  0  0  0  0  0  0  0  0  0
    7.7054  -15.7073   17.0880 C   0  0  0  0  0  0  0  0  0  0  0  0
    8.5448  -14.5074   17.4624 C   0  0  1  0  0  0  0  0  0  0  0  0
    9.1736  -14.6526   18.7810 C   0  0  0  0  0  0  0  0  0  0  0  0
   10.3646  -15.0267   18.8550 O   0  0  0  0  0  0  0  0  0  0  0  0
    8.4564  -14.3771   19.9960 N   0  0  0  0  0  0  0  0  0  0  0  0
    7.1486  -13.7667   20.0131 C   0  0  0  0  0  0  0  0  0  0  0  0
    6.7854  -13.5226   21.4660 C   0  0  0  0  0  0  0  0  0  0  0  0
    7.6307  -14.5154   22.1872 C   0  0  0  0  0  0  0  0  0  0  0  0
    8.8605  -14.6286   21.3382 C   0  0  1  0  0  0  0  0  0  0  0  0
    9.5174  -15.9516   21.5409 C   0  0  0  0  0  0  0  0  0  0  0  0
    8.9797  -16.9631   21.0539 O   0  0  0  0  0  0  0  0  0  0  0  0
   12.9300  -17.1648   22.3711 C   0  0  0  0  0  0  0  0  0  0  0  0
   11.4296  -17.3318   22.4468 C   0  0  2  0  0  0  0  0  0  0  0  0
   10.7273  -16.0911   22.2661 N   0  0  0  0  0  0  0  0  0  0  0  0
   11.0047  -18.0448   23.6759 C   0  0  0  0  0  0  0  0  0  0  0  0
   10.1189  -17.4040   24.5240 O   0  0  0  0  0  0  0  0  0  0  0  0
   11.4031  -19.1889   23.9841 O   0  0  0  0  0  0  0  0  0  0  0  0
  2  1  1  0
  3  2  1  0
  4  3  1  0
  4  5  1  0
  5  1  1  0
  5  6  1  1
  7  6  2  0
  8  6  1  0
  8  9  1  0
 10  9  1  0
 11 12  1  0
 11 10  1  0
 12  8  1  0
 12 13  1  6
 13 17  1  0
 14 13  2  0
 16 18  1  0
 16 15  1  1
 17 16  1  0
 18 19  1  0
 20 18  2  0
M  END
$$$$
