PPA.pdb
     RDKit          3D

 20 21  0  0  1  0  0  0  0  0999 V2000
    8.5928  -14.3686   21.4058 N   0  0  0  0  0  0  0  0  0  0  0  0
    8.0494  -15.3798   20.5392 C   0  0  0  0  0  0  0  0  0  0  0  0
    6.5666  -15.3832   20.8496 C   0  0  0  0  0  0  0  0  0  0  0  0
    6.5988  -15.1973   22.3729 C   0  0  0  0  0  0  0  0  0  0  0  0
    7.7082  -14.1792   22.5045 C   0  0  1  0  0  0  0  0  0  0  0  0
    8.3262  -14.1927   23.8360 C   0  0  0  0  0  0  0  0  0  0  0  0
    9.3760  -14.8474   24.0186 O   0  0  0  0  0  0  0  0  0  0  0  0
    7.7567  -13.4724   24.9420 N   0  0  0  0  0  0  0  0  0  0  0  0
    6.5986  -12.6211   24.8103 C   0  0  0  0  0  0  0  0  0  0  0  0
    6.3845  -11.9428   26.1506 C   0  0  0  0  0  0  0  0  0  0  0  0
    7.0620  -12.8701   27.1001 C   0  0  0  0  0  0  0  0  0  0  0  0
    8.1884  -13.4493   26.2989 C   0  0  1  0  0  0  0  0  0  0  0  0
    8.5833  -14.7823   26.8374 C   0  0  0  0  0  0  0  0  0  0  0  0
    7.7528  -15.7086   26.7992 O   0  0  0  0  0  0  0  0  0  0  0  0
   11.6648  -16.6930   27.4095 C   0  0  0  0  0  0  0  0  0  0  0  0
   10.3000  -16.2883   27.9178 C   0  0  2  0  0  0  0  0  0  0  0  0
    9.8670  -15.0248   27.3876 N   0  0  0  0  0  0  0  0  0  0  0  0
   10.2143  -16.3363   29.3977 C   0  0  0  0  0  0  0  0  0  0  0  0
   10.5023  -17.5352   30.0255 O   0  0  0  0  0  0  0  0  0  0  0  0
    9.8970  -15.3549   30.1039 O   0  0  0  0  0  0  0  0  0  0  0  0
  2  1  1  0
  3  2  1  0
  4  3  1  0
  4  5  1  0
  5  1  1  0
  5  6  1  1
  7  6  2  0
  8  6  1  0
  8  9  1  0
 10  9  1  0
 11 12  1  0
 11 10  1  0
 12  8  1  0
 12 13  1  1
 13 17  1  0
 14 13  2  0
 16 18  1  0
 16 15  1  1
 17 16  1  0
 18 19  1  0
 20 18  2  0
M  END
$$$$
