PPA.pdb
     RDKit          3D

 20 21  0  0  1  0  0  0  0  0999 V2000
    8.6434  -14.3290   21.4118 N   0  0  0  0  0  0  0  0  0  0  0  0
    8.0130  -15.2491   20.5037 C   0  0  0  0  0  0  0  0  0  0  0  0
    6.5356  -15.1351   20.8189 C   0  0  0  0  0  0  0  0  0  0  0  0
    6.5835  -15.0201   22.3487 C   0  0  0  0  0  0  0  0  0  0  0  0
    7.7786  -14.1108   22.5210 C   0  0  1  0  0  0  0  0  0  0  0  0
    8.3925  -14.2375   23.8484 C   0  0  0  0  0  0  0  0  0  0  0  0
    9.3988  -14.9660   23.9921 O   0  0  0  0  0  0  0  0  0  0  0  0
    7.8676  -13.5459   24.9941 N   0  0  0  0  0  0  0  0  0  0  0  0
    6.7757  -12.6058   24.9101 C   0  0  0  0  0  0  0  0  0  0  0  0
    6.6002  -11.9962   26.2884 C   0  0  0  0  0  0  0  0  0  0  0  0
    7.2004  -13.0265   27.1822 C   0  0  0  0  0  0  0  0  0  0  0  0
    8.2884  -13.6367   26.3516 C   0  0  1  0  0  0  0  0  0  0  0  0
    8.5808  -15.0253   26.8092 C   0  0  0  0  0  0  0  0  0  0  0  0
    7.6432  -15.8419   26.8672 O   0  0  0  0  0  0  0  0  0  0  0  0
   11.5586  -17.2319   27.0995 C   0  0  0  0  0  0  0  0  0  0  0  0
   10.2218  -16.7633   27.6270 C   0  0  2  0  0  0  0  0  0  0  0  0
    9.8852  -15.4405   27.1775 N   0  0  0  0  0  0  0  0  0  0  0  0
   10.1196  -16.8997   29.1003 C   0  0  0  0  0  0  0  0  0  0  0  0
    9.9111  -15.7523   29.8450 O   0  0  0  0  0  0  0  0  0  0  0  0
   10.2116  -17.9918   29.7014 O   0  0  0  0  0  0  0  0  0  0  0  0
  2  1  1  0
  3  2  1  0
  4  3  1  0
  4  5  1  0
  5  1  1  0
  5  6  1  1
  7  6  2  0
  8  6  1  0
  8  9  1  0
 10  9  1  0
 11 12  1  0
 11 10  1  0
 12  8  1  0
 12 13  1  1
 13 17  1  0
 14 13  2  0
 16 18  1  0
 16 15  1  1
 17 16  1  0
 18 19  1  0
 20 18  2  0
M  END
$$$$
