WMD.pdb
     RDKit          3D

 31 32  0  0  1  0  0  0  0  0999 V2000
    8.2014  -18.3590   21.8100 N   0  0  0  0  0  0  0  0  0  0  0  0
    8.2814  -16.9351   21.6253 C   0  0  1  0  0  0  0  0  0  0  0  0
    7.0587  -16.4199   20.9627 C   0  0  0  0  0  0  0  0  0  0  0  0
    7.4205  -15.4531   19.9003 C   0  0  0  0  0  0  0  0  0  0  0  0
    7.4406  -15.7048   18.5233 C   0  0  0  0  0  0  0  0  0  0  0  0
    7.7855  -14.5907   17.8566 N   0  0  0  0  0  0  0  0  0  0  0  0
    8.0001  -13.5992   18.7118 C   0  0  0  0  0  0  0  0  0  0  0  0
    8.3749  -12.2907   18.5160 C   0  0  0  0  0  0  0  0  0  0  0  0
    8.5453  -11.4420   19.5941 C   0  0  0  0  0  0  0  0  0  0  0  0
    8.3276  -11.9556   20.8483 C   0  0  0  0  0  0  0  0  0  0  0  0
    7.9473  -13.2802   21.0532 C   0  0  0  0  0  0  0  0  0  0  0  0
    7.7770  -14.1197   19.9928 C   0  0  0  0  0  0  0  0  0  0  0  0
    8.6241  -16.2288   22.8847 C   0  0  0  0  0  0  0  0  0  0  0  0
    9.3139  -15.1775   22.8480 O   0  0  0  0  0  0  0  0  0  0  0  0
    7.4148  -12.0338   25.8875 C   0  0  0  0  0  0  0  0  0  0  0  0
    7.1719  -12.8814   27.4915 S   0  0  0  0  0  0  0  0  0  0  0  0
    7.8555  -14.5222   27.3280 C   0  0  0  0  0  0  0  0  0  0  0  0
    7.4655  -15.2609   26.0836 C   0  0  0  0  0  0  0  0  0  0  0  0
    8.5054  -16.0246   25.3961 C   0  0  2  0  0  0  0  0  0  0  0  0
    8.2214  -16.6622   24.1613 N   0  0  0  0  0  0  0  0  0  0  0  0
    9.0758  -17.0433   26.3204 C   0  0  0  0  0  0  0  0  0  0  0  0
    8.3312  -17.6904   27.1362 O   0  0  0  0  0  0  0  0  0  0  0  0
   10.4422  -17.3726   26.3739 N   0  0  0  0  0  0  0  0  0  0  0  0
   10.9947  -18.3906   27.2888 C   0  0  1  0  0  0  0  0  0  0  0  0
   12.4648  -18.4491   26.9438 C   0  0  0  0  0  0  0  0  0  0  0  0
   12.7605  -18.5901   25.5230 C   0  0  0  0  0  0  0  0  0  0  0  0
   13.6129  -17.7748   25.0366 O   0  0  0  0  0  0  0  0  0  0  0  0
   10.8485  -17.8313   28.6703 C   0  0  0  0  0  0  0  0  0  0  0  0
   10.5955  -16.5959   28.8408 O   0  0  0  0  0  0  0  0  0  0  0  0
   12.2270  -19.4966   24.6547 O   0  0  0  0  0  0  0  0  0  0  0  0
   10.9811  -18.6252   29.7938 O   0  0  0  0  0  0  0  0  0  0  0  0
  2  1  1  1
  2 13  1  0
  2  3  1  0
  3  4  1  0
  4  5  2  0
  6  5  1  0
  7  6  1  0
  8  7  2  0
  9  8  1  0
 10 11  1  0
 10  9  2  0
 11 12  2  0
 12  4  1  0
 12  7  1  0
 13 14  2  0
 16 15  1  0
 17 16  1  0
 19 18  1  1
 18 17  1  0
 20 19  1  0
 20 13  1  0
 21 22  2  0
 21 19  1  0
 23 21  1  0
 24 28  1  0
 24 23  1  0
 24 25  1  6
 26 30  1  0
 26 25  1  0
 27 26  2  0
 28 31  1  0
 29 28  2  0
M  END
$$$$
