WMD.pdb
     RDKit          3D

 31 32  0  0  1  0  0  0  0  0999 V2000
   10.5502  -16.8213   21.0458 N   0  0  0  0  0  0  0  0  0  0  0  0
    9.5647  -16.1352   21.8370 C   0  0  1  0  0  0  0  0  0  0  0  0
    8.2098  -16.6816   21.5814 C   0  0  0  0  0  0  0  0  0  0  0  0
    7.4634  -15.7912   20.6625 C   0  0  0  0  0  0  0  0  0  0  0  0
    6.2325  -16.0704   20.0568 C   0  0  0  0  0  0  0  0  0  0  0  0
    5.8379  -15.0241   19.3123 N   0  0  0  0  0  0  0  0  0  0  0  0
    6.7386  -14.0525   19.3831 C   0  0  0  0  0  0  0  0  0  0  0  0
    6.7859  -12.8082   18.7997 C   0  0  0  0  0  0  0  0  0  0  0  0
    7.8601  -11.9679   19.0276 C   0  0  0  0  0  0  0  0  0  0  0  0
    8.8611  -12.4240   19.8487 C   0  0  0  0  0  0  0  0  0  0  0  0
    8.8188  -13.6835   20.4431 C   0  0  0  0  0  0  0  0  0  0  0  0
    7.7609  -14.5142   20.2218 C   0  0  0  0  0  0  0  0  0  0  0  0
    9.9339  -16.0948   23.2738 C   0  0  0  0  0  0  0  0  0  0  0  0
   10.8580  -16.8306   23.7062 O   0  0  0  0  0  0  0  0  0  0  0  0
    7.4065  -11.8830   27.8304 C   0  0  0  0  0  0  0  0  0  0  0  0
    6.3902  -13.0598   26.8645 S   0  0  0  0  0  0  0  0  0  0  0  0
    7.3824  -14.5205   26.6036 C   0  0  0  0  0  0  0  0  0  0  0  0
    8.8562  -14.2824   26.4713 C   0  0  0  0  0  0  0  0  0  0  0  0
    9.6123  -15.1846   25.6042 C   0  0  2  0  0  0  0  0  0  0  0  0
    9.3057  -15.2663   24.2218 N   0  0  0  0  0  0  0  0  0  0  0  0
    9.5828  -16.5637   26.1652 C   0  0  0  0  0  0  0  0  0  0  0  0
    8.6113  -17.3601   25.9187 O   0  0  0  0  0  0  0  0  0  0  0  0
   10.5914  -17.0942   26.9895 N   0  0  0  0  0  0  0  0  0  0  0  0
   10.6005  -18.4932   27.4599 C   0  0  1  0  0  0  0  0  0  0  0  0
   11.9182  -19.0471   26.9693 C   0  0  0  0  0  0  0  0  0  0  0  0
   12.2151  -20.4077   27.4011 C   0  0  0  0  0  0  0  0  0  0  0  0
   12.9137  -20.5272   28.4621 O   0  0  0  0  0  0  0  0  0  0  0  0
   10.6348  -18.4288   28.9557 C   0  0  0  0  0  0  0  0  0  0  0  0
   10.7818  -17.3124   29.5484 O   0  0  0  0  0  0  0  0  0  0  0  0
   11.8296  -21.5682   26.7971 O   0  0  0  0  0  0  0  0  0  0  0  0
   10.5100  -19.5632   29.7353 O   0  0  0  0  0  0  0  0  0  0  0  0
  2  1  1  6
  2 13  1  0
  2  3  1  0
  3  4  1  0
  4  5  2  0
  6  5  1  0
  7  6  1  0
  8  7  2  0
  9  8  1  0
 10 11  1  0
 10  9  2  0
 11 12  2  0
 12  4  1  0
 12  7  1  0
 13 14  2  0
 16 15  1  0
 17 16  1  0
 19 18  1  1
 18 17  1  0
 20 19  1  0
 20 13  1  0
 21 22  2  0
 21 19  1  0
 23 21  1  0
 24 28  1  0
 24 23  1  0
 24 25  1  6
 26 30  1  0
 26 25  1  0
 27 26  2  0
 28 31  1  0
 29 28  2  0
M  END
$$$$
