WMD.pdb
     RDKit          3D

 31 32  0  0  1  0  0  0  0  0999 V2000
    6.2091  -18.3361   25.0913 N   0  0  0  0  0  0  0  0  0  0  0  0
    6.9773  -17.1342   24.9084 C   0  0  1  0  0  0  0  0  0  0  0  0
    7.8632  -16.8925   26.0730 C   0  0  0  0  0  0  0  0  0  0  0  0
    7.6594  -15.5215   26.5958 C   0  0  0  0  0  0  0  0  0  0  0  0
    6.4530  -14.8116   26.6104 C   0  0  0  0  0  0  0  0  0  0  0  0
    6.6319  -13.6113   27.1867 N   0  0  0  0  0  0  0  0  0  0  0  0
    7.8971  -13.4732   27.5618 C   0  0  0  0  0  0  0  0  0  0  0  0
    8.5580  -12.4363   28.1774 C   0  0  0  0  0  0  0  0  0  0  0  0
    9.9080  -12.5350   28.4591 C   0  0  0  0  0  0  0  0  0  0  0  0
   10.5489  -13.6952   28.1021 C   0  0  0  0  0  0  0  0  0  0  0  0
    9.8848  -14.7494   27.4786 C   0  0  0  0  0  0  0  0  0  0  0  0
    8.5536  -14.6564   27.2004 C   0  0  0  0  0  0  0  0  0  0  0  0
    7.6840  -17.1184   23.6036 C   0  0  0  0  0  0  0  0  0  0  0  0
    8.0786  -18.1964   23.0894 O   0  0  0  0  0  0  0  0  0  0  0  0
    8.6301  -12.5724   18.5437 C   0  0  0  0  0  0  0  0  0  0  0  0
    7.1883  -12.5337   19.6708 S   0  0  0  0  0  0  0  0  0  0  0  0
    7.2132  -14.0522   20.6087 C   0  0  0  0  0  0  0  0  0  0  0  0
    8.5698  -14.6491   20.8314 C   0  0  0  0  0  0  0  0  0  0  0  0
    8.6497  -15.8652   21.6389 C   0  0  2  0  0  0  0  0  0  0  0  0
    7.9556  -15.9468   22.8731 N   0  0  0  0  0  0  0  0  0  0  0  0
   10.0765  -16.2105   21.8888 C   0  0  0  0  0  0  0  0  0  0  0  0
   10.7252  -15.6889   22.8614 O   0  0  0  0  0  0  0  0  0  0  0  0
   10.8120  -17.1138   21.1006 N   0  0  0  0  0  0  0  0  0  0  0  0
   12.2301  -17.4380   21.3502 C   0  0  1  0  0  0  0  0  0  0  0  0
   12.4307  -18.7831   20.6912 C   0  0  0  0  0  0  0  0  0  0  0  0
   11.9052  -19.9205   21.4368 C   0  0  0  0  0  0  0  0  0  0  0  0
   11.8732  -19.8013   22.7067 O   0  0  0  0  0  0  0  0  0  0  0  0
   13.0284  -16.4145   20.6033 C   0  0  0  0  0  0  0  0  0  0  0  0
   14.2989  -16.4133   20.6730 O   0  0  0  0  0  0  0  0  0  0  0  0
   11.4439  -21.0990   20.9283 O   0  0  0  0  0  0  0  0  0  0  0  0
   12.4227  -15.4481   19.8226 O   0  0  0  0  0  0  0  0  0  0  0  0
  2  1  1  1
  2 13  1  0
  2  3  1  0
  3  4  1  0
  4  5  2  0
  6  5  1  0
  7  6  1  0
  8  7  2  0
  9  8  1  0
 10 11  1  0
 10  9  2  0
 11 12  2  0
 12  4  1  0
 12  7  1  0
 13 14  2  0
 16 15  1  0
 17 16  1  0
 19 18  1  1
 18 17  1  0
 20 19  1  0
 20 13  1  0
 21 22  2  0
 21 19  1  0
 23 21  1  0
 24 28  1  0
 24 23  1  0
 24 25  1  6
 26 30  1  0
 26 25  1  0
 27 26  2  0
 28 31  1  0
 29 28  2  0
M  END
$$$$
