WMD.pdb
     RDKit          3D

 31 32  0  0  1  0  0  0  0  0999 V2000
    8.9430  -17.3317   25.1528 N   0  0  0  0  0  0  0  0  0  0  0  0
    7.5563  -17.5070   25.4908 C   0  0  1  0  0  0  0  0  0  0  0  0
    7.3204  -17.2041   26.9233 C   0  0  0  0  0  0  0  0  0  0  0  0
    8.6111  -17.0424   27.6319 C   0  0  0  0  0  0  0  0  0  0  0  0
    9.3450  -18.0570   28.2580 C   0  0  0  0  0  0  0  0  0  0  0  0
   10.4803  -17.5545   28.7712 N   0  0  0  0  0  0  0  0  0  0  0  0
   10.5513  -16.2527   28.5248 C   0  0  0  0  0  0  0  0  0  0  0  0
   11.5020  -15.3135   28.8491 C   0  0  0  0  0  0  0  0  0  0  0  0
   11.3362  -13.9919   28.4782 C   0  0  0  0  0  0  0  0  0  0  0  0
   10.1985  -13.6643   27.7836 C   0  0  0  0  0  0  0  0  0  0  0  0
    9.2319  -14.6113   27.4517 C   0  0  0  0  0  0  0  0  0  0  0  0
    9.3924  -15.9155   27.8145 C   0  0  0  0  0  0  0  0  0  0  0  0
    6.6602  -16.7691   24.5661 C   0  0  0  0  0  0  0  0  0  0  0  0
    5.6124  -16.2284   25.0043 O   0  0  0  0  0  0  0  0  0  0  0  0
    5.6327  -11.8008   26.0904 C   0  0  0  0  0  0  0  0  0  0  0  0
    7.1300  -12.3182   25.1734 S   0  0  0  0  0  0  0  0  0  0  0  0
    6.6648  -13.7004   24.1440 C   0  0  0  0  0  0  0  0  0  0  0  0
    7.7681  -14.2863   23.3160 C   0  0  0  0  0  0  0  0  0  0  0  0
    7.4689  -15.4927   22.5463 C   0  0  2  0  0  0  0  0  0  0  0  0
    6.9032  -16.6242   23.1878 N   0  0  0  0  0  0  0  0  0  0  0  0
    8.6873  -15.9384   21.8154 C   0  0  0  0  0  0  0  0  0  0  0  0
    8.6831  -16.0817   20.5433 O   0  0  0  0  0  0  0  0  0  0  0  0
    9.9120  -16.2308   22.4422 N   0  0  0  0  0  0  0  0  0  0  0  0
   11.0895  -16.7476   21.7178 C   0  0  1  0  0  0  0  0  0  0  0  0
   11.8925  -15.5141   21.3752 C   0  0  0  0  0  0  0  0  0  0  0  0
   13.1642  -15.7704   20.7097 C   0  0  0  0  0  0  0  0  0  0  0  0
   13.1630  -16.6774   19.8123 O   0  0  0  0  0  0  0  0  0  0  0  0
   11.8624  -17.5628   22.7083 C   0  0  0  0  0  0  0  0  0  0  0  0
   12.9554  -18.1195   22.3700 O   0  0  0  0  0  0  0  0  0  0  0  0
   14.3563  -15.1488   20.9396 O   0  0  0  0  0  0  0  0  0  0  0  0
   11.4227  -17.7373   24.0069 O   0  0  0  0  0  0  0  0  0  0  0  0
  2  1  1  6
  2 13  1  0
  2  3  1  0
  3  4  1  0
  4  5  2  0
  6  5  1  0
  7  6  1  0
  8  7  2  0
  9  8  1  0
 10 11  1  0
 10  9  2  0
 11 12  2  0
 12  4  1  0
 12  7  1  0
 13 14  2  0
 16 15  1  0
 17 16  1  0
 19 18  1  1
 18 17  1  0
 20 19  1  0
 20 13  1  0
 21 22  2  0
 21 19  1  0
 23 21  1  0
 24 28  1  0
 24 23  1  0
 24 25  1  1
 26 30  1  0
 26 25  1  0
 27 26  2  0
 28 31  1  0
 29 28  2  0
M  END
$$$$
