WMD.pdb
     RDKit          3D

 31 32  0  0  1  0  0  0  0  0999 V2000
    6.0854  -18.0562   24.0689 N   0  0  0  0  0  0  0  0  0  0  0  0
    7.0164  -16.9653   23.9642 C   0  0  1  0  0  0  0  0  0  0  0  0
    7.5990  -16.6405   25.2888 C   0  0  0  0  0  0  0  0  0  0  0  0
    6.9280  -15.4528   25.8663 C   0  0  0  0  0  0  0  0  0  0  0  0
    5.6019  -15.3848   26.3097 C   0  0  0  0  0  0  0  0  0  0  0  0
    5.3430  -14.1618   26.8017 N   0  0  0  0  0  0  0  0  0  0  0  0
    6.4255  -13.3996   26.7132 C   0  0  0  0  0  0  0  0  0  0  0  0
    6.6519  -12.0916   27.0718 C   0  0  0  0  0  0  0  0  0  0  0  0
    7.8899  -11.5122   26.8632 C   0  0  0  0  0  0  0  0  0  0  0  0
    8.8668  -12.2883   26.2910 C   0  0  0  0  0  0  0  0  0  0  0  0
    8.6438  -13.6143   25.9259 C   0  0  0  0  0  0  0  0  0  0  0  0
    7.4250  -14.1893   26.1311 C   0  0  0  0  0  0  0  0  0  0  0  0
    8.0287  -17.1970   22.9041 C   0  0  0  0  0  0  0  0  0  0  0  0
    8.3907  -18.3692   22.6262 O   0  0  0  0  0  0  0  0  0  0  0  0
    6.6137  -12.5081   18.7815 C   0  0  0  0  0  0  0  0  0  0  0  0
    8.2768  -12.9459   19.4085 S   0  0  0  0  0  0  0  0  0  0  0  0
    8.3529  -14.7270   19.4984 C   0  0  0  0  0  0  0  0  0  0  0  0
    9.6293  -15.2899   20.0463 C   0  0  0  0  0  0  0  0  0  0  0  0
    9.5263  -16.3295   21.0690 C   0  0  2  0  0  0  0  0  0  0  0  0
    8.6356  -16.1679   22.1609 N   0  0  0  0  0  0  0  0  0  0  0  0
   10.8774  -16.6318   21.6171 C   0  0  0  0  0  0  0  0  0  0  0  0
   11.2752  -16.1214   22.7217 O   0  0  0  0  0  0  0  0  0  0  0  0
   11.8051  -17.4804   20.9866 N   0  0  0  0  0  0  0  0  0  0  0  0
   13.1520  -17.7510   21.5259 C   0  0  1  0  0  0  0  0  0  0  0  0
   13.6361  -18.9514   20.7459 C   0  0  0  0  0  0  0  0  0  0  0  0
   12.7702  -20.1225   20.8148 C   0  0  0  0  0  0  0  0  0  0  0  0
   12.4399  -20.5168   21.9825 O   0  0  0  0  0  0  0  0  0  0  0  0
   13.9933  -16.5683   21.1564 C   0  0  0  0  0  0  0  0  0  0  0  0
   13.5363  -15.6721   20.3772 O   0  0  0  0  0  0  0  0  0  0  0  0
   12.2736  -20.8447   19.7698 O   0  0  0  0  0  0  0  0  0  0  0  0
   15.2778  -16.4100   21.6412 O   0  0  0  0  0  0  0  0  0  0  0  0
  2  1  1  1
  2 13  1  0
  2  3  1  0
  3  4  1  0
  4  5  2  0
  6  5  1  0
  7  6  1  0
  8  7  2  0
  9  8  1  0
 10 11  1  0
 10  9  2  0
 11 12  2  0
 12  4  1  0
 12  7  1  0
 13 14  2  0
 16 15  1  0
 17 16  1  0
 19 18  1  1
 18 17  1  0
 20 19  1  0
 20 13  1  0
 21 22  2  0
 21 19  1  0
 23 21  1  0
 24 28  1  0
 24 23  1  0
 24 25  1  6
 26 30  1  0
 26 25  1  0
 27 26  2  0
 28 31  1  0
 29 28  2  0
M  END
$$$$
