WMD.pdb
     RDKit          3D

 31 32  0  0  1  0  0  0  0  0999 V2000
   10.2701  -16.5915   21.3507 N   0  0  0  0  0  0  0  0  0  0  0  0
    9.7397  -16.0084   22.5535 C   0  0  1  0  0  0  0  0  0  0  0  0
    8.2779  -16.2390   22.6509 C   0  0  0  0  0  0  0  0  0  0  0  0
    7.5769  -14.9669   22.9417 C   0  0  0  0  0  0  0  0  0  0  0  0
    7.2801  -13.9555   22.0204 C   0  0  0  0  0  0  0  0  0  0  0  0
    6.6101  -12.9618   22.6274 N   0  0  0  0  0  0  0  0  0  0  0  0
    6.4393  -13.2491   23.9114 C   0  0  0  0  0  0  0  0  0  0  0  0
    5.8300  -12.5528   24.9287 C   0  0  0  0  0  0  0  0  0  0  0  0
    5.7916  -13.0734   26.2090 C   0  0  0  0  0  0  0  0  0  0  0  0
    6.3797  -14.2963   26.4160 C   0  0  0  0  0  0  0  0  0  0  0  0
    6.9982  -15.0069   25.3894 C   0  0  0  0  0  0  0  0  0  0  0  0
    7.0369  -14.4975   24.1256 C   0  0  0  0  0  0  0  0  0  0  0  0
   10.4955  -16.4327   23.7581 C   0  0  0  0  0  0  0  0  0  0  0  0
   11.5680  -17.0777   23.6323 O   0  0  0  0  0  0  0  0  0  0  0  0
    9.9120  -12.0681   29.0143 C   0  0  0  0  0  0  0  0  0  0  0  0
   10.7954  -13.6621   28.8437 S   0  0  0  0  0  0  0  0  0  0  0  0
    9.8986  -14.6347   27.6452 C   0  0  0  0  0  0  0  0  0  0  0  0
   10.2931  -16.0782   27.5628 C   0  0  0  0  0  0  0  0  0  0  0  0
   10.7335  -16.5862   26.2646 C   0  0  2  0  0  0  0  0  0  0  0  0
   10.0878  -16.1581   25.0765 N   0  0  0  0  0  0  0  0  0  0  0  0
   10.7310  -18.0752   26.2797 C   0  0  0  0  0  0  0  0  0  0  0  0
    9.9325  -18.7454   25.5366 O   0  0  0  0  0  0  0  0  0  0  0  0
   11.5819  -18.8504   27.0880 N   0  0  0  0  0  0  0  0  0  0  0  0
   11.6110  -20.3256   27.0519 C   0  0  1  0  0  0  0  0  0  0  0  0
   12.7192  -20.6569   26.0793 C   0  0  0  0  0  0  0  0  0  0  0  0
   12.4489  -21.7852   25.1963 C   0  0  0  0  0  0  0  0  0  0  0  0
   11.3496  -22.4044   25.3861 O   0  0  0  0  0  0  0  0  0  0  0  0
   12.0271  -20.7671   28.4211 C   0  0  0  0  0  0  0  0  0  0  0  0
   12.6440  -19.9674   29.1951 O   0  0  0  0  0  0  0  0  0  0  0  0
   13.2406  -22.2537   24.1893 O   0  0  0  0  0  0  0  0  0  0  0  0
   11.7600  -22.0407   28.8868 O   0  0  0  0  0  0  0  0  0  0  0  0
  2  1  1  6
  2 13  1  0
  2  3  1  0
  3  4  1  0
  4  5  2  0
  6  5  1  0
  7  6  1  0
  8  7  2  0
  9  8  1  0
 10 11  1  0
 10  9  2  0
 11 12  2  0
 12  4  1  0
 12  7  1  0
 13 14  2  0
 16 15  1  0
 17 16  1  0
 19 18  1  1
 18 17  1  0
 20 19  1  0
 20 13  1  0
 21 22  2  0
 21 19  1  0
 23 21  1  0
 24 28  1  0
 24 23  1  0
 24 25  1  6
 26 30  1  0
 26 25  1  0
 27 26  2  0
 28 31  1  0
 29 28  2  0
M  END
$$$$
