WMD.pdb
     RDKit          3D

 31 32  0  0  1  0  0  0  0  0999 V2000
    6.7501  -16.9648   25.5774 N   0  0  0  0  0  0  0  0  0  0  0  0
    7.4915  -16.1082   24.6918 C   0  0  1  0  0  0  0  0  0  0  0  0
    8.7402  -15.6360   25.3378 C   0  0  0  0  0  0  0  0  0  0  0  0
    8.4233  -14.7047   26.4454 C   0  0  0  0  0  0  0  0  0  0  0  0
    8.8991  -14.7882   27.7593 C   0  0  0  0  0  0  0  0  0  0  0  0
    8.4315  -13.7586   28.4847 N   0  0  0  0  0  0  0  0  0  0  0  0
    7.6638  -12.9840   27.7290 C   0  0  0  0  0  0  0  0  0  0  0  0
    6.9656  -11.8345   28.0152 C   0  0  0  0  0  0  0  0  0  0  0  0
    6.2165  -11.2078   27.0364 C   0  0  0  0  0  0  0  0  0  0  0  0
    6.2008  -11.7755   25.7867 C   0  0  0  0  0  0  0  0  0  0  0  0
    6.9064  -12.9398   25.4905 C   0  0  0  0  0  0  0  0  0  0  0  0
    7.6471  -13.5597   26.4524 C   0  0  0  0  0  0  0  0  0  0  0  0
    7.7030  -16.7317   23.3618 C   0  0  0  0  0  0  0  0  0  0  0  0
    7.6170  -17.9800   23.2320 O   0  0  0  0  0  0  0  0  0  0  0  0
    7.7084  -11.3909   19.8386 C   0  0  0  0  0  0  0  0  0  0  0  0
    8.5270  -12.9715   19.4116 S   0  0  0  0  0  0  0  0  0  0  0  0
    7.4509  -14.2859   19.9599 C   0  0  0  0  0  0  0  0  0  0  0  0
    7.9588  -15.6756   19.7207 C   0  0  0  0  0  0  0  0  0  0  0  0
    8.1503  -16.5361   20.8870 C   0  0  2  0  0  0  0  0  0  0  0  0
    8.0034  -16.0060   22.1944 N   0  0  0  0  0  0  0  0  0  0  0  0
    9.4789  -17.2037   20.8070 C   0  0  0  0  0  0  0  0  0  0  0  0
    9.8354  -17.8496   19.7607 O   0  0  0  0  0  0  0  0  0  0  0  0
   10.4289  -17.1818   21.8440 N   0  0  0  0  0  0  0  0  0  0  0  0
   11.7040  -17.9231   21.7901 C   0  0  1  0  0  0  0  0  0  0  0  0
   12.6353  -17.1363   22.6831 C   0  0  0  0  0  0  0  0  0  0  0  0
   13.5156  -16.2042   21.9887 C   0  0  0  0  0  0  0  0  0  0  0  0
   13.4068  -16.1594   20.7183 O   0  0  0  0  0  0  0  0  0  0  0  0
   11.4393  -19.2526   22.4264 C   0  0  0  0  0  0  0  0  0  0  0  0
   10.6757  -19.3399   23.4405 O   0  0  0  0  0  0  0  0  0  0  0  0
   14.4435  -15.3742   22.5458 O   0  0  0  0  0  0  0  0  0  0  0  0
   12.0067  -20.4162   21.9423 O   0  0  0  0  0  0  0  0  0  0  0  0
  2  1  1  1
  2 13  1  0
  2  3  1  0
  3  4  1  0
  4  5  2  0
  6  5  1  0
  7  6  1  0
  8  7  2  0
  9  8  1  0
 10 11  1  0
 10  9  2  0
 11 12  2  0
 12  4  1  0
 12  7  1  0
 13 14  2  0
 16 15  1  0
 17 16  1  0
 19 18  1  6
 18 17  1  0
 20 19  1  0
 20 13  1  0
 21 22  2  0
 21 19  1  0
 23 21  1  0
 24 28  1  0
 24 23  1  0
 24 25  1  1
 26 30  1  0
 26 25  1  0
 27 26  2  0
 28 31  1  0
 29 28  2  0
M  END
$$$$
