WMD.pdb
     RDKit          3D

 31 32  0  0  1  0  0  0  0  0999 V2000
    5.3074  -19.0040   22.5871 N   0  0  0  0  0  0  0  0  0  0  0  0
    6.1424  -18.8501   23.7477 C   0  0  1  0  0  0  0  0  0  0  0  0
    6.7666  -20.1419   24.1232 C   0  0  0  0  0  0  0  0  0  0  0  0
    6.5888  -20.3949   25.5719 C   0  0  0  0  0  0  0  0  0  0  0  0
    5.5387  -21.1051   26.1658 C   0  0  0  0  0  0  0  0  0  0  0  0
    5.7166  -21.1634   27.4961 N   0  0  0  0  0  0  0  0  0  0  0  0
    6.8324  -20.5288   27.8320 C   0  0  0  0  0  0  0  0  0  0  0  0
    7.4266  -20.3128   29.0531 C   0  0  0  0  0  0  0  0  0  0  0  0
    8.6069  -19.5980   29.1412 C   0  0  0  0  0  0  0  0  0  0  0  0
    9.1500  -19.1210   27.9742 C   0  0  0  0  0  0  0  0  0  0  0  0
    8.5530  -19.3369   26.7340 C   0  0  0  0  0  0  0  0  0  0  0  0
    7.3900  -20.0422   26.6430 C   0  0  0  0  0  0  0  0  0  0  0  0
    7.1125  -17.7379   23.5921 C   0  0  0  0  0  0  0  0  0  0  0  0
    7.8122  -17.6553   22.5500 O   0  0  0  0  0  0  0  0  0  0  0  0
    5.4182  -11.6373   26.6545 C   0  0  0  0  0  0  0  0  0  0  0  0
    7.0153  -12.5197   26.7995 S   0  0  0  0  0  0  0  0  0  0  0  0
    7.0406  -13.7737   25.5294 C   0  0  0  0  0  0  0  0  0  0  0  0
    8.2725  -14.6264   25.4912 C   0  0  0  0  0  0  0  0  0  0  0  0
    8.3079  -15.7210   24.5226 C   0  0  2  0  0  0  0  0  0  0  0  0
    7.3157  -16.7339   24.5567 N   0  0  0  0  0  0  0  0  0  0  0  0
    9.6421  -16.3813   24.5581 C   0  0  0  0  0  0  0  0  0  0  0  0
    9.9005  -17.3111   25.3993 O   0  0  0  0  0  0  0  0  0  0  0  0
   10.7018  -16.0499   23.6947 N   0  0  0  0  0  0  0  0  0  0  0  0
   12.0172  -16.7181   23.7334 C   0  0  1  0  0  0  0  0  0  0  0  0
   12.7551  -16.1672   22.5351 C   0  0  0  0  0  0  0  0  0  0  0  0
   12.0415  -16.2737   21.2681 C   0  0  0  0  0  0  0  0  0  0  0  0
   11.5781  -17.4251   20.9722 O   0  0  0  0  0  0  0  0  0  0  0  0
   12.6940  -16.2324   24.9779 C   0  0  0  0  0  0  0  0  0  0  0  0
   12.1346  -15.3594   25.7155 O   0  0  0  0  0  0  0  0  0  0  0  0
   11.8141  -15.2795   20.3626 O   0  0  0  0  0  0  0  0  0  0  0  0
   13.9328  -16.7078   25.3646 O   0  0  0  0  0  0  0  0  0  0  0  0
  2  1  1  6
  2 13  1  0
  2  3  1  0
  3  4  1  0
  4  5  2  0
  6  5  1  0
  7  6  1  0
  8  7  2  0
  9  8  1  0
 10 11  1  0
 10  9  2  0
 11 12  2  0
 12  4  1  0
 12  7  1  0
 13 14  2  0
 16 15  1  0
 17 16  1  0
 19 18  1  1
 18 17  1  0
 20 19  1  0
 20 13  1  0
 21 22  2  0
 21 19  1  0
 23 21  1  0
 24 28  1  0
 24 23  1  0
 24 25  1  6
 26 30  1  0
 26 25  1  0
 27 26  2  0
 28 31  1  0
 29 28  2  0
M  END
$$$$
