WMD.pdb
     RDKit          3D

 31 32  0  0  1  0  0  0  0  0999 V2000
    6.8122  -17.4145   24.8340 N   0  0  0  0  0  0  0  0  0  0  0  0
    7.3676  -16.7862   23.6658 C   0  0  1  0  0  0  0  0  0  0  0  0
    6.4542  -15.7403   23.1451 C   0  0  0  0  0  0  0  0  0  0  0  0
    6.8884  -14.4028   23.6106 C   0  0  0  0  0  0  0  0  0  0  0  0
    7.8429  -13.5822   22.9979 C   0  0  0  0  0  0  0  0  0  0  0  0
    7.9614  -12.4284   23.6757 N   0  0  0  0  0  0  0  0  0  0  0  0
    7.1368  -12.4270   24.7152 C   0  0  0  0  0  0  0  0  0  0  0  0
    6.9037  -11.4891   25.6933 C   0  0  0  0  0  0  0  0  0  0  0  0
    5.9814  -11.7346   26.6938 C   0  0  0  0  0  0  0  0  0  0  0  0
    5.3199  -12.9371   26.6677 C   0  0  0  0  0  0  0  0  0  0  0  0
    5.5514  -13.8912   25.6791 C   0  0  0  0  0  0  0  0  0  0  0  0
    6.4589  -13.6523   24.6904 C   0  0  0  0  0  0  0  0  0  0  0  0
    8.7546  -16.3109   23.8956 C   0  0  0  0  0  0  0  0  0  0  0  0
    9.2209  -15.3725   23.1997 O   0  0  0  0  0  0  0  0  0  0  0  0
   10.3888  -13.3525   28.8947 C   0  0  0  0  0  0  0  0  0  0  0  0
   11.3290  -14.8830   29.2471 S   0  0  0  0  0  0  0  0  0  0  0  0
   10.9973  -16.0227   27.9139 C   0  0  0  0  0  0  0  0  0  0  0  0
   10.6796  -15.3920   26.5920 C   0  0  0  0  0  0  0  0  0  0  0  0
   10.7778  -16.2328   25.4001 C   0  0  2  0  0  0  0  0  0  0  0  0
    9.6175  -16.8505   24.8672 N   0  0  0  0  0  0  0  0  0  0  0  0
   11.8059  -17.2889   25.6126 C   0  0  0  0  0  0  0  0  0  0  0  0
   11.4926  -18.4331   26.0938 O   0  0  0  0  0  0  0  0  0  0  0  0
   13.1697  -17.1245   25.3107 N   0  0  0  0  0  0  0  0  0  0  0  0
   14.1279  -18.2458   25.2559 C   0  0  1  0  0  0  0  0  0  0  0  0
   15.3799  -17.6428   24.6619 C   0  0  0  0  0  0  0  0  0  0  0  0
   15.1779  -16.8895   23.4300 C   0  0  0  0  0  0  0  0  0  0  0  0
   14.6656  -17.5280   22.4513 O   0  0  0  0  0  0  0  0  0  0  0  0
   14.4065  -18.6246   26.6778 C   0  0  0  0  0  0  0  0  0  0  0  0
   13.9072  -17.9487   27.6333 O   0  0  0  0  0  0  0  0  0  0  0  0
   15.4758  -15.5775   23.2063 O   0  0  0  0  0  0  0  0  0  0  0  0
   15.2045  -19.7065   26.9989 O   0  0  0  0  0  0  0  0  0  0  0  0
  2  1  1  1
  2 13  1  0
  2  3  1  0
  3  4  1  0
  4  5  2  0
  6  5  1  0
  7  6  1  0
  8  7  2  0
  9  8  1  0
 10 11  1  0
 10  9  2  0
 11 12  2  0
 12  4  1  0
 12  7  1  0
 13 14  2  0
 16 15  1  0
 17 16  1  0
 19 18  1  1
 18 17  1  0
 20 19  1  0
 20 13  1  0
 21 22  2  0
 21 19  1  0
 23 21  1  0
 24 28  1  0
 24 23  1  0
 24 25  1  1
 26 30  1  0
 26 25  1  0
 27 26  2  0
 28 31  1  0
 29 28  2  0
M  END
$$$$
