WMD.pdb
     RDKit          3D

 31 32  0  0  1  0  0  0  0  0999 V2000
    8.8226  -16.8704   25.3116 N   0  0  0  0  0  0  0  0  0  0  0  0
    7.4549  -17.2075   25.0222 C   0  0  1  0  0  0  0  0  0  0  0  0
    6.5287  -16.4553   25.9030 C   0  0  0  0  0  0  0  0  0  0  0  0
    7.2408  -15.3317   26.5547 C   0  0  0  0  0  0  0  0  0  0  0  0
    8.4451  -15.4143   27.2637 C   0  0  0  0  0  0  0  0  0  0  0  0
    8.8133  -14.1946   27.6896 N   0  0  0  0  0  0  0  0  0  0  0  0
    7.9198  -13.2920   27.3055 C   0  0  0  0  0  0  0  0  0  0  0  0
    7.8537  -11.9327   27.5025 C   0  0  0  0  0  0  0  0  0  0  0  0
    6.7929  -11.2026   26.9991 C   0  0  0  0  0  0  0  0  0  0  0  0
    5.8242  -11.8843   26.3055 C   0  0  0  0  0  0  0  0  0  0  0  0
    5.8857  -13.2613   26.1022 C   0  0  0  0  0  0  0  0  0  0  0  0
    6.9306  -13.9842   26.5958 C   0  0  0  0  0  0  0  0  0  0  0  0
    7.1441  -17.0802   23.5766 C   0  0  0  0  0  0  0  0  0  0  0  0
    6.0047  -17.3974   23.1484 O   0  0  0  0  0  0  0  0  0  0  0  0
    8.5796  -11.2432   20.8853 C   0  0  0  0  0  0  0  0  0  0  0  0
    7.6615  -12.6389   20.1371 S   0  0  0  0  0  0  0  0  0  0  0  0
    8.1486  -14.1173   21.0109 C   0  0  0  0  0  0  0  0  0  0  0  0
    7.5515  -15.3933   20.4996 C   0  0  0  0  0  0  0  0  0  0  0  0
    7.8848  -16.6279   21.2082 C   0  0  2  0  0  0  0  0  0  0  0  0
    8.0607  -16.6155   22.6155 N   0  0  0  0  0  0  0  0  0  0  0  0
    9.0935  -17.2477   20.5980 C   0  0  0  0  0  0  0  0  0  0  0  0
    9.1121  -17.5929   19.3654 O   0  0  0  0  0  0  0  0  0  0  0  0
   10.2841  -17.4989   21.3034 N   0  0  0  0  0  0  0  0  0  0  0  0
   11.4186  -18.2527   20.7350 C   0  0  1  0  0  0  0  0  0  0  0  0
   12.4705  -17.2024   20.4631 C   0  0  0  0  0  0  0  0  0  0  0  0
   12.4894  -16.6861   19.0996 C   0  0  0  0  0  0  0  0  0  0  0  0
   11.5721  -17.1082   18.3196 O   0  0  0  0  0  0  0  0  0  0  0  0
   11.9099  -19.1514   21.8277 C   0  0  0  0  0  0  0  0  0  0  0  0
   11.3445  -19.1467   22.9676 O   0  0  0  0  0  0  0  0  0  0  0  0
   13.3791  -15.8019   18.5639 O   0  0  0  0  0  0  0  0  0  0  0  0
   12.9799  -20.0059   21.6401 O   0  0  0  0  0  0  0  0  0  0  0  0
  2  1  1  6
  2 13  1  0
  2  3  1  0
  3  4  1  0
  4  5  2  0
  6  5  1  0
  7  6  1  0
  8  7  2  0
  9  8  1  0
 10 11  1  0
 10  9  2  0
 11 12  2  0
 12  4  1  0
 12  7  1  0
 13 14  2  0
 16 15  1  0
 17 16  1  0
 19 18  1  6
 18 17  1  0
 20 19  1  0
 20 13  1  0
 21 22  2  0
 21 19  1  0
 23 21  1  0
 24 28  1  0
 24 23  1  0
 24 25  1  1
 26 30  1  0
 26 25  1  0
 27 26  2  0
 28 31  1  0
 29 28  2  0
M  END
$$$$
