WMD.pdb
     RDKit          3D

 31 32  0  0  1  0  0  0  0  0999 V2000
    9.5310  -17.3033   26.3937 N   0  0  0  0  0  0  0  0  0  0  0  0
    8.2446  -17.6594   25.8586 C   0  0  1  0  0  0  0  0  0  0  0  0
    7.1561  -17.2137   26.7618 C   0  0  0  0  0  0  0  0  0  0  0  0
    7.1393  -15.7353   26.8532 C   0  0  0  0  0  0  0  0  0  0  0  0
    6.2102  -14.8788   26.2507 C   0  0  0  0  0  0  0  0  0  0  0  0
    6.4828  -13.6035   26.5735 N   0  0  0  0  0  0  0  0  0  0  0  0
    7.5483  -13.5539   27.3626 C   0  0  0  0  0  0  0  0  0  0  0  0
    8.2070  -12.4940   27.9403 C   0  0  0  0  0  0  0  0  0  0  0  0
    9.3218  -12.7082   28.7297 C   0  0  0  0  0  0  0  0  0  0  0  0
    9.7352  -14.0049   28.9077 C   0  0  0  0  0  0  0  0  0  0  0  0
    9.0719  -15.0830   28.3254 C   0  0  0  0  0  0  0  0  0  0  0  0
    7.9718  -14.8760   27.5476 C   0  0  0  0  0  0  0  0  0  0  0  0
    8.0815  -17.2080   24.4543 C   0  0  0  0  0  0  0  0  0  0  0  0
    7.0404  -17.5072   23.8148 O   0  0  0  0  0  0  0  0  0  0  0  0
    8.5723  -11.9667   21.0186 C   0  0  0  0  0  0  0  0  0  0  0  0
    6.9921  -12.8166   21.3807 S   0  0  0  0  0  0  0  0  0  0  0  0
    7.3976  -14.3748   22.1513 C   0  0  0  0  0  0  0  0  0  0  0  0
    8.7362  -14.9431   21.7887 C   0  0  0  0  0  0  0  0  0  0  0  0
    9.0971  -16.2406   22.3578 C   0  0  2  0  0  0  0  0  0  0  0  0
    9.0376  -16.4439   23.7602 N   0  0  0  0  0  0  0  0  0  0  0  0
   10.4557  -16.6339   21.8921 C   0  0  0  0  0  0  0  0  0  0  0  0
   10.7132  -16.7838   20.6471 O   0  0  0  0  0  0  0  0  0  0  0  0
   11.5412  -16.8669   22.7556 N   0  0  0  0  0  0  0  0  0  0  0  0
   12.7548  -17.6028   22.3506 C   0  0  1  0  0  0  0  0  0  0  0  0
   13.8930  -16.6687   22.6905 C   0  0  0  0  0  0  0  0  0  0  0  0
   14.2084  -15.6811   21.6652 C   0  0  0  0  0  0  0  0  0  0  0  0
   13.4687  -15.6855   20.6257 O   0  0  0  0  0  0  0  0  0  0  0  0
   12.8335  -18.8001   23.2467 C   0  0  0  0  0  0  0  0  0  0  0  0
   13.7806  -19.6399   23.1166 O   0  0  0  0  0  0  0  0  0  0  0  0
   15.2069  -14.7523   21.6929 O   0  0  0  0  0  0  0  0  0  0  0  0
   11.8938  -19.0330   24.2331 O   0  0  0  0  0  0  0  0  0  0  0  0
  2  1  1  1
  2 13  1  0
  2  3  1  0
  3  4  1  0
  4  5  2  0
  6  5  1  0
  7  6  1  0
  8  7  2  0
  9  8  1  0
 10 11  1  0
 10  9  2  0
 11 12  2  0
 12  4  1  0
 12  7  1  0
 13 14  2  0
 16 15  1  0
 17 16  1  0
 19 18  1  1
 18 17  1  0
 20 19  1  0
 20 13  1  0
 21 22  2  0
 21 19  1  0
 23 21  1  0
 24 28  1  0
 24 23  1  0
 24 25  1  1
 26 30  1  0
 26 25  1  0
 27 26  2  0
 28 31  1  0
 29 28  2  0
M  END
$$$$
