WMD.pdb
     RDKit          3D

 31 32  0  0  1  0  0  0  0  0999 V2000
    6.2402  -17.3885   24.7650 N   0  0  0  0  0  0  0  0  0  0  0  0
    7.1831  -16.5124   24.1237 C   0  0  1  0  0  0  0  0  0  0  0  0
    8.2611  -16.1196   25.0634 C   0  0  0  0  0  0  0  0  0  0  0  0
    7.7201  -15.2383   26.1241 C   0  0  0  0  0  0  0  0  0  0  0  0
    7.2881  -15.6396   27.3938 C   0  0  0  0  0  0  0  0  0  0  0  0
    6.8898  -14.5709   28.1037 N   0  0  0  0  0  0  0  0  0  0  0  0
    7.0297  -13.4682   27.3792 C   0  0  0  0  0  0  0  0  0  0  0  0
    6.7555  -12.1505   27.6613 C   0  0  0  0  0  0  0  0  0  0  0  0
    6.9850  -11.1691   26.7148 C   0  0  0  0  0  0  0  0  0  0  0  0
    7.4902  -11.5624   25.5006 C   0  0  0  0  0  0  0  0  0  0  0  0
    7.7705  -12.8957   25.2090 C   0  0  0  0  0  0  0  0  0  0  0  0
    7.5468  -13.8659   26.1399 C   0  0  0  0  0  0  0  0  0  0  0  0
    7.6792  -17.0710   22.8415 C   0  0  0  0  0  0  0  0  0  0  0  0
    7.4298  -18.2660   22.5381 O   0  0  0  0  0  0  0  0  0  0  0  0
    6.8037  -12.1758   20.0965 C   0  0  0  0  0  0  0  0  0  0  0  0
    8.2517  -13.2953   20.1185 S   0  0  0  0  0  0  0  0  0  0  0  0
    7.7034  -14.8765   19.4977 C   0  0  0  0  0  0  0  0  0  0  0  0
    8.7476  -15.9510   19.4613 C   0  0  0  0  0  0  0  0  0  0  0  0
    8.8880  -16.7984   20.6444 C   0  0  2  0  0  0  0  0  0  0  0  0
    8.4343  -16.3385   21.9071 N   0  0  0  0  0  0  0  0  0  0  0  0
   10.3069  -17.2254   20.7919 C   0  0  0  0  0  0  0  0  0  0  0  0
   10.9276  -17.8084   19.8360 O   0  0  0  0  0  0  0  0  0  0  0  0
   11.0650  -17.0297   21.9603 N   0  0  0  0  0  0  0  0  0  0  0  0
   12.3654  -17.6849   22.2014 C   0  0  1  0  0  0  0  0  0  0  0  0
   13.3299  -16.5411   22.4138 C   0  0  0  0  0  0  0  0  0  0  0  0
   13.7972  -15.8928   21.1943 C   0  0  0  0  0  0  0  0  0  0  0  0
   14.6189  -14.9281   21.3429 O   0  0  0  0  0  0  0  0  0  0  0  0
   12.2206  -18.4352   23.4893 C   0  0  0  0  0  0  0  0  0  0  0  0
   13.1727  -19.1600   23.9221 O   0  0  0  0  0  0  0  0  0  0  0  0
   13.4537  -16.2023   19.9111 O   0  0  0  0  0  0  0  0  0  0  0  0
   11.0643  -18.3686   24.2434 O   0  0  0  0  0  0  0  0  0  0  0  0
  2  1  1  1
  2 13  1  0
  2  3  1  0
  3  4  1  0
  4  5  2  0
  6  5  1  0
  7  6  1  0
  8  7  2  0
  9  8  1  0
 10 11  1  0
 10  9  2  0
 11 12  2  0
 12  4  1  0
 12  7  1  0
 13 14  2  0
 16 15  1  0
 17 16  1  0
 19 18  1  6
 18 17  1  0
 20 19  1  0
 20 13  1  0
 21 22  2  0
 21 19  1  0
 23 21  1  0
 24 28  1  0
 24 23  1  0
 24 25  1  1
 26 30  1  0
 26 25  1  0
 27 26  2  0
 28 31  1  0
 29 28  2  0
M  END
$$$$
