WMD.pdb
     RDKit          3D

 31 32  0  0  1  0  0  0  0  0999 V2000
    6.8093  -17.1837   24.5885 N   0  0  0  0  0  0  0  0  0  0  0  0
    7.5684  -16.1807   23.8916 C   0  0  1  0  0  0  0  0  0  0  0  0
    8.6344  -15.6273   24.7616 C   0  0  0  0  0  0  0  0  0  0  0  0
    8.0365  -14.8764   25.8898 C   0  0  0  0  0  0  0  0  0  0  0  0
    7.7491  -15.3838   27.1625 C   0  0  0  0  0  0  0  0  0  0  0  0
    7.2422  -14.4136   27.9414 N   0  0  0  0  0  0  0  0  0  0  0  0
    7.1717  -13.2769   27.2606 C   0  0  0  0  0  0  0  0  0  0  0  0
    6.7236  -12.0266   27.6169 C   0  0  0  0  0  0  0  0  0  0  0  0
    6.7455  -10.9882   26.7042 C   0  0  0  0  0  0  0  0  0  0  0  0
    7.2262  -11.2568   25.4469 C   0  0  0  0  0  0  0  0  0  0  0  0
    7.6820  -12.5213   25.0800 C   0  0  0  0  0  0  0  0  0  0  0  0
    7.6632  -13.5472   25.9774 C   0  0  0  0  0  0  0  0  0  0  0  0
    8.0583  -16.6662   22.5776 C   0  0  0  0  0  0  0  0  0  0  0  0
    8.0252  -17.8948   22.3094 O   0  0  0  0  0  0  0  0  0  0  0  0
    6.0737  -12.1614   19.0592 C   0  0  0  0  0  0  0  0  0  0  0  0
    7.6911  -12.8613   19.5538 S   0  0  0  0  0  0  0  0  0  0  0  0
    7.7672  -14.5212   18.9017 C   0  0  0  0  0  0  0  0  0  0  0  0
    9.0359  -15.2668   19.1859 C   0  0  0  0  0  0  0  0  0  0  0  0
    9.0247  -16.2254   20.2897 C   0  0  2  0  0  0  0  0  0  0  0  0
    8.5755  -15.8261   21.5744 N   0  0  0  0  0  0  0  0  0  0  0  0
   10.3754  -16.8333   20.4420 C   0  0  0  0  0  0  0  0  0  0  0  0
   10.8617  -17.6041   19.5429 O   0  0  0  0  0  0  0  0  0  0  0  0
   11.2089  -16.6181   21.5543 N   0  0  0  0  0  0  0  0  0  0  0  0
   12.5635  -17.1918   21.6743 C   0  0  1  0  0  0  0  0  0  0  0  0
   13.4681  -15.9918   21.8334 C   0  0  0  0  0  0  0  0  0  0  0  0
   13.8847  -15.3629   20.5856 C   0  0  0  0  0  0  0  0  0  0  0  0
   13.5793  -15.9776   19.5101 O   0  0  0  0  0  0  0  0  0  0  0  0
   12.5730  -17.9719   22.9527 C   0  0  0  0  0  0  0  0  0  0  0  0
   13.1432  -19.1081   23.0088 O   0  0  0  0  0  0  0  0  0  0  0  0
   14.5655  -14.1901   20.4393 O   0  0  0  0  0  0  0  0  0  0  0  0
   11.9714  -17.4929   24.1011 O   0  0  0  0  0  0  0  0  0  0  0  0
  2  1  1  1
  2 13  1  0
  2  3  1  0
  3  4  1  0
  4  5  2  0
  6  5  1  0
  7  6  1  0
  8  7  2  0
  9  8  1  0
 10 11  1  0
 10  9  2  0
 11 12  2  0
 12  4  1  0
 12  7  1  0
 13 14  2  0
 16 15  1  0
 17 16  1  0
 19 18  1  6
 18 17  1  0
 20 19  1  0
 20 13  1  0
 21 22  2  0
 21 19  1  0
 23 21  1  0
 24 28  1  0
 24 23  1  0
 24 25  1  1
 26 30  1  0
 26 25  1  0
 27 26  2  0
 28 31  1  0
 29 28  2  0
M  END
$$$$
