DLQ.pdb
     RDKit          3D

 26 25  0  0  1  0  0  0  0  0999 V2000
   19.1693  -12.1621  -16.8660 N   0  0  0  0  0  0  0  0  0  0  0  0
   19.9450  -11.1936  -17.5773 C   0  0  1  0  0  0  0  0  0  0  0  0
   19.1388  -10.2257  -18.4103 C   0  0  0  0  0  0  0  0  0  0  0  0
   18.2361  -11.0327  -19.2646 C   0  0  0  0  0  0  0  0  0  0  0  0
   18.7436  -11.8383  -20.1082 O   0  0  0  0  0  0  0  0  0  0  0  0
   20.8607  -10.5130  -16.6526 C   0  0  0  0  0  0  0  0  0  0  0  0
   20.5050  -10.0269  -15.5454 O   0  0  0  0  0  0  0  0  0  0  0  0
   16.8622  -10.9020  -19.1437 O   0  0  0  0  0  0  0  0  0  0  0  0
   25.8076   -9.9746  -14.4025 C   0  0  0  0  0  0  0  0  0  0  0  0
   25.7373   -9.6126  -15.9161 C   0  0  1  0  0  0  0  0  0  0  0  0
   26.9921  -10.2911  -16.4788 C   0  0  0  0  0  0  0  0  0  0  0  0
   24.4973  -10.1981  -16.4708 C   0  0  0  0  0  0  0  0  0  0  0  0
   23.1813   -9.6145  -16.1355 C   0  0  2  0  0  0  0  0  0  0  0  0
   22.2171  -10.3803  -16.9971 N   0  0  0  0  0  0  0  0  0  0  0  0
   22.9598   -8.1937  -16.4472 C   0  0  0  0  0  0  0  0  0  0  0  0
   23.0663   -7.8196  -17.6498 O   0  0  0  0  0  0  0  0  0  0  0  0
   18.3053   -5.0104  -16.1151 N   0  0  0  0  0  0  0  0  0  0  0  0
   19.1572   -3.8991  -16.2481 C   0  0  0  0  0  0  0  0  0  0  0  0
   18.6658   -2.7647  -16.4310 O   0  0  0  0  0  0  0  0  0  0  0  0
   20.6207   -4.0810  -16.1717 C   0  0  0  0  0  0  0  0  0  0  0  0
   20.9127   -5.5380  -15.9332 C   0  0  0  0  0  0  0  0  0  0  0  0
   22.4141   -5.7927  -15.8616 C   0  0  2  0  0  0  0  0  0  0  0  0
   22.6367   -7.2030  -15.5130 N   0  0  0  0  0  0  0  0  0  0  0  0
   22.9901   -4.9849  -14.7805 C   0  0  0  0  0  0  0  0  0  0  0  0
   23.3626   -3.6457  -14.9018 O   0  0  0  0  0  0  0  0  0  0  0  0
   23.1749   -5.5297  -13.6351 O   0  0  0  0  0  0  0  0  0  0  0  0
  2  1  1  1
  2  3  1  0
  3  4  1  0
  4  8  1  0
  5  4  2  0
  6 14  1  0
  6  2  1  0
  7  6  2  0
 10  9  1  1
 10 12  1  0
 10 11  1  0
 13 12  1  6
 13 14  1  0
 15 13  1  0
 16 15  2  0
 17 18  1  0
 18 20  1  0
 19 18  2  0
 20 21  1  0
 22 21  1  1
 22 23  1  0
 23 15  1  0
 24 22  1  0
 24 25  1  0
 26 24  2  0
M  END
$$$$
