DLQ.pdb
     RDKit          3D

 26 25  0  0  1  0  0  0  0  0999 V2000
   22.2992   -5.0765  -16.2061 N   0  0  0  0  0  0  0  0  0  0  0  0
   21.6098   -6.2765  -15.8451 C   0  0  1  0  0  0  0  0  0  0  0  0
   20.1114   -6.2236  -16.0258 C   0  0  0  0  0  0  0  0  0  0  0  0
   19.6009   -5.1625  -15.1261 C   0  0  0  0  0  0  0  0  0  0  0  0
   19.0277   -4.1471  -15.6346 O   0  0  0  0  0  0  0  0  0  0  0  0
   22.2188   -7.4251  -16.5283 C   0  0  0  0  0  0  0  0  0  0  0  0
   22.5205   -7.4330  -17.7520 O   0  0  0  0  0  0  0  0  0  0  0  0
   19.7542   -5.2799  -13.7542 O   0  0  0  0  0  0  0  0  0  0  0  0
   26.5305  -10.2488  -14.7656 C   0  0  0  0  0  0  0  0  0  0  0  0
   25.5402   -9.5699  -15.7582 C   0  0  1  0  0  0  0  0  0  0  0  0
   26.1410   -9.9264  -17.1232 C   0  0  0  0  0  0  0  0  0  0  0  0
   24.2067  -10.1804  -15.5654 C   0  0  0  0  0  0  0  0  0  0  0  0
   23.0826   -9.8141  -16.4526 C   0  0  2  0  0  0  0  0  0  0  0  0
   22.4904   -8.5966  -15.8005 N   0  0  0  0  0  0  0  0  0  0  0  0
   21.9767  -10.7744  -16.5934 C   0  0  0  0  0  0  0  0  0  0  0  0
   21.2542  -11.0094  -15.5834 O   0  0  0  0  0  0  0  0  0  0  0  0
   17.6316  -12.6669  -20.6121 N   0  0  0  0  0  0  0  0  0  0  0  0
   17.7739  -11.3727  -20.0800 C   0  0  0  0  0  0  0  0  0  0  0  0
   16.8685  -10.5301  -20.2591 O   0  0  0  0  0  0  0  0  0  0  0  0
   18.9884  -11.0205  -19.3173 C   0  0  0  0  0  0  0  0  0  0  0  0
   19.8900  -12.2244  -19.2654 C   0  0  0  0  0  0  0  0  0  0  0  0
   20.5118  -12.3857  -17.8829 C   0  0  2  0  0  0  0  0  0  0  0  0
   21.6495  -11.4627  -17.7672 N   0  0  0  0  0  0  0  0  0  0  0  0
   21.0446  -13.7463  -17.7485 C   0  0  0  0  0  0  0  0  0  0  0  0
   20.3032  -14.8517  -17.3299 O   0  0  0  0  0  0  0  0  0  0  0  0
   22.2777  -13.9559  -18.0287 O   0  0  0  0  0  0  0  0  0  0  0  0
  2  1  1  6
  2  3  1  0
  3  4  1  0
  4  8  1  0
  5  4  2  0
  6 14  1  0
  6  2  1  0
  7  6  2  0
 10  9  1  1
 10 12  1  0
 10 11  1  0
 13 12  1  1
 13 14  1  0
 15 13  1  0
 16 15  2  0
 17 18  1  0
 18 20  1  0
 19 18  2  0
 20 21  1  0
 22 21  1  6
 22 23  1  0
 23 15  1  0
 24 22  1  0
 24 25  1  0
 26 24  2  0
M  END
$$$$
