DLQ.pdb
     RDKit          3D

 26 25  0  0  1  0  0  0  0  0999 V2000
   20.9898  -13.7176  -16.2011 N   0  0  0  0  0  0  0  0  0  0  0  0
   20.9400  -12.4551  -16.8712 C   0  0  1  0  0  0  0  0  0  0  0  0
   19.5512  -11.9871  -17.2360 C   0  0  0  0  0  0  0  0  0  0  0  0
   18.9201  -13.0696  -18.0271 C   0  0  0  0  0  0  0  0  0  0  0  0
   19.5312  -13.5244  -19.0459 O   0  0  0  0  0  0  0  0  0  0  0  0
   21.6871  -11.4528  -16.1005 C   0  0  0  0  0  0  0  0  0  0  0  0
   21.3786  -11.0948  -14.9320 O   0  0  0  0  0  0  0  0  0  0  0  0
   17.6815  -13.5693  -17.6590 O   0  0  0  0  0  0  0  0  0  0  0  0
   27.1406  -11.0642  -16.6987 C   0  0  0  0  0  0  0  0  0  0  0  0
   25.7896  -11.0644  -15.9230 C   0  0  1  0  0  0  0  0  0  0  0  0
   26.2380  -10.8370  -14.4743 C   0  0  0  0  0  0  0  0  0  0  0  0
   24.9695   -9.9425  -16.4297 C   0  0  0  0  0  0  0  0  0  0  0  0
   23.5796   -9.7621  -15.9599 C   0  0  2  0  0  0  0  0  0  0  0  0
   22.8145  -10.8402  -16.6746 N   0  0  0  0  0  0  0  0  0  0  0  0
   22.9007   -8.4993  -16.2903 C   0  0  0  0  0  0  0  0  0  0  0  0
   22.4498   -8.3491  -17.4614 O   0  0  0  0  0  0  0  0  0  0  0  0
   18.6456   -7.0104  -17.8307 N   0  0  0  0  0  0  0  0  0  0  0  0
   18.5436   -5.8146  -17.0972 C   0  0  0  0  0  0  0  0  0  0  0  0
   17.6381   -4.9984  -17.3725 O   0  0  0  0  0  0  0  0  0  0  0  0
   19.5047   -5.5332  -16.0119 C   0  0  0  0  0  0  0  0  0  0  0  0
   20.4301   -6.7117  -15.8712 C   0  0  0  0  0  0  0  0  0  0  0  0
   21.8768   -6.2581  -15.7123 C   0  0  2  0  0  0  0  0  0  0  0  0
   22.7077   -7.4312  -15.4068 N   0  0  0  0  0  0  0  0  0  0  0  0
   21.9749   -5.3491  -14.5646 C   0  0  0  0  0  0  0  0  0  0  0  0
   21.8737   -3.9597  -14.6411 O   0  0  0  0  0  0  0  0  0  0  0  0
   22.1695   -5.8463  -13.3993 O   0  0  0  0  0  0  0  0  0  0  0  0
  2  1  1  1
  2  3  1  0
  3  4  1  0
  4  8  1  0
  5  4  2  0
  6 14  1  0
  6  2  1  0
  7  6  2  0
 10  9  1  6
 10 12  1  0
 10 11  1  0
 13 12  1  6
 13 14  1  0
 15 13  1  0
 16 15  2  0
 17 18  1  0
 18 20  1  0
 19 18  2  0
 20 21  1  0
 22 21  1  1
 22 23  1  0
 23 15  1  0
 24 22  1  0
 24 25  1  0
 26 24  2  0
M  END
$$$$
