DLQ.pdb
     RDKit          3D

 26 25  0  0  1  0  0  0  0  0999 V2000
   19.7182  -12.9044  -17.6326 N   0  0  0  0  0  0  0  0  0  0  0  0
   19.0195  -12.4478  -16.4712 C   0  0  1  0  0  0  0  0  0  0  0  0
   18.5450  -13.5439  -15.5470 C   0  0  0  0  0  0  0  0  0  0  0  0
   17.5262  -14.3264  -16.2856 C   0  0  0  0  0  0  0  0  0  0  0  0
   16.8306  -13.7448  -17.1779 O   0  0  0  0  0  0  0  0  0  0  0  0
   19.8208  -11.4327  -15.7753 C   0  0  0  0  0  0  0  0  0  0  0  0
   19.4921  -10.9142  -14.6745 O   0  0  0  0  0  0  0  0  0  0  0  0
   17.3371  -15.6686  -15.9992 O   0  0  0  0  0  0  0  0  0  0  0  0
   25.2933  -11.7475  -15.7205 C   0  0  0  0  0  0  0  0  0  0  0  0
   23.8425  -11.5145  -15.2032 C   0  0  1  0  0  0  0  0  0  0  0  0
   24.0684  -11.1587  -13.7288 C   0  0  0  0  0  0  0  0  0  0  0  0
   23.2611  -10.3848  -15.9609 C   0  0  0  0  0  0  0  0  0  0  0  0
   21.8768   -9.9407  -15.6940 C   0  0  2  0  0  0  0  0  0  0  0  0
   21.0275  -10.9943  -16.3475 N   0  0  0  0  0  0  0  0  0  0  0  0
   21.4430   -8.6584  -16.2705 C   0  0  0  0  0  0  0  0  0  0  0  0
   21.2378   -8.5994  -17.5162 O   0  0  0  0  0  0  0  0  0  0  0  0
   16.6763   -5.7499  -15.9463 N   0  0  0  0  0  0  0  0  0  0  0  0
   17.3880   -4.6773  -16.5131 C   0  0  0  0  0  0  0  0  0  0  0  0
   16.7681   -3.6654  -16.9052 O   0  0  0  0  0  0  0  0  0  0  0  0
   18.8572   -4.7552  -16.6410 C   0  0  0  0  0  0  0  0  0  0  0  0
   19.3257   -6.0466  -16.0263 C   0  0  0  0  0  0  0  0  0  0  0  0
   20.8360   -6.2037  -16.1629 C   0  0  2  0  0  0  0  0  0  0  0  0
   21.2347   -7.4778  -15.5484 N   0  0  0  0  0  0  0  0  0  0  0  0
   21.5029   -5.1346  -15.4112 C   0  0  0  0  0  0  0  0  0  0  0  0
   21.9060   -3.9142  -15.9543 O   0  0  0  0  0  0  0  0  0  0  0  0
   21.7439   -5.3149  -14.1652 O   0  0  0  0  0  0  0  0  0  0  0  0
  2  1  1  6
  2  3  1  0
  3  4  1  0
  4  8  1  0
  5  4  2  0
  6 14  1  0
  6  2  1  0
  7  6  2  0
 10  9  1  6
 10 12  1  0
 10 11  1  0
 13 12  1  6
 13 14  1  0
 15 13  1  0
 16 15  2  0
 17 18  1  0
 18 20  1  0
 19 18  2  0
 20 21  1  0
 22 21  1  1
 22 23  1  0
 23 15  1  0
 24 22  1  0
 24 25  1  0
 26 24  2  0
M  END
$$$$
