DLQ.pdb
     RDKit          3D

 26 25  0  0  1  0  0  0  0  0999 V2000
   21.5968  -13.6804  -16.6311 N   0  0  0  0  0  0  0  0  0  0  0  0
   21.7316  -12.4599  -17.3645 C   0  0  1  0  0  0  0  0  0  0  0  0
   20.4569  -11.9618  -18.0029 C   0  0  0  0  0  0  0  0  0  0  0  0
   20.0078  -13.0067  -18.9528 C   0  0  0  0  0  0  0  0  0  0  0  0
   20.8180  -13.9316  -19.2793 O   0  0  0  0  0  0  0  0  0  0  0  0
   22.3746  -11.4422  -16.5232 C   0  0  0  0  0  0  0  0  0  0  0  0
   22.0160  -11.1796  -15.3438 O   0  0  0  0  0  0  0  0  0  0  0  0
   18.7257  -12.9668  -19.4764 O   0  0  0  0  0  0  0  0  0  0  0  0
   27.8252  -10.7536  -16.8329 C   0  0  0  0  0  0  0  0  0  0  0  0
   26.3810  -10.9642  -16.2881 C   0  0  1  0  0  0  0  0  0  0  0  0
   26.6075  -11.0604  -14.7745 C   0  0  0  0  0  0  0  0  0  0  0  0
   25.5760   -9.7776  -16.6515 C   0  0  0  0  0  0  0  0  0  0  0  0
   24.1682   -9.6682  -16.2143 C   0  0  2  0  0  0  0  0  0  0  0  0
   23.4533  -10.7023  -17.0377 N   0  0  0  0  0  0  0  0  0  0  0  0
   23.4674   -8.3988  -16.4642 C   0  0  0  0  0  0  0  0  0  0  0  0
   23.1206   -8.1281  -17.6490 O   0  0  0  0  0  0  0  0  0  0  0  0
   18.4824   -7.6430  -16.9464 N   0  0  0  0  0  0  0  0  0  0  0  0
   18.6097   -6.2575  -16.7401 C   0  0  0  0  0  0  0  0  0  0  0  0
   17.6209   -5.5146  -16.9193 O   0  0  0  0  0  0  0  0  0  0  0  0
   19.9068   -5.6932  -16.3158 C   0  0  0  0  0  0  0  0  0  0  0  0
   20.8674   -6.8257  -16.0719 C   0  0  0  0  0  0  0  0  0  0  0  0
   22.2569   -6.3025  -15.7256 C   0  0  2  0  0  0  0  0  0  0  0  0
   23.1463   -7.4482  -15.4886 N   0  0  0  0  0  0  0  0  0  0  0  0
   22.1885   -5.5426  -14.4723 C   0  0  0  0  0  0  0  0  0  0  0  0
   22.5102   -6.0544  -13.2148 O   0  0  0  0  0  0  0  0  0  0  0  0
   21.8060   -4.3199  -14.5127 O   0  0  0  0  0  0  0  0  0  0  0  0
  2  1  1  1
  2  3  1  0
  3  4  1  0
  4  8  1  0
  5  4  2  0
  6 14  1  0
  6  2  1  0
  7  6  2  0
 10  9  1  6
 10 12  1  0
 10 11  1  0
 13 12  1  6
 13 14  1  0
 15 13  1  0
 16 15  2  0
 17 18  1  0
 18 20  1  0
 19 18  2  0
 20 21  1  0
 22 21  1  1
 22 23  1  0
 23 15  1  0
 24 22  1  0
 24 25  1  0
 26 24  2  0
M  END
$$$$
