DLQ.pdb
     RDKit          3D

 26 25  0  0  1  0  0  0  0  0999 V2000
   24.4197  -14.2194  -19.8592 N   0  0  0  0  0  0  0  0  0  0  0  0
   24.9319  -15.5488  -19.9850 C   0  0  1  0  0  0  0  0  0  0  0  0
   26.3213  -15.6384  -20.5701 C   0  0  0  0  0  0  0  0  0  0  0  0
   26.2618  -15.0466  -21.9273 C   0  0  0  0  0  0  0  0  0  0  0  0
   25.2073  -15.2026  -22.6215 O   0  0  0  0  0  0  0  0  0  0  0  0
   24.8162  -16.2504  -18.7001 C   0  0  0  0  0  0  0  0  0  0  0  0
   25.1215  -17.4619  -18.5333 O   0  0  0  0  0  0  0  0  0  0  0  0
   27.3441  -14.3404  -22.4268 O   0  0  0  0  0  0  0  0  0  0  0  0
   27.0018  -16.6087  -15.6091 C   0  0  0  0  0  0  0  0  0  0  0  0
   26.4700  -15.1758  -15.3076 C   0  0  1  0  0  0  0  0  0  0  0  0
   27.0496  -14.3555  -16.4662 C   0  0  0  0  0  0  0  0  0  0  0  0
   24.9919  -15.2175  -15.3459 C   0  0  0  0  0  0  0  0  0  0  0  0
   24.2947  -16.1904  -16.2133 C   0  0  2  0  0  0  0  0  0  0  0  0
   24.3389  -15.5561  -17.5749 N   0  0  0  0  0  0  0  0  0  0  0  0
   22.8744  -16.4605  -15.9402 C   0  0  0  0  0  0  0  0  0  0  0  0
   22.5548  -16.8911  -14.7958 O   0  0  0  0  0  0  0  0  0  0  0  0
   18.1969  -13.3363  -18.1354 N   0  0  0  0  0  0  0  0  0  0  0  0
   19.0640  -13.0159  -17.0753 C   0  0  0  0  0  0  0  0  0  0  0  0
   19.0985  -11.8449  -16.6402 O   0  0  0  0  0  0  0  0  0  0  0  0
   19.9248  -14.0620  -16.4874 C   0  0  0  0  0  0  0  0  0  0  0  0
   19.5840  -15.3810  -17.1269 C   0  0  0  0  0  0  0  0  0  0  0  0
   20.4135  -16.5118  -16.5292 C   0  0  2  0  0  0  0  0  0  0  0  0
   21.8283  -16.2801  -16.8524 N   0  0  0  0  0  0  0  0  0  0  0  0
   20.0286  -17.7793  -17.1605 C   0  0  0  0  0  0  0  0  0  0  0  0
   18.9751  -18.5899  -16.7366 O   0  0  0  0  0  0  0  0  0  0  0  0
   20.6964  -18.1908  -18.1743 O   0  0  0  0  0  0  0  0  0  0  0  0
  2  1  1  1
  2  3  1  0
  3  4  1  0
  4  8  1  0
  5  4  2  0
  6 14  1  0
  6  2  1  0
  7  6  2  0
 10  9  1  6
 10 12  1  0
 10 11  1  0
 13 12  1  1
 13 14  1  0
 15 13  1  0
 16 15  2  0
 17 18  1  0
 18 20  1  0
 19 18  2  0
 20 21  1  0
 22 21  1  6
 22 23  1  0
 23 15  1  0
 24 22  1  0
 24 25  1  0
 26 24  2  0
M  END
$$$$
