DLQ.pdb
     RDKit          3D

 26 25  0  0  1  0  0  0  0  0999 V2000
   24.8485  -17.4192  -17.5851 N   0  0  0  0  0  0  0  0  0  0  0  0
   25.1906  -18.6961  -18.1311 C   0  0  1  0  0  0  0  0  0  0  0  0
   26.4774  -18.7218  -18.9212 C   0  0  0  0  0  0  0  0  0  0  0  0
   26.4173  -17.6012  -19.8889 C   0  0  0  0  0  0  0  0  0  0  0  0
   25.5231  -17.6161  -20.7937 O   0  0  0  0  0  0  0  0  0  0  0  0
   25.1595  -19.7142  -17.0731 C   0  0  0  0  0  0  0  0  0  0  0  0
   25.3204  -20.9467  -17.2819 O   0  0  0  0  0  0  0  0  0  0  0  0
   27.3275  -16.5601  -19.8058 O   0  0  0  0  0  0  0  0  0  0  0  0
   28.5020  -19.3258  -13.3584 C   0  0  0  0  0  0  0  0  0  0  0  0
   27.5086  -19.9324  -14.3938 C   0  0  1  0  0  0  0  0  0  0  0  0
   28.0150  -21.3728  -14.5359 C   0  0  0  0  0  0  0  0  0  0  0  0
   26.1499  -19.8798  -13.8114 C   0  0  0  0  0  0  0  0  0  0  0  0
   24.9794  -20.3049  -14.6077 C   0  0  2  0  0  0  0  0  0  0  0  0
   24.9379  -19.3201  -15.7421 N   0  0  0  0  0  0  0  0  0  0  0  0
   23.6547  -20.2417  -13.9703 C   0  0  0  0  0  0  0  0  0  0  0  0
   23.4262  -19.3050  -13.1532 O   0  0  0  0  0  0  0  0  0  0  0  0
   19.0777  -17.0953  -14.3984 N   0  0  0  0  0  0  0  0  0  0  0  0
   18.6331  -18.4261  -14.4964 C   0  0  0  0  0  0  0  0  0  0  0  0
   17.7055  -18.7091  -15.2846 O   0  0  0  0  0  0  0  0  0  0  0  0
   19.2630  -19.4748  -13.6693 C   0  0  0  0  0  0  0  0  0  0  0  0
   20.6892  -19.6489  -14.1173 C   0  0  0  0  0  0  0  0  0  0  0  0
   21.2569  -20.9801  -13.6378 C   0  0  2  0  0  0  0  0  0  0  0  0
   22.6079  -21.1435  -14.1927 N   0  0  0  0  0  0  0  0  0  0  0  0
   20.4367  -22.0746  -14.1692 C   0  0  0  0  0  0  0  0  0  0  0  0
   19.2922  -22.5810  -13.5526 O   0  0  0  0  0  0  0  0  0  0  0  0
   20.7799  -22.6202  -15.2771 O   0  0  0  0  0  0  0  0  0  0  0  0
  2  1  1  1
  2  3  1  0
  3  4  1  0
  4  8  1  0
  5  4  2  0
  6 14  1  0
  6  2  1  0
  7  6  2  0
 10  9  1  1
 10 12  1  0
 10 11  1  0
 13 12  1  1
 13 14  1  0
 15 13  1  0
 16 15  2  0
 17 18  1  0
 18 20  1  0
 19 18  2  0
 20 21  1  0
 22 21  1  6
 22 23  1  0
 23 15  1  0
 24 22  1  0
 24 25  1  0
 26 24  2  0
M  END
$$$$
