DLQ.pdb
     RDKit          3D

 26 25  0  0  1  0  0  0  0  0999 V2000
   27.6759  -19.6619  -15.9319 N   0  0  0  0  0  0  0  0  0  0  0  0
   26.9671  -20.8139  -16.3966 C   0  0  1  0  0  0  0  0  0  0  0  0
   27.8390  -21.8995  -16.9814 C   0  0  0  0  0  0  0  0  0  0  0  0
   28.5926  -21.2954  -18.1052 C   0  0  0  0  0  0  0  0  0  0  0  0
   29.7839  -20.8971  -17.9042 O   0  0  0  0  0  0  0  0  0  0  0  0
   26.0807  -21.3135  -15.3377 C   0  0  0  0  0  0  0  0  0  0  0  0
   25.3620  -22.3425  -15.4531 O   0  0  0  0  0  0  0  0  0  0  0  0
   27.9999  -21.1656  -19.3507 O   0  0  0  0  0  0  0  0  0  0  0  0
   25.5898  -22.2564   -9.8227 C   0  0  0  0  0  0  0  0  0  0  0  0
   25.2215  -20.8795  -10.4516 C   0  0  1  0  0  0  0  0  0  0  0  0
   25.8260  -19.8855   -9.4527 C   0  0  0  0  0  0  0  0  0  0  0  0
   25.8703  -20.7928  -11.7781 C   0  0  0  0  0  0  0  0  0  0  0  0
   25.0969  -21.0696  -13.0069 C   0  0  2  0  0  0  0  0  0  0  0  0
   26.0085  -20.6234  -14.1152 N   0  0  0  0  0  0  0  0  0  0  0  0
   23.8349  -20.3392  -13.2042 C   0  0  0  0  0  0  0  0  0  0  0  0
   23.8736  -19.2242  -13.7979 O   0  0  0  0  0  0  0  0  0  0  0  0
   20.5050  -23.3217  -16.0370 N   0  0  0  0  0  0  0  0  0  0  0  0
   19.7440  -22.1635  -16.2772 C   0  0  0  0  0  0  0  0  0  0  0  0
   18.7233  -22.2349  -16.9947 O   0  0  0  0  0  0  0  0  0  0  0  0
   20.1562  -20.8761  -15.6825 C   0  0  0  0  0  0  0  0  0  0  0  0
   21.4292  -21.0893  -14.9086 C   0  0  0  0  0  0  0  0  0  0  0  0
   21.3272  -20.4944  -13.5087 C   0  0  2  0  0  0  0  0  0  0  0  0
   22.5740  -20.7779  -12.7842 N   0  0  0  0  0  0  0  0  0  0  0  0
   20.2427  -21.1605  -12.7785 C   0  0  0  0  0  0  0  0  0  0  0  0
   20.2344  -22.5106  -12.4267 O   0  0  0  0  0  0  0  0  0  0  0  0
   19.2193  -20.4714  -12.4312 O   0  0  0  0  0  0  0  0  0  0  0  0
  2  1  1  1
  2  3  1  0
  3  4  1  0
  4  8  1  0
  5  4  2  0
  6 14  1  0
  6  2  1  0
  7  6  2  0
 10  9  1  1
 10 12  1  0
 10 11  1  0
 13 12  1  1
 13 14  1  0
 15 13  1  0
 16 15  2  0
 17 18  1  0
 18 20  1  0
 19 18  2  0
 20 21  1  0
 22 21  1  6
 22 23  1  0
 23 15  1  0
 24 22  1  0
 24 25  1  0
 26 24  2  0
M  END
$$$$
