DLQ.pdb
     RDKit          3D

 26 25  0  0  1  0  0  0  0  0999 V2000
   27.5671  -21.9797  -16.1641 N   0  0  0  0  0  0  0  0  0  0  0  0
   26.9738  -20.8647  -15.4930 C   0  0  1  0  0  0  0  0  0  0  0  0
   26.4396  -19.7877  -16.4069 C   0  0  0  0  0  0  0  0  0  0  0  0
   27.6101  -19.1033  -17.0049 C   0  0  0  0  0  0  0  0  0  0  0  0
   28.7588  -19.2835  -16.4890 O   0  0  0  0  0  0  0  0  0  0  0  0
   25.9677  -21.3390  -14.5340 C   0  0  0  0  0  0  0  0  0  0  0  0
   25.2750  -22.3786  -14.7020 O   0  0  0  0  0  0  0  0  0  0  0  0
   27.4464  -18.2780  -18.1055 O   0  0  0  0  0  0  0  0  0  0  0  0
   26.0714  -20.0010   -8.9427 C   0  0  0  0  0  0  0  0  0  0  0  0
   25.9371  -20.9313  -10.1850 C   0  0  1  0  0  0  0  0  0  0  0  0
   25.3336  -22.2057   -9.5822 C   0  0  0  0  0  0  0  0  0  0  0  0
   25.0159  -20.2848  -11.1450 C   0  0  0  0  0  0  0  0  0  0  0  0
   24.6400  -20.9729  -12.3980 C   0  0  2  0  0  0  0  0  0  0  0  0
   25.7422  -20.6107  -13.3531 N   0  0  0  0  0  0  0  0  0  0  0  0
   23.3874  -20.5682  -13.0555 C   0  0  0  0  0  0  0  0  0  0  0  0
   23.3044  -19.3947  -13.5173 O   0  0  0  0  0  0  0  0  0  0  0  0
   20.6804  -23.2666  -17.4399 N   0  0  0  0  0  0  0  0  0  0  0  0
   19.6688  -22.3164  -17.2113 C   0  0  0  0  0  0  0  0  0  0  0  0
   18.7385  -22.1964  -18.0370 O   0  0  0  0  0  0  0  0  0  0  0  0
   19.7144  -21.4701  -16.0019 C   0  0  0  0  0  0  0  0  0  0  0  0
   20.9801  -21.7767  -15.2476 C   0  0  0  0  0  0  0  0  0  0  0  0
   21.0565  -20.9741  -13.9537 C   0  0  2  0  0  0  0  0  0  0  0  0
   22.2605  -21.3822  -13.2164 N   0  0  0  0  0  0  0  0  0  0  0  0
   19.9016  -21.3049  -13.1112 C   0  0  0  0  0  0  0  0  0  0  0  0
   18.6213  -20.7751  -13.2749 O   0  0  0  0  0  0  0  0  0  0  0  0
   20.0589  -22.1365  -12.1485 O   0  0  0  0  0  0  0  0  0  0  0  0
  2  1  1  6
  2  3  1  0
  3  4  1  0
  4  8  1  0
  5  4  2  0
  6 14  1  0
  6  2  1  0
  7  6  2  0
 10  9  1  1
 10 12  1  0
 10 11  1  0
 13 12  1  1
 13 14  1  0
 15 13  1  0
 16 15  2  0
 17 18  1  0
 18 20  1  0
 19 18  2  0
 20 21  1  0
 22 21  1  6
 22 23  1  0
 23 15  1  0
 24 22  1  0
 24 25  1  0
 26 24  2  0
M  END
$$$$
