PIM.pdb
     RDKit          3D

 24 24  0  0  1  0  0  0  0  0999 V2000
    6.9975  -15.7694   21.5272 N   0  0  0  0  0  0  0  0  0  0  0  0
    6.3663  -15.4809   20.2628 C   0  0  0  0  0  0  0  0  0  0  0  0
    7.0516  -14.2789   19.6869 C   0  0  0  0  0  0  0  0  0  0  0  0
    8.2381  -14.0267   20.6047 C   0  0  0  0  0  0  0  0  0  0  0  0
    8.3463  -15.2912   21.4222 C   0  0  1  0  0  0  0  0  0  0  0  0
    8.9651  -15.0526   22.7552 C   0  0  0  0  0  0  0  0  0  0  0  0
   10.1852  -14.7760   22.8857 O   0  0  0  0  0  0  0  0  0  0  0  0
    6.1254  -12.0905   26.0120 C   0  0  0  0  0  0  0  0  0  0  0  0
    7.2979  -12.7542   25.3413 C   0  0  0  0  0  0  0  0  0  0  0  0
    7.7261  -14.0280   25.9503 C   0  0  2  0  0  0  0  0  0  0  0  0
    8.1931  -13.6969   27.3772 C   0  0  0  0  0  0  0  0  0  0  0  0
    8.7779  -14.8249   25.2569 C   0  0  2  0  0  0  0  0  0  0  0  0
    8.1939  -15.1298   23.9300 N   0  0  0  0  0  0  0  0  0  0  0  0
    9.1120  -16.0776   25.9494 C   0  0  0  0  0  0  0  0  0  0  0  0
    8.1746  -16.9241   26.1291 O   0  0  0  0  0  0  0  0  0  0  0  0
   14.3869  -19.2950   24.9773 C   0  0  0  0  0  0  0  0  0  0  0  0
   14.0168  -20.0284   26.6101 S   0  0  0  0  0  0  0  0  0  0  0  0
   12.2888  -19.6400   27.0748 C   0  0  0  0  0  0  0  0  0  0  0  0
   12.0261  -18.2332   26.6191 C   0  0  0  0  0  0  0  0  0  0  0  0
   10.6262  -17.7634   26.9434 C   0  0  2  0  0  0  0  0  0  0  0  0
   10.3793  -16.4295   26.4312 N   0  0  0  0  0  0  0  0  0  0  0  0
   10.4046  -17.7839   28.3901 C   0  0  0  0  0  0  0  0  0  0  0  0
   10.4359  -16.6683   29.0168 O   0  0  0  0  0  0  0  0  0  0  0  0
   10.1711  -18.9581   29.0522 O   0  0  0  0  0  0  0  0  0  0  0  0
  1  2  1  0
  3  2  1  0
  4  3  1  0
  5  4  1  0
  5  1  1  0
  5  6  1  1
  7  6  2  0
  9  8  1  0
  9 10  1  0
 10 12  1  0
 10 11  1  1
 12 13  1  6
 13  6  1  0
 14 15  2  0
 14 12  1  0
 17 16  1  0
 18 19  1  0
 18 17  1  0
 20 19  1  1
 20 21  1  0
 21 14  1  0
 22 20  1  0
 23 22  2  0
 24 22  1  0
M  END
$$$$
