PIM.pdb
     RDKit          3D

 24 24  0  0  1  0  0  0  0  0999 V2000
    7.2709  -14.9587   20.4130 N   0  0  0  0  0  0  0  0  0  0  0  0
    6.7469  -14.5183   19.1433 C   0  0  0  0  0  0  0  0  0  0  0  0
    7.3777  -13.1940   18.8364 C   0  0  0  0  0  0  0  0  0  0  0  0
    8.4391  -13.0070   19.9098 C   0  0  0  0  0  0  0  0  0  0  0  0
    8.5759  -14.3745   20.5343 C   0  0  1  0  0  0  0  0  0  0  0  0
    9.0341  -14.3077   21.9493 C   0  0  0  0  0  0  0  0  0  0  0  0
   10.2104  -13.9847   22.2563 O   0  0  0  0  0  0  0  0  0  0  0  0
    5.4832  -12.3310   25.5758 C   0  0  0  0  0  0  0  0  0  0  0  0
    6.7838  -12.6448   24.8866 C   0  0  0  0  0  0  0  0  0  0  0  0
    7.2929  -14.0119   25.1073 C   0  0  2  0  0  0  0  0  0  0  0  0
    7.4649  -14.1761   26.6263 C   0  0  0  0  0  0  0  0  0  0  0  0
    8.5517  -14.4174   24.4193 C   0  0  2  0  0  0  0  0  0  0  0  0
    8.1533  -14.6081   23.0052 N   0  0  0  0  0  0  0  0  0  0  0  0
    9.1270  -15.6643   24.9431 C   0  0  0  0  0  0  0  0  0  0  0  0
    8.6952  -16.7644   24.4626 O   0  0  0  0  0  0  0  0  0  0  0  0
   10.8092  -13.9182   30.0218 C   0  0  0  0  0  0  0  0  0  0  0  0
   11.3601  -14.5754   28.4077 S   0  0  0  0  0  0  0  0  0  0  0  0
   11.5806  -16.3890   28.5315 C   0  0  0  0  0  0  0  0  0  0  0  0
   11.9189  -16.8768   27.1520 C   0  0  0  0  0  0  0  0  0  0  0  0
   10.7005  -17.0365   26.2712 C   0  0  2  0  0  0  0  0  0  0  0  0
   10.1180  -15.7535   25.9290 N   0  0  0  0  0  0  0  0  0  0  0  0
    9.6979  -17.8707   26.9356 C   0  0  0  0  0  0  0  0  0  0  0  0
    8.7015  -17.2857   27.4865 O   0  0  0  0  0  0  0  0  0  0  0  0
    9.8211  -19.2329   26.9671 O   0  0  0  0  0  0  0  0  0  0  0  0
  1  2  1  0
  3  2  1  0
  4  3  1  0
  5  4  1  0
  5  1  1  0
  5  6  1  1
  7  6  2  0
  9  8  1  0
  9 10  1  0
 10 12  1  0
 10 11  1  1
 12 13  1  6
 13  6  1  0
 14 15  2  0
 14 12  1  0
 17 16  1  0
 18 19  1  0
 18 17  1  0
 20 19  1  1
 20 21  1  0
 21 14  1  0
 22 20  1  0
 23 22  2  0
 24 22  1  0
M  END
$$$$
