PIM.pdb
     RDKit          3D

 24 24  0  0  1  0  0  0  0  0999 V2000
    7.4402  -15.0942   20.5254 N   0  0  0  0  0  0  0  0  0  0  0  0
    6.9778  -14.6715   19.2261 C   0  0  0  0  0  0  0  0  0  0  0  0
    7.5839  -13.3284   18.9530 C   0  0  0  0  0  0  0  0  0  0  0  0
    8.5744  -13.1074   20.0860 C   0  0  0  0  0  0  0  0  0  0  0  0
    8.7170  -14.4694   20.7211 C   0  0  1  0  0  0  0  0  0  0  0  0
    9.0894  -14.3871   22.1603 C   0  0  0  0  0  0  0  0  0  0  0  0
   10.1978  -13.9281   22.5385 O   0  0  0  0  0  0  0  0  0  0  0  0
    5.2879  -12.5251   25.3724 C   0  0  0  0  0  0  0  0  0  0  0  0
    6.6528  -12.8406   24.8224 C   0  0  0  0  0  0  0  0  0  0  0  0
    7.1705  -14.1784   25.1675 C   0  0  2  0  0  0  0  0  0  0  0  0
    7.2389  -14.2398   26.7022 C   0  0  0  0  0  0  0  0  0  0  0  0
    8.4817  -14.5983   24.5957 C   0  0  2  0  0  0  0  0  0  0  0  0
    8.2007  -14.8266   23.1592 N   0  0  0  0  0  0  0  0  0  0  0  0
    9.0127  -15.8298   25.1971 C   0  0  0  0  0  0  0  0  0  0  0  0
    8.6977  -16.9395   24.6523 O   0  0  0  0  0  0  0  0  0  0  0  0
   10.7685  -13.4388   28.6738 C   0  0  0  0  0  0  0  0  0  0  0  0
   12.0455  -14.6891   29.0571 S   0  0  0  0  0  0  0  0  0  0  0  0
   12.2682  -15.7943   27.6143 C   0  0  0  0  0  0  0  0  0  0  0  0
   11.4031  -16.9979   27.8562 C   0  0  0  0  0  0  0  0  0  0  0  0
   10.3329  -17.1723   26.8026 C   0  0  2  0  0  0  0  0  0  0  0  0
    9.8435  -15.8944   26.3230 N   0  0  0  0  0  0  0  0  0  0  0  0
    9.2183  -17.9580   27.3343 C   0  0  0  0  0  0  0  0  0  0  0  0
    8.1280  -17.3444   27.6048 O   0  0  0  0  0  0  0  0  0  0  0  0
    9.3372  -19.3059   27.5361 O   0  0  0  0  0  0  0  0  0  0  0  0
  1  2  1  0
  3  2  1  0
  4  3  1  0
  5  4  1  0
  5  1  1  0
  5  6  1  1
  7  6  2  0
  9  8  1  0
  9 10  1  0
 10 12  1  0
 10 11  1  1
 12 13  1  6
 13  6  1  0
 14 15  2  0
 14 12  1  0
 17 16  1  0
 18 19  1  0
 18 17  1  0
 20 19  1  1
 20 21  1  0
 21 14  1  0
 22 20  1  0
 23 22  2  0
 24 22  1  0
M  END
$$$$
