PIM.pdb
     RDKit          3D

 24 24  0  0  1  0  0  0  0  0999 V2000
    8.4939  -16.0050   19.4430 N   0  0  0  0  0  0  0  0  0  0  0  0
    8.1019  -17.0592   18.5400 C   0  0  0  0  0  0  0  0  0  0  0  0
    7.8298  -18.2776   19.3691 C   0  0  0  0  0  0  0  0  0  0  0  0
    7.8970  -17.7945   20.8099 C   0  0  0  0  0  0  0  0  0  0  0  0
    7.8550  -16.2898   20.6958 C   0  0  1  0  0  0  0  0  0  0  0  0
    8.5304  -15.6161   21.8389 C   0  0  0  0  0  0  0  0  0  0  0  0
    9.7001  -15.1619   21.7505 O   0  0  0  0  0  0  0  0  0  0  0  0
    5.6094  -12.4379   25.1859 C   0  0  0  0  0  0  0  0  0  0  0  0
    6.7557  -12.9938   24.3847 C   0  0  0  0  0  0  0  0  0  0  0  0
    7.4214  -14.1682   24.9800 C   0  0  2  0  0  0  0  0  0  0  0  0
    7.9269  -13.7310   26.3646 C   0  0  0  0  0  0  0  0  0  0  0  0
    8.5364  -14.8074   24.2245 C   0  0  2  0  0  0  0  0  0  0  0  0
    7.8729  -15.4634   23.0738 N   0  0  0  0  0  0  0  0  0  0  0  0
    9.2722  -15.8100   25.0079 C   0  0  0  0  0  0  0  0  0  0  0  0
    8.6651  -16.8914   25.3069 O   0  0  0  0  0  0  0  0  0  0  0  0
   10.7907  -13.6620   29.9238 C   0  0  0  0  0  0  0  0  0  0  0  0
   11.7337  -15.1553   30.3940 S   0  0  0  0  0  0  0  0  0  0  0  0
   11.6936  -16.3602   29.0157 C   0  0  0  0  0  0  0  0  0  0  0  0
   11.3971  -15.5780   27.7684 C   0  0  0  0  0  0  0  0  0  0  0  0
   11.0615  -16.4613   26.5881 C   0  0  2  0  0  0  0  0  0  0  0  0
   10.5931  -15.6844   25.4569 N   0  0  0  0  0  0  0  0  0  0  0  0
   10.0464  -17.4471   26.9623 C   0  0  0  0  0  0  0  0  0  0  0  0
   10.4350  -18.6396   27.2181 O   0  0  0  0  0  0  0  0  0  0  0  0
    8.7238  -17.1055   27.0367 O   0  0  0  0  0  0  0  0  0  0  0  0
  1  2  1  0
  3  2  1  0
  4  3  1  0
  5  4  1  0
  5  1  1  0
  5  6  1  1
  7  6  2  0
  9  8  1  0
  9 10  1  0
 10 12  1  0
 10 11  1  1
 12 13  1  6
 13  6  1  0
 14 15  2  0
 14 12  1  0
 17 16  1  0
 18 19  1  0
 18 17  1  0
 20 19  1  1
 20 21  1  0
 21 14  1  0
 22 20  1  0
 23 22  2  0
 24 22  1  0
M  END
$$$$
