PIM.pdb
     RDKit          3D

 24 24  0  0  1  0  0  0  0  0999 V2000
    6.1462  -19.6811   20.8564 N   0  0  0  0  0  0  0  0  0  0  0  0
    5.2821  -20.6434   21.4950 C   0  0  0  0  0  0  0  0  0  0  0  0
    5.3923  -20.4284   22.9740 C   0  0  0  0  0  0  0  0  0  0  0  0
    6.2146  -19.1577   23.1254 C   0  0  0  0  0  0  0  0  0  0  0  0
    6.2174  -18.5541   21.7418 C   0  0  1  0  0  0  0  0  0  0  0  0
    7.4224  -17.7162   21.4918 C   0  0  0  0  0  0  0  0  0  0  0  0
    8.3969  -18.1325   20.8142 O   0  0  0  0  0  0  0  0  0  0  0  0
    6.6052  -12.5325   20.5821 C   0  0  0  0  0  0  0  0  0  0  0  0
    7.3190  -13.8548   20.4984 C   0  0  0  0  0  0  0  0  0  0  0  0
    8.1630  -14.1831   21.6631 C   0  0  2  0  0  0  0  0  0  0  0  0
    9.3257  -13.1771   21.6599 C   0  0  0  0  0  0  0  0  0  0  0  0
    8.7054  -15.5671   21.7756 C   0  0  2  0  0  0  0  0  0  0  0  0
    7.5121  -16.4121   22.0133 N   0  0  0  0  0  0  0  0  0  0  0  0
    9.6567  -15.7325   22.8838 C   0  0  0  0  0  0  0  0  0  0  0  0
   10.6023  -14.8823   22.9855 O   0  0  0  0  0  0  0  0  0  0  0  0
    8.9116  -12.1840   27.1343 C   0  0  0  0  0  0  0  0  0  0  0  0
    9.9986  -13.6168   27.4601 S   0  0  0  0  0  0  0  0  0  0  0  0
    9.0464  -15.1657   27.2431 C   0  0  0  0  0  0  0  0  0  0  0  0
    8.9174  -15.3882   25.7634 C   0  0  0  0  0  0  0  0  0  0  0  0
    9.8665  -16.4444   25.2443 C   0  0  2  0  0  0  0  0  0  0  0  0
    9.6156  -16.7471   23.8486 N   0  0  0  0  0  0  0  0  0  0  0  0
    9.7528  -17.6669   26.0412 C   0  0  0  0  0  0  0  0  0  0  0  0
   10.2016  -17.6446   27.2398 O   0  0  0  0  0  0  0  0  0  0  0  0
    9.1850  -18.7981   25.5220 O   0  0  0  0  0  0  0  0  0  0  0  0
  1  2  1  0
  3  2  1  0
  4  3  1  0
  5  4  1  0
  5  1  1  0
  5  6  1  6
  7  6  2  0
  9  8  1  0
  9 10  1  0
 10 12  1  0
 10 11  1  6
 12 13  1  1
 13  6  1  0
 14 15  2  0
 14 12  1  0
 17 16  1  0
 18 19  1  0
 18 17  1  0
 20 19  1  1
 20 21  1  0
 21 14  1  0
 22 20  1  0
 23 22  2  0
 24 22  1  0
M  END
$$$$
