PIM.pdb
     RDKit          3D

 24 24  0  0  1  0  0  0  0  0999 V2000
    7.1110  -14.8279   21.0483 N   0  0  0  0  0  0  0  0  0  0  0  0
    6.5650  -14.3137   19.8162 C   0  0  0  0  0  0  0  0  0  0  0  0
    7.2435  -13.0063   19.5398 C   0  0  0  0  0  0  0  0  0  0  0  0
    8.3473  -12.9093   20.5818 C   0  0  0  0  0  0  0  0  0  0  0  0
    8.4440  -14.3058   21.1467 C   0  0  1  0  0  0  0  0  0  0  0  0
    8.9516  -14.3167   22.5463 C   0  0  0  0  0  0  0  0  0  0  0  0
   10.1627  -14.1146   22.8195 O   0  0  0  0  0  0  0  0  0  0  0  0
    5.8374  -11.9615   26.1053 C   0  0  0  0  0  0  0  0  0  0  0  0
    7.0712  -12.4841   25.4200 C   0  0  0  0  0  0  0  0  0  0  0  0
    7.4458  -13.8656   25.7778 C   0  0  2  0  0  0  0  0  0  0  0  0
    7.7801  -13.8549   27.2784 C   0  0  0  0  0  0  0  0  0  0  0  0
    8.5586  -14.5135   25.0266 C   0  0  2  0  0  0  0  0  0  0  0  0
    8.0805  -14.5573   23.6252 N   0  0  0  0  0  0  0  0  0  0  0  0
    8.8588  -15.8760   25.4891 C   0  0  0  0  0  0  0  0  0  0  0  0
    7.8979  -16.7141   25.5284 O   0  0  0  0  0  0  0  0  0  0  0  0
   14.2558  -18.4997   24.2071 C   0  0  0  0  0  0  0  0  0  0  0  0
   12.7604  -19.3234   23.5547 S   0  0  0  0  0  0  0  0  0  0  0  0
   11.2692  -18.4807   24.2022 C   0  0  0  0  0  0  0  0  0  0  0  0
   11.4349  -18.3970   25.6925 C   0  0  0  0  0  0  0  0  0  0  0  0
   10.2788  -17.6995   26.3729 C   0  0  2  0  0  0  0  0  0  0  0  0
   10.1173  -16.3415   25.8911 N   0  0  0  0  0  0  0  0  0  0  0  0
   10.4742  -17.6871   27.8234 C   0  0  0  0  0  0  0  0  0  0  0  0
   10.6841  -16.5587   28.3901 O   0  0  0  0  0  0  0  0  0  0  0  0
   10.4338  -18.8447   28.5514 O   0  0  0  0  0  0  0  0  0  0  0  0
  1  2  1  0
  3  2  1  0
  4  3  1  0
  5  4  1  0
  5  1  1  0
  5  6  1  1
  7  6  2  0
  9  8  1  0
  9 10  1  0
 10 12  1  0
 10 11  1  1
 12 13  1  6
 13  6  1  0
 14 15  2  0
 14 12  1  0
 17 16  1  0
 18 19  1  0
 18 17  1  0
 20 19  1  6
 20 21  1  0
 21 14  1  0
 22 20  1  0
 23 22  2  0
 24 22  1  0
M  END
$$$$
