PIM.pdb
     RDKit          3D

 24 24  0  0  1  0  0  0  0  0999 V2000
    7.1637  -15.9962   20.9474 N   0  0  0  0  0  0  0  0  0  0  0  0
    6.6069  -15.7566   19.6385 C   0  0  0  0  0  0  0  0  0  0  0  0
    7.1943  -14.4741   19.1326 C   0  0  0  0  0  0  0  0  0  0  0  0
    8.2671  -14.1072   20.1466 C   0  0  0  0  0  0  0  0  0  0  0  0
    8.4532  -15.3668   20.9576 C   0  0  1  0  0  0  0  0  0  0  0  0
    8.9320  -15.0854   22.3390 C   0  0  0  0  0  0  0  0  0  0  0  0
   10.0922  -14.6578   22.5700 O   0  0  0  0  0  0  0  0  0  0  0  0
    5.3584  -12.7133   25.4786 C   0  0  0  0  0  0  0  0  0  0  0  0
    6.6344  -13.1681   24.8226 C   0  0  0  0  0  0  0  0  0  0  0  0
    7.2626  -14.3540   25.4355 C   0  0  2  0  0  0  0  0  0  0  0  0
    7.5412  -13.9934   26.9039 C   0  0  0  0  0  0  0  0  0  0  0  0
    8.5043  -14.8969   24.8142 C   0  0  2  0  0  0  0  0  0  0  0  0
    8.0900  -15.2916   23.4477 N   0  0  0  0  0  0  0  0  0  0  0  0
    9.0483  -16.0644   25.5222 C   0  0  0  0  0  0  0  0  0  0  0  0
    8.6686  -17.2204   25.1390 O   0  0  0  0  0  0  0  0  0  0  0  0
   11.1152  -14.7011   30.0881 C   0  0  0  0  0  0  0  0  0  0  0  0
   11.5969  -14.2987   28.3715 S   0  0  0  0  0  0  0  0  0  0  0  0
   12.4731  -15.7274   27.6338 C   0  0  0  0  0  0  0  0  0  0  0  0
   11.7036  -16.9551   28.0287 C   0  0  0  0  0  0  0  0  0  0  0  0
   10.5431  -17.2428   27.1033 C   0  0  2  0  0  0  0  0  0  0  0  0
    9.9569  -16.0210   26.5874 N   0  0  0  0  0  0  0  0  0  0  0  0
    9.5194  -18.0247   27.7983 C   0  0  0  0  0  0  0  0  0  0  0  0
    8.4185  -17.4422   28.0936 O   0  0  0  0  0  0  0  0  0  0  0  0
    9.7317  -19.3367   28.1224 O   0  0  0  0  0  0  0  0  0  0  0  0
  1  2  1  0
  3  2  1  0
  4  3  1  0
  5  4  1  0
  5  1  1  0
  5  6  1  1
  7  6  2  0
  9  8  1  0
  9 10  1  0
 10 12  1  0
 10 11  1  1
 12 13  1  6
 13  6  1  0
 14 15  2  0
 14 12  1  0
 17 16  1  0
 18 19  1  0
 18 17  1  0
 20 19  1  1
 20 21  1  0
 21 14  1  0
 22 20  1  0
 23 22  2  0
 24 22  1  0
M  END
$$$$
