PIM.pdb
     RDKit          3D

 24 24  0  0  1  0  0  0  0  0999 V2000
    7.2287  -16.3575   20.9747 N   0  0  0  0  0  0  0  0  0  0  0  0
    6.6513  -16.3413   19.6530 C   0  0  0  0  0  0  0  0  0  0  0  0
    7.1644  -15.1167   18.9579 C   0  0  0  0  0  0  0  0  0  0  0  0
    8.2217  -14.5492   19.8926 C   0  0  0  0  0  0  0  0  0  0  0  0
    8.4817  -15.6654   20.8751 C   0  0  1  0  0  0  0  0  0  0  0  0
    8.9530  -15.1605   22.1941 C   0  0  0  0  0  0  0  0  0  0  0  0
   10.0813  -14.6239   22.3398 O   0  0  0  0  0  0  0  0  0  0  0  0
    5.4236  -12.5811   25.3695 C   0  0  0  0  0  0  0  0  0  0  0  0
    6.7206  -12.9931   24.7269 C   0  0  0  0  0  0  0  0  0  0  0  0
    7.3262  -14.2215   25.2757 C   0  0  2  0  0  0  0  0  0  0  0  0
    7.5745  -13.9584   26.7700 C   0  0  0  0  0  0  0  0  0  0  0  0
    8.5775  -14.7342   24.6482 C   0  0  2  0  0  0  0  0  0  0  0  0
    8.1399  -15.2687   23.3377 N   0  0  0  0  0  0  0  0  0  0  0  0
    9.2252  -15.8004   25.4253 C   0  0  0  0  0  0  0  0  0  0  0  0
    9.0600  -17.0034   25.0343 O   0  0  0  0  0  0  0  0  0  0  0  0
   13.7497  -14.7286   29.8557 C   0  0  0  0  0  0  0  0  0  0  0  0
   11.9842  -14.2980   30.0515 S   0  0  0  0  0  0  0  0  0  0  0  0
   10.9494  -15.6360   29.3501 C   0  0  0  0  0  0  0  0  0  0  0  0
   11.7259  -16.2277   28.2089 C   0  0  0  0  0  0  0  0  0  0  0  0
   10.8401  -16.6915   27.0748 C   0  0  2  0  0  0  0  0  0  0  0  0
   10.0172  -15.6118   26.5652 N   0  0  0  0  0  0  0  0  0  0  0  0
    9.9861  -17.7957   27.5148 C   0  0  0  0  0  0  0  0  0  0  0  0
    8.7554  -17.5411   27.7582 O   0  0  0  0  0  0  0  0  0  0  0  0
   10.4865  -19.0605   27.6615 O   0  0  0  0  0  0  0  0  0  0  0  0
  1  2  1  0
  3  2  1  0
  4  3  1  0
  5  4  1  0
  5  1  1  0
  5  6  1  1
  7  6  2  0
  9  8  1  0
  9 10  1  0
 10 12  1  0
 10 11  1  1
 12 13  1  6
 13  6  1  0
 14 15  2  0
 14 12  1  0
 17 16  1  0
 18 19  1  0
 18 17  1  0
 20 19  1  1
 20 21  1  0
 21 14  1  0
 22 20  1  0
 23 22  2  0
 24 22  1  0
M  END
$$$$
