PIM.pdb
     RDKit          3D

 24 24  0  0  1  0  0  0  0  0999 V2000
    6.9040  -16.2628   20.8541 N   0  0  0  0  0  0  0  0  0  0  0  0
    6.1522  -16.1189   19.6315 C   0  0  0  0  0  0  0  0  0  0  0  0
    6.6399  -14.8753   18.9524 C   0  0  0  0  0  0  0  0  0  0  0  0
    7.8494  -14.4345   19.7628 C   0  0  0  0  0  0  0  0  0  0  0  0
    8.1721  -15.6321   20.6233 C   0  0  1  0  0  0  0  0  0  0  0  0
    8.8513  -15.2512   21.8923 C   0  0  0  0  0  0  0  0  0  0  0  0
   10.0117  -14.7659   21.9096 O   0  0  0  0  0  0  0  0  0  0  0  0
    5.8469  -12.6783   25.3120 C   0  0  0  0  0  0  0  0  0  0  0  0
    7.0175  -13.2067   24.5275 C   0  0  0  0  0  0  0  0  0  0  0  0
    7.7327  -14.3334   25.1567 C   0  0  2  0  0  0  0  0  0  0  0  0
    8.2700  -13.8160   26.5011 C   0  0  0  0  0  0  0  0  0  0  0  0
    8.8396  -14.9810   24.3967 C   0  0  2  0  0  0  0  0  0  0  0  0
    8.2080  -15.4241   23.1321 N   0  0  0  0  0  0  0  0  0  0  0  0
    9.4235  -16.1384   25.0895 C   0  0  0  0  0  0  0  0  0  0  0  0
    8.6318  -17.0641   25.4685 O   0  0  0  0  0  0  0  0  0  0  0  0
   10.0576  -13.3053   29.3715 C   0  0  0  0  0  0  0  0  0  0  0  0
   11.0838  -14.5934   30.1642 S   0  0  0  0  0  0  0  0  0  0  0  0
   11.0503  -16.1129   29.1430 C   0  0  0  0  0  0  0  0  0  0  0  0
   10.7598  -15.6790   27.7348 C   0  0  0  0  0  0  0  0  0  0  0  0
   11.2160  -16.6872   26.7046 C   0  0  2  0  0  0  0  0  0  0  0  0
   10.7839  -16.3190   25.3703 N   0  0  0  0  0  0  0  0  0  0  0  0
   10.7082  -18.0193   27.0363 C   0  0  0  0  0  0  0  0  0  0  0  0
   10.3450  -18.2384   28.2440 O   0  0  0  0  0  0  0  0  0  0  0  0
   10.6240  -18.9999   26.0859 O   0  0  0  0  0  0  0  0  0  0  0  0
  1  2  1  0
  3  2  1  0
  4  3  1  0
  5  4  1  0
  5  1  1  0
  5  6  1  1
  7  6  2  0
  9  8  1  0
  9 10  1  0
 10 12  1  0
 10 11  1  1
 12 13  1  6
 13  6  1  0
 14 15  2  0
 14 12  1  0
 17 16  1  0
 18 19  1  0
 18 17  1  0
 20 19  1  1
 20 21  1  0
 21 14  1  0
 22 20  1  0
 23 22  2  0
 24 22  1  0
M  END
$$$$
