PIM.pdb
     RDKit          3D

 24 24  0  0  1  0  0  0  0  0999 V2000
    7.3129  -17.0845   20.2249 N   0  0  0  0  0  0  0  0  0  0  0  0
    6.7033  -18.3195   19.7961 C   0  0  0  0  0  0  0  0  0  0  0  0
    6.5978  -19.2055   21.0001 C   0  0  0  0  0  0  0  0  0  0  0  0
    6.9994  -18.3236   22.1726 C   0  0  0  0  0  0  0  0  0  0  0  0
    6.9670  -16.9238   21.6081 C   0  0  1  0  0  0  0  0  0  0  0  0
    7.8983  -16.0049   22.3189 C   0  0  0  0  0  0  0  0  0  0  0  0
    9.0367  -15.7239   21.8638 O   0  0  0  0  0  0  0  0  0  0  0  0
    5.4373  -12.6262   25.9353 C   0  0  0  0  0  0  0  0  0  0  0  0
    6.3469  -13.0795   24.8252 C   0  0  0  0  0  0  0  0  0  0  0  0
    7.5473  -13.8165   25.2639 C   0  0  2  0  0  0  0  0  0  0  0  0
    8.3814  -12.8358   26.1045 C   0  0  0  0  0  0  0  0  0  0  0  0
    8.4144  -14.4391   24.2233 C   0  0  2  0  0  0  0  0  0  0  0  0
    7.5299  -15.4121   23.5410 N   0  0  0  0  0  0  0  0  0  0  0  0
    9.5822  -15.1377   24.7788 C   0  0  0  0  0  0  0  0  0  0  0  0
   10.7067  -14.5365   24.7402 O   0  0  0  0  0  0  0  0  0  0  0  0
   10.5679  -13.6173   29.0220 C   0  0  0  0  0  0  0  0  0  0  0  0
   10.2245  -15.2083   29.8535 S   0  0  0  0  0  0  0  0  0  0  0  0
   10.2960  -16.5651   28.6259 C   0  0  0  0  0  0  0  0  0  0  0  0
   10.8875  -15.9827   27.3743 C   0  0  0  0  0  0  0  0  0  0  0  0
   10.6853  -16.8660   26.1640 C   0  0  2  0  0  0  0  0  0  0  0  0
    9.5701  -16.4145   25.3547 N   0  0  0  0  0  0  0  0  0  0  0  0
   10.4641  -18.2527   26.5771 C   0  0  0  0  0  0  0  0  0  0  0  0
    9.3264  -18.7800   26.3202 O   0  0  0  0  0  0  0  0  0  0  0  0
   11.4420  -18.9634   27.2175 O   0  0  0  0  0  0  0  0  0  0  0  0
  1  2  1  0
  3  2  1  0
  4  3  1  0
  5  4  1  0
  5  1  1  0
  5  6  1  1
  7  6  2  0
  9  8  1  0
  9 10  1  0
 10 12  1  0
 10 11  1  6
 12 13  1  1
 13  6  1  0
 14 15  2  0
 14 12  1  0
 17 16  1  0
 18 19  1  0
 18 17  1  0
 20 19  1  1
 20 21  1  0
 21 14  1  0
 22 20  1  0
 23 22  2  0
 24 22  1  0
M  END
$$$$
