PIM.pdb
     RDKit          3D

 24 24  0  0  1  0  0  0  0  0999 V2000
    6.5393  -18.7651   20.4217 N   0  0  0  0  0  0  0  0  0  0  0  0
    5.6648  -19.4524   19.5033 C   0  0  0  0  0  0  0  0  0  0  0  0
    6.0748  -19.0566   18.1173 C   0  0  0  0  0  0  0  0  0  0  0  0
    7.3595  -18.2628   18.2999 C   0  0  0  0  0  0  0  0  0  0  0  0
    7.7741  -18.5558   19.7216 C   0  0  1  0  0  0  0  0  0  0  0  0
    8.5788  -17.4529   20.3155 C   0  0  0  0  0  0  0  0  0  0  0  0
    9.8329  -17.4167   20.2245 O   0  0  0  0  0  0  0  0  0  0  0  0
    6.8851  -12.4692   19.5104 C   0  0  0  0  0  0  0  0  0  0  0  0
    7.8279  -13.6116   19.7770 C   0  0  0  0  0  0  0  0  0  0  0  0
    7.8851  -14.0585   21.1819 C   0  0  2  0  0  0  0  0  0  0  0  0
    8.3534  -12.8494   22.0081 C   0  0  0  0  0  0  0  0  0  0  0  0
    8.7284  -15.2421   21.5136 C   0  0  2  0  0  0  0  0  0  0  0  0
    7.9537  -16.3994   21.0084 N   0  0  0  0  0  0  0  0  0  0  0  0
    8.9703  -15.4005   22.9547 C   0  0  0  0  0  0  0  0  0  0  0  0
    9.8263  -14.6282   23.5008 O   0  0  0  0  0  0  0  0  0  0  0  0
    7.2214  -11.4220   27.1904 C   0  0  0  0  0  0  0  0  0  0  0  0
    6.0917  -12.7753   26.7077 S   0  0  0  0  0  0  0  0  0  0  0  0
    6.9971  -14.3665   26.7429 C   0  0  0  0  0  0  0  0  0  0  0  0
    7.2392  -14.7559   25.3127 C   0  0  0  0  0  0  0  0  0  0  0  0
    8.0745  -16.0090   25.1795 C   0  0  2  0  0  0  0  0  0  0  0  0
    8.3371  -16.3297   23.7900 N   0  0  0  0  0  0  0  0  0  0  0  0
    7.4053  -17.1382   25.8272 C   0  0  0  0  0  0  0  0  0  0  0  0
    6.5747  -17.8209   25.1326 O   0  0  0  0  0  0  0  0  0  0  0  0
    7.6591  -17.4547   27.1337 O   0  0  0  0  0  0  0  0  0  0  0  0
  1  2  1  0
  3  2  1  0
  4  3  1  0
  5  4  1  0
  5  1  1  0
  5  6  1  1
  7  6  2  0
  9  8  1  0
  9 10  1  0
 10 12  1  0
 10 11  1  1
 12 13  1  1
 13  6  1  0
 14 15  2  0
 14 12  1  0
 17 16  1  0
 18 19  1  0
 18 17  1  0
 20 19  1  6
 20 21  1  0
 21 14  1  0
 22 20  1  0
 23 22  2  0
 24 22  1  0
M  END
$$$$
