PIM.pdb
     RDKit          3D

 24 24  0  0  1  0  0  0  0  0999 V2000
    8.8409  -14.9352   19.6314 N   0  0  0  0  0  0  0  0  0  0  0  0
    8.7846  -14.3233   18.3264 C   0  0  0  0  0  0  0  0  0  0  0  0
    7.8623  -13.1463   18.4258 C   0  0  0  0  0  0  0  0  0  0  0  0
    7.5584  -13.0105   19.9100 C   0  0  0  0  0  0  0  0  0  0  0  0
    8.5896  -13.8871   20.5786 C   0  0  1  0  0  0  0  0  0  0  0  0
    8.1211  -14.4132   21.8902 C   0  0  0  0  0  0  0  0  0  0  0  0
    7.6765  -13.6582   22.7928 O   0  0  0  0  0  0  0  0  0  0  0  0
    5.8486  -19.2723   21.6178 C   0  0  0  0  0  0  0  0  0  0  0  0
    6.1043  -17.8609   22.0733 C   0  0  0  0  0  0  0  0  0  0  0  0
    7.1700  -17.7145   23.0831 C   0  0  2  0  0  0  0  0  0  0  0  0
    6.6744  -18.4296   24.3507 C   0  0  0  0  0  0  0  0  0  0  0  0
    7.6259  -16.3397   23.4358 C   0  0  2  0  0  0  0  0  0  0  0  0
    8.1609  -15.7924   22.1673 N   0  0  0  0  0  0  0  0  0  0  0  0
    8.6755  -16.3192   24.4644 C   0  0  0  0  0  0  0  0  0  0  0  0
    9.8254  -16.7715   24.1474 O   0  0  0  0  0  0  0  0  0  0  0  0
    7.4079  -12.2956   27.3664 C   0  0  0  0  0  0  0  0  0  0  0  0
    9.1388  -12.0756   27.9105 S   0  0  0  0  0  0  0  0  0  0  0  0
   10.1653  -13.4364   27.2415 C   0  0  0  0  0  0  0  0  0  0  0  0
    9.5339  -14.7188   27.7026 C   0  0  0  0  0  0  0  0  0  0  0  0
    9.6527  -15.8302   26.6845 C   0  0  2  0  0  0  0  0  0  0  0  0
    8.5257  -15.8404   25.7722 N   0  0  0  0  0  0  0  0  0  0  0  0
    9.7542  -17.1268   27.3559 C   0  0  0  0  0  0  0  0  0  0  0  0
    8.6769  -17.7944   27.5356 O   0  0  0  0  0  0  0  0  0  0  0  0
   10.9622  -17.6108   27.7781 O   0  0  0  0  0  0  0  0  0  0  0  0
  1  2  1  0
  3  2  1  0
  4  3  1  0
  5  4  1  0
  5  1  1  0
  5  6  1  1
  7  6  2  0
  9  8  1  0
  9 10  1  0
 10 12  1  0
 10 11  1  1
 12 13  1  6
 13  6  1  0
 14 15  2  0
 14 12  1  0
 17 16  1  0
 18 19  1  0
 18 17  1  0
 20 19  1  1
 20 21  1  0
 21 14  1  0
 22 20  1  0
 23 22  2  0
 24 22  1  0
M  END
$$$$
