PIM.pdb
     RDKit          3D

 24 24  0  0  1  0  0  0  0  0999 V2000
    7.8792  -15.5661   20.4174 N   0  0  0  0  0  0  0  0  0  0  0  0
    7.1147  -16.3097   19.4462 C   0  0  0  0  0  0  0  0  0  0  0  0
    6.3824  -17.3875   20.1864 C   0  0  0  0  0  0  0  0  0  0  0  0
    6.6206  -17.0842   21.6578 C   0  0  0  0  0  0  0  0  0  0  0  0
    7.1695  -15.6779   21.6595 C   0  0  1  0  0  0  0  0  0  0  0  0
    8.0446  -15.4129   22.8345 C   0  0  0  0  0  0  0  0  0  0  0  0
    9.2917  -15.5703   22.7879 O   0  0  0  0  0  0  0  0  0  0  0  0
    6.2122  -11.6107   26.2417 C   0  0  0  0  0  0  0  0  0  0  0  0
    7.2342  -12.4051   25.4740 C   0  0  0  0  0  0  0  0  0  0  0  0
    7.5536  -13.7276   26.0447 C   0  0  2  0  0  0  0  0  0  0  0  0
    8.2747  -13.4678   27.3775 C   0  0  0  0  0  0  0  0  0  0  0  0
    8.3575  -14.6768   25.2231 C   0  0  2  0  0  0  0  0  0  0  0  0
    7.4973  -14.9713   24.0536 N   0  0  0  0  0  0  0  0  0  0  0  0
    8.6813  -15.9266   25.9256 C   0  0  0  0  0  0  0  0  0  0  0  0
    7.7103  -16.6516   26.3242 O   0  0  0  0  0  0  0  0  0  0  0  0
   14.3318  -18.8050   25.7188 C   0  0  0  0  0  0  0  0  0  0  0  0
   13.3115  -20.2631   26.1357 S   0  0  0  0  0  0  0  0  0  0  0  0
   11.7064  -19.7078   26.8199 C   0  0  0  0  0  0  0  0  0  0  0  0
   11.3848  -18.3994   26.1563 C   0  0  0  0  0  0  0  0  0  0  0  0
   10.1687  -17.7245   26.7490 C   0  0  2  0  0  0  0  0  0  0  0  0
    9.9721  -16.3986   26.1961 N   0  0  0  0  0  0  0  0  0  0  0  0
   10.2938  -17.6371   28.2048 C   0  0  0  0  0  0  0  0  0  0  0  0
   10.5801  -16.4983   28.7141 O   0  0  0  0  0  0  0  0  0  0  0  0
   10.1104  -18.7375   28.9967 O   0  0  0  0  0  0  0  0  0  0  0  0
  1  2  1  0
  3  2  1  0
  4  3  1  0
  5  4  1  0
  5  1  1  0
  5  6  1  1
  7  6  2  0
  9  8  1  0
  9 10  1  0
 10 12  1  0
 10 11  1  1
 12 13  1  6
 13  6  1  0
 14 15  2  0
 14 12  1  0
 17 16  1  0
 18 19  1  0
 18 17  1  0
 20 19  1  6
 20 21  1  0
 21 14  1  0
 22 20  1  0
 23 22  2  0
 24 22  1  0
M  END
$$$$
