PIM.pdb
     RDKit          3D

 24 24  0  0  1  0  0  0  0  0999 V2000
    6.9765  -14.6339   20.8817 N   0  0  0  0  0  0  0  0  0  0  0  0
    6.5098  -14.0618   19.6426 C   0  0  0  0  0  0  0  0  0  0  0  0
    7.3359  -12.8400   19.3771 C   0  0  0  0  0  0  0  0  0  0  0  0
    8.4289  -12.8681   20.4347 C   0  0  0  0  0  0  0  0  0  0  0  0
    8.3585  -14.2663   20.9995 C   0  0  1  0  0  0  0  0  0  0  0  0
    8.8419  -14.3340   22.4061 C   0  0  0  0  0  0  0  0  0  0  0  0
   10.0667  -14.3593   22.6913 O   0  0  0  0  0  0  0  0  0  0  0  0
    5.7761  -11.6384   25.9167 C   0  0  0  0  0  0  0  0  0  0  0  0
    6.9749  -12.2303   25.2257 C   0  0  0  0  0  0  0  0  0  0  0  0
    7.2935  -13.6189   25.6091 C   0  0  2  0  0  0  0  0  0  0  0  0
    7.6055  -13.5979   27.1144 C   0  0  0  0  0  0  0  0  0  0  0  0
    8.3930  -14.3179   24.8847 C   0  0  2  0  0  0  0  0  0  0  0  0
    7.9310  -14.3724   23.4782 N   0  0  0  0  0  0  0  0  0  0  0  0
    8.6415  -15.6805   25.3764 C   0  0  0  0  0  0  0  0  0  0  0  0
    7.6757  -16.5128   25.3307 O   0  0  0  0  0  0  0  0  0  0  0  0
   12.1831  -19.8003   22.8237 C   0  0  0  0  0  0  0  0  0  0  0  0
   12.6247  -20.2418   24.5414 S   0  0  0  0  0  0  0  0  0  0  0  0
   11.3212  -19.6418   25.6789 C   0  0  0  0  0  0  0  0  0  0  0  0
   11.1080  -18.1894   25.3618 C   0  0  0  0  0  0  0  0  0  0  0  0
   10.0239  -17.5578   26.2054 C   0  0  2  0  0  0  0  0  0  0  0  0
    9.8554  -16.1521   25.8922 N   0  0  0  0  0  0  0  0  0  0  0  0
   10.3316  -17.7116   27.6281 C   0  0  0  0  0  0  0  0  0  0  0  0
   10.3641  -18.8973   28.1093 O   0  0  0  0  0  0  0  0  0  0  0  0
   10.5769  -16.6228   28.4193 O   0  0  0  0  0  0  0  0  0  0  0  0
  1  2  1  0
  3  2  1  0
  4  3  1  0
  5  4  1  0
  5  1  1  0
  5  6  1  1
  7  6  2  0
  9  8  1  0
  9 10  1  0
 10 12  1  0
 10 11  1  1
 12 13  1  6
 13  6  1  0
 14 15  2  0
 14 12  1  0
 17 16  1  0
 18 19  1  0
 18 17  1  0
 20 19  1  6
 20 21  1  0
 21 14  1  0
 22 20  1  0
 23 22  2  0
 24 22  1  0
M  END
$$$$
