WPE.pdb
     RDKit          3D

 31 33  0  0  1  0  0  0  0  0999 V2000
    6.7839  -17.9993   25.5566 N   0  0  0  0  0  0  0  0  0  0  0  0
    6.6939  -16.8679   24.7090 C   0  0  1  0  0  0  0  0  0  0  0  0
    7.0286  -15.5953   25.4817 C   0  0  0  0  0  0  0  0  0  0  0  0
    8.0134  -15.7885   26.5414 C   0  0  0  0  0  0  0  0  0  0  0  0
    8.5057  -17.0360   26.9659 C   0  0  0  0  0  0  0  0  0  0  0  0
    9.4084  -16.8543   27.9423 N   0  0  0  0  0  0  0  0  0  0  0  0
    9.5275  -15.5158   28.1767 C   0  0  0  0  0  0  0  0  0  0  0  0
   10.2900  -14.7857   29.0628 C   0  0  0  0  0  0  0  0  0  0  0  0
   10.2345  -13.4080   29.1264 C   0  0  0  0  0  0  0  0  0  0  0  0
    9.3706  -12.7698   28.2576 C   0  0  0  0  0  0  0  0  0  0  0  0
    8.5955  -13.4782   27.3597 C   0  0  0  0  0  0  0  0  0  0  0  0
    8.6601  -14.8609   27.3035 C   0  0  0  0  0  0  0  0  0  0  0  0
    7.5107  -16.8940   23.4900 C   0  0  0  0  0  0  0  0  0  0  0  0
    8.3102  -17.8411   23.3295 O   0  0  0  0  0  0  0  0  0  0  0  0
    7.4437  -15.8934   22.4626 N   0  0  0  0  0  0  0  0  0  0  0  0
    6.3727  -14.9433   22.3993 C   0  0  0  0  0  0  0  0  0  0  0  0
    6.8900  -13.8147   21.5652 C   0  0  0  0  0  0  0  0  0  0  0  0
    8.1441  -14.2702   20.9213 C   0  0  0  0  0  0  0  0  0  0  0  0
    8.3258  -15.7181   21.3674 C   0  0  1  0  0  0  0  0  0  0  0  0
    9.7662  -15.9414   21.6283 C   0  0  0  0  0  0  0  0  0  0  0  0
   10.3627  -15.3837   22.6003 O   0  0  0  0  0  0  0  0  0  0  0  0
   10.5408  -16.7895   20.8178 N   0  0  0  0  0  0  0  0  0  0  0  0
   12.0147  -16.8750   21.0361 C   0  0  1  0  0  0  0  0  0  0  0  0
   12.1975  -17.8287   22.1854 C   0  0  0  0  0  0  0  0  0  0  0  0
   11.5269  -19.1404   22.0809 C   0  0  0  0  0  0  0  0  0  0  0  0
   11.8798  -20.0821   23.1679 C   0  0  0  0  0  0  0  0  0  0  0  0
   12.7658  -19.7377   24.0071 O   0  0  0  0  0  0  0  0  0  0  0  0
   12.6885  -17.4856   19.8678 C   0  0  0  0  0  0  0  0  0  0  0  0
   11.9922  -17.9600   18.9416 O   0  0  0  0  0  0  0  0  0  0  0  0
   11.2953  -21.3200   23.3286 O   0  0  0  0  0  0  0  0  0  0  0  0
   14.0650  -17.5433   19.7740 O   0  0  0  0  0  0  0  0  0  0  0  0
  2  3  1  0
  2  1  1  1
  4  3  1  0
  5  4  2  0
  6  5  1  0
  7  6  1  0
  7 12  2  0
  8  7  1  0
  9  8  2  0
  9 10  1  0
 10 11  2  0
 11 12  1  0
 12  4  1  0
 13 15  1  0
 13  2  1  0
 14 13  2  0
 15 16  1  0
 17 16  1  0
 18 17  1  0
 19 18  1  0
 19 15  1  0
 20 21  2  0
 19 20  1  1
 22 20  1  0
 23 28  1  0
 23 22  1  0
 23 24  1  1
 25 24  1  0
 26 25  1  0
 26 27  2  0
 28 31  1  0
 29 28  2  0
 30 26  1  0
M  END
$$$$
