WPE.pdb
     RDKit          3D

 31 33  0  0  1  0  0  0  0  0999 V2000
    6.5710  -17.3886   24.3570 N   0  0  0  0  0  0  0  0  0  0  0  0
    7.0832  -16.2312   23.7209 C   0  0  1  0  0  0  0  0  0  0  0  0
    7.8367  -15.3617   24.7234 C   0  0  0  0  0  0  0  0  0  0  0  0
    6.9695  -14.5514   25.5727 C   0  0  0  0  0  0  0  0  0  0  0  0
    5.8526  -15.0350   26.2781 C   0  0  0  0  0  0  0  0  0  0  0  0
    5.2915  -14.0332   26.9728 N   0  0  0  0  0  0  0  0  0  0  0  0
    6.0089  -12.8954   26.7459 C   0  0  0  0  0  0  0  0  0  0  0  0
    5.8709  -11.5983   27.1910 C   0  0  0  0  0  0  0  0  0  0  0  0
    6.7325  -10.5896   26.8099 C   0  0  0  0  0  0  0  0  0  0  0  0
    7.7581  -10.9268   25.9481 C   0  0  0  0  0  0  0  0  0  0  0  0
    7.9187  -12.2194   25.4874 C   0  0  0  0  0  0  0  0  0  0  0  0
    7.0486  -13.2245   25.8774 C   0  0  0  0  0  0  0  0  0  0  0  0
    7.9517  -16.4506   22.5585 C   0  0  0  0  0  0  0  0  0  0  0  0
    8.6799  -17.4663   22.5429 O   0  0  0  0  0  0  0  0  0  0  0  0
    8.0130  -15.5659   21.4294 N   0  0  0  0  0  0  0  0  0  0  0  0
    6.9088  -14.7297   21.0616 C   0  0  0  0  0  0  0  0  0  0  0  0
    7.4951  -13.6452   20.2147 C   0  0  0  0  0  0  0  0  0  0  0  0
    8.8797  -14.0436   19.8698 C   0  0  0  0  0  0  0  0  0  0  0  0
    9.0756  -15.4178   20.5035 C   0  0  1  0  0  0  0  0  0  0  0  0
   10.4504  -15.4804   21.0500 C   0  0  0  0  0  0  0  0  0  0  0  0
   10.7821  -14.8438   22.0970 O   0  0  0  0  0  0  0  0  0  0  0  0
   11.4526  -16.2556   20.4410 N   0  0  0  0  0  0  0  0  0  0  0  0
   12.8000  -16.3505   21.0758 C   0  0  1  0  0  0  0  0  0  0  0  0
   12.6725  -17.4105   22.1360 C   0  0  0  0  0  0  0  0  0  0  0  0
   13.6992  -17.4233   23.1976 C   0  0  0  0  0  0  0  0  0  0  0  0
   13.5452  -18.5324   24.1667 C   0  0  0  0  0  0  0  0  0  0  0  0
   12.5559  -19.3157   24.0424 O   0  0  0  0  0  0  0  0  0  0  0  0
   13.8082  -16.8386   20.1080 C   0  0  0  0  0  0  0  0  0  0  0  0
   15.0241  -16.7222   20.3834 O   0  0  0  0  0  0  0  0  0  0  0  0
   14.4224  -18.7716   25.2027 O   0  0  0  0  0  0  0  0  0  0  0  0
   13.4408  -17.4200   18.9105 O   0  0  0  0  0  0  0  0  0  0  0  0
  2  3  1  0
  2  1  1  1
  4  3  1  0
  5  4  2  0
  6  5  1  0
  7  6  1  0
  7 12  2  0
  8  7  1  0
  9  8  2  0
  9 10  1  0
 10 11  2  0
 11 12  1  0
 12  4  1  0
 13 15  1  0
 13  2  1  0
 14 13  2  0
 15 16  1  0
 17 16  1  0
 18 17  1  0
 19 18  1  0
 19 15  1  0
 20 21  2  0
 19 20  1  1
 22 20  1  0
 23 28  1  0
 23 22  1  0
 23 24  1  1
 25 24  1  0
 26 25  1  0
 26 27  2  0
 28 31  1  0
 29 28  2  0
 30 26  1  0
M  END
$$$$
