WPE.pdb
     RDKit          3D

 31 33  0  0  1  0  0  0  0  0999 V2000
    6.8612  -17.2769   23.4493 N   0  0  0  0  0  0  0  0  0  0  0  0
    7.2072  -16.0056   22.9291 C   0  0  1  0  0  0  0  0  0  0  0  0
    8.0620  -15.2347   23.9309 C   0  0  0  0  0  0  0  0  0  0  0  0
    7.3206  -14.7477   25.0898 C   0  0  0  0  0  0  0  0  0  0  0  0
    6.3948  -15.5051   25.8302 C   0  0  0  0  0  0  0  0  0  0  0  0
    5.9105  -14.7626   26.8379 N   0  0  0  0  0  0  0  0  0  0  0  0
    6.4923  -13.5299   26.7846 C   0  0  0  0  0  0  0  0  0  0  0  0
    6.3544  -12.3965   27.5565 C   0  0  0  0  0  0  0  0  0  0  0  0
    7.0567  -11.2364   27.2996 C   0  0  0  0  0  0  0  0  0  0  0  0
    7.9188  -11.2456   26.2203 C   0  0  0  0  0  0  0  0  0  0  0  0
    8.0756  -12.3687   25.4308 C   0  0  0  0  0  0  0  0  0  0  0  0
    7.3664  -13.5283   25.6985 C   0  0  0  0  0  0  0  0  0  0  0  0
    7.8935  -15.9913   21.6320 C   0  0  0  0  0  0  0  0  0  0  0  0
    8.6144  -16.9665   21.3295 O   0  0  0  0  0  0  0  0  0  0  0  0
    7.7832  -14.9205   20.6822 N   0  0  0  0  0  0  0  0  0  0  0  0
    6.7079  -13.9743   20.7289 C   0  0  0  0  0  0  0  0  0  0  0  0
    7.1887  -12.7862   19.9580 C   0  0  0  0  0  0  0  0  0  0  0  0
    8.4177  -13.1876   19.2345 C   0  0  0  0  0  0  0  0  0  0  0  0
    8.6209  -14.6626   19.5685 C   0  0  1  0  0  0  0  0  0  0  0  0
   10.0711  -14.8960   19.7562 C   0  0  0  0  0  0  0  0  0  0  0  0
   10.7708  -14.1657   20.5234 O   0  0  0  0  0  0  0  0  0  0  0  0
   10.7414  -15.9435   19.1009 N   0  0  0  0  0  0  0  0  0  0  0  0
   12.2054  -16.1340   19.3200 C   0  0  1  0  0  0  0  0  0  0  0  0
   12.3236  -17.2995   20.2641 C   0  0  0  0  0  0  0  0  0  0  0  0
   13.6783  -17.8411   20.4938 C   0  0  0  0  0  0  0  0  0  0  0  0
   13.7475  -18.8386   21.5861 C   0  0  0  0  0  0  0  0  0  0  0  0
   12.6927  -19.0987   22.2400 O   0  0  0  0  0  0  0  0  0  0  0  0
   12.8809  -16.5350   18.0652 C   0  0  0  0  0  0  0  0  0  0  0  0
   14.1174  -16.3694   17.9587 O   0  0  0  0  0  0  0  0  0  0  0  0
   14.8979  -19.5126   21.9359 O   0  0  0  0  0  0  0  0  0  0  0  0
   12.1814  -17.0883   17.0109 O   0  0  0  0  0  0  0  0  0  0  0  0
  2  3  1  0
  2  1  1  1
  4  3  1  0
  5  4  2  0
  6  5  1  0
  7  6  1  0
  7 12  2  0
  8  7  1  0
  9  8  2  0
  9 10  1  0
 10 11  2  0
 11 12  1  0
 12  4  1  0
 13 15  1  0
 13  2  1  0
 14 13  2  0
 15 16  1  0
 17 16  1  0
 18 17  1  0
 19 18  1  0
 19 15  1  0
 20 21  2  0
 19 20  1  1
 22 20  1  0
 23 28  1  0
 23 22  1  0
 23 24  1  1
 25 24  1  0
 26 25  1  0
 26 27  2  0
 28 31  1  0
 29 28  2  0
 30 26  1  0
M  END
$$$$
