WPE.pdb
     RDKit          3D

 31 33  0  0  1  0  0  0  0  0999 V2000
    6.4380  -17.2738   23.8156 N   0  0  0  0  0  0  0  0  0  0  0  0
    6.9700  -16.1059   23.2159 C   0  0  1  0  0  0  0  0  0  0  0  0
    7.8314  -15.3390   24.2152 C   0  0  0  0  0  0  0  0  0  0  0  0
    7.0640  -14.5977   25.2110 C   0  0  0  0  0  0  0  0  0  0  0  0
    5.9440  -15.0970   25.9003 C   0  0  0  0  0  0  0  0  0  0  0  0
    5.4897  -14.1660   26.7535 N   0  0  0  0  0  0  0  0  0  0  0  0
    6.2810  -13.0600   26.6476 C   0  0  0  0  0  0  0  0  0  0  0  0
    6.2601  -11.8317   27.2724 C   0  0  0  0  0  0  0  0  0  0  0  0
    7.1790  -10.8415   26.9888 C   0  0  0  0  0  0  0  0  0  0  0  0
    8.1394  -11.1247   26.0372 C   0  0  0  0  0  0  0  0  0  0  0  0
    8.1825  -12.3481   25.3964 C   0  0  0  0  0  0  0  0  0  0  0  0
    7.2559  -13.3353   25.6897 C   0  0  0  0  0  0  0  0  0  0  0  0
    7.7496  -16.2954   21.9871 C   0  0  0  0  0  0  0  0  0  0  0  0
    8.3453  -17.3817   21.8219 O   0  0  0  0  0  0  0  0  0  0  0  0
    7.8670  -15.3042   20.9552 N   0  0  0  0  0  0  0  0  0  0  0  0
    6.9435  -14.2140   20.8437 C   0  0  0  0  0  0  0  0  0  0  0  0
    7.6487  -13.1762   20.0296 C   0  0  0  0  0  0  0  0  0  0  0  0
    8.8525  -13.8084   19.4412 C   0  0  0  0  0  0  0  0  0  0  0  0
    8.8102  -15.2636   19.8984 C   0  0  1  0  0  0  0  0  0  0  0  0
   10.1928  -15.6844   20.2213 C   0  0  0  0  0  0  0  0  0  0  0  0
   10.9318  -15.0069   21.0000 O   0  0  0  0  0  0  0  0  0  0  0  0
   10.7505  -16.8596   19.6887 N   0  0  0  0  0  0  0  0  0  0  0  0
   12.1911  -17.1672   19.9285 C   0  0  1  0  0  0  0  0  0  0  0  0
   12.2026  -18.4182   20.7644 C   0  0  0  0  0  0  0  0  0  0  0  0
   11.6131  -18.3268   22.1155 C   0  0  0  0  0  0  0  0  0  0  0  0
   11.5541  -19.6212   22.8323 C   0  0  0  0  0  0  0  0  0  0  0  0
   11.6426  -20.6929   22.1606 O   0  0  0  0  0  0  0  0  0  0  0  0
   12.8801  -17.4986   18.6608 C   0  0  0  0  0  0  0  0  0  0  0  0
   14.1224  -17.6552   18.6649 O   0  0  0  0  0  0  0  0  0  0  0  0
   11.4128  -19.7342   24.1988 O   0  0  0  0  0  0  0  0  0  0  0  0
   12.1865  -17.6406   17.4751 O   0  0  0  0  0  0  0  0  0  0  0  0
  2  3  1  0
  2  1  1  1
  4  3  1  0
  5  4  2  0
  6  5  1  0
  7  6  1  0
  7 12  2  0
  8  7  1  0
  9  8  2  0
  9 10  1  0
 10 11  2  0
 11 12  1  0
 12  4  1  0
 13 15  1  0
 13  2  1  0
 14 13  2  0
 15 16  1  0
 17 16  1  0
 18 17  1  0
 19 18  1  0
 19 15  1  0
 20 21  2  0
 19 20  1  1
 22 20  1  0
 23 28  1  0
 23 22  1  0
 23 24  1  1
 25 24  1  0
 26 25  1  0
 26 27  2  0
 28 31  1  0
 29 28  2  0
 30 26  1  0
M  END
$$$$
