WPE.pdb
     RDKit          3D

 31 33  0  0  1  0  0  0  0  0999 V2000
    6.4181  -17.4991   24.1626 N   0  0  0  0  0  0  0  0  0  0  0  0
    6.8715  -16.2995   23.5611 C   0  0  1  0  0  0  0  0  0  0  0  0
    7.6596  -15.4643   24.5662 C   0  0  0  0  0  0  0  0  0  0  0  0
    6.8233  -14.7389   25.5171 C   0  0  0  0  0  0  0  0  0  0  0  0
    5.7177  -15.2826   26.1959 C   0  0  0  0  0  0  0  0  0  0  0  0
    5.1861  -14.3536   27.0055 N   0  0  0  0  0  0  0  0  0  0  0  0
    5.9121  -13.2055   26.8808 C   0  0  0  0  0  0  0  0  0  0  0  0
    5.8011  -11.9609   27.4625 C   0  0  0  0  0  0  0  0  0  0  0  0
    6.6660  -10.9265   27.1674 C   0  0  0  0  0  0  0  0  0  0  0  0
    7.6664  -11.1818   26.2496 C   0  0  0  0  0  0  0  0  0  0  0  0
    7.7996  -12.4205   25.6523 C   0  0  0  0  0  0  0  0  0  0  0  0
    6.9265  -13.4522   25.9568 C   0  0  0  0  0  0  0  0  0  0  0  0
    7.6809  -16.4397   22.3449 C   0  0  0  0  0  0  0  0  0  0  0  0
    8.3710  -17.4724   22.2052 O   0  0  0  0  0  0  0  0  0  0  0  0
    7.7251  -15.4585   21.2978 N   0  0  0  0  0  0  0  0  0  0  0  0
    6.6911  -14.4801   21.1325 C   0  0  0  0  0  0  0  0  0  0  0  0
    7.3060  -13.3835   20.3223 C   0  0  0  0  0  0  0  0  0  0  0  0
    8.5931  -13.8870   19.7886 C   0  0  0  0  0  0  0  0  0  0  0  0
    8.6959  -15.3302   20.2734 C   0  0  1  0  0  0  0  0  0  0  0  0
   10.1039  -15.5887   20.6523 C   0  0  0  0  0  0  0  0  0  0  0  0
   10.6149  -15.0901   21.7019 O   0  0  0  0  0  0  0  0  0  0  0  0
   10.9402  -16.4067   19.8727 N   0  0  0  0  0  0  0  0  0  0  0  0
   12.3023  -16.7577   20.3716 C   0  0  1  0  0  0  0  0  0  0  0  0
   12.0818  -17.7455   21.4849 C   0  0  0  0  0  0  0  0  0  0  0  0
   13.2841  -18.3582   22.0851 C   0  0  0  0  0  0  0  0  0  0  0  0
   12.9903  -19.2858   23.2013 C   0  0  0  0  0  0  0  0  0  0  0  0
   13.9600  -19.8169   23.8221 O   0  0  0  0  0  0  0  0  0  0  0  0
   13.0829  -17.4617   19.3292 C   0  0  0  0  0  0  0  0  0  0  0  0
   12.4907  -18.2342   18.5415 O   0  0  0  0  0  0  0  0  0  0  0  0
   11.7151  -19.6068   23.6149 O   0  0  0  0  0  0  0  0  0  0  0  0
   14.4468  -17.2863   19.2034 O   0  0  0  0  0  0  0  0  0  0  0  0
  2  3  1  0
  2  1  1  1
  4  3  1  0
  5  4  2  0
  6  5  1  0
  7  6  1  0
  7 12  2  0
  8  7  1  0
  9  8  2  0
  9 10  1  0
 10 11  2  0
 11 12  1  0
 12  4  1  0
 13 15  1  0
 13  2  1  0
 14 13  2  0
 15 16  1  0
 17 16  1  0
 18 17  1  0
 19 18  1  0
 19 15  1  0
 20 21  2  0
 19 20  1  1
 22 20  1  0
 23 28  1  0
 23 22  1  0
 23 24  1  1
 25 24  1  0
 26 25  1  0
 26 27  2  0
 28 31  1  0
 29 28  2  0
 30 26  1  0
M  END
$$$$
