WPE.pdb
     RDKit          3D

 31 33  0  0  1  0  0  0  0  0999 V2000
    7.9646  -16.8700   23.5233 N   0  0  0  0  0  0  0  0  0  0  0  0
    7.5604  -15.9059   22.5675 C   0  0  1  0  0  0  0  0  0  0  0  0
    7.4048  -14.5372   23.2243 C   0  0  0  0  0  0  0  0  0  0  0  0
    7.0874  -14.5968   24.6475 C   0  0  0  0  0  0  0  0  0  0  0  0
    6.7683  -15.7712   25.3532 C   0  0  0  0  0  0  0  0  0  0  0  0
    6.5493  -15.4745   26.6436 N   0  0  0  0  0  0  0  0  0  0  0  0
    6.7152  -14.1310   26.8122 C   0  0  0  0  0  0  0  0  0  0  0  0
    6.6038  -13.3053   27.9101 C   0  0  0  0  0  0  0  0  0  0  0  0
    6.8134  -11.9431   27.8358 C   0  0  0  0  0  0  0  0  0  0  0  0
    7.1430  -11.4211   26.6000 C   0  0  0  0  0  0  0  0  0  0  0  0
    7.2612  -12.2269   25.4839 C   0  0  0  0  0  0  0  0  0  0  0  0
    7.0498  -13.5934   25.5702 C   0  0  0  0  0  0  0  0  0  0  0  0
    8.4167  -15.7539   21.3854 C   0  0  0  0  0  0  0  0  0  0  0  0
    9.3215  -16.5947   21.1939 O   0  0  0  0  0  0  0  0  0  0  0  0
    8.2746  -14.6940   20.4276 N   0  0  0  0  0  0  0  0  0  0  0  0
    7.0787  -13.9094   20.3379 C   0  0  0  0  0  0  0  0  0  0  0  0
    7.4783  -12.6531   19.6315 C   0  0  0  0  0  0  0  0  0  0  0  0
    8.8320  -12.8658   19.0681 C   0  0  0  0  0  0  0  0  0  0  0  0
    9.1990  -14.3027   19.4272 C   0  0  1  0  0  0  0  0  0  0  0  0
   10.6330  -14.3327   19.7953 C   0  0  0  0  0  0  0  0  0  0  0  0
   11.0600  -13.7902   20.8606 O   0  0  0  0  0  0  0  0  0  0  0  0
   11.5897  -14.9716   18.9874 N   0  0  0  0  0  0  0  0  0  0  0  0
   13.0358  -14.8827   19.3455 C   0  0  1  0  0  0  0  0  0  0  0  0
   13.4821  -16.3010   19.5759 C   0  0  0  0  0  0  0  0  0  0  0  0
   14.9152  -16.5144   19.8619 C   0  0  0  0  0  0  0  0  0  0  0  0
   15.2763  -17.9326   20.0883 C   0  0  0  0  0  0  0  0  0  0  0  0
   14.3560  -18.8047   20.0712 O   0  0  0  0  0  0  0  0  0  0  0  0
   13.8322  -14.3674   18.2089 C   0  0  0  0  0  0  0  0  0  0  0  0
   13.3462  -14.4087   17.0556 O   0  0  0  0  0  0  0  0  0  0  0  0
   16.5644  -18.3684   20.3136 O   0  0  0  0  0  0  0  0  0  0  0  0
   15.0962  -13.8416   18.3895 O   0  0  0  0  0  0  0  0  0  0  0  0
  2  3  1  0
  2  1  1  1
  4  3  1  0
  5  4  2  0
  6  5  1  0
  7  6  1  0
  7 12  2  0
  8  7  1  0
  9  8  2  0
  9 10  1  0
 10 11  2  0
 11 12  1  0
 12  4  1  0
 13 15  1  0
 13  2  1  0
 14 13  2  0
 15 16  1  0
 17 16  1  0
 18 17  1  0
 19 18  1  0
 19 15  1  0
 20 21  2  0
 19 20  1  1
 22 20  1  0
 23 28  1  0
 23 22  1  0
 23 24  1  6
 25 24  1  0
 26 25  1  0
 26 27  2  0
 28 31  1  0
 29 28  2  0
 30 26  1  0
M  END
$$$$
