WPE.pdb
     RDKit          3D

 31 33  0  0  1  0  0  0  0  0999 V2000
    7.3582  -17.2508   23.0527 N   0  0  0  0  0  0  0  0  0  0  0  0
    7.6854  -15.9299   22.6592 C   0  0  1  0  0  0  0  0  0  0  0  0
    8.3977  -15.1973   23.7927 C   0  0  0  0  0  0  0  0  0  0  0  0
    7.5058  -14.7374   24.8523 C   0  0  0  0  0  0  0  0  0  0  0  0
    6.5516  -15.5380   25.5062 C   0  0  0  0  0  0  0  0  0  0  0  0
    5.9160  -14.8096   26.4371 N   0  0  0  0  0  0  0  0  0  0  0  0
    6.4249  -13.5442   26.4174 C   0  0  0  0  0  0  0  0  0  0  0  0
    6.1354  -12.4082   27.1421 C   0  0  0  0  0  0  0  0  0  0  0  0
    6.7906  -11.2112   26.9348 C   0  0  0  0  0  0  0  0  0  0  0  0
    7.7648  -11.1855   25.9558 C   0  0  0  0  0  0  0  0  0  0  0  0
    8.0744  -12.3102   25.2154 C   0  0  0  0  0  0  0  0  0  0  0  0
    7.4112  -13.5070   25.4327 C   0  0  0  0  0  0  0  0  0  0  0  0
    8.4922  -15.7881   21.4415 C   0  0  0  0  0  0  0  0  0  0  0  0
    9.3500  -16.6619   21.1909 O   0  0  0  0  0  0  0  0  0  0  0  0
    8.3522  -14.7021   20.5130 N   0  0  0  0  0  0  0  0  0  0  0  0
    7.1715  -13.8910   20.4686 C   0  0  0  0  0  0  0  0  0  0  0  0
    7.5826  -12.6262   19.7842 C   0  0  0  0  0  0  0  0  0  0  0  0
    8.9191  -12.8529   19.1864 C   0  0  0  0  0  0  0  0  0  0  0  0
    9.2631  -14.3055   19.5024 C   0  0  1  0  0  0  0  0  0  0  0  0
   10.7037  -14.3742   19.8382 C   0  0  0  0  0  0  0  0  0  0  0  0
   11.1597  -13.8969   20.9225 O   0  0  0  0  0  0  0  0  0  0  0  0
   11.6348  -14.9799   18.9766 N   0  0  0  0  0  0  0  0  0  0  0  0
   13.0900  -14.9185   19.3021 C   0  0  1  0  0  0  0  0  0  0  0  0
   13.5465  -16.3501   19.3804 C   0  0  0  0  0  0  0  0  0  0  0  0
   12.9597  -17.1830   20.4496 C   0  0  0  0  0  0  0  0  0  0  0  0
   13.4440  -18.5824   20.4529 C   0  0  0  0  0  0  0  0  0  0  0  0
   14.1676  -18.9778   19.4897 O   0  0  0  0  0  0  0  0  0  0  0  0
   13.8531  -14.2903   18.2000 C   0  0  0  0  0  0  0  0  0  0  0  0
   13.2880  -14.0980   17.0993 O   0  0  0  0  0  0  0  0  0  0  0  0
   13.1585  -19.4893   21.4509 O   0  0  0  0  0  0  0  0  0  0  0  0
   15.1714  -13.9101   18.3566 O   0  0  0  0  0  0  0  0  0  0  0  0
  2  3  1  0
  2  1  1  1
  4  3  1  0
  5  4  2  0
  6  5  1  0
  7  6  1  0
  7 12  2  0
  8  7  1  0
  9  8  2  0
  9 10  1  0
 10 11  2  0
 11 12  1  0
 12  4  1  0
 13 15  1  0
 13  2  1  0
 14 13  2  0
 15 16  1  0
 17 16  1  0
 18 17  1  0
 19 18  1  0
 19 15  1  0
 20 21  2  0
 19 20  1  1
 22 20  1  0
 23 28  1  0
 23 22  1  0
 23 24  1  6
 25 24  1  0
 26 25  1  0
 26 27  2  0
 28 31  1  0
 29 28  2  0
 30 26  1  0
M  END
$$$$
