WPE.pdb
     RDKit          3D

 31 33  0  0  1  0  0  0  0  0999 V2000
    6.4787  -17.3289   24.1105 N   0  0  0  0  0  0  0  0  0  0  0  0
    7.0696  -16.2039   23.4845 C   0  0  1  0  0  0  0  0  0  0  0  0
    7.9883  -15.4731   24.4596 C   0  0  0  0  0  0  0  0  0  0  0  0
    7.2796  -14.7432   25.5059 C   0  0  0  0  0  0  0  0  0  0  0  0
    6.3937  -15.3216   26.4330 C   0  0  0  0  0  0  0  0  0  0  0  0
    5.9322  -14.3746   27.2646 N   0  0  0  0  0  0  0  0  0  0  0  0
    6.4902  -13.1809   26.9122 C   0  0  0  0  0  0  0  0  0  0  0  0
    6.3599  -11.9034   27.4128 C   0  0  0  0  0  0  0  0  0  0  0  0
    7.0325  -10.8253   26.8740 C   0  0  0  0  0  0  0  0  0  0  0  0
    7.8562  -11.0708   25.7926 C   0  0  0  0  0  0  0  0  0  0  0  0
    8.0047  -12.3419   25.2718 C   0  0  0  0  0  0  0  0  0  0  0  0
    7.3256  -13.4173   25.8213 C   0  0  0  0  0  0  0  0  0  0  0  0
    7.8195  -16.4582   22.2490 C   0  0  0  0  0  0  0  0  0  0  0  0
    8.4714  -17.5206   22.1565 O   0  0  0  0  0  0  0  0  0  0  0  0
    7.8465  -15.5571   21.1317 N   0  0  0  0  0  0  0  0  0  0  0  0
    6.7963  -14.6109   20.8961 C   0  0  0  0  0  0  0  0  0  0  0  0
    7.3923  -13.5676   20.0053 C   0  0  0  0  0  0  0  0  0  0  0  0
    8.6872  -14.0881   19.5080 C   0  0  0  0  0  0  0  0  0  0  0  0
    8.8143  -15.4893   20.0986 C   0  0  1  0  0  0  0  0  0  0  0  0
   10.2267  -15.6956   20.4928 C   0  0  0  0  0  0  0  0  0  0  0  0
   10.7244  -15.1283   21.5136 O   0  0  0  0  0  0  0  0  0  0  0  0
   11.0823  -16.5372   19.7609 N   0  0  0  0  0  0  0  0  0  0  0  0
   12.5046  -16.6930   20.1855 C   0  0  1  0  0  0  0  0  0  0  0  0
   12.4641  -17.5420   21.4271 C   0  0  0  0  0  0  0  0  0  0  0  0
   12.0340  -18.9456   21.2654 C   0  0  0  0  0  0  0  0  0  0  0  0
   12.1253  -19.7470   22.5072 C   0  0  0  0  0  0  0  0  0  0  0  0
   12.8744  -19.3347   23.4435 O   0  0  0  0  0  0  0  0  0  0  0  0
   13.2779  -17.4532   19.1777 C   0  0  0  0  0  0  0  0  0  0  0  0
   12.6716  -17.9946   18.2253 O   0  0  0  0  0  0  0  0  0  0  0  0
   11.4354  -20.9226   22.7125 O   0  0  0  0  0  0  0  0  0  0  0  0
   14.6506  -17.5783   19.2614 O   0  0  0  0  0  0  0  0  0  0  0  0
  2  3  1  0
  2  1  1  1
  4  3  1  0
  5  4  2  0
  6  5  1  0
  7  6  1  0
  7 12  2  0
  8  7  1  0
  9  8  2  0
  9 10  1  0
 10 11  2  0
 11 12  1  0
 12  4  1  0
 13 15  1  0
 13  2  1  0
 14 13  2  0
 15 16  1  0
 17 16  1  0
 18 17  1  0
 19 18  1  0
 19 15  1  0
 20 21  2  0
 19 20  1  1
 22 20  1  0
 23 28  1  0
 23 22  1  0
 23 24  1  1
 25 24  1  0
 26 25  1  0
 26 27  2  0
 28 31  1  0
 29 28  2  0
 30 26  1  0
M  END
$$$$
