WPE.pdb
     RDKit          3D

 31 33  0  0  1  0  0  0  0  0999 V2000
    6.6936  -17.2813   23.9773 N   0  0  0  0  0  0  0  0  0  0  0  0
    7.1168  -16.0859   23.3460 C   0  0  1  0  0  0  0  0  0  0  0  0
    7.9353  -15.2342   24.3121 C   0  0  0  0  0  0  0  0  0  0  0  0
    7.1297  -14.5087   25.2892 C   0  0  0  0  0  0  0  0  0  0  0  0
    6.0194  -15.0392   25.9709 C   0  0  0  0  0  0  0  0  0  0  0  0
    5.5218  -14.1148   26.8070 N   0  0  0  0  0  0  0  0  0  0  0  0
    6.2749  -12.9828   26.6971 C   0  0  0  0  0  0  0  0  0  0  0  0
    6.2029  -11.7486   27.3065 C   0  0  0  0  0  0  0  0  0  0  0  0
    7.0898  -10.7300   27.0220 C   0  0  0  0  0  0  0  0  0  0  0  0
    8.0716  -10.9904   26.0858 C   0  0  0  0  0  0  0  0  0  0  0  0
    8.1659  -12.2189   25.4607 C   0  0  0  0  0  0  0  0  0  0  0  0
    7.2709  -13.2348   25.7547 C   0  0  0  0  0  0  0  0  0  0  0  0
    7.8823  -16.2353   22.1029 C   0  0  0  0  0  0  0  0  0  0  0  0
    8.5711  -17.2667   21.9484 O   0  0  0  0  0  0  0  0  0  0  0  0
    7.8847  -15.2643   21.0453 N   0  0  0  0  0  0  0  0  0  0  0  0
    6.8444  -14.2878   20.9112 C   0  0  0  0  0  0  0  0  0  0  0  0
    7.4264  -13.1990   20.0669 C   0  0  0  0  0  0  0  0  0  0  0  0
    8.6919  -13.7074   19.4879 C   0  0  0  0  0  0  0  0  0  0  0  0
    8.8145  -15.1458   19.9824 C   0  0  1  0  0  0  0  0  0  0  0  0
   10.2364  -15.4003   20.3081 C   0  0  0  0  0  0  0  0  0  0  0  0
   10.8885  -14.6409   21.0890 O   0  0  0  0  0  0  0  0  0  0  0  0
   10.9305  -16.5007   19.7757 N   0  0  0  0  0  0  0  0  0  0  0  0
   12.3392  -16.7581   20.1960 C   0  0  1  0  0  0  0  0  0  0  0  0
   12.2910  -18.0169   21.0188 C   0  0  0  0  0  0  0  0  0  0  0  0
   13.5848  -18.6018   21.4252 C   0  0  0  0  0  0  0  0  0  0  0  0
   13.4569  -19.8321   22.2394 C   0  0  0  0  0  0  0  0  0  0  0  0
   12.2961  -20.2713   22.4993 O   0  0  0  0  0  0  0  0  0  0  0  0
   13.1963  -17.0502   19.0248 C   0  0  0  0  0  0  0  0  0  0  0  0
   12.6643  -17.4525   17.9651 O   0  0  0  0  0  0  0  0  0  0  0  0
   14.5322  -20.5394   22.7326 O   0  0  0  0  0  0  0  0  0  0  0  0
   14.5669  -16.8886   19.0720 O   0  0  0  0  0  0  0  0  0  0  0  0
  2  3  1  0
  2  1  1  1
  4  3  1  0
  5  4  2  0
  6  5  1  0
  7  6  1  0
  7 12  2  0
  8  7  1  0
  9  8  2  0
  9 10  1  0
 10 11  2  0
 11 12  1  0
 12  4  1  0
 13 15  1  0
 13  2  1  0
 14 13  2  0
 15 16  1  0
 17 16  1  0
 18 17  1  0
 19 18  1  0
 19 15  1  0
 20 21  2  0
 19 20  1  1
 22 20  1  0
 23 28  1  0
 23 22  1  0
 23 24  1  1
 25 24  1  0
 26 25  1  0
 26 27  2  0
 28 31  1  0
 29 28  2  0
 30 26  1  0
M  END
$$$$
