WPE.pdb
     RDKit          3D

 31 33  0  0  1  0  0  0  0  0999 V2000
    6.7041  -17.8066   25.7721 N   0  0  0  0  0  0  0  0  0  0  0  0
    6.5496  -17.0246   24.6011 C   0  0  1  0  0  0  0  0  0  0  0  0
    6.0800  -15.6173   24.9584 C   0  0  0  0  0  0  0  0  0  0  0  0
    6.9903  -14.8968   25.8429 C   0  0  0  0  0  0  0  0  0  0  0  0
    8.1643  -15.4340   26.4015 C   0  0  0  0  0  0  0  0  0  0  0  0
    8.7739  -14.5010   27.1491 N   0  0  0  0  0  0  0  0  0  0  0  0
    8.0330  -13.3567   27.1007 C   0  0  0  0  0  0  0  0  0  0  0  0
    8.1881  -12.1167   27.6821 C   0  0  0  0  0  0  0  0  0  0  0  0
    7.2830  -11.0921   27.4923 C   0  0  0  0  0  0  0  0  0  0  0  0
    6.1921  -11.3540   26.6863 C   0  0  0  0  0  0  0  0  0  0  0  0
    6.0133  -12.5882   26.0916 C   0  0  0  0  0  0  0  0  0  0  0  0
    6.9288  -13.6093   26.2879 C   0  0  0  0  0  0  0  0  0  0  0  0
    7.7237  -16.9099   23.7283 C   0  0  0  0  0  0  0  0  0  0  0  0
    8.7182  -17.6270   23.9712 O   0  0  0  0  0  0  0  0  0  0  0  0
    7.7983  -16.0214   22.6031 N   0  0  0  0  0  0  0  0  0  0  0  0
    6.6550  -15.2959   22.1338 C   0  0  0  0  0  0  0  0  0  0  0  0
    7.2057  -14.1579   21.3346 C   0  0  0  0  0  0  0  0  0  0  0  0
    8.6475  -14.4191   21.1157 C   0  0  0  0  0  0  0  0  0  0  0  0
    8.9191  -15.7689   21.7734 C   0  0  1  0  0  0  0  0  0  0  0  0
   10.2399  -15.6985   22.4392 C   0  0  0  0  0  0  0  0  0  0  0  0
   10.4779  -14.8606   23.3627 O   0  0  0  0  0  0  0  0  0  0  0  0
   11.2914  -16.5625   22.0872 N   0  0  0  0  0  0  0  0  0  0  0  0
   12.6416  -16.3662   22.6919 C   0  0  1  0  0  0  0  0  0  0  0  0
   12.7576  -17.4118   23.7676 C   0  0  0  0  0  0  0  0  0  0  0  0
   12.2313  -18.7559   23.4551 C   0  0  0  0  0  0  0  0  0  0  0  0
   12.4958  -19.7627   24.5083 C   0  0  0  0  0  0  0  0  0  0  0  0
   13.2470  -19.4445   25.4790 O   0  0  0  0  0  0  0  0  0  0  0  0
   13.7095  -16.6513   21.7071 C   0  0  0  0  0  0  0  0  0  0  0  0
   13.4013  -17.1505   20.6009 O   0  0  0  0  0  0  0  0  0  0  0  0
   11.9664  -21.0354   24.5015 O   0  0  0  0  0  0  0  0  0  0  0  0
   15.0360  -16.3790   21.9779 O   0  0  0  0  0  0  0  0  0  0  0  0
  2  3  1  0
  2  1  1  1
  4  3  1  0
  5  4  2  0
  6  5  1  0
  7  6  1  0
  7 12  2  0
  8  7  1  0
  9  8  2  0
  9 10  1  0
 10 11  2  0
 11 12  1  0
 12  4  1  0
 13 15  1  0
 13  2  1  0
 14 13  2  0
 15 16  1  0
 17 16  1  0
 18 17  1  0
 19 18  1  0
 19 15  1  0
 20 21  2  0
 19 20  1  1
 22 20  1  0
 23 28  1  0
 23 22  1  0
 23 24  1  1
 25 24  1  0
 26 25  1  0
 26 27  2  0
 28 31  1  0
 29 28  2  0
 30 26  1  0
M  END
$$$$
