GEN.pdb
     RDKit          3D

 22 21  0  0  1  0  0  0  0  0999 V2000
   26.8450  -11.5195  -16.1384 N   0  0  0  0  0  0  0  0  0  0  0  0
   25.6324  -11.8457  -15.4189 C   0  0  0  0  0  0  0  0  0  0  0  0
   24.5405  -10.9165  -15.8472 C   0  0  0  0  0  0  0  0  0  0  0  0
   24.8082   -9.9470  -16.5767 O   0  0  0  0  0  0  0  0  0  0  0  0
   23.1938  -11.1174  -15.4390 N   0  0  0  0  0  0  0  0  0  0  0  0
   22.0835  -10.3297  -15.9017 C   0  0  1  0  0  0  0  0  0  0  0  0
   20.8557  -11.1689  -15.8412 C   0  0  0  0  0  0  0  0  0  0  0  0
   19.6605  -10.3987  -16.2901 C   0  0  0  0  0  0  0  0  0  0  0  0
   18.4092  -11.1720  -16.3773 C   0  0  0  0  0  0  0  0  0  0  0  0
   17.6869  -11.0641  -17.3819 O   0  0  0  0  0  0  0  0  0  0  0  0
   21.9188   -9.0981  -15.0668 C   0  0  0  0  0  0  0  0  0  0  0  0
   22.0047   -9.1051  -13.8139 O   0  0  0  0  0  0  0  0  0  0  0  0
   17.9769  -12.0369  -15.3800 O   0  0  0  0  0  0  0  0  0  0  0  0
   22.2274   -3.0944  -14.9987 N   0  0  0  0  0  0  0  0  0  0  0  0
   22.3529   -4.3407  -14.3272 C   0  0  0  0  0  0  0  0  0  0  0  0
   22.3013   -4.3147  -13.0725 O   0  0  0  0  0  0  0  0  0  0  0  0
   22.5345   -5.5734  -15.1196 C   0  0  0  0  0  0  0  0  0  0  0  0
   21.5068   -6.6360  -14.8608 C   0  0  2  0  0  0  0  0  0  0  0  0
   21.6523   -7.8214  -15.6423 N   0  0  0  0  0  0  0  0  0  0  0  0
   20.1606   -6.0776  -14.9180 C   0  0  0  0  0  0  0  0  0  0  0  0
   19.5991   -5.5599  -13.9206 O   0  0  0  0  0  0  0  0  0  0  0  0
   19.5023   -6.1446  -16.1637 O   0  0  0  0  0  0  0  0  0  0  0  0
  1  2  1  0
  2  3  1  0
  3  5  1  0
  3  4  2  0
  5  6  1  0
  6 11  1  0
  6  7  1  1
  8  7  1  0
  9  8  1  0
 10  9  2  0
 11 19  1  0
 11 12  2  0
 13  9  1  0
 14 15  1  0
 15 17  1  0
 16 15  2  0
 18 17  1  6
 18 20  1  0
 19 18  1  0
 20 22  1  0
 21 20  2  0
M  END
$$$$
