GEN.pdb
     RDKit          3D

 22 21  0  0  1  0  0  0  0  0999 V2000
   15.5353  -11.6237  -11.2609 N   0  0  0  0  0  0  0  0  0  0  0  0
   15.3365  -10.8236  -10.0715 C   0  0  0  0  0  0  0  0  0  0  0  0
   15.4644   -9.3752  -10.4251 C   0  0  0  0  0  0  0  0  0  0  0  0
   15.1400   -8.9878  -11.5602 O   0  0  0  0  0  0  0  0  0  0  0  0
   15.9495   -8.4233   -9.4874 N   0  0  0  0  0  0  0  0  0  0  0  0
   16.1189   -7.0241   -9.7710 C   0  0  1  0  0  0  0  0  0  0  0  0
   15.6873   -6.2479   -8.5766 C   0  0  0  0  0  0  0  0  0  0  0  0
   14.2054   -6.0844   -8.5535 C   0  0  0  0  0  0  0  0  0  0  0  0
   13.6745   -5.3131   -7.4158 C   0  0  0  0  0  0  0  0  0  0  0  0
   12.6628   -5.7146   -6.8175 O   0  0  0  0  0  0  0  0  0  0  0  0
   17.5447   -6.7173  -10.1089 C   0  0  0  0  0  0  0  0  0  0  0  0
   18.5027   -6.9927   -9.3451 O   0  0  0  0  0  0  0  0  0  0  0  0
   14.2509   -4.1348   -6.9587 O   0  0  0  0  0  0  0  0  0  0  0  0
   21.8562   -5.9796  -12.8445 N   0  0  0  0  0  0  0  0  0  0  0  0
   21.3578   -7.2377  -12.4099 C   0  0  0  0  0  0  0  0  0  0  0  0
   22.1344   -8.2195  -12.5122 O   0  0  0  0  0  0  0  0  0  0  0  0
   19.9846   -7.3249  -11.8741 C   0  0  0  0  0  0  0  0  0  0  0  0
   19.2677   -6.0096  -11.7836 C   0  0  2  0  0  0  0  0  0  0  0  0
   17.9157   -6.0872  -11.3326 N   0  0  0  0  0  0  0  0  0  0  0  0
   19.4120   -5.2561  -13.0241 C   0  0  0  0  0  0  0  0  0  0  0  0
   18.4520   -5.0519  -13.8082 O   0  0  0  0  0  0  0  0  0  0  0  0
   20.6993   -4.7568  -13.3127 O   0  0  0  0  0  0  0  0  0  0  0  0
  1  2  1  0
  2  3  1  0
  3  5  1  0
  3  4  2  0
  5  6  1  0
  6 11  1  0
  6  7  1  1
  8  7  1  0
  9  8  1  0
 10  9  2  0
 11 19  1  0
 11 12  2  0
 13  9  1  0
 14 15  1  0
 15 17  1  0
 16 15  2  0
 18 17  1  6
 18 20  1  0
 19 18  1  0
 20 22  1  0
 21 20  2  0
M  END
$$$$
