GEN.pdb
     RDKit          3D

 22 21  0  0  1  0  0  0  0  0999 V2000
   17.2198  -12.5861  -15.7366 N   0  0  0  0  0  0  0  0  0  0  0  0
   16.5643  -11.3496  -15.3682 C   0  0  0  0  0  0  0  0  0  0  0  0
   17.3332  -10.1970  -15.9335 C   0  0  0  0  0  0  0  0  0  0  0  0
   18.3873  -10.4070  -16.5570 O   0  0  0  0  0  0  0  0  0  0  0  0
   16.8840   -8.8577  -15.7758 N   0  0  0  0  0  0  0  0  0  0  0  0
   17.5767   -7.7076  -16.2902 C   0  0  1  0  0  0  0  0  0  0  0  0
   16.5717   -6.6539  -16.5985 C   0  0  0  0  0  0  0  0  0  0  0  0
   17.2226   -5.4563  -17.2029 C   0  0  0  0  0  0  0  0  0  0  0  0
   16.3132   -4.3454  -17.5347 C   0  0  0  0  0  0  0  0  0  0  0  0
   15.8899   -4.2214  -18.6957 O   0  0  0  0  0  0  0  0  0  0  0  0
   18.5796   -7.2023  -15.3002 C   0  0  0  0  0  0  0  0  0  0  0  0
   18.2792   -6.8903  -14.1215 O   0  0  0  0  0  0  0  0  0  0  0  0
   15.8888   -3.4045  -16.6052 O   0  0  0  0  0  0  0  0  0  0  0  0
   22.6558   -9.7882  -15.1678 N   0  0  0  0  0  0  0  0  0  0  0  0
   22.0360   -8.8102  -14.3437 C   0  0  0  0  0  0  0  0  0  0  0  0
   21.3654   -9.2339  -13.3698 O   0  0  0  0  0  0  0  0  0  0  0  0
   22.2067   -7.3795  -14.6670 C   0  0  0  0  0  0  0  0  0  0  0  0
   20.9304   -6.5904  -14.6890 C   0  0  2  0  0  0  0  0  0  0  0  0
   19.9569   -7.0408  -15.6306 N   0  0  0  0  0  0  0  0  0  0  0  0
   21.2076   -5.1623  -14.7952 C   0  0  0  0  0  0  0  0  0  0  0  0
   20.7195   -4.4432  -15.7024 O   0  0  0  0  0  0  0  0  0  0  0  0
   22.0634   -4.6115  -13.8186 O   0  0  0  0  0  0  0  0  0  0  0  0
  1  2  1  0
  2  3  1  0
  3  5  1  0
  3  4  2  0
  5  6  1  0
  6 11  1  0
  6  7  1  1
  8  7  1  0
  9  8  1  0
 10  9  2  0
 11 19  1  0
 11 12  2  0
 13  9  1  0
 14 15  1  0
 15 17  1  0
 16 15  2  0
 18 17  1  6
 18 20  1  0
 19 18  1  0
 20 22  1  0
 21 20  2  0
M  END
$$$$
