GEN.pdb
     RDKit          3D

 22 21  0  0  1  0  0  0  0  0999 V2000
-170088.6875-164286.109475607.9688 N   0  0  0  0  0  0  0  0  0  0  0  0
-170087.5156-164286.484475607.3438 C   0  0  0  0  0  0  0  0  0  0  0  0
-170086.3750-164285.578175607.7891 C   0  0  0  0  0  0  0  0  0  0  0  0
-170086.7969-164284.515675608.5234 O   0  0  0  0  0  0  0  0  0  0  0  0
-170085.0469-164285.843875607.5078 N   0  0  0  0  0  0  0  0  0  0  0  0
-170084.2344-164286.937575608.0703 C   0  0  1  0  0  0  0  0  0  0  0  0
-170085.1250-164288.046975608.2734 C   0  0  0  0  0  0  0  0  0  0  0  0
-170084.5781-164289.031275609.3047 C   0  0  0  0  0  0  0  0  0  0  0  0
-170083.7031-164288.421975610.2891 C   0  0  0  0  0  0  0  0  0  0  0  0
-170083.8594-164288.656275611.5000 O   0  0  0  0  0  0  0  0  0  0  0  0
-170083.1875-164287.296975607.0469 C   0  0  0  0  0  0  0  0  0  0  0  0
-170082.0938-164287.828175607.3672 O   0  0  0  0  0  0  0  0  0  0  0  0
-170082.4844-164287.687575609.9844 O   0  0  0  0  0  0  0  0  0  0  0  0
-170085.2031-164286.890675602.9609 N   0  0  0  0  0  0  0  0  0  0  0  0
-170084.4375-164287.984475603.1875 C   0  0  0  0  0  0  0  0  0  0  0  0
-170085.1250-164289.156275603.3359 O   0  0  0  0  0  0  0  0  0  0  0  0
-170083.0156-164287.921975603.3359 C   0  0  0  0  0  0  0  0  0  0  0  0
-170082.5000-164287.765675604.6953 C   0  0  2  0  0  0  0  0  0  0  0  0
-170083.4062-164287.203175605.6484 N   0  0  0  0  0  0  0  0  0  0  0  0
-170081.2812-164287.062575604.7031 C   0  0  0  0  0  0  0  0  0  0  0  0
-170081.1406-164285.859475605.1328 O   0  0  0  0  0  0  0  0  0  0  0  0
-170080.0938-164287.718875604.1875 O   0  0  0  0  0  0  0  0  0  0  0  0
  1  2  1  0
  2  3  1  0
  3  5  1  0
  3  4  2  0
  5  6  1  0
  6 11  1  0
  6  7  1  6
  8  7  1  0
  9  8  1  0
 10  9  2  0
 11 19  1  0
 11 12  2  0
 13  9  1  0
 14 15  1  0
 15 17  1  0
 16 15  2  0
 18 17  1  6
 18 20  1  0
 19 18  1  0
 20 22  1  0
 21 20  2  0
M  END
$$$$
