GEN.pdb
     RDKit          3D

 22 21  0  0  1  0  0  0  0  0999 V2000
   14.1905  -10.6075  -10.7481 N   0  0  0  0  0  0  0  0  0  0  0  0
   14.6111   -9.4262  -11.4705 C   0  0  0  0  0  0  0  0  0  0  0  0
   16.0069   -9.6260  -11.9715 C   0  0  0  0  0  0  0  0  0  0  0  0
   16.9499   -9.6725  -11.1638 O   0  0  0  0  0  0  0  0  0  0  0  0
   16.2834   -9.7671  -13.3587 N   0  0  0  0  0  0  0  0  0  0  0  0
   17.5987   -9.9673  -13.9038 C   0  0  1  0  0  0  0  0  0  0  0  0
   17.4732  -10.7777  -15.1458 C   0  0  0  0  0  0  0  0  0  0  0  0
   17.1615  -12.2002  -14.8255 C   0  0  0  0  0  0  0  0  0  0  0  0
   17.0409  -13.0960  -15.9892 C   0  0  0  0  0  0  0  0  0  0  0  0
   16.1001  -12.9476  -16.7862 O   0  0  0  0  0  0  0  0  0  0  0  0
   18.2594   -8.6563  -14.1973 C   0  0  0  0  0  0  0  0  0  0  0  0
   17.6314   -7.6532  -14.6171 O   0  0  0  0  0  0  0  0  0  0  0  0
   17.9380  -14.1222  -16.2570 O   0  0  0  0  0  0  0  0  0  0  0  0
   21.7396   -4.8449  -14.6971 N   0  0  0  0  0  0  0  0  0  0  0  0
   21.9630   -5.5036  -13.4577 C   0  0  0  0  0  0  0  0  0  0  0  0
   22.7642   -4.9542  -12.6615 O   0  0  0  0  0  0  0  0  0  0  0  0
   21.2595   -6.7710  -13.1759 C   0  0  0  0  0  0  0  0  0  0  0  0
   20.2951   -7.1975  -14.2437 C   0  0  2  0  0  0  0  0  0  0  0  0
   19.6591   -8.4551  -14.0171 N   0  0  0  0  0  0  0  0  0  0  0  0
   20.9085   -7.0989  -15.5633 C   0  0  0  0  0  0  0  0  0  0  0  0
   21.3614   -6.0201  -16.0208 O   0  0  0  0  0  0  0  0  0  0  0  0
   20.9729   -8.2879  -16.3194 O   0  0  0  0  0  0  0  0  0  0  0  0
  1  2  1  0
  2  3  1  0
  3  5  1  0
  3  4  2  0
  5  6  1  0
  6 11  1  0
  6  7  1  6
  8  7  1  0
  9  8  1  0
 10  9  2  0
 11 19  1  0
 11 12  2  0
 13  9  1  0
 14 15  1  0
 15 17  1  0
 16 15  2  0
 18 17  1  1
 18 20  1  0
 19 18  1  0
 20 22  1  0
 21 20  2  0
M  END
$$$$
