YQW.pdb
     RDKit          3D

 36 38  0  0  1  0  0  0  0  0999 V2000
    7.8741  -10.8488   -9.9222 O   0  0  0  0  0  0  0  0  0  0  0  0
    9.0980  -10.5522  -10.5166 C   0  0  0  0  0  0  0  0  0  0  0  0
    9.3682   -9.3099  -11.0534 C   0  0  0  0  0  0  0  0  0  0  0  0
   10.5949   -9.0656  -11.6308 C   0  0  0  0  0  0  0  0  0  0  0  0
   11.5937  -10.0120  -11.7064 C   0  0  0  0  0  0  0  0  0  0  0  0
   12.8993   -9.7546  -12.3272 C   0  0  0  0  0  0  0  0  0  0  0  0
   12.9008   -9.7749  -13.8250 C   0  0  2  0  0  0  0  0  0  0  0  0
   12.7770  -11.1836  -14.2168 N   0  0  0  0  0  0  0  0  0  0  0  0
   14.1670   -9.2607  -14.3830 C   0  0  0  0  0  0  0  0  0  0  0  0
   15.1682  -10.0140  -14.5037 O   0  0  0  0  0  0  0  0  0  0  0  0
   11.3029  -11.2625  -11.1583 C   0  0  0  0  0  0  0  0  0  0  0  0
   10.0813  -11.5188  -10.5786 C   0  0  0  0  0  0  0  0  0  0  0  0
   16.9084   -7.9076  -18.7004 N   0  0  0  0  0  0  0  0  0  0  0  0
   15.4986   -7.9172  -18.8349 C   0  0  0  0  0  0  0  0  0  0  0  0
   14.9769   -8.4718  -19.8251 O   0  0  0  0  0  0  0  0  0  0  0  0
   14.6274   -7.2869  -17.8224 C   0  0  0  0  0  0  0  0  0  0  0  0
   15.3390   -6.6483  -16.6911 C   0  0  0  0  0  0  0  0  0  0  0  0
   15.4724   -7.4211  -15.4333 C   0  0  2  0  0  0  0  0  0  0  0  0
   14.2995   -7.9001  -14.8023 N   0  0  0  0  0  0  0  0  0  0  0  0
   16.2589   -6.6505  -14.4208 C   0  0  0  0  0  0  0  0  0  0  0  0
   15.7470   -6.2690  -13.3403 O   0  0  0  0  0  0  0  0  0  0  0  0
   17.6103   -6.3386  -14.6724 N   0  0  0  0  0  0  0  0  0  0  0  0
   18.5269   -6.1907  -13.5486 C   0  0  1  0  0  0  0  0  0  0  0  0
   18.4355   -7.4916  -12.7969 C   0  0  0  0  0  0  0  0  0  0  0  0
   19.3578   -7.5390  -11.6557 C   0  0  0  0  0  0  0  0  0  0  0  0
   19.0912   -7.0173  -10.3787 C   0  0  0  0  0  0  0  0  0  0  0  0
   20.1536   -7.1999   -9.5933 N   0  0  0  0  0  0  0  0  0  0  0  0
   21.1408   -7.8231  -10.2652 C   0  0  0  0  0  0  0  0  0  0  0  0
   22.3993   -8.2351   -9.8823 C   0  0  0  0  0  0  0  0  0  0  0  0
   23.2184   -8.8852  -10.7866 C   0  0  0  0  0  0  0  0  0  0  0  0
   22.7229   -9.0944  -12.0581 C   0  0  0  0  0  0  0  0  0  0  0  0
   21.4655   -8.6821  -12.4409 C   0  0  0  0  0  0  0  0  0  0  0  0
   20.6420   -8.0317  -11.5449 C   0  0  0  0  0  0  0  0  0  0  0  0
   19.8627   -5.7839  -13.9725 C   0  0  0  0  0  0  0  0  0  0  0  0
   20.7063   -4.9664  -13.2520 O   0  0  0  0  0  0  0  0  0  0  0  0
   20.3099   -6.1913  -15.0853 O   0  0  0  0  0  0  0  0  0  0  0  0
  2  1  1  0
  3  2  2  0
  4  3  1  0
  5 11  1  0
  5  4  2  0
  6  5  1  0
  7  8  1  1
  7  6  1  0
  9  7  1  0
  9 10  2  0
 11 12  2  0
 12  2  1  0
 14 13  1  0
 15 14  2  0
 16 14  1  0
 16 17  1  0
 18 17  1  6
 18 19  1  0
 18 20  1  0
 19  9  1  0
 20 21  2  0
 20 22  1  0
 22 23  1  0
 23 34  1  0
 24 25  1  0
 23 24  1  6
 25 33  1  0
 25 26  2  0
 26 27  1  0
 28 27  1  0
 28 29  2  0
 30 29  1  0
 31 30  2  0
 32 31  1  0
 32 33  2  0
 33 28  1  0
 34 36  2  0
 34 35  1  0
M  END
$$$$
