YQW.pdb
     RDKit          3D

 36 38  0  0  1  0  0  0  0  0999 V2000
   29.9411  -16.3891  -19.7641 O   0  0  0  0  0  0  0  0  0  0  0  0
   28.9152  -16.9743  -19.0264 C   0  0  0  0  0  0  0  0  0  0  0  0
   27.6905  -17.2741  -19.5873 C   0  0  0  0  0  0  0  0  0  0  0  0
   26.7071  -17.8531  -18.8154 C   0  0  0  0  0  0  0  0  0  0  0  0
   26.8779  -18.1584  -17.4825 C   0  0  0  0  0  0  0  0  0  0  0  0
   25.8284  -18.7698  -16.6573 C   0  0  0  0  0  0  0  0  0  0  0  0
   26.1689  -20.1178  -16.1001 C   0  0  2  0  0  0  0  0  0  0  0  0
   26.2906  -21.0194  -17.2515 N   0  0  0  0  0  0  0  0  0  0  0  0
   25.0991  -20.6413  -15.2281 C   0  0  0  0  0  0  0  0  0  0  0  0
   24.3079  -21.5277  -15.6439 O   0  0  0  0  0  0  0  0  0  0  0  0
   28.1227  -17.8484  -16.9321 C   0  0  0  0  0  0  0  0  0  0  0  0
   29.1131  -17.2700  -17.6928 C   0  0  0  0  0  0  0  0  0  0  0  0
   24.5656  -20.7388   -8.7757 N   0  0  0  0  0  0  0  0  0  0  0  0
   23.3949  -21.3455   -9.2926 C   0  0  0  0  0  0  0  0  0  0  0  0
   22.5983  -21.9118   -8.5148 O   0  0  0  0  0  0  0  0  0  0  0  0
   23.0915  -21.3187  -10.7378 C   0  0  0  0  0  0  0  0  0  0  0  0
   24.1469  -20.7245  -11.5905 C   0  0  0  0  0  0  0  0  0  0  0  0
   23.8967  -20.6500  -13.0496 C   0  0  2  0  0  0  0  0  0  0  0  0
   24.9253  -20.1636  -13.8915 N   0  0  0  0  0  0  0  0  0  0  0  0
   22.6573  -19.8621  -13.3334 C   0  0  0  0  0  0  0  0  0  0  0  0
   22.4729  -18.7234  -12.8390 O   0  0  0  0  0  0  0  0  0  0  0  0
   21.6631  -20.3989  -14.1763 N   0  0  0  0  0  0  0  0  0  0  0  0
   20.5412  -19.5588  -14.5770 C   0  0  1  0  0  0  0  0  0  0  0  0
   21.1681  -18.3594  -15.2360 C   0  0  0  0  0  0  0  0  0  0  0  0
   20.2042  -17.6043  -16.0460 C   0  0  0  0  0  0  0  0  0  0  0  0
   18.9468  -17.1616  -15.6021 C   0  0  0  0  0  0  0  0  0  0  0  0
   18.3172  -16.5393  -16.5996 N   0  0  0  0  0  0  0  0  0  0  0  0
   19.0785  -16.5298  -17.7108 C   0  0  0  0  0  0  0  0  0  0  0  0
   18.8704  -16.0008  -18.9666 C   0  0  0  0  0  0  0  0  0  0  0  0
   19.8486  -16.1178  -19.9364 C   0  0  0  0  0  0  0  0  0  0  0  0
   21.0128  -16.7743  -19.5903 C   0  0  0  0  0  0  0  0  0  0  0  0
   21.2205  -17.3035  -18.3356 C   0  0  0  0  0  0  0  0  0  0  0  0
   20.2490  -17.1919  -17.3621 C   0  0  0  0  0  0  0  0  0  0  0  0
   19.5574  -20.2889  -15.3697 C   0  0  0  0  0  0  0  0  0  0  0  0
   19.8577  -21.1960  -16.3626 O   0  0  0  0  0  0  0  0  0  0  0  0
   18.3239  -20.0937  -15.1583 O   0  0  0  0  0  0  0  0  0  0  0  0
  2  1  1  0
  3  2  2  0
  4  3  1  0
  5 11  1  0
  5  4  2  0
  6  5  1  0
  7  8  1  6
  7  6  1  0
  9  7  1  0
  9 10  2  0
 11 12  2  0
 12  2  1  0
 14 13  1  0
 15 14  2  0
 16 14  1  0
 16 17  1  0
 18 17  1  1
 18 19  1  0
 18 20  1  0
 19  9  1  0
 20 21  2  0
 20 22  1  0
 22 23  1  0
 23 34  1  0
 24 25  1  0
 23 24  1  6
 25 33  1  0
 25 26  2  0
 26 27  1  0
 28 27  1  0
 28 29  2  0
 30 29  1  0
 31 30  2  0
 32 31  1  0
 32 33  2  0
 33 28  1  0
 34 36  2  0
 34 35  1  0
M  END
$$$$
