YQW.pdb
     RDKit          3D

 36 38  0  0  1  0  0  0  0  0999 V2000
   27.9617  -31.7952  -17.5581 O   0  0  0  0  0  0  0  0  0  0  0  0
   27.6514  -30.4835  -17.2083 C   0  0  0  0  0  0  0  0  0  0  0  0
   28.4202  -29.7630  -16.3171 C   0  0  0  0  0  0  0  0  0  0  0  0
   28.0715  -28.4677  -16.0033 C   0  0  0  0  0  0  0  0  0  0  0  0
   26.9726  -27.8324  -16.5397 C   0  0  0  0  0  0  0  0  0  0  0  0
   26.5965  -26.4539  -16.2010 C   0  0  0  0  0  0  0  0  0  0  0  0
   26.9463  -25.4314  -17.2382 C   0  0  2  0  0  0  0  0  0  0  0  0
   28.4049  -25.2783  -17.1887 N   0  0  0  0  0  0  0  0  0  0  0  0
   26.3441  -24.1165  -16.9427 C   0  0  0  0  0  0  0  0  0  0  0  0
   27.0345  -23.0658  -17.0040 O   0  0  0  0  0  0  0  0  0  0  0  0
   26.2068  -28.5761  -17.4391 C   0  0  0  0  0  0  0  0  0  0  0  0
   26.5448  -29.8708  -17.7609 C   0  0  0  0  0  0  0  0  0  0  0  0
   22.9649  -19.8207  -18.9583 N   0  0  0  0  0  0  0  0  0  0  0  0
   23.2673  -21.0771  -19.5377 C   0  0  0  0  0  0  0  0  0  0  0  0
   22.8833  -21.3294  -20.6992 O   0  0  0  0  0  0  0  0  0  0  0  0
   24.0346  -22.0986  -18.7966 C   0  0  0  0  0  0  0  0  0  0  0  0
   24.4449  -21.7064  -17.4285 C   0  0  0  0  0  0  0  0  0  0  0  0
   24.3608  -22.7311  -16.3608 C   0  0  2  0  0  0  0  0  0  0  0  0
   24.9668  -23.9914  -16.5792 N   0  0  0  0  0  0  0  0  0  0  0  0
   22.9376  -22.9661  -15.9651 C   0  0  0  0  0  0  0  0  0  0  0  0
   22.1977  -23.7534  -16.6037 O   0  0  0  0  0  0  0  0  0  0  0  0
   22.4004  -22.2942  -14.8484 N   0  0  0  0  0  0  0  0  0  0  0  0
   21.0489  -22.6165  -14.4072 C   0  0  1  0  0  0  0  0  0  0  0  0
   21.1842  -22.9443  -12.9443 C   0  0  0  0  0  0  0  0  0  0  0  0
   21.9608  -21.9317  -12.2184 C   0  0  0  0  0  0  0  0  0  0  0  0
   21.4828  -20.6670  -11.8361 C   0  0  0  0  0  0  0  0  0  0  0  0
   22.4562  -19.9898  -11.2258 N   0  0  0  0  0  0  0  0  0  0  0  0
   23.5832  -20.7252  -11.1671 C   0  0  0  0  0  0  0  0  0  0  0  0
   24.8255  -20.4672  -10.6281 C   0  0  0  0  0  0  0  0  0  0  0  0
   25.8180  -21.4276  -10.6887 C   0  0  0  0  0  0  0  0  0  0  0  0
   25.5077  -22.6257  -11.3005 C   0  0  0  0  0  0  0  0  0  0  0  0
   24.2666  -22.8833  -11.8397 C   0  0  0  0  0  0  0  0  0  0  0  0
   23.2706  -21.9299  -11.7843 C   0  0  0  0  0  0  0  0  0  0  0  0
   20.0904  -21.5700  -14.7472 C   0  0  0  0  0  0  0  0  0  0  0  0
   18.7208  -21.6918  -14.6552 O   0  0  0  0  0  0  0  0  0  0  0  0
   20.5159  -20.4535  -15.1673 O   0  0  0  0  0  0  0  0  0  0  0  0
  2  1  1  0
  3  2  2  0
  4  3  1  0
  5 11  1  0
  5  4  2  0
  6  5  1  0
  7  8  1  1
  7  6  1  0
  9  7  1  0
  9 10  2  0
 11 12  2  0
 12  2  1  0
 14 13  1  0
 15 14  2  0
 16 14  1  0
 16 17  1  0
 18 17  1  6
 18 19  1  0
 18 20  1  0
 19  9  1  0
 20 21  2  0
 20 22  1  0
 22 23  1  0
 23 34  1  0
 24 25  1  0
 23 24  1  1
 25 33  1  0
 25 26  2  0
 26 27  1  0
 28 27  1  0
 28 29  2  0
 30 29  1  0
 31 30  2  0
 32 31  1  0
 32 33  2  0
 33 28  1  0
 34 36  2  0
 34 35  1  0
M  END
$$$$
