YQW.pdb
     RDKit          3D

 36 38  0  0  1  0  0  0  0  0999 V2000
   28.5775  -14.8518  -19.8251 O   0  0  0  0  0  0  0  0  0  0  0  0
   27.6356  -15.5893  -19.1122 C   0  0  0  0  0  0  0  0  0  0  0  0
   26.5107  -16.1151  -19.7142 C   0  0  0  0  0  0  0  0  0  0  0  0
   25.6079  -16.8380  -18.9655 C   0  0  0  0  0  0  0  0  0  0  0  0
   25.7653  -17.0731  -17.6169 C   0  0  0  0  0  0  0  0  0  0  0  0
   24.8005  -17.8381  -16.8166 C   0  0  0  0  0  0  0  0  0  0  0  0
   25.2013  -19.2521  -16.5273 C   0  0  2  0  0  0  0  0  0  0  0  0
   25.0529  -19.9874  -17.7885 N   0  0  0  0  0  0  0  0  0  0  0  0
   24.3158  -19.8840  -15.5295 C   0  0  0  0  0  0  0  0  0  0  0  0
   23.3626  -20.6215  -15.8927 O   0  0  0  0  0  0  0  0  0  0  0  0
   26.9086  -16.5340  -17.0248 C   0  0  0  0  0  0  0  0  0  0  0  0
   27.8179  -15.8101  -17.7620 C   0  0  0  0  0  0  0  0  0  0  0  0
   25.2005  -20.7326   -9.1329 N   0  0  0  0  0  0  0  0  0  0  0  0
   23.9106  -21.2373   -9.4284 C   0  0  0  0  0  0  0  0  0  0  0  0
   23.2181  -21.7339   -8.5152 O   0  0  0  0  0  0  0  0  0  0  0  0
   23.3619  -21.1846  -10.7987 C   0  0  0  0  0  0  0  0  0  0  0  0
   24.2444  -20.5501  -11.8049 C   0  0  0  0  0  0  0  0  0  0  0  0
   23.6911  -20.3145  -13.1597 C   0  0  2  0  0  0  0  0  0  0  0  0
   24.5081  -19.6819  -14.1270 N   0  0  0  0  0  0  0  0  0  0  0  0
   22.4023  -19.5594  -13.0799 C   0  0  0  0  0  0  0  0  0  0  0  0
   22.3766  -18.3157  -12.9140 O   0  0  0  0  0  0  0  0  0  0  0  0
   21.1779  -20.2487  -13.1931 N   0  0  0  0  0  0  0  0  0  0  0  0
   19.9302  -19.5145  -13.0218 C   0  0  1  0  0  0  0  0  0  0  0  0
   19.9921  -18.3996  -14.0313 C   0  0  0  0  0  0  0  0  0  0  0  0
   19.8550  -18.8898  -15.4083 C   0  0  0  0  0  0  0  0  0  0  0  0
   19.0876  -20.0001  -15.7985 C   0  0  0  0  0  0  0  0  0  0  0  0
   19.2115  -20.1862  -17.1133 N   0  0  0  0  0  0  0  0  0  0  0  0
   20.0265  -19.2580  -17.6507 C   0  0  0  0  0  0  0  0  0  0  0  0
   20.4391  -19.0324  -18.9465 C   0  0  0  0  0  0  0  0  0  0  0  0
   21.2797  -17.9720  -19.2293 C   0  0  0  0  0  0  0  0  0  0  0  0
   21.6732  -17.1729  -18.1744 C   0  0  0  0  0  0  0  0  0  0  0  0
   21.2615  -17.3987  -16.8794 C   0  0  0  0  0  0  0  0  0  0  0  0
   20.4232  -18.4554  -16.5884 C   0  0  0  0  0  0  0  0  0  0  0  0
   18.7608  -20.3845  -13.0933 C   0  0  0  0  0  0  0  0  0  0  0  0
   18.7775  -21.6995  -13.5048 O   0  0  0  0  0  0  0  0  0  0  0  0
   17.6270  -19.9259  -12.7641 O   0  0  0  0  0  0  0  0  0  0  0  0
  2  1  1  0
  3  2  2  0
  4  3  1  0
  5 11  1  0
  5  4  2  0
  6  5  1  0
  7  8  1  6
  7  6  1  0
  9  7  1  0
  9 10  2  0
 11 12  2  0
 12  2  1  0
 14 13  1  0
 15 14  2  0
 16 14  1  0
 16 17  1  0
 18 17  1  1
 18 19  1  0
 18 20  1  0
 19  9  1  0
 20 21  2  0
 20 22  1  0
 22 23  1  0
 23 34  1  0
 24 25  1  0
 23 24  1  6
 25 33  1  0
 25 26  2  0
 26 27  1  0
 28 27  1  0
 28 29  2  0
 30 29  1  0
 31 30  2  0
 32 31  1  0
 32 33  2  0
 33 28  1  0
 34 36  2  0
 34 35  1  0
M  END
$$$$
