YQW.pdb
     RDKit          3D

 36 38  0  0  1  0  0  0  0  0999 V2000
   31.5529  -20.7691  -20.3971 O   0  0  0  0  0  0  0  0  0  0  0  0
   30.8363  -20.3238  -19.2893 C   0  0  0  0  0  0  0  0  0  0  0  0
   30.4489  -19.0066  -19.1503 C   0  0  0  0  0  0  0  0  0  0  0  0
   29.7408  -18.6151  -18.0352 C   0  0  0  0  0  0  0  0  0  0  0  0
   29.3875  -19.4826  -17.0245 C   0  0  0  0  0  0  0  0  0  0  0  0
   28.6383  -19.0651  -15.8325 C   0  0  0  0  0  0  0  0  0  0  0  0
   27.2556  -19.6311  -15.7260 C   0  0  2  0  0  0  0  0  0  0  0  0
   26.4824  -19.0357  -16.8219 N   0  0  0  0  0  0  0  0  0  0  0  0
   26.6017  -19.2565  -14.4567 C   0  0  0  0  0  0  0  0  0  0  0  0
   26.0352  -18.1394  -14.3316 O   0  0  0  0  0  0  0  0  0  0  0  0
   29.7875  -20.8107  -17.1818 C   0  0  0  0  0  0  0  0  0  0  0  0
   30.4951  -21.2141  -18.2913 C   0  0  0  0  0  0  0  0  0  0  0  0
   21.5214  -21.0057  -13.7152 N   0  0  0  0  0  0  0  0  0  0  0  0
   21.7279  -20.6799  -12.3525 C   0  0  0  0  0  0  0  0  0  0  0  0
   20.7536  -20.6467  -11.5714 O   0  0  0  0  0  0  0  0  0  0  0  0
   23.0773  -20.3817  -11.8312 C   0  0  0  0  0  0  0  0  0  0  0  0
   24.1542  -20.3654  -12.8481 C   0  0  0  0  0  0  0  0  0  0  0  0
   25.5416  -20.1308  -12.3822 C   0  0  2  0  0  0  0  0  0  0  0  0
   26.5892  -20.1421  -13.3341 N   0  0  0  0  0  0  0  0  0  0  0  0
   25.9009  -21.0874  -11.2898 C   0  0  0  0  0  0  0  0  0  0  0  0
   25.7566  -22.3267  -11.4255 O   0  0  0  0  0  0  0  0  0  0  0  0
   26.4166  -20.5992  -10.0722 N   0  0  0  0  0  0  0  0  0  0  0  0
   26.4586  -21.4821   -8.9130 C   0  0  1  0  0  0  0  0  0  0  0  0
   27.8572  -21.3495   -8.3723 C   0  0  0  0  0  0  0  0  0  0  0  0
   27.9664  -20.2798   -7.3728 C   0  0  0  0  0  0  0  0  0  0  0  0
   27.3276  -19.0309   -7.4521 C   0  0  0  0  0  0  0  0  0  0  0  0
   27.6692  -18.2892   -6.3976 N   0  0  0  0  0  0  0  0  0  0  0  0
   28.5123  -18.9650   -5.5932 C   0  0  0  0  0  0  0  0  0  0  0  0
   29.1148  -18.6302   -4.3995 C   0  0  0  0  0  0  0  0  0  0  0  0
   29.9359  -19.5407   -3.7607 C   0  0  0  0  0  0  0  0  0  0  0  0
   30.1154  -20.7690   -4.3648 C   0  0  0  0  0  0  0  0  0  0  0  0
   29.5138  -21.1034   -5.5581 C   0  0  0  0  0  0  0  0  0  0  0  0
   28.6935  -20.2002   -6.2027 C   0  0  0  0  0  0  0  0  0  0  0  0
   25.3759  -21.2137   -7.9722 C   0  0  0  0  0  0  0  0  0  0  0  0
   25.1058  -21.9578   -6.8442 O   0  0  0  0  0  0  0  0  0  0  0  0
   24.6030  -20.2323   -8.1813 O   0  0  0  0  0  0  0  0  0  0  0  0
  2  1  1  0
  3  2  2  0
  4  3  1  0
  5 11  1  0
  5  4  2  0
  6  5  1  0
  7  8  1  6
  7  6  1  0
  9  7  1  0
  9 10  2  0
 11 12  2  0
 12  2  1  0
 14 13  1  0
 15 14  2  0
 16 14  1  0
 16 17  1  0
 18 17  1  6
 18 19  1  0
 18 20  1  0
 19  9  1  0
 20 21  2  0
 20 22  1  0
 22 23  1  0
 23 34  1  0
 24 25  1  0
 23 24  1  1
 25 33  1  0
 25 26  2  0
 26 27  1  0
 28 27  1  0
 28 29  2  0
 30 29  1  0
 31 30  2  0
 32 31  1  0
 32 33  2  0
 33 28  1  0
 34 36  2  0
 34 35  1  0
M  END
$$$$
