YQW.pdb
     RDKit          3D

 36 38  0  0  1  0  0  0  0  0999 V2000
   36.7386  -25.3640  -20.9987 O   0  0  0  0  0  0  0  0  0  0  0  0
   36.0124  -26.5331  -20.7871 C   0  0  0  0  0  0  0  0  0  0  0  0
   34.8495  -26.5472  -20.0442 C   0  0  0  0  0  0  0  0  0  0  0  0
   34.1666  -27.7300  -19.8636 C   0  0  0  0  0  0  0  0  0  0  0  0
   34.5865  -28.9307  -20.3938 C   0  0  0  0  0  0  0  0  0  0  0  0
   33.8628  -30.1931  -20.1965 C   0  0  0  0  0  0  0  0  0  0  0  0
   33.7976  -30.6680  -18.7774 C   0  0  2  0  0  0  0  0  0  0  0  0
   35.1546  -31.1031  -18.4271 N   0  0  0  0  0  0  0  0  0  0  0  0
   32.8979  -31.8281  -18.6240 C   0  0  0  0  0  0  0  0  0  0  0  0
   33.2208  -32.9558  -19.0805 O   0  0  0  0  0  0  0  0  0  0  0  0
   35.7643  -28.8976  -21.1422 C   0  0  0  0  0  0  0  0  0  0  0  0
   36.4554  -27.7223  -21.3300 C   0  0  0  0  0  0  0  0  0  0  0  0
   28.0811  -32.8853  -14.3567 N   0  0  0  0  0  0  0  0  0  0  0  0
   27.9987  -31.8188  -15.2848 C   0  0  0  0  0  0  0  0  0  0  0  0
   27.1717  -30.9013  -15.0988 O   0  0  0  0  0  0  0  0  0  0  0  0
   28.8769  -31.7649  -16.4712 C   0  0  0  0  0  0  0  0  0  0  0  0
   29.9178  -32.8170  -16.5306 C   0  0  0  0  0  0  0  0  0  0  0  0
   30.8146  -32.8368  -17.7106 C   0  0  2  0  0  0  0  0  0  0  0  0
   31.6382  -31.7123  -17.9572 N   0  0  0  0  0  0  0  0  0  0  0  0
   30.0402  -33.1235  -18.9578 C   0  0  0  0  0  0  0  0  0  0  0  0
   29.6950  -32.2082  -19.7440 O   0  0  0  0  0  0  0  0  0  0  0  0
   29.6829  -34.4505  -19.2715 N   0  0  0  0  0  0  0  0  0  0  0  0
   28.9497  -34.7172  -20.5029 C   0  0  1  0  0  0  0  0  0  0  0  0
   29.0928  -36.1985  -20.7289 C   0  0  0  0  0  0  0  0  0  0  0  0
   28.4517  -36.6340  -21.9758 C   0  0  0  0  0  0  0  0  0  0  0  0
   28.9857  -36.4585  -23.2634 C   0  0  0  0  0  0  0  0  0  0  0  0
   28.1315  -36.9388  -24.1681 N   0  0  0  0  0  0  0  0  0  0  0  0
   27.0338  -37.4383  -23.5682 C   0  0  0  0  0  0  0  0  0  0  0  0
   25.9035  -38.0458  -24.0720 C   0  0  0  0  0  0  0  0  0  0  0  0
   24.9181  -38.4934  -23.2119 C   0  0  0  0  0  0  0  0  0  0  0  0
   25.1202  -38.3051  -21.8593 C   0  0  0  0  0  0  0  0  0  0  0  0
   26.2494  -37.6974  -21.3559 C   0  0  0  0  0  0  0  0  0  0  0  0
   27.2373  -37.2470  -22.2074 C   0  0  0  0  0  0  0  0  0  0  0  0
   27.5855  -34.2009  -20.4586 C   0  0  0  0  0  0  0  0  0  0  0  0
   26.8731  -33.7546  -21.5505 O   0  0  0  0  0  0  0  0  0  0  0  0
   26.9825  -34.1396  -19.3465 O   0  0  0  0  0  0  0  0  0  0  0  0
  2  1  1  0
  3  2  2  0
  4  3  1  0
  5 11  1  0
  5  4  2  0
  6  5  1  0
  7  8  1  6
  7  6  1  0
  9  7  1  0
  9 10  2  0
 11 12  2  0
 12  2  1  0
 14 13  1  0
 15 14  2  0
 16 14  1  0
 16 17  1  0
 18 17  1  1
 18 19  1  0
 18 20  1  0
 19  9  1  0
 20 21  2  0
 20 22  1  0
 22 23  1  0
 23 34  1  0
 24 25  1  0
 23 24  1  1
 25 33  1  0
 25 26  2  0
 26 27  1  0
 28 27  1  0
 28 29  2  0
 30 29  1  0
 31 30  2  0
 32 31  1  0
 32 33  2  0
 33 28  1  0
 34 36  2  0
 34 35  1  0
M  END
$$$$
