YQW.pdb
     RDKit          3D

 36 38  0  0  1  0  0  0  0  0999 V2000
   17.3752  -25.6282   -3.1703 O   0  0  0  0  0  0  0  0  0  0  0  0
   16.9192  -24.7487   -2.1917 C   0  0  0  0  0  0  0  0  0  0  0  0
   16.2953  -23.5598   -2.5106 C   0  0  0  0  0  0  0  0  0  0  0  0
   15.8617  -22.7230   -1.5056 C   0  0  0  0  0  0  0  0  0  0  0  0
   16.0182  -23.0097   -0.1669 C   0  0  0  0  0  0  0  0  0  0  0  0
   15.5621  -22.1156    0.9050 C   0  0  0  0  0  0  0  0  0  0  0  0
   14.3714  -22.6049    1.6710 C   0  0  2  0  0  0  0  0  0  0  0  0
   13.2808  -22.7322    0.6975 N   0  0  0  0  0  0  0  0  0  0  0  0
   13.9445  -21.6403    2.7036 C   0  0  0  0  0  0  0  0  0  0  0  0
   12.7236  -21.4727    2.9601 O   0  0  0  0  0  0  0  0  0  0  0  0
   16.6511  -24.2162    0.1370 C   0  0  0  0  0  0  0  0  0  0  0  0
   17.0886  -25.0606   -0.8579 C   0  0  0  0  0  0  0  0  0  0  0  0
   13.6150  -24.0349    5.0936 N   0  0  0  0  0  0  0  0  0  0  0  0
   12.6806  -23.2074    5.7629 C   0  0  0  0  0  0  0  0  0  0  0  0
   11.5615  -23.6666    6.0743 O   0  0  0  0  0  0  0  0  0  0  0  0
   13.0040  -21.8078    6.1066 C   0  0  0  0  0  0  0  0  0  0  0  0
   14.4000  -21.3988    5.8275 C   0  0  0  0  0  0  0  0  0  0  0  0
   14.6274  -20.4042    4.7523 C   0  0  2  0  0  0  0  0  0  0  0  0
   14.8951  -20.8687    3.4424 N   0  0  0  0  0  0  0  0  0  0  0  0
   15.7155  -19.4518    5.1352 C   0  0  0  0  0  0  0  0  0  0  0  0
   16.9277  -19.7529    5.0128 O   0  0  0  0  0  0  0  0  0  0  0  0
   15.3862  -18.1803    5.6468 N   0  0  0  0  0  0  0  0  0  0  0  0
   16.4571  -17.2510    5.9853 C   0  0  1  0  0  0  0  0  0  0  0  0
   16.1730  -16.0161    5.1728 C   0  0  0  0  0  0  0  0  0  0  0  0
   16.6923  -16.1214    3.8036 C   0  0  0  0  0  0  0  0  0  0  0  0
   16.0944  -16.8570    2.7666 C   0  0  0  0  0  0  0  0  0  0  0  0
   16.8435  -16.7647    1.6670 N   0  0  0  0  0  0  0  0  0  0  0  0
   17.9294  -16.0005    1.8935 C   0  0  0  0  0  0  0  0  0  0  0  0
   18.9674  -15.6079    1.0759 C   0  0  0  0  0  0  0  0  0  0  0  0
   19.9629  -14.7855    1.5697 C   0  0  0  0  0  0  0  0  0  0  0  0
   19.8651  -14.3890    2.8885 C   0  0  0  0  0  0  0  0  0  0  0  0
   18.8281  -14.7819    3.7058 C   0  0  0  0  0  0  0  0  0  0  0  0
   17.8310  -15.6033    3.2211 C   0  0  0  0  0  0  0  0  0  0  0  0
   16.5891  -17.0583    7.4258 C   0  0  0  0  0  0  0  0  0  0  0  0
   17.5974  -16.3469    8.0393 O   0  0  0  0  0  0  0  0  0  0  0  0
   15.7312  -17.5756    8.2008 O   0  0  0  0  0  0  0  0  0  0  0  0
  2  1  1  0
  3  2  2  0
  4  3  1  0
  5 11  1  0
  5  4  2  0
  6  5  1  0
  7  8  1  6
  7  6  1  0
  9  7  1  0
  9 10  2  0
 11 12  2  0
 12  2  1  0
 14 13  1  0
 15 14  2  0
 16 14  1  0
 16 17  1  0
 18 17  1  1
 18 19  1  0
 18 20  1  0
 19  9  1  0
 20 21  2  0
 20 22  1  0
 22 23  1  0
 23 34  1  0
 24 25  1  0
 23 24  1  6
 25 33  1  0
 25 26  2  0
 26 27  1  0
 28 27  1  0
 28 29  2  0
 30 29  1  0
 31 30  2  0
 32 31  1  0
 32 33  2  0
 33 28  1  0
 34 36  2  0
 34 35  1  0
M  END
$$$$
