YQW.pdb
     RDKit          3D

 36 38  0  0  1  0  0  0  0  0999 V2000
   16.2316  -21.2365  -13.4499 O   0  0  0  0  0  0  0  0  0  0  0  0
   17.5942  -21.4713  -13.2845 C   0  0  0  0  0  0  0  0  0  0  0  0
   18.1729  -21.5701  -12.0356 C   0  0  0  0  0  0  0  0  0  0  0  0
   19.5261  -21.8033  -11.9245 C   0  0  0  0  0  0  0  0  0  0  0  0
   20.3576  -21.9473  -13.0139 C   0  0  0  0  0  0  0  0  0  0  0  0
   21.8011  -22.1897  -12.8966 C   0  0  0  0  0  0  0  0  0  0  0  0
   22.5976  -21.0254  -12.3928 C   0  0  2  0  0  0  0  0  0  0  0  0
   22.4077  -19.9452  -13.3676 N   0  0  0  0  0  0  0  0  0  0  0  0
   24.0408  -21.3289  -12.3308 C   0  0  0  0  0  0  0  0  0  0  0  0
   24.4546  -22.3647  -11.7474 O   0  0  0  0  0  0  0  0  0  0  0  0
   19.7552  -21.8445  -14.2689 C   0  0  0  0  0  0  0  0  0  0  0  0
   18.4044  -21.6119  -14.3931 C   0  0  0  0  0  0  0  0  0  0  0  0
   29.2347  -21.8212  -15.0199 N   0  0  0  0  0  0  0  0  0  0  0  0
   28.1226  -21.3958  -15.7868 C   0  0  0  0  0  0  0  0  0  0  0  0
   27.9857  -21.8094  -16.9574 O   0  0  0  0  0  0  0  0  0  0  0  0
   27.1138  -20.4729  -15.2281 C   0  0  0  0  0  0  0  0  0  0  0  0
   27.3160  -20.1064  -13.8073 C   0  0  0  0  0  0  0  0  0  0  0  0
   26.4016  -20.7000  -12.8031 C   0  0  2  0  0  0  0  0  0  0  0  0
   25.0114  -20.4639  -12.9262 N   0  0  0  0  0  0  0  0  0  0  0  0
   26.8143  -20.3126  -11.4185 C   0  0  0  0  0  0  0  0  0  0  0  0
   26.4732  -19.2161  -10.9120 O   0  0  0  0  0  0  0  0  0  0  0  0
   27.6053  -21.1914  -10.6512 N   0  0  0  0  0  0  0  0  0  0  0  0
   28.2977  -20.6808   -9.4743 C   0  0  1  0  0  0  0  0  0  0  0  0
   27.2430  -20.6070   -8.4029 C   0  0  0  0  0  0  0  0  0  0  0  0
   27.6519  -19.7545   -7.2797 C   0  0  0  0  0  0  0  0  0  0  0  0
   27.4505  -18.3661   -7.2035 C   0  0  0  0  0  0  0  0  0  0  0  0
   27.9720  -17.9030   -6.0668 N   0  0  0  0  0  0  0  0  0  0  0  0
   28.5233  -18.9039   -5.3535 C   0  0  0  0  0  0  0  0  0  0  0  0
   29.1563  -18.9235   -4.1291 C   0  0  0  0  0  0  0  0  0  0  0  0
   29.6178  -20.1183   -3.6089 C   0  0  0  0  0  0  0  0  0  0  0  0
   29.4166  -21.2593   -4.3598 C   0  0  0  0  0  0  0  0  0  0  0  0
   28.7847  -21.2396   -5.5836 C   0  0  0  0  0  0  0  0  0  0  0  0
   28.3219  -20.0512   -6.1104 C   0  0  0  0  0  0  0  0  0  0  0  0
   29.4903  -21.4577   -9.1522 C   0  0  0  0  0  0  0  0  0  0  0  0
   29.8271  -22.6642   -9.7266 O   0  0  0  0  0  0  0  0  0  0  0  0
   30.2964  -21.0209   -8.2783 O   0  0  0  0  0  0  0  0  0  0  0  0
  2  1  1  0
  3  2  2  0
  4  3  1  0
  5 11  1  0
  5  4  2  0
  6  5  1  0
  7  8  1  6
  7  6  1  0
  9  7  1  0
  9 10  2  0
 11 12  2  0
 12  2  1  0
 14 13  1  0
 15 14  2  0
 16 14  1  0
 16 17  1  0
 18 17  1  6
 18 19  1  0
 18 20  1  0
 19  9  1  0
 20 21  2  0
 20 22  1  0
 22 23  1  0
 23 34  1  0
 24 25  1  0
 23 24  1  1
 25 33  1  0
 25 26  2  0
 26 27  1  0
 28 27  1  0
 28 29  2  0
 30 29  1  0
 31 30  2  0
 32 31  1  0
 32 33  2  0
 33 28  1  0
 34 36  2  0
 34 35  1  0
M  END
$$$$
