YQW.pdb
     RDKit          3D

 36 38  0  0  1  0  0  0  0  0999 V2000
   26.0554  -33.6120   -7.5261 O   0  0  0  0  0  0  0  0  0  0  0  0
   25.2264  -32.7876   -8.2825 C   0  0  0  0  0  0  0  0  0  0  0  0
   25.3749  -32.6562   -9.6481 C   0  0  0  0  0  0  0  0  0  0  0  0
   24.5289  -31.8277  -10.3524 C   0  0  0  0  0  0  0  0  0  0  0  0
   23.5175  -31.1037   -9.7591 C   0  0  0  0  0  0  0  0  0  0  0  0
   22.6193  -30.2155  -10.5079 C   0  0  0  0  0  0  0  0  0  0  0  0
   21.1588  -30.4866  -10.3150 C   0  0  2  0  0  0  0  0  0  0  0  0
   20.8867  -31.7649  -10.9822 N   0  0  0  0  0  0  0  0  0  0  0  0
   20.3167  -29.4559  -10.9533 C   0  0  0  0  0  0  0  0  0  0  0  0
   19.7796  -29.6680  -12.0718 O   0  0  0  0  0  0  0  0  0  0  0  0
   23.3820  -31.2489   -8.3774 C   0  0  0  0  0  0  0  0  0  0  0  0
   24.2207  -32.0736   -7.6628 C   0  0  0  0  0  0  0  0  0  0  0  0
   18.5332  -26.8624   -7.2285 N   0  0  0  0  0  0  0  0  0  0  0  0
   17.4008  -27.3733   -7.9084 C   0  0  0  0  0  0  0  0  0  0  0  0
   16.5212  -27.9869   -7.2679 O   0  0  0  0  0  0  0  0  0  0  0  0
   17.2340  -27.1913   -9.3646 C   0  0  0  0  0  0  0  0  0  0  0  0
   18.3260  -26.4476  -10.0340 C   0  0  0  0  0  0  0  0  0  0  0  0
   19.2456  -27.2103  -10.9114 C   0  0  2  0  0  0  0  0  0  0  0  0
   20.0838  -28.1908  -10.3287 N   0  0  0  0  0  0  0  0  0  0  0  0
   20.1065  -26.2823  -11.7083 C   0  0  0  0  0  0  0  0  0  0  0  0
   21.3447  -26.2059  -11.5182 O   0  0  0  0  0  0  0  0  0  0  0  0
   19.5266  -25.4677  -12.7018 N   0  0  0  0  0  0  0  0  0  0  0  0
   20.3939  -24.7120  -13.5972 C   0  0  1  0  0  0  0  0  0  0  0  0
   21.3584  -25.7254  -14.1528 C   0  0  0  0  0  0  0  0  0  0  0  0
   21.1573  -25.9535  -15.5891 C   0  0  0  0  0  0  0  0  0  0  0  0
   21.0494  -24.9443  -16.5606 C   0  0  0  0  0  0  0  0  0  0  0  0
   20.8384  -25.4981  -17.7554 N   0  0  0  0  0  0  0  0  0  0  0  0
   20.7960  -26.8409  -17.6568 C   0  0  0  0  0  0  0  0  0  0  0  0
   20.6221  -27.8297  -18.6014 C   0  0  0  0  0  0  0  0  0  0  0  0
   20.6430  -29.1589  -18.2221 C   0  0  0  0  0  0  0  0  0  0  0  0
   20.8419  -29.4360  -16.8843 C   0  0  0  0  0  0  0  0  0  0  0  0
   21.0151  -28.4479  -15.9403 C   0  0  0  0  0  0  0  0  0  0  0  0
   20.9947  -27.1187  -16.3102 C   0  0  0  0  0  0  0  0  0  0  0  0
   19.6393  -23.9363  -14.5761 C   0  0  0  0  0  0  0  0  0  0  0  0
   18.4286  -24.3102  -15.1179 O   0  0  0  0  0  0  0  0  0  0  0  0
   20.1068  -22.8323  -14.9846 O   0  0  0  0  0  0  0  0  0  0  0  0
  2  1  1  0
  3  2  2  0
  4  3  1  0
  5 11  1  0
  5  4  2  0
  6  5  1  0
  7  8  1  6
  7  6  1  0
  9  7  1  0
  9 10  2  0
 11 12  2  0
 12  2  1  0
 14 13  1  0
 15 14  2  0
 16 14  1  0
 16 17  1  0
 18 17  1  1
 18 19  1  0
 18 20  1  0
 19  9  1  0
 20 21  2  0
 20 22  1  0
 22 23  1  0
 23 34  1  0
 24 25  1  0
 23 24  1  6
 25 33  1  0
 25 26  2  0
 26 27  1  0
 28 27  1  0
 28 29  2  0
 30 29  1  0
 31 30  2  0
 32 31  1  0
 32 33  2  0
 33 28  1  0
 34 36  2  0
 34 35  1  0
M  END
$$$$
