YQW.pdb
     RDKit          3D

 36 38  0  0  1  0  0  0  0  0999 V2000
   29.4835  -21.4285  -20.8654 O   0  0  0  0  0  0  0  0  0  0  0  0
   28.5698  -21.5397  -19.8205 C   0  0  0  0  0  0  0  0  0  0  0  0
   27.2075  -21.5621  -20.0397 C   0  0  0  0  0  0  0  0  0  0  0  0
   26.3439  -21.6738  -18.9721 C   0  0  0  0  0  0  0  0  0  0  0  0
   26.7702  -21.7665  -17.6650 C   0  0  0  0  0  0  0  0  0  0  0  0
   25.8504  -21.8792  -16.5259 C   0  0  0  0  0  0  0  0  0  0  0  0
   25.9971  -23.1319  -15.7179 C   0  0  2  0  0  0  0  0  0  0  0  0
   25.5126  -24.2269  -16.5661 N   0  0  0  0  0  0  0  0  0  0  0  0
   25.1654  -23.1034  -14.4987 C   0  0  0  0  0  0  0  0  0  0  0  0
   24.0501  -23.6861  -14.4686 O   0  0  0  0  0  0  0  0  0  0  0  0
   28.1511  -21.7423  -17.4621 C   0  0  0  0  0  0  0  0  0  0  0  0
   29.0240  -21.6313  -18.5204 C   0  0  0  0  0  0  0  0  0  0  0  0
   24.8363  -21.1205   -8.2102 N   0  0  0  0  0  0  0  0  0  0  0  0
   25.3553  -20.1746   -9.1276 C   0  0  0  0  0  0  0  0  0  0  0  0
   25.6076  -19.0139   -8.7409 O   0  0  0  0  0  0  0  0  0  0  0  0
   25.6104  -20.5337  -10.5374 C   0  0  0  0  0  0  0  0  0  0  0  0
   25.3436  -21.9490  -10.8834 C   0  0  0  0  0  0  0  0  0  0  0  0
   24.7389  -22.2355  -12.2060 C   0  0  2  0  0  0  0  0  0  0  0  0
   25.5941  -22.4182  -13.3190 N   0  0  0  0  0  0  0  0  0  0  0  0
   23.7326  -21.1885  -12.5647 C   0  0  0  0  0  0  0  0  0  0  0  0
   22.7463  -20.9432  -11.8285 O   0  0  0  0  0  0  0  0  0  0  0  0
   23.8835  -20.4502  -13.7559 N   0  0  0  0  0  0  0  0  0  0  0  0
   23.0396  -19.2830  -13.9806 C   0  0  1  0  0  0  0  0  0  0  0  0
   23.9990  -18.1513  -14.2348 C   0  0  0  0  0  0  0  0  0  0  0  0
   24.9610  -18.4677  -15.2978 C   0  0  0  0  0  0  0  0  0  0  0  0
   24.7420  -18.2698  -16.6714 C   0  0  0  0  0  0  0  0  0  0  0  0
   25.8044  -18.6947  -17.3566 N   0  0  0  0  0  0  0  0  0  0  0  0
   26.7471  -19.1757  -16.5233 C   0  0  0  0  0  0  0  0  0  0  0  0
   28.0005  -19.7008  -16.7540 C   0  0  0  0  0  0  0  0  0  0  0  0
   28.7855  -20.1077  -15.6913 C   0  0  0  0  0  0  0  0  0  0  0  0
   28.2622  -19.9642  -14.4218 C   0  0  0  0  0  0  0  0  0  0  0  0
   27.0093  -19.4402  -14.1913 C   0  0  0  0  0  0  0  0  0  0  0  0
   26.2190  -19.0324  -15.2464 C   0  0  0  0  0  0  0  0  0  0  0  0
   22.0321  -19.5172  -15.0100 C   0  0  0  0  0  0  0  0  0  0  0  0
   21.9189  -20.6690  -15.7580 O   0  0  0  0  0  0  0  0  0  0  0  0
   21.1845  -18.6111  -15.2642 O   0  0  0  0  0  0  0  0  0  0  0  0
  2  1  1  0
  3  2  2  0
  4  3  1  0
  5 11  1  0
  5  4  2  0
  6  5  1  0
  7  8  1  6
  7  6  1  0
  9  7  1  0
  9 10  2  0
 11 12  2  0
 12  2  1  0
 14 13  1  0
 15 14  2  0
 16 14  1  0
 16 17  1  0
 18 17  1  1
 18 19  1  0
 18 20  1  0
 19  9  1  0
 20 21  2  0
 20 22  1  0
 22 23  1  0
 23 34  1  0
 24 25  1  0
 23 24  1  6
 25 33  1  0
 25 26  2  0
 26 27  1  0
 28 27  1  0
 28 29  2  0
 30 29  1  0
 31 30  2  0
 32 31  1  0
 32 33  2  0
 33 28  1  0
 34 36  2  0
 34 35  1  0
M  END
$$$$
