YQW.pdb
     RDKit          3D

 36 38  0  0  1  0  0  0  0  0999 V2000
   29.4423  -14.6168  -21.2075 O   0  0  0  0  0  0  0  0  0  0  0  0
   28.5076  -15.4487  -20.5964 C   0  0  0  0  0  0  0  0  0  0  0  0
   28.4038  -15.5477  -19.2239 C   0  0  0  0  0  0  0  0  0  0  0  0
   27.4621  -16.3852  -18.6671 C   0  0  0  0  0  0  0  0  0  0  0  0
   26.5958  -17.1495  -19.4182 C   0  0  0  0  0  0  0  0  0  0  0  0
   25.5960  -18.0472  -18.8258 C   0  0  0  0  0  0  0  0  0  0  0  0
   26.0947  -19.4225  -18.5039 C   0  0  2  0  0  0  0  0  0  0  0  0
   26.1893  -20.1350  -19.7833 N   0  0  0  0  0  0  0  0  0  0  0  0
   25.1527  -20.1641  -17.6428 C   0  0  0  0  0  0  0  0  0  0  0  0
   24.2813  -20.9200  -18.1465 O   0  0  0  0  0  0  0  0  0  0  0  0
   26.7149  -17.0366  -20.8044 C   0  0  0  0  0  0  0  0  0  0  0  0
   27.6514  -16.2034  -21.3727 C   0  0  0  0  0  0  0  0  0  0  0  0
   25.0914  -24.2750  -14.5378 N   0  0  0  0  0  0  0  0  0  0  0  0
   24.1903  -23.7713  -13.5683 C   0  0  0  0  0  0  0  0  0  0  0  0
   23.5431  -24.5667  -12.8551 O   0  0  0  0  0  0  0  0  0  0  0  0
   24.0019  -22.3188  -13.3778 C   0  0  0  0  0  0  0  0  0  0  0  0
   24.9000  -21.4580  -14.1818 C   0  0  0  0  0  0  0  0  0  0  0  0
   24.3324  -20.7949  -15.3798 C   0  0  2  0  0  0  0  0  0  0  0  0
   25.1965  -20.0504  -16.2180 N   0  0  0  0  0  0  0  0  0  0  0  0
   23.1845  -19.9135  -15.0018 C   0  0  0  0  0  0  0  0  0  0  0  0
   23.3609  -18.8145  -14.4220 O   0  0  0  0  0  0  0  0  0  0  0  0
   21.8660  -20.3139  -15.2987 N   0  0  0  0  0  0  0  0  0  0  0  0
   20.7527  -19.4965  -14.8322 C   0  0  1  0  0  0  0  0  0  0  0  0
   19.9908  -19.1285  -16.0771 C   0  0  0  0  0  0  0  0  0  0  0  0
   20.6978  -18.1269  -16.8847 C   0  0  0  0  0  0  0  0  0  0  0  0
   20.9661  -16.8075  -16.4830 C   0  0  0  0  0  0  0  0  0  0  0  0
   21.5923  -16.1617  -17.4676 N   0  0  0  0  0  0  0  0  0  0  0  0
   21.7705  -16.9708  -18.5298 C   0  0  0  0  0  0  0  0  0  0  0  0
   22.3699  -16.7666  -19.7541 C   0  0  0  0  0  0  0  0  0  0  0  0
   22.4352  -17.7981  -20.6722 C   0  0  0  0  0  0  0  0  0  0  0  0
   21.8836  -19.0102  -20.3079 C   0  0  0  0  0  0  0  0  0  0  0  0
   21.2840  -19.2141  -19.0846 C   0  0  0  0  0  0  0  0  0  0  0  0
   21.2138  -18.1896  -18.1629 C   0  0  0  0  0  0  0  0  0  0  0  0
   19.9865  -20.1530  -13.7780 C   0  0  0  0  0  0  0  0  0  0  0  0
   18.9054  -19.6011  -13.1255 O   0  0  0  0  0  0  0  0  0  0  0  0
   20.3169  -21.3179  -13.4064 O   0  0  0  0  0  0  0  0  0  0  0  0
  2  1  1  0
  3  2  2  0
  4  3  1  0
  5 11  1  0
  5  4  2  0
  6  5  1  0
  7  8  1  6
  7  6  1  0
  9  7  1  0
  9 10  2  0
 11 12  2  0
 12  2  1  0
 14 13  1  0
 15 14  2  0
 16 14  1  0
 16 17  1  0
 18 17  1  1
 18 19  1  0
 18 20  1  0
 19  9  1  0
 20 21  2  0
 20 22  1  0
 22 23  1  0
 23 34  1  0
 24 25  1  0
 23 24  1  6
 25 33  1  0
 25 26  2  0
 26 27  1  0
 28 27  1  0
 28 29  2  0
 30 29  1  0
 31 30  2  0
 32 31  1  0
 32 33  2  0
 33 28  1  0
 34 36  2  0
 34 35  1  0
M  END
$$$$
