YQW.pdb
     RDKit          3D

 36 38  0  0  1  0  0  0  0  0999 V2000
   30.5288  -16.5478  -19.6505 O   0  0  0  0  0  0  0  0  0  0  0  0
   29.6166  -17.1649  -18.7983 C   0  0  0  0  0  0  0  0  0  0  0  0
   29.9455  -17.5143  -17.5045 C   0  0  0  0  0  0  0  0  0  0  0  0
   29.0072  -18.1231  -16.7001 C   0  0  0  0  0  0  0  0  0  0  0  0
   27.7273  -18.4115  -17.1213 C   0  0  0  0  0  0  0  0  0  0  0  0
   26.7284  -19.0661  -16.2668 C   0  0  0  0  0  0  0  0  0  0  0  0
   27.1166  -20.4246  -15.7693 C   0  0  2  0  0  0  0  0  0  0  0  0
   27.0736  -21.3163  -16.9339 N   0  0  0  0  0  0  0  0  0  0  0  0
   26.1606  -20.9407  -14.7700 C   0  0  0  0  0  0  0  0  0  0  0  0
   25.2095  -21.6884  -15.1177 O   0  0  0  0  0  0  0  0  0  0  0  0
   27.4122  -18.0511  -18.4326 C   0  0  0  0  0  0  0  0  0  0  0  0
   28.3407  -17.4422  -19.2459 C   0  0  0  0  0  0  0  0  0  0  0  0
   26.2838  -20.7298   -8.2265 N   0  0  0  0  0  0  0  0  0  0  0  0
   25.0569  -21.3305   -8.6002 C   0  0  0  0  0  0  0  0  0  0  0  0
   24.2913  -21.7712   -7.7170 O   0  0  0  0  0  0  0  0  0  0  0  0
   24.6588  -21.4435  -10.0180 C   0  0  0  0  0  0  0  0  0  0  0  0
   25.6663  -20.9665  -10.9934 C   0  0  0  0  0  0  0  0  0  0  0  0
   25.3120  -21.0125  -12.4320 C   0  0  2  0  0  0  0  0  0  0  0  0
   26.2803  -20.6119  -13.3835 N   0  0  0  0  0  0  0  0  0  0  0  0
   24.0604  -20.2361  -12.6928 C   0  0  0  0  0  0  0  0  0  0  0  0
   24.0425  -18.9819  -12.6513 O   0  0  0  0  0  0  0  0  0  0  0  0
   22.8636  -20.9166  -12.9952 N   0  0  0  0  0  0  0  0  0  0  0  0
   21.6419  -20.1486  -13.2023 C   0  0  1  0  0  0  0  0  0  0  0  0
   21.9652  -19.1964  -14.3223 C   0  0  0  0  0  0  0  0  0  0  0  0
   21.7633  -19.8045  -15.6432 C   0  0  0  0  0  0  0  0  0  0  0  0
   20.8531  -20.8363  -15.9276 C   0  0  0  0  0  0  0  0  0  0  0  0
   20.9510  -21.1733  -17.2143 N   0  0  0  0  0  0  0  0  0  0  0  0
   21.8840  -20.4241  -17.8330 C   0  0  0  0  0  0  0  0  0  0  0  0
   22.3235  -20.3922  -19.1391 C   0  0  0  0  0  0  0  0  0  0  0  0
   23.2997  -19.4896  -19.5178 C   0  0  0  0  0  0  0  0  0  0  0  0
   23.7973  -18.6450  -18.5456 C   0  0  0  0  0  0  0  0  0  0  0  0
   23.3586  -18.6774  -17.2402 C   0  0  0  0  0  0  0  0  0  0  0  0
   22.3852  -19.5757  -16.8536 C   0  0  0  0  0  0  0  0  0  0  0  0
   20.4762  -21.0040  -13.3998 C   0  0  0  0  0  0  0  0  0  0  0  0
   19.1657  -20.5931  -13.2872 O   0  0  0  0  0  0  0  0  0  0  0  0
   20.6464  -22.2243  -13.6932 O   0  0  0  0  0  0  0  0  0  0  0  0
  2  1  1  0
  3  2  2  0
  4  3  1  0
  5 11  1  0
  5  4  2  0
  6  5  1  0
  7  8  1  6
  7  6  1  0
  9  7  1  0
  9 10  2  0
 11 12  2  0
 12  2  1  0
 14 13  1  0
 15 14  2  0
 16 14  1  0
 16 17  1  0
 18 17  1  1
 18 19  1  0
 18 20  1  0
 19  9  1  0
 20 21  2  0
 20 22  1  0
 22 23  1  0
 23 34  1  0
 24 25  1  0
 23 24  1  6
 25 33  1  0
 25 26  2  0
 26 27  1  0
 28 27  1  0
 28 29  2  0
 30 29  1  0
 31 30  2  0
 32 31  1  0
 32 33  2  0
 33 28  1  0
 34 36  2  0
 34 35  1  0
M  END
$$$$
