YQW.pdb
     RDKit          3D

 36 38  0  0  1  0  0  0  0  0999 V2000
   20.6785  -22.0909   -7.6561 O   0  0  0  0  0  0  0  0  0  0  0  0
   21.5420  -21.6632   -8.6614 C   0  0  0  0  0  0  0  0  0  0  0  0
   22.7223  -21.0057   -8.3808 C   0  0  0  0  0  0  0  0  0  0  0  0
   23.5432  -20.6025   -9.4112 C   0  0  0  0  0  0  0  0  0  0  0  0
   23.2482  -20.8221  -10.7392 C   0  0  0  0  0  0  0  0  0  0  0  0
   24.1194  -20.3872  -11.8384 C   0  0  0  0  0  0  0  0  0  0  0  0
   24.7761  -21.4973  -12.6002 C   0  0  2  0  0  0  0  0  0  0  0  0
   25.7338  -22.1179  -11.6778 N   0  0  0  0  0  0  0  0  0  0  0  0
   25.5313  -20.9963  -13.7653 C   0  0  0  0  0  0  0  0  0  0  0  0
   26.6231  -20.3894  -13.6101 O   0  0  0  0  0  0  0  0  0  0  0  0
   22.0506  -21.4884  -11.0043 C   0  0  0  0  0  0  0  0  0  0  0  0
   21.2222  -21.8964   -9.9838 C   0  0  0  0  0  0  0  0  0  0  0  0
   26.0791  -24.1919  -18.2497 N   0  0  0  0  0  0  0  0  0  0  0  0
   26.6550  -24.2473  -16.9570 C   0  0  0  0  0  0  0  0  0  0  0  0
   26.9093  -25.3564  -16.4417 O   0  0  0  0  0  0  0  0  0  0  0  0
   26.9674  -23.0162  -16.2033 C   0  0  0  0  0  0  0  0  0  0  0  0
   26.6663  -21.7515  -16.9131 C   0  0  0  0  0  0  0  0  0  0  0  0
   25.7989  -20.7637  -16.2282 C   0  0  2  0  0  0  0  0  0  0  0  0
   25.0528  -21.1811  -15.1001 N   0  0  0  0  0  0  0  0  0  0  0  0
   24.8528  -20.1296  -17.1979 C   0  0  0  0  0  0  0  0  0  0  0  0
   23.6200  -20.3625  -17.1636 O   0  0  0  0  0  0  0  0  0  0  0  0
   25.3435  -19.2454  -18.1798 N   0  0  0  0  0  0  0  0  0  0  0  0
   24.4273  -18.7182  -19.1837 C   0  0  1  0  0  0  0  0  0  0  0  0
   23.8042  -17.5061  -18.5446 C   0  0  0  0  0  0  0  0  0  0  0  0
   22.7337  -16.9326  -19.3696 C   0  0  0  0  0  0  0  0  0  0  0  0
   21.3694  -17.2485  -19.2575 C   0  0  0  0  0  0  0  0  0  0  0  0
   20.6799  -16.5746  -20.1790 N   0  0  0  0  0  0  0  0  0  0  0  0
   21.5013  -15.8078  -20.9218 C   0  0  0  0  0  0  0  0  0  0  0  0
   21.2593  -14.9375  -21.9630 C   0  0  0  0  0  0  0  0  0  0  0  0
   22.3066  -14.2473  -22.5442 C   0  0  0  0  0  0  0  0  0  0  0  0
   23.5727  -14.4695  -22.0406 C   0  0  0  0  0  0  0  0  0  0  0  0
   23.8147  -15.3397  -21.0005 C   0  0  0  0  0  0  0  0  0  0  0  0
   22.7752  -16.0332  -20.4153 C   0  0  0  0  0  0  0  0  0  0  0  0
   25.0794  -18.5043  -20.4715 C   0  0  0  0  0  0  0  0  0  0  0  0
   24.5053  -18.7527  -21.6994 O   0  0  0  0  0  0  0  0  0  0  0  0
   26.2660  -18.0623  -20.4988 O   0  0  0  0  0  0  0  0  0  0  0  0
  2  1  1  0
  3  2  2  0
  4  3  1  0
  5 11  1  0
  5  4  2  0
  6  5  1  0
  7  8  1  1
  7  6  1  0
  9  7  1  0
  9 10  2  0
 11 12  2  0
 12  2  1  0
 14 13  1  0
 15 14  2  0
 16 14  1  0
 16 17  1  0
 18 17  1  6
 18 19  1  0
 18 20  1  0
 19  9  1  0
 20 21  2  0
 20 22  1  0
 22 23  1  0
 23 34  1  0
 24 25  1  0
 23 24  1  1
 25 33  1  0
 25 26  2  0
 26 27  1  0
 28 27  1  0
 28 29  2  0
 30 29  1  0
 31 30  2  0
 32 31  1  0
 32 33  2  0
 33 28  1  0
 34 36  2  0
 34 35  1  0
M  END
$$$$
