KYK.pdb
     RDKit          3D

 31 31  0  0  1  0  0  0  0  0999 V2000
    8.3707  -16.7842   18.9929 N   0  0  0  0  0  0  0  0  0  0  0  0
    9.6972  -16.5625   19.4633 C   0  0  1  0  0  0  0  0  0  0  0  0
   10.5550  -15.8272   18.4961 C   0  0  0  0  0  0  0  0  0  0  0  0
   10.0036  -15.6972   17.1180 C   0  0  0  0  0  0  0  0  0  0  0  0
    9.1248  -14.5209   16.8658 C   0  0  0  0  0  0  0  0  0  0  0  0
    8.8774  -14.4435   15.3494 C   0  0  0  0  0  0  0  0  0  0  0  0
    8.0388  -13.2898   15.0875 N   0  0  0  0  0  0  0  0  0  0  0  0
    9.6873  -15.9439   20.8140 C   0  0  0  0  0  0  0  0  0  0  0  0
   10.7889  -15.6589   21.3368 O   0  0  0  0  0  0  0  0  0  0  0  0
    7.1327  -11.8203   28.2366 O   0  0  0  0  0  0  0  0  0  0  0  0
    7.1279  -12.4279   26.9811 C   0  0  0  0  0  0  0  0  0  0  0  0
    7.8456  -11.9049   25.9268 C   0  0  0  0  0  0  0  0  0  0  0  0
    7.8304  -12.5169   24.6926 C   0  0  0  0  0  0  0  0  0  0  0  0
    7.0983  -13.6861   24.4388 C   0  0  0  0  0  0  0  0  0  0  0  0
    7.1617  -14.2591   23.0790 C   0  0  0  0  0  0  0  0  0  0  0  0
    8.3812  -15.1256   22.8383 C   0  0  2  0  0  0  0  0  0  0  0  0
    8.4951  -15.6678   21.5236 N   0  0  0  0  0  0  0  0  0  0  0  0
    8.5546  -16.0975   23.9345 C   0  0  0  0  0  0  0  0  0  0  0  0
    7.6194  -16.9456   24.0783 O   0  0  0  0  0  0  0  0  0  0  0  0
    6.3890  -14.1954   25.4972 C   0  0  0  0  0  0  0  0  0  0  0  0
    6.4022  -13.5753   26.7539 C   0  0  0  0  0  0  0  0  0  0  0  0
    9.6754  -16.1174   24.7927 N   0  0  0  0  0  0  0  0  0  0  0  0
    9.7991  -17.1633   25.7881 C   0  0  1  0  0  0  0  0  0  0  0  0
   10.9897  -17.9922   25.4515 C   0  0  0  0  0  0  0  0  0  0  0  0
   11.2577  -19.1225   26.3850 C   0  0  0  0  0  0  0  0  0  0  0  0
   12.4701  -19.9060   25.9239 C   0  0  0  0  0  0  0  0  0  0  0  0
   12.7828  -21.0375   26.9026 C   0  0  0  0  0  0  0  0  0  0  0  0
   13.8278  -21.8337   26.2586 N   0  0  0  0  0  0  0  0  0  0  0  0
    9.8650  -16.5279   27.1295 C   0  0  0  0  0  0  0  0  0  0  0  0
    9.8545  -17.2754   28.1365 O   0  0  0  0  0  0  0  0  0  0  0  0
    9.9357  -15.1665   27.3388 O   0  0  0  0  0  0  0  0  0  0  0  0
  2  1  1  6
  3  2  1  0
  4  3  1  0
  5  4  1  0
  6  5  1  0
  7  6  1  0
  8  2  1  0
  8  9  2  0
 10 11  1  0
 11 12  2  0
 12 13  1  0
 14 13  2  0
 14 15  1  0
 16 15  1  6
 16 17  1  0
 17  8  1  0
 18 16  1  0
 19 18  2  0
 20 14  1  0
 21 11  1  0
 21 20  2  0
 22 18  1  0
 23 24  1  6
 23 22  1  0
 24 25  1  0
 25 26  1  0
 26 27  1  0
 27 28  1  0
 29 23  1  0
 30 29  2  0
 31 29  1  0
M  END
$$$$
