KYK.pdb
     RDKit          3D

 31 31  0  0  1  0  0  0  0  0999 V2000
    9.7066  -16.8460   18.4882 N   0  0  0  0  0  0  0  0  0  0  0  0
    8.6012  -16.8968   19.3857 C   0  0  1  0  0  0  0  0  0  0  0  0
    8.0891  -18.2735   19.6195 C   0  0  0  0  0  0  0  0  0  0  0  0
    7.4629  -18.9349   18.4404 C   0  0  0  0  0  0  0  0  0  0  0  0
    6.9368  -20.3118   18.6568 C   0  0  0  0  0  0  0  0  0  0  0  0
    6.3300  -20.7909   17.3268 C   0  0  0  0  0  0  0  0  0  0  0  0
    7.4185  -21.1141   16.4248 N   0  0  0  0  0  0  0  0  0  0  0  0
    8.9041  -16.1707   20.6459 C   0  0  0  0  0  0  0  0  0  0  0  0
   10.0660  -16.2527   21.1054 O   0  0  0  0  0  0  0  0  0  0  0  0
    7.2533  -12.1036   28.4737 O   0  0  0  0  0  0  0  0  0  0  0  0
    7.1773  -12.5577   27.1570 C   0  0  0  0  0  0  0  0  0  0  0  0
    6.3324  -13.5866   26.7993 C   0  0  0  0  0  0  0  0  0  0  0  0
    6.2690  -14.0237   25.4944 C   0  0  0  0  0  0  0  0  0  0  0  0
    7.0447  -13.4599   24.4708 C   0  0  0  0  0  0  0  0  0  0  0  0
    6.8889  -14.0039   23.1066 C   0  0  0  0  0  0  0  0  0  0  0  0
    8.0542  -14.8604   22.6544 C   0  0  2  0  0  0  0  0  0  0  0  0
    7.9414  -15.3995   21.3384 N   0  0  0  0  0  0  0  0  0  0  0  0
    8.4233  -15.8326   23.7007 C   0  0  0  0  0  0  0  0  0  0  0  0
    7.5763  -16.7522   23.9285 O   0  0  0  0  0  0  0  0  0  0  0  0
    7.8807  -12.4369   24.8413 C   0  0  0  0  0  0  0  0  0  0  0  0
    7.9478  -11.9898   26.1678 C   0  0  0  0  0  0  0  0  0  0  0  0
    9.6328  -15.7796   24.4269 N   0  0  0  0  0  0  0  0  0  0  0  0
    9.9479  -16.8293   25.3749 C   0  0  1  0  0  0  0  0  0  0  0  0
   11.1694  -17.5374   24.9013 C   0  0  0  0  0  0  0  0  0  0  0  0
   11.0488  -18.1801   23.5621 C   0  0  0  0  0  0  0  0  0  0  0  0
   12.3398  -18.8875   23.2028 C   0  0  0  0  0  0  0  0  0  0  0  0
   12.2911  -19.3956   21.7622 C   0  0  0  0  0  0  0  0  0  0  0  0
   13.5892  -20.0283   21.5268 N   0  0  0  0  0  0  0  0  0  0  0  0
   10.0881  -16.2177   26.7216 C   0  0  0  0  0  0  0  0  0  0  0  0
    9.7905  -16.9164   27.7197 O   0  0  0  0  0  0  0  0  0  0  0  0
   10.5238  -14.9284   26.9450 O   0  0  0  0  0  0  0  0  0  0  0  0
  2  1  1  6
  3  2  1  0
  4  3  1  0
  5  4  1  0
  6  5  1  0
  7  6  1  0
  8  2  1  0
  8  9  2  0
 10 11  1  0
 11 12  2  0
 12 13  1  0
 14 13  2  0
 14 15  1  0
 16 15  1  1
 16 17  1  0
 17  8  1  0
 18 16  1  0
 19 18  2  0
 20 14  1  0
 21 11  1  0
 21 20  2  0
 22 18  1  0
 23 24  1  6
 23 22  1  0
 24 25  1  0
 25 26  1  0
 26 27  1  0
 27 28  1  0
 29 23  1  0
 30 29  2  0
 31 29  1  0
M  END
$$$$
