KYK.pdb
     RDKit          3D

 31 31  0  0  1  0  0  0  0  0999 V2000
    8.7674  -20.9820   17.1549 N   0  0  0  0  0  0  0  0  0  0  0  0
    9.5638  -19.8013   17.1156 C   0  0  1  0  0  0  0  0  0  0  0  0
    8.8109  -18.5910   16.6908 C   0  0  0  0  0  0  0  0  0  0  0  0
    8.3664  -18.5770   15.2688 C   0  0  0  0  0  0  0  0  0  0  0  0
    7.5304  -17.4176   14.8488 C   0  0  0  0  0  0  0  0  0  0  0  0
    7.1080  -17.6551   13.3887 C   0  0  0  0  0  0  0  0  0  0  0  0
    6.1640  -16.6187   13.0180 N   0  0  0  0  0  0  0  0  0  0  0  0
   10.2945  -19.6084   18.3946 C   0  0  0  0  0  0  0  0  0  0  0  0
    9.8298  -18.7869   19.2176 O   0  0  0  0  0  0  0  0  0  0  0  0
    6.6692  -22.5311   22.5319 O   0  0  0  0  0  0  0  0  0  0  0  0
    7.9729  -22.3020   22.0923 C   0  0  0  0  0  0  0  0  0  0  0  0
    8.8552  -21.5384   22.8264 C   0  0  0  0  0  0  0  0  0  0  0  0
   10.1398  -21.3214   22.3783 C   0  0  0  0  0  0  0  0  0  0  0  0
   10.6186  -21.8534   21.1720 C   0  0  0  0  0  0  0  0  0  0  0  0
   12.0163  -21.5613   20.7948 C   0  0  0  0  0  0  0  0  0  0  0  0
   12.1737  -20.3054   19.9618 C   0  0  2  0  0  0  0  0  0  0  0  0
   11.4810  -20.3091   18.7146 N   0  0  0  0  0  0  0  0  0  0  0  0
   13.5907  -19.9014   19.8907 C   0  0  0  0  0  0  0  0  0  0  0  0
   14.2472  -20.3493   18.8991 O   0  0  0  0  0  0  0  0  0  0  0  0
    9.7297  -22.6113   20.4522 C   0  0  0  0  0  0  0  0  0  0  0  0
    8.4223  -22.8340   20.9049 C   0  0  0  0  0  0  0  0  0  0  0  0
   14.2164  -19.0701   20.8449 N   0  0  0  0  0  0  0  0  0  0  0  0
   15.6365  -18.8007   20.7415 C   0  0  1  0  0  0  0  0  0  0  0  0
   16.0052  -17.8176   21.7976 C   0  0  0  0  0  0  0  0  0  0  0  0
   17.4588  -17.5020   21.8882 C   0  0  0  0  0  0  0  0  0  0  0  0
   17.6976  -16.4299   22.9322 C   0  0  0  0  0  0  0  0  0  0  0  0
   19.1722  -16.0291   22.9633 C   0  0  0  0  0  0  0  0  0  0  0  0
   19.2638  -14.9521   23.9494 N   0  0  0  0  0  0  0  0  0  0  0  0
   16.3663  -20.0914   20.8364 C   0  0  0  0  0  0  0  0  0  0  0  0
   17.3825  -20.2477   20.1183 O   0  0  0  0  0  0  0  0  0  0  0  0
   15.9964  -21.1311   21.6638 O   0  0  0  0  0  0  0  0  0  0  0  0
  2  1  1  1
  3  2  1  0
  4  3  1  0
  5  4  1  0
  6  5  1  0
  7  6  1  0
  8  2  1  0
  8  9  2  0
 10 11  1  0
 11 12  2  0
 12 13  1  0
 14 13  2  0
 14 15  1  0
 16 15  1  6
 16 17  1  0
 17  8  1  0
 18 16  1  0
 19 18  2  0
 20 14  1  0
 21 11  1  0
 21 20  2  0
 22 18  1  0
 23 24  1  1
 23 22  1  0
 24 25  1  0
 25 26  1  0
 26 27  1  0
 27 28  1  0
 29 23  1  0
 30 29  2  0
 31 29  1  0
M  END
$$$$
