KYK.pdb
     RDKit          3D

 31 31  0  0  1  0  0  0  0  0999 V2000
    8.8478  -17.6387   19.8904 N   0  0  0  0  0  0  0  0  0  0  0  0
   10.1433  -17.3535   20.4102 C   0  0  1  0  0  0  0  0  0  0  0  0
   11.0879  -16.8219   19.3917 C   0  0  0  0  0  0  0  0  0  0  0  0
   11.5356  -17.7982   18.3591 C   0  0  0  0  0  0  0  0  0  0  0  0
   13.0077  -17.9535   18.1903 C   0  0  0  0  0  0  0  0  0  0  0  0
   13.2405  -19.0388   17.1251 C   0  0  0  0  0  0  0  0  0  0  0  0
   14.6602  -19.0879   16.8340 N   0  0  0  0  0  0  0  0  0  0  0  0
   10.0553  -16.4963   21.6204 C   0  0  0  0  0  0  0  0  0  0  0  0
   11.1087  -16.2744   22.2601 O   0  0  0  0  0  0  0  0  0  0  0  0
    6.5252  -11.4038   28.1021 O   0  0  0  0  0  0  0  0  0  0  0  0
    6.7491  -12.1003   26.9145 C   0  0  0  0  0  0  0  0  0  0  0  0
    6.0828  -13.2738   26.6331 C   0  0  0  0  0  0  0  0  0  0  0  0
    6.3152  -13.9501   25.4556 C   0  0  0  0  0  0  0  0  0  0  0  0
    7.2258  -13.4949   24.4906 C   0  0  0  0  0  0  0  0  0  0  0  0
    7.3888  -14.2978   23.2618 C   0  0  0  0  0  0  0  0  0  0  0  0
    8.6402  -15.1521   23.2526 C   0  0  2  0  0  0  0  0  0  0  0  0
    8.8413  -15.9279   22.0723 N   0  0  0  0  0  0  0  0  0  0  0  0
    8.7743  -15.8936   24.5208 C   0  0  0  0  0  0  0  0  0  0  0  0
    7.9289  -16.8225   24.7134 O   0  0  0  0  0  0  0  0  0  0  0  0
    7.8814  -12.3258   24.7840 C   0  0  0  0  0  0  0  0  0  0  0  0
    7.6474  -11.6354   25.9809 C   0  0  0  0  0  0  0  0  0  0  0  0
    9.7667  -15.6192   25.4867 N   0  0  0  0  0  0  0  0  0  0  0  0
    9.9717  -16.5396   26.5871 C   0  0  1  0  0  0  0  0  0  0  0  0
   10.9003  -17.6121   26.1342 C   0  0  0  0  0  0  0  0  0  0  0  0
   11.1979  -18.6615   27.1497 C   0  0  0  0  0  0  0  0  0  0  0  0
   12.1448  -19.6945   26.5729 C   0  0  0  0  0  0  0  0  0  0  0  0
   12.5304  -20.7228   27.6360 C   0  0  0  0  0  0  0  0  0  0  0  0
   13.3004  -21.7462   26.9286 N   0  0  0  0  0  0  0  0  0  0  0  0
   10.4645  -15.7682   27.7574 C   0  0  0  0  0  0  0  0  0  0  0  0
    9.9365  -15.9894   28.8732 O   0  0  0  0  0  0  0  0  0  0  0  0
   11.4661  -14.8221   27.6950 O   0  0  0  0  0  0  0  0  0  0  0  0
  2  1  1  6
  3  2  1  0
  4  3  1  0
  5  4  1  0
  6  5  1  0
  7  6  1  0
  8  2  1  0
  8  9  2  0
 10 11  1  0
 11 12  2  0
 12 13  1  0
 14 13  2  0
 14 15  1  0
 16 15  1  6
 16 17  1  0
 17  8  1  0
 18 16  1  0
 19 18  2  0
 20 14  1  0
 21 11  1  0
 21 20  2  0
 22 18  1  0
 23 24  1  6
 23 22  1  0
 24 25  1  0
 25 26  1  0
 26 27  1  0
 27 28  1  0
 29 23  1  0
 30 29  2  0
 31 29  1  0
M  END
$$$$
