KYK.pdb
     RDKit          3D

 31 31  0  0  1  0  0  0  0  0999 V2000
   10.2281  -16.9175   19.0645 N   0  0  0  0  0  0  0  0  0  0  0  0
    9.0503  -16.8077   19.8587 C   0  0  1  0  0  0  0  0  0  0  0  0
    8.2721  -18.0723   19.9447 C   0  0  0  0  0  0  0  0  0  0  0  0
    8.2657  -18.9078   18.7111 C   0  0  0  0  0  0  0  0  0  0  0  0
    6.9278  -19.2756   18.1688 C   0  0  0  0  0  0  0  0  0  0  0  0
    7.1563  -20.1540   16.9267 C   0  0  0  0  0  0  0  0  0  0  0  0
    5.8720  -20.3825   16.2933 N   0  0  0  0  0  0  0  0  0  0  0  0
    9.3581  -16.2264   21.1908 C   0  0  0  0  0  0  0  0  0  0  0  0
   10.4034  -16.6034   21.7681 O   0  0  0  0  0  0  0  0  0  0  0  0
    7.7018  -12.0804   29.0144 O   0  0  0  0  0  0  0  0  0  0  0  0
    7.7019  -12.4827   27.6788 C   0  0  0  0  0  0  0  0  0  0  0  0
    6.5327  -12.8142   27.0281 C   0  0  0  0  0  0  0  0  0  0  0  0
    6.5495  -13.2098   25.7086 C   0  0  0  0  0  0  0  0  0  0  0  0
    7.7336  -13.2976   24.9618 C   0  0  0  0  0  0  0  0  0  0  0  0
    7.6309  -13.7263   23.5522 C   0  0  0  0  0  0  0  0  0  0  0  0
    8.6058  -14.8235   23.1756 C   0  0  2  0  0  0  0  0  0  0  0  0
    8.5252  -15.2746   21.8245 N   0  0  0  0  0  0  0  0  0  0  0  0
    8.6081  -15.8908   24.1939 C   0  0  0  0  0  0  0  0  0  0  0  0
    7.5088  -16.5075   24.3551 O   0  0  0  0  0  0  0  0  0  0  0  0
    8.8892  -12.9645   25.6222 C   0  0  0  0  0  0  0  0  0  0  0  0
    8.8758  -12.5617   26.9644 C   0  0  0  0  0  0  0  0  0  0  0  0
    9.7405  -16.2363   24.9629 N   0  0  0  0  0  0  0  0  0  0  0  0
    9.6825  -17.3778   25.8538 C   0  0  1  0  0  0  0  0  0  0  0  0
   10.2801  -18.5490   25.1547 C   0  0  0  0  0  0  0  0  0  0  0  0
   11.7405  -18.4424   24.8772 C   0  0  0  0  0  0  0  0  0  0  0  0
   12.2387  -19.7046   24.2028 C   0  0  0  0  0  0  0  0  0  0  0  0
   13.7554  -19.6537   24.0206 C   0  0  0  0  0  0  0  0  0  0  0  0
   14.1291  -20.9637   23.4868 N   0  0  0  0  0  0  0  0  0  0  0  0
   10.3672  -17.0174   27.1222 C   0  0  0  0  0  0  0  0  0  0  0  0
   10.4063  -17.8764   28.0351 O   0  0  0  0  0  0  0  0  0  0  0  0
   10.9622  -15.7963   27.3610 O   0  0  0  0  0  0  0  0  0  0  0  0
  2  1  1  1
  3  2  1  0
  4  3  1  0
  5  4  1  0
  6  5  1  0
  7  6  1  0
  8  2  1  0
  8  9  2  0
 10 11  1  0
 11 12  2  0
 12 13  1  0
 14 13  2  0
 14 15  1  0
 16 15  1  1
 16 17  1  0
 17  8  1  0
 18 16  1  0
 19 18  2  0
 20 14  1  0
 21 11  1  0
 21 20  2  0
 22 18  1  0
 23 24  1  6
 23 22  1  0
 24 25  1  0
 25 26  1  0
 26 27  1  0
 27 28  1  0
 29 23  1  0
 30 29  2  0
 31 29  1  0
M  END
$$$$
