KYK.pdb
     RDKit          3D

 31 31  0  0  1  0  0  0  0  0999 V2000
    8.5385  -18.9215   20.2430 N   0  0  0  0  0  0  0  0  0  0  0  0
    9.8281  -18.3163   20.2660 C   0  0  1  0  0  0  0  0  0  0  0  0
   10.2424  -17.7514   18.9540 C   0  0  0  0  0  0  0  0  0  0  0  0
    9.8283  -18.5362   17.7570 C   0  0  0  0  0  0  0  0  0  0  0  0
   10.1957  -17.9636   16.4316 C   0  0  0  0  0  0  0  0  0  0  0  0
    9.5149  -18.8213   15.3511 C   0  0  0  0  0  0  0  0  0  0  0  0
    9.9020  -18.3029   14.0534 N   0  0  0  0  0  0  0  0  0  0  0  0
    9.9375  -17.3369   21.3777 C   0  0  0  0  0  0  0  0  0  0  0  0
   11.0703  -16.8732   21.6418 O   0  0  0  0  0  0  0  0  0  0  0  0
    7.3752  -12.1337   18.3020 O   0  0  0  0  0  0  0  0  0  0  0  0
    7.4548  -12.8362   19.5044 C   0  0  0  0  0  0  0  0  0  0  0  0
    8.3811  -12.5052   20.4702 C   0  0  0  0  0  0  0  0  0  0  0  0
    8.4471  -13.2090   21.6526 C   0  0  0  0  0  0  0  0  0  0  0  0
    7.5930  -14.2839   21.9401 C   0  0  0  0  0  0  0  0  0  0  0  0
    7.7494  -14.9610   23.2433 C   0  0  0  0  0  0  0  0  0  0  0  0
    8.8316  -16.0215   23.2539 C   0  0  2  0  0  0  0  0  0  0  0  0
    8.8239  -16.9131   22.1402 N   0  0  0  0  0  0  0  0  0  0  0  0
    8.9123  -16.6706   24.5762 C   0  0  0  0  0  0  0  0  0  0  0  0
    7.8204  -17.1278   25.0382 O   0  0  0  0  0  0  0  0  0  0  0  0
    6.6763  -14.6020   20.9700 C   0  0  0  0  0  0  0  0  0  0  0  0
    6.6064  -13.8882   19.7660 C   0  0  0  0  0  0  0  0  0  0  0  0
   10.1089  -16.7962   25.3147 N   0  0  0  0  0  0  0  0  0  0  0  0
   10.2394  -17.8546   26.2960 C   0  0  1  0  0  0  0  0  0  0  0  0
   10.6783  -19.0926   25.5944 C   0  0  0  0  0  0  0  0  0  0  0  0
   10.9469  -20.2604   26.4806 C   0  0  0  0  0  0  0  0  0  0  0  0
   11.5021  -21.4149   25.6713 C   0  0  0  0  0  0  0  0  0  0  0  0
   11.8381  -22.5963   26.5810 C   0  0  0  0  0  0  0  0  0  0  0  0
   12.3171  -23.6525   25.6890 N   0  0  0  0  0  0  0  0  0  0  0  0
   11.1741  -17.3975   27.3566 C   0  0  0  0  0  0  0  0  0  0  0  0
   10.9946  -17.8221   28.5229 O   0  0  0  0  0  0  0  0  0  0  0  0
   12.2274  -16.5337   27.1407 O   0  0  0  0  0  0  0  0  0  0  0  0
  2  1  1  6
  3  2  1  0
  4  3  1  0
  5  4  1  0
  6  5  1  0
  7  6  1  0
  8  2  1  0
  8  9  2  0
 10 11  1  0
 11 12  2  0
 12 13  1  0
 14 13  2  0
 14 15  1  0
 16 15  1  1
 16 17  1  0
 17  8  1  0
 18 16  1  0
 19 18  2  0
 20 14  1  0
 21 11  1  0
 21 20  2  0
 22 18  1  0
 23 24  1  6
 23 22  1  0
 24 25  1  0
 25 26  1  0
 26 27  1  0
 27 28  1  0
 29 23  1  0
 30 29  2  0
 31 29  1  0
M  END
$$$$
