KYK.pdb
     RDKit          3D

 31 31  0  0  1  0  0  0  0  0999 V2000
    7.1632  -16.3942   19.8014 N   0  0  0  0  0  0  0  0  0  0  0  0
    8.1850  -15.4031   19.7407 C   0  0  1  0  0  0  0  0  0  0  0  0
    7.8363  -14.2429   18.8778 C   0  0  0  0  0  0  0  0  0  0  0  0
    7.6108  -14.5573   17.4389 C   0  0  0  0  0  0  0  0  0  0  0  0
    8.0548  -13.5262   16.4595 C   0  0  0  0  0  0  0  0  0  0  0  0
    7.5580  -13.9617   15.0702 C   0  0  0  0  0  0  0  0  0  0  0  0
    7.8291  -12.8858   14.1365 N   0  0  0  0  0  0  0  0  0  0  0  0
    8.6185  -15.0004   21.1034 C   0  0  0  0  0  0  0  0  0  0  0  0
    9.7344  -14.4453   21.2239 O   0  0  0  0  0  0  0  0  0  0  0  0
    8.6135  -13.4788   29.8949 O   0  0  0  0  0  0  0  0  0  0  0  0
    8.2548  -13.6612   28.5593 C   0  0  0  0  0  0  0  0  0  0  0  0
    7.6742  -14.8336   28.1249 C   0  0  0  0  0  0  0  0  0  0  0  0
    7.3257  -14.9984   26.8022 C   0  0  0  0  0  0  0  0  0  0  0  0
    7.5362  -14.0032   25.8364 C   0  0  0  0  0  0  0  0  0  0  0  0
    7.1162  -14.2871   24.4493 C   0  0  0  0  0  0  0  0  0  0  0  0
    8.1891  -14.9516   23.6107 C   0  0  2  0  0  0  0  0  0  0  0  0
    7.8282  -15.2177   22.2564 N   0  0  0  0  0  0  0  0  0  0  0  0
    8.7869  -16.0891   24.3353 C   0  0  0  0  0  0  0  0  0  0  0  0
    8.0564  -17.1229   24.4464 O   0  0  0  0  0  0  0  0  0  0  0  0
    8.1146  -12.8419   26.2832 C   0  0  0  0  0  0  0  0  0  0  0  0
    8.4704  -12.6710   27.6278 C   0  0  0  0  0  0  0  0  0  0  0  0
   10.0866  -16.0702   24.8862 N   0  0  0  0  0  0  0  0  0  0  0  0
   10.6260  -17.2695   25.4950 C   0  0  1  0  0  0  0  0  0  0  0  0
   11.8142  -17.7011   24.7077 C   0  0  0  0  0  0  0  0  0  0  0  0
   12.4975  -18.9251   25.2134 C   0  0  0  0  0  0  0  0  0  0  0  0
   13.6777  -19.2696   24.3276 C   0  0  0  0  0  0  0  0  0  0  0  0
   14.3670  -20.5413   24.8212 C   0  0  0  0  0  0  0  0  0  0  0  0
   15.4491  -20.7940   23.8694 N   0  0  0  0  0  0  0  0  0  0  0  0
   10.9200  -16.9790   26.9221 C   0  0  0  0  0  0  0  0  0  0  0  0
   11.2842  -17.9301   27.6539 O   0  0  0  0  0  0  0  0  0  0  0  0
   10.8165  -15.7287   27.4950 O   0  0  0  0  0  0  0  0  0  0  0  0
  2  1  1  1
  3  2  1  0
  4  3  1  0
  5  4  1  0
  6  5  1  0
  7  6  1  0
  8  2  1  0
  8  9  2  0
 10 11  1  0
 11 12  2  0
 12 13  1  0
 14 13  2  0
 14 15  1  0
 16 15  1  1
 16 17  1  0
 17  8  1  0
 18 16  1  0
 19 18  2  0
 20 14  1  0
 21 11  1  0
 21 20  2  0
 22 18  1  0
 23 24  1  6
 23 22  1  0
 24 25  1  0
 25 26  1  0
 26 27  1  0
 27 28  1  0
 29 23  1  0
 30 29  2  0
 31 29  1  0
M  END
$$$$
