KYK.pdb
     RDKit          3D

 31 31  0  0  1  0  0  0  0  0999 V2000
    6.4318  -15.8823   21.2749 N   0  0  0  0  0  0  0  0  0  0  0  0
    7.6280  -15.1083   21.2647 C   0  0  1  0  0  0  0  0  0  0  0  0
    7.4136  -13.6894   20.8736 C   0  0  0  0  0  0  0  0  0  0  0  0
    8.0750  -13.2649   19.6078 C   0  0  0  0  0  0  0  0  0  0  0  0
    7.1726  -12.9246   18.4723 C   0  0  0  0  0  0  0  0  0  0  0  0
    8.0550  -12.4505   17.3046 C   0  0  0  0  0  0  0  0  0  0  0  0
    7.2018  -12.2398   16.1511 N   0  0  0  0  0  0  0  0  0  0  0  0
    8.3652  -15.2497   22.5467 C   0  0  0  0  0  0  0  0  0  0  0  0
    9.4657  -14.6628   22.6584 O   0  0  0  0  0  0  0  0  0  0  0  0
    6.6421  -10.2323   26.5328 O   0  0  0  0  0  0  0  0  0  0  0  0
    6.8803  -11.6017   26.4172 C   0  0  0  0  0  0  0  0  0  0  0  0
    7.9850  -12.1904   26.9948 C   0  0  0  0  0  0  0  0  0  0  0  0
    8.2062  -13.5445   26.8714 C   0  0  0  0  0  0  0  0  0  0  0  0
    7.3384  -14.3899   26.1645 C   0  0  0  0  0  0  0  0  0  0  0  0
    7.6717  -15.8275   26.1041 C   0  0  0  0  0  0  0  0  0  0  0  0
    8.5060  -16.2102   24.8985 C   0  0  2  0  0  0  0  0  0  0  0  0
    7.8772  -16.0129   23.6332 N   0  0  0  0  0  0  0  0  0  0  0  0
    9.1237  -17.5358   25.0918 C   0  0  0  0  0  0  0  0  0  0  0  0
    8.5376  -18.5101   24.5243 O   0  0  0  0  0  0  0  0  0  0  0  0
    6.2433  -13.7905   25.5952 C   0  0  0  0  0  0  0  0  0  0  0  0
    6.0153  -12.4133   25.7187 C   0  0  0  0  0  0  0  0  0  0  0  0
   10.2933  -17.7508   25.8528 N   0  0  0  0  0  0  0  0  0  0  0  0
   10.8443  -19.0868   25.9606 C   0  0  1  0  0  0  0  0  0  0  0  0
   11.3001  -19.5163   24.6095 C   0  0  0  0  0  0  0  0  0  0  0  0
   12.3953  -18.6948   24.0206 C   0  0  0  0  0  0  0  0  0  0  0  0
   12.8905  -19.3267   22.7355 C   0  0  0  0  0  0  0  0  0  0  0  0
   13.9389  -18.4368   22.0684 C   0  0  0  0  0  0  0  0  0  0  0  0
   14.2673  -19.0989   20.8056 N   0  0  0  0  0  0  0  0  0  0  0  0
   11.9214  -19.0681   26.9839 C   0  0  0  0  0  0  0  0  0  0  0  0
   12.5412  -20.1355   27.2062 O   0  0  0  0  0  0  0  0  0  0  0  0
   12.2829  -17.9509   27.7072 O   0  0  0  0  0  0  0  0  0  0  0  0
  2  1  1  1
  3  2  1  0
  4  3  1  0
  5  4  1  0
  6  5  1  0
  7  6  1  0
  8  2  1  0
  8  9  2  0
 10 11  1  0
 11 12  2  0
 12 13  1  0
 14 13  2  0
 14 15  1  0
 16 15  1  1
 16 17  1  0
 17  8  1  0
 18 16  1  0
 19 18  2  0
 20 14  1  0
 21 11  1  0
 21 20  2  0
 22 18  1  0
 23 24  1  6
 23 22  1  0
 24 25  1  0
 25 26  1  0
 26 27  1  0
 27 28  1  0
 29 23  1  0
 30 29  2  0
 31 29  1  0
M  END
$$$$
