KYK.pdb
     RDKit          3D

 31 31  0  0  1  0  0  0  0  0999 V2000
    9.2258  -18.3008   20.0860 N   0  0  0  0  0  0  0  0  0  0  0  0
   10.0358  -17.1299   20.0326 C   0  0  1  0  0  0  0  0  0  0  0  0
   10.0124  -16.4517   18.7091 C   0  0  0  0  0  0  0  0  0  0  0  0
    9.7151  -17.3295   17.5425 C   0  0  0  0  0  0  0  0  0  0  0  0
    9.5770  -16.6515   16.2231 C   0  0  0  0  0  0  0  0  0  0  0  0
    9.1085  -17.7065   15.2062 C   0  0  0  0  0  0  0  0  0  0  0  0
    8.8389  -17.0339   13.9502 N   0  0  0  0  0  0  0  0  0  0  0  0
    9.7214  -16.2125   21.1580 C   0  0  0  0  0  0  0  0  0  0  0  0
    9.8895  -14.9847   20.9786 O   0  0  0  0  0  0  0  0  0  0  0  0
    6.3730  -11.5528   27.6617 O   0  0  0  0  0  0  0  0  0  0  0  0
    6.7097  -12.3578   26.5735 C   0  0  0  0  0  0  0  0  0  0  0  0
    7.6805  -11.9777   25.6715 C   0  0  0  0  0  0  0  0  0  0  0  0
    8.0015  -12.7840   24.6016 C   0  0  0  0  0  0  0  0  0  0  0  0
    7.3727  -14.0162   24.3695 C   0  0  0  0  0  0  0  0  0  0  0  0
    7.8029  -14.8006   23.1944 C   0  0  0  0  0  0  0  0  0  0  0  0
    8.8291  -15.8681   23.5157 C   0  0  2  0  0  0  0  0  0  0  0  0
    9.2451  -16.6677   22.4099 N   0  0  0  0  0  0  0  0  0  0  0  0
    8.4371  -16.6215   24.7219 C   0  0  0  0  0  0  0  0  0  0  0  0
    7.4285  -17.3843   24.5973 O   0  0  0  0  0  0  0  0  0  0  0  0
    6.4089  -14.3816   25.2752 C   0  0  0  0  0  0  0  0  0  0  0  0
    6.0798  -13.5637   26.3646 C   0  0  0  0  0  0  0  0  0  0  0  0
    9.1145  -16.5287   25.9571 N   0  0  0  0  0  0  0  0  0  0  0  0
    9.8326  -17.6780   26.4704 C   0  0  1  0  0  0  0  0  0  0  0  0
   10.8389  -18.0939   25.4545 C   0  0  0  0  0  0  0  0  0  0  0  0
   10.8453  -19.5482   25.1289 C   0  0  0  0  0  0  0  0  0  0  0  0
   12.0007  -19.8724   24.2036 C   0  0  0  0  0  0  0  0  0  0  0  0
   12.1050  -21.3812   23.9826 C   0  0  0  0  0  0  0  0  0  0  0  0
   13.1240  -21.5550   22.9472 N   0  0  0  0  0  0  0  0  0  0  0  0
   10.4178  -17.3150   27.7869 C   0  0  0  0  0  0  0  0  0  0  0  0
   10.5408  -16.0975   28.0613 O   0  0  0  0  0  0  0  0  0  0  0  0
   10.8364  -18.2327   28.7277 O   0  0  0  0  0  0  0  0  0  0  0  0
  2  1  1  6
  3  2  1  0
  4  3  1  0
  5  4  1  0
  6  5  1  0
  7  6  1  0
  8  2  1  0
  8  9  2  0
 10 11  1  0
 11 12  2  0
 12 13  1  0
 14 13  2  0
 14 15  1  0
 16 15  1  6
 16 17  1  0
 17  8  1  0
 18 16  1  0
 19 18  2  0
 20 14  1  0
 21 11  1  0
 21 20  2  0
 22 18  1  0
 23 24  1  6
 23 22  1  0
 24 25  1  0
 25 26  1  0
 26 27  1  0
 27 28  1  0
 29 23  1  0
 30 29  2  0
 31 29  1  0
M  END
$$$$
