KYK.pdb
     RDKit          3D

 31 31  0  0  1  0  0  0  0  0999 V2000
    8.8580  -17.1198   19.3201 N   0  0  0  0  0  0  0  0  0  0  0  0
   10.0155  -16.3115   19.5121 C   0  0  1  0  0  0  0  0  0  0  0  0
   10.3207  -15.4274   18.3557 C   0  0  0  0  0  0  0  0  0  0  0  0
    9.5591  -15.7157   17.1079 C   0  0  0  0  0  0  0  0  0  0  0  0
    8.8792  -14.5561   16.4656 C   0  0  0  0  0  0  0  0  0  0  0  0
    8.3197  -15.0363   15.1154 C   0  0  0  0  0  0  0  0  0  0  0  0
    7.5271  -13.9626   14.5480 N   0  0  0  0  0  0  0  0  0  0  0  0
    9.9435  -15.5747   20.8001 C   0  0  0  0  0  0  0  0  0  0  0  0
   10.9257  -14.8713   21.1293 O   0  0  0  0  0  0  0  0  0  0  0  0
    6.5752  -11.9315   28.2568 O   0  0  0  0  0  0  0  0  0  0  0  0
    6.7447  -12.5575   27.0218 C   0  0  0  0  0  0  0  0  0  0  0  0
    6.3100  -13.8475   26.8043 C   0  0  0  0  0  0  0  0  0  0  0  0
    6.4850  -14.4518   25.5787 C   0  0  0  0  0  0  0  0  0  0  0  0
    7.1037  -13.8043   24.4991 C   0  0  0  0  0  0  0  0  0  0  0  0
    7.2307  -14.5471   23.2290 C   0  0  0  0  0  0  0  0  0  0  0  0
    8.6512  -14.9629   22.9046 C   0  0  2  0  0  0  0  0  0  0  0  0
    8.8209  -15.6367   21.6586 N   0  0  0  0  0  0  0  0  0  0  0  0
    9.2788  -15.6231   24.0650 C   0  0  0  0  0  0  0  0  0  0  0  0
    9.3361  -14.9352   25.1319 O   0  0  0  0  0  0  0  0  0  0  0  0
    7.5309  -12.5210   24.7300 C   0  0  0  0  0  0  0  0  0  0  0  0
    7.3547  -11.9033   25.9755 C   0  0  0  0  0  0  0  0  0  0  0  0
    9.7959  -16.9364   24.0331 N   0  0  0  0  0  0  0  0  0  0  0  0
   10.5163  -17.4525   25.1797 C   0  0  1  0  0  0  0  0  0  0  0  0
    9.9159  -18.7611   25.5603 C   0  0  0  0  0  0  0  0  0  0  0  0
    9.5819  -18.9074   27.0053 C   0  0  0  0  0  0  0  0  0  0  0  0
    9.0807  -20.3094   27.2874 C   0  0  0  0  0  0  0  0  0  0  0  0
    8.6205  -20.4335   28.7395 C   0  0  0  0  0  0  0  0  0  0  0  0
    7.9898  -21.7500   28.8385 N   0  0  0  0  0  0  0  0  0  0  0  0
   11.9587  -17.5282   24.8314 C   0  0  0  0  0  0  0  0  0  0  0  0
   12.2712  -17.5473   23.6170 O   0  0  0  0  0  0  0  0  0  0  0  0
   12.9776  -17.5802   25.7595 O   0  0  0  0  0  0  0  0  0  0  0  0
  2  1  1  6
  3  2  1  0
  4  3  1  0
  5  4  1  0
  6  5  1  0
  7  6  1  0
  8  2  1  0
  8  9  2  0
 10 11  1  0
 11 12  2  0
 12 13  1  0
 14 13  2  0
 14 15  1  0
 16 15  1  1
 16 17  1  0
 17  8  1  0
 18 16  1  0
 19 18  2  0
 20 14  1  0
 21 11  1  0
 21 20  2  0
 22 18  1  0
 23 24  1  6
 23 22  1  0
 24 25  1  0
 25 26  1  0
 26 27  1  0
 27 28  1  0
 29 23  1  0
 30 29  2  0
 31 29  1  0
M  END
$$$$
