KYK.pdb
     RDKit          3D

 31 31  0  0  1  0  0  0  0  0999 V2000
    8.5519  -15.8431   18.8750 N   0  0  0  0  0  0  0  0  0  0  0  0
    7.7639  -16.1229   20.0286 C   0  0  1  0  0  0  0  0  0  0  0  0
    7.3181  -17.5393   20.1138 C   0  0  0  0  0  0  0  0  0  0  0  0
    6.4553  -18.0098   18.9939 C   0  0  0  0  0  0  0  0  0  0  0  0
    5.9841  -19.4210   19.0704 C   0  0  0  0  0  0  0  0  0  0  0  0
    5.0856  -19.6768   17.8481 C   0  0  0  0  0  0  0  0  0  0  0  0
    4.5694  -21.0286   17.9427 N   0  0  0  0  0  0  0  0  0  0  0  0
    8.4431  -15.6551   21.2643 C   0  0  0  0  0  0  0  0  0  0  0  0
    9.6903  -15.7521   21.3208 O   0  0  0  0  0  0  0  0  0  0  0  0
    9.3616  -13.3475   29.8683 O   0  0  0  0  0  0  0  0  0  0  0  0
    8.8816  -13.4995   28.5675 C   0  0  0  0  0  0  0  0  0  0  0  0
    8.0669  -14.5562   28.2210 C   0  0  0  0  0  0  0  0  0  0  0  0
    7.6010  -14.6924   26.9317 C   0  0  0  0  0  0  0  0  0  0  0  0
    7.9208  -13.7823   25.9134 C   0  0  0  0  0  0  0  0  0  0  0  0
    7.3583  -14.0241   24.5694 C   0  0  0  0  0  0  0  0  0  0  0  0
    8.2610  -14.8422   23.6683 C   0  0  2  0  0  0  0  0  0  0  0  0
    7.7430  -15.1107   22.3664 N   0  0  0  0  0  0  0  0  0  0  0  0
    8.7891  -16.0169   24.3875 C   0  0  0  0  0  0  0  0  0  0  0  0
    7.9511  -16.9392   24.6361 O   0  0  0  0  0  0  0  0  0  0  0  0
    8.7320  -12.7357   26.2727 C   0  0  0  0  0  0  0  0  0  0  0  0
    9.2078  -12.5942   27.5833 C   0  0  0  0  0  0  0  0  0  0  0  0
   10.1354  -16.1467   24.7921 N   0  0  0  0  0  0  0  0  0  0  0  0
   10.5866  -17.3825   25.3998 C   0  0  1  0  0  0  0  0  0  0  0  0
   11.7671  -17.8759   24.6378 C   0  0  0  0  0  0  0  0  0  0  0  0
   11.4860  -18.2894   23.2339 C   0  0  0  0  0  0  0  0  0  0  0  0
   12.7731  -18.6778   22.5348 C   0  0  0  0  0  0  0  0  0  0  0  0
   12.5193  -18.9463   21.0517 C   0  0  0  0  0  0  0  0  0  0  0  0
   13.8328  -19.2372   20.4768 N   0  0  0  0  0  0  0  0  0  0  0  0
   10.8600  -17.1251   26.8373 C   0  0  0  0  0  0  0  0  0  0  0  0
   11.0875  -15.9437   27.1913 O   0  0  0  0  0  0  0  0  0  0  0  0
   10.8812  -18.1039   27.8088 O   0  0  0  0  0  0  0  0  0  0  0  0
  2  1  1  6
  3  2  1  0
  4  3  1  0
  5  4  1  0
  6  5  1  0
  7  6  1  0
  8  2  1  0
  8  9  2  0
 10 11  1  0
 11 12  2  0
 12 13  1  0
 14 13  2  0
 14 15  1  0
 16 15  1  1
 16 17  1  0
 17  8  1  0
 18 16  1  0
 19 18  2  0
 20 14  1  0
 21 11  1  0
 21 20  2  0
 22 18  1  0
 23 24  1  6
 23 22  1  0
 24 25  1  0
 25 26  1  0
 26 27  1  0
 27 28  1  0
 29 23  1  0
 30 29  2  0
 31 29  1  0
M  END
$$$$
