KYK.pdb
     RDKit          3D

 31 31  0  0  1  0  0  0  0  0999 V2000
    7.7302  -16.4974   20.1231 N   0  0  0  0  0  0  0  0  0  0  0  0
    8.5931  -15.3638   20.1429 C   0  0  1  0  0  0  0  0  0  0  0  0
    7.9593  -14.1259   19.6157 C   0  0  0  0  0  0  0  0  0  0  0  0
    8.2856  -13.7892   18.2015 C   0  0  0  0  0  0  0  0  0  0  0  0
    7.1629  -13.2740   17.3686 C   0  0  0  0  0  0  0  0  0  0  0  0
    7.7274  -12.9599   15.9724 C   0  0  0  0  0  0  0  0  0  0  0  0
    6.6244  -12.5629   15.1188 N   0  0  0  0  0  0  0  0  0  0  0  0
    9.1966  -15.1769   21.4875 C   0  0  0  0  0  0  0  0  0  0  0  0
   10.4432  -15.0863   21.5635 O   0  0  0  0  0  0  0  0  0  0  0  0
    9.9062  -14.5595   30.3757 O   0  0  0  0  0  0  0  0  0  0  0  0
    9.4461  -14.4943   29.0605 C   0  0  0  0  0  0  0  0  0  0  0  0
    8.7992  -15.5598   28.4718 C   0  0  0  0  0  0  0  0  0  0  0  0
    8.3507  -15.4798   27.1717 C   0  0  0  0  0  0  0  0  0  0  0  0
    8.5216  -14.3321   26.3835 C   0  0  0  0  0  0  0  0  0  0  0  0
    7.9934  -14.3564   25.0045 C   0  0  0  0  0  0  0  0  0  0  0  0
    8.9100  -15.0426   24.0120 C   0  0  2  0  0  0  0  0  0  0  0  0
    8.4259  -15.0982   22.6711 N   0  0  0  0  0  0  0  0  0  0  0  0
    9.4006  -16.3235   24.5551 C   0  0  0  0  0  0  0  0  0  0  0  0
    8.5235  -17.2267   24.7268 O   0  0  0  0  0  0  0  0  0  0  0  0
    9.1667  -13.2796   26.9824 C   0  0  0  0  0  0  0  0  0  0  0  0
    9.6243  -13.3577   28.3047 C   0  0  0  0  0  0  0  0  0  0  0  0
   10.7529  -16.5704   24.8769 N   0  0  0  0  0  0  0  0  0  0  0  0
   11.1552  -17.8885   25.3251 C   0  0  1  0  0  0  0  0  0  0  0  0
   12.1173  -18.4467   24.3349 C   0  0  0  0  0  0  0  0  0  0  0  0
   11.4969  -19.0644   23.1289 C   0  0  0  0  0  0  0  0  0  0  0  0
   12.5718  -19.5665   22.1862 C   0  0  0  0  0  0  0  0  0  0  0  0
   11.9478  -20.1176   20.9044 C   0  0  0  0  0  0  0  0  0  0  0  0
   12.7067  -21.3281   20.5893 N   0  0  0  0  0  0  0  0  0  0  0  0
   11.7050  -17.7682   26.7001 C   0  0  0  0  0  0  0  0  0  0  0  0
   12.1027  -18.8128   27.2689 O   0  0  0  0  0  0  0  0  0  0  0  0
   11.8049  -16.5798   27.3929 O   0  0  0  0  0  0  0  0  0  0  0  0
  2  1  1  1
  3  2  1  0
  4  3  1  0
  5  4  1  0
  6  5  1  0
  7  6  1  0
  8  2  1  0
  8  9  2  0
 10 11  1  0
 11 12  2  0
 12 13  1  0
 14 13  2  0
 14 15  1  0
 16 15  1  1
 16 17  1  0
 17  8  1  0
 18 16  1  0
 19 18  2  0
 20 14  1  0
 21 11  1  0
 21 20  2  0
 22 18  1  0
 23 24  1  6
 23 22  1  0
 24 25  1  0
 25 26  1  0
 26 27  1  0
 27 28  1  0
 29 23  1  0
 30 29  2  0
 31 29  1  0
M  END
$$$$
