KYK.pdb
     RDKit          3D

 31 31  0  0  1  0  0  0  0  0999 V2000
    9.6820  -18.6815   18.2179 N   0  0  0  0  0  0  0  0  0  0  0  0
    8.7744  -18.6127   19.3141 C   0  0  1  0  0  0  0  0  0  0  0  0
    8.1801  -19.9272   19.6762 C   0  0  0  0  0  0  0  0  0  0  0  0
    8.8688  -21.1213   19.1108 C   0  0  0  0  0  0  0  0  0  0  0  0
    8.1690  -22.4265   19.2730 C   0  0  0  0  0  0  0  0  0  0  0  0
    9.0420  -23.5062   18.6105 C   0  0  0  0  0  0  0  0  0  0  0  0
    8.3568  -24.7783   18.7335 N   0  0  0  0  0  0  0  0  0  0  0  0
    9.3906  -17.9177   20.4735 C   0  0  0  0  0  0  0  0  0  0  0  0
   10.6405  -17.8637   20.5285 O   0  0  0  0  0  0  0  0  0  0  0  0
    7.6491  -11.6885   18.5445 O   0  0  0  0  0  0  0  0  0  0  0  0
    7.7824  -12.5798   19.6090 C   0  0  0  0  0  0  0  0  0  0  0  0
    8.9511  -12.6619   20.3356 C   0  0  0  0  0  0  0  0  0  0  0  0
    9.0669  -13.5477   21.3844 C   0  0  0  0  0  0  0  0  0  0  0  0
    8.0238  -14.4029   21.7691 C   0  0  0  0  0  0  0  0  0  0  0  0
    8.2579  -15.3064   22.9137 C   0  0  0  0  0  0  0  0  0  0  0  0
    9.1121  -16.5112   22.5753 C   0  0  2  0  0  0  0  0  0  0  0  0
    8.6284  -17.3216   21.5054 N   0  0  0  0  0  0  0  0  0  0  0  0
    9.4853  -17.2457   23.7990 C   0  0  0  0  0  0  0  0  0  0  0  0
    8.5261  -17.7706   24.4464 O   0  0  0  0  0  0  0  0  0  0  0  0
    6.8668  -14.3101   21.0373 C   0  0  0  0  0  0  0  0  0  0  0  0
    6.7456  -13.4102   19.9698 C   0  0  0  0  0  0  0  0  0  0  0  0
   10.8141  -17.3801   24.2565 N   0  0  0  0  0  0  0  0  0  0  0  0
   11.1031  -18.2534   25.3763 C   0  0  1  0  0  0  0  0  0  0  0  0
   12.3960  -18.9432   25.1113 C   0  0  0  0  0  0  0  0  0  0  0  0
   12.4828  -20.3414   25.6198 C   0  0  0  0  0  0  0  0  0  0  0  0
   13.8705  -20.9006   25.3794 C   0  0  0  0  0  0  0  0  0  0  0  0
   14.0118  -22.2812   26.0197 C   0  0  0  0  0  0  0  0  0  0  0  0
   15.4240  -22.6359   25.8763 N   0  0  0  0  0  0  0  0  0  0  0  0
   11.0965  -17.4392   26.6192 C   0  0  0  0  0  0  0  0  0  0  0  0
   11.3572  -16.2162   26.5235 O   0  0  0  0  0  0  0  0  0  0  0  0
   10.8230  -17.9432   27.8735 O   0  0  0  0  0  0  0  0  0  0  0  0
  2  1  1  6
  3  2  1  0
  4  3  1  0
  5  4  1  0
  6  5  1  0
  7  6  1  0
  8  2  1  0
  8  9  2  0
 10 11  1  0
 11 12  2  0
 12 13  1  0
 14 13  2  0
 14 15  1  0
 16 15  1  1
 16 17  1  0
 17  8  1  0
 18 16  1  0
 19 18  2  0
 20 14  1  0
 21 11  1  0
 21 20  2  0
 22 18  1  0
 23 24  1  6
 23 22  1  0
 24 25  1  0
 25 26  1  0
 26 27  1  0
 27 28  1  0
 29 23  1  0
 30 29  2  0
 31 29  1  0
M  END
$$$$
