KYK.pdb
     RDKit          3D

 31 31  0  0  1  0  0  0  0  0999 V2000
    7.5272  -15.7953   20.3393 N   0  0  0  0  0  0  0  0  0  0  0  0
    8.9514  -15.7593   20.3211 C   0  0  1  0  0  0  0  0  0  0  0  0
    9.5068  -14.6430   19.5101 C   0  0  0  0  0  0  0  0  0  0  0  0
    9.0724  -14.6059   18.0854 C   0  0  0  0  0  0  0  0  0  0  0  0
    8.4568  -13.3334   17.6149 C   0  0  0  0  0  0  0  0  0  0  0  0
    8.0297  -13.5382   16.1512 C   0  0  0  0  0  0  0  0  0  0  0  0
    7.4056  -12.3140   15.6879 N   0  0  0  0  0  0  0  0  0  0  0  0
    9.5034  -15.8028   21.6996 C   0  0  0  0  0  0  0  0  0  0  0  0
   10.7021  -16.1359   21.8414 O   0  0  0  0  0  0  0  0  0  0  0  0
   10.5123  -14.2346   30.4063 O   0  0  0  0  0  0  0  0  0  0  0  0
    9.9730  -14.3421   29.1244 C   0  0  0  0  0  0  0  0  0  0  0  0
   10.2563  -13.4138   28.1454 C   0  0  0  0  0  0  0  0  0  0  0  0
    9.7156  -13.5340   26.8840 C   0  0  0  0  0  0  0  0  0  0  0  0
    8.8610  -14.5872   26.5261 C   0  0  0  0  0  0  0  0  0  0  0  0
    8.3461  -14.6191   25.1423 C   0  0  0  0  0  0  0  0  0  0  0  0
    9.1794  -15.4644   24.2004 C   0  0  2  0  0  0  0  0  0  0  0  0
    8.7356  -15.4860   22.8447 N   0  0  0  0  0  0  0  0  0  0  0  0
    9.4528  -16.7879   24.7918 C   0  0  0  0  0  0  0  0  0  0  0  0
    8.4492  -17.5563   24.9225 O   0  0  0  0  0  0  0  0  0  0  0  0
    8.5882  -15.5035   27.5103 C   0  0  0  0  0  0  0  0  0  0  0  0
    9.1364  -15.3842   28.7945 C   0  0  0  0  0  0  0  0  0  0  0  0
   10.7358  -17.2127   25.2002 N   0  0  0  0  0  0  0  0  0  0  0  0
   10.9151  -18.5504   25.7280 C   0  0  1  0  0  0  0  0  0  0  0  0
   11.7080  -19.3396   24.7451 C   0  0  0  0  0  0  0  0  0  0  0  0
   12.0524  -20.7240   25.1761 C   0  0  0  0  0  0  0  0  0  0  0  0
   12.8723  -21.4166   24.1064 C   0  0  0  0  0  0  0  0  0  0  0  0
   13.2576  -22.8265   24.5535 C   0  0  0  0  0  0  0  0  0  0  0  0
   14.1659  -23.3289   23.5224 N   0  0  0  0  0  0  0  0  0  0  0  0
   11.5473  -18.4444   27.0683 C   0  0  0  0  0  0  0  0  0  0  0  0
   12.3657  -17.5139   27.2615 O   0  0  0  0  0  0  0  0  0  0  0  0
   11.2927  -19.3058   28.1149 O   0  0  0  0  0  0  0  0  0  0  0  0
  2  1  1  1
  3  2  1  0
  4  3  1  0
  5  4  1  0
  6  5  1  0
  7  6  1  0
  8  2  1  0
  8  9  2  0
 10 11  1  0
 11 12  2  0
 12 13  1  0
 14 13  2  0
 14 15  1  0
 16 15  1  1
 16 17  1  0
 17  8  1  0
 18 16  1  0
 19 18  2  0
 20 14  1  0
 21 11  1  0
 21 20  2  0
 22 18  1  0
 23 24  1  6
 23 22  1  0
 24 25  1  0
 25 26  1  0
 26 27  1  0
 27 28  1  0
 29 23  1  0
 30 29  2  0
 31 29  1  0
M  END
$$$$
