KYK.pdb
     RDKit          3D

 31 31  0  0  1  0  0  0  0  0999 V2000
    7.5986  -16.3302   19.2271 N   0  0  0  0  0  0  0  0  0  0  0  0
    8.7927  -15.5590   19.3253 C   0  0  1  0  0  0  0  0  0  0  0  0
    8.8458  -14.4224   18.3675 C   0  0  0  0  0  0  0  0  0  0  0  0
    8.0278  -14.5840   17.1327 C   0  0  0  0  0  0  0  0  0  0  0  0
    8.6463  -14.1093   15.8632 C   0  0  0  0  0  0  0  0  0  0  0  0
    7.6233  -14.3342   14.7364 C   0  0  0  0  0  0  0  0  0  0  0  0
    8.2317  -13.9227   13.4861 N   0  0  0  0  0  0  0  0  0  0  0  0
    9.0455  -15.1444   20.7293 C   0  0  0  0  0  0  0  0  0  0  0  0
   10.2299  -14.9275   21.0728 O   0  0  0  0  0  0  0  0  0  0  0  0
    7.6165  -12.6732   29.2032 O   0  0  0  0  0  0  0  0  0  0  0  0
    7.4930  -12.9290   27.8376 C   0  0  0  0  0  0  0  0  0  0  0  0
    6.7294  -13.9766   27.3688 C   0  0  0  0  0  0  0  0  0  0  0  0
    6.6175  -14.2162   26.0168 C   0  0  0  0  0  0  0  0  0  0  0  0
    7.2610  -13.4246   25.0540 C   0  0  0  0  0  0  0  0  0  0  0  0
    7.0637  -13.7701   23.6318 C   0  0  0  0  0  0  0  0  0  0  0  0
    8.1546  -14.6537   23.0615 C   0  0  2  0  0  0  0  0  0  0  0  0
    8.0114  -14.9871   21.6817 N   0  0  0  0  0  0  0  0  0  0  0  0
    8.4231  -15.7943   23.9576 C   0  0  0  0  0  0  0  0  0  0  0  0
    7.5164  -16.6829   24.0131 O   0  0  0  0  0  0  0  0  0  0  0  0
    8.0172  -12.3856   25.5350 C   0  0  0  0  0  0  0  0  0  0  0  0
    8.1333  -12.1392   26.9097 C   0  0  0  0  0  0  0  0  0  0  0  0
    9.6018  -15.9277   24.7230 N   0  0  0  0  0  0  0  0  0  0  0  0
    9.8836  -17.1802   25.3953 C   0  0  1  0  0  0  0  0  0  0  0  0
   11.1317  -17.7516   24.8179 C   0  0  0  0  0  0  0  0  0  0  0  0
   11.5729  -19.0425   25.4178 C   0  0  0  0  0  0  0  0  0  0  0  0
   12.8771  -19.4924   24.7909 C   0  0  0  0  0  0  0  0  0  0  0  0
   13.3189  -20.8343   25.3742 C   0  0  0  0  0  0  0  0  0  0  0  0
   14.5679  -21.1664   24.6883 N   0  0  0  0  0  0  0  0  0  0  0  0
    9.9573  -16.9213   26.8565 C   0  0  0  0  0  0  0  0  0  0  0  0
   10.1971  -15.7502   27.2358 O   0  0  0  0  0  0  0  0  0  0  0  0
    9.7803  -17.8880   27.8241 O   0  0  0  0  0  0  0  0  0  0  0  0
  2  1  1  1
  3  2  1  0
  4  3  1  0
  5  4  1  0
  6  5  1  0
  7  6  1  0
  8  2  1  0
  8  9  2  0
 10 11  1  0
 11 12  2  0
 12 13  1  0
 14 13  2  0
 14 15  1  0
 16 15  1  1
 16 17  1  0
 17  8  1  0
 18 16  1  0
 19 18  2  0
 20 14  1  0
 21 11  1  0
 21 20  2  0
 22 18  1  0
 23 24  1  6
 23 22  1  0
 24 25  1  0
 25 26  1  0
 26 27  1  0
 27 28  1  0
 29 23  1  0
 30 29  2  0
 31 29  1  0
M  END
$$$$
