KYK.pdb
     RDKit          3D

 31 31  0  0  1  0  0  0  0  0999 V2000
    7.9191  -16.0036   19.0763 N   0  0  0  0  0  0  0  0  0  0  0  0
    8.7957  -14.8815   19.1275 C   0  0  1  0  0  0  0  0  0  0  0  0
    8.4083  -13.7828   18.2029 C   0  0  0  0  0  0  0  0  0  0  0  0
    7.9822  -14.2097   16.8405 C   0  0  0  0  0  0  0  0  0  0  0  0
    8.9627  -13.9873   15.7411 C   0  0  0  0  0  0  0  0  0  0  0  0
    8.3003  -14.4431   14.4296 C   0  0  0  0  0  0  0  0  0  0  0  0
    9.2492  -14.2428   13.3516 N   0  0  0  0  0  0  0  0  0  0  0  0
    8.9887  -14.4193   20.5261 C   0  0  0  0  0  0  0  0  0  0  0  0
   10.1186  -13.9881   20.8508 O   0  0  0  0  0  0  0  0  0  0  0  0
    7.3133  -13.0055   29.2196 O   0  0  0  0  0  0  0  0  0  0  0  0
    7.2091  -13.1500   27.8362 C   0  0  0  0  0  0  0  0  0  0  0  0
    6.5518  -14.2229   27.2731 C   0  0  0  0  0  0  0  0  0  0  0  0
    6.4577  -14.3514   25.9047 C   0  0  0  0  0  0  0  0  0  0  0  0
    7.0139  -13.4170   25.0187 C   0  0  0  0  0  0  0  0  0  0  0  0
    6.8450  -13.6528   23.5706 C   0  0  0  0  0  0  0  0  0  0  0  0
    8.0828  -14.2062   22.8940 C   0  0  2  0  0  0  0  0  0  0  0  0
    7.9570  -14.4473   21.4935 N   0  0  0  0  0  0  0  0  0  0  0  0
    8.6477  -15.3234   23.6743 C   0  0  0  0  0  0  0  0  0  0  0  0
    8.8677  -15.0875   24.9034 O   0  0  0  0  0  0  0  0  0  0  0  0
    7.6648  -12.3544   25.5931 C   0  0  0  0  0  0  0  0  0  0  0  0
    7.7625  -12.2207   26.9847 C   0  0  0  0  0  0  0  0  0  0  0  0
    8.9401  -16.5914   23.1268 N   0  0  0  0  0  0  0  0  0  0  0  0
    9.5726  -17.6012   23.9515 C   0  0  1  0  0  0  0  0  0  0  0  0
   10.6188  -18.2820   23.1392 C   0  0  0  0  0  0  0  0  0  0  0  0
   11.3995  -19.3266   23.8605 C   0  0  0  0  0  0  0  0  0  0  0  0
   12.4056  -19.9670   22.9257 C   0  0  0  0  0  0  0  0  0  0  0  0
   13.2094  -21.0422   23.6564 C   0  0  0  0  0  0  0  0  0  0  0  0
   14.1344  -21.5832   22.6602 N   0  0  0  0  0  0  0  0  0  0  0  0
   10.0926  -16.9453   25.1790 C   0  0  0  0  0  0  0  0  0  0  0  0
    9.6284  -17.3124   26.2848 O   0  0  0  0  0  0  0  0  0  0  0  0
   11.0536  -15.9559   25.1805 O   0  0  0  0  0  0  0  0  0  0  0  0
  2  1  1  1
  3  2  1  0
  4  3  1  0
  5  4  1  0
  6  5  1  0
  7  6  1  0
  8  2  1  0
  8  9  2  0
 10 11  1  0
 11 12  2  0
 12 13  1  0
 14 13  2  0
 14 15  1  0
 16 15  1  1
 16 17  1  0
 17  8  1  0
 18 16  1  0
 19 18  2  0
 20 14  1  0
 21 11  1  0
 21 20  2  0
 22 18  1  0
 23 24  1  6
 23 22  1  0
 24 25  1  0
 25 26  1  0
 26 27  1  0
 27 28  1  0
 29 23  1  0
 30 29  2  0
 31 29  1  0
M  END
$$$$
