CEC.pdb
     RDKit          3D

 22 21  0  0  1  0  0  0  0  0999 V2000
    7.8708  -14.3700   16.9466 N   0  0  0  0  0  0  0  0  0  0  0  0
    8.9465  -14.2650   17.9110 C   0  0  1  0  0  0  0  0  0  0  0  0
    9.0973  -12.8638   18.3347 C   0  0  0  0  0  0  0  0  0  0  0  0
    7.7621  -12.3355   19.4184 S   0  0  0  0  0  0  0  0  0  0  0  0
    8.8077  -15.2583   18.9918 C   0  0  0  0  0  0  0  0  0  0  0  0
    7.6835  -15.7855   19.1422 O   0  0  0  0  0  0  0  0  0  0  0  0
    9.8715  -15.6292   19.8449 N   0  0  0  0  0  0  0  0  0  0  0  0
    9.8823  -16.6202   20.8633 C   0  0  1  0  0  0  0  0  0  0  0  0
   10.7322  -17.8347   20.6074 C   0  0  0  0  0  0  0  0  0  0  0  0
   10.5845  -18.9481   21.5816 C   0  0  0  0  0  0  0  0  0  0  0  0
   11.4426  -20.1115   21.2876 C   0  0  0  0  0  0  0  0  0  0  0  0
   11.3464  -20.6832   20.1855 O   0  0  0  0  0  0  0  0  0  0  0  0
   10.0445  -16.1371   22.2178 C   0  0  0  0  0  0  0  0  0  0  0  0
   11.1617  -15.6388   22.6074 O   0  0  0  0  0  0  0  0  0  0  0  0
   12.3454  -20.5693   22.2174 O   0  0  0  0  0  0  0  0  0  0  0  0
    9.0429  -16.1535   23.2249 N   0  0  0  0  0  0  0  0  0  0  0  0
    9.2861  -15.6521   24.5736 C   0  0  1  0  0  0  0  0  0  0  0  0
    8.0537  -15.0988   25.2264 C   0  0  0  0  0  0  0  0  0  0  0  0
    7.2639  -13.8192   24.2201 S   0  0  0  0  0  0  0  0  0  0  0  0
    9.9118  -16.7246   25.4009 C   0  0  0  0  0  0  0  0  0  0  0  0
   10.1468  -17.8740   24.9780 O   0  0  0  0  0  0  0  0  0  0  0  0
   10.2492  -16.4163   26.7183 O   0  0  0  0  0  0  0  0  0  0  0  0
  2  1  1  6
  2  5  1  0
  2  3  1  0
  3  4  1  0
  5  7  1  0
  6  5  2  0
  7  8  1  0
  8 13  1  0
  9 10  1  0
  8  9  1  6
 10 11  1  0
 11 15  1  0
 11 12  2  0
 13 14  2  0
 13 16  1  0
 16 17  1  0
 17 18  1  1
 17 20  1  0
 19 18  1  0
 20 22  1  0
 21 20  2  0
M  END
$$$$
