CEC.pdb
     RDKit          3D

 22 21  0  0  1  0  0  0  0  0999 V2000
    7.7038  -16.4024   19.9695 N   0  0  0  0  0  0  0  0  0  0  0  0
    8.3535  -15.4432   20.8391 C   0  0  1  0  0  0  0  0  0  0  0  0
    7.5989  -14.1798   20.8349 C   0  0  0  0  0  0  0  0  0  0  0  0
    8.2868  -12.9752   21.9803 S   0  0  0  0  0  0  0  0  0  0  0  0
    8.6457  -16.0201   22.1641 C   0  0  0  0  0  0  0  0  0  0  0  0
    7.7088  -16.6040   22.7522 O   0  0  0  0  0  0  0  0  0  0  0  0
    9.9144  -15.9407   22.7814 N   0  0  0  0  0  0  0  0  0  0  0  0
   10.3210  -16.4712   24.0355 C   0  0  1  0  0  0  0  0  0  0  0  0
   11.4783  -17.4320   24.0130 C   0  0  0  0  0  0  0  0  0  0  0  0
   11.7903  -18.1036   25.3023 C   0  0  0  0  0  0  0  0  0  0  0  0
   12.9683  -18.9893   25.2400 C   0  0  0  0  0  0  0  0  0  0  0  0
   12.9434  -19.9944   24.5053 O   0  0  0  0  0  0  0  0  0  0  0  0
   10.4456  -15.5185   25.1177 C   0  0  0  0  0  0  0  0  0  0  0  0
   11.5004  -14.7965   25.2383 O   0  0  0  0  0  0  0  0  0  0  0  0
   14.0910  -18.7157   25.9843 O   0  0  0  0  0  0  0  0  0  0  0  0
    9.4699  -15.2785   26.1218 N   0  0  0  0  0  0  0  0  0  0  0  0
    9.7129  -14.3789   27.2449 C   0  0  1  0  0  0  0  0  0  0  0  0
    8.5037  -13.5779   27.6288 C   0  0  0  0  0  0  0  0  0  0  0  0
    7.6411  -12.9092   26.1856 S   0  0  0  0  0  0  0  0  0  0  0  0
   10.2478  -15.1552   28.4012 C   0  0  0  0  0  0  0  0  0  0  0  0
   10.3580  -16.3974   28.4070 O   0  0  0  0  0  0  0  0  0  0  0  0
   10.6438  -14.4449   29.5340 O   0  0  0  0  0  0  0  0  0  0  0  0
  2  1  1  6
  2  5  1  0
  2  3  1  0
  3  4  1  0
  5  7  1  0
  6  5  2  0
  7  8  1  0
  8 13  1  0
  9 10  1  0
  8  9  1  6
 10 11  1  0
 11 15  1  0
 11 12  2  0
 13 14  2  0
 13 16  1  0
 16 17  1  0
 17 18  1  1
 17 20  1  0
 19 18  1  0
 20 22  1  0
 21 20  2  0
M  END
$$$$
