CEC.pdb
     RDKit          3D

 22 21  0  0  1  0  0  0  0  0999 V2000
    6.9392  -15.3146   20.1095 N   0  0  0  0  0  0  0  0  0  0  0  0
    8.1625  -14.7792   20.6709 C   0  0  1  0  0  0  0  0  0  0  0  0
    8.0111  -13.3335   20.9007 C   0  0  0  0  0  0  0  0  0  0  0  0
    7.8409  -12.4164   19.3625 S   0  0  0  0  0  0  0  0  0  0  0  0
    8.6266  -15.5740   21.8228 C   0  0  0  0  0  0  0  0  0  0  0  0
    7.7646  -15.9273   22.6576 O   0  0  0  0  0  0  0  0  0  0  0  0
    9.9767  -15.9439   22.0157 N   0  0  0  0  0  0  0  0  0  0  0  0
   10.5603  -16.6067   23.1290 C   0  0  1  0  0  0  0  0  0  0  0  0
   11.7867  -17.4321   22.8500 C   0  0  0  0  0  0  0  0  0  0  0  0
   12.3631  -18.1538   24.0151 C   0  0  0  0  0  0  0  0  0  0  0  0
   13.5725  -18.9336   23.6908 C   0  0  0  0  0  0  0  0  0  0  0  0
   14.5023  -18.3932   23.0630 O   0  0  0  0  0  0  0  0  0  0  0  0
   10.7186  -15.8134   24.3289 C   0  0  0  0  0  0  0  0  0  0  0  0
   11.1029  -14.5903   24.2611 O   0  0  0  0  0  0  0  0  0  0  0  0
   13.6820  -20.2489   24.0744 O   0  0  0  0  0  0  0  0  0  0  0  0
   10.4803  -16.2658   25.6543 N   0  0  0  0  0  0  0  0  0  0  0  0
   10.5625  -15.3757   26.8078 C   0  0  1  0  0  0  0  0  0  0  0  0
    9.4434  -14.3778   26.8614 C   0  0  0  0  0  0  0  0  0  0  0  0
    9.6983  -13.1343   28.1507 S   0  0  0  0  0  0  0  0  0  0  0  0
   10.6383  -16.1843   28.0594 C   0  0  0  0  0  0  0  0  0  0  0  0
   10.4132  -17.4100   28.1040 O   0  0  0  0  0  0  0  0  0  0  0  0
   10.9803  -15.5253   29.2397 O   0  0  0  0  0  0  0  0  0  0  0  0
  2  1  1  1
  2  5  1  0
  2  3  1  0
  3  4  1  0
  5  7  1  0
  6  5  2  0
  7  8  1  0
  8 13  1  0
  9 10  1  0
  8  9  1  6
 10 11  1  0
 11 15  1  0
 11 12  2  0
 13 14  2  0
 13 16  1  0
 16 17  1  0
 17 18  1  1
 17 20  1  0
 19 18  1  0
 20 22  1  0
 21 20  2  0
M  END
$$$$
