CEC.pdb
     RDKit          3D

 22 21  0  0  1  0  0  0  0  0999 V2000
    6.9420  -16.2935   18.9396 N   0  0  0  0  0  0  0  0  0  0  0  0
    7.7813  -15.3077   19.5892 C   0  0  1  0  0  0  0  0  0  0  0  0
    7.2879  -13.9561   19.2805 C   0  0  0  0  0  0  0  0  0  0  0  0
    8.2870  -12.6760   20.0548 S   0  0  0  0  0  0  0  0  0  0  0  0
    7.9777  -15.6160   21.0176 C   0  0  0  0  0  0  0  0  0  0  0  0
    6.9572  -15.8814   21.6904 O   0  0  0  0  0  0  0  0  0  0  0  0
    9.2455  -15.6232   21.6418 N   0  0  0  0  0  0  0  0  0  0  0  0
    9.5585  -15.8880   23.0024 C   0  0  1  0  0  0  0  0  0  0  0  0
   10.9247  -16.4543   23.2777 C   0  0  0  0  0  0  0  0  0  0  0  0
   11.2407  -17.7436   22.6080 C   0  0  0  0  0  0  0  0  0  0  0  0
   12.5931  -18.2513   22.9066 C   0  0  0  0  0  0  0  0  0  0  0  0
   12.7248  -19.2884   23.5831 O   0  0  0  0  0  0  0  0  0  0  0  0
    9.2180  -14.8457   23.9468 C   0  0  0  0  0  0  0  0  0  0  0  0
    9.5063  -13.6188   23.7023 O   0  0  0  0  0  0  0  0  0  0  0  0
   13.7071  -17.5911   22.4457 O   0  0  0  0  0  0  0  0  0  0  0  0
    8.5589  -15.0420   25.1898 N   0  0  0  0  0  0  0  0  0  0  0  0
    8.1956  -13.9306   26.0629 C   0  0  1  0  0  0  0  0  0  0  0  0
    6.7956  -13.4400   25.8386 C   0  0  0  0  0  0  0  0  0  0  0  0
    6.3619  -12.0804   26.9509 S   0  0  0  0  0  0  0  0  0  0  0  0
    8.4208  -14.3180   27.4860 C   0  0  0  0  0  0  0  0  0  0  0  0
    8.6697  -15.4835   27.8531 O   0  0  0  0  0  0  0  0  0  0  0  0
    8.3471  -13.3155   28.4524 O   0  0  0  0  0  0  0  0  0  0  0  0
  2  1  1  1
  2  5  1  0
  2  3  1  0
  3  4  1  0
  5  7  1  0
  6  5  2  0
  7  8  1  0
  8 13  1  0
  9 10  1  0
  8  9  1  6
 10 11  1  0
 11 15  1  0
 11 12  2  0
 13 14  2  0
 13 16  1  0
 16 17  1  0
 17 18  1  1
 17 20  1  0
 19 18  1  0
 20 22  1  0
 21 20  2  0
M  END
$$$$
