CEC.pdb
     RDKit          3D

 22 21  0  0  1  0  0  0  0  0999 V2000
    6.1179  -15.2521   21.1681 N   0  0  0  0  0  0  0  0  0  0  0  0
    7.4952  -14.8447   21.3558 C   0  0  1  0  0  0  0  0  0  0  0  0
    7.5554  -13.3927   21.5874 C   0  0  0  0  0  0  0  0  0  0  0  0
    6.8923  -12.9342   23.1956 S   0  0  0  0  0  0  0  0  0  0  0  0
    8.1822  -15.6892   22.3502 C   0  0  0  0  0  0  0  0  0  0  0  0
    7.4835  -16.1763   23.2663 O   0  0  0  0  0  0  0  0  0  0  0  0
    9.5678  -15.9635   22.3093 N   0  0  0  0  0  0  0  0  0  0  0  0
   10.3534  -16.6843   23.2487 C   0  0  1  0  0  0  0  0  0  0  0  0
   11.5625  -17.3956   22.7053 C   0  0  0  0  0  0  0  0  0  0  0  0
   12.3246  -18.2194   23.6806 C   0  0  0  0  0  0  0  0  0  0  0  0
   13.4964  -18.8984   23.0959 C   0  0  0  0  0  0  0  0  0  0  0  0
   13.3541  -19.6044   22.0800 O   0  0  0  0  0  0  0  0  0  0  0  0
   10.6564  -15.9953   24.4847 C   0  0  0  0  0  0  0  0  0  0  0  0
   10.9067  -14.7360   24.4898 O   0  0  0  0  0  0  0  0  0  0  0  0
   14.7415  -18.7591   23.6612 O   0  0  0  0  0  0  0  0  0  0  0  0
   10.7096  -16.5945   25.7715 N   0  0  0  0  0  0  0  0  0  0  0  0
   10.8322  -15.8062   26.9935 C   0  0  1  0  0  0  0  0  0  0  0  0
    9.7417  -14.7872   27.1476 C   0  0  0  0  0  0  0  0  0  0  0  0
    9.9218  -13.8185   28.6651 S   0  0  0  0  0  0  0  0  0  0  0  0
   10.9029  -16.7181   28.1723 C   0  0  0  0  0  0  0  0  0  0  0  0
   10.3081  -17.8123   28.2352 O   0  0  0  0  0  0  0  0  0  0  0  0
   11.6789  -16.3169   29.2591 O   0  0  0  0  0  0  0  0  0  0  0  0
  2  1  1  1
  2  5  1  0
  2  3  1  0
  3  4  1  0
  5  7  1  0
  6  5  2  0
  7  8  1  0
  8 13  1  0
  9 10  1  0
  8  9  1  6
 10 11  1  0
 11 15  1  0
 11 12  2  0
 13 14  2  0
 13 16  1  0
 16 17  1  0
 17 18  1  1
 17 20  1  0
 19 18  1  0
 20 22  1  0
 21 20  2  0
M  END
$$$$
