CEC.pdb
     RDKit          3D

 22 21  0  0  1  0  0  0  0  0999 V2000
    6.9576  -15.6100   18.9449 N   0  0  0  0  0  0  0  0  0  0  0  0
    7.7195  -14.7328   19.8100 C   0  0  1  0  0  0  0  0  0  0  0  0
    7.2358  -13.3506   19.6644 C   0  0  0  0  0  0  0  0  0  0  0  0
    8.1651  -12.1959   20.6839 S   0  0  0  0  0  0  0  0  0  0  0  0
    7.7903  -15.2537   21.1875 C   0  0  0  0  0  0  0  0  0  0  0  0
    6.7252  -15.6658   21.6979 O   0  0  0  0  0  0  0  0  0  0  0  0
    8.9875  -15.3043   21.9365 N   0  0  0  0  0  0  0  0  0  0  0  0
    9.1794  -15.7732   23.2642 C   0  0  1  0  0  0  0  0  0  0  0  0
   10.3340  -16.7124   23.4827 C   0  0  0  0  0  0  0  0  0  0  0  0
   10.3543  -17.9274   22.6260 C   0  0  0  0  0  0  0  0  0  0  0  0
   11.5493  -18.7702   22.8201 C   0  0  0  0  0  0  0  0  0  0  0  0
   12.6462  -18.2342   23.0653 O   0  0  0  0  0  0  0  0  0  0  0  0
    9.1065  -14.7731   24.3077 C   0  0  0  0  0  0  0  0  0  0  0  0
   10.0142  -13.8718   24.4175 O   0  0  0  0  0  0  0  0  0  0  0  0
   11.4631  -20.1392   22.7325 O   0  0  0  0  0  0  0  0  0  0  0  0
    8.0784  -14.6717   25.2826 N   0  0  0  0  0  0  0  0  0  0  0  0
    8.1791  -13.7764   26.4307 C   0  0  1  0  0  0  0  0  0  0  0  0
    6.8653  -13.1613   26.8135 C   0  0  0  0  0  0  0  0  0  0  0  0
    5.9381  -12.5791   25.3730 S   0  0  0  0  0  0  0  0  0  0  0  0
    8.8017  -14.5007   27.5769 C   0  0  0  0  0  0  0  0  0  0  0  0
    9.0719  -15.7180   27.5595 O   0  0  0  0  0  0  0  0  0  0  0  0
    9.0943  -13.7686   28.7270 O   0  0  0  0  0  0  0  0  0  0  0  0
  2  1  1  6
  2  5  1  0
  2  3  1  0
  3  4  1  0
  5  7  1  0
  6  5  2  0
  7  8  1  0
  8 13  1  0
  9 10  1  0
  8  9  1  6
 10 11  1  0
 11 15  1  0
 11 12  2  0
 13 14  2  0
 13 16  1  0
 16 17  1  0
 17 18  1  1
 17 20  1  0
 19 18  1  0
 20 22  1  0
 21 20  2  0
M  END
$$$$
