CEC.pdb
     RDKit          3D

 22 21  0  0  1  0  0  0  0  0999 V2000
    7.7225  -15.1846   18.3224 N   0  0  0  0  0  0  0  0  0  0  0  0
    8.2591  -14.4687   19.4616 C   0  0  1  0  0  0  0  0  0  0  0  0
    7.8715  -13.0512   19.3835 C   0  0  0  0  0  0  0  0  0  0  0  0
    8.8136  -12.1580   18.1381 S   0  0  0  0  0  0  0  0  0  0  0  0
    7.9537  -15.1559   20.7298 C   0  0  0  0  0  0  0  0  0  0  0  0
    6.8092  -15.6455   20.8530 O   0  0  0  0  0  0  0  0  0  0  0  0
    8.8826  -15.2800   21.7874 N   0  0  0  0  0  0  0  0  0  0  0  0
    8.6906  -15.8677   23.0669 C   0  0  1  0  0  0  0  0  0  0  0  0
    9.4427  -17.1420   23.3385 C   0  0  0  0  0  0  0  0  0  0  0  0
   10.9236  -17.0563   23.2386 C   0  0  0  0  0  0  0  0  0  0  0  0
   11.6124  -18.3284   23.5276 C   0  0  0  0  0  0  0  0  0  0  0  0
   11.6336  -19.2257   22.6644 O   0  0  0  0  0  0  0  0  0  0  0  0
    8.7543  -14.9652   24.1964 C   0  0  0  0  0  0  0  0  0  0  0  0
    9.7827  -14.2198   24.3837 O   0  0  0  0  0  0  0  0  0  0  0  0
   12.2294  -18.5318   24.7388 O   0  0  0  0  0  0  0  0  0  0  0  0
    7.7425  -14.8023   25.1800 N   0  0  0  0  0  0  0  0  0  0  0  0
    7.8724  -13.8538   26.2815 C   0  0  1  0  0  0  0  0  0  0  0  0
    6.5593  -13.2702   26.7128 C   0  0  0  0  0  0  0  0  0  0  0  0
    6.6281  -11.4681   26.8595 S   0  0  0  0  0  0  0  0  0  0  0  0
    8.5855  -14.5034   27.4197 C   0  0  0  0  0  0  0  0  0  0  0  0
    8.6900  -15.7388   27.5540 O   0  0  0  0  0  0  0  0  0  0  0  0
    9.1640  -13.6763   28.3818 O   0  0  0  0  0  0  0  0  0  0  0  0
  2  1  1  6
  2  5  1  0
  2  3  1  0
  3  4  1  0
  5  7  1  0
  6  5  2  0
  7  8  1  0
  8 13  1  0
  9 10  1  0
  8  9  1  1
 10 11  1  0
 11 15  1  0
 11 12  2  0
 13 14  2  0
 13 16  1  0
 16 17  1  0
 17 18  1  1
 17 20  1  0
 19 18  1  0
 20 22  1  0
 21 20  2  0
M  END
$$$$
