CEC.pdb
     RDKit          3D

 22 21  0  0  1  0  0  0  0  0999 V2000
    7.3855  -16.0909   19.8328 N   0  0  0  0  0  0  0  0  0  0  0  0
    7.9811  -15.2480   20.8492 C   0  0  1  0  0  0  0  0  0  0  0  0
    7.0533  -14.1600   21.1970 C   0  0  0  0  0  0  0  0  0  0  0  0
    7.7036  -13.1047   22.5007 S   0  0  0  0  0  0  0  0  0  0  0  0
    8.5027  -16.0412   21.9774 C   0  0  0  0  0  0  0  0  0  0  0  0
    7.7020  -16.8104   22.5534 O   0  0  0  0  0  0  0  0  0  0  0  0
    9.8418  -15.9678   22.4228 N   0  0  0  0  0  0  0  0  0  0  0  0
   10.4435  -16.6333   23.5249 C   0  0  1  0  0  0  0  0  0  0  0  0
   11.6515  -17.4765   23.2200 C   0  0  0  0  0  0  0  0  0  0  0  0
   11.6926  -18.0869   21.8649 C   0  0  0  0  0  0  0  0  0  0  0  0
   12.9803  -18.7302   21.5428 C   0  0  0  0  0  0  0  0  0  0  0  0
   13.4360  -19.6069   22.3007 O   0  0  0  0  0  0  0  0  0  0  0  0
   10.6420  -15.8365   24.7165 C   0  0  0  0  0  0  0  0  0  0  0  0
   11.3866  -14.7910   24.6905 O   0  0  0  0  0  0  0  0  0  0  0  0
   13.6806  -18.3712   20.4159 O   0  0  0  0  0  0  0  0  0  0  0  0
   10.0681  -16.0989   25.9892 N   0  0  0  0  0  0  0  0  0  0  0  0
   10.3609  -15.2783   27.1599 C   0  0  1  0  0  0  0  0  0  0  0  0
    9.2423  -14.3446   27.5180 C   0  0  0  0  0  0  0  0  0  0  0  0
    9.5797  -13.4270   29.0405 S   0  0  0  0  0  0  0  0  0  0  0  0
   10.7318  -16.1572   28.3070 C   0  0  0  0  0  0  0  0  0  0  0  0
   10.4353  -17.3666   28.3740 O   0  0  0  0  0  0  0  0  0  0  0  0
   11.4494  -15.5868   29.3578 O   0  0  0  0  0  0  0  0  0  0  0  0
  2  1  1  6
  2  5  1  0
  2  3  1  0
  3  4  1  0
  5  7  1  0
  6  5  2  0
  7  8  1  0
  8 13  1  0
  9 10  1  0
  8  9  1  6
 10 11  1  0
 11 15  1  0
 11 12  2  0
 13 14  2  0
 13 16  1  0
 16 17  1  0
 17 18  1  1
 17 20  1  0
 19 18  1  0
 20 22  1  0
 21 20  2  0
M  END
$$$$
