CEC.pdb
     RDKit          3D

 22 21  0  0  1  0  0  0  0  0999 V2000
    7.4000  -15.6367   18.3725 N   0  0  0  0  0  0  0  0  0  0  0  0
    8.1067  -14.7959   19.3168 C   0  0  1  0  0  0  0  0  0  0  0  0
    7.7666  -13.3847   19.0751 C   0  0  0  0  0  0  0  0  0  0  0  0
    8.2487  -12.8433   17.4287 S   0  0  0  0  0  0  0  0  0  0  0  0
    7.9423  -15.2749   20.7016 C   0  0  0  0  0  0  0  0  0  0  0  0
    6.7790  -15.5319   21.0828 O   0  0  0  0  0  0  0  0  0  0  0  0
    9.0234  -15.4509   21.5944 N   0  0  0  0  0  0  0  0  0  0  0  0
    8.9860  -15.8398   22.9606 C   0  0  1  0  0  0  0  0  0  0  0  0
   10.0725  -16.7726   23.4217 C   0  0  0  0  0  0  0  0  0  0  0  0
   11.3678  -16.1356   23.7781 C   0  0  0  0  0  0  0  0  0  0  0  0
   12.4489  -17.1016   24.0504 C   0  0  0  0  0  0  0  0  0  0  0  0
   12.2514  -18.3157   23.8569 O   0  0  0  0  0  0  0  0  0  0  0  0
    8.7598  -14.7778   23.9173 C   0  0  0  0  0  0  0  0  0  0  0  0
    9.2528  -13.6077   23.7278 O   0  0  0  0  0  0  0  0  0  0  0  0
   13.6699  -16.6743   24.5150 O   0  0  0  0  0  0  0  0  0  0  0  0
    8.0056  -14.8939   25.1155 N   0  0  0  0  0  0  0  0  0  0  0  0
    7.8444  -13.7809   26.0454 C   0  0  1  0  0  0  0  0  0  0  0  0
    6.5128  -13.1005   25.9230 C   0  0  0  0  0  0  0  0  0  0  0  0
    6.2711  -11.8382   27.1965 S   0  0  0  0  0  0  0  0  0  0  0  0
    8.0946  -14.2525   27.4386 C   0  0  0  0  0  0  0  0  0  0  0  0
    8.0656  -15.4524   27.7768 O   0  0  0  0  0  0  0  0  0  0  0  0
    8.3755  -13.2921   28.4097 O   0  0  0  0  0  0  0  0  0  0  0  0
  2  1  1  6
  2  5  1  0
  2  3  1  0
  3  4  1  0
  5  7  1  0
  6  5  2  0
  7  8  1  0
  8 13  1  0
  9 10  1  0
  8  9  1  1
 10 11  1  0
 11 15  1  0
 11 12  2  0
 13 14  2  0
 13 16  1  0
 16 17  1  0
 17 18  1  1
 17 20  1  0
 19 18  1  0
 20 22  1  0
 21 20  2  0
M  END
$$$$
