CEC.pdb
     RDKit          3D

 22 21  0  0  1  0  0  0  0  0999 V2000
    7.4522  -15.1316   18.7142 N   0  0  0  0  0  0  0  0  0  0  0  0
    8.2496  -14.4560   19.7172 C   0  0  1  0  0  0  0  0  0  0  0  0
    7.9050  -13.0255   19.7434 C   0  0  0  0  0  0  0  0  0  0  0  0
    8.5753  -12.1404   18.3280 S   0  0  0  0  0  0  0  0  0  0  0  0
    8.2038  -15.1581   21.0129 C   0  0  0  0  0  0  0  0  0  0  0  0
    7.0817  -15.5303   21.4216 O   0  0  0  0  0  0  0  0  0  0  0  0
    9.3523  -15.4210   21.7931 N   0  0  0  0  0  0  0  0  0  0  0  0
    9.4248  -15.9811   23.0970 C   0  0  1  0  0  0  0  0  0  0  0  0
   10.5619  -16.9315   23.3557 C   0  0  0  0  0  0  0  0  0  0  0  0
   10.3846  -18.3134   22.8364 C   0  0  0  0  0  0  0  0  0  0  0  0
   11.6206  -18.9052   22.2905 C   0  0  0  0  0  0  0  0  0  0  0  0
   11.5445  -19.8213   21.4506 O   0  0  0  0  0  0  0  0  0  0  0  0
    9.2482  -15.0565   24.1961 C   0  0  0  0  0  0  0  0  0  0  0  0
   10.1239  -14.1492   24.4377 O   0  0  0  0  0  0  0  0  0  0  0  0
   12.8532  -18.4555   22.7001 O   0  0  0  0  0  0  0  0  0  0  0  0
    8.1452  -15.0401   25.0911 N   0  0  0  0  0  0  0  0  0  0  0  0
    8.0555  -14.0952   26.1996 C   0  0  1  0  0  0  0  0  0  0  0  0
    6.6781  -13.5277   26.3784 C   0  0  0  0  0  0  0  0  0  0  0  0
    6.7107  -11.7517   26.7229 S   0  0  0  0  0  0  0  0  0  0  0  0
    8.5499  -14.7421   27.4498 C   0  0  0  0  0  0  0  0  0  0  0  0
    8.7573  -14.1226   28.5121 O   0  0  0  0  0  0  0  0  0  0  0  0
    8.7909  -16.1152   27.4202 O   0  0  0  0  0  0  0  0  0  0  0  0
  2  1  1  6
  2  5  1  0
  2  3  1  0
  3  4  1  0
  5  7  1  0
  6  5  2  0
  7  8  1  0
  8 13  1  0
  9 10  1  0
  8  9  1  1
 10 11  1  0
 11 15  1  0
 11 12  2  0
 13 14  2  0
 13 16  1  0
 16 17  1  0
 17 18  1  1
 17 20  1  0
 19 18  1  0
 20 22  1  0
 21 20  2  0
M  END
$$$$
