CEC.pdb
     RDKit          3D

 22 21  0  0  1  0  0  0  0  0999 V2000
    8.4659  -16.0536   18.1669 N   0  0  0  0  0  0  0  0  0  0  0  0
    8.6108  -15.0136   19.1647 C   0  0  1  0  0  0  0  0  0  0  0  0
    8.1690  -13.7258   18.6062 C   0  0  0  0  0  0  0  0  0  0  0  0
    8.3440  -12.3790   19.7859 S   0  0  0  0  0  0  0  0  0  0  0  0
    8.0051  -15.4049   20.4508 C   0  0  0  0  0  0  0  0  0  0  0  0
    6.8411  -15.8616   20.4187 O   0  0  0  0  0  0  0  0  0  0  0  0
    8.6736  -15.2867   21.6902 N   0  0  0  0  0  0  0  0  0  0  0  0
    8.2072  -15.6475   22.9831 C   0  0  1  0  0  0  0  0  0  0  0  0
    8.3980  -17.0838   23.3876 C   0  0  0  0  0  0  0  0  0  0  0  0
    9.3799  -17.8598   22.5850 C   0  0  0  0  0  0  0  0  0  0  0  0
    9.5549  -19.2505   23.0447 C   0  0  0  0  0  0  0  0  0  0  0  0
    8.9074  -19.6593   24.0267 O   0  0  0  0  0  0  0  0  0  0  0  0
    8.5557  -14.7444   24.0588 C   0  0  0  0  0  0  0  0  0  0  0  0
    9.7796  -14.4218   24.2744 O   0  0  0  0  0  0  0  0  0  0  0  0
   10.4246  -20.0975   22.4002 O   0  0  0  0  0  0  0  0  0  0  0  0
    7.6373  -14.1377   24.9567 N   0  0  0  0  0  0  0  0  0  0  0  0
    8.0664  -13.2242   26.0108 C   0  0  1  0  0  0  0  0  0  0  0  0
    7.0197  -12.2124   26.3740 C   0  0  0  0  0  0  0  0  0  0  0  0
    5.4280  -12.9833   26.7560 S   0  0  0  0  0  0  0  0  0  0  0  0
    8.5109  -14.0066   27.2008 C   0  0  0  0  0  0  0  0  0  0  0  0
    8.3065  -15.2291   27.3387 O   0  0  0  0  0  0  0  0  0  0  0  0
    9.1914  -13.3258   28.2096 O   0  0  0  0  0  0  0  0  0  0  0  0
  2  1  1  6
  2  5  1  0
  2  3  1  0
  3  4  1  0
  5  7  1  0
  6  5  2  0
  7  8  1  0
  8 13  1  0
  9 10  1  0
  8  9  1  1
 10 11  1  0
 11 15  1  0
 11 12  2  0
 13 14  2  0
 13 16  1  0
 16 17  1  0
 17 18  1  1
 17 20  1  0
 19 18  1  0
 20 22  1  0
 21 20  2  0
M  END
$$$$
