CEC.pdb
     RDKit          3D

 22 21  0  0  1  0  0  0  0  0999 V2000
    7.4803  -16.4684   19.8511 N   0  0  0  0  0  0  0  0  0  0  0  0
    8.0158  -15.5259   20.8118 C   0  0  1  0  0  0  0  0  0  0  0  0
    7.0064  -14.4985   21.1137 C   0  0  0  0  0  0  0  0  0  0  0  0
    7.4117  -13.5645   22.5969 S   0  0  0  0  0  0  0  0  0  0  0  0
    8.6113  -16.2114   21.9734 C   0  0  0  0  0  0  0  0  0  0  0  0
    8.2375  -17.3836   22.1984 O   0  0  0  0  0  0  0  0  0  0  0  0
    9.5665  -15.6091   22.8230 N   0  0  0  0  0  0  0  0  0  0  0  0
   10.2480  -16.1810   23.9311 C   0  0  1  0  0  0  0  0  0  0  0  0
   11.3720  -17.1279   23.6103 C   0  0  0  0  0  0  0  0  0  0  0  0
   11.4974  -17.5279   22.1838 C   0  0  0  0  0  0  0  0  0  0  0  0
   12.6374  -18.4253   21.9173 C   0  0  0  0  0  0  0  0  0  0  0  0
   12.5036  -19.6530   22.0768 O   0  0  0  0  0  0  0  0  0  0  0  0
   10.6129  -15.2676   24.9926 C   0  0  0  0  0  0  0  0  0  0  0  0
   11.4717  -15.6072   25.8844 O   0  0  0  0  0  0  0  0  0  0  0  0
   13.8438  -17.9195   21.4954 O   0  0  0  0  0  0  0  0  0  0  0  0
   10.0950  -13.9563   25.1668 N   0  0  0  0  0  0  0  0  0  0  0  0
    9.2660  -13.5919   26.3112 C   0  0  1  0  0  0  0  0  0  0  0  0
    7.8252  -13.3805   25.9500 C   0  0  0  0  0  0  0  0  0  0  0  0
    6.8159  -12.9532   27.3895 S   0  0  0  0  0  0  0  0  0  0  0  0
    9.4188  -14.6155   27.3859 C   0  0  0  0  0  0  0  0  0  0  0  0
    9.8494  -14.3586   28.5277 O   0  0  0  0  0  0  0  0  0  0  0  0
    9.0579  -15.9292   27.0888 O   0  0  0  0  0  0  0  0  0  0  0  0
  2  1  1  6
  2  5  1  0
  2  3  1  0
  3  4  1  0
  5  7  1  0
  6  5  2  0
  7  8  1  0
  8 13  1  0
  9 10  1  0
  8  9  1  6
 10 11  1  0
 11 15  1  0
 11 12  2  0
 13 14  2  0
 13 16  1  0
 16 17  1  0
 17 18  1  6
 17 20  1  0
 19 18  1  0
 20 22  1  0
 21 20  2  0
M  END
$$$$
