CEC.pdb
     RDKit          3D

 22 21  0  0  1  0  0  0  0  0999 V2000
    7.2342  -15.5598   18.7595 N   0  0  0  0  0  0  0  0  0  0  0  0
    8.1044  -14.8227   19.6525 C   0  0  1  0  0  0  0  0  0  0  0  0
    7.8570  -13.3794   19.5063 C   0  0  0  0  0  0  0  0  0  0  0  0
    8.3292  -12.7717   17.8802 S   0  0  0  0  0  0  0  0  0  0  0  0
    8.0506  -15.3541   21.0268 C   0  0  0  0  0  0  0  0  0  0  0  0
    6.9183  -15.5781   21.5088 O   0  0  0  0  0  0  0  0  0  0  0  0
    9.2025  -15.6144   21.8029 N   0  0  0  0  0  0  0  0  0  0  0  0
    9.2800  -15.9718   23.1761 C   0  0  1  0  0  0  0  0  0  0  0  0
   10.4405  -16.8406   23.5778 C   0  0  0  0  0  0  0  0  0  0  0  0
   10.5204  -17.1918   25.0203 C   0  0  0  0  0  0  0  0  0  0  0  0
   11.6239  -18.1149   25.3459 C   0  0  0  0  0  0  0  0  0  0  0  0
   11.4230  -19.0602   26.1312 O   0  0  0  0  0  0  0  0  0  0  0  0
    9.0694  -14.8991   24.1244 C   0  0  0  0  0  0  0  0  0  0  0  0
    9.7536  -13.8151   24.0517 O   0  0  0  0  0  0  0  0  0  0  0  0
   12.8696  -17.9412   24.7915 O   0  0  0  0  0  0  0  0  0  0  0  0
    8.1315  -14.9135   25.1911 N   0  0  0  0  0  0  0  0  0  0  0  0
    7.9739  -13.7868   26.1051 C   0  0  1  0  0  0  0  0  0  0  0  0
    6.5834  -13.2234   26.1097 C   0  0  0  0  0  0  0  0  0  0  0  0
    6.3519  -11.9864   27.4096 S   0  0  0  0  0  0  0  0  0  0  0  0
    8.4086  -14.1888   27.4745 C   0  0  0  0  0  0  0  0  0  0  0  0
    8.5067  -15.3747   27.8473 O   0  0  0  0  0  0  0  0  0  0  0  0
    8.7203  -13.1763   28.3813 O   0  0  0  0  0  0  0  0  0  0  0  0
  2  1  1  6
  2  5  1  0
  2  3  1  0
  3  4  1  0
  5  7  1  0
  6  5  2  0
  7  8  1  0
  8 13  1  0
  9 10  1  0
  8  9  1  6
 10 11  1  0
 11 15  1  0
 11 12  2  0
 13 14  2  0
 13 16  1  0
 16 17  1  0
 17 18  1  1
 17 20  1  0
 19 18  1  0
 20 22  1  0
 21 20  2  0
M  END
$$$$
