CEC.pdb
     RDKit          3D

 22 21  0  0  1  0  0  0  0  0999 V2000
    7.2129  -14.7255   18.2923 N   0  0  0  0  0  0  0  0  0  0  0  0
    8.3853  -14.5684   19.1283 C   0  0  1  0  0  0  0  0  0  0  0  0
    8.8759  -13.1839   19.0389 C   0  0  0  0  0  0  0  0  0  0  0  0
    7.9393  -12.0632   20.0893 S   0  0  0  0  0  0  0  0  0  0  0  0
    8.1577  -15.0895   20.4887 C   0  0  0  0  0  0  0  0  0  0  0  0
    6.9838  -15.0668   20.9202 O   0  0  0  0  0  0  0  0  0  0  0  0
    9.1908  -15.6018   21.3054 N   0  0  0  0  0  0  0  0  0  0  0  0
    9.0967  -16.1297   22.6214 C   0  0  1  0  0  0  0  0  0  0  0  0
   10.0391  -17.2516   22.9623 C   0  0  0  0  0  0  0  0  0  0  0  0
    9.9072  -17.8178   24.3307 C   0  0  0  0  0  0  0  0  0  0  0  0
   10.8896  -18.8762   24.6321 C   0  0  0  0  0  0  0  0  0  0  0  0
   11.8363  -18.6343   25.4041 O   0  0  0  0  0  0  0  0  0  0  0  0
    9.0219  -15.1584   23.6915 C   0  0  0  0  0  0  0  0  0  0  0  0
    9.8915  -14.2186   23.7868 O   0  0  0  0  0  0  0  0  0  0  0  0
   10.7697  -20.1245   24.0694 O   0  0  0  0  0  0  0  0  0  0  0  0
    8.0317  -15.1273   24.7095 N   0  0  0  0  0  0  0  0  0  0  0  0
    7.9779  -14.0679   25.7118 C   0  0  1  0  0  0  0  0  0  0  0  0
    6.6226  -13.4345   25.8257 C   0  0  0  0  0  0  0  0  0  0  0  0
    6.6493  -11.9438   26.8507 S   0  0  0  0  0  0  0  0  0  0  0  0
    8.4496  -14.5967   27.0247 C   0  0  0  0  0  0  0  0  0  0  0  0
    8.6067  -15.8105   27.2638 O   0  0  0  0  0  0  0  0  0  0  0  0
    8.7277  -13.6763   28.0346 O   0  0  0  0  0  0  0  0  0  0  0  0
  2  1  1  6
  2  5  1  0
  2  3  1  0
  3  4  1  0
  5  7  1  0
  6  5  2  0
  7  8  1  0
  8 13  1  0
  9 10  1  0
  8  9  1  1
 10 11  1  0
 11 15  1  0
 11 12  2  0
 13 14  2  0
 13 16  1  0
 16 17  1  0
 17 18  1  1
 17 20  1  0
 19 18  1  0
 20 22  1  0
 21 20  2  0
M  END
$$$$
