CEC.pdb
     RDKit          3D

 22 21  0  0  1  0  0  0  0  0999 V2000
    7.2297  -15.2168   19.5439 N   0  0  0  0  0  0  0  0  0  0  0  0
    8.1538  -14.6068   20.4778 C   0  0  1  0  0  0  0  0  0  0  0  0
    7.7649  -13.2079   20.7175 C   0  0  0  0  0  0  0  0  0  0  0  0
    8.1455  -12.1481   19.3145 S   0  0  0  0  0  0  0  0  0  0  0  0
    8.3456  -15.4415   21.6779 C   0  0  0  0  0  0  0  0  0  0  0  0
    7.3220  -15.9374   22.1984 O   0  0  0  0  0  0  0  0  0  0  0  0
    9.6122  -15.6974   22.2497 N   0  0  0  0  0  0  0  0  0  0  0  0
    9.9315  -16.5425   23.3467 C   0  0  1  0  0  0  0  0  0  0  0  0
   10.7864  -17.7421   23.0416 C   0  0  0  0  0  0  0  0  0  0  0  0
   12.0620  -17.4667   22.3293 C   0  0  0  0  0  0  0  0  0  0  0  0
   12.8347  -18.6807   22.0052 C   0  0  0  0  0  0  0  0  0  0  0  0
   13.0863  -18.9498   20.8157 O   0  0  0  0  0  0  0  0  0  0  0  0
   10.3667  -15.8768   24.5557 C   0  0  0  0  0  0  0  0  0  0  0  0
   11.3354  -15.0347   24.5288 O   0  0  0  0  0  0  0  0  0  0  0  0
   13.2784  -19.5161   23.0024 O   0  0  0  0  0  0  0  0  0  0  0  0
    9.8055  -16.0626   25.8473 N   0  0  0  0  0  0  0  0  0  0  0  0
   10.3187  -15.3724   27.0263 C   0  0  1  0  0  0  0  0  0  0  0  0
    9.3439  -14.3876   27.6017 C   0  0  0  0  0  0  0  0  0  0  0  0
   10.1146  -13.2983   28.8236 S   0  0  0  0  0  0  0  0  0  0  0  0
   10.7530  -16.3740   28.0431 C   0  0  0  0  0  0  0  0  0  0  0  0
   10.4870  -17.5902   27.9715 O   0  0  0  0  0  0  0  0  0  0  0  0
   11.4970  -15.9166   29.1302 O   0  0  0  0  0  0  0  0  0  0  0  0
  2  1  1  6
  2  5  1  0
  2  3  1  0
  3  4  1  0
  5  7  1  0
  6  5  2  0
  7  8  1  0
  8 13  1  0
  9 10  1  0
  8  9  1  6
 10 11  1  0
 11 15  1  0
 11 12  2  0
 13 14  2  0
 13 16  1  0
 16 17  1  0
 17 18  1  1
 17 20  1  0
 19 18  1  0
 20 22  1  0
 21 20  2  0
M  END
$$$$
