WDG.pdb
     RDKit          3D

 27 28  0  0  1  0  0  0  0  0999 V2000
    7.6189  -17.0794   23.5185 N   0  0  0  0  0  0  0  0  0  0  0  0
    8.7603  -16.2768   23.7628 C   0  0  1  0  0  0  0  0  0  0  0  0
    8.8516  -15.8308   25.1796 C   0  0  0  0  0  0  0  0  0  0  0  0
    7.6592  -15.0475   25.5624 C   0  0  0  0  0  0  0  0  0  0  0  0
    6.4426  -15.5661   25.9551 C   0  0  0  0  0  0  0  0  0  0  0  0
    5.6156  -14.5514   26.2518 N   0  0  0  0  0  0  0  0  0  0  0  0
    6.2599  -13.4015   26.0624 C   0  0  0  0  0  0  0  0  0  0  0  0
    5.8302  -12.0891   26.2266 C   0  0  0  0  0  0  0  0  0  0  0  0
    6.6665  -11.0227   25.9633 C   0  0  0  0  0  0  0  0  0  0  0  0
    7.9311  -11.3275   25.5351 C   0  0  0  0  0  0  0  0  0  0  0  0
    8.3861  -12.6143   25.3630 C   0  0  0  0  0  0  0  0  0  0  0  0
    7.5446  -13.6793   25.6291 C   0  0  0  0  0  0  0  0  0  0  0  0
   10.0208  -16.9152   23.2811 C   0  0  0  0  0  0  0  0  0  0  0  0
   10.1722  -18.1450   23.4945 O   0  0  0  0  0  0  0  0  0  0  0  0
   11.0511  -16.2352   22.6044 N   0  0  0  0  0  0  0  0  0  0  0  0
   12.3784  -16.7904   22.4040 C   0  0  1  0  0  0  0  0  0  0  0  0
   13.1664  -16.0199   21.3921 C   0  0  0  0  0  0  0  0  0  0  0  0
   12.5702  -15.9703   20.0455 C   0  0  0  0  0  0  0  0  0  0  0  0
   12.0970  -16.9887   19.5010 O   0  0  0  0  0  0  0  0  0  0  0  0
   13.0391  -16.9309   23.7224 C   0  0  0  0  0  0  0  0  0  0  0  0
   13.7845  -16.0022   24.1771 O   0  0  0  0  0  0  0  0  0  0  0  0
   12.5294  -14.7716   19.3608 O   0  0  0  0  0  0  0  0  0  0  0  0
   12.8996  -18.0714   24.5591 N   0  0  0  0  0  0  0  0  0  0  0  0
   13.6323  -18.2484   25.7957 C   0  0  0  0  0  0  0  0  0  0  0  0
   15.0214  -18.7170   25.6026 C   0  0  0  0  0  0  0  0  0  0  0  0
   15.2578  -19.6158   24.7739 O   0  0  0  0  0  0  0  0  0  0  0  0
   16.0311  -18.1521   26.3426 O   0  0  0  0  0  0  0  0  0  0  0  0
  2  3  1  0
  2  1  1  1
  4  5  2  0
  4  3  1  0
  6  5  1  0
  7 12  2  0
  7  6  1  0
  8  7  1  0
  9 10  1  0
  9  8  2  0
 10 11  2  0
 11 12  1  0
 12  4  1  0
 13  2  1  0
 14 13  2  0
 15 13  1  0
 16 15  1  0
 16 17  1  6
 17 18  1  0
 18 22  1  0
 19 18  2  0
 20 16  1  0
 20 21  2  0
 23 20  1  0
 24 23  1  0
 24 25  1  0
 25 27  1  0
 26 25  2  0
M  END
$$$$
