WDG.pdb
     RDKit          3D

 27 28  0  0  1  0  0  0  0  0999 V2000
    6.8886  -17.0865   23.1519 N   0  0  0  0  0  0  0  0  0  0  0  0
    8.1333  -16.4510   23.3829 C   0  0  1  0  0  0  0  0  0  0  0  0
    8.3817  -16.1902   24.8268 C   0  0  0  0  0  0  0  0  0  0  0  0
    7.3469  -15.2963   25.3855 C   0  0  0  0  0  0  0  0  0  0  0  0
    6.1370  -15.6923   25.9167 C   0  0  0  0  0  0  0  0  0  0  0  0
    5.4785  -14.6058   26.3498 N   0  0  0  0  0  0  0  0  0  0  0  0
    6.2244  -13.5281   26.1140 C   0  0  0  0  0  0  0  0  0  0  0  0
    5.9757  -12.1847   26.3733 C   0  0  0  0  0  0  0  0  0  0  0  0
    6.8916  -11.2080   26.0369 C   0  0  0  0  0  0  0  0  0  0  0  0
    8.0479  -11.6332   25.4387 C   0  0  0  0  0  0  0  0  0  0  0  0
    8.3236  -12.9536   25.1690 C   0  0  0  0  0  0  0  0  0  0  0  0
    7.4030  -13.9284   25.5091 C   0  0  0  0  0  0  0  0  0  0  0  0
    9.2687  -17.1637   22.7262 C   0  0  0  0  0  0  0  0  0  0  0  0
    9.1194  -18.3840   22.4627 O   0  0  0  0  0  0  0  0  0  0  0  0
   10.4948  -16.5636   22.3817 N   0  0  0  0  0  0  0  0  0  0  0  0
   11.6618  -17.3166   21.9562 C   0  0  1  0  0  0  0  0  0  0  0  0
   12.6368  -16.4692   21.2012 C   0  0  0  0  0  0  0  0  0  0  0  0
   12.1649  -15.9986   19.8870 C   0  0  0  0  0  0  0  0  0  0  0  0
   11.5630  -16.7553   19.0979 O   0  0  0  0  0  0  0  0  0  0  0  0
   12.2329  -18.0134   23.1322 C   0  0  0  0  0  0  0  0  0  0  0  0
   13.1564  -18.8801   22.9878 O   0  0  0  0  0  0  0  0  0  0  0  0
   12.3896  -14.6892   19.5098 O   0  0  0  0  0  0  0  0  0  0  0  0
   11.8137  -17.7797   24.4701 N   0  0  0  0  0  0  0  0  0  0  0  0
   12.3020  -18.5379   25.6032 C   0  0  0  0  0  0  0  0  0  0  0  0
   13.5513  -18.0015   26.1845 C   0  0  0  0  0  0  0  0  0  0  0  0
   14.1365  -17.0581   25.6209 O   0  0  0  0  0  0  0  0  0  0  0  0
   14.0475  -18.5543   27.3398 O   0  0  0  0  0  0  0  0  0  0  0  0
  2  3  1  0
  2  1  1  1
  4  5  2  0
  4  3  1  0
  6  5  1  0
  7 12  2  0
  7  6  1  0
  8  7  1  0
  9 10  1  0
  9  8  2  0
 10 11  2  0
 11 12  1  0
 12  4  1  0
 13  2  1  0
 14 13  2  0
 15 13  1  0
 16 15  1  0
 16 17  1  1
 17 18  1  0
 18 22  1  0
 19 18  2  0
 20 16  1  0
 20 21  2  0
 23 20  1  0
 24 23  1  0
 24 25  1  0
 25 27  1  0
 26 25  2  0
M  END
$$$$
