WDG.pdb
     RDKit          3D

 27 28  0  0  1  0  0  0  0  0999 V2000
    7.0878  -17.8693   23.9508 N   0  0  0  0  0  0  0  0  0  0  0  0
    8.1181  -16.9120   23.7817 C   0  0  1  0  0  0  0  0  0  0  0  0
    8.5269  -16.2807   25.0658 C   0  0  0  0  0  0  0  0  0  0  0  0
    7.4676  -15.3843   25.5720 C   0  0  0  0  0  0  0  0  0  0  0  0
    6.2947  -15.7809   26.1803 C   0  0  0  0  0  0  0  0  0  0  0  0
    5.5981  -14.6882   26.5301 N   0  0  0  0  0  0  0  0  0  0  0  0
    6.2836  -13.6060   26.1666 C   0  0  0  0  0  0  0  0  0  0  0  0
    5.9785  -12.2564   26.3047 C   0  0  0  0  0  0  0  0  0  0  0  0
    6.8356  -11.2768   25.8448 C   0  0  0  0  0  0  0  0  0  0  0  0
    7.9925  -11.7055   25.2502 C   0  0  0  0  0  0  0  0  0  0  0  0
    8.3232  -13.0321   25.0987 C   0  0  0  0  0  0  0  0  0  0  0  0
    7.4614  -14.0097   25.5621 C   0  0  0  0  0  0  0  0  0  0  0  0
    9.2788  -17.4522   23.0141 C   0  0  0  0  0  0  0  0  0  0  0  0
    9.5656  -18.6670   23.1652 O   0  0  0  0  0  0  0  0  0  0  0  0
   10.0741  -16.6952   22.1329 N   0  0  0  0  0  0  0  0  0  0  0  0
   11.2944  -17.1972   21.5256 C   0  0  1  0  0  0  0  0  0  0  0  0
   11.5883  -16.5347   20.2167 C   0  0  0  0  0  0  0  0  0  0  0  0
   10.7172  -16.9459   19.1016 C   0  0  0  0  0  0  0  0  0  0  0  0
   10.3646  -16.1415   18.2151 O   0  0  0  0  0  0  0  0  0  0  0  0
   12.3900  -17.1118   22.5190 C   0  0  0  0  0  0  0  0  0  0  0  0
   13.5606  -17.5262   22.2314 O   0  0  0  0  0  0  0  0  0  0  0  0
   10.2747  -18.2520   19.0271 O   0  0  0  0  0  0  0  0  0  0  0  0
   12.2314  -16.5783   23.8268 N   0  0  0  0  0  0  0  0  0  0  0  0
   13.3298  -16.3965   24.7531 C   0  0  0  0  0  0  0  0  0  0  0  0
   13.7778  -17.6493   25.3983 C   0  0  0  0  0  0  0  0  0  0  0  0
   14.3033  -18.5427   24.7084 O   0  0  0  0  0  0  0  0  0  0  0  0
   13.6062  -17.8078   26.7517 O   0  0  0  0  0  0  0  0  0  0  0  0
  2  3  1  0
  2  1  1  1
  4  5  2  0
  4  3  1  0
  6  5  1  0
  7 12  2  0
  7  6  1  0
  8  7  1  0
  9 10  1  0
  9  8  2  0
 10 11  2  0
 11 12  1  0
 12  4  1  0
 13  2  1  0
 14 13  2  0
 15 13  1  0
 16 15  1  0
 16 17  1  6
 17 18  1  0
 18 22  1  0
 19 18  2  0
 20 16  1  0
 20 21  2  0
 23 20  1  0
 24 23  1  0
 24 25  1  0
 25 27  1  0
 26 25  2  0
M  END
$$$$
