WDG.pdb
     RDKit          3D

 27 28  0  0  1  0  0  0  0  0999 V2000
    7.7085  -17.5343   24.3251 N   0  0  0  0  0  0  0  0  0  0  0  0
    8.5774  -16.4920   23.9185 C   0  0  1  0  0  0  0  0  0  0  0  0
    8.8937  -15.5485   25.0251 C   0  0  0  0  0  0  0  0  0  0  0  0
    7.6637  -14.9197   25.5480 C   0  0  0  0  0  0  0  0  0  0  0  0
    6.5444  -15.5864   26.0017 C   0  0  0  0  0  0  0  0  0  0  0  0
    5.6454  -14.6840   26.4248 N   0  0  0  0  0  0  0  0  0  0  0  0
    6.1497  -13.4629   26.2574 C   0  0  0  0  0  0  0  0  0  0  0  0
    5.6028  -12.2151   26.5361 C   0  0  0  0  0  0  0  0  0  0  0  0
    6.2997  -11.0523   26.2751 C   0  0  0  0  0  0  0  0  0  0  0  0
    7.5484  -11.1960   25.7311 C   0  0  0  0  0  0  0  0  0  0  0  0
    8.1171  -12.4152   25.4441 C   0  0  0  0  0  0  0  0  0  0  0  0
    7.4150  -13.5773   25.7085 C   0  0  0  0  0  0  0  0  0  0  0  0
    9.8017  -17.0036   23.2347 C   0  0  0  0  0  0  0  0  0  0  0  0
   10.2950  -18.0834   23.6487 O   0  0  0  0  0  0  0  0  0  0  0  0
   10.4417  -16.3603   22.1583 N   0  0  0  0  0  0  0  0  0  0  0  0
   11.7508  -16.7458   21.6605 C   0  0  1  0  0  0  0  0  0  0  0  0
   11.9540  -16.3434   20.2339 C   0  0  0  0  0  0  0  0  0  0  0  0
   11.0985  -17.0459   19.2613 C   0  0  0  0  0  0  0  0  0  0  0  0
   10.8770  -18.2709   19.3489 O   0  0  0  0  0  0  0  0  0  0  0  0
   12.7828  -16.2411   22.5958 C   0  0  0  0  0  0  0  0  0  0  0  0
   12.5315  -15.2624   23.3730 O   0  0  0  0  0  0  0  0  0  0  0  0
   10.5229  -16.3397   18.2233 O   0  0  0  0  0  0  0  0  0  0  0  0
   14.0903  -16.7884   22.7006 N   0  0  0  0  0  0  0  0  0  0  0  0
   15.0902  -16.2950   23.6247 C   0  0  0  0  0  0  0  0  0  0  0  0
   16.4157  -16.9300   23.4623 C   0  0  0  0  0  0  0  0  0  0  0  0
   16.5615  -17.8453   22.6310 O   0  0  0  0  0  0  0  0  0  0  0  0
   17.4673  -16.4989   24.2334 O   0  0  0  0  0  0  0  0  0  0  0  0
  2  3  1  0
  2  1  1  1
  4  5  2  0
  4  3  1  0
  6  5  1  0
  7 12  2  0
  7  6  1  0
  8  7  1  0
  9 10  1  0
  9  8  2  0
 10 11  2  0
 11 12  1  0
 12  4  1  0
 13  2  1  0
 14 13  2  0
 15 13  1  0
 16 15  1  0
 16 17  1  6
 17 18  1  0
 18 22  1  0
 19 18  2  0
 20 16  1  0
 20 21  2  0
 23 20  1  0
 24 23  1  0
 24 25  1  0
 25 27  1  0
 26 25  2  0
M  END
$$$$
