WDG.pdb
     RDKit          3D

 27 28  0  0  1  0  0  0  0  0999 V2000
    6.8637  -17.4422   23.6093 N   0  0  0  0  0  0  0  0  0  0  0  0
    7.9709  -16.5677   23.4823 C   0  0  1  0  0  0  0  0  0  0  0  0
    8.4435  -16.0509   24.7954 C   0  0  0  0  0  0  0  0  0  0  0  0
    7.4331  -15.1629   25.4058 C   0  0  0  0  0  0  0  0  0  0  0  0
    6.2955  -15.5697   26.0718 C   0  0  0  0  0  0  0  0  0  0  0  0
    5.6400  -14.4838   26.5109 N   0  0  0  0  0  0  0  0  0  0  0  0
    6.3178  -13.3962   26.1489 C   0  0  0  0  0  0  0  0  0  0  0  0
    6.0434  -12.0497   26.3622 C   0  0  0  0  0  0  0  0  0  0  0  0
    6.8847  -11.0628   25.8888 C   0  0  0  0  0  0  0  0  0  0  0  0
    7.9941  -11.4810   25.2033 C   0  0  0  0  0  0  0  0  0  0  0  0
    8.2935  -12.8042   24.9759 C   0  0  0  0  0  0  0  0  0  0  0  0
    7.4479  -13.7892   25.4533 C   0  0  0  0  0  0  0  0  0  0  0  0
    9.0743  -17.1582   22.6686 C   0  0  0  0  0  0  0  0  0  0  0  0
    9.1671  -18.4115   22.6308 O   0  0  0  0  0  0  0  0  0  0  0  0
   10.0178  -16.4084   21.9408 N   0  0  0  0  0  0  0  0  0  0  0  0
   11.1123  -17.0069   21.1966 C   0  0  1  0  0  0  0  0  0  0  0  0
   11.5750  -16.1347   20.0725 C   0  0  0  0  0  0  0  0  0  0  0  0
   12.6701  -16.6943   19.2608 C   0  0  0  0  0  0  0  0  0  0  0  0
   13.0723  -17.8647   19.4217 O   0  0  0  0  0  0  0  0  0  0  0  0
   12.1764  -17.4000   22.1494 C   0  0  0  0  0  0  0  0  0  0  0  0
   13.0704  -18.2437   21.8121 O   0  0  0  0  0  0  0  0  0  0  0  0
   13.2728  -15.9119   18.2955 O   0  0  0  0  0  0  0  0  0  0  0  0
   12.2846  -16.8855   23.4699 N   0  0  0  0  0  0  0  0  0  0  0  0
   13.2798  -17.3335   24.4219 C   0  0  0  0  0  0  0  0  0  0  0  0
   14.5905  -16.6659   24.2713 C   0  0  0  0  0  0  0  0  0  0  0  0
   15.4813  -16.8614   25.1190 O   0  0  0  0  0  0  0  0  0  0  0  0
   14.8047  -15.8386   23.1962 O   0  0  0  0  0  0  0  0  0  0  0  0
  2  3  1  0
  2  1  1  1
  4  5  2  0
  4  3  1  0
  6  5  1  0
  7 12  2  0
  7  6  1  0
  8  7  1  0
  9 10  1  0
  9  8  2  0
 10 11  2  0
 11 12  1  0
 12  4  1  0
 13  2  1  0
 14 13  2  0
 15 13  1  0
 16 15  1  0
 16 17  1  6
 17 18  1  0
 18 22  1  0
 19 18  2  0
 20 16  1  0
 20 21  2  0
 23 20  1  0
 24 23  1  0
 24 25  1  0
 25 27  1  0
 26 25  2  0
M  END
$$$$
