WDG.pdb
     RDKit          3D

 27 28  0  0  1  0  0  0  0  0999 V2000
    7.3096  -17.5892   24.0178 N   0  0  0  0  0  0  0  0  0  0  0  0
    8.3820  -16.6679   23.9294 C   0  0  1  0  0  0  0  0  0  0  0  0
    8.6162  -15.9406   25.2065 C   0  0  0  0  0  0  0  0  0  0  0  0
    7.4566  -15.0922   25.5490 C   0  0  0  0  0  0  0  0  0  0  0  0
    6.1994  -15.5423   25.8953 C   0  0  0  0  0  0  0  0  0  0  0  0
    5.4204  -14.4832   26.1660 N   0  0  0  0  0  0  0  0  0  0  0  0
    6.1347  -13.3710   26.0046 C   0  0  0  0  0  0  0  0  0  0  0  0
    5.7738  -12.0369   26.1584 C   0  0  0  0  0  0  0  0  0  0  0  0
    6.6776  -11.0187   25.9298 C   0  0  0  0  0  0  0  0  0  0  0  0
    7.9379  -11.3934   25.5464 C   0  0  0  0  0  0  0  0  0  0  0  0
    8.3259  -12.7034   25.3857 C   0  0  0  0  0  0  0  0  0  0  0  0
    7.4167  -13.7198   25.6170 C   0  0  0  0  0  0  0  0  0  0  0  0
    9.6263  -17.2904   23.3885 C   0  0  0  0  0  0  0  0  0  0  0  0
    9.9242  -18.4448   23.7879 O   0  0  0  0  0  0  0  0  0  0  0  0
   10.4888  -16.6740   22.4621 N   0  0  0  0  0  0  0  0  0  0  0  0
   11.8181  -17.1716   22.1536 C   0  0  1  0  0  0  0  0  0  0  0  0
   12.3969  -16.5211   20.9369 C   0  0  0  0  0  0  0  0  0  0  0  0
   11.7332  -16.8714   19.6687 C   0  0  0  0  0  0  0  0  0  0  0  0
   11.4267  -16.0016   18.8279 O   0  0  0  0  0  0  0  0  0  0  0  0
   12.6595  -17.0651   23.3682 C   0  0  0  0  0  0  0  0  0  0  0  0
   12.7994  -15.9474   23.9649 O   0  0  0  0  0  0  0  0  0  0  0  0
   11.4389  -18.1926   19.3947 O   0  0  0  0  0  0  0  0  0  0  0  0
   13.3536  -18.1617   23.9478 N   0  0  0  0  0  0  0  0  0  0  0  0
   14.1546  -18.0539   25.1495 C   0  0  0  0  0  0  0  0  0  0  0  0
   14.9389  -19.2700   25.4531 C   0  0  0  0  0  0  0  0  0  0  0  0
   14.8181  -20.2763   24.7299 O   0  0  0  0  0  0  0  0  0  0  0  0
   15.7901  -19.2701   26.5310 O   0  0  0  0  0  0  0  0  0  0  0  0
  2  3  1  0
  2  1  1  1
  4  5  2  0
  4  3  1  0
  6  5  1  0
  7 12  2  0
  7  6  1  0
  8  7  1  0
  9 10  1  0
  9  8  2  0
 10 11  2  0
 11 12  1  0
 12  4  1  0
 13  2  1  0
 14 13  2  0
 15 13  1  0
 16 15  1  0
 16 17  1  6
 17 18  1  0
 18 22  1  0
 19 18  2  0
 20 16  1  0
 20 21  2  0
 23 20  1  0
 24 23  1  0
 24 25  1  0
 25 27  1  0
 26 25  2  0
M  END
$$$$
