WDG.pdb
     RDKit          3D

 27 28  0  0  1  0  0  0  0  0999 V2000
    7.2824  -17.4307   24.9891 N   0  0  0  0  0  0  0  0  0  0  0  0
    7.8629  -16.7738   23.8764 C   0  0  1  0  0  0  0  0  0  0  0  0
    8.2906  -15.3841   24.1935 C   0  0  0  0  0  0  0  0  0  0  0  0
    7.3080  -14.7191   25.0734 C   0  0  0  0  0  0  0  0  0  0  0  0
    6.2326  -15.3257   25.6888 C   0  0  0  0  0  0  0  0  0  0  0  0
    5.5866  -14.4119   26.4299 N   0  0  0  0  0  0  0  0  0  0  0  0
    6.2102  -13.2415   26.3099 C   0  0  0  0  0  0  0  0  0  0  0  0
    5.9213  -12.0035   26.8736 C   0  0  0  0  0  0  0  0  0  0  0  0
    6.7020  -10.8958   26.6099 C   0  0  0  0  0  0  0  0  0  0  0  0
    7.7670  -11.0835   25.7695 C   0  0  0  0  0  0  0  0  0  0  0  0
    8.0792  -12.2945   25.1964 C   0  0  0  0  0  0  0  0  0  0  0  0
    7.2944  -13.4014   25.4647 C   0  0  0  0  0  0  0  0  0  0  0  0
    8.9499  -17.5769   23.2426 C   0  0  0  0  0  0  0  0  0  0  0  0
    9.3369  -18.6126   23.8411 O   0  0  0  0  0  0  0  0  0  0  0  0
    9.5712  -17.2544   22.0211 N   0  0  0  0  0  0  0  0  0  0  0  0
   10.6819  -18.0079   21.4657 C   0  0  1  0  0  0  0  0  0  0  0  0
   10.7318  -17.9234   19.9727 C   0  0  0  0  0  0  0  0  0  0  0  0
   10.8915  -16.5621   19.4315 C   0  0  0  0  0  0  0  0  0  0  0  0
    9.9105  -15.8856   19.0607 O   0  0  0  0  0  0  0  0  0  0  0  0
   11.9286  -17.5901   22.1482 C   0  0  0  0  0  0  0  0  0  0  0  0
   13.0456  -18.1228   21.8429 O   0  0  0  0  0  0  0  0  0  0  0  0
   12.1542  -16.0125   19.3280 O   0  0  0  0  0  0  0  0  0  0  0  0
   11.9794  -16.5953   23.1621 N   0  0  0  0  0  0  0  0  0  0  0  0
   13.2132  -16.1230   23.7555 C   0  0  0  0  0  0  0  0  0  0  0  0
   13.7191  -16.9867   24.8439 C   0  0  0  0  0  0  0  0  0  0  0  0
   14.5933  -16.5532   25.6172 O   0  0  0  0  0  0  0  0  0  0  0  0
   13.2152  -18.2566   24.9844 O   0  0  0  0  0  0  0  0  0  0  0  0
  2  3  1  0
  2  1  1  1
  4  5  2  0
  4  3  1  0
  6  5  1  0
  7 12  2  0
  7  6  1  0
  8  7  1  0
  9 10  1  0
  9  8  2  0
 10 11  2  0
 11 12  1  0
 12  4  1  0
 13  2  1  0
 14 13  2  0
 15 13  1  0
 16 15  1  0
 16 17  1  6
 17 18  1  0
 18 22  1  0
 19 18  2  0
 20 16  1  0
 20 21  2  0
 23 20  1  0
 24 23  1  0
 24 25  1  0
 25 27  1  0
 26 25  2  0
M  END
$$$$
