WDG.pdb
     RDKit          3D

 27 28  0  0  1  0  0  0  0  0999 V2000
    7.2583  -17.8894   24.0317 N   0  0  0  0  0  0  0  0  0  0  0  0
    8.1921  -16.8680   23.7291 C   0  0  1  0  0  0  0  0  0  0  0  0
    8.6822  -16.1644   24.9453 C   0  0  0  0  0  0  0  0  0  0  0  0
    7.6144  -15.3342   25.5390 C   0  0  0  0  0  0  0  0  0  0  0  0
    6.4751  -15.8039   26.1589 C   0  0  0  0  0  0  0  0  0  0  0  0
    5.7584  -14.7569   26.5971 N   0  0  0  0  0  0  0  0  0  0  0  0
    6.3987  -13.6336   26.2788 C   0  0  0  0  0  0  0  0  0  0  0  0
    6.0583  -12.3051   26.5091 C   0  0  0  0  0  0  0  0  0  0  0  0
    6.8699  -11.2727   26.0829 C   0  0  0  0  0  0  0  0  0  0  0  0
    8.0182  -11.6278   25.4266 C   0  0  0  0  0  0  0  0  0  0  0  0
    8.3831  -12.9317   25.1836 C   0  0  0  0  0  0  0  0  0  0  0  0
    7.5669  -13.9624   25.6135 C   0  0  0  0  0  0  0  0  0  0  0  0
    9.3050  -17.3515   22.8596 C   0  0  0  0  0  0  0  0  0  0  0  0
    9.6478  -18.5567   22.9642 O   0  0  0  0  0  0  0  0  0  0  0  0
    9.9969  -16.5511   21.9308 N   0  0  0  0  0  0  0  0  0  0  0  0
   11.1599  -17.0089   21.1907 C   0  0  1  0  0  0  0  0  0  0  0  0
   11.1886  -16.4720   19.7944 C   0  0  0  0  0  0  0  0  0  0  0  0
   10.3050  -17.1675   18.8421 C   0  0  0  0  0  0  0  0  0  0  0  0
   10.1633  -18.4072   18.8656 O   0  0  0  0  0  0  0  0  0  0  0  0
   12.3748  -16.7190   21.9872 C   0  0  0  0  0  0  0  0  0  0  0  0
   13.5327  -16.9845   21.5249 O   0  0  0  0  0  0  0  0  0  0  0  0
    9.6120  -16.4379   17.8961 O   0  0  0  0  0  0  0  0  0  0  0  0
   12.3497  -16.1400   23.2850 N   0  0  0  0  0  0  0  0  0  0  0  0
   13.5440  -15.8122   24.0358 C   0  0  0  0  0  0  0  0  0  0  0  0
   14.1146  -16.9577   24.7765 C   0  0  0  0  0  0  0  0  0  0  0  0
   13.6684  -18.1028   24.5772 O   0  0  0  0  0  0  0  0  0  0  0  0
   15.1302  -16.7393   25.6750 O   0  0  0  0  0  0  0  0  0  0  0  0
  2  3  1  0
  2  1  1  1
  4  5  2  0
  4  3  1  0
  6  5  1  0
  7 12  2  0
  7  6  1  0
  8  7  1  0
  9 10  1  0
  9  8  2  0
 10 11  2  0
 11 12  1  0
 12  4  1  0
 13  2  1  0
 14 13  2  0
 15 13  1  0
 16 15  1  0
 16 17  1  6
 17 18  1  0
 18 22  1  0
 19 18  2  0
 20 16  1  0
 20 21  2  0
 23 20  1  0
 24 23  1  0
 24 25  1  0
 25 27  1  0
 26 25  2  0
M  END
$$$$
