WDG.pdb
     RDKit          3D

 27 28  0  0  1  0  0  0  0  0999 V2000
    8.7000  -16.6187   23.7989 N   0  0  0  0  0  0  0  0  0  0  0  0
    9.7824  -15.9121   24.3783 C   0  0  1  0  0  0  0  0  0  0  0  0
    9.4368  -15.3226   25.7003 C   0  0  0  0  0  0  0  0  0  0  0  0
    8.0813  -14.7362   25.6765 C   0  0  0  0  0  0  0  0  0  0  0  0
    6.9030  -15.4298   25.4930 C   0  0  0  0  0  0  0  0  0  0  0  0
    5.8777  -14.5663   25.5627 N   0  0  0  0  0  0  0  0  0  0  0  0
    6.3583  -13.3443   25.7839 C   0  0  0  0  0  0  0  0  0  0  0  0
    5.6995  -12.1279   25.9254 C   0  0  0  0  0  0  0  0  0  0  0  0
    6.3962  -10.9564   26.1446 C   0  0  0  0  0  0  0  0  0  0  0  0
    7.7601  -11.0591   26.2139 C   0  0  0  0  0  0  0  0  0  0  0  0
    8.4412  -12.2466   26.0783 C   0  0  0  0  0  0  0  0  0  0  0  0
    7.7383  -13.4177   25.8598 C   0  0  0  0  0  0  0  0  0  0  0  0
   11.0349  -16.7230   24.4227 C   0  0  0  0  0  0  0  0  0  0  0  0
   11.8384  -16.5071   25.3655 O   0  0  0  0  0  0  0  0  0  0  0  0
   11.3782  -17.7127   23.4821 N   0  0  0  0  0  0  0  0  0  0  0  0
   12.6756  -18.3649   23.4452 C   0  0  1  0  0  0  0  0  0  0  0  0
   12.5577  -19.8560   23.4073 C   0  0  0  0  0  0  0  0  0  0  0  0
   11.8345  -20.4520   24.5445 C   0  0  0  0  0  0  0  0  0  0  0  0
   10.6809  -20.9112   24.4187 O   0  0  0  0  0  0  0  0  0  0  0  0
   13.4699  -17.7816   22.3391 C   0  0  0  0  0  0  0  0  0  0  0  0
   14.6167  -18.2536   22.0444 O   0  0  0  0  0  0  0  0  0  0  0  0
   12.4400  -20.5086   25.7844 O   0  0  0  0  0  0  0  0  0  0  0  0
   13.0329  -16.6879   21.5434 N   0  0  0  0  0  0  0  0  0  0  0  0
   13.8054  -16.1389   20.4483 C   0  0  0  0  0  0  0  0  0  0  0  0
   14.9412  -15.2982   20.8838 C   0  0  0  0  0  0  0  0  0  0  0  0
   15.2528  -15.2614   22.0887 O   0  0  0  0  0  0  0  0  0  0  0  0
   15.6357  -14.5692   19.9496 O   0  0  0  0  0  0  0  0  0  0  0  0
  2  3  1  0
  2  1  1  1
  4  5  2  0
  4  3  1  0
  6  5  1  0
  7 12  2  0
  7  6  1  0
  8  7  1  0
  9 10  1  0
  9  8  2  0
 10 11  2  0
 11 12  1  0
 12  4  1  0
 13  2  1  0
 14 13  2  0
 15 13  1  0
 16 15  1  0
 16 17  1  6
 17 18  1  0
 18 22  1  0
 19 18  2  0
 20 16  1  0
 20 21  2  0
 23 20  1  0
 24 23  1  0
 24 25  1  0
 25 27  1  0
 26 25  2  0
M  END
$$$$
