WDG.pdb
     RDKit          3D

 27 28  0  0  1  0  0  0  0  0999 V2000
    7.2035  -17.5929   24.2026 N   0  0  0  0  0  0  0  0  0  0  0  0
    8.1283  -16.5970   23.8034 C   0  0  1  0  0  0  0  0  0  0  0  0
    8.6179  -15.7812   24.9478 C   0  0  0  0  0  0  0  0  0  0  0  0
    7.5150  -15.0050   25.5504 C   0  0  0  0  0  0  0  0  0  0  0  0
    6.3338  -15.5236   26.0391 C   0  0  0  0  0  0  0  0  0  0  0  0
    5.5928  -14.5196   26.5338 N   0  0  0  0  0  0  0  0  0  0  0  0
    6.2580  -13.3766   26.3783 C   0  0  0  0  0  0  0  0  0  0  0  0
    5.9079  -12.0753   26.7216 C   0  0  0  0  0  0  0  0  0  0  0  0
    6.7511  -11.0136   26.4614 C   0  0  0  0  0  0  0  0  0  0  0  0
    7.9405  -11.3117   25.8514 C   0  0  0  0  0  0  0  0  0  0  0  0
    8.3160  -12.5874   25.4997 C   0  0  0  0  0  0  0  0  0  0  0  0
    7.4680  -13.6479   25.7636 C   0  0  0  0  0  0  0  0  0  0  0  0
    9.2415  -17.1501   22.9768 C   0  0  0  0  0  0  0  0  0  0  0  0
    9.4042  -18.3968   22.9738 O   0  0  0  0  0  0  0  0  0  0  0  0
   10.1213  -16.3720   22.2006 N   0  0  0  0  0  0  0  0  0  0  0  0
   11.2265  -16.9317   21.4421 C   0  0  1  0  0  0  0  0  0  0  0  0
   11.6084  -16.0698   20.2803 C   0  0  0  0  0  0  0  0  0  0  0  0
   12.6592  -16.6275   19.4107 C   0  0  0  0  0  0  0  0  0  0  0  0
   12.7038  -17.8438   19.1351 O   0  0  0  0  0  0  0  0  0  0  0  0
   12.3369  -17.2365   22.3742 C   0  0  0  0  0  0  0  0  0  0  0  0
   13.3589  -17.8858   21.9759 O   0  0  0  0  0  0  0  0  0  0  0  0
   13.6231  -15.7913   18.8826 O   0  0  0  0  0  0  0  0  0  0  0  0
   12.3534  -16.8425   23.7397 N   0  0  0  0  0  0  0  0  0  0  0  0
   13.4109  -17.2027   24.6614 C   0  0  0  0  0  0  0  0  0  0  0  0
   14.6320  -16.3814   24.5166 C   0  0  0  0  0  0  0  0  0  0  0  0
   14.7054  -15.5453   23.5969 O   0  0  0  0  0  0  0  0  0  0  0  0
   15.6683  -16.5548   25.4011 O   0  0  0  0  0  0  0  0  0  0  0  0
  2  3  1  0
  2  1  1  1
  4  5  2  0
  4  3  1  0
  6  5  1  0
  7 12  2  0
  7  6  1  0
  8  7  1  0
  9 10  1  0
  9  8  2  0
 10 11  2  0
 11 12  1  0
 12  4  1  0
 13  2  1  0
 14 13  2  0
 15 13  1  0
 16 15  1  0
 16 17  1  6
 17 18  1  0
 18 22  1  0
 19 18  2  0
 20 16  1  0
 20 21  2  0
 23 20  1  0
 24 23  1  0
 24 25  1  0
 25 27  1  0
 26 25  2  0
M  END
$$$$
