WDG.pdb
     RDKit          3D

 27 28  0  0  1  0  0  0  0  0999 V2000
    7.0328  -17.4459   25.0932 N   0  0  0  0  0  0  0  0  0  0  0  0
    7.9373  -17.1275   24.0506 C   0  0  1  0  0  0  0  0  0  0  0  0
    8.2582  -15.6753   23.9971 C   0  0  0  0  0  0  0  0  0  0  0  0
    7.3808  -14.9089   24.9053 C   0  0  0  0  0  0  0  0  0  0  0  0
    6.3885  -15.4351   25.7062 C   0  0  0  0  0  0  0  0  0  0  0  0
    5.8275  -14.4394   26.4101 N   0  0  0  0  0  0  0  0  0  0  0  0
    6.4255  -13.2942   26.0874 C   0  0  0  0  0  0  0  0  0  0  0  0
    6.1966  -11.9987   26.5382 C   0  0  0  0  0  0  0  0  0  0  0  0
    6.9342  -10.9331   26.0624 C   0  0  0  0  0  0  0  0  0  0  0  0
    7.8949  -11.2214   25.1299 C   0  0  0  0  0  0  0  0  0  0  0  0
    8.1458  -12.4912   24.6641 C   0  0  0  0  0  0  0  0  0  0  0  0
    7.4047  -13.5555   25.1448 C   0  0  0  0  0  0  0  0  0  0  0  0
    9.1600  -17.9835   24.0744 C   0  0  0  0  0  0  0  0  0  0  0  0
    9.5146  -18.4664   25.1798 O   0  0  0  0  0  0  0  0  0  0  0  0
    9.9431  -18.2873   22.9445 N   0  0  0  0  0  0  0  0  0  0  0  0
   11.1870  -19.0345   23.0113 C   0  0  1  0  0  0  0  0  0  0  0  0
   11.1822  -20.2225   22.1018 C   0  0  0  0  0  0  0  0  0  0  0  0
   10.4836  -21.4076   22.6299 C   0  0  0  0  0  0  0  0  0  0  0  0
   10.6599  -21.8044   23.7999 O   0  0  0  0  0  0  0  0  0  0  0  0
   12.3156  -18.0992   22.7970 C   0  0  0  0  0  0  0  0  0  0  0  0
   13.5136  -18.4614   23.0385 O   0  0  0  0  0  0  0  0  0  0  0  0
    9.6099  -22.1032   21.8174 O   0  0  0  0  0  0  0  0  0  0  0  0
   12.1605  -16.7693   22.3199 N   0  0  0  0  0  0  0  0  0  0  0  0
   13.2671  -15.8535   22.1357 C   0  0  0  0  0  0  0  0  0  0  0  0
   14.1996  -16.2553   21.0607 C   0  0  0  0  0  0  0  0  0  0  0  0
   15.1359  -15.4982   20.7439 O   0  0  0  0  0  0  0  0  0  0  0  0
   14.0172  -17.4602   20.4273 O   0  0  0  0  0  0  0  0  0  0  0  0
  2  3  1  0
  2  1  1  1
  4  5  2  0
  4  3  1  0
  6  5  1  0
  7 12  2  0
  7  6  1  0
  8  7  1  0
  9 10  1  0
  9  8  2  0
 10 11  2  0
 11 12  1  0
 12  4  1  0
 13  2  1  0
 14 13  2  0
 15 13  1  0
 16 15  1  0
 16 17  1  6
 17 18  1  0
 18 22  1  0
 19 18  2  0
 20 16  1  0
 20 21  2  0
 23 20  1  0
 24 23  1  0
 24 25  1  0
 25 27  1  0
 26 25  2  0
M  END
$$$$
