SHA.pdb
     RDKit          3D

 22 22  0  0  1  0  0  0  0  0999 V2000
   12.8296  -15.5634   14.9426 O   0  0  0  0  0  0  0  0  0  0  0  0
   12.2092  -16.8181   15.0490 C   0  0  0  0  0  0  0  0  0  0  0  0
   10.9485  -16.7525   14.2251 C   0  0  2  0  0  0  0  0  0  0  0  0
   11.1025  -15.9544   13.0399 N   0  0  0  0  0  0  0  0  0  0  0  0
    9.7894  -16.2551   15.0022 C   0  0  0  0  0  0  0  0  0  0  0  0
    9.1884  -15.1899   14.6656 O   0  0  0  0  0  0  0  0  0  0  0  0
    9.3397  -16.9668   16.1326 N   0  0  0  0  0  0  0  0  0  0  0  0
    8.2175  -16.5219   16.9200 C   0  0  1  0  0  0  0  0  0  0  0  0
    7.5982  -17.7773   17.5312 C   0  0  0  0  0  0  0  0  0  0  0  0
    6.9560  -18.5268   16.4233 C   0  0  0  0  0  0  0  0  0  0  0  0
    6.0772  -17.9946   15.4950 C   0  0  0  0  0  0  0  0  0  0  0  0
    5.6873  -18.9557   14.6313 N   0  0  0  0  0  0  0  0  0  0  0  0
    6.3074  -20.0847   15.0021 C   0  0  0  0  0  0  0  0  0  0  0  0
    7.0765  -19.8257   16.0879 N   0  0  0  0  0  0  0  0  0  0  0  0
    8.7248  -15.6042   17.9596 C   0  0  0  0  0  0  0  0  0  0  0  0
    9.7970  -15.8444   18.5714 O   0  0  0  0  0  0  0  0  0  0  0  0
    7.4116  -12.4514   19.5368 C   0  0  0  0  0  0  0  0  0  0  0  0
    8.4899  -13.5356   19.4068 C   0  0  2  0  0  0  0  0  0  0  0  0
    8.0517  -14.4046   18.3384 N   0  0  0  0  0  0  0  0  0  0  0  0
    8.5707  -14.2103   20.7046 C   0  0  0  0  0  0  0  0  0  0  0  0
    7.9397  -15.2877   20.8536 O   0  0  0  0  0  0  0  0  0  0  0  0
    9.2967  -13.7487   21.7931 O   0  0  0  0  0  0  0  0  0  0  0  0
  1  2  1  0
  3  4  1  6
  3  5  1  0
  3  2  1  0
  5  6  2  0
  7  5  1  0
  7  8  1  0
  8 15  1  0
  9 10  1  0
  8  9  1  1
 10 14  1  0
 11 12  1  0
 11 10  2  0
 12 13  1  0
 13 14  2  0
 15 19  1  0
 15 16  2  0
 18 17  1  1
 18 20  1  0
 19 18  1  0
 20 22  1  0
 21 20  2  0
M  END
$$$$
