SHA.pdb
     RDKit          3D

 22 22  0  0  1  0  0  0  0  0999 V2000
   10.6182  -12.8889   19.6752 O   0  0  0  0  0  0  0  0  0  0  0  0
   10.2278  -14.1824   20.0557 C   0  0  0  0  0  0  0  0  0  0  0  0
    8.7388  -14.2704   19.8375 C   0  0  2  0  0  0  0  0  0  0  0  0
    8.2290  -13.1802   19.0521 N   0  0  0  0  0  0  0  0  0  0  0  0
    7.9838  -14.3515   21.1095 C   0  0  0  0  0  0  0  0  0  0  0  0
    7.3007  -13.3669   21.5253 O   0  0  0  0  0  0  0  0  0  0  0  0
    8.0177  -15.5337   21.8764 N   0  0  0  0  0  0  0  0  0  0  0  0
    7.3135  -15.6538   23.1282 C   0  0  1  0  0  0  0  0  0  0  0  0
    6.9488  -17.1299   23.2747 C   0  0  0  0  0  0  0  0  0  0  0  0
    5.8277  -17.3940   22.3392 C   0  0  0  0  0  0  0  0  0  0  0  0
    5.0712  -16.4285   21.6968 C   0  0  0  0  0  0  0  0  0  0  0  0
    4.1379  -17.0199   20.9216 N   0  0  0  0  0  0  0  0  0  0  0  0
    4.2958  -18.3431   21.0665 C   0  0  0  0  0  0  0  0  0  0  0  0
    5.3195  -18.5707   21.9253 N   0  0  0  0  0  0  0  0  0  0  0  0
    8.2190  -15.2077   24.2057 C   0  0  0  0  0  0  0  0  0  0  0  0
    9.4540  -15.4397   24.1544 O   0  0  0  0  0  0  0  0  0  0  0  0
    7.8361  -12.9869   27.1961 C   0  0  0  0  0  0  0  0  0  0  0  0
    8.6452  -14.0258   26.4080 C   0  0  2  0  0  0  0  0  0  0  0  0
    7.7704  -14.4967   25.3584 N   0  0  0  0  0  0  0  0  0  0  0  0
    9.0262  -15.0746   27.3571 C   0  0  0  0  0  0  0  0  0  0  0  0
    8.4345  -16.1819   27.2871 O   0  0  0  0  0  0  0  0  0  0  0  0
    9.9990  -14.9401   28.3374 O   0  0  0  0  0  0  0  0  0  0  0  0
  1  2  1  0
  3  4  1  1
  3  5  1  0
  3  2  1  0
  5  6  2  0
  7  5  1  0
  7  8  1  0
  8 15  1  0
  9 10  1  0
  8  9  1  1
 10 14  1  0
 11 12  1  0
 11 10  2  0
 12 13  1  0
 13 14  2  0
 15 19  1  0
 15 16  2  0
 18 17  1  1
 18 20  1  0
 19 18  1  0
 20 22  1  0
 21 20  2  0
M  END
$$$$
