SHA.pdb
     RDKit          3D

 22 22  0  0  1  0  0  0  0  0999 V2000
   11.8084  -19.9399   21.0693 O   0  0  0  0  0  0  0  0  0  0  0  0
   10.7568  -19.6598   20.1826 C   0  0  0  0  0  0  0  0  0  0  0  0
   11.0318  -18.2985   19.5963 C   0  0  2  0  0  0  0  0  0  0  0  0
   12.3443  -18.1991   19.0194 N   0  0  0  0  0  0  0  0  0  0  0  0
   10.8476  -17.2091   20.5830 C   0  0  0  0  0  0  0  0  0  0  0  0
   11.8434  -16.5727   21.0441 O   0  0  0  0  0  0  0  0  0  0  0  0
    9.5530  -16.8664   21.0227 N   0  0  0  0  0  0  0  0  0  0  0  0
    9.3323  -15.9208   22.0878 C   0  0  1  0  0  0  0  0  0  0  0  0
    7.8810  -15.4620   21.9595 C   0  0  0  0  0  0  0  0  0  0  0  0
    7.8286  -14.5016   20.8296 C   0  0  0  0  0  0  0  0  0  0  0  0
    8.9057  -14.1190   20.0481 C   0  0  0  0  0  0  0  0  0  0  0  0
    8.5006  -13.2333   19.1136 N   0  0  0  0  0  0  0  0  0  0  0  0
    7.1849  -13.0528   19.2953 C   0  0  0  0  0  0  0  0  0  0  0  0
    6.7768  -13.8209   20.3350 N   0  0  0  0  0  0  0  0  0  0  0  0
    9.5727  -16.6129   23.3697 C   0  0  0  0  0  0  0  0  0  0  0  0
    9.3205  -17.8377   23.5041 O   0  0  0  0  0  0  0  0  0  0  0  0
   10.8344  -15.5318   26.7456 C   0  0  0  0  0  0  0  0  0  0  0  0
   10.3798  -16.6286   25.7732 C   0  0  2  0  0  0  0  0  0  0  0  0
   10.0968  -15.9589   24.5242 N   0  0  0  0  0  0  0  0  0  0  0  0
    9.2010  -17.2616   26.3698 C   0  0  0  0  0  0  0  0  0  0  0  0
    8.0665  -16.9175   25.9507 O   0  0  0  0  0  0  0  0  0  0  0  0
    9.2392  -18.2208   27.3716 O   0  0  0  0  0  0  0  0  0  0  0  0
  1  2  1  0
  3  4  1  1
  3  5  1  0
  3  2  1  0
  5  6  2  0
  7  5  1  0
  7  8  1  0
  8 15  1  0
  9 10  1  0
  8  9  1  1
 10 14  1  0
 11 12  1  0
 11 10  2  0
 12 13  1  0
 13 14  2  0
 15 19  1  0
 15 16  2  0
 18 17  1  1
 18 20  1  0
 19 18  1  0
 20 22  1  0
 21 20  2  0
M  END
$$$$
