SHA.pdb
     RDKit          3D

 22 22  0  0  1  0  0  0  0  0999 V2000
    7.8775  -13.5803   15.3333 O   0  0  0  0  0  0  0  0  0  0  0  0
    8.3355  -14.6732   16.0858 C   0  0  0  0  0  0  0  0  0  0  0  0
    9.3654  -15.3818   15.2433 C   0  0  2  0  0  0  0  0  0  0  0  0
    8.7848  -16.0756   14.1266 N   0  0  0  0  0  0  0  0  0  0  0  0
   10.1889  -16.3276   16.0320 C   0  0  0  0  0  0  0  0  0  0  0  0
    9.8475  -17.5432   16.1541 O   0  0  0  0  0  0  0  0  0  0  0  0
   11.3697  -15.8819   16.6594 N   0  0  0  0  0  0  0  0  0  0  0  0
   12.1968  -16.7617   17.4463 C   0  0  1  0  0  0  0  0  0  0  0  0
   13.6150  -16.1996   17.3690 C   0  0  0  0  0  0  0  0  0  0  0  0
   14.2671  -16.8294   16.1944 C   0  0  0  0  0  0  0  0  0  0  0  0
   13.7581  -17.8898   15.4639 C   0  0  0  0  0  0  0  0  0  0  0  0
   14.6094  -18.2078   14.4659 N   0  0  0  0  0  0  0  0  0  0  0  0
   15.6464  -17.3634   14.5574 C   0  0  0  0  0  0  0  0  0  0  0  0
   15.4399  -16.5278   15.6046 N   0  0  0  0  0  0  0  0  0  0  0  0
   11.6832  -16.7539   18.8306 C   0  0  0  0  0  0  0  0  0  0  0  0
   11.6187  -15.6873   19.4937 O   0  0  0  0  0  0  0  0  0  0  0  0
   10.2951  -19.3739   21.1442 C   0  0  0  0  0  0  0  0  0  0  0  0
   10.8550  -17.9666   20.8975 C   0  0  2  0  0  0  0  0  0  0  0  0
   11.2325  -17.9287   19.5030 N   0  0  0  0  0  0  0  0  0  0  0  0
   11.9897  -17.7965   21.8084 C   0  0  0  0  0  0  0  0  0  0  0  0
   13.1506  -17.8856   21.3335 O   0  0  0  0  0  0  0  0  0  0  0  0
   11.8823  -17.5423   23.1682 O   0  0  0  0  0  0  0  0  0  0  0  0
  1  2  1  0
  3  4  1  6
  3  5  1  0
  3  2  1  0
  5  6  2  0
  7  5  1  0
  7  8  1  0
  8 15  1  0
  9 10  1  0
  8  9  1  1
 10 14  1  0
 11 12  1  0
 11 10  2  0
 12 13  1  0
 13 14  2  0
 15 19  1  0
 15 16  2  0
 18 17  1  1
 18 20  1  0
 19 18  1  0
 20 22  1  0
 21 20  2  0
M  END
$$$$
