SHA.pdb
     RDKit          3D

 22 22  0  0  1  0  0  0  0  0999 V2000
   11.0833  -17.5549   18.9019 O   0  0  0  0  0  0  0  0  0  0  0  0
   11.0882  -16.4855   19.8113 C   0  0  0  0  0  0  0  0  0  0  0  0
   10.8926  -17.0790   21.1832 C   0  0  2  0  0  0  0  0  0  0  0  0
    9.9073  -18.1251   21.1985 N   0  0  0  0  0  0  0  0  0  0  0  0
   10.5377  -16.0583   22.1965 C   0  0  0  0  0  0  0  0  0  0  0  0
   11.2775  -15.0457   22.3878 O   0  0  0  0  0  0  0  0  0  0  0  0
    9.3647  -16.2038   22.9642 N   0  0  0  0  0  0  0  0  0  0  0  0
    8.9671  -15.2267   23.9463 C   0  0  1  0  0  0  0  0  0  0  0  0
    7.4505  -15.3479   24.0818 C   0  0  0  0  0  0  0  0  0  0  0  0
    7.0038  -14.2370   24.9582 C   0  0  0  0  0  0  0  0  0  0  0  0
    7.5321  -12.9572   24.9676 C   0  0  0  0  0  0  0  0  0  0  0  0
    6.8907  -12.2046   25.8863 N   0  0  0  0  0  0  0  0  0  0  0  0
    5.9666  -12.9916   26.4550 C   0  0  0  0  0  0  0  0  0  0  0  0
    6.0344  -14.2233   25.8933 N   0  0  0  0  0  0  0  0  0  0  0  0
    9.6538  -15.5478   25.2134 C   0  0  0  0  0  0  0  0  0  0  0  0
   10.0839  -16.7069   25.4438 O   0  0  0  0  0  0  0  0  0  0  0  0
   10.5119  -13.5884   28.3090 C   0  0  0  0  0  0  0  0  0  0  0  0
   10.5905  -14.8710   27.4702 C   0  0  2  0  0  0  0  0  0  0  0  0
    9.8752  -14.5891   26.2465 N   0  0  0  0  0  0  0  0  0  0  0  0
    9.9762  -15.9361   28.2666 C   0  0  0  0  0  0  0  0  0  0  0  0
    8.7990  -16.2807   27.9895 O   0  0  0  0  0  0  0  0  0  0  0  0
   10.5983  -16.6013   29.3134 O   0  0  0  0  0  0  0  0  0  0  0  0
  1  2  1  0
  3  4  1  6
  3  5  1  0
  3  2  1  0
  5  6  2  0
  7  5  1  0
  7  8  1  0
  8 15  1  0
  9 10  1  0
  8  9  1  1
 10 14  1  0
 11 12  1  0
 11 10  2  0
 12 13  1  0
 13 14  2  0
 15 19  1  0
 15 16  2  0
 18 17  1  1
 18 20  1  0
 19 18  1  0
 20 22  1  0
 21 20  2  0
M  END
$$$$
