SHA.pdb
     RDKit          3D

 22 22  0  0  1  0  0  0  0  0999 V2000
   19.6197  -19.6217   28.2775 O   0  0  0  0  0  0  0  0  0  0  0  0
   19.5674  -20.9312   27.7745 C   0  0  0  0  0  0  0  0  0  0  0  0
   18.4715  -20.9573   26.7397 C   0  0  2  0  0  0  0  0  0  0  0  0
   18.5822  -19.8854   25.7888 N   0  0  0  0  0  0  0  0  0  0  0  0
   17.1198  -20.9358   27.3455 C   0  0  0  0  0  0  0  0  0  0  0  0
   16.4086  -19.8859   27.3138 O   0  0  0  0  0  0  0  0  0  0  0  0
   16.6069  -22.0915   27.9683 N   0  0  0  0  0  0  0  0  0  0  0  0
   15.3325  -22.0961   28.6413 C   0  0  1  0  0  0  0  0  0  0  0  0
   14.6231  -23.3773   28.2071 C   0  0  0  0  0  0  0  0  0  0  0  0
   13.2674  -23.3472   28.8094 C   0  0  0  0  0  0  0  0  0  0  0  0
   12.4135  -22.2573   28.8155 C   0  0  0  0  0  0  0  0  0  0  0  0
   11.2651  -22.5798   29.4471 N   0  0  0  0  0  0  0  0  0  0  0  0
   11.3834  -23.8563   29.8385 C   0  0  0  0  0  0  0  0  0  0  0  0
   12.5965  -24.3222   29.4526 N   0  0  0  0  0  0  0  0  0  0  0  0
   15.5846  -22.0803   30.0961 C   0  0  0  0  0  0  0  0  0  0  0  0
   16.4628  -22.8185   30.6114 O   0  0  0  0  0  0  0  0  0  0  0  0
   14.2648  -20.0454   32.9680 C   0  0  0  0  0  0  0  0  0  0  0  0
   15.1059  -21.2103   32.4290 C   0  0  2  0  0  0  0  0  0  0  0  0
   14.8674  -21.2457   31.0040 N   0  0  0  0  0  0  0  0  0  0  0  0
   14.6499  -22.4179   33.1217 C   0  0  0  0  0  0  0  0  0  0  0  0
   15.3159  -22.8237   34.1081 O   0  0  0  0  0  0  0  0  0  0  0  0
   13.5290  -23.1565   32.7706 O   0  0  0  0  0  0  0  0  0  0  0  0
  1  2  1  0
  3  4  1  6
  3  5  1  0
  3  2  1  0
  5  6  2  0
  7  5  1  0
  7  8  1  0
  8 15  1  0
  9 10  1  0
  8  9  1  1
 10 14  1  0
 11 12  1  0
 11 10  2  0
 12 13  1  0
 13 14  2  0
 15 19  1  0
 15 16  2  0
 18 17  1  1
 18 20  1  0
 19 18  1  0
 20 22  1  0
 21 20  2  0
M  END
$$$$
