SHA.pdb
     RDKit          3D

 22 22  0  0  1  0  0  0  0  0999 V2000
    9.6491  -18.9002   20.9839 O   0  0  0  0  0  0  0  0  0  0  0  0
    8.6838  -18.0290   20.4552 C   0  0  0  0  0  0  0  0  0  0  0  0
    9.3329  -16.6726   20.3475 C   0  0  2  0  0  0  0  0  0  0  0  0
   10.6253  -16.7256   19.7213 N   0  0  0  0  0  0  0  0  0  0  0  0
    9.4529  -15.9964   21.6601 C   0  0  0  0  0  0  0  0  0  0  0  0
   10.5903  -15.7608   22.1698 O   0  0  0  0  0  0  0  0  0  0  0  0
    8.2944  -15.6048   22.3609 N   0  0  0  0  0  0  0  0  0  0  0  0
    8.3591  -14.9914   23.6635 C   0  0  1  0  0  0  0  0  0  0  0  0
    6.9885  -14.3638   23.9102 C   0  0  0  0  0  0  0  0  0  0  0  0
    7.0808  -13.6089   25.1843 C   0  0  0  0  0  0  0  0  0  0  0  0
    8.1793  -13.5835   26.0268 C   0  0  0  0  0  0  0  0  0  0  0  0
    7.9195  -12.7978   27.0931 N   0  0  0  0  0  0  0  0  0  0  0  0
    6.6740  -12.3284   26.9342 C   0  0  0  0  0  0  0  0  0  0  0  0
    6.1650  -12.8194   25.7778 N   0  0  0  0  0  0  0  0  0  0  0  0
    8.6595  -16.0475   24.6508 C   0  0  0  0  0  0  0  0  0  0  0  0
    7.9209  -17.0589   24.7654 O   0  0  0  0  0  0  0  0  0  0  0  0
   11.5686  -17.4495   26.1391 C   0  0  0  0  0  0  0  0  0  0  0  0
   10.1234  -17.0478   26.4632 C   0  0  2  0  0  0  0  0  0  0  0  0
    9.7838  -15.9999   25.5277 N   0  0  0  0  0  0  0  0  0  0  0  0
   10.1102  -16.6033   27.8590 C   0  0  0  0  0  0  0  0  0  0  0  0
    9.8817  -15.3891   28.0931 O   0  0  0  0  0  0  0  0  0  0  0  0
   10.3326  -17.4258   28.9541 O   0  0  0  0  0  0  0  0  0  0  0  0
  1  2  1  0
  3  4  1  1
  3  5  1  0
  3  2  1  0
  5  6  2  0
  7  5  1  0
  7  8  1  0
  8 15  1  0
  9 10  1  0
  8  9  1  1
 10 14  1  0
 11 12  1  0
 11 10  2  0
 12 13  1  0
 13 14  2  0
 15 19  1  0
 15 16  2  0
 18 17  1  6
 18 20  1  0
 19 18  1  0
 20 22  1  0
 21 20  2  0
M  END
$$$$
