SHA.pdb
     RDKit          3D

 22 22  0  0  1  0  0  0  0  0999 V2000
   12.4571  -16.7675   22.0225 O   0  0  0  0  0  0  0  0  0  0  0  0
   11.4904  -17.7492   21.7537 C   0  0  0  0  0  0  0  0  0  0  0  0
   10.2526  -17.0261   21.2875 C   0  0  2  0  0  0  0  0  0  0  0  0
   10.4563  -16.3191   20.0530 N   0  0  0  0  0  0  0  0  0  0  0  0
    9.7267  -16.0885   22.3068 C   0  0  0  0  0  0  0  0  0  0  0  0
    9.7877  -14.8338   22.1307 O   0  0  0  0  0  0  0  0  0  0  0  0
    9.1485  -16.5860   23.4920 N   0  0  0  0  0  0  0  0  0  0  0  0
    8.5456  -15.7179   24.4719 C   0  0  1  0  0  0  0  0  0  0  0  0
    7.2102  -16.3575   24.8472 C   0  0  0  0  0  0  0  0  0  0  0  0
    7.4636  -17.8065   25.0421 C   0  0  0  0  0  0  0  0  0  0  0  0
    8.6922  -18.4325   24.9172 C   0  0  0  0  0  0  0  0  0  0  0  0
    8.5594  -19.7531   25.1628 N   0  0  0  0  0  0  0  0  0  0  0  0
    7.2657  -19.9674   25.4404 C   0  0  0  0  0  0  0  0  0  0  0  0
    6.6009  -18.7884   25.3675 N   0  0  0  0  0  0  0  0  0  0  0  0
    9.4555  -15.6380   25.6321 C   0  0  0  0  0  0  0  0  0  0  0  0
   10.3859  -16.4699   25.7867 O   0  0  0  0  0  0  0  0  0  0  0  0
    9.7839  -13.2898   28.5546 C   0  0  0  0  0  0  0  0  0  0  0  0
   10.2507  -14.5195   27.7640 C   0  0  2  0  0  0  0  0  0  0  0  0
    9.3492  -14.6342   26.6403 N   0  0  0  0  0  0  0  0  0  0  0  0
   10.1827  -15.6619   28.6787 C   0  0  0  0  0  0  0  0  0  0  0  0
   11.0281  -15.7301   29.6070 O   0  0  0  0  0  0  0  0  0  0  0  0
    9.2487  -16.6849   28.5997 O   0  0  0  0  0  0  0  0  0  0  0  0
  1  2  1  0
  3  4  1  6
  3  5  1  0
  3  2  1  0
  5  6  2  0
  7  5  1  0
  7  8  1  0
  8 15  1  0
  9 10  1  0
  8  9  1  1
 10 14  1  0
 11 12  1  0
 11 10  2  0
 12 13  1  0
 13 14  2  0
 15 19  1  0
 15 16  2  0
 18 17  1  1
 18 20  1  0
 19 18  1  0
 20 22  1  0
 21 20  2  0
M  END
$$$$
