SHA.pdb
     RDKit          3D

 22 22  0  0  1  0  0  0  0  0999 V2000
    8.0336  -13.5255   20.2547 O   0  0  0  0  0  0  0  0  0  0  0  0
    8.4608  -12.7130   19.1926 C   0  0  0  0  0  0  0  0  0  0  0  0
    7.8167  -13.2554   17.9423 C   0  0  2  0  0  0  0  0  0  0  0  0
    6.3913  -13.3901   18.0675 N   0  0  0  0  0  0  0  0  0  0  0  0
    8.3955  -14.5534   17.5242 C   0  0  0  0  0  0  0  0  0  0  0  0
    7.7696  -15.6391   17.7206 O   0  0  0  0  0  0  0  0  0  0  0  0
    9.6580  -14.5946   16.8990 N   0  0  0  0  0  0  0  0  0  0  0  0
   10.2655  -15.8337   16.4831 C   0  0  1  0  0  0  0  0  0  0  0  0
   11.2462  -15.4769   15.3676 C   0  0  0  0  0  0  0  0  0  0  0  0
   11.4136  -16.6922   14.5329 C   0  0  0  0  0  0  0  0  0  0  0  0
   10.6035  -17.8143   14.5738 C   0  0  0  0  0  0  0  0  0  0  0  0
   11.0427  -18.7279   13.6826 N   0  0  0  0  0  0  0  0  0  0  0  0
   12.1170  -18.1975   13.0815 C   0  0  0  0  0  0  0  0  0  0  0  0
   12.3425  -16.9639   13.5962 N   0  0  0  0  0  0  0  0  0  0  0  0
   10.9575  -16.4169   17.6498 C   0  0  0  0  0  0  0  0  0  0  0  0
   11.6954  -15.7134   18.3861 O   0  0  0  0  0  0  0  0  0  0  0  0
   10.9242  -19.7689   19.3381 C   0  0  0  0  0  0  0  0  0  0  0  0
   11.5706  -18.3956   19.1117 C   0  0  2  0  0  0  0  0  0  0  0  0
   10.8428  -17.7899   18.0198 N   0  0  0  0  0  0  0  0  0  0  0  0
   12.9818  -18.6377   18.8020 C   0  0  0  0  0  0  0  0  0  0  0  0
   13.7488  -18.9633   19.7437 O   0  0  0  0  0  0  0  0  0  0  0  0
   13.5439  -18.5347   17.5376 O   0  0  0  0  0  0  0  0  0  0  0  0
  1  2  1  0
  3  4  1  1
  3  5  1  0
  3  2  1  0
  5  6  2  0
  7  5  1  0
  7  8  1  0
  8 15  1  0
  9 10  1  0
  8  9  1  6
 10 14  1  0
 11 12  1  0
 11 10  2  0
 12 13  1  0
 13 14  2  0
 15 19  1  0
 15 16  2  0
 18 17  1  6
 18 20  1  0
 19 18  1  0
 20 22  1  0
 21 20  2  0
M  END
$$$$
