SHA.pdb
     RDKit          3D

 22 22  0  0  1  0  0  0  0  0999 V2000
   11.0715  -13.0798   19.7269 O   0  0  0  0  0  0  0  0  0  0  0  0
    9.8312  -12.6320   20.2082 C   0  0  0  0  0  0  0  0  0  0  0  0
    8.8351  -13.7301   19.9349 C   0  0  2  0  0  0  0  0  0  0  0  0
    7.8731  -13.3674   18.9307 N   0  0  0  0  0  0  0  0  0  0  0  0
    8.1235  -14.1668   21.1586 C   0  0  0  0  0  0  0  0  0  0  0  0
    7.0288  -13.6266   21.5032 O   0  0  0  0  0  0  0  0  0  0  0  0
    8.6609  -15.1955   21.9585 N   0  0  0  0  0  0  0  0  0  0  0  0
    8.0375  -15.6121   23.1894 C   0  0  1  0  0  0  0  0  0  0  0  0
    8.1631  -17.1336   23.2398 C   0  0  0  0  0  0  0  0  0  0  0  0
    7.0961  -17.6853   22.3688 C   0  0  0  0  0  0  0  0  0  0  0  0
    6.0141  -16.9767   21.8746 C   0  0  0  0  0  0  0  0  0  0  0  0
    5.2434  -17.7873   21.1191 N   0  0  0  0  0  0  0  0  0  0  0  0
    5.8241  -18.9953   21.1304 C   0  0  0  0  0  0  0  0  0  0  0  0
    6.9469  -18.9345   21.8875 N   0  0  0  0  0  0  0  0  0  0  0  0
    8.7584  -14.9694   24.3062 C   0  0  0  0  0  0  0  0  0  0  0  0
   10.0045  -15.0869   24.4286 O   0  0  0  0  0  0  0  0  0  0  0  0
    7.8011  -12.6018   27.0549 C   0  0  0  0  0  0  0  0  0  0  0  0
    8.7873  -13.6065   26.4440 C   0  0  2  0  0  0  0  0  0  0  0  0
    8.1098  -14.1856   25.3064 N   0  0  0  0  0  0  0  0  0  0  0  0
    9.0989  -14.5835   27.4901 C   0  0  0  0  0  0  0  0  0  0  0  0
    8.5298  -15.7038   27.4445 O   0  0  0  0  0  0  0  0  0  0  0  0
    9.9821  -14.3669   28.5381 O   0  0  0  0  0  0  0  0  0  0  0  0
  1  2  1  0
  3  4  1  6
  3  5  1  0
  3  2  1  0
  5  6  2  0
  7  5  1  0
  7  8  1  0
  8 15  1  0
  9 10  1  0
  8  9  1  1
 10 14  1  0
 11 12  1  0
 11 10  2  0
 12 13  1  0
 13 14  2  0
 15 19  1  0
 15 16  2  0
 18 17  1  1
 18 20  1  0
 19 18  1  0
 20 22  1  0
 21 20  2  0
M  END
$$$$
