SHA.pdb
     RDKit          3D

 22 22  0  0  1  0  0  0  0  0999 V2000
   11.5965  -20.2502   19.4516 O   0  0  0  0  0  0  0  0  0  0  0  0
   11.1127  -19.2746   20.3375 C   0  0  0  0  0  0  0  0  0  0  0  0
   10.8416  -18.0382   19.5187 C   0  0  2  0  0  0  0  0  0  0  0  0
   11.9748  -17.6359   18.7316 N   0  0  0  0  0  0  0  0  0  0  0  0
   10.3927  -16.8963   20.3489 C   0  0  0  0  0  0  0  0  0  0  0  0
   11.2163  -16.0181   20.7483 O   0  0  0  0  0  0  0  0  0  0  0  0
    9.0347  -16.7738   20.7057 N   0  0  0  0  0  0  0  0  0  0  0  0
    8.5555  -15.6954   21.5332 C   0  0  1  0  0  0  0  0  0  0  0  0
    7.1791  -15.3171   20.9895 C   0  0  0  0  0  0  0  0  0  0  0  0
    7.4030  -14.5549   19.7362 C   0  0  0  0  0  0  0  0  0  0  0  0
    7.1986  -15.0363   18.4542 C   0  0  0  0  0  0  0  0  0  0  0  0
    7.5005  -14.0782   17.5527 N   0  0  0  0  0  0  0  0  0  0  0  0
    7.8917  -13.0012   18.2481 C   0  0  0  0  0  0  0  0  0  0  0  0
    7.8330  -13.2892   19.5714 N   0  0  0  0  0  0  0  0  0  0  0  0
    8.4749  -16.1877   22.9229 C   0  0  0  0  0  0  0  0  0  0  0  0
    8.3483  -17.4140   23.1716 O   0  0  0  0  0  0  0  0  0  0  0  0
    8.4251  -14.5245   26.2971 C   0  0  0  0  0  0  0  0  0  0  0  0
    8.4218  -15.7880   25.4261 C   0  0  2  0  0  0  0  0  0  0  0  0
    8.5334  -15.3286   24.0604 N   0  0  0  0  0  0  0  0  0  0  0  0
    7.1642  -16.4877   25.6997 C   0  0  0  0  0  0  0  0  0  0  0  0
    6.1562  -16.1882   25.0103 O   0  0  0  0  0  0  0  0  0  0  0  0
    6.9968  -17.4650   26.6702 O   0  0  0  0  0  0  0  0  0  0  0  0
  1  2  1  0
  3  4  1  1
  3  5  1  0
  3  2  1  0
  5  6  2  0
  7  5  1  0
  7  8  1  0
  8 15  1  0
  9 10  1  0
  8  9  1  6
 10 14  1  0
 11 12  1  0
 11 10  2  0
 12 13  1  0
 13 14  2  0
 15 19  1  0
 15 16  2  0
 18 17  1  1
 18 20  1  0
 19 18  1  0
 20 22  1  0
 21 20  2  0
M  END
$$$$
