SHA.pdb
     RDKit          3D

 22 22  0  0  1  0  0  0  0  0999 V2000
    5.1762  -21.1846   17.4912 O   0  0  0  0  0  0  0  0  0  0  0  0
    4.5353  -19.9371   17.4321 C   0  0  0  0  0  0  0  0  0  0  0  0
    5.0589  -19.2356   16.2048 C   0  0  2  0  0  0  0  0  0  0  0  0
    4.7838  -19.9590   14.9939 N   0  0  0  0  0  0  0  0  0  0  0  0
    6.5114  -18.9565   16.2883 C   0  0  0  0  0  0  0  0  0  0  0  0
    7.3538  -19.7122   15.7153 O   0  0  0  0  0  0  0  0  0  0  0  0
    6.9750  -17.8391   17.0115 N   0  0  0  0  0  0  0  0  0  0  0  0
    8.3696  -17.4772   17.0491 C   0  0  1  0  0  0  0  0  0  0  0  0
    8.4145  -15.9538   17.1509 C   0  0  0  0  0  0  0  0  0  0  0  0
    8.2894  -15.4236   15.7707 C   0  0  0  0  0  0  0  0  0  0  0  0
    8.1790  -16.1885   14.6218 C   0  0  0  0  0  0  0  0  0  0  0  0
    8.0833  -15.3824   13.5435 N   0  0  0  0  0  0  0  0  0  0  0  0
    8.1318  -14.1218   13.9965 C   0  0  0  0  0  0  0  0  0  0  0  0
    8.2567  -14.1458   15.3461 N   0  0  0  0  0  0  0  0  0  0  0  0
    8.9760  -18.1196   18.2323 C   0  0  0  0  0  0  0  0  0  0  0  0
    8.4236  -18.0566   19.3604 O   0  0  0  0  0  0  0  0  0  0  0  0
   11.7139  -20.5995   18.7298 C   0  0  0  0  0  0  0  0  0  0  0  0
   10.7809  -19.5318   19.3169 C   0  0  2  0  0  0  0  0  0  0  0  0
   10.2049  -18.8426   18.1847 N   0  0  0  0  0  0  0  0  0  0  0  0
   11.6069  -18.6658   20.1618 C   0  0  0  0  0  0  0  0  0  0  0  0
   11.8614  -17.5047   19.7519 O   0  0  0  0  0  0  0  0  0  0  0  0
   12.1357  -19.0307   21.3916 O   0  0  0  0  0  0  0  0  0  0  0  0
  1  2  1  0
  3  4  1  6
  3  5  1  0
  3  2  1  0
  5  6  2  0
  7  5  1  0
  7  8  1  0
  8 15  1  0
  9 10  1  0
  8  9  1  1
 10 14  1  0
 11 12  1  0
 11 10  2  0
 12 13  1  0
 13 14  2  0
 15 19  1  0
 15 16  2  0
 18 17  1  6
 18 20  1  0
 19 18  1  0
 20 22  1  0
 21 20  2  0
M  END
$$$$
