SHA.pdb
     RDKit          3D

 22 22  0  0  1  0  0  0  0  0999 V2000
    3.2646  -21.1043   23.5211 O   0  0  0  0  0  0  0  0  0  0  0  0
    2.9038  -19.8272   23.0633 C   0  0  0  0  0  0  0  0  0  0  0  0
    3.8420  -19.4879   21.9332 C   0  0  2  0  0  0  0  0  0  0  0  0
    3.9655  -20.5538   20.9772 N   0  0  0  0  0  0  0  0  0  0  0  0
    5.1897  -19.1024   22.4124 C   0  0  0  0  0  0  0  0  0  0  0  0
    6.1250  -19.9564   22.4824 O   0  0  0  0  0  0  0  0  0  0  0  0
    5.4477  -17.7715   22.7983 N   0  0  0  0  0  0  0  0  0  0  0  0
    6.7294  -17.3589   23.3122 C   0  0  1  0  0  0  0  0  0  0  0  0
    6.8828  -15.8836   22.9469 C   0  0  0  0  0  0  0  0  0  0  0  0
    7.3261  -15.8317   21.5318 C   0  0  0  0  0  0  0  0  0  0  0  0
    7.5657  -16.9295   20.7228 C   0  0  0  0  0  0  0  0  0  0  0  0
    7.9541  -16.5181   19.4973 N   0  0  0  0  0  0  0  0  0  0  0  0
    7.9625  -15.1780   19.5230 C   0  0  0  0  0  0  0  0  0  0  0  0
    7.5820  -14.7611   20.7555 N   0  0  0  0  0  0  0  0  0  0  0  0
    6.7204  -17.5590   24.7751 C   0  0  0  0  0  0  0  0  0  0  0  0
    5.7320  -17.2140   25.4720 O   0  0  0  0  0  0  0  0  0  0  0  0
    7.5257  -19.9005   27.0710 C   0  0  0  0  0  0  0  0  0  0  0  0
    7.7951  -18.3980   26.9127 C   0  0  2  0  0  0  0  0  0  0  0  0
    7.8072  -18.1449   25.4899 N   0  0  0  0  0  0  0  0  0  0  0  0
    9.0819  -18.1281   27.5588 C   0  0  0  0  0  0  0  0  0  0  0  0
   10.0400  -17.7489   26.8381 O   0  0  0  0  0  0  0  0  0  0  0  0
    9.3285  -18.2597   28.9179 O   0  0  0  0  0  0  0  0  0  0  0  0
  1  2  1  0
  3  4  1  6
  3  5  1  0
  3  2  1  0
  5  6  2  0
  7  5  1  0
  7  8  1  0
  8 15  1  0
  9 10  1  0
  8  9  1  1
 10 14  1  0
 11 12  1  0
 11 10  2  0
 12 13  1  0
 13 14  2  0
 15 19  1  0
 15 16  2  0
 18 17  1  6
 18 20  1  0
 19 18  1  0
 20 22  1  0
 21 20  2  0
M  END
$$$$
