SHA.pdb
     RDKit          3D

 22 22  0  0  1  0  0  0  0  0999 V2000
   10.4247  -19.1684   18.1089 O   0  0  0  0  0  0  0  0  0  0  0  0
    9.7484  -18.7910   19.2797 C   0  0  0  0  0  0  0  0  0  0  0  0
    8.3127  -18.5424   18.8930 C   0  0  2  0  0  0  0  0  0  0  0  0
    8.1896  -17.8124   17.6612 N   0  0  0  0  0  0  0  0  0  0  0  0
    7.5534  -17.8415   19.9546 C   0  0  0  0  0  0  0  0  0  0  0  0
    7.3235  -16.5965   19.8770 O   0  0  0  0  0  0  0  0  0  0  0  0
    7.0753  -18.5577   21.0704 N   0  0  0  0  0  0  0  0  0  0  0  0
    6.3954  -17.9077   22.1625 C   0  0  1  0  0  0  0  0  0  0  0  0
    5.4451  -18.9467   22.7548 C   0  0  0  0  0  0  0  0  0  0  0  0
    4.2523  -18.9947   21.8736 C   0  0  0  0  0  0  0  0  0  0  0  0
    4.0465  -18.2063   20.7541 C   0  0  0  0  0  0  0  0  0  0  0  0
    2.8588  -18.5130   20.1910 N   0  0  0  0  0  0  0  0  0  0  0  0
    2.3140  -19.4825   20.9394 C   0  0  0  0  0  0  0  0  0  0  0  0
    3.1578  -19.7751   21.9592 N   0  0  0  0  0  0  0  0  0  0  0  0
    7.4127  -17.4794   23.1431 C   0  0  0  0  0  0  0  0  0  0  0  0
    8.4408  -18.1714   23.3572 O   0  0  0  0  0  0  0  0  0  0  0  0
    7.7916  -14.4966   25.4058 C   0  0  0  0  0  0  0  0  0  0  0  0
    8.2639  -15.8688   24.9067 C   0  0  2  0  0  0  0  0  0  0  0  0
    7.3073  -16.2765   23.9030 N   0  0  0  0  0  0  0  0  0  0  0  0
    8.2930  -16.7562   26.0718 C   0  0  0  0  0  0  0  0  0  0  0  0
    9.2011  -16.5863   26.9249 O   0  0  0  0  0  0  0  0  0  0  0  0
    7.3875  -17.7802   26.3100 O   0  0  0  0  0  0  0  0  0  0  0  0
  1  2  1  0
  3  4  1  6
  3  5  1  0
  3  2  1  0
  5  6  2  0
  7  5  1  0
  7  8  1  0
  8 15  1  0
  9 10  1  0
  8  9  1  1
 10 14  1  0
 11 12  1  0
 11 10  2  0
 12 13  1  0
 13 14  2  0
 15 19  1  0
 15 16  2  0
 18 17  1  1
 18 20  1  0
 19 18  1  0
 20 22  1  0
 21 20  2  0
M  END
$$$$
