WMT.pdb
     RDKit          3D

 30 31  0  0  1  0  0  0  0  0999 V2000
   27.7963  -21.9324  -10.8417 N   0  0  0  0  0  0  0  0  0  0  0  0
   26.8364  -21.0350  -10.2567 C   0  0  1  0  0  0  0  0  0  0  0  0
   27.4695  -19.8392   -9.5896 C   0  0  0  0  0  0  0  0  0  0  0  0
   28.4329  -20.2284   -8.5418 C   0  0  0  0  0  0  0  0  0  0  0  0
   29.5744  -20.9597   -8.7489 C   0  0  0  0  0  0  0  0  0  0  0  0
   30.1676  -21.0974   -7.5549 N   0  0  0  0  0  0  0  0  0  0  0  0
   29.4499  -20.4836   -6.5966 C   0  0  0  0  0  0  0  0  0  0  0  0
   29.6007  -20.3214   -5.2307 C   0  0  0  0  0  0  0  0  0  0  0  0
   28.6792  -19.6247   -4.4904 C   0  0  0  0  0  0  0  0  0  0  0  0
   27.5672  -19.0590   -5.0780 C   0  0  0  0  0  0  0  0  0  0  0  0
   27.4192  -19.2215   -6.4359 C   0  0  0  0  0  0  0  0  0  0  0  0
   28.3260  -19.9155   -7.2095 C   0  0  0  0  0  0  0  0  0  0  0  0
   25.8648  -20.5329  -11.2642 C   0  0  0  0  0  0  0  0  0  0  0  0
   26.1835  -19.4660  -11.8930 O   0  0  0  0  0  0  0  0  0  0  0  0
   26.2572  -19.7031  -16.1685 C   0  0  0  0  0  0  0  0  0  0  0  0
   24.4332  -19.7297  -16.0898 S   0  0  0  0  0  0  0  0  0  0  0  0
   23.8526  -21.2032  -15.2062 C   0  0  0  0  0  0  0  0  0  0  0  0
   24.5419  -21.4217  -13.9164 C   0  0  0  0  0  0  0  0  0  0  0  0
   23.8867  -20.8037  -12.7170 C   0  0  2  0  0  0  0  0  0  0  0  0
   24.6531  -21.2005  -11.5133 N   0  0  0  0  0  0  0  0  0  0  0  0
   22.4671  -21.1358  -12.5271 C   0  0  0  0  0  0  0  0  0  0  0  0
   22.1441  -22.2984  -12.0658 O   0  0  0  0  0  0  0  0  0  0  0  0
   19.6815  -19.0881  -10.6725 C   0  0  0  0  0  0  0  0  0  0  0  0
   19.1252  -19.5824  -12.0056 C   0  0  1  0  0  0  0  0  0  0  0  0
   19.2333  -18.4846  -12.8695 O   0  0  0  0  0  0  0  0  0  0  0  0
   19.9892  -20.7083  -12.4997 C   0  0  2  0  0  0  0  0  0  0  0  0
   21.3455  -20.3248  -12.7853 N   0  0  0  0  0  0  0  0  0  0  0  0
   19.3660  -21.3370  -13.6947 C   0  0  0  0  0  0  0  0  0  0  0  0
   19.9424  -21.3681  -14.8172 O   0  0  0  0  0  0  0  0  0  0  0  0
   18.1090  -21.9240  -13.6271 O   0  0  0  0  0  0  0  0  0  0  0  0
  2  1  1  6
  2  3  1  0
  2 13  1  0
  3  4  1  0
  4 12  1  0
  4  5  2  0
  5  6  1  0
  7  6  1  0
  7  8  2  0
  9  8  1  0
 10  9  2  0
 11 12  2  0
 11 10  1  0
 12  7  1  0
 13 14  2  0
 16 15  1  0
 16 17  1  0
 18 17  1  0
 19 18  1  6
 19 21  1  0
 20 13  1  0
 20 19  1  0
 21 22  2  0
 24 23  1  1
 24 26  1  0
 25 24  1  0
 26 28  1  0
 26 27  1  6
 27 21  1  0
 28 29  2  0
 28 30  1  0
M  END
$$$$
