WMT.pdb
     RDKit          3D

 30 31  0  0  1  0  0  0  0  0999 V2000
   27.6900  -21.4449  -15.8866 N   0  0  0  0  0  0  0  0  0  0  0  0
   27.6157  -20.5460  -14.7662 C   0  0  1  0  0  0  0  0  0  0  0  0
   27.0776  -19.1845  -15.1304 C   0  0  0  0  0  0  0  0  0  0  0  0
   27.9192  -18.5000  -16.1307 C   0  0  0  0  0  0  0  0  0  0  0  0
   29.2902  -18.5223  -16.1595 C   0  0  0  0  0  0  0  0  0  0  0  0
   29.6670  -17.7848  -17.2134 N   0  0  0  0  0  0  0  0  0  0  0  0
   28.5917  -17.2941  -17.8561 C   0  0  0  0  0  0  0  0  0  0  0  0
   28.4138  -16.4948  -18.9715 C   0  0  0  0  0  0  0  0  0  0  0  0
   27.1597  -16.1466  -19.4054 C   0  0  0  0  0  0  0  0  0  0  0  0
   26.0276  -16.5793  -18.7474 C   0  0  0  0  0  0  0  0  0  0  0  0
   26.2066  -17.3738  -17.6388 C   0  0  0  0  0  0  0  0  0  0  0  0
   27.4524  -17.7422  -17.1758 C   0  0  0  0  0  0  0  0  0  0  0  0
   26.7673  -21.0938  -13.6746 C   0  0  0  0  0  0  0  0  0  0  0  0
   25.7982  -21.8527  -14.0212 O   0  0  0  0  0  0  0  0  0  0  0  0
   27.9643  -20.0768   -7.3809 C   0  0  0  0  0  0  0  0  0  0  0  0
   26.2133  -20.5734   -7.2349 S   0  0  0  0  0  0  0  0  0  0  0  0
   25.5436  -21.0397   -8.8546 C   0  0  0  0  0  0  0  0  0  0  0  0
   26.4710  -20.7639   -9.9728 C   0  0  0  0  0  0  0  0  0  0  0  0
   25.9812  -21.1573  -11.3349 C   0  0  2  0  0  0  0  0  0  0  0  0
   27.0197  -20.7912  -12.3253 N   0  0  0  0  0  0  0  0  0  0  0  0
   24.6917  -20.5773  -11.7380 C   0  0  0  0  0  0  0  0  0  0  0  0
   24.6461  -19.3504  -12.1396 O   0  0  0  0  0  0  0  0  0  0  0  0
   21.9956  -22.6472  -13.8976 C   0  0  0  0  0  0  0  0  0  0  0  0
   22.1706  -21.1307  -13.8765 C   0  0  1  0  0  0  0  0  0  0  0  0
   20.9946  -20.6250  -14.4460 O   0  0  0  0  0  0  0  0  0  0  0  0
   22.2814  -20.6790  -12.4475 C   0  0  2  0  0  0  0  0  0  0  0  0
   23.4290  -21.2000  -11.7551 N   0  0  0  0  0  0  0  0  0  0  0  0
   21.0342  -21.0182  -11.7118 C   0  0  0  0  0  0  0  0  0  0  0  0
   19.8984  -20.6202  -12.0921 O   0  0  0  0  0  0  0  0  0  0  0  0
   21.0650  -21.7965  -10.5618 O   0  0  0  0  0  0  0  0  0  0  0  0
  2  1  1  6
  2  3  1  0
  2 13  1  0
  3  4  1  0
  4 12  1  0
  4  5  2  0
  5  6  1  0
  7  6  1  0
  7  8  2  0
  9  8  1  0
 10  9  2  0
 11 12  2  0
 11 10  1  0
 12  7  1  0
 13 14  2  0
 16 15  1  0
 16 17  1  0
 18 17  1  0
 19 18  1  1
 19 21  1  0
 20 13  1  0
 20 19  1  0
 21 22  2  0
 24 23  1  1
 24 26  1  0
 25 24  1  0
 26 28  1  0
 26 27  1  1
 27 21  1  0
 28 29  2  0
 28 30  1  0
M  END
$$$$
