WMT.pdb
     RDKit          3D

 30 31  0  0  1  0  0  0  0  0999 V2000
   24.6753  -19.8119  -11.2010 N   0  0  0  0  0  0  0  0  0  0  0  0
   26.0412  -20.2015  -11.4273 C   0  0  1  0  0  0  0  0  0  0  0  0
   26.4752  -21.3701  -10.5776 C   0  0  0  0  0  0  0  0  0  0  0  0
   26.5040  -21.0363   -9.1405 C   0  0  0  0  0  0  0  0  0  0  0  0
   25.4461  -21.1644   -8.2772 C   0  0  0  0  0  0  0  0  0  0  0  0
   25.8774  -20.7601   -7.0742 N   0  0  0  0  0  0  0  0  0  0  0  0
   27.1664  -20.3799   -7.1371 C   0  0  0  0  0  0  0  0  0  0  0  0
   28.0763  -19.8924   -6.2156 C   0  0  0  0  0  0  0  0  0  0  0  0
   29.3619  -19.5813   -6.5803 C   0  0  0  0  0  0  0  0  0  0  0  0
   29.7977  -19.7422   -7.8788 C   0  0  0  0  0  0  0  0  0  0  0  0
   28.8916  -20.2270   -8.7933 C   0  0  0  0  0  0  0  0  0  0  0  0
   27.5925  -20.5493   -8.4605 C   0  0  0  0  0  0  0  0  0  0  0  0
   26.2850  -20.5579  -12.8503 C   0  0  0  0  0  0  0  0  0  0  0  0
   25.2572  -20.8186  -13.5651 O   0  0  0  0  0  0  0  0  0  0  0  0
   27.8920  -16.9963  -18.1299 C   0  0  0  0  0  0  0  0  0  0  0  0
   27.6653  -18.0824  -16.6797 S   0  0  0  0  0  0  0  0  0  0  0  0
   29.2028  -18.9639  -16.2943 C   0  0  0  0  0  0  0  0  0  0  0  0
   29.0942  -19.8383  -15.1068 C   0  0  0  0  0  0  0  0  0  0  0  0
   27.7333  -20.4117  -14.8447 C   0  0  2  0  0  0  0  0  0  0  0  0
   27.5846  -20.6054  -13.3839 N   0  0  0  0  0  0  0  0  0  0  0  0
   27.4298  -21.6708  -15.5407 C   0  0  0  0  0  0  0  0  0  0  0  0
   28.2043  -22.6908  -15.3724 O   0  0  0  0  0  0  0  0  0  0  0  0
   25.2501  -24.3727  -15.0600 C   0  0  0  0  0  0  0  0  0  0  0  0
   24.9539  -23.9720  -16.5031 C   0  0  1  0  0  0  0  0  0  0  0  0
   23.8415  -23.1243  -16.4198 O   0  0  0  0  0  0  0  0  0  0  0  0
   26.1339  -23.2147  -17.0440 C   0  0  2  0  0  0  0  0  0  0  0  0
   26.3558  -21.9435  -16.4093 N   0  0  0  0  0  0  0  0  0  0  0  0
   25.9931  -23.0421  -18.5144 C   0  0  0  0  0  0  0  0  0  0  0  0
   25.9305  -24.0242  -19.3050 O   0  0  0  0  0  0  0  0  0  0  0  0
   25.9234  -21.7792  -19.0883 O   0  0  0  0  0  0  0  0  0  0  0  0
  2  1  1  6
  2  3  1  0
  2 13  1  0
  3  4  1  0
  4 12  1  0
  4  5  2  0
  5  6  1  0
  7  6  1  0
  7  8  2  0
  9  8  1  0
 10  9  2  0
 11 12  2  0
 11 10  1  0
 12  7  1  0
 13 14  2  0
 16 15  1  0
 16 17  1  0
 18 17  1  0
 19 18  1  1
 19 21  1  0
 20 13  1  0
 20 19  1  0
 21 22  2  0
 24 23  1  1
 24 26  1  0
 25 24  1  0
 26 28  1  0
 26 27  1  1
 27 21  1  0
 28 29  2  0
 28 30  1  0
M  END
$$$$
