WMT.pdb
     RDKit          3D

 30 31  0  0  1  0  0  0  0  0999 V2000
   26.7599  -22.7616  -13.0241 N   0  0  0  0  0  0  0  0  0  0  0  0
   26.1351  -21.9822  -11.9893 C   0  0  1  0  0  0  0  0  0  0  0  0
   26.8503  -20.6839  -11.7083 C   0  0  0  0  0  0  0  0  0  0  0  0
   27.9260  -20.8427  -10.7108 C   0  0  0  0  0  0  0  0  0  0  0  0
   29.1611  -21.3850  -10.9587 C   0  0  0  0  0  0  0  0  0  0  0  0
   29.8385  -21.3491   -9.8027 N   0  0  0  0  0  0  0  0  0  0  0  0
   29.0847  -20.8061   -8.8295 C   0  0  0  0  0  0  0  0  0  0  0  0
   29.2860  -20.5383   -7.4869 C   0  0  0  0  0  0  0  0  0  0  0  0
   28.3048  -19.9611   -6.7210 C   0  0  0  0  0  0  0  0  0  0  0  0
   27.0801  -19.6253   -7.2587 C   0  0  0  0  0  0  0  0  0  0  0  0
   26.8820  -19.8925   -8.5935 C   0  0  0  0  0  0  0  0  0  0  0  0
   27.8463  -20.4716   -9.3916 C   0  0  0  0  0  0  0  0  0  0  0  0
   24.7208  -21.6609  -12.3180 C   0  0  0  0  0  0  0  0  0  0  0  0
   24.3730  -21.7713  -13.5436 O   0  0  0  0  0  0  0  0  0  0  0  0
   20.4483  -22.7448   -7.7712 C   0  0  0  0  0  0  0  0  0  0  0  0
   19.2857  -22.0280   -8.9830 S   0  0  0  0  0  0  0  0  0  0  0  0
   20.1353  -21.6552  -10.5413 C   0  0  0  0  0  0  0  0  0  0  0  0
   21.5975  -21.4974  -10.3876 C   0  0  0  0  0  0  0  0  0  0  0  0
   22.3675  -21.3061  -11.6604 C   0  0  2  0  0  0  0  0  0  0  0  0
   23.8097  -21.2554  -11.3274 N   0  0  0  0  0  0  0  0  0  0  0  0
   22.0038  -20.1207  -12.4506 C   0  0  0  0  0  0  0  0  0  0  0  0
   22.3083  -18.9459  -12.0082 O   0  0  0  0  0  0  0  0  0  0  0  0
   23.1923  -18.6131  -15.5473 C   0  0  0  0  0  0  0  0  0  0  0  0
   21.6856  -18.7574  -15.7467 C   0  0  1  0  0  0  0  0  0  0  0  0
   21.5292  -19.9600  -16.4485 O   0  0  0  0  0  0  0  0  0  0  0  0
   21.0299  -18.8637  -14.3986 C   0  0  2  0  0  0  0  0  0  0  0  0
   21.3383  -20.0768  -13.6906 N   0  0  0  0  0  0  0  0  0  0  0  0
   19.5578  -18.7054  -14.5384 C   0  0  0  0  0  0  0  0  0  0  0  0
   18.7472  -19.6079  -14.1897 O   0  0  0  0  0  0  0  0  0  0  0  0
   19.0045  -17.5450  -15.0642 O   0  0  0  0  0  0  0  0  0  0  0  0
  2  1  1  6
  2  3  1  0
  2 13  1  0
  3  4  1  0
  4 12  1  0
  4  5  2  0
  5  6  1  0
  7  6  1  0
  7  8  2  0
  9  8  1  0
 10  9  2  0
 11 12  2  0
 11 10  1  0
 12  7  1  0
 13 14  2  0
 16 15  1  0
 16 17  1  0
 18 17  1  0
 19 18  1  1
 19 21  1  0
 20 13  1  0
 20 19  1  0
 21 22  2  0
 24 23  1  1
 24 26  1  0
 25 24  1  0
 26 28  1  0
 26 27  1  6
 27 21  1  0
 28 29  2  0
 28 30  1  0
M  END
$$$$
