WMT.pdb
     RDKit          3D

 30 31  0  0  1  0  0  0  0  0999 V2000
   27.6996  -20.9434  -16.5990 N   0  0  0  0  0  0  0  0  0  0  0  0
   26.6021  -20.2864  -15.9411 C   0  0  1  0  0  0  0  0  0  0  0  0
   25.3222  -20.3231  -16.7387 C   0  0  0  0  0  0  0  0  0  0  0  0
   25.1549  -19.1245  -17.5830 C   0  0  0  0  0  0  0  0  0  0  0  0
   26.1186  -18.5921  -18.4007 C   0  0  0  0  0  0  0  0  0  0  0  0
   25.5757  -17.5174  -18.9896 N   0  0  0  0  0  0  0  0  0  0  0  0
   24.3060  -17.3444  -18.5798 C   0  0  0  0  0  0  0  0  0  0  0  0
   23.3165  -16.4195  -18.8631 C   0  0  0  0  0  0  0  0  0  0  0  0
   22.0794  -16.4975  -18.2751 C   0  0  0  0  0  0  0  0  0  0  0  0
   21.7734  -17.5002  -17.3791 C   0  0  0  0  0  0  0  0  0  0  0  0
   22.7584  -18.4186  -17.0988 C   0  0  0  0  0  0  0  0  0  0  0  0
   24.0120  -18.3694  -17.6718 C   0  0  0  0  0  0  0  0  0  0  0  0
   26.3239  -20.8796  -14.6061 C   0  0  0  0  0  0  0  0  0  0  0  0
   26.0351  -22.1250  -14.5759 O   0  0  0  0  0  0  0  0  0  0  0  0
   24.9517  -21.7761   -7.4122 C   0  0  0  0  0  0  0  0  0  0  0  0
   25.9904  -21.3586   -8.8546 S   0  0  0  0  0  0  0  0  0  0  0  0
   25.2239  -20.0385   -9.8339 C   0  0  0  0  0  0  0  0  0  0  0  0
   25.9552  -19.7366  -11.0833 C   0  0  0  0  0  0  0  0  0  0  0  0
   25.5737  -20.5635  -12.2751 C   0  0  2  0  0  0  0  0  0  0  0  0
   26.3764  -20.1069  -13.4330 N   0  0  0  0  0  0  0  0  0  0  0  0
   24.1468  -20.5466  -12.6292 C   0  0  0  0  0  0  0  0  0  0  0  0
   23.6294  -19.4722  -13.1259 O   0  0  0  0  0  0  0  0  0  0  0  0
   22.1490  -22.5407  -15.0269 C   0  0  0  0  0  0  0  0  0  0  0  0
   21.3095  -22.5475  -13.7517 C   0  0  1  0  0  0  0  0  0  0  0  0
   21.5372  -23.8054  -13.1781 O   0  0  0  0  0  0  0  0  0  0  0  0
   21.8167  -21.4692  -12.8361 C   0  0  2  0  0  0  0  0  0  0  0  0
   23.2103  -21.5904  -12.5028 N   0  0  0  0  0  0  0  0  0  0  0  0
   20.9904  -21.4251  -11.6004 C   0  0  0  0  0  0  0  0  0  0  0  0
   21.4833  -21.6114  -10.4534 O   0  0  0  0  0  0  0  0  0  0  0  0
   19.6254  -21.1739  -11.6548 O   0  0  0  0  0  0  0  0  0  0  0  0
  2  1  1  6
  2  3  1  0
  2 13  1  0
  3  4  1  0
  4 12  1  0
  4  5  2  0
  5  6  1  0
  7  6  1  0
  7  8  2  0
  9  8  1  0
 10  9  2  0
 11 12  2  0
 11 10  1  0
 12  7  1  0
 13 14  2  0
 16 15  1  0
 16 17  1  0
 18 17  1  0
 19 18  1  1
 19 21  1  0
 20 13  1  0
 20 19  1  0
 21 22  2  0
 24 23  1  6
 24 26  1  0
 25 24  1  0
 26 28  1  0
 26 27  1  1
 27 21  1  0
 28 29  2  0
 28 30  1  0
M  END
$$$$
