WMT.pdb
     RDKit          3D

 30 31  0  0  1  0  0  0  0  0999 V2000
   27.0174  -22.7242  -10.1736 N   0  0  0  0  0  0  0  0  0  0  0  0
   26.2516  -21.5697   -9.7873 C   0  0  1  0  0  0  0  0  0  0  0  0
   27.0452  -20.2875   -9.8306 C   0  0  0  0  0  0  0  0  0  0  0  0
   28.1093  -20.2539   -8.8088 C   0  0  0  0  0  0  0  0  0  0  0  0
   29.4262  -20.5685   -9.0274 C   0  0  0  0  0  0  0  0  0  0  0  0
   30.0603  -20.4139   -7.8567 N   0  0  0  0  0  0  0  0  0  0  0  0
   29.2006  -20.0140   -6.9023 C   0  0  0  0  0  0  0  0  0  0  0  0
   29.3210  -19.7157   -5.5565 C   0  0  0  0  0  0  0  0  0  0  0  0
   28.2361  -19.3222   -4.8144 C   0  0  0  0  0  0  0  0  0  0  0  0
   26.9837  -19.2084   -5.3803 C   0  0  0  0  0  0  0  0  0  0  0  0
   26.8661  -19.5054   -6.7184 C   0  0  0  0  0  0  0  0  0  0  0  0
   27.9355  -19.9038   -7.4929 C   0  0  0  0  0  0  0  0  0  0  0  0
   25.0509  -21.3911  -10.6464 C   0  0  0  0  0  0  0  0  0  0  0  0
   25.1716  -21.7038  -11.8805 O   0  0  0  0  0  0  0  0  0  0  0  0
   20.1105  -23.4504   -7.8056 C   0  0  0  0  0  0  0  0  0  0  0  0
   19.2613  -23.1623   -9.3961 S   0  0  0  0  0  0  0  0  0  0  0  0
   20.3132  -22.2006  -10.5177 C   0  0  0  0  0  0  0  0  0  0  0  0
   21.6414  -21.8861   -9.9488 C   0  0  0  0  0  0  0  0  0  0  0  0
   22.6000  -21.2013  -10.8772 C   0  0  2  0  0  0  0  0  0  0  0  0
   23.8405  -20.9019  -10.1255 N   0  0  0  0  0  0  0  0  0  0  0  0
   22.1013  -19.9723  -11.5117 C   0  0  0  0  0  0  0  0  0  0  0  0
   22.1108  -18.8658  -10.8452 O   0  0  0  0  0  0  0  0  0  0  0  0
   23.1246  -17.8793  -14.5426 C   0  0  0  0  0  0  0  0  0  0  0  0
   21.6434  -18.2172  -14.6932 C   0  0  1  0  0  0  0  0  0  0  0  0
   21.6140  -19.3396  -15.5312 O   0  0  0  0  0  0  0  0  0  0  0  0
   21.0915  -18.5742  -13.3417 C   0  0  2  0  0  0  0  0  0  0  0  0
   21.5899  -19.8157  -12.8142 N   0  0  0  0  0  0  0  0  0  0  0  0
   19.6053  -18.5915  -13.3909 C   0  0  0  0  0  0  0  0  0  0  0  0
   18.9336  -19.6191  -13.0972 O   0  0  0  0  0  0  0  0  0  0  0  0
   18.8835  -17.4657  -13.7660 O   0  0  0  0  0  0  0  0  0  0  0  0
  2  1  1  6
  2  3  1  0
  2 13  1  0
  3  4  1  0
  4 12  1  0
  4  5  2  0
  5  6  1  0
  7  6  1  0
  7  8  2  0
  9  8  1  0
 10  9  2  0
 11 12  2  0
 11 10  1  0
 12  7  1  0
 13 14  2  0
 16 15  1  0
 16 17  1  0
 18 17  1  0
 19 18  1  1
 19 21  1  0
 20 13  1  0
 20 19  1  0
 21 22  2  0
 24 23  1  1
 24 26  1  0
 25 24  1  0
 26 28  1  0
 26 27  1  6
 27 21  1  0
 28 29  2  0
 28 30  1  0
M  END
$$$$
