WMT.pdb
     RDKit          3D

 30 31  0  0  1  0  0  0  0  0999 V2000
   27.9671  -20.2507  -17.1189 N   0  0  0  0  0  0  0  0  0  0  0  0
   26.9117  -19.7245  -16.2955 C   0  0  1  0  0  0  0  0  0  0  0  0
   25.5352  -19.9790  -16.8579 C   0  0  0  0  0  0  0  0  0  0  0  0
   24.9198  -18.7546  -17.4055 C   0  0  0  0  0  0  0  0  0  0  0  0
   25.5993  -17.7360  -18.0231 C   0  0  0  0  0  0  0  0  0  0  0  0
   24.6869  -16.8181  -18.3719 N   0  0  0  0  0  0  0  0  0  0  0  0
   23.4548  -17.2113  -18.0014 C   0  0  0  0  0  0  0  0  0  0  0  0
   22.1903  -16.6605  -18.1124 C   0  0  0  0  0  0  0  0  0  0  0  0
   21.0848  -17.3114  -17.6259 C   0  0  0  0  0  0  0  0  0  0  0  0
   21.1902  -18.5395  -17.0075 C   0  0  0  0  0  0  0  0  0  0  0  0
   22.4482  -19.0853  -16.8980 C   0  0  0  0  0  0  0  0  0  0  0  0
   23.5799  -18.4581  -17.3758 C   0  0  0  0  0  0  0  0  0  0  0  0
   26.9525  -20.2872  -14.9196 C   0  0  0  0  0  0  0  0  0  0  0  0
   26.9381  -21.5617  -14.8157 O   0  0  0  0  0  0  0  0  0  0  0  0
   28.0305  -21.4024   -7.7714 C   0  0  0  0  0  0  0  0  0  0  0  0
   28.3421  -20.9161   -9.5035 S   0  0  0  0  0  0  0  0  0  0  0  0
   27.1959  -19.6076  -10.0165 C   0  0  0  0  0  0  0  0  0  0  0  0
   27.3880  -19.1775  -11.4181 C   0  0  0  0  0  0  0  0  0  0  0  0
   26.8180  -20.0914  -12.4620 C   0  0  2  0  0  0  0  0  0  0  0  0
   27.0046  -19.4564  -13.7869 N   0  0  0  0  0  0  0  0  0  0  0  0
   25.4040  -20.4535  -12.2854 C   0  0  0  0  0  0  0  0  0  0  0  0
   24.4906  -19.5655  -12.4996 O   0  0  0  0  0  0  0  0  0  0  0  0
   23.2306  -22.6565  -14.1024 C   0  0  0  0  0  0  0  0  0  0  0  0
   22.9473  -23.0476  -12.6540 C   0  0  1  0  0  0  0  0  0  0  0  0
   23.6791  -24.2248  -12.4497 O   0  0  0  0  0  0  0  0  0  0  0  0
   23.4640  -21.9620  -11.7526 C   0  0  2  0  0  0  0  0  0  0  0  0
   24.8699  -21.6977  -11.8992 N   0  0  0  0  0  0  0  0  0  0  0  0
   23.1423  -22.2844  -10.3369 C   0  0  0  0  0  0  0  0  0  0  0  0
   24.0276  -22.3286   -9.4382 O   0  0  0  0  0  0  0  0  0  0  0  0
   21.8397  -22.5538   -9.9372 O   0  0  0  0  0  0  0  0  0  0  0  0
  2  1  1  6
  2  3  1  0
  2 13  1  0
  3  4  1  0
  4 12  1  0
  4  5  2  0
  5  6  1  0
  7  6  1  0
  7  8  2  0
  9  8  1  0
 10  9  2  0
 11 12  2  0
 11 10  1  0
 12  7  1  0
 13 14  2  0
 16 15  1  0
 16 17  1  0
 18 17  1  0
 19 18  1  1
 19 21  1  0
 20 13  1  0
 20 19  1  0
 21 22  2  0
 24 23  1  6
 24 26  1  0
 25 24  1  0
 26 28  1  0
 26 27  1  1
 27 21  1  0
 28 29  2  0
 28 30  1  0
M  END
$$$$
