WMT.pdb
     RDKit          3D

 30 31  0  0  1  0  0  0  0  0999 V2000
   26.4986  -20.4179  -17.1043 N   0  0  0  0  0  0  0  0  0  0  0  0
   26.7786  -19.7380  -15.8682 C   0  0  1  0  0  0  0  0  0  0  0  0
   25.5500  -19.1463  -15.2230 C   0  0  0  0  0  0  0  0  0  0  0  0
   24.9279  -18.1013  -16.0587 C   0  0  0  0  0  0  0  0  0  0  0  0
   25.5266  -16.9245  -16.4297 C   0  0  0  0  0  0  0  0  0  0  0  0
   24.6374  -16.2574  -17.1786 N   0  0  0  0  0  0  0  0  0  0  0  0
   23.4975  -16.9618  -17.2992 C   0  0  0  0  0  0  0  0  0  0  0  0
   22.2918  -16.7465  -17.9432 C   0  0  0  0  0  0  0  0  0  0  0  0
   21.2800  -17.6716  -17.8884 C   0  0  0  0  0  0  0  0  0  0  0  0
   21.4248  -18.8518  -17.1898 C   0  0  0  0  0  0  0  0  0  0  0  0
   22.6241  -19.0640  -16.5503 C   0  0  0  0  0  0  0  0  0  0  0  0
   23.6612  -18.1554  -16.5849 C   0  0  0  0  0  0  0  0  0  0  0  0
   27.4244  -20.6388  -14.8768 C   0  0  0  0  0  0  0  0  0  0  0  0
   26.8301  -21.7430  -14.6261 O   0  0  0  0  0  0  0  0  0  0  0  0
   32.3836  -22.8215  -11.1609 C   0  0  0  0  0  0  0  0  0  0  0  0
   30.7049  -22.2946  -10.6727 S   0  0  0  0  0  0  0  0  0  0  0  0
   30.4841  -20.5173  -10.9585 C   0  0  0  0  0  0  0  0  0  0  0  0
   30.1346  -20.1883  -12.3572 C   0  0  0  0  0  0  0  0  0  0  0  0
   28.8146  -20.7141  -12.8376 C   0  0  2  0  0  0  0  0  0  0  0  0
   28.6315  -20.2922  -14.2455 N   0  0  0  0  0  0  0  0  0  0  0  0
   27.6435  -20.3081  -12.0469 C   0  0  0  0  0  0  0  0  0  0  0  0
   27.2937  -19.0648  -12.0244 O   0  0  0  0  0  0  0  0  0  0  0  0
   23.9669  -20.6114  -12.1423 C   0  0  0  0  0  0  0  0  0  0  0  0
   24.3798  -21.1618  -10.7794 C   0  0  1  0  0  0  0  0  0  0  0  0
   24.4489  -22.5498  -10.9580 O   0  0  0  0  0  0  0  0  0  0  0  0
   25.7395  -20.6228  -10.4346 C   0  0  2  0  0  0  0  0  0  0  0  0
   26.7977  -21.1229  -11.2702 N   0  0  0  0  0  0  0  0  0  0  0  0
   26.0406  -20.8883   -9.0027 C   0  0  0  0  0  0  0  0  0  0  0  0
   27.0923  -21.4813   -8.6343 O   0  0  0  0  0  0  0  0  0  0  0  0
   25.1687  -20.4910   -7.9972 O   0  0  0  0  0  0  0  0  0  0  0  0
  2  1  1  6
  2  3  1  0
  2 13  1  0
  3  4  1  0
  4 12  1  0
  4  5  2  0
  5  6  1  0
  7  6  1  0
  7  8  2  0
  9  8  1  0
 10  9  2  0
 11 12  2  0
 11 10  1  0
 12  7  1  0
 13 14  2  0
 16 15  1  0
 16 17  1  0
 18 17  1  0
 19 18  1  1
 19 21  1  0
 20 13  1  0
 20 19  1  0
 21 22  2  0
 24 23  1  6
 24 26  1  0
 25 24  1  0
 26 28  1  0
 26 27  1  6
 27 21  1  0
 28 29  2  0
 28 30  1  0
M  END
$$$$
