WMT.pdb
     RDKit          3D

 30 31  0  0  1  0  0  0  0  0999 V2000
   27.4344  -21.7760  -16.3952 N   0  0  0  0  0  0  0  0  0  0  0  0
   26.2958  -20.9395  -16.1255 C   0  0  1  0  0  0  0  0  0  0  0  0
   25.2254  -21.0319  -17.1845 C   0  0  0  0  0  0  0  0  0  0  0  0
   25.3497  -19.9680  -18.1994 C   0  0  0  0  0  0  0  0  0  0  0  0
   26.3148  -19.9115  -19.1723 C   0  0  0  0  0  0  0  0  0  0  0  0
   26.0818  -18.8000  -19.8841 N   0  0  0  0  0  0  0  0  0  0  0  0
   25.0081  -18.1470  -19.4039 C   0  0  0  0  0  0  0  0  0  0  0  0
   24.3500  -16.9810  -19.7531 C   0  0  0  0  0  0  0  0  0  0  0  0
   23.2480  -16.5498  -19.0586 C   0  0  0  0  0  0  0  0  0  0  0  0
   22.7532  -17.2612  -17.9858 C   0  0  0  0  0  0  0  0  0  0  0  0
   23.4088  -18.4200  -17.6402 C   0  0  0  0  0  0  0  0  0  0  0  0
   24.5187  -18.8817  -18.3165 C   0  0  0  0  0  0  0  0  0  0  0  0
   25.6701  -21.2642  -14.8162 C   0  0  0  0  0  0  0  0  0  0  0  0
   25.7119  -22.4866  -14.4429 O   0  0  0  0  0  0  0  0  0  0  0  0
   25.0761  -21.8171   -7.8057 C   0  0  0  0  0  0  0  0  0  0  0  0
   25.7075  -21.4690   -9.4832 S   0  0  0  0  0  0  0  0  0  0  0  0
   24.7547  -20.1364  -10.2614 C   0  0  0  0  0  0  0  0  0  0  0  0
   25.1742  -19.8510  -11.6504 C   0  0  0  0  0  0  0  0  0  0  0  0
   24.5174  -20.6834  -12.7113 C   0  0  2  0  0  0  0  0  0  0  0  0
   25.0617  -20.2733  -14.0262 N   0  0  0  0  0  0  0  0  0  0  0  0
   23.0489  -20.6233  -12.7471 C   0  0  0  0  0  0  0  0  0  0  0  0
   22.4547  -19.4978  -12.5259 O   0  0  0  0  0  0  0  0  0  0  0  0
   20.6263  -21.5380  -15.5305 C   0  0  0  0  0  0  0  0  0  0  0  0
   20.0782  -22.1755  -14.2562 C   0  0  1  0  0  0  0  0  0  0  0  0
   20.4808  -23.5159  -14.3228 O   0  0  0  0  0  0  0  0  0  0  0  0
   20.7175  -21.5084  -13.0710 C   0  0  2  0  0  0  0  0  0  0  0  0
   22.1449  -21.6713  -13.0058 N   0  0  0  0  0  0  0  0  0  0  0  0
   20.0831  -21.9914  -11.8157 C   0  0  0  0  0  0  0  0  0  0  0  0
   20.7516  -22.5125  -10.8804 O   0  0  0  0  0  0  0  0  0  0  0  0
   18.7125  -21.8889  -11.6152 O   0  0  0  0  0  0  0  0  0  0  0  0
  2  1  1  6
  2  3  1  0
  2 13  1  0
  3  4  1  0
  4 12  1  0
  4  5  2  0
  5  6  1  0
  7  6  1  0
  7  8  2  0
  9  8  1  0
 10  9  2  0
 11 12  2  0
 11 10  1  0
 12  7  1  0
 13 14  2  0
 16 15  1  0
 16 17  1  0
 18 17  1  0
 19 18  1  1
 19 21  1  0
 20 13  1  0
 20 19  1  0
 21 22  2  0
 24 23  1  6
 24 26  1  0
 25 24  1  0
 26 28  1  0
 26 27  1  1
 27 21  1  0
 28 29  2  0
 28 30  1  0
M  END
$$$$
