WMT.pdb
     RDKit          3D

 30 31  0  0  1  0  0  0  0  0999 V2000
   27.8640  -22.8733  -12.5114 N   0  0  0  0  0  0  0  0  0  0  0  0
   28.1667  -22.0218  -11.3924 C   0  0  1  0  0  0  0  0  0  0  0  0
   29.2603  -21.0239  -11.6828 C   0  0  0  0  0  0  0  0  0  0  0  0
   30.5972  -21.6483  -11.6982 C   0  0  0  0  0  0  0  0  0  0  0  0
   31.3097  -21.9645  -12.8265 C   0  0  0  0  0  0  0  0  0  0  0  0
   32.4631  -22.5099  -12.4156 N   0  0  0  0  0  0  0  0  0  0  0  0
   32.5133  -22.5536  -11.0718 C   0  0  0  0  0  0  0  0  0  0  0  0
   33.4455  -23.0038  -10.1536 C   0  0  0  0  0  0  0  0  0  0  0  0
   33.2151  -22.9167   -8.8039 C   0  0  0  0  0  0  0  0  0  0  0  0
   32.0461  -22.3775   -8.3094 C   0  0  0  0  0  0  0  0  0  0  0  0
   31.1207  -21.9306   -9.2239 C   0  0  0  0  0  0  0  0  0  0  0  0
   31.3203  -22.0031  -10.5866 C   0  0  0  0  0  0  0  0  0  0  0  0
   26.9707  -21.2660  -10.9345 C   0  0  0  0  0  0  0  0  0  0  0  0
   26.0496  -21.0632  -11.7981 O   0  0  0  0  0  0  0  0  0  0  0  0
   28.0127  -20.2744   -4.9204 C   0  0  0  0  0  0  0  0  0  0  0  0
   26.8380  -19.0096   -5.5155 S   0  0  0  0  0  0  0  0  0  0  0  0
   26.4502  -19.2710   -7.2678 C   0  0  0  0  0  0  0  0  0  0  0  0
   25.6885  -20.5131   -7.5198 C   0  0  0  0  0  0  0  0  0  0  0  0
   25.5332  -20.8988   -8.9609 C   0  0  2  0  0  0  0  0  0  0  0  0
   26.8585  -20.7972   -9.6141 N   0  0  0  0  0  0  0  0  0  0  0  0
   24.5481  -20.1189   -9.7244 C   0  0  0  0  0  0  0  0  0  0  0  0
   24.6585  -18.8328   -9.7742 O   0  0  0  0  0  0  0  0  0  0  0  0
   23.9757  -19.5011  -13.1373 C   0  0  0  0  0  0  0  0  0  0  0  0
   22.5829  -19.9063  -12.6613 C   0  0  1  0  0  0  0  0  0  0  0  0
   22.4642  -21.2590  -13.0068 O   0  0  0  0  0  0  0  0  0  0  0  0
   22.5215  -19.7533  -11.1676 C   0  0  2  0  0  0  0  0  0  0  0  0
   23.4421  -20.5962  -10.4535 N   0  0  0  0  0  0  0  0  0  0  0  0
   21.1315  -19.9848  -10.6922 C   0  0  0  0  0  0  0  0  0  0  0  0
   20.8471  -20.8862   -9.8556 O   0  0  0  0  0  0  0  0  0  0  0  0
   20.0741  -19.2109  -11.1527 O   0  0  0  0  0  0  0  0  0  0  0  0
  2  1  1  6
  2  3  1  0
  2 13  1  0
  3  4  1  0
  4 12  1  0
  4  5  2  0
  5  6  1  0
  7  6  1  0
  7  8  2  0
  9  8  1  0
 10  9  2  0
 11 12  2  0
 11 10  1  0
 12  7  1  0
 13 14  2  0
 16 15  1  0
 16 17  1  0
 18 17  1  0
 19 18  1  1
 19 21  1  0
 20 13  1  0
 20 19  1  0
 21 22  2  0
 24 23  1  1
 24 26  1  0
 25 24  1  0
 26 28  1  0
 26 27  1  1
 27 21  1  0
 28 29  2  0
 28 30  1  0
M  END
$$$$
