WMT.pdb
     RDKit          3D

 30 31  0  0  1  0  0  0  0  0999 V2000
   26.3030  -20.7756  -17.9146 N   0  0  0  0  0  0  0  0  0  0  0  0
   25.4033  -20.0038  -17.1000 C   0  0  1  0  0  0  0  0  0  0  0  0
   24.1782  -19.5359  -17.8457 C   0  0  0  0  0  0  0  0  0  0  0  0
   24.4844  -18.4535  -18.8007 C   0  0  0  0  0  0  0  0  0  0  0  0
   25.2547  -18.5872  -19.9275 C   0  0  0  0  0  0  0  0  0  0  0  0
   25.2893  -17.3841  -20.5173 N   0  0  0  0  0  0  0  0  0  0  0  0
   24.5725  -16.4905  -19.8118 C   0  0  0  0  0  0  0  0  0  0  0  0
   24.2834  -15.1461  -19.9652 C   0  0  0  0  0  0  0  0  0  0  0  0
   23.5010  -14.4778  -19.0576 C   0  0  0  0  0  0  0  0  0  0  0  0
   22.9721  -15.1194  -17.9573 C   0  0  0  0  0  0  0  0  0  0  0  0
   23.2608  -16.4560  -17.8066 C   0  0  0  0  0  0  0  0  0  0  0  0
   24.0435  -17.1575  -18.6996 C   0  0  0  0  0  0  0  0  0  0  0  0
   24.9469  -20.7660  -15.9074 C   0  0  0  0  0  0  0  0  0  0  0  0
   24.5731  -21.9734  -16.1015 O   0  0  0  0  0  0  0  0  0  0  0  0
   24.8650  -20.0205   -8.3741 C   0  0  0  0  0  0  0  0  0  0  0  0
   25.7539  -21.0333   -9.6062 S   0  0  0  0  0  0  0  0  0  0  0  0
   24.6988  -21.3630  -11.0441 C   0  0  0  0  0  0  0  0  0  0  0  0
   25.1759  -20.7101  -12.2821 C   0  0  0  0  0  0  0  0  0  0  0  0
   24.3728  -20.9935  -13.5168 C   0  0  2  0  0  0  0  0  0  0  0  0
   24.9279  -20.1858  -14.6272 N   0  0  0  0  0  0  0  0  0  0  0  0
   22.9276  -20.7472  -13.4048 C   0  0  0  0  0  0  0  0  0  0  0  0
   22.4802  -19.5399  -13.5098 O   0  0  0  0  0  0  0  0  0  0  0  0
   20.0840  -21.8702  -15.5103 C   0  0  0  0  0  0  0  0  0  0  0  0
   19.6487  -22.1650  -14.0769 C   0  0  1  0  0  0  0  0  0  0  0  0
   19.9024  -23.5313  -13.8979 O   0  0  0  0  0  0  0  0  0  0  0  0
   20.5032  -21.3596  -13.1392 C   0  0  2  0  0  0  0  0  0  0  0  0
   21.9022  -21.6883  -13.1921 N   0  0  0  0  0  0  0  0  0  0  0  0
   19.9920  -21.4924  -11.7490 C   0  0  0  0  0  0  0  0  0  0  0  0
   20.7163  -21.9061  -10.8016 O   0  0  0  0  0  0  0  0  0  0  0  0
   18.6813  -21.1631  -11.4286 O   0  0  0  0  0  0  0  0  0  0  0  0
  2  1  1  6
  2  3  1  0
  2 13  1  0
  3  4  1  0
  4 12  1  0
  4  5  2  0
  5  6  1  0
  7  6  1  0
  7  8  2  0
  9  8  1  0
 10  9  2  0
 11 12  2  0
 11 10  1  0
 12  7  1  0
 13 14  2  0
 16 15  1  0
 16 17  1  0
 18 17  1  0
 19 18  1  1
 19 21  1  0
 20 13  1  0
 20 19  1  0
 21 22  2  0
 24 23  1  6
 24 26  1  0
 25 24  1  0
 26 28  1  0
 26 27  1  1
 27 21  1  0
 28 29  2  0
 28 30  1  0
M  END
$$$$
