TKP.pdb
     RDKit          3D

 24 24  0  0  1  0  0  0  0  0999 V2000
   10.0370  -13.6798   21.0257 C   0  0  0  0  0  0  0  0  0  0  0  0
    9.0159  -13.2164   19.9996 C   0  0  1  0  0  0  0  0  0  0  0  0
    9.6062  -13.1102   18.7479 O   0  0  0  0  0  0  0  0  0  0  0  0
    7.8811  -14.1986   20.0147 C   0  0  2  0  0  0  0  0  0  0  0  0
    6.9244  -13.9186   18.9884 N   0  0  0  0  0  0  0  0  0  0  0  0
    7.2477  -14.3338   21.3502 C   0  0  0  0  0  0  0  0  0  0  0  0
    6.3931  -13.5300   21.7863 O   0  0  0  0  0  0  0  0  0  0  0  0
    7.6446  -15.4349   22.1554 N   0  0  0  0  0  0  0  0  0  0  0  0
    7.0948  -15.6263   23.5152 C   0  0  1  0  0  0  0  0  0  0  0  0
    7.1719  -17.1516   23.6676 C   0  0  0  0  0  0  0  0  0  0  0  0
    6.7328  -17.6528   24.9880 C   0  0  0  0  0  0  0  0  0  0  0  0
    6.9825  -19.1719   25.0857 C   0  0  0  0  0  0  0  0  0  0  0  0
    6.6155  -19.6602   26.4744 C   0  0  0  0  0  0  0  0  0  0  0  0
    6.9515  -21.0740   26.5188 N   0  0  0  0  0  0  0  0  0  0  0  0
    8.1243  -15.0343   24.4495 C   0  0  0  0  0  0  0  0  0  0  0  0
    9.2143  -15.6949   24.4603 O   0  0  0  0  0  0  0  0  0  0  0  0
    7.8698  -13.8879   25.1980 N   0  0  0  0  0  0  0  0  0  0  0  0
    6.9574  -12.8066   24.7617 C   0  0  0  0  0  0  0  0  0  0  0  0
    6.2276  -12.4140   26.0231 C   0  0  0  0  0  0  0  0  0  0  0  0
    6.9231  -13.1785   27.1177 C   0  0  0  0  0  0  0  0  0  0  0  0
    8.3153  -13.4242   26.4556 C   0  0  1  0  0  0  0  0  0  0  0  0
    9.1254  -14.2623   27.3075 C   0  0  0  0  0  0  0  0  0  0  0  0
    8.8047  -15.6234   27.4058 O   0  0  0  0  0  0  0  0  0  0  0  0
   10.0908  -13.8836   27.9682 O   0  0  0  0  0  0  0  0  0  0  0  0
  2  1  1  1
  2  3  1  0
  4  2  1  0
  4  5  1  6
  6  4  1  0
  7  6  2  0
  8  6  1  0
  9  8  1  0
 10 11  1  0
  9 10  1  1
 12 11  1  0
 13 14  1  0
 13 12  1  0
 15 17  1  0
 15  9  1  0
 16 15  2  0
 17 18  1  0
 19 18  1  0
 20 19  1  0
 21 17  1  0
 21 20  1  0
 22 23  1  0
 21 22  1  1
 24 22  2  0
M  END
$$$$
