TKP.pdb
     RDKit          3D

 24 24  0  0  1  0  0  0  0  0999 V2000
    8.5848  -12.6834   20.6733 C   0  0  0  0  0  0  0  0  0  0  0  0
    7.8298  -13.5452   19.6747 C   0  0  1  0  0  0  0  0  0  0  0  0
    8.4520  -13.5015   18.4347 O   0  0  0  0  0  0  0  0  0  0  0  0
    7.7673  -14.9366   20.2338 C   0  0  2  0  0  0  0  0  0  0  0  0
    7.1806  -15.8545   19.3062 N   0  0  0  0  0  0  0  0  0  0  0  0
    7.1206  -14.9978   21.5685 C   0  0  0  0  0  0  0  0  0  0  0  0
    5.9069  -14.7531   21.7521 O   0  0  0  0  0  0  0  0  0  0  0  0
    7.9360  -15.3529   22.6763 N   0  0  0  0  0  0  0  0  0  0  0  0
    7.3569  -15.5385   24.0246 C   0  0  1  0  0  0  0  0  0  0  0  0
    7.6830  -17.0126   24.3005 C   0  0  0  0  0  0  0  0  0  0  0  0
    7.2219  -17.5001   25.6186 C   0  0  0  0  0  0  0  0  0  0  0  0
    7.6895  -18.9538   25.8369 C   0  0  0  0  0  0  0  0  0  0  0  0
    7.1437  -19.4720   27.1541 C   0  0  0  0  0  0  0  0  0  0  0  0
    7.7428  -20.7798   27.3651 N   0  0  0  0  0  0  0  0  0  0  0  0
    8.2217  -14.7123   24.9481 C   0  0  0  0  0  0  0  0  0  0  0  0
    9.4445  -15.0714   24.9271 O   0  0  0  0  0  0  0  0  0  0  0  0
    7.6994  -13.6774   25.7199 N   0  0  0  0  0  0  0  0  0  0  0  0
    6.5980  -12.7941   25.2739 C   0  0  0  0  0  0  0  0  0  0  0  0
    5.7495  -12.6170   26.5094 C   0  0  0  0  0  0  0  0  0  0  0  0
    6.5444  -13.2641   27.6120 C   0  0  0  0  0  0  0  0  0  0  0  0
    7.9836  -13.1840   27.0125 C   0  0  1  0  0  0  0  0  0  0  0  0
    8.9163  -13.8688   27.8760 C   0  0  0  0  0  0  0  0  0  0  0  0
    9.7416  -13.1018   28.7099 O   0  0  0  0  0  0  0  0  0  0  0  0
    9.0558  -15.0884   27.9482 O   0  0  0  0  0  0  0  0  0  0  0  0
  2  1  1  1
  2  3  1  0
  4  2  1  0
  4  5  1  6
  6  4  1  0
  7  6  2  0
  8  6  1  0
  9  8  1  0
 10 11  1  0
  9 10  1  1
 12 11  1  0
 13 14  1  0
 13 12  1  0
 15 17  1  0
 15  9  1  0
 16 15  2  0
 17 18  1  0
 19 18  1  0
 20 19  1  0
 21 17  1  0
 21 20  1  0
 22 23  1  0
 21 22  1  1
 24 22  2  0
M  END
$$$$
