TKP.pdb
     RDKit          3D

 24 24  0  0  1  0  0  0  0  0999 V2000
    8.4889  -12.6300   20.5968 C   0  0  0  0  0  0  0  0  0  0  0  0
    8.0196  -13.6037   19.5282 C   0  0  1  0  0  0  0  0  0  0  0  0
    8.7943  -13.4720   18.3840 O   0  0  0  0  0  0  0  0  0  0  0  0
    8.0917  -14.9848   20.1111 C   0  0  2  0  0  0  0  0  0  0  0  0
    7.8221  -15.9893   19.1285 N   0  0  0  0  0  0  0  0  0  0  0  0
    7.2526  -15.1477   21.3246 C   0  0  0  0  0  0  0  0  0  0  0  0
    6.0758  -15.5728   21.2903 O   0  0  0  0  0  0  0  0  0  0  0  0
    7.8321  -14.7988   22.5739 N   0  0  0  0  0  0  0  0  0  0  0  0
    7.2465  -15.2702   23.8476 C   0  0  1  0  0  0  0  0  0  0  0  0
    7.5284  -16.7773   23.7780 C   0  0  0  0  0  0  0  0  0  0  0  0
    7.0554  -17.5386   24.9546 C   0  0  0  0  0  0  0  0  0  0  0  0
    7.4514  -19.0230   24.8169 C   0  0  0  0  0  0  0  0  0  0  0  0
    6.9154  -19.8051   26.0013 C   0  0  0  0  0  0  0  0  0  0  0  0
    7.2837  -21.1943   25.7814 N   0  0  0  0  0  0  0  0  0  0  0  0
    8.1344  -14.7021   24.9303 C   0  0  0  0  0  0  0  0  0  0  0  0
    9.2238  -15.3506   25.0618 O   0  0  0  0  0  0  0  0  0  0  0  0
    7.7654  -13.5872   25.6787 N   0  0  0  0  0  0  0  0  0  0  0  0
    6.7870  -12.5754   25.2191 C   0  0  0  0  0  0  0  0  0  0  0  0
    5.9855  -12.2545   26.4571 C   0  0  0  0  0  0  0  0  0  0  0  0
    6.7001  -12.9745   27.5694 C   0  0  0  0  0  0  0  0  0  0  0  0
    8.1294  -13.1040   26.9550 C   0  0  1  0  0  0  0  0  0  0  0  0
    8.9725  -13.8858   27.8281 C   0  0  0  0  0  0  0  0  0  0  0  0
    8.8444  -15.2815   27.8068 O   0  0  0  0  0  0  0  0  0  0  0  0
    9.8098  -13.4299   28.6047 O   0  0  0  0  0  0  0  0  0  0  0  0
  2  1  1  1
  2  3  1  0
  4  2  1  0
  4  5  1  6
  6  4  1  0
  7  6  2  0
  8  6  1  0
  9  8  1  0
 10 11  1  0
  9 10  1  6
 12 11  1  0
 13 14  1  0
 13 12  1  0
 15 17  1  0
 15  9  1  0
 16 15  2  0
 17 18  1  0
 19 18  1  0
 20 19  1  0
 21 17  1  0
 21 20  1  0
 22 23  1  0
 21 22  1  1
 24 22  2  0
M  END
$$$$
