TKP.pdb
     RDKit          3D

 24 24  0  0  1  0  0  0  0  0999 V2000
   10.7946  -14.3870   20.4721 C   0  0  0  0  0  0  0  0  0  0  0  0
   10.0340  -13.3106   19.7153 C   0  0  1  0  0  0  0  0  0  0  0  0
   10.5246  -13.1942   18.4221 O   0  0  0  0  0  0  0  0  0  0  0  0
    8.5795  -13.6794   19.7435 C   0  0  2  0  0  0  0  0  0  0  0  0
    7.7892  -12.7784   18.9619 N   0  0  0  0  0  0  0  0  0  0  0  0
    8.0481  -13.8422   21.1198 C   0  0  0  0  0  0  0  0  0  0  0  0
    7.6286  -12.8850   21.8086 O   0  0  0  0  0  0  0  0  0  0  0  0
    8.0235  -15.1552   21.6618 N   0  0  0  0  0  0  0  0  0  0  0  0
    7.3655  -15.4367   22.9562 C   0  0  1  0  0  0  0  0  0  0  0  0
    7.2615  -16.9676   22.9233 C   0  0  0  0  0  0  0  0  0  0  0  0
    6.6900  -17.5640   24.1502 C   0  0  0  0  0  0  0  0  0  0  0  0
    6.7475  -19.1031   24.0653 C   0  0  0  0  0  0  0  0  0  0  0  0
    6.0233  -19.7063   25.2540 C   0  0  0  0  0  0  0  0  0  0  0  0
    6.0772  -21.1492   25.0837 N   0  0  0  0  0  0  0  0  0  0  0  0
    8.3894  -15.0840   24.0101 C   0  0  0  0  0  0  0  0  0  0  0  0
    9.3963  -15.8654   23.9968 O   0  0  0  0  0  0  0  0  0  0  0  0
    8.2140  -14.0112   24.8805 N   0  0  0  0  0  0  0  0  0  0  0  0
    7.5602  -12.7394   24.4968 C   0  0  0  0  0  0  0  0  0  0  0  0
    6.7250  -12.3807   25.7017 C   0  0  0  0  0  0  0  0  0  0  0  0
    7.1208  -13.3853   26.7508 C   0  0  0  0  0  0  0  0  0  0  0  0
    8.5380  -13.7920   26.2377 C   0  0  1  0  0  0  0  0  0  0  0  0
    9.0697  -14.8591   27.0520 C   0  0  0  0  0  0  0  0  0  0  0  0
   10.0861  -14.5570   27.9688 O   0  0  0  0  0  0  0  0  0  0  0  0
    8.7049  -16.0328   27.0139 O   0  0  0  0  0  0  0  0  0  0  0  0
  2  1  1  1
  2  3  1  0
  4  2  1  0
  4  5  1  1
  6  4  1  0
  7  6  2  0
  8  6  1  0
  9  8  1  0
 10 11  1  0
  9 10  1  6
 12 11  1  0
 13 14  1  0
 13 12  1  0
 15 17  1  0
 15  9  1  0
 16 15  2  0
 17 18  1  0
 19 18  1  0
 20 19  1  0
 21 17  1  0
 21 20  1  0
 22 23  1  0
 21 22  1  1
 24 22  2  0
M  END
$$$$
