TKP.pdb
     RDKit          3D

 24 24  0  0  1  0  0  0  0  0999 V2000
    8.4171  -12.4545   20.5977 C   0  0  0  0  0  0  0  0  0  0  0  0
    7.9097  -13.4179   19.5373 C   0  0  1  0  0  0  0  0  0  0  0  0
    8.6366  -13.2683   18.3643 O   0  0  0  0  0  0  0  0  0  0  0  0
    8.0125  -14.8055   20.1000 C   0  0  2  0  0  0  0  0  0  0  0  0
    7.6727  -15.7982   19.1271 N   0  0  0  0  0  0  0  0  0  0  0  0
    7.2546  -14.9771   21.3647 C   0  0  0  0  0  0  0  0  0  0  0  0
    6.0193  -15.1755   21.4001 O   0  0  0  0  0  0  0  0  0  0  0  0
    7.9855  -14.9092   22.5810 N   0  0  0  0  0  0  0  0  0  0  0  0
    7.3615  -15.2781   23.8704 C   0  0  1  0  0  0  0  0  0  0  0  0
    7.5230  -16.8044   23.8660 C   0  0  0  0  0  0  0  0  0  0  0  0
    6.3451  -17.5382   23.3544 C   0  0  0  0  0  0  0  0  0  0  0  0
    6.5672  -19.0580   23.4967 C   0  0  0  0  0  0  0  0  0  0  0  0
    5.3262  -19.7995   23.0366 C   0  0  0  0  0  0  0  0  0  0  0  0
    5.6437  -21.2169   23.0979 N   0  0  0  0  0  0  0  0  0  0  0  0
    8.2896  -14.7367   24.9328 C   0  0  0  0  0  0  0  0  0  0  0  0
    9.3929  -15.3723   24.9908 O   0  0  0  0  0  0  0  0  0  0  0  0
    7.9392  -13.6564   25.7388 N   0  0  0  0  0  0  0  0  0  0  0  0
    7.1034  -12.5242   25.2787 C   0  0  0  0  0  0  0  0  0  0  0  0
    6.2061  -12.2312   26.4563 C   0  0  0  0  0  0  0  0  0  0  0  0
    6.7365  -13.1020   27.5639 C   0  0  0  0  0  0  0  0  0  0  0  0
    8.2065  -13.3137   27.0827 C   0  0  1  0  0  0  0  0  0  0  0  0
    8.8841  -14.2385   27.9602 C   0  0  0  0  0  0  0  0  0  0  0  0
    9.7239  -13.7212   28.9562 O   0  0  0  0  0  0  0  0  0  0  0  0
    8.7900  -15.4636   27.9126 O   0  0  0  0  0  0  0  0  0  0  0  0
  2  1  1  1
  2  3  1  0
  4  2  1  0
  4  5  1  6
  6  4  1  0
  7  6  2  0
  8  6  1  0
  9  8  1  0
 10 11  1  0
  9 10  1  6
 12 11  1  0
 13 14  1  0
 13 12  1  0
 15 17  1  0
 15  9  1  0
 16 15  2  0
 17 18  1  0
 19 18  1  0
 20 19  1  0
 21 17  1  0
 21 20  1  0
 22 23  1  0
 21 22  1  1
 24 22  2  0
M  END
$$$$
