TKP.pdb
     RDKit          3D

 24 24  0  0  1  0  0  0  0  0999 V2000
    9.2265  -18.9030   20.3056 C   0  0  0  0  0  0  0  0  0  0  0  0
    9.6223  -18.1748   21.5795 C   0  0  1  0  0  0  0  0  0  0  0  0
   10.8085  -18.6927   22.0808 O   0  0  0  0  0  0  0  0  0  0  0  0
    9.7303  -16.7143   21.2511 C   0  0  2  0  0  0  0  0  0  0  0  0
   10.6847  -16.4739   20.2126 N   0  0  0  0  0  0  0  0  0  0  0  0
    9.9752  -15.8670   22.4450 C   0  0  0  0  0  0  0  0  0  0  0  0
   11.1019  -15.4073   22.7378 O   0  0  0  0  0  0  0  0  0  0  0  0
    8.8643  -15.5763   23.2815 N   0  0  0  0  0  0  0  0  0  0  0  0
    9.0022  -14.6876   24.4557 C   0  0  1  0  0  0  0  0  0  0  0  0
    7.5696  -14.1598   24.6135 C   0  0  0  0  0  0  0  0  0  0  0  0
    7.3688  -13.2918   25.7941 C   0  0  0  0  0  0  0  0  0  0  0  0
    5.9087  -12.7970   25.8433 C   0  0  0  0  0  0  0  0  0  0  0  0
    5.7125  -11.9086   27.0573 C   0  0  0  0  0  0  0  0  0  0  0  0
    4.3088  -11.5303   27.0716 N   0  0  0  0  0  0  0  0  0  0  0  0
    9.2674  -15.6078   25.6245 C   0  0  0  0  0  0  0  0  0  0  0  0
    8.6059  -16.6950   25.5529 O   0  0  0  0  0  0  0  0  0  0  0  0
   10.1489  -15.2674   26.6475 N   0  0  0  0  0  0  0  0  0  0  0  0
   11.0160  -14.0676   26.6205 C   0  0  0  0  0  0  0  0  0  0  0  0
   10.9644  -13.5484   28.0366 C   0  0  0  0  0  0  0  0  0  0  0  0
   10.2193  -14.6086   28.8029 C   0  0  0  0  0  0  0  0  0  0  0  0
   10.4722  -15.8512   27.8923 C   0  0  1  0  0  0  0  0  0  0  0  0
    9.7321  -16.9863   28.3905 C   0  0  0  0  0  0  0  0  0  0  0  0
   10.4474  -18.0809   28.8955 O   0  0  0  0  0  0  0  0  0  0  0  0
    8.5064  -17.0827   28.4126 O   0  0  0  0  0  0  0  0  0  0  0  0
  2  1  1  6
  2  3  1  0
  4  2  1  0
  4  5  1  6
  6  4  1  0
  7  6  2  0
  8  6  1  0
  9  8  1  0
 10 11  1  0
  9 10  1  1
 12 11  1  0
 13 14  1  0
 13 12  1  0
 15 17  1  0
 15  9  1  0
 16 15  2  0
 17 18  1  0
 19 18  1  0
 20 19  1  0
 21 17  1  0
 21 20  1  0
 22 23  1  0
 21 22  1  1
 24 22  2  0
M  END
$$$$
