TKP.pdb
     RDKit          3D

 24 24  0  0  1  0  0  0  0  0999 V2000
    8.5144  -12.7435   20.6865 C   0  0  0  0  0  0  0  0  0  0  0  0
    7.8920  -13.6245   19.6158 C   0  0  1  0  0  0  0  0  0  0  0  0
    8.6030  -13.5138   18.4288 O   0  0  0  0  0  0  0  0  0  0  0  0
    7.8727  -15.0303   20.1412 C   0  0  2  0  0  0  0  0  0  0  0  0
    7.4388  -15.9620   19.1457 N   0  0  0  0  0  0  0  0  0  0  0  0
    7.1102  -15.1668   21.4074 C   0  0  0  0  0  0  0  0  0  0  0  0
    5.9077  -15.5119   21.4477 O   0  0  0  0  0  0  0  0  0  0  0  0
    7.7970  -14.8877   22.6193 N   0  0  0  0  0  0  0  0  0  0  0  0
    7.2351  -15.2891   23.9273 C   0  0  1  0  0  0  0  0  0  0  0  0
    7.4269  -16.8114   23.8918 C   0  0  0  0  0  0  0  0  0  0  0  0
    6.9600  -17.5109   25.1085 C   0  0  0  0  0  0  0  0  0  0  0  0
    7.6443  -18.8887   25.2208 C   0  0  0  0  0  0  0  0  0  0  0  0
    7.1225  -19.6185   26.4442 C   0  0  0  0  0  0  0  0  0  0  0  0
    7.9108  -20.8335   26.5696 N   0  0  0  0  0  0  0  0  0  0  0  0
    8.1956  -14.7446   24.9589 C   0  0  0  0  0  0  0  0  0  0  0  0
    9.2518  -15.4499   25.0663 O   0  0  0  0  0  0  0  0  0  0  0  0
    7.9190  -13.5921   25.6900 N   0  0  0  0  0  0  0  0  0  0  0  0
    7.0033  -12.5246   25.2272 C   0  0  0  0  0  0  0  0  0  0  0  0
    6.2507  -12.1244   26.4727 C   0  0  0  0  0  0  0  0  0  0  0  0
    6.9365  -12.8694   27.5866 C   0  0  0  0  0  0  0  0  0  0  0  0
    8.3409  -13.1095   26.9486 C   0  0  1  0  0  0  0  0  0  0  0  0
    9.1458  -13.9298   27.8224 C   0  0  0  0  0  0  0  0  0  0  0  0
    8.9261  -15.3143   27.8290 O   0  0  0  0  0  0  0  0  0  0  0  0
   10.0245  -13.5166   28.5769 O   0  0  0  0  0  0  0  0  0  0  0  0
  2  1  1  1
  2  3  1  0
  4  2  1  0
  4  5  1  6
  6  4  1  0
  7  6  2  0
  8  6  1  0
  9  8  1  0
 10 11  1  0
  9 10  1  6
 12 11  1  0
 13 14  1  0
 13 12  1  0
 15 17  1  0
 15  9  1  0
 16 15  2  0
 17 18  1  0
 19 18  1  0
 20 19  1  0
 21 17  1  0
 21 20  1  0
 22 23  1  0
 21 22  1  1
 24 22  2  0
M  END
$$$$
