TKP.pdb
     RDKit          3D

 24 24  0  0  1  0  0  0  0  0999 V2000
   10.5856  -13.5740   20.9184 C   0  0  0  0  0  0  0  0  0  0  0  0
    9.6204  -12.8393   20.0027 C   0  0  1  0  0  0  0  0  0  0  0  0
   10.2007  -12.6325   18.7588 O   0  0  0  0  0  0  0  0  0  0  0  0
    8.3649  -13.6574   19.9184 C   0  0  2  0  0  0  0  0  0  0  0  0
    7.4254  -13.0927   18.9988 N   0  0  0  0  0  0  0  0  0  0  0  0
    7.7576  -13.9277   21.2455 C   0  0  0  0  0  0  0  0  0  0  0  0
    7.0072  -13.1158   21.8323 O   0  0  0  0  0  0  0  0  0  0  0  0
    8.0553  -15.1730   21.8611 N   0  0  0  0  0  0  0  0  0  0  0  0
    7.4212  -15.5664   23.1382 C   0  0  1  0  0  0  0  0  0  0  0  0
    7.5792  -17.0927   23.1041 C   0  0  0  0  0  0  0  0  0  0  0  0
    7.0001  -17.7894   24.2732 C   0  0  0  0  0  0  0  0  0  0  0  0
    7.3335  -19.2941   24.2095 C   0  0  0  0  0  0  0  0  0  0  0  0
    6.7617  -19.9946   25.4277 C   0  0  0  0  0  0  0  0  0  0  0  0
    5.6832  -20.8439   24.9492 N   0  0  0  0  0  0  0  0  0  0  0  0
    8.3428  -15.0489   24.2181 C   0  0  0  0  0  0  0  0  0  0  0  0
    9.4745  -15.6352   24.2198 O   0  0  0  0  0  0  0  0  0  0  0  0
    7.9586  -14.0373   25.0947 N   0  0  0  0  0  0  0  0  0  0  0  0
    7.0204  -12.9499   24.7349 C   0  0  0  0  0  0  0  0  0  0  0  0
    6.1676  -12.7810   25.9686 C   0  0  0  0  0  0  0  0  0  0  0  0
    6.8169  -13.6616   27.0026 C   0  0  0  0  0  0  0  0  0  0  0  0
    8.2709  -13.7401   26.4397 C   0  0  1  0  0  0  0  0  0  0  0  0
    9.0587  -14.6526   27.2342 C   0  0  0  0  0  0  0  0  0  0  0  0
    9.9624  -14.1201   28.1640 O   0  0  0  0  0  0  0  0  0  0  0  0
    9.0083  -15.8795   27.1684 O   0  0  0  0  0  0  0  0  0  0  0  0
  2  1  1  1
  2  3  1  0
  4  2  1  0
  4  5  1  6
  6  4  1  0
  7  6  2  0
  8  6  1  0
  9  8  1  0
 10 11  1  0
  9 10  1  6
 12 11  1  0
 13 14  1  0
 13 12  1  0
 15 17  1  0
 15  9  1  0
 16 15  2  0
 17 18  1  0
 19 18  1  0
 20 19  1  0
 21 17  1  0
 21 20  1  0
 22 23  1  0
 21 22  1  1
 24 22  2  0
M  END
$$$$
