TKP.pdb
     RDKit          3D

 24 24  0  0  1  0  0  0  0  0999 V2000
   10.1372  -14.1949   18.3155 C   0  0  0  0  0  0  0  0  0  0  0  0
    9.7626  -14.2055   19.7884 C   0  0  1  0  0  0  0  0  0  0  0  0
   10.5675  -13.3231   20.4957 O   0  0  0  0  0  0  0  0  0  0  0  0
    8.3064  -13.8555   19.8878 C   0  0  2  0  0  0  0  0  0  0  0  0
    8.0230  -12.5908   19.2816 N   0  0  0  0  0  0  0  0  0  0  0  0
    7.7810  -13.9439   21.2731 C   0  0  0  0  0  0  0  0  0  0  0  0
    7.4155  -12.9437   21.9310 O   0  0  0  0  0  0  0  0  0  0  0  0
    7.6974  -15.2344   21.8613 N   0  0  0  0  0  0  0  0  0  0  0  0
    7.0668  -15.4331   23.1844 C   0  0  1  0  0  0  0  0  0  0  0  0
    6.9900  -16.9639   23.2632 C   0  0  0  0  0  0  0  0  0  0  0  0
    6.4968  -17.4814   24.5580 C   0  0  0  0  0  0  0  0  0  0  0  0
    6.9883  -18.9281   24.7700 C   0  0  0  0  0  0  0  0  0  0  0  0
    6.5990  -19.4000   26.1583 C   0  0  0  0  0  0  0  0  0  0  0  0
    7.2303  -20.6959   26.3477 N   0  0  0  0  0  0  0  0  0  0  0  0
    8.1020  -14.9882   24.1913 C   0  0  0  0  0  0  0  0  0  0  0  0
    9.1478  -15.7166   24.1742 O   0  0  0  0  0  0  0  0  0  0  0  0
    7.8967  -13.8935   25.0272 N   0  0  0  0  0  0  0  0  0  0  0  0
    7.1475  -12.6812   24.6256 C   0  0  0  0  0  0  0  0  0  0  0  0
    6.3441  -12.3257   25.8527 C   0  0  0  0  0  0  0  0  0  0  0  0
    6.8478  -13.2601   26.9202 C   0  0  0  0  0  0  0  0  0  0  0  0
    8.2644  -13.5993   26.3589 C   0  0  1  0  0  0  0  0  0  0  0  0
    8.8975  -14.5973   27.1881 C   0  0  0  0  0  0  0  0  0  0  0  0
    9.7948  -14.1725   28.1777 O   0  0  0  0  0  0  0  0  0  0  0  0
    8.7178  -15.8109   27.1039 O   0  0  0  0  0  0  0  0  0  0  0  0
  2  1  1  6
  2  3  1  0
  4  2  1  0
  4  5  1  1
  6  4  1  0
  7  6  2  0
  8  6  1  0
  9  8  1  0
 10 11  1  0
  9 10  1  1
 12 11  1  0
 13 14  1  0
 13 12  1  0
 15 17  1  0
 15  9  1  0
 16 15  2  0
 17 18  1  0
 19 18  1  0
 20 19  1  0
 21 17  1  0
 21 20  1  0
 22 23  1  0
 21 22  1  1
 24 22  2  0
M  END
$$$$
