TKP.pdb
     RDKit          3D

 24 24  0  0  1  0  0  0  0  0999 V2000
    8.6427  -12.6249   20.5726 C   0  0  0  0  0  0  0  0  0  0  0  0
    7.9690  -13.5930   19.6139 C   0  0  1  0  0  0  0  0  0  0  0  0
    8.6119  -13.5771   18.3838 O   0  0  0  0  0  0  0  0  0  0  0  0
    7.9907  -14.9511   20.2523 C   0  0  2  0  0  0  0  0  0  0  0  0
    7.5671  -15.9710   19.3426 N   0  0  0  0  0  0  0  0  0  0  0  0
    7.2479  -15.0012   21.5365 C   0  0  0  0  0  0  0  0  0  0  0  0
    6.0062  -14.8639   21.6140 O   0  0  0  0  0  0  0  0  0  0  0  0
    8.0014  -15.2160   22.7215 N   0  0  0  0  0  0  0  0  0  0  0  0
    7.3347  -15.4228   24.0255 C   0  0  1  0  0  0  0  0  0  0  0  0
    7.3780  -16.9515   24.1555 C   0  0  0  0  0  0  0  0  0  0  0  0
    6.2809  -17.6520   23.4531 C   0  0  0  0  0  0  0  0  0  0  0  0
    6.3960  -19.1735   23.6791 C   0  0  0  0  0  0  0  0  0  0  0  0
    5.3568  -19.8931   22.8401 C   0  0  0  0  0  0  0  0  0  0  0  0
    5.6058  -21.3162   23.0030 N   0  0  0  0  0  0  0  0  0  0  0  0
    8.2882  -14.8627   25.0552 C   0  0  0  0  0  0  0  0  0  0  0  0
    9.3581  -15.5480   25.1572 O   0  0  0  0  0  0  0  0  0  0  0  0
    7.9923  -13.7174   25.7901 N   0  0  0  0  0  0  0  0  0  0  0  0
    7.1280  -12.6224   25.2939 C   0  0  0  0  0  0  0  0  0  0  0  0
    6.3108  -12.2279   26.4999 C   0  0  0  0  0  0  0  0  0  0  0  0
    6.9134  -13.0070   27.6384 C   0  0  0  0  0  0  0  0  0  0  0  0
    8.3481  -13.2662   27.0804 C   0  0  1  0  0  0  0  0  0  0  0  0
    9.0823  -14.1191   27.9848 C   0  0  0  0  0  0  0  0  0  0  0  0
   10.0027  -13.5281   28.8616 O   0  0  0  0  0  0  0  0  0  0  0  0
    8.9719  -15.3416   28.0578 O   0  0  0  0  0  0  0  0  0  0  0  0
  2  1  1  1
  2  3  1  0
  4  2  1  0
  4  5  1  6
  6  4  1  0
  7  6  2  0
  8  6  1  0
  9  8  1  0
 10 11  1  0
  9 10  1  1
 12 11  1  0
 13 14  1  0
 13 12  1  0
 15 17  1  0
 15  9  1  0
 16 15  2  0
 17 18  1  0
 19 18  1  0
 20 19  1  0
 21 17  1  0
 21 20  1  0
 22 23  1  0
 21 22  1  1
 24 22  2  0
M  END
$$$$
