TKP.pdb
     RDKit          3D

 24 24  0  0  1  0  0  0  0  0999 V2000
    8.3809  -12.5909   20.4366 C   0  0  0  0  0  0  0  0  0  0  0  0
    7.8688  -13.6107   19.4328 C   0  0  1  0  0  0  0  0  0  0  0  0
    8.5866  -13.5218   18.2481 O   0  0  0  0  0  0  0  0  0  0  0  0
    7.9798  -14.9661   20.0677 C   0  0  2  0  0  0  0  0  0  0  0  0
    7.6192  -16.0090   19.1569 N   0  0  0  0  0  0  0  0  0  0  0  0
    7.2465  -15.0667   21.3543 C   0  0  0  0  0  0  0  0  0  0  0  0
    6.0057  -14.9305   21.4466 O   0  0  0  0  0  0  0  0  0  0  0  0
    8.0084  -15.3305   22.5240 N   0  0  0  0  0  0  0  0  0  0  0  0
    7.3597  -15.4592   23.8470 C   0  0  1  0  0  0  0  0  0  0  0  0
    7.4184  -16.9761   24.0735 C   0  0  0  0  0  0  0  0  0  0  0  0
    6.3776  -17.7388   23.3507 C   0  0  0  0  0  0  0  0  0  0  0  0
    6.5768  -19.2512   23.5794 C   0  0  0  0  0  0  0  0  0  0  0  0
    5.5051  -20.0246   22.8344 C   0  0  0  0  0  0  0  0  0  0  0  0
    5.8668  -21.4295   22.9287 N   0  0  0  0  0  0  0  0  0  0  0  0
    8.3207  -14.8267   24.8266 C   0  0  0  0  0  0  0  0  0  0  0  0
    9.4119  -15.4769   24.9328 O   0  0  0  0  0  0  0  0  0  0  0  0
    8.0095  -13.6577   25.5165 N   0  0  0  0  0  0  0  0  0  0  0  0
    7.2473  -12.5333   24.9273 C   0  0  0  0  0  0  0  0  0  0  0  0
    6.3386  -12.0834   26.0451 C   0  0  0  0  0  0  0  0  0  0  0  0
    6.7942  -12.8702   27.2450 C   0  0  0  0  0  0  0  0  0  0  0  0
    8.2619  -13.2021   26.8294 C   0  0  1  0  0  0  0  0  0  0  0  0
    8.8672  -14.0722   27.8097 C   0  0  0  0  0  0  0  0  0  0  0  0
    9.7072  -13.5054   28.7782 O   0  0  0  0  0  0  0  0  0  0  0  0
    8.7100  -15.2901   27.8739 O   0  0  0  0  0  0  0  0  0  0  0  0
  2  1  1  1
  2  3  1  0
  4  2  1  0
  4  5  1  6
  6  4  1  0
  7  6  2  0
  8  6  1  0
  9  8  1  0
 10 11  1  0
  9 10  1  1
 12 11  1  0
 13 14  1  0
 13 12  1  0
 15 17  1  0
 15  9  1  0
 16 15  2  0
 17 18  1  0
 19 18  1  0
 20 19  1  0
 21 17  1  0
 21 20  1  0
 22 23  1  0
 21 22  1  1
 24 22  2  0
M  END
$$$$
