TKP.pdb
     RDKit          3D

 24 24  0  0  1  0  0  0  0  0999 V2000
   10.1514  -13.0012   20.9893 C   0  0  0  0  0  0  0  0  0  0  0  0
    9.3018  -12.8791   19.7350 C   0  0  1  0  0  0  0  0  0  0  0  0
   10.1121  -12.7278   18.6182 O   0  0  0  0  0  0  0  0  0  0  0  0
    8.4379  -14.1036   19.6524 C   0  0  2  0  0  0  0  0  0  0  0  0
    7.6339  -14.1059   18.4689 N   0  0  0  0  0  0  0  0  0  0  0  0
    7.6322  -14.3298   20.8783 C   0  0  0  0  0  0  0  0  0  0  0  0
    6.4852  -13.8554   21.0400 O   0  0  0  0  0  0  0  0  0  0  0  0
    8.2091  -15.1253   21.9043 N   0  0  0  0  0  0  0  0  0  0  0  0
    7.4674  -15.4257   23.1482 C   0  0  1  0  0  0  0  0  0  0  0  0
    7.5271  -16.9590   23.1808 C   0  0  0  0  0  0  0  0  0  0  0  0
    6.8958  -17.5661   24.3726 C   0  0  0  0  0  0  0  0  0  0  0  0
    7.0830  -19.0970   24.3470 C   0  0  0  0  0  0  0  0  0  0  0  0
    6.3861  -19.7155   25.5443 C   0  0  0  0  0  0  0  0  0  0  0  0
    6.5773  -21.1528   25.4382 N   0  0  0  0  0  0  0  0  0  0  0  0
    8.3472  -14.9233   24.2693 C   0  0  0  0  0  0  0  0  0  0  0  0
    9.4139  -15.6086   24.4005 O   0  0  0  0  0  0  0  0  0  0  0  0
    7.9945  -13.8250   25.0494 N   0  0  0  0  0  0  0  0  0  0  0  0
    7.1015  -12.7392   24.5850 C   0  0  0  0  0  0  0  0  0  0  0  0
    6.2455  -12.4308   25.7891 C   0  0  0  0  0  0  0  0  0  0  0  0
    6.8520  -13.2408   26.9037 C   0  0  0  0  0  0  0  0  0  0  0  0
    8.3066  -13.4226   26.3669 C   0  0  1  0  0  0  0  0  0  0  0  0
    9.0523  -14.2905   27.2473 C   0  0  0  0  0  0  0  0  0  0  0  0
    8.5254  -15.5556   27.5422 O   0  0  0  0  0  0  0  0  0  0  0  0
   10.1294  -14.0157   27.7731 O   0  0  0  0  0  0  0  0  0  0  0  0
  2  1  1  1
  2  3  1  0
  4  2  1  0
  4  5  1  6
  6  4  1  0
  7  6  2  0
  8  6  1  0
  9  8  1  0
 10 11  1  0
  9 10  1  1
 12 11  1  0
 13 14  1  0
 13 12  1  0
 15 17  1  0
 15  9  1  0
 16 15  2  0
 17 18  1  0
 19 18  1  0
 20 19  1  0
 21 17  1  0
 21 20  1  0
 22 23  1  0
 21 22  1  1
 24 22  2  0
M  END
$$$$
