TKP.pdb
     RDKit          3D

 24 24  0  0  1  0  0  0  0  0999 V2000
    8.5318  -12.7024   20.6371 C   0  0  0  0  0  0  0  0  0  0  0  0
    7.8503  -13.6350   19.6492 C   0  0  1  0  0  0  0  0  0  0  0  0
    8.4730  -13.5620   18.4109 O   0  0  0  0  0  0  0  0  0  0  0  0
    7.8929  -15.0185   20.2294 C   0  0  2  0  0  0  0  0  0  0  0  0
    7.4273  -15.9987   19.2968 N   0  0  0  0  0  0  0  0  0  0  0  0
    7.2043  -15.1201   21.5404 C   0  0  0  0  0  0  0  0  0  0  0  0
    5.9600  -15.0675   21.6651 O   0  0  0  0  0  0  0  0  0  0  0  0
    8.0149  -15.2843   22.6955 N   0  0  0  0  0  0  0  0  0  0  0  0
    7.4123  -15.4979   24.0293 C   0  0  1  0  0  0  0  0  0  0  0  0
    7.6106  -17.0079   24.2196 C   0  0  0  0  0  0  0  0  0  0  0  0
    7.1552  -17.5197   25.5304 C   0  0  0  0  0  0  0  0  0  0  0  0
    7.5484  -19.0034   25.6833 C   0  0  0  0  0  0  0  0  0  0  0  0
    6.9831  -19.5491   26.9811 C   0  0  0  0  0  0  0  0  0  0  0  0
    7.2799  -20.9722   26.9965 N   0  0  0  0  0  0  0  0  0  0  0  0
    8.3370  -14.8028   25.0015 C   0  0  0  0  0  0  0  0  0  0  0  0
    9.4675  -15.3827   25.1035 O   0  0  0  0  0  0  0  0  0  0  0  0
    7.9566  -13.6533   25.6895 N   0  0  0  0  0  0  0  0  0  0  0  0
    7.0604  -12.6173   25.1276 C   0  0  0  0  0  0  0  0  0  0  0  0
    6.1776  -12.2300   26.2888 C   0  0  0  0  0  0  0  0  0  0  0  0
    6.7717  -12.9455   27.4727 C   0  0  0  0  0  0  0  0  0  0  0  0
    8.2384  -13.1485   26.9782 C   0  0  1  0  0  0  0  0  0  0  0  0
    8.9768  -13.9376   27.9355 C   0  0  0  0  0  0  0  0  0  0  0  0
    9.8102  -13.2746   28.8469 O   0  0  0  0  0  0  0  0  0  0  0  0
    8.9406  -15.1634   28.0264 O   0  0  0  0  0  0  0  0  0  0  0  0
  2  1  1  1
  2  3  1  0
  4  2  1  0
  4  5  1  6
  6  4  1  0
  7  6  2  0
  8  6  1  0
  9  8  1  0
 10 11  1  0
  9 10  1  1
 12 11  1  0
 13 14  1  0
 13 12  1  0
 15 17  1  0
 15  9  1  0
 16 15  2  0
 17 18  1  0
 19 18  1  0
 20 19  1  0
 21 17  1  0
 21 20  1  0
 22 23  1  0
 21 22  1  1
 24 22  2  0
M  END
$$$$
