ECY.pdb
     RDKit          3D

 28 28  0  0  1  0  0  0  0  0999 V2000
   20.4884  -14.6791  -16.1286 N   0  0  0  0  0  0  0  0  0  0  0  0
   20.7912  -13.6103  -17.1093 C   0  0  1  0  0  0  0  0  0  0  0  0
   20.3449  -14.0413  -18.4710 C   0  0  0  0  0  0  0  0  0  0  0  0
   21.4120  -14.7592  -19.2067 C   0  0  0  0  0  0  0  0  0  0  0  0
   21.0175  -15.2165  -20.5510 C   0  0  0  0  0  0  0  0  0  0  0  0
   19.8815  -15.0231  -20.9925 O   0  0  0  0  0  0  0  0  0  0  0  0
   19.9903  -12.4219  -16.6713 C   0  0  0  0  0  0  0  0  0  0  0  0
   18.7608  -12.5438  -16.3817 O   0  0  0  0  0  0  0  0  0  0  0  0
   21.9992  -15.8801  -21.2968 O   0  0  0  0  0  0  0  0  0  0  0  0
   20.5370  -11.1161  -16.5539 N   0  0  0  0  0  0  0  0  0  0  0  0
   19.7038  -10.0248  -16.0920 C   0  0  1  0  0  0  0  0  0  0  0  0
   19.2623  -10.2585  -14.6615 C   0  0  0  0  0  0  0  0  0  0  0  0
   18.2513   -8.8952  -14.0586 S   0  0  0  0  0  0  0  0  0  0  0  0
   20.4315   -8.7371  -16.1129 C   0  0  0  0  0  0  0  0  0  0  0  0
   21.5087   -8.6478  -15.4784 O   0  0  0  0  0  0  0  0  0  0  0  0
   21.0589   -8.4083  -22.8950 O   0  0  0  0  0  0  0  0  0  0  0  0
   20.8475   -7.7218  -21.7099 C   0  0  0  0  0  0  0  0  0  0  0  0
   19.9899   -6.6266  -21.6689 C   0  0  0  0  0  0  0  0  0  0  0  0
   19.7802   -5.9459  -20.4946 C   0  0  0  0  0  0  0  0  0  0  0  0
   20.3992   -6.3077  -19.3157 C   0  0  0  0  0  0  0  0  0  0  0  0
   20.1351   -5.5312  -18.0668 C   0  0  0  0  0  0  0  0  0  0  0  0
   20.7156   -6.3642  -16.9287 C   0  0  2  0  0  0  0  0  0  0  0  0
   19.9674   -7.6007  -16.8171 N   0  0  0  0  0  0  0  0  0  0  0  0
   20.6407   -5.6293  -15.6538 C   0  0  0  0  0  0  0  0  0  0  0  0
   19.9278   -6.0192  -14.6936 O   0  0  0  0  0  0  0  0  0  0  0  0
   21.2489   -7.3891  -19.3453 C   0  0  0  0  0  0  0  0  0  0  0  0
   21.4638   -8.0786  -20.5262 C   0  0  0  0  0  0  0  0  0  0  0  0
   21.3723   -4.4621  -15.4777 O   0  0  0  0  0  0  0  0  0  0  0  0
  2  1  1  1
  3  2  1  0
  3  4  1  0
  4  5  1  0
  5  9  1  0
  5  6  2  0
  7  2  1  0
  8  7  2  0
 10  7  1  0
 11 14  1  0
 11 10  1  0
 11 12  1  1
 13 12  1  0
 14 23  1  0
 15 14  2  0
 16 17  1  0
 17 18  2  0
 17 27  1  0
 18 19  1  0
 19 20  2  0
 20 21  1  0
 22 21  1  6
 22 24  1  0
 23 22  1  0
 24 25  2  0
 24 28  1  0
 26 20  1  0
 27 26  2  0
M  END
$$$$
