ECY.pdb
     RDKit          3D

 28 28  0  0  1  0  0  0  0  0999 V2000
   21.7917  -14.5440  -19.1627 N   0  0  0  0  0  0  0  0  0  0  0  0
   22.1400  -13.2103  -19.7064 C   0  0  1  0  0  0  0  0  0  0  0  0
   20.9755  -12.6633  -20.4707 C   0  0  0  0  0  0  0  0  0  0  0  0
   20.8179  -13.3170  -21.7909 C   0  0  0  0  0  0  0  0  0  0  0  0
   21.7889  -12.8719  -22.8063 C   0  0  0  0  0  0  0  0  0  0  0  0
   21.5075  -11.9980  -23.6309 O   0  0  0  0  0  0  0  0  0  0  0  0
   22.4080  -12.3451  -18.5127 C   0  0  0  0  0  0  0  0  0  0  0  0
   21.6863  -12.4387  -17.4730 O   0  0  0  0  0  0  0  0  0  0  0  0
   23.0435  -13.4929  -22.7837 O   0  0  0  0  0  0  0  0  0  0  0  0
   23.4576  -11.3891  -18.4650 N   0  0  0  0  0  0  0  0  0  0  0  0
   23.6590  -10.5990  -17.2677 C   0  0  1  0  0  0  0  0  0  0  0  0
   25.1235  -10.5817  -16.8793 C   0  0  0  0  0  0  0  0  0  0  0  0
   25.4098   -9.5140  -15.4572 S   0  0  0  0  0  0  0  0  0  0  0  0
   23.2503   -9.1916  -17.4684 C   0  0  0  0  0  0  0  0  0  0  0  0
   23.5929   -8.6139  -18.5266 O   0  0  0  0  0  0  0  0  0  0  0  0
   16.3104   -9.5039  -15.9217 O   0  0  0  0  0  0  0  0  0  0  0  0
   17.4607   -8.8850  -16.3845 C   0  0  0  0  0  0  0  0  0  0  0  0
   18.3987   -9.5968  -17.1263 C   0  0  0  0  0  0  0  0  0  0  0  0
   19.5389   -8.9839  -17.5851 C   0  0  0  0  0  0  0  0  0  0  0  0
   19.8075   -7.6533  -17.3378 C   0  0  0  0  0  0  0  0  0  0  0  0
   21.0641   -7.0372  -17.8608 C   0  0  0  0  0  0  0  0  0  0  0  0
   22.0650   -7.0944  -16.7114 C   0  0  2  0  0  0  0  0  0  0  0  0
   22.4894   -8.4671  -16.5204 N   0  0  0  0  0  0  0  0  0  0  0  0
   21.4585   -6.5911  -15.4664 C   0  0  0  0  0  0  0  0  0  0  0  0
   21.0576   -5.4050  -15.3451 O   0  0  0  0  0  0  0  0  0  0  0  0
   18.8866   -6.9405  -16.6055 C   0  0  0  0  0  0  0  0  0  0  0  0
   17.7358   -7.5534  -16.1406 C   0  0  0  0  0  0  0  0  0  0  0  0
   21.3117   -7.4334  -14.3721 O   0  0  0  0  0  0  0  0  0  0  0  0
  2  1  1  1
  3  2  1  0
  3  4  1  0
  4  5  1  0
  5  9  1  0
  5  6  2  0
  7  2  1  0
  8  7  2  0
 10  7  1  0
 11 14  1  0
 11 10  1  0
 11 12  1  6
 13 12  1  0
 14 23  1  0
 15 14  2  0
 16 17  1  0
 17 18  2  0
 17 27  1  0
 18 19  1  0
 19 20  2  0
 20 21  1  0
 22 21  1  6
 22 24  1  0
 23 22  1  0
 24 25  2  0
 24 28  1  0
 26 20  1  0
 27 26  2  0
M  END
$$$$
