ECY.pdb
     RDKit          3D

 28 28  0  0  1  0  0  0  0  0999 V2000
   27.3222  -21.1342  -17.0777 N   0  0  0  0  0  0  0  0  0  0  0  0
   26.9664  -19.9981  -16.1954 C   0  0  1  0  0  0  0  0  0  0  0  0
   26.2492  -18.9535  -16.9914 C   0  0  0  0  0  0  0  0  0  0  0  0
   27.1397  -17.8318  -17.3706 C   0  0  0  0  0  0  0  0  0  0  0  0
   28.2737  -18.2224  -18.2271 C   0  0  0  0  0  0  0  0  0  0  0  0
   28.1007  -18.6811  -19.3596 O   0  0  0  0  0  0  0  0  0  0  0  0
   26.0413  -20.5644  -15.1615 C   0  0  0  0  0  0  0  0  0  0  0  0
   24.9676  -21.1466  -15.5060 O   0  0  0  0  0  0  0  0  0  0  0  0
   29.5531  -18.0449  -17.6870 O   0  0  0  0  0  0  0  0  0  0  0  0
   26.2959  -20.4902  -13.7659 N   0  0  0  0  0  0  0  0  0  0  0  0
   25.3304  -21.0252  -12.8278 C   0  0  1  0  0  0  0  0  0  0  0  0
   25.8978  -21.0314  -11.4228 C   0  0  0  0  0  0  0  0  0  0  0  0
   27.4232  -21.9854  -11.3383 S   0  0  0  0  0  0  0  0  0  0  0  0
   24.0971  -20.2093  -12.7903 C   0  0  0  0  0  0  0  0  0  0  0  0
   24.2059  -18.9612  -12.7547 O   0  0  0  0  0  0  0  0  0  0  0  0
   16.6814  -16.2275  -13.9832 O   0  0  0  0  0  0  0  0  0  0  0  0
   17.8304  -16.9998  -14.0445 C   0  0  0  0  0  0  0  0  0  0  0  0
   19.0505  -16.4902  -13.6104 C   0  0  0  0  0  0  0  0  0  0  0  0
   20.1895  -17.2553  -13.6710 C   0  0  0  0  0  0  0  0  0  0  0  0
   20.1816  -18.5465  -14.1574 C   0  0  0  0  0  0  0  0  0  0  0  0
   21.4506  -19.3339  -14.2010 C   0  0  0  0  0  0  0  0  0  0  0  0
   21.5820  -19.9871  -12.8290 C   0  0  2  0  0  0  0  0  0  0  0  0
   22.7993  -20.7734  -12.7932 N   0  0  0  0  0  0  0  0  0  0  0  0
   20.4268  -20.8594  -12.5539 C   0  0  0  0  0  0  0  0  0  0  0  0
   19.4175  -20.4587  -11.9192 O   0  0  0  0  0  0  0  0  0  0  0  0
   18.9805  -19.0599  -14.5890 C   0  0  0  0  0  0  0  0  0  0  0  0
   17.8296  -18.2930  -14.5302 C   0  0  0  0  0  0  0  0  0  0  0  0
   20.4247  -22.1749  -12.9990 O   0  0  0  0  0  0  0  0  0  0  0  0
  2  1  1  6
  3  2  1  0
  3  4  1  0
  4  5  1  0
  5  9  1  0
  5  6  2  0
  7  2  1  0
  8  7  2  0
 10  7  1  0
 11 14  1  0
 11 10  1  0
 11 12  1  1
 13 12  1  0
 14 23  1  0
 15 14  2  0
 16 17  1  0
 17 18  2  0
 17 27  1  0
 18 19  1  0
 19 20  2  0
 20 21  1  0
 22 21  1  6
 22 24  1  0
 23 22  1  0
 24 25  2  0
 24 28  1  0
 26 20  1  0
 27 26  2  0
M  END
$$$$
