ECY.pdb
     RDKit          3D

 28 28  0  0  1  0  0  0  0  0999 V2000
   20.9592  -12.9174  -17.0429 N   0  0  0  0  0  0  0  0  0  0  0  0
   21.3812  -12.1687  -18.2500 C   0  0  1  0  0  0  0  0  0  0  0  0
   20.5639  -12.6109  -19.4228 C   0  0  0  0  0  0  0  0  0  0  0  0
   20.5092  -14.0869  -19.5401 C   0  0  0  0  0  0  0  0  0  0  0  0
   21.5777  -14.6677  -20.3726 C   0  0  0  0  0  0  0  0  0  0  0  0
   22.4590  -13.9657  -20.8760 O   0  0  0  0  0  0  0  0  0  0  0  0
   21.0940  -10.7284  -17.9525 C   0  0  0  0  0  0  0  0  0  0  0  0
   21.3155   -9.8330  -18.8242 O   0  0  0  0  0  0  0  0  0  0  0  0
   21.5378  -16.0545  -20.5600 O   0  0  0  0  0  0  0  0  0  0  0  0
   20.5695  -10.2803  -16.7107 N   0  0  0  0  0  0  0  0  0  0  0  0
   20.3213   -8.8687  -16.5005 C   0  0  1  0  0  0  0  0  0  0  0  0
   18.9669   -8.6549  -15.8556 C   0  0  0  0  0  0  0  0  0  0  0  0
   18.8374   -9.5471  -14.2964 S   0  0  0  0  0  0  0  0  0  0  0  0
   21.3273   -8.2669  -15.5984 C   0  0  0  0  0  0  0  0  0  0  0  0
   21.9554   -9.0183  -14.8161 O   0  0  0  0  0  0  0  0  0  0  0  0
   25.4512   -2.7505  -19.1715 O   0  0  0  0  0  0  0  0  0  0  0  0
   25.0961   -3.6937  -18.2203 C   0  0  0  0  0  0  0  0  0  0  0  0
   25.2432   -5.0528  -18.4810 C   0  0  0  0  0  0  0  0  0  0  0  0
   24.8914   -5.9880  -17.5388 C   0  0  0  0  0  0  0  0  0  0  0  0
   24.3826   -5.6329  -16.3063 C   0  0  0  0  0  0  0  0  0  0  0  0
   24.0157   -6.6922  -15.3185 C   0  0  0  0  0  0  0  0  0  0  0  0
   22.6545   -6.2882  -14.7618 C   0  0  2  0  0  0  0  0  0  0  0  0
   21.6138   -6.8812  -15.5781 N   0  0  0  0  0  0  0  0  0  0  0  0
   22.5041   -4.8224  -14.7646 C   0  0  0  0  0  0  0  0  0  0  0  0
   21.7336   -4.2269  -15.5609 O   0  0  0  0  0  0  0  0  0  0  0  0
   24.2332   -4.2919  -16.0384 C   0  0  0  0  0  0  0  0  0  0  0  0
   24.5863   -3.3453  -16.9847 C   0  0  0  0  0  0  0  0  0  0  0  0
   23.2257   -4.0457  -13.8677 O   0  0  0  0  0  0  0  0  0  0  0  0
  2  1  1  1
  3  2  1  0
  3  4  1  0
  4  5  1  0
  5  9  1  0
  5  6  2  0
  7  2  1  0
  8  7  2  0
 10  7  1  0
 11 14  1  0
 11 10  1  0
 11 12  1  1
 13 12  1  0
 14 23  1  0
 15 14  2  0
 16 17  1  0
 17 18  2  0
 17 27  1  0
 18 19  1  0
 19 20  2  0
 20 21  1  0
 22 21  1  6
 22 24  1  0
 23 22  1  0
 24 25  2  0
 24 28  1  0
 26 20  1  0
 27 26  2  0
M  END
$$$$
