ECY.pdb
     RDKit          3D

 28 28  0  0  1  0  0  0  0  0999 V2000
   20.4061  -21.9037  -19.1821 N   0  0  0  0  0  0  0  0  0  0  0  0
   19.2912  -21.2613  -18.4472 C   0  0  1  0  0  0  0  0  0  0  0  0
   18.0680  -22.1173  -18.5484 C   0  0  0  0  0  0  0  0  0  0  0  0
   18.4017  -23.5425  -18.7780 C   0  0  0  0  0  0  0  0  0  0  0  0
   17.6666  -24.4829  -17.9134 C   0  0  0  0  0  0  0  0  0  0  0  0
   16.4602  -24.6929  -18.0653 O   0  0  0  0  0  0  0  0  0  0  0  0
   19.7373  -21.1903  -17.0185 C   0  0  0  0  0  0  0  0  0  0  0  0
   20.7575  -21.8363  -16.6283 O   0  0  0  0  0  0  0  0  0  0  0  0
   18.4100  -25.1222  -16.9140 O   0  0  0  0  0  0  0  0  0  0  0  0
   19.0680  -20.4173  -16.0323 N   0  0  0  0  0  0  0  0  0  0  0  0
   19.5601  -20.4050  -14.6699 C   0  0  1  0  0  0  0  0  0  0  0  0
   19.1720  -19.1165  -13.9735 C   0  0  0  0  0  0  0  0  0  0  0  0
   20.5831  -18.0084  -13.8155 S   0  0  0  0  0  0  0  0  0  0  0  0
   18.9886  -21.5133  -13.8741 C   0  0  0  0  0  0  0  0  0  0  0  0
   17.7757  -21.7929  -14.0217 O   0  0  0  0  0  0  0  0  0  0  0  0
   18.0132  -28.4384   -8.6514 O   0  0  0  0  0  0  0  0  0  0  0  0
   18.5735  -27.3525   -9.3051 C   0  0  0  0  0  0  0  0  0  0  0  0
   18.6379  -26.1083   -8.6849 C   0  0  0  0  0  0  0  0  0  0  0  0
   19.1930  -25.0318   -9.3323 C   0  0  0  0  0  0  0  0  0  0  0  0
   19.7064  -25.1280  -10.6095 C   0  0  0  0  0  0  0  0  0  0  0  0
   20.2987  -23.9242  -11.2670 C   0  0  0  0  0  0  0  0  0  0  0  0
   19.2015  -23.3572  -12.1620 C   0  0  2  0  0  0  0  0  0  0  0  0
   19.7487  -22.2731  -12.9535 N   0  0  0  0  0  0  0  0  0  0  0  0
   18.0769  -22.8545  -11.3536 C   0  0  0  0  0  0  0  0  0  0  0  0
   18.0744  -21.7032  -10.8470 O   0  0  0  0  0  0  0  0  0  0  0  0
   19.6477  -26.3536  -11.2316 C   0  0  0  0  0  0  0  0  0  0  0  0
   19.0892  -27.4418  -10.5834 C   0  0  0  0  0  0  0  0  0  0  0  0
   16.9673  -23.6582  -11.1264 O   0  0  0  0  0  0  0  0  0  0  0  0
  2  1  1  6
  3  2  1  0
  3  4  1  0
  4  5  1  0
  5  9  1  0
  5  6  2  0
  7  2  1  0
  8  7  2  0
 10  7  1  0
 11 14  1  0
 11 10  1  0
 11 12  1  1
 13 12  1  0
 14 23  1  0
 15 14  2  0
 16 17  1  0
 17 18  2  0
 17 27  1  0
 18 19  1  0
 19 20  2  0
 20 21  1  0
 22 21  1  1
 22 24  1  0
 23 22  1  0
 24 25  2  0
 24 28  1  0
 26 20  1  0
 27 26  2  0
M  END
$$$$
