ECY.pdb
     RDKit          3D

 28 28  0  0  1  0  0  0  0  0999 V2000
   27.1711  -21.8521  -16.3582 N   0  0  0  0  0  0  0  0  0  0  0  0
   26.7920  -20.7111  -15.4921 C   0  0  1  0  0  0  0  0  0  0  0  0
   25.7477  -19.8884  -16.1791 C   0  0  0  0  0  0  0  0  0  0  0  0
   26.2332  -19.3286  -17.4621 C   0  0  0  0  0  0  0  0  0  0  0  0
   27.2891  -18.3107  -17.3172 C   0  0  0  0  0  0  0  0  0  0  0  0
   27.0722  -17.2279  -16.7664 O   0  0  0  0  0  0  0  0  0  0  0  0
   26.2144  -21.3207  -14.2511 C   0  0  0  0  0  0  0  0  0  0  0  0
   25.3219  -22.2195  -14.3290 O   0  0  0  0  0  0  0  0  0  0  0  0
   28.5470  -18.6388  -17.8370 O   0  0  0  0  0  0  0  0  0  0  0  0
   26.6151  -20.9451  -12.9410 N   0  0  0  0  0  0  0  0  0  0  0  0
   25.7283  -21.1822  -11.8203 C   0  0  1  0  0  0  0  0  0  0  0  0
   26.3691  -20.7240  -10.5260 C   0  0  0  0  0  0  0  0  0  0  0  0
   25.2698  -20.9866   -9.1237 S   0  0  0  0  0  0  0  0  0  0  0  0
   24.4601  -20.4340  -11.9612 C   0  0  0  0  0  0  0  0  0  0  0  0
   24.4624  -19.3720  -12.6269 O   0  0  0  0  0  0  0  0  0  0  0  0
   16.6868  -20.5509  -15.4743 O   0  0  0  0  0  0  0  0  0  0  0  0
   17.9415  -20.7640  -14.9260 C   0  0  0  0  0  0  0  0  0  0  0  0
   19.0715  -20.8049  -15.7372 C   0  0  0  0  0  0  0  0  0  0  0  0
   20.3152  -21.0161  -15.1942 C   0  0  0  0  0  0  0  0  0  0  0  0
   20.5038  -21.1955  -13.8392 C   0  0  0  0  0  0  0  0  0  0  0  0
   21.8795  -21.4223  -13.3021 C   0  0  0  0  0  0  0  0  0  0  0  0
   21.9446  -20.6527  -11.9870 C   0  0  2  0  0  0  0  0  0  0  0  0
   23.2435  -20.8624  -11.3789 N   0  0  0  0  0  0  0  0  0  0  0  0
   20.8915  -21.1091  -11.0630 C   0  0  0  0  0  0  0  0  0  0  0  0
   19.7420  -20.5985  -11.0483 O   0  0  0  0  0  0  0  0  0  0  0  0
   19.3933  -21.1568  -13.0283 C   0  0  0  0  0  0  0  0  0  0  0  0
   18.1374  -20.9443  -13.5705 C   0  0  0  0  0  0  0  0  0  0  0  0
   21.1486  -22.1375  -10.1659 O   0  0  0  0  0  0  0  0  0  0  0  0
  2  1  1  6
  3  2  1  0
  3  4  1  0
  4  5  1  0
  5  9  1  0
  5  6  2  0
  7  2  1  0
  8  7  2  0
 10  7  1  0
 11 14  1  0
 11 10  1  0
 11 12  1  1
 13 12  1  0
 14 23  1  0
 15 14  2  0
 16 17  1  0
 17 18  2  0
 17 27  1  0
 18 19  1  0
 19 20  2  0
 20 21  1  0
 22 21  1  6
 22 24  1  0
 23 22  1  0
 24 25  2  0
 24 28  1  0
 26 20  1  0
 27 26  2  0
M  END
$$$$
