ECY.pdb
     RDKit          3D

 28 28  0  0  1  0  0  0  0  0999 V2000
   20.5340  -13.6009  -18.8498 N   0  0  0  0  0  0  0  0  0  0  0  0
   21.6520  -12.7537  -18.3722 C   0  0  1  0  0  0  0  0  0  0  0  0
   22.5583  -12.4308  -19.5183 C   0  0  0  0  0  0  0  0  0  0  0  0
   23.5648  -13.4931  -19.7503 C   0  0  0  0  0  0  0  0  0  0  0  0
   24.8606  -13.2534  -19.0903 C   0  0  0  0  0  0  0  0  0  0  0  0
   25.8806  -13.0055  -19.7390 O   0  0  0  0  0  0  0  0  0  0  0  0
   21.0167  -11.4952  -17.8647 C   0  0  0  0  0  0  0  0  0  0  0  0
   20.2057  -10.8434  -18.5914 O   0  0  0  0  0  0  0  0  0  0  0  0
   24.8702  -13.3223  -17.6920 O   0  0  0  0  0  0  0  0  0  0  0  0
   21.2714  -10.9615  -16.5731 N   0  0  0  0  0  0  0  0  0  0  0  0
   20.5697   -9.7730  -16.1331 C   0  0  1  0  0  0  0  0  0  0  0  0
   19.9033  -10.0116  -14.7933 C   0  0  0  0  0  0  0  0  0  0  0  0
   18.5733  -11.2183  -14.9306 S   0  0  0  0  0  0  0  0  0  0  0  0
   21.4915   -8.6295  -15.9578 C   0  0  0  0  0  0  0  0  0  0  0  0
   22.5919   -8.8289  -15.3919 O   0  0  0  0  0  0  0  0  0  0  0  0
   25.5537   -0.9695  -16.8385 O   0  0  0  0  0  0  0  0  0  0  0  0
   24.6668   -2.0217  -17.0023 C   0  0  0  0  0  0  0  0  0  0  0  0
   23.3642   -1.9317  -16.5206 C   0  0  0  0  0  0  0  0  0  0  0  0
   22.4849   -2.9742  -16.6826 C   0  0  0  0  0  0  0  0  0  0  0  0
   22.8428   -4.1440  -17.3208 C   0  0  0  0  0  0  0  0  0  0  0  0
   21.8457   -5.2469  -17.4690 C   0  0  0  0  0  0  0  0  0  0  0  0
   22.1156   -6.2092  -16.3169 C   0  0  2  0  0  0  0  0  0  0  0  0
   21.1881   -7.3200  -16.4002 N   0  0  0  0  0  0  0  0  0  0  0  0
   21.9509   -5.5293  -15.0201 C   0  0  0  0  0  0  0  0  0  0  0  0
   20.8311   -5.4130  -14.4591 O   0  0  0  0  0  0  0  0  0  0  0  0
   24.1281   -4.2432  -17.8008 C   0  0  0  0  0  0  0  0  0  0  0  0
   25.0184   -3.1954  -17.6401 C   0  0  0  0  0  0  0  0  0  0  0  0
   23.0533   -4.9884  -14.3714 O   0  0  0  0  0  0  0  0  0  0  0  0
  2  1  1  6
  3  2  1  0
  3  4  1  0
  4  5  1  0
  5  9  1  0
  5  6  2  0
  7  2  1  0
  8  7  2  0
 10  7  1  0
 11 14  1  0
 11 10  1  0
 11 12  1  1
 13 12  1  0
 14 23  1  0
 15 14  2  0
 16 17  1  0
 17 18  2  0
 17 27  1  0
 18 19  1  0
 19 20  2  0
 20 21  1  0
 22 21  1  6
 22 24  1  0
 23 22  1  0
 24 25  2  0
 24 28  1  0
 26 20  1  0
 27 26  2  0
M  END
$$$$
