ECY.pdb
     RDKit          3D

 28 28  0  0  1  0  0  0  0  0999 V2000
   31.6860  -22.6142  -19.0686 N   0  0  0  0  0  0  0  0  0  0  0  0
   30.4545  -21.8033  -19.2152 C   0  0  1  0  0  0  0  0  0  0  0  0
   29.4001  -22.6160  -19.8985 C   0  0  0  0  0  0  0  0  0  0  0  0
   28.8463  -21.9257  -21.0868 C   0  0  0  0  0  0  0  0  0  0  0  0
   29.7411  -21.9251  -22.2579 C   0  0  0  0  0  0  0  0  0  0  0  0
   30.2870  -20.8917  -22.6540 O   0  0  0  0  0  0  0  0  0  0  0  0
   30.0144  -21.4817  -17.8193 C   0  0  0  0  0  0  0  0  0  0  0  0
   30.8668  -21.1937  -16.9244 O   0  0  0  0  0  0  0  0  0  0  0  0
   29.9368  -23.1570  -22.8936 O   0  0  0  0  0  0  0  0  0  0  0  0
   28.6528  -21.4776  -17.4147 N   0  0  0  0  0  0  0  0  0  0  0  0
   28.2734  -20.8458  -16.1675 C   0  0  1  0  0  0  0  0  0  0  0  0
   28.7137  -19.3960  -16.1477 C   0  0  0  0  0  0  0  0  0  0  0  0
   28.1721  -18.5692  -14.6420 S   0  0  0  0  0  0  0  0  0  0  0  0
   26.8065  -20.8528  -15.9773 C   0  0  0  0  0  0  0  0  0  0  0  0
   26.0958  -20.2022  -16.7790 O   0  0  0  0  0  0  0  0  0  0  0  0
   18.7517  -22.6545  -13.1638 O   0  0  0  0  0  0  0  0  0  0  0  0
   20.1322  -22.5428  -13.2073 C   0  0  0  0  0  0  0  0  0  0  0  0
   20.8905  -23.4240  -13.9724 C   0  0  0  0  0  0  0  0  0  0  0  0
   22.2587  -23.3137  -14.0159 C   0  0  0  0  0  0  0  0  0  0  0  0
   22.9394  -22.3396  -13.3146 C   0  0  0  0  0  0  0  0  0  0  0  0
   24.4294  -22.2657  -13.3976 C   0  0  0  0  0  0  0  0  0  0  0  0
   24.7375  -21.5343  -14.7001 C   0  0  2  0  0  0  0  0  0  0  0  0
   26.1682  -21.5608  -14.9314 N   0  0  0  0  0  0  0  0  0  0  0  0
   24.2775  -20.1360  -14.6344 C   0  0  0  0  0  0  0  0  0  0  0  0
   24.9353  -19.2385  -14.0478 O   0  0  0  0  0  0  0  0  0  0  0  0
   22.1993  -21.4634  -12.5552 C   0  0  0  0  0  0  0  0  0  0  0  0
   20.8199  -21.5702  -12.5079 C   0  0  0  0  0  0  0  0  0  0  0  0
   23.0795  -19.7672  -15.2321 O   0  0  0  0  0  0  0  0  0  0  0  0
  2  1  1  1
  3  2  1  0
  3  4  1  0
  4  5  1  0
  5  9  1  0
  5  6  2  0
  7  2  1  0
  8  7  2  0
 10  7  1  0
 11 14  1  0
 11 10  1  0
 11 12  1  6
 13 12  1  0
 14 23  1  0
 15 14  2  0
 16 17  1  0
 17 18  2  0
 17 27  1  0
 18 19  1  0
 19 20  2  0
 20 21  1  0
 22 21  1  1
 22 24  1  0
 23 22  1  0
 24 25  2  0
 24 28  1  0
 26 20  1  0
 27 26  2  0
M  END
$$$$
