ECY.pdb
     RDKit          3D

 28 28  0  0  1  0  0  0  0  0999 V2000
   16.8244  -12.1130  -17.6218 N   0  0  0  0  0  0  0  0  0  0  0  0
   17.3447  -11.6891  -16.3008 C   0  0  1  0  0  0  0  0  0  0  0  0
   18.2483  -12.7503  -15.7563 C   0  0  0  0  0  0  0  0  0  0  0  0
   18.0003  -14.0698  -16.3829 C   0  0  0  0  0  0  0  0  0  0  0  0
   18.8201  -15.1643  -15.8334 C   0  0  0  0  0  0  0  0  0  0  0  0
   18.5232  -15.7264  -14.7757 O   0  0  0  0  0  0  0  0  0  0  0  0
   18.1341  -10.4419  -16.5592 C   0  0  0  0  0  0  0  0  0  0  0  0
   19.0128  -10.4125  -17.4743 O   0  0  0  0  0  0  0  0  0  0  0  0
   19.9501  -15.5297  -16.5748 O   0  0  0  0  0  0  0  0  0  0  0  0
   17.9575   -9.2424  -15.8190 N   0  0  0  0  0  0  0  0  0  0  0  0
   18.7100   -8.0573  -16.1768 C   0  0  1  0  0  0  0  0  0  0  0  0
   17.7846   -6.9706  -16.6854 C   0  0  0  0  0  0  0  0  0  0  0  0
   16.2270   -6.9624  -15.7810 S   0  0  0  0  0  0  0  0  0  0  0  0
   19.4317   -7.4981  -15.0129 C   0  0  0  0  0  0  0  0  0  0  0  0
   18.9286   -7.6369  -13.8734 O   0  0  0  0  0  0  0  0  0  0  0  0
   25.2477   -5.8893  -18.9603 O   0  0  0  0  0  0  0  0  0  0  0  0
   24.6382   -6.1918  -17.7531 C   0  0  0  0  0  0  0  0  0  0  0  0
   24.7742   -5.3432  -16.6585 C   0  0  0  0  0  0  0  0  0  0  0  0
   24.1705   -5.6426  -15.4619 C   0  0  0  0  0  0  0  0  0  0  0  0
   23.4109   -6.7813  -15.2874 C   0  0  0  0  0  0  0  0  0  0  0  0
   22.7767   -7.0582  -13.9633 C   0  0  0  0  0  0  0  0  0  0  0  0
   21.4301   -6.3425  -13.9894 C   0  0  2  0  0  0  0  0  0  0  0  0
   20.6651   -6.8137  -15.1269 N   0  0  0  0  0  0  0  0  0  0  0  0
   21.6163   -4.8846  -14.0939 C   0  0  0  0  0  0  0  0  0  0  0  0
   21.2900   -4.2369  -15.1217 O   0  0  0  0  0  0  0  0  0  0  0  0
   23.2700   -7.6269  -16.3633 C   0  0  0  0  0  0  0  0  0  0  0  0
   23.8765   -7.3298  -17.5716 C   0  0  0  0  0  0  0  0  0  0  0  0
   22.1689   -4.1745  -13.0362 O   0  0  0  0  0  0  0  0  0  0  0  0
  2  1  1  6
  3  2  1  0
  3  4  1  0
  4  5  1  0
  5  9  1  0
  5  6  2  0
  7  2  1  0
  8  7  2  0
 10  7  1  0
 11 14  1  0
 11 10  1  0
 11 12  1  1
 13 12  1  0
 14 23  1  0
 15 14  2  0
 16 17  1  0
 17 18  2  0
 17 27  1  0
 18 19  1  0
 19 20  2  0
 20 21  1  0
 22 21  1  6
 22 24  1  0
 23 22  1  0
 24 25  2  0
 24 28  1  0
 26 20  1  0
 27 26  2  0
M  END
$$$$
