ECY.pdb
     RDKit          3D

 28 28  0  0  1  0  0  0  0  0999 V2000
   28.4001  -19.9954  -17.8739 N   0  0  0  0  0  0  0  0  0  0  0  0
   27.6762  -20.9900  -17.0477 C   0  0  1  0  0  0  0  0  0  0  0  0
   28.5224  -21.3758  -15.8754 C   0  0  0  0  0  0  0  0  0  0  0  0
   29.6489  -22.2554  -16.2659 C   0  0  0  0  0  0  0  0  0  0  0  0
   29.2526  -23.6364  -16.5943 C   0  0  0  0  0  0  0  0  0  0  0  0
   28.0698  -23.9883  -16.5891 O   0  0  0  0  0  0  0  0  0  0  0  0
   26.4404  -20.2922  -16.5667 C   0  0  0  0  0  0  0  0  0  0  0  0
   26.4985  -19.0992  -16.1381 O   0  0  0  0  0  0  0  0  0  0  0  0
   30.2882  -24.5236  -16.9112 O   0  0  0  0  0  0  0  0  0  0  0  0
   25.1570  -20.9011  -16.5582 N   0  0  0  0  0  0  0  0  0  0  0  0
   24.0120  -20.1622  -16.0664 C   0  0  1  0  0  0  0  0  0  0  0  0
   23.4120  -19.3120  -17.1678 C   0  0  0  0  0  0  0  0  0  0  0  0
   23.3051  -20.2274  -18.7153 S   0  0  0  0  0  0  0  0  0  0  0  0
   22.9431  -21.0672  -15.5906 C   0  0  0  0  0  0  0  0  0  0  0  0
   22.6501  -22.0665  -16.2881 O   0  0  0  0  0  0  0  0  0  0  0  0
   16.9381  -25.1906  -10.8311 O   0  0  0  0  0  0  0  0  0  0  0  0
   17.9181  -24.2880  -11.2127 C   0  0  0  0  0  0  0  0  0  0  0  0
   19.2256  -24.7120  -11.4305 C   0  0  0  0  0  0  0  0  0  0  0  0
   20.1971  -23.8180  -11.8086 C   0  0  0  0  0  0  0  0  0  0  0  0
   19.9301  -22.4763  -11.9886 C   0  0  0  0  0  0  0  0  0  0  0  0
   21.0256  -21.5474  -12.4004 C   0  0  0  0  0  0  0  0  0  0  0  0
   21.1829  -21.7314  -13.9062 C   0  0  2  0  0  0  0  0  0  0  0  0
   22.2357  -20.8566  -14.3831 N   0  0  0  0  0  0  0  0  0  0  0  0
   19.9257  -21.4114  -14.6048 C   0  0  0  0  0  0  0  0  0  0  0  0
   19.6099  -20.2341  -14.9158 O   0  0  0  0  0  0  0  0  0  0  0  0
   18.6407  -22.0467  -11.7760 C   0  0  0  0  0  0  0  0  0  0  0  0
   17.6577  -22.9437  -11.3948 C   0  0  0  0  0  0  0  0  0  0  0  0
   19.0391  -22.4248  -14.9446 O   0  0  0  0  0  0  0  0  0  0  0  0
  2  1  1  6
  3  2  1  0
  3  4  1  0
  4  5  1  0
  5  9  1  0
  5  6  2  0
  7  2  1  0
  8  7  2  0
 10  7  1  0
 11 14  1  0
 11 10  1  0
 11 12  1  6
 13 12  1  0
 14 23  1  0
 15 14  2  0
 16 17  1  0
 17 18  2  0
 17 27  1  0
 18 19  1  0
 19 20  2  0
 20 21  1  0
 22 21  1  1
 22 24  1  0
 23 22  1  0
 24 25  2  0
 24 28  1  0
 26 20  1  0
 27 26  2  0
M  END
$$$$
