ECY.pdb
     RDKit          3D

 28 28  0  0  1  0  0  0  0  0999 V2000
   16.8417  -14.4858  -16.3795 N   0  0  0  0  0  0  0  0  0  0  0  0
   16.7825  -13.0815  -15.9102 C   0  0  1  0  0  0  0  0  0  0  0  0
   16.1921  -13.0391  -14.5358 C   0  0  0  0  0  0  0  0  0  0  0  0
   14.7278  -13.2651  -14.5503 C   0  0  0  0  0  0  0  0  0  0  0  0
   13.9373  -12.1447  -14.0101 C   0  0  0  0  0  0  0  0  0  0  0  0
   14.2630  -10.9704  -14.2048 O   0  0  0  0  0  0  0  0  0  0  0  0
   18.2047  -12.6123  -15.8602 C   0  0  0  0  0  0  0  0  0  0  0  0
   18.8734  -12.6935  -14.7847 O   0  0  0  0  0  0  0  0  0  0  0  0
   12.8008  -12.4849  -13.2667 O   0  0  0  0  0  0  0  0  0  0  0  0
   18.8815  -12.0607  -16.9807 N   0  0  0  0  0  0  0  0  0  0  0  0
   20.2631  -11.6439  -16.8547 C   0  0  1  0  0  0  0  0  0  0  0  0
   21.0497  -12.0206  -18.0938 C   0  0  0  0  0  0  0  0  0  0  0  0
   22.7965  -11.6246  -17.9044 S   0  0  0  0  0  0  0  0  0  0  0  0
   20.3780  -10.1771  -16.7014 C   0  0  0  0  0  0  0  0  0  0  0  0
   19.6254   -9.4431  -17.3839 O   0  0  0  0  0  0  0  0  0  0  0  0
   22.4255   -2.1270  -14.1394 O   0  0  0  0  0  0  0  0  0  0  0  0
   22.4254   -3.5088  -14.2447 C   0  0  0  0  0  0  0  0  0  0  0  0
   21.4407   -4.2669  -13.6182 C   0  0  0  0  0  0  0  0  0  0  0  0
   21.4402   -5.6363  -13.7222 C   0  0  0  0  0  0  0  0  0  0  0  0
   22.4003   -6.3184  -14.4412 C   0  0  0  0  0  0  0  0  0  0  0  0
   22.3520   -7.8096  -14.5207 C   0  0  0  0  0  0  0  0  0  0  0  0
   21.5238   -8.1333  -15.7598 C   0  0  2  0  0  0  0  0  0  0  0  0
   21.2988   -9.5640  -15.8189 N   0  0  0  0  0  0  0  0  0  0  0  0
   22.2209   -7.6959  -16.9820 C   0  0  0  0  0  0  0  0  0  0  0  0
   23.1604   -8.3576  -17.4937 O   0  0  0  0  0  0  0  0  0  0  0  0
   23.3782   -5.5784  -15.0644 C   0  0  0  0  0  0  0  0  0  0  0  0
   23.3834   -4.1978  -14.9627 C   0  0  0  0  0  0  0  0  0  0  0  0
   21.8489   -6.5159  -17.6126 O   0  0  0  0  0  0  0  0  0  0  0  0
  2  1  1  1
  3  2  1  0
  3  4  1  0
  4  5  1  0
  5  9  1  0
  5  6  2  0
  7  2  1  0
  8  7  2  0
 10  7  1  0
 11 14  1  0
 11 10  1  0
 11 12  1  6
 13 12  1  0
 14 23  1  0
 15 14  2  0
 16 17  1  0
 17 18  2  0
 17 27  1  0
 18 19  1  0
 19 20  2  0
 20 21  1  0
 22 21  1  1
 22 24  1  0
 23 22  1  0
 24 25  2  0
 24 28  1  0
 26 20  1  0
 27 26  2  0
M  END
$$$$
