ECY.pdb
     RDKit          3D

 28 28  0  0  1  0  0  0  0  0999 V2000
   21.8581  -18.8159  -16.5445 N   0  0  0  0  0  0  0  0  0  0  0  0
   22.3952  -18.2154  -15.3009 C   0  0  1  0  0  0  0  0  0  0  0  0
   21.4046  -18.3919  -14.1932 C   0  0  0  0  0  0  0  0  0  0  0  0
   20.1812  -17.5833  -14.4046 C   0  0  0  0  0  0  0  0  0  0  0  0
   19.0288  -18.3504  -14.9100 C   0  0  0  0  0  0  0  0  0  0  0  0
   18.5589  -19.3019  -14.2801 O   0  0  0  0  0  0  0  0  0  0  0  0
   23.6419  -18.9850  -14.9867 C   0  0  0  0  0  0  0  0  0  0  0  0
   23.5777  -20.2053  -14.6442 O   0  0  0  0  0  0  0  0  0  0  0  0
   18.4985  -17.9415  -16.1395 O   0  0  0  0  0  0  0  0  0  0  0  0
   24.9426  -18.4175  -15.0491 N   0  0  0  0  0  0  0  0  0  0  0  0
   26.0971  -19.2214  -14.7033 C   0  0  1  0  0  0  0  0  0  0  0  0
   27.3527  -18.6504  -15.3304 C   0  0  0  0  0  0  0  0  0  0  0  0
   27.4927  -16.8819  -15.0187 S   0  0  0  0  0  0  0  0  0  0  0  0
   26.3217  -19.2521  -13.2416 C   0  0  0  0  0  0  0  0  0  0  0  0
   26.3726  -18.1644  -12.6208 O   0  0  0  0  0  0  0  0  0  0  0  0
   27.7326  -19.5166   -4.9599 O   0  0  0  0  0  0  0  0  0  0  0  0
   27.2463  -19.5988   -6.2549 C   0  0  0  0  0  0  0  0  0  0  0  0
   27.4194  -18.5430   -7.1450 C   0  0  0  0  0  0  0  0  0  0  0  0
   26.9375  -18.6240   -8.4285 C   0  0  0  0  0  0  0  0  0  0  0  0
   26.2684  -19.7379   -8.8926 C   0  0  0  0  0  0  0  0  0  0  0  0
   25.7648  -19.7723  -10.2988 C   0  0  0  0  0  0  0  0  0  0  0  0
   26.8357  -20.4984  -11.1064 C   0  0  2  0  0  0  0  0  0  0  0  0
   26.4814  -20.4536  -12.5113 N   0  0  0  0  0  0  0  0  0  0  0  0
   26.9519  -21.9024  -10.6748 C   0  0  0  0  0  0  0  0  0  0  0  0
   27.8644  -22.2955   -9.9033 O   0  0  0  0  0  0  0  0  0  0  0  0
   26.0920  -20.7873   -8.0207 C   0  0  0  0  0  0  0  0  0  0  0  0
   26.5757  -20.7108   -6.7260 C   0  0  0  0  0  0  0  0  0  0  0  0
   26.0360  -22.8468  -11.1194 O   0  0  0  0  0  0  0  0  0  0  0  0
  2  1  1  6
  3  2  1  0
  3  4  1  0
  4  5  1  0
  5  9  1  0
  5  6  2  0
  7  2  1  0
  8  7  2  0
 10  7  1  0
 11 14  1  0
 11 10  1  0
 11 12  1  6
 13 12  1  0
 14 23  1  0
 15 14  2  0
 16 17  1  0
 17 18  2  0
 17 27  1  0
 18 19  1  0
 19 20  2  0
 20 21  1  0
 22 21  1  1
 22 24  1  0
 23 22  1  0
 24 25  2  0
 24 28  1  0
 26 20  1  0
 27 26  2  0
M  END
$$$$
