ECY.pdb
     RDKit          3D

 28 28  0  0  1  0  0  0  0  0999 V2000
   13.0616  -12.1585  -11.3736 N   0  0  0  0  0  0  0  0  0  0  0  0
   14.4641  -11.7279  -11.1661 C   0  0  1  0  0  0  0  0  0  0  0  0
   15.2383  -11.9217  -12.4319 C   0  0  0  0  0  0  0  0  0  0  0  0
   15.4988  -13.3529  -12.7130 C   0  0  0  0  0  0  0  0  0  0  0  0
   14.8853  -13.8463  -13.9590 C   0  0  0  0  0  0  0  0  0  0  0  0
   14.3372  -13.0811  -14.7570 O   0  0  0  0  0  0  0  0  0  0  0  0
   14.3938  -10.2672  -10.8394 C   0  0  0  0  0  0  0  0  0  0  0  0
   13.7115   -9.4769  -11.5608 O   0  0  0  0  0  0  0  0  0  0  0  0
   14.9586  -15.2258  -14.1863 O   0  0  0  0  0  0  0  0  0  0  0  0
   15.0665   -9.6846   -9.7322 N   0  0  0  0  0  0  0  0  0  0  0  0
   14.9675   -8.2585   -9.4977 C   0  0  1  0  0  0  0  0  0  0  0  0
   14.5520   -7.9800   -8.0674 C   0  0  0  0  0  0  0  0  0  0  0  0
   12.9763   -8.7622   -7.6805 S   0  0  0  0  0  0  0  0  0  0  0  0
   16.2649   -7.5802   -9.7088 C   0  0  0  0  0  0  0  0  0  0  0  0
   17.3160   -8.1885   -9.3985 O   0  0  0  0  0  0  0  0  0  0  0  0
   22.7948   -3.7665  -13.7060 O   0  0  0  0  0  0  0  0  0  0  0  0
   21.6658   -4.4337  -13.2581 C   0  0  0  0  0  0  0  0  0  0  0  0
   21.7622   -5.3966  -12.2579 C   0  0  0  0  0  0  0  0  0  0  0  0
   20.6436   -6.0582  -11.8137 C   0  0  0  0  0  0  0  0  0  0  0  0
   19.3885   -5.8057  -12.3283 C   0  0  0  0  0  0  0  0  0  0  0  0
   18.2054   -6.5555  -11.8082 C   0  0  0  0  0  0  0  0  0  0  0  0
   17.6242   -5.6931  -10.6925 C   0  0  2  0  0  0  0  0  0  0  0  0
   16.3743   -6.2754  -10.2457 N   0  0  0  0  0  0  0  0  0  0  0  0
   17.3829   -4.3193  -11.1673 C   0  0  0  0  0  0  0  0  0  0  0  0
   16.3574   -4.0052  -11.8246 O   0  0  0  0  0  0  0  0  0  0  0  0
   19.2822   -4.8556  -13.3175 C   0  0  0  0  0  0  0  0  0  0  0  0
   20.4065   -4.1859  -13.7688 C   0  0  0  0  0  0  0  0  0  0  0  0
   18.3027   -3.3153  -10.8942 O   0  0  0  0  0  0  0  0  0  0  0  0
  2  1  1  6
  3  2  1  0
  3  4  1  0
  4  5  1  0
  5  9  1  0
  5  6  2  0
  7  2  1  0
  8  7  2  0
 10  7  1  0
 11 14  1  0
 11 10  1  0
 11 12  1  1
 13 12  1  0
 14 23  1  0
 15 14  2  0
 16 17  1  0
 17 18  2  0
 17 27  1  0
 18 19  1  0
 19 20  2  0
 20 21  1  0
 22 21  1  6
 22 24  1  0
 23 22  1  0
 24 25  2  0
 24 28  1  0
 26 20  1  0
 27 26  2  0
M  END
$$$$
