IWK.pdb
     RDKit          3D

 32 33  0  0  1  0  0  0  0  0999 V2000
   25.6968  -17.7146  -20.9150 C   0  0  0  0  0  0  0  0  0  0  0  0
   26.7436  -18.2417  -19.9869 C   0  0  0  0  0  0  0  0  0  0  0  0
   26.1484  -18.9129  -18.7660 C   0  0  2  0  0  0  0  0  0  0  0  0
   25.2093  -17.9631  -18.1049 C   0  0  0  0  0  0  0  0  0  0  0  0
   27.2693  -19.3658  -17.8538 C   0  0  2  0  0  0  0  0  0  0  0  0
   28.1057  -20.2574  -18.6294 N   0  0  0  0  0  0  0  0  0  0  0  0
   26.7485  -20.0809  -16.6590 C   0  0  0  0  0  0  0  0  0  0  0  0
   26.2439  -21.2364  -16.7573 O   0  0  0  0  0  0  0  0  0  0  0  0
   26.7810  -19.5252  -15.3486 N   0  0  0  0  0  0  0  0  0  0  0  0
   26.2766  -20.2384  -14.1972 C   0  0  1  0  0  0  0  0  0  0  0  0
   27.1385  -19.9863  -12.9872 C   0  0  0  0  0  0  0  0  0  0  0  0
   26.7759  -20.7541  -11.7861 C   0  0  0  0  0  0  0  0  0  0  0  0
   26.6812  -22.1331  -11.7161 C   0  0  0  0  0  0  0  0  0  0  0  0
   26.3053  -22.4904  -10.4702 N   0  0  0  0  0  0  0  0  0  0  0  0
   26.1479  -21.3936   -9.7107 C   0  0  0  0  0  0  0  0  0  0  0  0
   25.7903  -21.2247   -8.3958 C   0  0  0  0  0  0  0  0  0  0  0  0
   25.7113  -19.9571   -7.8399 C   0  0  0  0  0  0  0  0  0  0  0  0
   26.0090  -18.8897   -8.6738 C   0  0  0  0  0  0  0  0  0  0  0  0
   26.3629  -19.0614   -9.9772 C   0  0  0  0  0  0  0  0  0  0  0  0
   26.4405  -20.2998  -10.5247 C   0  0  0  0  0  0  0  0  0  0  0  0
   24.8432  -20.0364  -13.9831 C   0  0  0  0  0  0  0  0  0  0  0  0
   24.3697  -18.8611  -13.9054 O   0  0  0  0  0  0  0  0  0  0  0  0
   23.9131  -21.1024  -13.8545 N   0  0  0  0  0  0  0  0  0  0  0  0
   22.5223  -20.8836  -13.5062 C   0  0  1  0  0  0  0  0  0  0  0  0
   21.8055  -22.1801  -13.4586 C   0  0  0  0  0  0  0  0  0  0  0  0
   20.3450  -22.1878  -13.2592 C   0  0  0  0  0  0  0  0  0  0  0  0
   19.6520  -23.5093  -13.2563 C   0  0  0  0  0  0  0  0  0  0  0  0
   18.1310  -23.3108  -13.1457 C   0  0  0  0  0  0  0  0  0  0  0  0
   17.4471  -24.5696  -13.1307 N   0  0  0  0  0  0  0  0  0  0  0  0
   22.4478  -20.1424  -12.2443 C   0  0  0  0  0  0  0  0  0  0  0  0
   23.3090  -20.3567  -11.1482 O   0  0  0  0  0  0  0  0  0  0  0  0
   21.5495  -19.2402  -12.1221 O   0  0  0  0  0  0  0  0  0  0  0  0
  1  2  1  0
  2  3  1  0
  3  5  1  0
  3  4  1  1
  5  6  1  6
  7  5  1  0
  8  7  2  0
  9  7  1  0
 10  9  1  0
 11 12  1  0
 10 11  1  1
 12 20  1  0
 12 13  2  0
 13 14  1  0
 15 14  1  0
 15 16  2  0
 17 16  1  0
 18 17  2  0
 19 20  2  0
 19 18  1  0
 20 15  1  0
 21 22  2  0
 21 10  1  0
 23 21  1  0
 24 23  1  0
 24 25  1  1
 26 25  1  0
 27 26  1  0
 27 28  1  0
 29 28  1  0
 30 24  1  0
 31 30  1  0
 32 30  2  0
M  END
$$$$
