IWK.pdb
     RDKit          3D

 32 33  0  0  1  0  0  0  0  0999 V2000
   25.2204  -20.2800  -17.0086 C   0  0  0  0  0  0  0  0  0  0  0  0
   26.2057  -20.3685  -15.8878 C   0  0  0  0  0  0  0  0  0  0  0  0
   25.5516  -20.7334  -14.5708 C   0  0  2  0  0  0  0  0  0  0  0  0
   24.4407  -19.7764  -14.3041 C   0  0  0  0  0  0  0  0  0  0  0  0
   26.6023  -20.7370  -13.4800 C   0  0  2  0  0  0  0  0  0  0  0  0
   27.6295  -21.6706  -13.8915 N   0  0  0  0  0  0  0  0  0  0  0  0
   26.0342  -21.1617  -12.1734 C   0  0  0  0  0  0  0  0  0  0  0  0
   25.8331  -22.3830  -11.9142 O   0  0  0  0  0  0  0  0  0  0  0  0
   25.6846  -20.2412  -11.1452 N   0  0  0  0  0  0  0  0  0  0  0  0
   25.1688  -20.6749   -9.8666 C   0  0  1  0  0  0  0  0  0  0  0  0
   25.7454  -19.8497   -8.7452 C   0  0  0  0  0  0  0  0  0  0  0  0
   27.0964  -20.2366   -8.3106 C   0  0  0  0  0  0  0  0  0  0  0  0
   27.9570  -21.0626   -9.0123 C   0  0  0  0  0  0  0  0  0  0  0  0
   29.0974  -21.2182   -8.3077 N   0  0  0  0  0  0  0  0  0  0  0  0
   29.0222  -20.5219   -7.1613 C   0  0  0  0  0  0  0  0  0  0  0  0
   29.9071  -20.3501   -6.1257 C   0  0  0  0  0  0  0  0  0  0  0  0
   29.5811  -19.5522   -5.0397 C   0  0  0  0  0  0  0  0  0  0  0  0
   28.3326  -18.9489   -5.0603 C   0  0  0  0  0  0  0  0  0  0  0  0
   27.4577  -19.1220   -6.0890 C   0  0  0  0  0  0  0  0  0  0  0  0
   27.7729  -19.9024   -7.1526 C   0  0  0  0  0  0  0  0  0  0  0  0
   23.7109  -20.7987   -9.8510 C   0  0  0  0  0  0  0  0  0  0  0  0
   22.9953  -19.9896  -10.5180 O   0  0  0  0  0  0  0  0  0  0  0  0
   23.0180  -21.7985   -9.1174 N   0  0  0  0  0  0  0  0  0  0  0  0
   21.5742  -21.9311   -9.1551 C   0  0  1  0  0  0  0  0  0  0  0  0
   21.1022  -22.6412   -7.9427 C   0  0  0  0  0  0  0  0  0  0  0  0
   19.6685  -22.9554   -7.8054 C   0  0  0  0  0  0  0  0  0  0  0  0
   19.2531  -23.8136   -6.6576 C   0  0  0  0  0  0  0  0  0  0  0  0
   17.7205  -23.9319   -6.6106 C   0  0  0  0  0  0  0  0  0  0  0  0
   17.2968  -24.6836   -5.4670 N   0  0  0  0  0  0  0  0  0  0  0  0
   20.9683  -20.6064   -9.3142 C   0  0  0  0  0  0  0  0  0  0  0  0
   21.2922  -19.4870   -8.5198 O   0  0  0  0  0  0  0  0  0  0  0  0
   20.0912  -20.4459  -10.2312 O   0  0  0  0  0  0  0  0  0  0  0  0
  1  2  1  0
  2  3  1  0
  3  5  1  0
  3  4  1  1
  5  6  1  6
  7  5  1  0
  8  7  2  0
  9  7  1  0
 10  9  1  0
 11 12  1  0
 10 11  1  1
 12 20  1  0
 12 13  2  0
 13 14  1  0
 15 14  1  0
 15 16  2  0
 17 16  1  0
 18 17  2  0
 19 20  2  0
 19 18  1  0
 20 15  1  0
 21 22  2  0
 21 10  1  0
 23 21  1  0
 24 23  1  0
 24 25  1  1
 26 25  1  0
 27 26  1  0
 27 28  1  0
 29 28  1  0
 30 24  1  0
 31 30  1  0
 32 30  2  0
M  END
$$$$
