IWK.pdb
     RDKit          3D

 32 33  0  0  1  0  0  0  0  0999 V2000
   29.3071  -19.6437  -17.4196 C   0  0  0  0  0  0  0  0  0  0  0  0
   28.5732  -18.9372  -16.3255 C   0  0  0  0  0  0  0  0  0  0  0  0
   27.9860  -19.8964  -15.3105 C   0  0  2  0  0  0  0  0  0  0  0  0
   27.1720  -20.9176  -16.0285 C   0  0  0  0  0  0  0  0  0  0  0  0
   27.1844  -19.1115  -14.2930 C   0  0  2  0  0  0  0  0  0  0  0  0
   28.0161  -18.0052  -13.8683 N   0  0  0  0  0  0  0  0  0  0  0  0
   26.8237  -19.9467  -13.1172 C   0  0  0  0  0  0  0  0  0  0  0  0
   25.9688  -20.8738  -13.2116 O   0  0  0  0  0  0  0  0  0  0  0  0
   27.4040  -19.7638  -11.8301 N   0  0  0  0  0  0  0  0  0  0  0  0
   26.8252  -20.3368  -10.6361 C   0  0  1  0  0  0  0  0  0  0  0  0
   27.7676  -20.2114   -9.4670 C   0  0  0  0  0  0  0  0  0  0  0  0
   27.1673  -20.4567   -8.1467 C   0  0  0  0  0  0  0  0  0  0  0  0
   25.9411  -21.0587   -7.9243 C   0  0  0  0  0  0  0  0  0  0  0  0
   25.6995  -21.0990   -6.5972 N   0  0  0  0  0  0  0  0  0  0  0  0
   26.7257  -20.5440   -5.9312 C   0  0  0  0  0  0  0  0  0  0  0  0
   26.9624  -20.3538   -4.5922 C   0  0  0  0  0  0  0  0  0  0  0  0
   28.1333  -19.7519   -4.1578 C   0  0  0  0  0  0  0  0  0  0  0  0
   29.0347  -19.3605   -5.1364 C   0  0  0  0  0  0  0  0  0  0  0  0
   28.7961  -19.5505   -6.4633 C   0  0  0  0  0  0  0  0  0  0  0  0
   27.6514  -20.1383   -6.8919 C   0  0  0  0  0  0  0  0  0  0  0  0
   25.4631  -19.8676  -10.3800 C   0  0  0  0  0  0  0  0  0  0  0  0
   25.1837  -18.6336  -10.4840 O   0  0  0  0  0  0  0  0  0  0  0  0
   24.3947  -20.7288  -10.0129 N   0  0  0  0  0  0  0  0  0  0  0  0
   23.0040  -20.3807  -10.2328 C   0  0  1  0  0  0  0  0  0  0  0  0
   22.6301  -20.6658  -11.6385 C   0  0  0  0  0  0  0  0  0  0  0  0
   21.4788  -21.5448  -11.9126 C   0  0  0  0  0  0  0  0  0  0  0  0
   21.1960  -21.8942  -13.3354 C   0  0  0  0  0  0  0  0  0  0  0  0
   19.9744  -22.8247  -13.4206 C   0  0  0  0  0  0  0  0  0  0  0  0
   19.6406  -23.1127  -14.7838 N   0  0  0  0  0  0  0  0  0  0  0  0
   22.1658  -21.0906   -9.2629 C   0  0  0  0  0  0  0  0  0  0  0  0
   21.3200  -20.4535   -8.3313 O   0  0  0  0  0  0  0  0  0  0  0  0
   22.1950  -22.3692   -9.2559 O   0  0  0  0  0  0  0  0  0  0  0  0
  1  2  1  0
  2  3  1  0
  3  5  1  0
  3  4  1  6
  5  6  1  1
  7  5  1  0
  8  7  2  0
  9  7  1  0
 10  9  1  0
 11 12  1  0
 10 11  1  1
 12 20  1  0
 12 13  2  0
 13 14  1  0
 15 14  1  0
 15 16  2  0
 17 16  1  0
 18 17  2  0
 19 20  2  0
 19 18  1  0
 20 15  1  0
 21 22  2  0
 21 10  1  0
 23 21  1  0
 24 23  1  0
 24 25  1  6
 26 25  1  0
 27 26  1  0
 27 28  1  0
 29 28  1  0
 30 24  1  0
 31 30  1  0
 32 30  2  0
M  END
$$$$
