IWK.pdb
     RDKit          3D

 32 33  0  0  1  0  0  0  0  0999 V2000
   27.0493  -18.6314  -20.5056 C   0  0  0  0  0  0  0  0  0  0  0  0
   26.2078  -18.1373  -19.3731 C   0  0  0  0  0  0  0  0  0  0  0  0
   25.9049  -19.2235  -18.3613 C   0  0  2  0  0  0  0  0  0  0  0  0
   25.3976  -20.4249  -19.0828 C   0  0  0  0  0  0  0  0  0  0  0  0
   24.9222  -18.6895  -17.3402 C   0  0  2  0  0  0  0  0  0  0  0  0
   25.4151  -17.3937  -16.9229 N   0  0  0  0  0  0  0  0  0  0  0  0
   24.8152  -19.5879  -16.1605 C   0  0  0  0  0  0  0  0  0  0  0  0
   24.4607  -20.7951  -16.2885 O   0  0  0  0  0  0  0  0  0  0  0  0
   25.0984  -19.1596  -14.8327 N   0  0  0  0  0  0  0  0  0  0  0  0
   24.9627  -20.0399  -13.6945 C   0  0  1  0  0  0  0  0  0  0  0  0
   25.7202  -19.5051  -12.5066 C   0  0  0  0  0  0  0  0  0  0  0  0
   26.1325  -20.5135  -11.5182 C   0  0  0  0  0  0  0  0  0  0  0  0
   26.3707  -21.8496  -11.7895 C   0  0  0  0  0  0  0  0  0  0  0  0
   26.7073  -22.4825  -10.6460 N   0  0  0  0  0  0  0  0  0  0  0  0
   26.7010  -21.6099   -9.6246 C   0  0  0  0  0  0  0  0  0  0  0  0
   26.9765  -21.7523   -8.2871 C   0  0  0  0  0  0  0  0  0  0  0  0
   26.9063  -20.6654   -7.4293 C   0  0  0  0  0  0  0  0  0  0  0  0
   26.5485  -19.4487   -7.9906 C   0  0  0  0  0  0  0  0  0  0  0  0
   26.2757  -19.3117   -9.3174 C   0  0  0  0  0  0  0  0  0  0  0  0
   26.3426  -20.3729  -10.1594 C   0  0  0  0  0  0  0  0  0  0  0  0
   23.5737  -20.4102  -13.4211 C   0  0  0  0  0  0  0  0  0  0  0  0
   22.6863  -19.5106  -13.2997 O   0  0  0  0  0  0  0  0  0  0  0  0
   23.1352  -21.7540  -13.2801 N   0  0  0  0  0  0  0  0  0  0  0  0
   21.7732  -22.0937  -12.9151 C   0  0  1  0  0  0  0  0  0  0  0  0
   21.6369  -23.5645  -12.7928 C   0  0  0  0  0  0  0  0  0  0  0  0
   20.3160  -24.1414  -12.4840 C   0  0  0  0  0  0  0  0  0  0  0  0
   20.2421  -25.6103  -12.2317 C   0  0  0  0  0  0  0  0  0  0  0  0
   18.7869  -26.0305  -11.9652 C   0  0  0  0  0  0  0  0  0  0  0  0
   18.7040  -27.4245  -11.6450 N   0  0  0  0  0  0  0  0  0  0  0  0
   21.4065  -21.3813  -11.6882 C   0  0  0  0  0  0  0  0  0  0  0  0
   22.2508  -21.2511  -10.5659 O   0  0  0  0  0  0  0  0  0  0  0  0
   20.2506  -20.8379  -11.6238 O   0  0  0  0  0  0  0  0  0  0  0  0
  1  2  1  0
  2  3  1  0
  3  5  1  0
  3  4  1  6
  5  6  1  1
  7  5  1  0
  8  7  2  0
  9  7  1  0
 10  9  1  0
 11 12  1  0
 10 11  1  1
 12 20  1  0
 12 13  2  0
 13 14  1  0
 15 14  1  0
 15 16  2  0
 17 16  1  0
 18 17  2  0
 19 20  2  0
 19 18  1  0
 20 15  1  0
 21 22  2  0
 21 10  1  0
 23 21  1  0
 24 23  1  0
 24 25  1  1
 26 25  1  0
 27 26  1  0
 27 28  1  0
 29 28  1  0
 30 24  1  0
 31 30  1  0
 32 30  2  0
M  END
$$$$
