IWK.pdb
     RDKit          3D

 32 33  0  0  1  0  0  0  0  0999 V2000
   29.7010  -19.5440  -14.2666 C   0  0  0  0  0  0  0  0  0  0  0  0
   28.2357  -19.7845  -14.0939 C   0  0  0  0  0  0  0  0  0  0  0  0
   27.9025  -20.3717  -12.7376 C   0  0  2  0  0  0  0  0  0  0  0  0
   28.6930  -21.6206  -12.5469 C   0  0  0  0  0  0  0  0  0  0  0  0
   26.4078  -20.6001  -12.6503 C   0  0  2  0  0  0  0  0  0  0  0  0
   25.7717  -19.3509  -13.0119 N   0  0  0  0  0  0  0  0  0  0  0  0
   25.9929  -20.9943  -11.2782 C   0  0  0  0  0  0  0  0  0  0  0  0
   26.1649  -22.1743  -10.8570 O   0  0  0  0  0  0  0  0  0  0  0  0
   25.3856  -20.0888  -10.3627 N   0  0  0  0  0  0  0  0  0  0  0  0
   24.8604  -20.5204   -9.0872 C   0  0  1  0  0  0  0  0  0  0  0  0
   25.2728  -19.5761   -7.9876 C   0  0  0  0  0  0  0  0  0  0  0  0
   26.6655  -19.7100   -7.5336 C   0  0  0  0  0  0  0  0  0  0  0  0
   27.7686  -19.8322   -8.3604 C   0  0  0  0  0  0  0  0  0  0  0  0
   28.8795  -19.9569   -7.6044 N   0  0  0  0  0  0  0  0  0  0  0  0
   28.5499  -19.9208   -6.3026 C   0  0  0  0  0  0  0  0  0  0  0  0
   29.3031  -19.9967   -5.1571 C   0  0  0  0  0  0  0  0  0  0  0  0
   28.7046  -19.9202   -3.9088 C   0  0  0  0  0  0  0  0  0  0  0  0
   27.3267  -19.7653   -3.8852 C   0  0  0  0  0  0  0  0  0  0  0  0
   26.5833  -19.6908   -5.0234 C   0  0  0  0  0  0  0  0  0  0  0  0
   27.1652  -19.7660   -6.2462 C   0  0  0  0  0  0  0  0  0  0  0  0
   23.4296  -20.8237   -9.1317 C   0  0  0  0  0  0  0  0  0  0  0  0
   22.7048  -20.3439  -10.0570 O   0  0  0  0  0  0  0  0  0  0  0  0
   22.7744  -21.6489   -8.1791 N   0  0  0  0  0  0  0  0  0  0  0  0
   21.3669  -21.9847   -8.2777 C   0  0  1  0  0  0  0  0  0  0  0  0
   21.0069  -22.9597   -7.2210 C   0  0  0  0  0  0  0  0  0  0  0  0
   19.6374  -23.5038   -7.1806 C   0  0  0  0  0  0  0  0  0  0  0  0
   19.3386  -24.5561   -6.1657 C   0  0  0  0  0  0  0  0  0  0  0  0
   17.8396  -24.8995   -6.1828 C   0  0  0  0  0  0  0  0  0  0  0  0
   17.5151  -25.8403   -5.1521 N   0  0  0  0  0  0  0  0  0  0  0  0
   20.5689  -20.7570   -8.2189 C   0  0  0  0  0  0  0  0  0  0  0  0
   19.3879  -20.5441   -8.9599 O   0  0  0  0  0  0  0  0  0  0  0  0
   20.9597  -19.8151   -7.4470 O   0  0  0  0  0  0  0  0  0  0  0  0
  1  2  1  0
  2  3  1  0
  3  5  1  0
  3  4  1  6
  5  6  1  1
  7  5  1  0
  8  7  2  0
  9  7  1  0
 10  9  1  0
 11 12  1  0
 10 11  1  1
 12 20  1  0
 12 13  2  0
 13 14  1  0
 15 14  1  0
 15 16  2  0
 17 16  1  0
 18 17  2  0
 19 20  2  0
 19 18  1  0
 20 15  1  0
 21 22  2  0
 21 10  1  0
 23 21  1  0
 24 23  1  0
 24 25  1  1
 26 25  1  0
 27 26  1  0
 27 28  1  0
 29 28  1  0
 30 24  1  0
 31 30  1  0
 32 30  2  0
M  END
$$$$
