IWK.pdb
     RDKit          3D

 32 33  0  0  1  0  0  0  0  0999 V2000
   30.2640  -21.3195  -10.3324 C   0  0  0  0  0  0  0  0  0  0  0  0
   28.7904  -21.2523  -10.0898 C   0  0  0  0  0  0  0  0  0  0  0  0
   28.0195  -20.8383  -11.3265 C   0  0  2  0  0  0  0  0  0  0  0  0
   28.6679  -19.6331  -11.9165 C   0  0  0  0  0  0  0  0  0  0  0  0
   26.5705  -20.6055  -10.9523 C   0  0  2  0  0  0  0  0  0  0  0  0
   26.1133  -21.8050  -10.2828 N   0  0  0  0  0  0  0  0  0  0  0  0
   25.7292  -20.3497  -12.1510 C   0  0  0  0  0  0  0  0  0  0  0  0
   25.2877  -19.1921  -12.4047 O   0  0  0  0  0  0  0  0  0  0  0  0
   25.3699  -21.3698  -13.0769 N   0  0  0  0  0  0  0  0  0  0  0  0
   24.5507  -21.1024  -14.2372 C   0  0  1  0  0  0  0  0  0  0  0  0
   25.3666  -21.1791  -15.5019 C   0  0  0  0  0  0  0  0  0  0  0  0
   26.4939  -20.2373  -15.5806 C   0  0  0  0  0  0  0  0  0  0  0  0
   27.8224  -20.5595  -15.3650 C   0  0  0  0  0  0  0  0  0  0  0  0
   28.5767  -19.4483  -15.4975 N   0  0  0  0  0  0  0  0  0  0  0  0
   27.7922  -18.3991  -15.7948 C   0  0  0  0  0  0  0  0  0  0  0  0
   28.0712  -17.0760  -16.0330 C   0  0  0  0  0  0  0  0  0  0  0  0
   27.0567  -16.1812  -16.3368 C   0  0  0  0  0  0  0  0  0  0  0  0
   25.7679  -16.6910  -16.3852 C   0  0  0  0  0  0  0  0  0  0  0  0
   25.4954  -18.0037  -16.1480 C   0  0  0  0  0  0  0  0  0  0  0  0
   26.4851  -18.8818  -15.8498 C   0  0  0  0  0  0  0  0  0  0  0  0
   23.3141  -21.8845  -14.2559 C   0  0  0  0  0  0  0  0  0  0  0  0
   23.2764  -23.0305  -13.7111 O   0  0  0  0  0  0  0  0  0  0  0  0
   22.1109  -21.4321  -14.8605 N   0  0  0  0  0  0  0  0  0  0  0  0
   20.8221  -22.0317  -14.5724 C   0  0  1  0  0  0  0  0  0  0  0  0
   20.5594  -21.9839  -13.1145 C   0  0  0  0  0  0  0  0  0  0  0  0
   19.4401  -21.1670  -12.6115 C   0  0  0  0  0  0  0  0  0  0  0  0
   18.1840  -21.8738  -12.2253 C   0  0  0  0  0  0  0  0  0  0  0  0
   17.1196  -20.8580  -11.7774 C   0  0  0  0  0  0  0  0  0  0  0  0
   15.8577  -21.4988  -11.5549 N   0  0  0  0  0  0  0  0  0  0  0  0
   19.7862  -21.3607  -15.3624 C   0  0  0  0  0  0  0  0  0  0  0  0
   18.5243  -21.9202  -15.6514 O   0  0  0  0  0  0  0  0  0  0  0  0
   20.0331  -20.1923  -15.8202 O   0  0  0  0  0  0  0  0  0  0  0  0
  1  2  1  0
  2  3  1  0
  3  5  1  0
  3  4  1  1
  5  6  1  6
  7  5  1  0
  8  7  2  0
  9  7  1  0
 10  9  1  0
 11 12  1  0
 10 11  1  6
 12 20  1  0
 12 13  2  0
 13 14  1  0
 15 14  1  0
 15 16  2  0
 17 16  1  0
 18 17  2  0
 19 20  2  0
 19 18  1  0
 20 15  1  0
 21 22  2  0
 21 10  1  0
 23 21  1  0
 24 23  1  0
 24 25  1  1
 26 25  1  0
 27 26  1  0
 27 28  1  0
 29 28  1  0
 30 24  1  0
 31 30  1  0
 32 30  2  0
M  END
$$$$
