IWK.pdb
     RDKit          3D

 32 33  0  0  1  0  0  0  0  0999 V2000
   25.6614  -18.9408  -16.8905 C   0  0  0  0  0  0  0  0  0  0  0  0
   26.4361  -19.8545  -15.9962 C   0  0  0  0  0  0  0  0  0  0  0  0
   27.3674  -19.1019  -15.0681 C   0  0  2  0  0  0  0  0  0  0  0  0
   28.3603  -18.3514  -15.8878 C   0  0  0  0  0  0  0  0  0  0  0  0
   28.0127  -20.0828  -14.1114 C   0  0  2  0  0  0  0  0  0  0  0  0
   28.6489  -21.1003  -14.9214 N   0  0  0  0  0  0  0  0  0  0  0  0
   27.0095  -20.7129  -13.2132 C   0  0  0  0  0  0  0  0  0  0  0  0
   26.5655  -21.8747  -13.4423 O   0  0  0  0  0  0  0  0  0  0  0  0
   26.4901  -20.0646  -12.0570 N   0  0  0  0  0  0  0  0  0  0  0  0
   25.5144  -20.6928  -11.1953 C   0  0  1  0  0  0  0  0  0  0  0  0
   25.7054  -20.2643   -9.7632 C   0  0  0  0  0  0  0  0  0  0  0  0
   26.9983  -20.6304   -9.1647 C   0  0  0  0  0  0  0  0  0  0  0  0
   27.9340  -21.4753   -9.7357 C   0  0  0  0  0  0  0  0  0  0  0  0
   28.9867  -21.6023   -8.9009 N   0  0  0  0  0  0  0  0  0  0  0  0
   28.7806  -20.8687   -7.7945 C   0  0  0  0  0  0  0  0  0  0  0  0
   29.5414  -20.6587   -6.6710 C   0  0  0  0  0  0  0  0  0  0  0  0
   29.0931  -19.8268   -5.6566 C   0  0  0  0  0  0  0  0  0  0  0  0
   27.8546  -19.2302   -5.8395 C   0  0  0  0  0  0  0  0  0  0  0  0
   27.1030  -19.4413   -6.9549 C   0  0  0  0  0  0  0  0  0  0  0  0
   27.5380  -20.2550   -7.9490 C   0  0  0  0  0  0  0  0  0  0  0  0
   24.1453  -20.5678  -11.6962 C   0  0  0  0  0  0  0  0  0  0  0  0
   23.6997  -19.4354  -12.0579 O   0  0  0  0  0  0  0  0  0  0  0  0
   23.2510  -21.6653  -11.8120 N   0  0  0  0  0  0  0  0  0  0  0  0
   21.8904  -21.5132  -12.2908 C   0  0  1  0  0  0  0  0  0  0  0  0
   21.3729  -22.8204  -12.7602 C   0  0  0  0  0  0  0  0  0  0  0  0
   20.0060  -22.8989  -13.3065 C   0  0  0  0  0  0  0  0  0  0  0  0
   19.5116  -24.2351  -13.7498 C   0  0  0  0  0  0  0  0  0  0  0  0
   18.0652  -24.1232  -14.2604 C   0  0  0  0  0  0  0  0  0  0  0  0
   17.5228  -25.4155  -14.5581 N   0  0  0  0  0  0  0  0  0  0  0  0
   21.0670  -20.9180  -11.2348 C   0  0  0  0  0  0  0  0  0  0  0  0
   21.0814  -21.3377   -9.8884 O   0  0  0  0  0  0  0  0  0  0  0  0
   20.2852  -19.9544  -11.5447 O   0  0  0  0  0  0  0  0  0  0  0  0
  1  2  1  0
  2  3  1  0
  3  5  1  0
  3  4  1  6
  5  6  1  6
  7  5  1  0
  8  7  2  0
  9  7  1  0
 10  9  1  0
 11 12  1  0
 10 11  1  1
 12 20  1  0
 12 13  2  0
 13 14  1  0
 15 14  1  0
 15 16  2  0
 17 16  1  0
 18 17  2  0
 19 20  2  0
 19 18  1  0
 20 15  1  0
 21 22  2  0
 21 10  1  0
 23 21  1  0
 24 23  1  0
 24 25  1  1
 26 25  1  0
 27 26  1  0
 27 28  1  0
 29 28  1  0
 30 24  1  0
 31 30  1  0
 32 30  2  0
M  END
$$$$
