IWK.pdb
     RDKit          3D

 32 33  0  0  1  0  0  0  0  0999 V2000
   28.6910  -21.9239  -18.6759 C   0  0  0  0  0  0  0  0  0  0  0  0
   28.4992  -20.8742  -17.6289 C   0  0  0  0  0  0  0  0  0  0  0  0
   27.7578  -21.3969  -16.4155 C   0  0  2  0  0  0  0  0  0  0  0  0
   26.4926  -22.0428  -16.8663 C   0  0  0  0  0  0  0  0  0  0  0  0
   27.5255  -20.2558  -15.4472 C   0  0  2  0  0  0  0  0  0  0  0  0
   28.8199  -19.6663  -15.1768 N   0  0  0  0  0  0  0  0  0  0  0  0
   26.9164  -20.7305  -14.1768 C   0  0  0  0  0  0  0  0  0  0  0  0
   25.8754  -21.4485  -14.1793 O   0  0  0  0  0  0  0  0  0  0  0  0
   27.4523  -20.4155  -12.8960 N   0  0  0  0  0  0  0  0  0  0  0  0
   26.7820  -20.7831  -11.6694 C   0  0  1  0  0  0  0  0  0  0  0  0
   27.6789  -20.5632  -10.4786 C   0  0  0  0  0  0  0  0  0  0  0  0
   27.0438  -20.7661   -9.1674 C   0  0  0  0  0  0  0  0  0  0  0  0
   25.9935  -21.6304   -8.9120 C   0  0  0  0  0  0  0  0  0  0  0  0
   25.6519  -21.5426   -7.6094 N   0  0  0  0  0  0  0  0  0  0  0  0
   26.4417  -20.6487   -6.9915 C   0  0  0  0  0  0  0  0  0  0  0  0
   26.5022  -20.2139   -5.6906 C   0  0  0  0  0  0  0  0  0  0  0  0
   27.4404  -19.2703   -5.3014 C   0  0  0  0  0  0  0  0  0  0  0  0
   28.2983  -18.8002   -6.2844 C   0  0  0  0  0  0  0  0  0  0  0  0
   28.2350  -19.2336   -7.5734 C   0  0  0  0  0  0  0  0  0  0  0  0
   27.3180  -20.1560   -7.9580 C   0  0  0  0  0  0  0  0  0  0  0  0
   25.4473  -20.1956  -11.5497 C   0  0  0  0  0  0  0  0  0  0  0  0
   25.2814  -18.9492  -11.7246 O   0  0  0  0  0  0  0  0  0  0  0  0
   24.2841  -20.9513  -11.2434 N   0  0  0  0  0  0  0  0  0  0  0  0
   22.9454  -20.4127  -11.3900 C   0  0  1  0  0  0  0  0  0  0  0  0
   22.1695  -21.2446  -12.3402 C   0  0  0  0  0  0  0  0  0  0  0  0
   20.7671  -20.8918  -12.6262 C   0  0  0  0  0  0  0  0  0  0  0  0
   20.0269  -21.7334  -13.6113 C   0  0  0  0  0  0  0  0  0  0  0  0
   18.5903  -21.2113  -13.7818 C   0  0  0  0  0  0  0  0  0  0  0  0
   17.8795  -21.9720  -14.7660 N   0  0  0  0  0  0  0  0  0  0  0  0
   22.3147  -20.3120  -10.0711 C   0  0  0  0  0  0  0  0  0  0  0  0
   21.3270  -19.3626   -9.7363 O   0  0  0  0  0  0  0  0  0  0  0  0
   22.6750  -21.1354   -9.1612 O   0  0  0  0  0  0  0  0  0  0  0  0
  1  2  1  0
  2  3  1  0
  3  5  1  0
  3  4  1  6
  5  6  1  1
  7  5  1  0
  8  7  2  0
  9  7  1  0
 10  9  1  0
 11 12  1  0
 10 11  1  1
 12 20  1  0
 12 13  2  0
 13 14  1  0
 15 14  1  0
 15 16  2  0
 17 16  1  0
 18 17  2  0
 19 20  2  0
 19 18  1  0
 20 15  1  0
 21 22  2  0
 21 10  1  0
 23 21  1  0
 24 23  1  0
 24 25  1  6
 26 25  1  0
 27 26  1  0
 27 28  1  0
 29 28  1  0
 30 24  1  0
 31 30  1  0
 32 30  2  0
M  END
$$$$
