IWK.pdb
     RDKit          3D

 32 33  0  0  1  0  0  0  0  0999 V2000
   29.0237  -17.8490  -17.3497 C   0  0  0  0  0  0  0  0  0  0  0  0
   29.6739  -18.8837  -16.4887 C   0  0  0  0  0  0  0  0  0  0  0  0
   28.6757  -19.8685  -15.9150 C   0  0  2  0  0  0  0  0  0  0  0  0
   27.8039  -20.3663  -17.0164 C   0  0  0  0  0  0  0  0  0  0  0  0
   27.8970  -19.1945  -14.8045 C   0  0  2  0  0  0  0  0  0  0  0  0
   28.8681  -18.7166  -13.8429 N   0  0  0  0  0  0  0  0  0  0  0  0
   26.9590  -20.1386  -14.1419 C   0  0  0  0  0  0  0  0  0  0  0  0
   25.9502  -20.5945  -14.7532 O   0  0  0  0  0  0  0  0  0  0  0  0
   27.1286  -20.5851  -12.8007 N   0  0  0  0  0  0  0  0  0  0  0  0
   26.1419  -21.4013  -12.1305 C   0  0  1  0  0  0  0  0  0  0  0  0
   26.6828  -21.9435  -10.8327 C   0  0  0  0  0  0  0  0  0  0  0  0
   26.6448  -21.0096   -9.6969 C   0  0  0  0  0  0  0  0  0  0  0  0
   25.5750  -20.1969   -9.3645 C   0  0  0  0  0  0  0  0  0  0  0  0
   25.8973  -19.4579   -8.2822 N   0  0  0  0  0  0  0  0  0  0  0  0
   27.1460  -19.7541   -7.8850 C   0  0  0  0  0  0  0  0  0  0  0  0
   27.9191  -19.2921   -6.8486 C   0  0  0  0  0  0  0  0  0  0  0  0
   29.2004  -19.7818   -6.6469 C   0  0  0  0  0  0  0  0  0  0  0  0
   29.6471  -20.7476   -7.5363 C   0  0  0  0  0  0  0  0  0  0  0  0
   28.8775  -21.2028   -8.5630 C   0  0  0  0  0  0  0  0  0  0  0  0
   27.6239  -20.7255   -8.7638 C   0  0  0  0  0  0  0  0  0  0  0  0
   24.8361  -20.7491  -12.0269 C   0  0  0  0  0  0  0  0  0  0  0  0
   24.7505  -19.5594  -11.5922 O   0  0  0  0  0  0  0  0  0  0  0  0
   23.6162  -21.3770  -12.3946 N   0  0  0  0  0  0  0  0  0  0  0  0
   22.3791  -20.6379  -12.5583 C   0  0  1  0  0  0  0  0  0  0  0  0
   22.3400  -20.0133  -13.9019 C   0  0  0  0  0  0  0  0  0  0  0  0
   21.1568  -19.2272  -14.2957 C   0  0  0  0  0  0  0  0  0  0  0  0
   21.1374  -18.6430  -15.6686 C   0  0  0  0  0  0  0  0  0  0  0  0
   19.8350  -17.8562  -15.8923 C   0  0  0  0  0  0  0  0  0  0  0  0
   19.8828  -17.1197  -17.1202 N   0  0  0  0  0  0  0  0  0  0  0  0
   21.2432  -21.5295  -12.3088 C   0  0  0  0  0  0  0  0  0  0  0  0
   20.0473  -21.1305  -11.6767 O   0  0  0  0  0  0  0  0  0  0  0  0
   21.3329  -22.7478  -12.6879 O   0  0  0  0  0  0  0  0  0  0  0  0
  1  2  1  0
  2  3  1  0
  3  5  1  0
  3  4  1  6
  5  6  1  1
  7  5  1  0
  8  7  2  0
  9  7  1  0
 10  9  1  0
 11 12  1  0
 10 11  1  1
 12 20  1  0
 12 13  2  0
 13 14  1  0
 15 14  1  0
 15 16  2  0
 17 16  1  0
 18 17  2  0
 19 20  2  0
 19 18  1  0
 20 15  1  0
 21 22  2  0
 21 10  1  0
 23 21  1  0
 24 23  1  0
 24 25  1  6
 26 25  1  0
 27 26  1  0
 27 28  1  0
 29 28  1  0
 30 24  1  0
 31 30  1  0
 32 30  2  0
M  END
$$$$
