IWK.pdb
     RDKit          3D

 32 33  0  0  1  0  0  0  0  0999 V2000
   27.5763  -18.3907  -17.4769 C   0  0  0  0  0  0  0  0  0  0  0  0
   28.3114  -19.3549  -16.6024 C   0  0  0  0  0  0  0  0  0  0  0  0
   27.5287  -19.7177  -15.3569 C   0  0  2  0  0  0  0  0  0  0  0  0
   27.1763  -18.4661  -14.6287 C   0  0  0  0  0  0  0  0  0  0  0  0
   28.3478  -20.6774  -14.5190 C   0  0  2  0  0  0  0  0  0  0  0  0
   28.5918  -21.8454  -15.3390 N   0  0  0  0  0  0  0  0  0  0  0  0
   27.6274  -21.0764  -13.2812 C   0  0  0  0  0  0  0  0  0  0  0  0
   26.6466  -21.8735  -13.3240 O   0  0  0  0  0  0  0  0  0  0  0  0
   27.9849  -20.5979  -11.9889 N   0  0  0  0  0  0  0  0  0  0  0  0
   27.2029  -20.9018  -10.8120 C   0  0  1  0  0  0  0  0  0  0  0  0
   27.9334  -20.4921   -9.5593 C   0  0  0  0  0  0  0  0  0  0  0  0
   27.1497  -20.5798   -8.3176 C   0  0  0  0  0  0  0  0  0  0  0  0
   25.8202  -20.9556   -8.2351 C   0  0  0  0  0  0  0  0  0  0  0  0
   25.4221  -20.9022   -6.9467 N   0  0  0  0  0  0  0  0  0  0  0  0
   26.4441  -20.5038   -6.1712 C   0  0  0  0  0  0  0  0  0  0  0  0
   26.5522  -20.3042   -4.8170 C   0  0  0  0  0  0  0  0  0  0  0  0
   27.7510  -19.8933   -4.2546 C   0  0  0  0  0  0  0  0  0  0  0  0
   28.8145  -19.6994   -5.1232 C   0  0  0  0  0  0  0  0  0  0  0  0
   28.7031  -19.8981   -6.4655 C   0  0  0  0  0  0  0  0  0  0  0  0
   27.5319  -20.2993   -7.0194 C   0  0  0  0  0  0  0  0  0  0  0  0
   25.8235  -20.4221  -10.9033 C   0  0  0  0  0  0  0  0  0  0  0  0
   25.5759  -19.1784  -10.8447 O   0  0  0  0  0  0  0  0  0  0  0  0
   24.7044  -21.2827  -11.0612 N   0  0  0  0  0  0  0  0  0  0  0  0
   23.4054  -20.7994  -11.4886 C   0  0  1  0  0  0  0  0  0  0  0  0
   22.7231  -21.8378  -12.2966 C   0  0  0  0  0  0  0  0  0  0  0  0
   21.3752  -21.5656  -12.8279 C   0  0  0  0  0  0  0  0  0  0  0  0
   20.7139  -22.6394  -13.6255 C   0  0  0  0  0  0  0  0  0  0  0  0
   19.3583  -22.1459  -14.1588 C   0  0  0  0  0  0  0  0  0  0  0  0
   18.7735  -23.1068  -15.0461 N   0  0  0  0  0  0  0  0  0  0  0  0
   22.6302  -20.3865  -10.3156 C   0  0  0  0  0  0  0  0  0  0  0  0
   22.8592  -20.8621   -9.0077 O   0  0  0  0  0  0  0  0  0  0  0  0
   21.6862  -19.5392  -10.4791 O   0  0  0  0  0  0  0  0  0  0  0  0
  1  2  1  0
  2  3  1  0
  3  5  1  0
  3  4  1  1
  5  6  1  6
  7  5  1  0
  8  7  2  0
  9  7  1  0
 10  9  1  0
 11 12  1  0
 10 11  1  1
 12 20  1  0
 12 13  2  0
 13 14  1  0
 15 14  1  0
 15 16  2  0
 17 16  1  0
 18 17  2  0
 19 20  2  0
 19 18  1  0
 20 15  1  0
 21 22  2  0
 21 10  1  0
 23 21  1  0
 24 23  1  0
 24 25  1  1
 26 25  1  0
 27 26  1  0
 27 28  1  0
 29 28  1  0
 30 24  1  0
 31 30  1  0
 32 30  2  0
M  END
$$$$
