IWK.pdb
     RDKit          3D

 32 33  0  0  1  0  0  0  0  0999 V2000
   18.8379  -19.0545  -12.1466 C   0  0  0  0  0  0  0  0  0  0  0  0
   19.7364  -20.1753  -12.5606 C   0  0  0  0  0  0  0  0  0  0  0  0
   21.1889  -19.7520  -12.6411 C   0  0  2  0  0  0  0  0  0  0  0  0
   21.2818  -18.5032  -13.4492 C   0  0  0  0  0  0  0  0  0  0  0  0
   22.0054  -20.8900  -13.2172 C   0  0  2  0  0  0  0  0  0  0  0  0
   21.7203  -22.0591  -12.4122 N   0  0  0  0  0  0  0  0  0  0  0  0
   23.4621  -20.5958  -13.1743 C   0  0  0  0  0  0  0  0  0  0  0  0
   23.9369  -19.5633  -13.7291 O   0  0  0  0  0  0  0  0  0  0  0  0
   24.4035  -21.4393  -12.5192 N   0  0  0  0  0  0  0  0  0  0  0  0
   25.8272  -21.1989  -12.5826 C   0  0  1  0  0  0  0  0  0  0  0  0
   26.5274  -21.7915  -11.3871 C   0  0  0  0  0  0  0  0  0  0  0  0
   26.3804  -21.0354  -10.1339 C   0  0  0  0  0  0  0  0  0  0  0  0
   25.2369  -20.3677   -9.7315 C   0  0  0  0  0  0  0  0  0  0  0  0
   25.4669  -19.7670   -8.5451 N   0  0  0  0  0  0  0  0  0  0  0  0
   26.7256  -20.0147   -8.1466 C   0  0  0  0  0  0  0  0  0  0  0  0
   27.4295  -19.6441   -7.0274 C   0  0  0  0  0  0  0  0  0  0  0  0
   28.7423  -20.0522   -6.8482 C   0  0  0  0  0  0  0  0  0  0  0  0
   29.2927  -20.8418   -7.8466 C   0  0  0  0  0  0  0  0  0  0  0  0
   28.5916  -21.2068   -8.9551 C   0  0  0  0  0  0  0  0  0  0  0  0
   27.3074  -20.8089   -9.1342 C   0  0  0  0  0  0  0  0  0  0  0  0
   26.4100  -21.5578  -13.8759 C   0  0  0  0  0  0  0  0  0  0  0  0
   26.1763  -22.6965  -14.3864 O   0  0  0  0  0  0  0  0  0  0  0  0
   27.2459  -20.6882  -14.6262 N   0  0  0  0  0  0  0  0  0  0  0  0
   27.7666  -21.0445  -15.9322 C   0  0  1  0  0  0  0  0  0  0  0  0
   28.3051  -19.8388  -16.6054 C   0  0  0  0  0  0  0  0  0  0  0  0
   28.8178  -19.9524  -17.9828 C   0  0  0  0  0  0  0  0  0  0  0  0
   29.3901  -18.7271  -18.6134 C   0  0  0  0  0  0  0  0  0  0  0  0
   29.7371  -19.0010  -20.0865 C   0  0  0  0  0  0  0  0  0  0  0  0
   30.7486  -20.0095  -20.1982 N   0  0  0  0  0  0  0  0  0  0  0  0
   28.7621  -22.1097  -15.7846 C   0  0  0  0  0  0  0  0  0  0  0  0
   28.9647  -23.1399  -16.7262 O   0  0  0  0  0  0  0  0  0  0  0  0
   29.5000  -22.1108  -14.7400 O   0  0  0  0  0  0  0  0  0  0  0  0
  1  2  1  0
  2  3  1  0
  3  5  1  0
  3  4  1  6
  5  6  1  1
  7  5  1  0
  8  7  2  0
  9  7  1  0
 10  9  1  0
 11 12  1  0
 10 11  1  1
 12 20  1  0
 12 13  2  0
 13 14  1  0
 15 14  1  0
 15 16  2  0
 17 16  1  0
 18 17  2  0
 19 20  2  0
 19 18  1  0
 20 15  1  0
 21 22  2  0
 21 10  1  0
 23 21  1  0
 24 23  1  0
 24 25  1  1
 26 25  1  0
 27 26  1  0
 27 28  1  0
 29 28  1  0
 30 24  1  0
 31 30  1  0
 32 30  2  0
M  END
$$$$
