IWK.pdb
     RDKit          3D

 32 33  0  0  1  0  0  0  0  0999 V2000
   28.4436  -19.7475   -7.3428 C   0  0  0  0  0  0  0  0  0  0  0  0
   28.2801  -20.5674   -8.5821 C   0  0  0  0  0  0  0  0  0  0  0  0
   27.0393  -20.1898   -9.3652 C   0  0  2  0  0  0  0  0  0  0  0  0
   25.8441  -20.3864   -8.4969 C   0  0  0  0  0  0  0  0  0  0  0  0
   26.9868  -21.0111  -10.6366 C   0  0  2  0  0  0  0  0  0  0  0  0
   28.2746  -20.8662  -11.2819 N   0  0  0  0  0  0  0  0  0  0  0  0
   25.9132  -20.5389  -11.5502 C   0  0  0  0  0  0  0  0  0  0  0  0
   25.9320  -19.3696  -12.0315 O   0  0  0  0  0  0  0  0  0  0  0  0
   24.8122  -21.3541  -11.9379 N   0  0  0  0  0  0  0  0  0  0  0  0
   23.8164  -20.9037  -12.8836 C   0  0  1  0  0  0  0  0  0  0  0  0
   24.4572  -20.4816  -14.1805 C   0  0  0  0  0  0  0  0  0  0  0  0
   23.5271  -20.0020  -15.2143 C   0  0  0  0  0  0  0  0  0  0  0  0
   22.8518  -18.7943  -15.1852 C   0  0  0  0  0  0  0  0  0  0  0  0
   22.0704  -18.6951  -16.2811 N   0  0  0  0  0  0  0  0  0  0  0  0
   22.2055  -19.7973  -17.0370 C   0  0  0  0  0  0  0  0  0  0  0  0
   21.6431  -20.1717  -18.2323 C   0  0  0  0  0  0  0  0  0  0  0  0
   21.9676  -21.3851  -18.8193 C   0  0  0  0  0  0  0  0  0  0  0  0
   22.8765  -22.1836  -18.1414 C   0  0  0  0  0  0  0  0  0  0  0  0
   23.4317  -21.8089  -16.9561 C   0  0  0  0  0  0  0  0  0  0  0  0
   23.1161  -20.6230  -16.3786 C   0  0  0  0  0  0  0  0  0  0  0  0
   22.6998  -21.8387  -13.0261 C   0  0  0  0  0  0  0  0  0  0  0  0
   22.9221  -23.0649  -13.2681 O   0  0  0  0  0  0  0  0  0  0  0  0
   21.3374  -21.4551  -12.9051 N   0  0  0  0  0  0  0  0  0  0  0  0
   20.2494  -22.4101  -12.9937 C   0  0  1  0  0  0  0  0  0  0  0  0
   19.5048  -22.4449  -11.7126 C   0  0  0  0  0  0  0  0  0  0  0  0
   18.3441  -23.3438  -11.5793 C   0  0  0  0  0  0  0  0  0  0  0  0
   17.5625  -23.2841  -10.3096 C   0  0  0  0  0  0  0  0  0  0  0  0
   16.3650  -24.2468  -10.3777 C   0  0  0  0  0  0  0  0  0  0  0  0
   15.5384  -24.1236   -9.2141 N   0  0  0  0  0  0  0  0  0  0  0  0
   19.4002  -22.0747  -14.1398 C   0  0  0  0  0  0  0  0  0  0  0  0
   18.6962  -23.0248  -14.9085 O   0  0  0  0  0  0  0  0  0  0  0  0
   19.2822  -20.8444  -14.4688 O   0  0  0  0  0  0  0  0  0  0  0  0
  1  2  1  0
  2  3  1  0
  3  5  1  0
  3  4  1  1
  5  6  1  6
  7  5  1  0
  8  7  2  0
  9  7  1  0
 10  9  1  0
 11 12  1  0
 10 11  1  6
 12 20  1  0
 12 13  2  0
 13 14  1  0
 15 14  1  0
 15 16  2  0
 17 16  1  0
 18 17  2  0
 19 20  2  0
 19 18  1  0
 20 15  1  0
 21 22  2  0
 21 10  1  0
 23 21  1  0
 24 23  1  0
 24 25  1  1
 26 25  1  0
 27 26  1  0
 27 28  1  0
 29 28  1  0
 30 24  1  0
 31 30  1  0
 32 30  2  0
M  END
$$$$
