PTS.pdb
     RDKit          3D

 21 21  0  0  1  0  0  0  0  0999 V2000
   16.6941  -14.9390  -16.2884 N   0  0  0  0  0  0  0  0  0  0  0  0
   15.5138  -15.2871  -15.5435 C   0  0  0  0  0  0  0  0  0  0  0  0
   14.4953  -14.2011  -15.8092 C   0  0  0  0  0  0  0  0  0  0  0  0
   15.3753  -12.9847  -15.9987 C   0  0  0  0  0  0  0  0  0  0  0  0
   16.6684  -13.5383  -16.5503 C   0  0  1  0  0  0  0  0  0  0  0  0
   17.8589  -12.8290  -16.0083 C   0  0  0  0  0  0  0  0  0  0  0  0
   18.4789  -13.2064  -14.9958 O   0  0  0  0  0  0  0  0  0  0  0  0
   21.0007  -12.3126  -17.6014 C   0  0  0  0  0  0  0  0  0  0  0  0
   20.5835  -10.8921  -17.3091 C   0  0  1  0  0  0  0  0  0  0  0  0
   20.1627  -10.2722  -18.4797 O   0  0  0  0  0  0  0  0  0  0  0  0
   19.4967  -10.9336  -16.2627 C   0  0  2  0  0  0  0  0  0  0  0  0
   18.3307  -11.6621  -16.6599 N   0  0  0  0  0  0  0  0  0  0  0  0
   19.1803   -9.5855  -15.7269 C   0  0  0  0  0  0  0  0  0  0  0  0
   18.2444   -8.9029  -16.2175 O   0  0  0  0  0  0  0  0  0  0  0  0
   20.6235   -7.9448  -12.0911 O   0  0  0  0  0  0  0  0  0  0  0  0
   19.4449   -7.5560  -12.7229 C   0  0  0  0  0  0  0  0  0  0  0  0
   19.5846   -7.6455  -14.2281 C   0  0  2  0  0  0  0  0  0  0  0  0
   19.8946   -8.9949  -14.6542 N   0  0  0  0  0  0  0  0  0  0  0  0
   20.5677   -6.6583  -14.7422 C   0  0  0  0  0  0  0  0  0  0  0  0
   20.2916   -5.3137  -14.5441 O   0  0  0  0  0  0  0  0  0  0  0  0
   21.5882   -7.0602  -15.3228 O   0  0  0  0  0  0  0  0  0  0  0  0
  1  5  1  0
  2  1  1  0
  3  2  1  0
  3  4  1  0
  4  5  1  0
  5  6  1  1
  6  7  2  0
  9  8  1  6
  9 10  1  0
  9 11  1  0
 11 13  1  0
 12  6  1  0
 11 12  1  6
 13 14  2  0
 13 18  1  0
 17 16  1  1
 16 15  1  0
 17 19  1  0
 18 17  1  0
 19 21  2  0
 19 20  1  0
M  END
$$$$
