PTS.pdb
     RDKit          3D

 21 21  0  0  1  0  0  0  0  0999 V2000
   19.5511  -13.6629  -16.9599 N   0  0  0  0  0  0  0  0  0  0  0  0
   19.1610  -14.4688  -15.8341 C   0  0  0  0  0  0  0  0  0  0  0  0
   17.9337  -13.8175  -15.2370 C   0  0  0  0  0  0  0  0  0  0  0  0
   18.1828  -12.3532  -15.5265 C   0  0  0  0  0  0  0  0  0  0  0  0
   19.0099  -12.3553  -16.7910 C   0  0  1  0  0  0  0  0  0  0  0  0
   20.0552  -11.2964  -16.7795 C   0  0  0  0  0  0  0  0  0  0  0  0
   21.1645  -11.4349  -16.2296 O   0  0  0  0  0  0  0  0  0  0  0  0
   19.4397   -7.7269  -19.1347 C   0  0  0  0  0  0  0  0  0  0  0  0
   20.8018   -8.3041  -18.8368 C   0  0  1  0  0  0  0  0  0  0  0  0
   21.7605   -7.2985  -18.8752 O   0  0  0  0  0  0  0  0  0  0  0  0
   20.7353   -8.9781  -17.4881 C   0  0  2  0  0  0  0  0  0  0  0  0
   19.7992  -10.0584  -17.4203 N   0  0  0  0  0  0  0  0  0  0  0  0
   20.5730   -8.0033  -16.3798 C   0  0  0  0  0  0  0  0  0  0  0  0
   19.4412   -7.7873  -15.8753 O   0  0  0  0  0  0  0  0  0  0  0  0
   22.5022   -5.1141  -12.9856 O   0  0  0  0  0  0  0  0  0  0  0  0
   22.7366   -5.9240  -14.0940 C   0  0  0  0  0  0  0  0  0  0  0  0
   21.4333   -6.3505  -14.7361 C   0  0  2  0  0  0  0  0  0  0  0  0
   21.6564   -7.2712  -15.8320 N   0  0  0  0  0  0  0  0  0  0  0  0
   20.6217   -5.1776  -15.1493 C   0  0  0  0  0  0  0  0  0  0  0  0
   19.5944   -4.7785  -14.3073 O   0  0  0  0  0  0  0  0  0  0  0  0
   20.8834   -4.6008  -16.2164 O   0  0  0  0  0  0  0  0  0  0  0  0
  1  5  1  0
  2  1  1  0
  3  2  1  0
  3  4  1  0
  4  5  1  0
  5  6  1  1
  6  7  2  0
  9  8  1  1
  9 10  1  0
  9 11  1  0
 11 13  1  0
 12  6  1  0
 11 12  1  6
 13 14  2  0
 13 18  1  0
 17 16  1  6
 16 15  1  0
 17 19  1  0
 18 17  1  0
 19 21  2  0
 19 20  1  0
M  END
$$$$
