PTS.pdb
     RDKit          3D

 21 21  0  0  1  0  0  0  0  0999 V2000
   18.7732  -11.9317  -16.5213 N   0  0  0  0  0  0  0  0  0  0  0  0
   18.2622  -12.8419  -17.5110 C   0  0  0  0  0  0  0  0  0  0  0  0
   19.3597  -13.8449  -17.7878 C   0  0  0  0  0  0  0  0  0  0  0  0
   20.6060  -13.0132  -17.5764 C   0  0  0  0  0  0  0  0  0  0  0  0
   20.1972  -11.9756  -16.5569 C   0  0  1  0  0  0  0  0  0  0  0  0
   20.8077  -10.6469  -16.8328 C   0  0  0  0  0  0  0  0  0  0  0  0
   22.0337  -10.4713  -16.9684 O   0  0  0  0  0  0  0  0  0  0  0  0
   20.2296   -8.4232  -19.7027 C   0  0  0  0  0  0  0  0  0  0  0  0
   19.7972   -7.6039  -18.5115 C   0  0  1  0  0  0  0  0  0  0  0  0
   18.4101   -7.5915  -18.4242 O   0  0  0  0  0  0  0  0  0  0  0  0
   20.4412   -8.1968  -17.2821 C   0  0  2  0  0  0  0  0  0  0  0  0
   19.9726   -9.5080  -16.9517 N   0  0  0  0  0  0  0  0  0  0  0  0
   20.4107   -7.2649  -16.1265 C   0  0  0  0  0  0  0  0  0  0  0  0
   19.4782   -7.3171  -15.2839 O   0  0  0  0  0  0  0  0  0  0  0  0
   22.5414   -4.0034  -13.2570 O   0  0  0  0  0  0  0  0  0  0  0  0
   22.6525   -4.8283  -14.3735 C   0  0  0  0  0  0  0  0  0  0  0  0
   21.3003   -5.3807  -14.7731 C   0  0  2  0  0  0  0  0  0  0  0  0
   21.4062   -6.2804  -15.9034 N   0  0  0  0  0  0  0  0  0  0  0  0
   20.3191   -4.2927  -15.0159 C   0  0  0  0  0  0  0  0  0  0  0  0
   20.3489   -3.6649  -16.2523 O   0  0  0  0  0  0  0  0  0  0  0  0
   19.5168   -3.9847  -14.1208 O   0  0  0  0  0  0  0  0  0  0  0  0
  1  5  1  0
  2  1  1  0
  3  2  1  0
  3  4  1  0
  4  5  1  0
  5  6  1  6
  6  7  2  0
  9  8  1  6
  9 10  1  0
  9 11  1  0
 11 13  1  0
 12  6  1  0
 11 12  1  1
 13 14  2  0
 13 18  1  0
 17 16  1  6
 16 15  1  0
 17 19  1  0
 18 17  1  0
 19 21  2  0
 19 20  1  0
M  END
$$$$
