PTS.pdb
     RDKit          3D

 21 21  0  0  1  0  0  0  0  0999 V2000
   19.6479  -12.3045  -15.4112 N   0  0  0  0  0  0  0  0  0  0  0  0
   18.6161  -13.2637  -15.7021 C   0  0  0  0  0  0  0  0  0  0  0  0
   18.8596  -13.7505  -17.1130 C   0  0  0  0  0  0  0  0  0  0  0  0
   19.4598  -12.5259  -17.7687 C   0  0  0  0  0  0  0  0  0  0  0  0
   20.1594  -11.8011  -16.6426 C   0  0  1  0  0  0  0  0  0  0  0  0
   20.0286  -10.3235  -16.7595 C   0  0  0  0  0  0  0  0  0  0  0  0
   20.4379   -9.6753  -17.7416 O   0  0  0  0  0  0  0  0  0  0  0  0
   17.9757   -6.1598  -15.2595 C   0  0  0  0  0  0  0  0  0  0  0  0
   17.9585   -7.6674  -15.1952 C   0  0  1  0  0  0  0  0  0  0  0  0
   16.9030   -8.1612  -15.9528 O   0  0  0  0  0  0  0  0  0  0  0  0
   19.2955   -8.1680  -15.6845 C   0  0  2  0  0  0  0  0  0  0  0  0
   19.4106   -9.5942  -15.7132 N   0  0  0  0  0  0  0  0  0  0  0  0
   20.4308   -7.5114  -14.9883 C   0  0  0  0  0  0  0  0  0  0  0  0
   20.7686   -7.8703  -13.8310 O   0  0  0  0  0  0  0  0  0  0  0  0
   23.5113   -5.8189  -16.9849 O   0  0  0  0  0  0  0  0  0  0  0  0
   23.2216   -5.1183  -15.8167 C   0  0  0  0  0  0  0  0  0  0  0  0
   22.3602   -5.9489  -14.8888 C   0  0  2  0  0  0  0  0  0  0  0  0
   21.1889   -6.4633  -15.5686 N   0  0  0  0  0  0  0  0  0  0  0  0
   22.0058   -5.1972  -13.6581 C   0  0  0  0  0  0  0  0  0  0  0  0
   22.9045   -5.2329  -12.6023 O   0  0  0  0  0  0  0  0  0  0  0  0
   20.9353   -4.5711  -13.6134 O   0  0  0  0  0  0  0  0  0  0  0  0
  1  5  1  0
  2  1  1  0
  3  2  1  0
  3  4  1  0
  4  5  1  0
  5  6  1  6
  6  7  2  0
  9  8  1  6
  9 10  1  0
  9 11  1  0
 11 13  1  0
 12  6  1  0
 11 12  1  1
 13 14  2  0
 13 18  1  0
 17 16  1  6
 16 15  1  0
 17 19  1  0
 18 17  1  0
 19 21  2  0
 19 20  1  0
M  END
$$$$
