PTS.pdb
     RDKit          3D

 21 21  0  0  1  0  0  0  0  0999 V2000
   28.6189  -20.5635  -15.4050 N   0  0  0  0  0  0  0  0  0  0  0  0
   28.6975  -20.0105  -16.7306 C   0  0  0  0  0  0  0  0  0  0  0  0
   28.1075  -18.6200  -16.6578 C   0  0  0  0  0  0  0  0  0  0  0  0
   27.0606  -18.7791  -15.5769 C   0  0  0  0  0  0  0  0  0  0  0  0
   27.6054  -19.8686  -14.6830 C   0  0  1  0  0  0  0  0  0  0  0  0
   26.5340  -20.7710  -14.1814 C   0  0  0  0  0  0  0  0  0  0  0  0
   26.3998  -21.9508  -14.5586 O   0  0  0  0  0  0  0  0  0  0  0  0
   25.8588  -21.3753  -10.5673 C   0  0  0  0  0  0  0  0  0  0  0  0
   24.5144  -20.9713  -11.1210 C   0  0  1  0  0  0  0  0  0  0  0  0
   24.1974  -19.6846  -10.7019 O   0  0  0  0  0  0  0  0  0  0  0  0
   24.5796  -21.0820  -12.6247 C   0  0  2  0  0  0  0  0  0  0  0  0
   25.6067  -20.2867  -13.2252 N   0  0  0  0  0  0  0  0  0  0  0  0
   23.2523  -20.8868  -13.2610 C   0  0  0  0  0  0  0  0  0  0  0  0
   22.8999  -19.7529  -13.6764 O   0  0  0  0  0  0  0  0  0  0  0  0
   19.1654  -22.6585  -15.1729 O   0  0  0  0  0  0  0  0  0  0  0  0
   20.3853  -22.9380  -14.5619 C   0  0  0  0  0  0  0  0  0  0  0  0
   21.0234  -21.6732  -14.0272 C   0  0  2  0  0  0  0  0  0  0  0  0
   22.3193  -21.9395  -13.4373 N   0  0  0  0  0  0  0  0  0  0  0  0
   20.1183  -20.9629  -13.0883 C   0  0  0  0  0  0  0  0  0  0  0  0
   19.1311  -20.1561  -13.6342 O   0  0  0  0  0  0  0  0  0  0  0  0
   20.2705  -21.1109  -11.8657 O   0  0  0  0  0  0  0  0  0  0  0  0
  1  5  1  0
  2  1  1  0
  3  2  1  0
  3  4  1  0
  4  5  1  0
  5  6  1  6
  6  7  2  0
  9  8  1  1
  9 10  1  0
  9 11  1  0
 11 13  1  0
 12  6  1  0
 11 12  1  6
 13 14  2  0
 13 18  1  0
 17 16  1  1
 16 15  1  0
 17 19  1  0
 18 17  1  0
 19 21  2  0
 19 20  1  0
M  END
$$$$
