PTS.pdb
     RDKit          3D

 21 21  0  0  1  0  0  0  0  0999 V2000
   25.3878  -33.9698   -9.1757 N   0  0  0  0  0  0  0  0  0  0  0  0
   24.2882  -33.0588   -9.0020 C   0  0  0  0  0  0  0  0  0  0  0  0
   24.8698  -31.7730   -8.4583 C   0  0  0  0  0  0  0  0  0  0  0  0
   26.0386  -32.2780   -7.6405 C   0  0  0  0  0  0  0  0  0  0  0  0
   26.4593  -33.5531   -8.3333 C   0  0  1  0  0  0  0  0  0  0  0  0
   26.8752  -34.6057   -7.3672 C   0  0  0  0  0  0  0  0  0  0  0  0
   26.1999  -35.6263   -7.1335 O   0  0  0  0  0  0  0  0  0  0  0  0
   30.5362  -36.5632   -4.7409 C   0  0  0  0  0  0  0  0  0  0  0  0
   30.1334  -35.5089   -5.7426 C   0  0  1  0  0  0  0  0  0  0  0  0
   30.6596  -35.8173   -6.9915 O   0  0  0  0  0  0  0  0  0  0  0  0
   28.6260  -35.4374   -5.7603 C   0  0  2  0  0  0  0  0  0  0  0  0
   28.0978  -34.4624   -6.6649 N   0  0  0  0  0  0  0  0  0  0  0  0
   28.0522  -35.3287   -4.3951 C   0  0  0  0  0  0  0  0  0  0  0  0
   28.0219  -34.2222   -3.7975 O   0  0  0  0  0  0  0  0  0  0  0  0
   25.6765  -37.3282   -0.6472 O   0  0  0  0  0  0  0  0  0  0  0  0
   26.3529  -37.5476   -1.8446 C   0  0  0  0  0  0  0  0  0  0  0  0
   26.9425  -36.2578   -2.3755 C   0  0  2  0  0  0  0  0  0  0  0  0
   27.5145  -36.4375   -3.6941 N   0  0  0  0  0  0  0  0  0  0  0  0
   27.9166  -35.6719   -1.4199 C   0  0  0  0  0  0  0  0  0  0  0  0
   27.4466  -34.7231   -0.5241 O   0  0  0  0  0  0  0  0  0  0  0  0
   29.1004  -36.0430   -1.4519 O   0  0  0  0  0  0  0  0  0  0  0  0
  1  5  1  0
  2  1  1  0
  3  2  1  0
  3  4  1  0
  4  5  1  0
  5  6  1  1
  6  7  2  0
  9  8  1  1
  9 10  1  0
  9 11  1  0
 11 13  1  0
 12  6  1  0
 11 12  1  6
 13 14  2  0
 13 18  1  0
 17 16  1  1
 16 15  1  0
 17 19  1  0
 18 17  1  0
 19 21  2  0
 19 20  1  0
M  END
$$$$
