PTS.pdb
     RDKit          3D

 21 21  0  0  1  0  0  0  0  0999 V2000
   20.4304  -11.8425  -15.7860 N   0  0  0  0  0  0  0  0  0  0  0  0
   19.4578  -12.8997  -15.8610 C   0  0  0  0  0  0  0  0  0  0  0  0
   19.4552  -13.3881  -17.2922 C   0  0  0  0  0  0  0  0  0  0  0  0
   19.7896  -12.1252  -18.0558 C   0  0  0  0  0  0  0  0  0  0  0  0
   20.6305  -11.3167  -17.0955 C   0  0  1  0  0  0  0  0  0  0  0  0
   20.3377   -9.8604  -17.1824 C   0  0  0  0  0  0  0  0  0  0  0  0
   20.3959   -9.2122  -18.2448 O   0  0  0  0  0  0  0  0  0  0  0  0
   17.2237   -8.0696  -16.3576 C   0  0  0  0  0  0  0  0  0  0  0  0
   18.2475   -7.4918  -15.4114 C   0  0  1  0  0  0  0  0  0  0  0  0
   18.0870   -8.0439  -14.1460 O   0  0  0  0  0  0  0  0  0  0  0  0
   19.6164   -7.7665  -15.9845 C   0  0  2  0  0  0  0  0  0  0  0  0
   19.9716   -9.1526  -16.0103 N   0  0  0  0  0  0  0  0  0  0  0  0
   20.6648   -6.9133  -15.3700 C   0  0  0  0  0  0  0  0  0  0  0  0
   21.5064   -7.4035  -14.5738 O   0  0  0  0  0  0  0  0  0  0  0  0
   23.0365   -2.6688  -15.1506 O   0  0  0  0  0  0  0  0  0  0  0  0
   21.9315   -3.3617  -15.6389 C   0  0  0  0  0  0  0  0  0  0  0  0
   21.8911   -4.7710  -15.0866 C   0  0  2  0  0  0  0  0  0  0  0  0
   20.7824   -5.5255  -15.6344 N   0  0  0  0  0  0  0  0  0  0  0  0
   21.8875   -4.7728  -13.6015 C   0  0  0  0  0  0  0  0  0  0  0  0
   23.1136   -4.7122  -12.9560 O   0  0  0  0  0  0  0  0  0  0  0  0
   20.8064   -4.8272  -12.9948 O   0  0  0  0  0  0  0  0  0  0  0  0
  1  5  1  0
  2  1  1  0
  3  2  1  0
  3  4  1  0
  4  5  1  0
  5  6  1  1
  6  7  2  0
  9  8  1  6
  9 10  1  0
  9 11  1  0
 11 13  1  0
 12  6  1  0
 11 12  1  1
 13 14  2  0
 13 18  1  0
 17 16  1  6
 16 15  1  0
 17 19  1  0
 18 17  1  0
 19 21  2  0
 19 20  1  0
M  END
$$$$
