PTS.pdb
     RDKit          3D

 21 21  0  0  1  0  0  0  0  0999 V2000
   18.7526  -12.0829  -15.1713 N   0  0  0  0  0  0  0  0  0  0  0  0
   17.6295  -12.8835  -15.5798 C   0  0  0  0  0  0  0  0  0  0  0  0
   18.1116  -13.7657  -16.7096 C   0  0  0  0  0  0  0  0  0  0  0  0
   19.1544  -12.8896  -17.3691 C   0  0  0  0  0  0  0  0  0  0  0  0
   19.6855  -12.0277  -16.2475 C   0  0  1  0  0  0  0  0  0  0  0  0
   19.9679  -10.6367  -16.6942 C   0  0  0  0  0  0  0  0  0  0  0  0
   20.7207  -10.3633  -17.6484 O   0  0  0  0  0  0  0  0  0  0  0  0
   17.4410   -7.9670  -17.6278 C   0  0  0  0  0  0  0  0  0  0  0  0
   18.2366   -7.4030  -16.4763 C   0  0  1  0  0  0  0  0  0  0  0  0
   17.4919   -7.4776  -15.3052 O   0  0  0  0  0  0  0  0  0  0  0  0
   19.5286   -8.1774  -16.3814 C   0  0  2  0  0  0  0  0  0  0  0  0
   19.3611   -9.5506  -16.0153 N   0  0  0  0  0  0  0  0  0  0  0  0
   20.5433   -7.4787  -15.5527 C   0  0  0  0  0  0  0  0  0  0  0  0
   20.7414   -7.8188  -14.3579 O   0  0  0  0  0  0  0  0  0  0  0  0
   24.1363   -4.2229  -15.1191 O   0  0  0  0  0  0  0  0  0  0  0  0
   23.2181   -4.8441  -15.9621 C   0  0  0  0  0  0  0  0  0  0  0  0
   22.3124   -5.7738  -15.1823 C   0  0  2  0  0  0  0  0  0  0  0  0
   21.3352   -6.4095  -16.0421 N   0  0  0  0  0  0  0  0  0  0  0  0
   21.6769   -5.0773  -14.0350 C   0  0  0  0  0  0  0  0  0  0  0  0
   22.3389   -5.1103  -12.8166 O   0  0  0  0  0  0  0  0  0  0  0  0
   20.5922   -4.4972  -14.1991 O   0  0  0  0  0  0  0  0  0  0  0  0
  1  5  1  0
  2  1  1  0
  3  2  1  0
  3  4  1  0
  4  5  1  0
  5  6  1  6
  6  7  2  0
  9  8  1  6
  9 10  1  0
  9 11  1  0
 11 13  1  0
 12  6  1  0
 11 12  1  1
 13 14  2  0
 13 18  1  0
 17 16  1  6
 16 15  1  0
 17 19  1  0
 18 17  1  0
 19 21  2  0
 19 20  1  0
M  END
$$$$
