PTS.pdb
     RDKit          3D

 21 21  0  0  1  0  0  0  0  0999 V2000
   31.2827  -25.5891  -17.7351 N   0  0  0  0  0  0  0  0  0  0  0  0
   31.6070  -24.2103  -17.4837 C   0  0  0  0  0  0  0  0  0  0  0  0
   31.3408  -23.9612  -16.0160 C   0  0  0  0  0  0  0  0  0  0  0  0
   30.1888  -24.9031  -15.7413 C   0  0  0  0  0  0  0  0  0  0  0  0
   30.3888  -26.0371  -16.7195 C   0  0  1  0  0  0  0  0  0  0  0  0
   29.0998  -26.5395  -17.2674 C   0  0  0  0  0  0  0  0  0  0  0  0
   28.6994  -26.2846  -18.4193 O   0  0  0  0  0  0  0  0  0  0  0  0
   25.6047  -29.9317  -17.0138 C   0  0  0  0  0  0  0  0  0  0  0  0
   26.9053  -29.4087  -16.4551 C   0  0  1  0  0  0  0  0  0  0  0  0
   27.9577  -30.2147  -16.8728 O   0  0  0  0  0  0  0  0  0  0  0  0
   27.0650  -27.9792  -16.9119 C   0  0  2  0  0  0  0  0  0  0  0  0
   28.2677  -27.3512  -16.4567 N   0  0  0  0  0  0  0  0  0  0  0  0
   25.8523  -27.1649  -16.6456 C   0  0  0  0  0  0  0  0  0  0  0  0
   25.5827  -26.7767  -15.4798 O   0  0  0  0  0  0  0  0  0  0  0  0
   24.1795  -24.2624  -18.9801 O   0  0  0  0  0  0  0  0  0  0  0  0
   23.2710  -25.2298  -18.5580 C   0  0  0  0  0  0  0  0  0  0  0  0
   23.7911  -25.9636  -17.3398 C   0  0  2  0  0  0  0  0  0  0  0  0
   24.9421  -26.7816  -17.6628 N   0  0  0  0  0  0  0  0  0  0  0  0
   22.7174  -26.7476  -16.6782 C   0  0  0  0  0  0  0  0  0  0  0  0
   21.8948  -26.0816  -15.7818 O   0  0  0  0  0  0  0  0  0  0  0  0
   22.5915  -27.9533  -16.9433 O   0  0  0  0  0  0  0  0  0  0  0  0
  1  5  1  0
  2  1  1  0
  3  2  1  0
  3  4  1  0
  4  5  1  0
  5  6  1  6
  6  7  2  0
  9  8  1  6
  9 10  1  0
  9 11  1  0
 11 13  1  0
 12  6  1  0
 11 12  1  1
 13 14  2  0
 13 18  1  0
 17 16  1  6
 16 15  1  0
 17 19  1  0
 18 17  1  0
 19 21  2  0
 19 20  1  0
M  END
$$$$
