PTS.pdb
     RDKit          3D

 21 21  0  0  1  0  0  0  0  0999 V2000
   27.1635  -19.6945  -16.9403 N   0  0  0  0  0  0  0  0  0  0  0  0
   27.0476  -18.9800  -18.1834 C   0  0  0  0  0  0  0  0  0  0  0  0
   27.8744  -17.7217  -18.0410 C   0  0  0  0  0  0  0  0  0  0  0  0
   27.7351  -17.4197  -16.5648 C   0  0  0  0  0  0  0  0  0  0  0  0
   27.5405  -18.7727  -15.9208 C   0  0  1  0  0  0  0  0  0  0  0  0
   26.5651  -18.7247  -14.7981 C   0  0  0  0  0  0  0  0  0  0  0  0
   26.5398  -17.8112  -13.9514 O   0  0  0  0  0  0  0  0  0  0  0  0
   22.3420  -20.3759  -12.9266 C   0  0  0  0  0  0  0  0  0  0  0  0
   23.2611  -20.3032  -14.1213 C   0  0  1  0  0  0  0  0  0  0  0  0
   22.7068  -19.4811  -15.0953 O   0  0  0  0  0  0  0  0  0  0  0  0
   24.6020  -19.8001  -13.6453 C   0  0  2  0  0  0  0  0  0  0  0  0
   25.6061  -19.7596  -14.6642 N   0  0  0  0  0  0  0  0  0  0  0  0
   25.0574  -20.4928  -12.4135 C   0  0  0  0  0  0  0  0  0  0  0  0
   25.4821  -21.6759  -12.4617 O   0  0  0  0  0  0  0  0  0  0  0  0
   26.8680  -20.5856   -8.0280 O   0  0  0  0  0  0  0  0  0  0  0  0
   26.5117  -19.8780   -9.1733 C   0  0  0  0  0  0  0  0  0  0  0  0
   25.4608  -20.6270   -9.9654 C   0  0  2  0  0  0  0  0  0  0  0  0
   25.0437  -19.8807  -11.1348 N   0  0  0  0  0  0  0  0  0  0  0  0
   24.3097  -21.0143   -9.1108 C   0  0  0  0  0  0  0  0  0  0  0  0
   24.5075  -22.0313   -8.1888 O   0  0  0  0  0  0  0  0  0  0  0  0
   23.2255  -20.4259   -9.2457 O   0  0  0  0  0  0  0  0  0  0  0  0
  1  5  1  0
  2  1  1  0
  3  2  1  0
  3  4  1  0
  4  5  1  0
  5  6  1  1
  6  7  2  0
  9  8  1  1
  9 10  1  0
  9 11  1  0
 11 13  1  0
 12  6  1  0
 11 12  1  6
 13 14  2  0
 13 18  1  0
 17 16  1  1
 16 15  1  0
 17 19  1  0
 18 17  1  0
 19 21  2  0
 19 20  1  0
M  END
$$$$
