PTS.pdb
     RDKit          3D

 21 21  0  0  1  0  0  0  0  0999 V2000
   23.5522  -13.3396  -17.2088 N   0  0  0  0  0  0  0  0  0  0  0  0
   24.8589  -13.8134  -17.5793 C   0  0  0  0  0  0  0  0  0  0  0  0
   25.7899  -13.4567  -16.4421 C   0  0  0  0  0  0  0  0  0  0  0  0
   25.1749  -12.1753  -15.9228 C   0  0  0  0  0  0  0  0  0  0  0  0
   23.7023  -12.3126  -16.2321 C   0  0  1  0  0  0  0  0  0  0  0  0
   23.0950  -11.0218  -16.6554 C   0  0  0  0  0  0  0  0  0  0  0  0
   23.1554  -10.5862  -17.8210 O   0  0  0  0  0  0  0  0  0  0  0  0
   19.7063  -10.1729  -16.8561 C   0  0  0  0  0  0  0  0  0  0  0  0
   20.1959   -9.1473  -15.8632 C   0  0  1  0  0  0  0  0  0  0  0  0
   19.8269   -9.5208  -14.5763 O   0  0  0  0  0  0  0  0  0  0  0  0
   21.6928   -9.0307  -16.0166 C   0  0  2  0  0  0  0  0  0  0  0  0
   22.4076  -10.2298  -15.7021 N   0  0  0  0  0  0  0  0  0  0  0  0
   22.2375   -7.8356  -15.3239 C   0  0  0  0  0  0  0  0  0  0  0  0
   22.7401   -7.9328  -14.1749 O   0  0  0  0  0  0  0  0  0  0  0  0
   23.2691   -3.0799  -15.2482 O   0  0  0  0  0  0  0  0  0  0  0  0
   22.8077   -4.1614  -15.9945 C   0  0  0  0  0  0  0  0  0  0  0  0
   22.6808   -5.3984  -15.1304 C   0  0  2  0  0  0  0  0  0  0  0  0
   22.2267   -6.5396  -15.8985 N   0  0  0  0  0  0  0  0  0  0  0  0
   21.8231   -5.1472  -13.9444 C   0  0  0  0  0  0  0  0  0  0  0  0
   22.4425   -4.6998  -12.7868 O   0  0  0  0  0  0  0  0  0  0  0  0
   20.6002   -5.3417  -14.0245 O   0  0  0  0  0  0  0  0  0  0  0  0
  1  5  1  0
  2  1  1  0
  3  2  1  0
  3  4  1  0
  4  5  1  0
  5  6  1  6
  6  7  2  0
  9  8  1  6
  9 10  1  0
  9 11  1  0
 11 13  1  0
 12  6  1  0
 11 12  1  1
 13 14  2  0
 13 18  1  0
 17 16  1  6
 16 15  1  0
 17 19  1  0
 18 17  1  0
 19 21  2  0
 19 20  1  0
M  END
$$$$
