PTS.pdb
     RDKit          3D

 21 21  0  0  1  0  0  0  0  0999 V2000
   18.5170  -11.7421  -15.2149 N   0  0  0  0  0  0  0  0  0  0  0  0
   17.5795  -12.5751  -15.9196 C   0  0  0  0  0  0  0  0  0  0  0  0
   18.3783  -13.3776  -16.9221 C   0  0  0  0  0  0  0  0  0  0  0  0
   19.4992  -12.4217  -17.2681 C   0  0  0  0  0  0  0  0  0  0  0  0
   19.6832  -11.5903  -16.0200 C   0  0  1  0  0  0  0  0  0  0  0  0
   19.9858  -10.1674  -16.3330 C   0  0  0  0  0  0  0  0  0  0  0  0
   20.9235   -9.8134  -17.0730 O   0  0  0  0  0  0  0  0  0  0  0  0
   17.4810   -7.7507  -17.7487 C   0  0  0  0  0  0  0  0  0  0  0  0
   17.9777   -7.1082  -16.4768 C   0  0  1  0  0  0  0  0  0  0  0  0
   17.0248   -7.2450  -15.4742 O   0  0  0  0  0  0  0  0  0  0  0  0
   19.2894   -7.7582  -16.1100 C   0  0  2  0  0  0  0  0  0  0  0  0
   19.1804   -9.1447  -15.7728 N   0  0  0  0  0  0  0  0  0  0  0  0
   20.0410   -6.9751  -15.0968 C   0  0  0  0  0  0  0  0  0  0  0  0
   19.9031   -7.2134  -13.8693 O   0  0  0  0  0  0  0  0  0  0  0  0
   23.4976   -4.7736  -15.8518 O   0  0  0  0  0  0  0  0  0  0  0  0
   23.1430   -5.2662  -14.5984 C   0  0  0  0  0  0  0  0  0  0  0  0
   21.6430   -5.2081  -14.4002 C   0  0  2  0  0  0  0  0  0  0  0  0
   20.9407   -5.9341  -15.4386 N   0  0  0  0  0  0  0  0  0  0  0  0
   21.1649   -3.8075  -14.2779 C   0  0  0  0  0  0  0  0  0  0  0  0
   21.6264   -3.0627  -13.2027 O   0  0  0  0  0  0  0  0  0  0  0  0
   20.3811   -3.3547  -15.1267 O   0  0  0  0  0  0  0  0  0  0  0  0
  1  5  1  0
  2  1  1  0
  3  2  1  0
  3  4  1  0
  4  5  1  0
  5  6  1  6
  6  7  2  0
  9  8  1  6
  9 10  1  0
  9 11  1  0
 11 13  1  0
 12  6  1  0
 11 12  1  1
 13 14  2  0
 13 18  1  0
 17 16  1  6
 16 15  1  0
 17 19  1  0
 18 17  1  0
 19 21  2  0
 19 20  1  0
M  END
$$$$
