PTS.pdb
     RDKit          3D

 21 21  0  0  1  0  0  0  0  0999 V2000
   18.5409   -9.4662  -19.6498 N   0  0  0  0  0  0  0  0  0  0  0  0
   17.8252  -10.5371  -20.2904 C   0  0  0  0  0  0  0  0  0  0  0  0
   18.0737  -10.3994  -21.7758 C   0  0  0  0  0  0  0  0  0  0  0  0
   18.2126   -8.9008  -21.9334 C   0  0  0  0  0  0  0  0  0  0  0  0
   18.7607   -8.4322  -20.6057 C   0  0  1  0  0  0  0  0  0  0  0  0
   18.1791   -7.1280  -20.1874 C   0  0  0  0  0  0  0  0  0  0  0  0
   17.2971   -6.5322  -20.8349 O   0  0  0  0  0  0  0  0  0  0  0  0
   16.4419   -6.4742  -17.0049 C   0  0  0  0  0  0  0  0  0  0  0  0
   17.5911   -5.4962  -17.0036 C   0  0  1  0  0  0  0  0  0  0  0  0
   18.6016   -5.9546  -16.1667 O   0  0  0  0  0  0  0  0  0  0  0  0
   18.0611   -5.3306  -18.4282 C   0  0  2  0  0  0  0  0  0  0  0  0
   18.6354   -6.5124  -18.9951 N   0  0  0  0  0  0  0  0  0  0  0  0
   18.9196   -4.1315  -18.6013 C   0  0  0  0  0  0  0  0  0  0  0  0
   20.1734   -4.2324  -18.5900 O   0  0  0  0  0  0  0  0  0  0  0  0
   19.4398    0.6288  -19.4497 O   0  0  0  0  0  0  0  0  0  0  0  0
   18.5679   -0.4540  -19.3680 C   0  0  0  0  0  0  0  0  0  0  0  0
   19.2857   -1.6880  -18.8630 C   0  0  2  0  0  0  0  0  0  0  0  0
   18.3948   -2.8276  -18.7860 N   0  0  0  0  0  0  0  0  0  0  0  0
   19.9713   -1.4275  -17.5717 C   0  0  0  0  0  0  0  0  0  0  0  0
   21.3479   -1.2607  -17.5974 O   0  0  0  0  0  0  0  0  0  0  0  0
   19.3028   -1.3679  -16.5279 O   0  0  0  0  0  0  0  0  0  0  0  0
  1  5  1  0
  2  1  1  0
  3  2  1  0
  3  4  1  0
  4  5  1  0
  5  6  1  1
  6  7  2  0
  9  8  1  6
  9 10  1  0
  9 11  1  0
 11 13  1  0
 12  6  1  0
 11 12  1  1
 13 14  2  0
 13 18  1  0
 17 16  1  1
 16 15  1  0
 17 19  1  0
 18 17  1  0
 19 21  2  0
 19 20  1  0
M  END
$$$$
