PTS.pdb
     RDKit          3D

 21 21  0  0  1  0  0  0  0  0999 V2000
   27.1354  -20.1293  -15.7664 N   0  0  0  0  0  0  0  0  0  0  0  0
   28.3732  -19.3979  -15.8133 C   0  0  0  0  0  0  0  0  0  0  0  0
   28.4437  -18.5796  -14.5435 C   0  0  0  0  0  0  0  0  0  0  0  0
   26.9835  -18.2834  -14.2791 C   0  0  0  0  0  0  0  0  0  0  0  0
   26.2471  -19.4607  -14.8747 C   0  0  1  0  0  0  0  0  0  0  0  0
   24.9735  -19.0539  -15.5277 C   0  0  0  0  0  0  0  0  0  0  0  0
   24.9248  -18.4378  -16.6095 O   0  0  0  0  0  0  0  0  0  0  0  0
   23.1517  -19.9541  -17.6824 C   0  0  0  0  0  0  0  0  0  0  0  0
   22.0993  -20.0814  -16.6083 C   0  0  1  0  0  0  0  0  0  0  0  0
   22.0257  -21.3989  -16.1719 O   0  0  0  0  0  0  0  0  0  0  0  0
   22.4571  -19.1297  -15.4930 C   0  0  2  0  0  0  0  0  0  0  0  0
   23.7399  -19.3723  -14.9069 N   0  0  0  0  0  0  0  0  0  0  0  0
   21.3741  -19.0137  -14.4838 C   0  0  0  0  0  0  0  0  0  0  0  0
   21.4586  -19.6106  -13.3797 O   0  0  0  0  0  0  0  0  0  0  0  0
   18.8701  -15.8249  -14.0533 O   0  0  0  0  0  0  0  0  0  0  0  0
   18.2067  -17.0435  -13.9333 C   0  0  0  0  0  0  0  0  0  0  0  0
   19.1860  -18.1670  -13.6658 C   0  0  2  0  0  0  0  0  0  0  0  0
   20.2038  -18.2416  -14.6939 N   0  0  0  0  0  0  0  0  0  0  0  0
   18.4872  -19.4637  -13.4775 C   0  0  0  0  0  0  0  0  0  0  0  0
   17.8918  -19.7000  -12.2473 O   0  0  0  0  0  0  0  0  0  0  0  0
   18.4578  -20.2813  -14.4106 O   0  0  0  0  0  0  0  0  0  0  0  0
  1  5  1  0
  2  1  1  0
  3  2  1  0
  3  4  1  0
  4  5  1  0
  5  6  1  6
  6  7  2  0
  9  8  1  6
  9 10  1  0
  9 11  1  0
 11 13  1  0
 12  6  1  0
 11 12  1  1
 13 14  2  0
 13 18  1  0
 17 16  1  6
 16 15  1  0
 17 19  1  0
 18 17  1  0
 19 21  2  0
 19 20  1  0
M  END
$$$$
