PTS.pdb
     RDKit          3D

 21 21  0  0  1  0  0  0  0  0999 V2000
   18.6042  -14.8755  -17.6663 N   0  0  0  0  0  0  0  0  0  0  0  0
   17.3622  -15.4424  -17.2132 C   0  0  0  0  0  0  0  0  0  0  0  0
   16.2607  -14.5383  -17.7195 C   0  0  0  0  0  0  0  0  0  0  0  0
   16.9367  -13.1845  -17.7110 C   0  0  0  0  0  0  0  0  0  0  0  0
   18.3979  -13.4923  -17.9410 C   0  0  1  0  0  0  0  0  0  0  0  0
   19.2900  -12.6075  -17.1439 C   0  0  0  0  0  0  0  0  0  0  0  0
   19.5726  -12.8173  -15.9488 O   0  0  0  0  0  0  0  0  0  0  0  0
   22.7578  -11.6802  -18.2202 C   0  0  0  0  0  0  0  0  0  0  0  0
   22.0561  -10.3635  -17.9939 C   0  0  1  0  0  0  0  0  0  0  0  0
   21.7218   -9.7895  -19.2148 O   0  0  0  0  0  0  0  0  0  0  0  0
   20.8430  -10.6257  -17.1352 C   0  0  2  0  0  0  0  0  0  0  0  0
   19.8594  -11.4616  -17.7532 N   0  0  0  0  0  0  0  0  0  0  0  0
   20.2691   -9.3757  -16.5760 C   0  0  0  0  0  0  0  0  0  0  0  0
   19.2678   -8.8334  -17.1106 O   0  0  0  0  0  0  0  0  0  0  0  0
   19.6624   -8.1418  -12.8373 O   0  0  0  0  0  0  0  0  0  0  0  0
   20.4306   -7.2164  -13.5394 C   0  0  0  0  0  0  0  0  0  0  0  0
   20.2994   -7.4285  -15.0329 C   0  0  2  0  0  0  0  0  0  0  0  0
   20.7992   -8.7284  -15.4315 N   0  0  0  0  0  0  0  0  0  0  0  0
   20.9387   -6.3268  -15.7964 C   0  0  0  0  0  0  0  0  0  0  0  0
   20.3905   -5.0586  -15.6752 O   0  0  0  0  0  0  0  0  0  0  0  0
   21.9267   -6.5708  -16.5066 O   0  0  0  0  0  0  0  0  0  0  0  0
  1  5  1  0
  2  1  1  0
  3  2  1  0
  3  4  1  0
  4  5  1  0
  5  6  1  1
  6  7  2  0
  9  8  1  6
  9 10  1  0
  9 11  1  0
 11 13  1  0
 12  6  1  0
 11 12  1  6
 13 14  2  0
 13 18  1  0
 17 16  1  1
 16 15  1  0
 17 19  1  0
 18 17  1  0
 19 21  2  0
 19 20  1  0
M  END
$$$$
