MVG.pdb
     RDKit          3D

 20 19  0  0  1  0  0  0  0  0999 V2000
   25.9236  -21.4076   -4.2849 C   0  0  0  0  0  0  0  0  0  0  0  0
   27.5858  -20.7441   -4.0360 S   0  0  0  0  0  0  0  0  0  0  0  0
   28.2547  -20.0452   -5.5613 C   0  0  0  0  0  0  0  0  0  0  0  0
   27.1997  -19.9915   -6.6540 C   0  0  0  0  0  0  0  0  0  0  0  0
   27.7934  -19.5399   -7.9647 C   0  0  2  0  0  0  0  0  0  0  0  0
   28.4664  -18.2747   -7.7891 N   0  0  0  0  0  0  0  0  0  0  0  0
   26.7182  -19.3741   -9.0043 C   0  0  0  0  0  0  0  0  0  0  0  0
   25.9929  -18.3519   -9.0359 O   0  0  0  0  0  0  0  0  0  0  0  0
   27.6784  -20.2676  -12.5641 C   0  0  0  0  0  0  0  0  0  0  0  0
   26.3305  -20.8925  -12.2890 C   0  0  1  0  0  0  0  0  0  0  0  0
   26.3994  -22.4003  -12.2016 C   0  0  0  0  0  0  0  0  0  0  0  0
   25.6342  -20.2738  -11.1036 C   0  0  2  0  0  0  0  0  0  0  0  0
   26.5033  -20.3712   -9.9701 N   0  0  0  0  0  0  0  0  0  0  0  0
   24.2873  -20.8234  -10.8615 C   0  0  0  0  0  0  0  0  0  0  0  0
   24.1998  -21.8352  -10.1172 O   0  0  0  0  0  0  0  0  0  0  0  0
   23.1024  -20.2928  -11.4054 N   0  0  0  0  0  0  0  0  0  0  0  0
   21.8252  -20.8563  -11.0467 C   0  0  0  0  0  0  0  0  0  0  0  0
   21.3679  -21.7858  -12.1071 C   0  0  0  0  0  0  0  0  0  0  0  0
   22.1530  -22.2085  -12.9901 O   0  0  0  0  0  0  0  0  0  0  0  0
   20.0536  -22.2109  -12.1459 O   0  0  0  0  0  0  0  0  0  0  0  0
  2  1  1  0
  3  2  1  0
  4  5  1  0
  4  3  1  0
  5  6  1  1
  7  5  1  0
  8  7  2  0
 10  9  1  1
 10 11  1  0
 12 10  1  0
 12 13  1  1
 13  7  1  0
 14 16  1  0
 14 12  1  0
 15 14  2  0
 17 18  1  0
 17 16  1  0
 18 20  1  0
 19 18  2  0
M  END
$$$$
