MVG.pdb
     RDKit          3D

 20 19  0  0  1  0  0  0  0  0999 V2000
   27.9337  -18.3524   -6.4550 C   0  0  0  0  0  0  0  0  0  0  0  0
   27.1730  -19.9206   -5.9785 S   0  0  0  0  0  0  0  0  0  0  0  0
   27.1221  -21.0793   -7.3631 C   0  0  0  0  0  0  0  0  0  0  0  0
   26.7596  -20.3751   -8.6602 C   0  0  0  0  0  0  0  0  0  0  0  0
   26.7907  -21.3299   -9.8272 C   0  0  2  0  0  0  0  0  0  0  0  0
   28.1542  -21.7037  -10.1198 N   0  0  0  0  0  0  0  0  0  0  0  0
   26.1926  -20.6906  -11.0510 C   0  0  0  0  0  0  0  0  0  0  0  0
   26.7517  -19.7246  -11.6222 O   0  0  0  0  0  0  0  0  0  0  0  0
   26.0171  -21.8150  -14.2240 C   0  0  0  0  0  0  0  0  0  0  0  0
   24.5551  -21.6589  -13.8758 C   0  0  1  0  0  0  0  0  0  0  0  0
   23.8740  -22.9867  -13.6327 C   0  0  0  0  0  0  0  0  0  0  0  0
   24.3261  -20.6757  -12.7562 C   0  0  2  0  0  0  0  0  0  0  0  0
   24.9836  -21.1680  -11.5836 N   0  0  0  0  0  0  0  0  0  0  0  0
   22.9036  -20.3518  -12.5413 C   0  0  0  0  0  0  0  0  0  0  0  0
   22.3073  -20.9525  -11.6090 O   0  0  0  0  0  0  0  0  0  0  0  0
   22.1756  -19.4211  -13.3060 N   0  0  0  0  0  0  0  0  0  0  0  0
   20.8103  -19.1117  -12.9628 C   0  0  0  0  0  0  0  0  0  0  0  0
   19.9006  -20.1253  -13.5482 C   0  0  0  0  0  0  0  0  0  0  0  0
   18.6620  -20.0848  -13.3507 O   0  0  0  0  0  0  0  0  0  0  0  0
   20.4027  -21.1468  -14.3318 O   0  0  0  0  0  0  0  0  0  0  0  0
  2  1  1  0
  3  2  1  0
  4  5  1  0
  4  3  1  0
  5  6  1  6
  7  5  1  0
  8  7  2  0
 10  9  1  1
 10 11  1  0
 12 10  1  0
 12 13  1  1
 13  7  1  0
 14 16  1  0
 14 12  1  0
 15 14  2  0
 17 18  1  0
 17 16  1  0
 18 20  1  0
 19 18  2  0
M  END
$$$$
