MVG.pdb
     RDKit          3D

 20 19  0  0  1  0  0  0  0  0999 V2000
   19.0652  -19.7317  -16.9263 C   0  0  0  0  0  0  0  0  0  0  0  0
   20.1499  -18.3372  -17.3054 S   0  0  0  0  0  0  0  0  0  0  0  0
   21.7863  -18.5529  -16.5719 C   0  0  0  0  0  0  0  0  0  0  0  0
   21.7669  -19.6070  -15.4772 C   0  0  0  0  0  0  0  0  0  0  0  0
   23.0990  -19.6900  -14.7751 C   0  0  2  0  0  0  0  0  0  0  0  0
   24.1080  -20.1674  -15.6908 N   0  0  0  0  0  0  0  0  0  0  0  0
   23.0237  -20.6338  -13.6055 C   0  0  0  0  0  0  0  0  0  0  0  0
   23.3149  -21.8472  -13.7262 O   0  0  0  0  0  0  0  0  0  0  0  0
   23.1183  -21.0359   -8.7399 C   0  0  0  0  0  0  0  0  0  0  0  0
   23.3793  -20.4262  -10.0976 C   0  0  1  0  0  0  0  0  0  0  0  0
   24.8366  -20.5001  -10.4938 C   0  0  0  0  0  0  0  0  0  0  0  0
   22.4601  -20.9659  -11.1635 C   0  0  2  0  0  0  0  0  0  0  0  0
   22.6216  -20.1696  -12.3422 N   0  0  0  0  0  0  0  0  0  0  0  0
   21.0580  -21.0876  -10.7229 C   0  0  0  0  0  0  0  0  0  0  0  0
   20.3411  -20.0540  -10.7803 O   0  0  0  0  0  0  0  0  0  0  0  0
   20.4747  -22.2764  -10.2459 N   0  0  0  0  0  0  0  0  0  0  0  0
   19.1363  -22.2626   -9.7111 C   0  0  0  0  0  0  0  0  0  0  0  0
   18.1851  -22.7920  -10.7173 C   0  0  0  0  0  0  0  0  0  0  0  0
   18.5383  -23.0072  -11.9021 O   0  0  0  0  0  0  0  0  0  0  0  0
   16.8758  -23.0627  -10.3681 O   0  0  0  0  0  0  0  0  0  0  0  0
  2  1  1  0
  3  2  1  0
  4  5  1  0
  4  3  1  0
  5  6  1  6
  7  5  1  0
  8  7  2  0
 10  9  1  1
 10 11  1  0
 12 10  1  0
 12 13  1  6
 13  7  1  0
 14 16  1  0
 14 12  1  0
 15 14  2  0
 17 18  1  0
 17 16  1  0
 18 20  1  0
 19 18  2  0
M  END
$$$$
