MVG.pdb
     RDKit          3D

 20 19  0  0  1  0  0  0  0  0999 V2000
   27.2417  -26.2026  -15.4551 C   0  0  0  0  0  0  0  0  0  0  0  0
   27.5873  -26.1583  -17.2282 S   0  0  0  0  0  0  0  0  0  0  0  0
   28.0854  -24.5071  -17.7644 C   0  0  0  0  0  0  0  0  0  0  0  0
   27.8603  -23.4785  -16.6683 C   0  0  0  0  0  0  0  0  0  0  0  0
   28.3364  -22.1127  -17.0949 C   0  0  2  0  0  0  0  0  0  0  0  0
   29.7317  -22.1712  -17.4615 N   0  0  0  0  0  0  0  0  0  0  0  0
   28.1731  -21.1209  -15.9750 C   0  0  0  0  0  0  0  0  0  0  0  0
   29.1664  -20.6145  -15.4017 O   0  0  0  0  0  0  0  0  0  0  0  0
   26.0854  -17.1910  -16.3706 C   0  0  0  0  0  0  0  0  0  0  0  0
   26.7865  -18.5282  -16.4292 C   0  0  1  0  0  0  0  0  0  0  0  0
   28.2736  -18.3912  -16.6658 C   0  0  0  0  0  0  0  0  0  0  0  0
   26.4657  -19.4051  -15.2457 C   0  0  2  0  0  0  0  0  0  0  0  0
   26.8916  -20.7386  -15.5452 N   0  0  0  0  0  0  0  0  0  0  0  0
   25.0574  -19.3194  -14.8164 C   0  0  0  0  0  0  0  0  0  0  0  0
   24.6353  -18.1956  -14.4364 O   0  0  0  0  0  0  0  0  0  0  0  0
   24.1622  -20.4055  -14.8044 N   0  0  0  0  0  0  0  0  0  0  0  0
   22.8275  -20.2381  -14.2868 C   0  0  0  0  0  0  0  0  0  0  0  0
   21.8551  -20.1881  -15.4047 C   0  0  0  0  0  0  0  0  0  0  0  0
   22.2320  -20.2118  -16.6014 O   0  0  0  0  0  0  0  0  0  0  0  0
   20.4990  -20.1134  -15.1497 O   0  0  0  0  0  0  0  0  0  0  0  0
  2  1  1  0
  3  2  1  0
  4  5  1  0
  4  3  1  0
  5  6  1  1
  7  5  1  0
  8  7  2  0
 10  9  1  1
 10 11  1  0
 12 10  1  0
 12 13  1  6
 13  7  1  0
 14 16  1  0
 14 12  1  0
 15 14  2  0
 17 18  1  0
 17 16  1  0
 18 20  1  0
 19 18  2  0
M  END
$$$$
