MVG.pdb
     RDKit          3D

 20 19  0  0  1  0  0  0  0  0999 V2000
   28.3316  -17.8455   -4.9937 C   0  0  0  0  0  0  0  0  0  0  0  0
   28.5235  -19.5597   -4.4557 S   0  0  0  0  0  0  0  0  0  0  0  0
   28.1373  -20.7183   -5.7865 C   0  0  0  0  0  0  0  0  0  0  0  0
   27.4084  -20.0271   -6.9270 C   0  0  0  0  0  0  0  0  0  0  0  0
   27.1598  -20.9771   -8.0716 C   0  0  2  0  0  0  0  0  0  0  0  0
   28.4174  -21.4025   -8.6389 N   0  0  0  0  0  0  0  0  0  0  0  0
   26.3468  -20.3093   -9.1474 C   0  0  0  0  0  0  0  0  0  0  0  0
   26.5484  -19.1150   -9.4715 O   0  0  0  0  0  0  0  0  0  0  0  0
   24.6294  -21.1480  -13.4934 C   0  0  0  0  0  0  0  0  0  0  0  0
   25.2605  -21.4623  -12.1570 C   0  0  1  0  0  0  0  0  0  0  0  0
   26.7711  -21.4252  -12.2082 C   0  0  0  0  0  0  0  0  0  0  0  0
   24.6972  -20.6252  -11.0370 C   0  0  2  0  0  0  0  0  0  0  0  0
   25.3354  -21.0176   -9.8171 N   0  0  0  0  0  0  0  0  0  0  0  0
   23.2244  -20.6535  -10.9665 C   0  0  0  0  0  0  0  0  0  0  0  0
   22.6892  -21.6646  -10.4404 O   0  0  0  0  0  0  0  0  0  0  0  0
   22.3855  -19.6302  -11.4462 N   0  0  0  0  0  0  0  0  0  0  0  0
   20.9613  -19.7035  -11.2368 C   0  0  0  0  0  0  0  0  0  0  0  0
   20.2924  -20.1701  -12.4746 C   0  0  0  0  0  0  0  0  0  0  0  0
   20.9513  -20.5988  -13.4528 O   0  0  0  0  0  0  0  0  0  0  0  0
   18.9147  -20.1425  -12.5785 O   0  0  0  0  0  0  0  0  0  0  0  0
  2  1  1  0
  3  2  1  0
  4  5  1  0
  4  3  1  0
  5  6  1  6
  7  5  1  0
  8  7  2  0
 10  9  1  6
 10 11  1  0
 12 10  1  0
 12 13  1  1
 13  7  1  0
 14 16  1  0
 14 12  1  0
 15 14  2  0
 17 18  1  0
 17 16  1  0
 18 20  1  0
 19 18  2  0
M  END
$$$$
