MVG.pdb
     RDKit          3D

 20 19  0  0  1  0  0  0  0  0999 V2000
   21.9898  -16.0116  -21.9360 C   0  0  0  0  0  0  0  0  0  0  0  0
   20.3542  -16.3104  -21.2283 S   0  0  0  0  0  0  0  0  0  0  0  0
   20.2369  -15.6757  -19.5414 C   0  0  0  0  0  0  0  0  0  0  0  0
   20.3507  -14.1604  -19.5117 C   0  0  0  0  0  0  0  0  0  0  0  0
   20.6160  -13.6599  -18.1140 C   0  0  2  0  0  0  0  0  0  0  0  0
   19.5412  -14.0595  -17.2369 N   0  0  0  0  0  0  0  0  0  0  0  0
   20.7179  -12.1586  -18.0992 C   0  0  0  0  0  0  0  0  0  0  0  0
   21.5702  -11.5554  -18.7931 O   0  0  0  0  0  0  0  0  0  0  0  0
   18.2136   -8.0291  -17.3874 C   0  0  0  0  0  0  0  0  0  0  0  0
   18.3979   -9.5215  -17.5349 C   0  0  1  0  0  0  0  0  0  0  0  0
   17.8988  -10.0367  -18.8660 C   0  0  0  0  0  0  0  0  0  0  0  0
   19.8062   -9.9659  -17.2319 C   0  0  2  0  0  0  0  0  0  0  0  0
   19.8513  -11.3952  -17.2996 N   0  0  0  0  0  0  0  0  0  0  0  0
   20.3351   -9.4194  -15.9684 C   0  0  0  0  0  0  0  0  0  0  0  0
   19.7718   -9.7789  -14.9012 O   0  0  0  0  0  0  0  0  0  0  0  0
   21.4211   -8.5284  -15.8803 N   0  0  0  0  0  0  0  0  0  0  0  0
   21.8690   -8.0576  -14.5937 C   0  0  0  0  0  0  0  0  0  0  0  0
   21.0947   -6.8571  -14.1978 C   0  0  0  0  0  0  0  0  0  0  0  0
   20.2246   -6.3610  -14.9538 O   0  0  0  0  0  0  0  0  0  0  0  0
   21.3171   -6.2528  -12.9752 O   0  0  0  0  0  0  0  0  0  0  0  0
  2  1  1  0
  3  2  1  0
  4  5  1  0
  4  3  1  0
  5  6  1  1
  7  5  1  0
  8  7  2  0
 10  9  1  6
 10 11  1  0
 12 10  1  0
 12 13  1  1
 13  7  1  0
 14 16  1  0
 14 12  1  0
 15 14  2  0
 17 18  1  0
 17 16  1  0
 18 20  1  0
 19 18  2  0
M  END
$$$$
