MVG.pdb
     RDKit          3D

 20 19  0  0  1  0  0  0  0  0999 V2000
   27.9529  -18.1382   -5.4679 C   0  0  0  0  0  0  0  0  0  0  0  0
   28.3118  -19.8544   -5.0308 S   0  0  0  0  0  0  0  0  0  0  0  0
   28.1003  -20.9561   -6.4465 C   0  0  0  0  0  0  0  0  0  0  0  0
   27.3868  -20.2551   -7.5908 C   0  0  0  0  0  0  0  0  0  0  0  0
   27.2717  -21.1548   -8.7956 C   0  0  2  0  0  0  0  0  0  0  0  0
   28.5878  -21.5145   -9.2676 N   0  0  0  0  0  0  0  0  0  0  0  0
   26.5338  -20.4595   -9.9076 C   0  0  0  0  0  0  0  0  0  0  0  0
   27.0777  -19.5577  -10.5879 O   0  0  0  0  0  0  0  0  0  0  0  0
   24.4715  -20.8439  -13.8811 C   0  0  0  0  0  0  0  0  0  0  0  0
   25.1828  -21.1036  -12.5735 C   0  0  1  0  0  0  0  0  0  0  0  0
   26.6551  -20.7659  -12.6395 C   0  0  0  0  0  0  0  0  0  0  0  0
   24.4920  -20.4601  -11.3983 C   0  0  2  0  0  0  0  0  0  0  0  0
   25.2074  -20.8104  -10.2088 N   0  0  0  0  0  0  0  0  0  0  0  0
   23.0500  -20.7611  -11.3281 C   0  0  0  0  0  0  0  0  0  0  0  0
   22.7162  -21.9028  -10.9153 O   0  0  0  0  0  0  0  0  0  0  0  0
   22.0310  -19.8602  -11.6906 N   0  0  0  0  0  0  0  0  0  0  0  0
   20.6571  -20.1531  -11.3683 C   0  0  0  0  0  0  0  0  0  0  0  0
   20.0281  -20.9081  -12.4782 C   0  0  0  0  0  0  0  0  0  0  0  0
   20.6862  -21.2561  -13.4885 O   0  0  0  0  0  0  0  0  0  0  0  0
   18.6899  -21.2483  -12.4230 O   0  0  0  0  0  0  0  0  0  0  0  0
  2  1  1  0
  3  2  1  0
  4  5  1  0
  4  3  1  0
  5  6  1  6
  7  5  1  0
  8  7  2  0
 10  9  1  6
 10 11  1  0
 12 10  1  0
 12 13  1  1
 13  7  1  0
 14 16  1  0
 14 12  1  0
 15 14  2  0
 17 18  1  0
 17 16  1  0
 18 20  1  0
 19 18  2  0
M  END
$$$$
