MVG.pdb
     RDKit          3D

 20 19  0  0  1  0  0  0  0  0999 V2000
   27.1695  -19.4691   -3.6286 C   0  0  0  0  0  0  0  0  0  0  0  0
   28.5083  -18.9821   -4.7402 S   0  0  0  0  0  0  0  0  0  0  0  0
   28.5329  -19.9997   -6.2322 C   0  0  0  0  0  0  0  0  0  0  0  0
   27.1795  -19.9997   -6.9238 C   0  0  0  0  0  0  0  0  0  0  0  0
   27.2034  -20.8474   -8.1709 C   0  0  2  0  0  0  0  0  0  0  0  0
   28.5587  -20.9756   -8.6518 N   0  0  0  0  0  0  0  0  0  0  0  0
   26.3647  -20.2223   -9.2527 C   0  0  0  0  0  0  0  0  0  0  0  0
   26.4470  -18.9997   -9.5178 O   0  0  0  0  0  0  0  0  0  0  0  0
   24.7169  -21.0845  -13.6642 C   0  0  0  0  0  0  0  0  0  0  0  0
   25.3854  -21.3921  -12.3445 C   0  0  1  0  0  0  0  0  0  0  0  0
   26.8910  -21.2748  -12.4182 C   0  0  0  0  0  0  0  0  0  0  0  0
   24.7977  -20.6085  -11.1986 C   0  0  2  0  0  0  0  0  0  0  0  0
   25.4638  -21.0039   -9.9947 N   0  0  0  0  0  0  0  0  0  0  0  0
   23.3282  -20.7017  -11.1163 C   0  0  0  0  0  0  0  0  0  0  0  0
   22.8440  -21.6928  -10.5091 O   0  0  0  0  0  0  0  0  0  0  0  0
   22.4395  -19.7605  -11.6689 N   0  0  0  0  0  0  0  0  0  0  0  0
   21.0176  -19.9158  -11.4912 C   0  0  0  0  0  0  0  0  0  0  0  0
   20.4830  -20.8611  -12.5003 C   0  0  0  0  0  0  0  0  0  0  0  0
   21.2339  -21.4194  -13.3365 O   0  0  0  0  0  0  0  0  0  0  0  0
   19.1324  -21.1505  -12.5416 O   0  0  0  0  0  0  0  0  0  0  0  0
  2  1  1  0
  3  2  1  0
  4  5  1  0
  4  3  1  0
  5  6  1  6
  7  5  1  0
  8  7  2  0
 10  9  1  6
 10 11  1  0
 12 10  1  0
 12 13  1  1
 13  7  1  0
 14 16  1  0
 14 12  1  0
 15 14  2  0
 17 18  1  0
 17 16  1  0
 18 20  1  0
 19 18  2  0
M  END
$$$$
