MVG.pdb
     RDKit          3D

 20 19  0  0  1  0  0  0  0  0999 V2000
   29.3059  -18.8198   -5.3379 C   0  0  0  0  0  0  0  0  0  0  0  0
   28.1939  -20.0561   -4.6308 S   0  0  0  0  0  0  0  0  0  0  0  0
   26.7090  -20.2639   -5.6379 C   0  0  0  0  0  0  0  0  0  0  0  0
   26.9282  -19.7630   -7.0560 C   0  0  0  0  0  0  0  0  0  0  0  0
   25.7032  -19.9815   -7.9079 C   0  0  2  0  0  0  0  0  0  0  0  0
   25.3097  -21.3697   -7.8557 N   0  0  0  0  0  0  0  0  0  0  0  0
   25.9809  -19.6124   -9.3400 C   0  0  0  0  0  0  0  0  0  0  0  0
   26.4116  -18.4764   -9.6495 O   0  0  0  0  0  0  0  0  0  0  0  0
   26.9930  -21.3435  -13.8133 C   0  0  0  0  0  0  0  0  0  0  0  0
   26.8137  -21.4279  -12.3154 C   0  0  1  0  0  0  0  0  0  0  0  0
   28.1292  -21.5641  -11.5826 C   0  0  0  0  0  0  0  0  0  0  0  0
   25.9577  -20.3139  -11.7688 C   0  0  2  0  0  0  0  0  0  0  0  0
   25.7611  -20.5427  -10.3693 N   0  0  0  0  0  0  0  0  0  0  0  0
   24.7011  -20.1187  -12.5156 C   0  0  0  0  0  0  0  0  0  0  0  0
   24.7823  -19.6006  -13.6603 O   0  0  0  0  0  0  0  0  0  0  0  0
   23.4267  -20.4719  -12.0338 N   0  0  0  0  0  0  0  0  0  0  0  0
   22.2548  -20.2222  -12.8349 C   0  0  0  0  0  0  0  0  0  0  0  0
   21.5655  -21.5003  -13.1332 C   0  0  0  0  0  0  0  0  0  0  0  0
   22.2064  -22.5294  -13.4573 O   0  0  0  0  0  0  0  0  0  0  0  0
   20.1883  -21.5863  -13.0597 O   0  0  0  0  0  0  0  0  0  0  0  0
  2  1  1  0
  3  2  1  0
  4  5  1  0
  4  3  1  0
  5  6  1  6
  7  5  1  0
  8  7  2  0
 10  9  1  6
 10 11  1  0
 12 10  1  0
 12 13  1  1
 13  7  1  0
 14 16  1  0
 14 12  1  0
 15 14  2  0
 17 18  1  0
 17 16  1  0
 18 20  1  0
 19 18  2  0
M  END
$$$$
