RRW.pdb
     RDKit          3D

 37 38  0  0  1  0  0  0  0  0999 V2000
   23.1709  -16.9615  -20.2565 N   0  0  0  0  0  0  0  0  0  0  0  0
   22.8288  -18.3584  -20.1079 C   0  0  0  0  0  0  0  0  0  0  0  0
   21.7342  -18.8183  -20.5899 N   0  0  0  0  0  0  0  0  0  0  0  0
   23.7118  -19.2311  -19.4222 N   0  0  0  0  0  0  0  0  0  0  0  0
   24.6577  -18.7459  -18.4492 C   0  0  0  0  0  0  0  0  0  0  0  0
   25.5501  -19.8709  -17.9712 C   0  0  0  0  0  0  0  0  0  0  0  0
   24.9272  -20.6312  -16.8362 C   0  0  0  0  0  0  0  0  0  0  0  0
   25.1668  -19.9886  -15.5132 C   0  0  2  0  0  0  0  0  0  0  0  0
   26.0546  -18.8395  -15.6980 N   0  0  0  0  0  0  0  0  0  0  0  0
   25.7379  -20.8894  -14.4822 C   0  0  0  0  0  0  0  0  0  0  0  0
   25.1422  -21.9127  -14.0833 O   0  0  0  0  0  0  0  0  0  0  0  0
   21.4992  -19.8225  -20.5182 N   0  0  0  0  0  0  0  0  0  0  0  0
   33.9612  -22.6693  -11.7000 C   0  0  0  0  0  0  0  0  0  0  0  0
   33.1198  -23.0801  -12.7681 N   0  0  0  0  0  0  0  0  0  0  0  0
   33.6837  -23.6643  -13.7857 N   0  0  0  0  0  0  0  0  0  0  0  0
   31.7172  -22.8661  -12.7449 C   0  0  0  0  0  0  0  0  0  0  0  0
   31.0677  -22.3625  -11.5633 C   0  0  0  0  0  0  0  0  0  0  0  0
   29.5905  -22.2462  -11.6617 C   0  0  0  0  0  0  0  0  0  0  0  0
   29.0731  -21.4117  -12.7864 C   0  0  1  0  0  0  0  0  0  0  0  0
   27.5358  -21.4429  -12.8069 N   0  0  0  0  0  0  0  0  0  0  0  0
   27.0093  -20.6400  -13.8810 C   0  0  0  0  0  0  0  0  0  0  0  0
   26.9876  -21.0350  -11.4888 O   0  0  0  0  0  0  0  0  0  0  0  0
   26.2489  -20.0112  -11.3625 N   0  0  0  0  0  0  0  0  0  0  0  0
   33.1186  -23.9925  -14.5844 C   0  0  2  0  0  0  0  0  0  0  0  0
   27.2442  -21.7493  -10.2832 C   0  0  0  0  0  0  0  0  0  0  0  0
   26.7431  -21.2970   -9.0011 C   0  0  0  0  0  0  0  0  0  0  0  0
   27.8705  -20.8979   -8.0728 C   0  0  0  0  0  0  0  0  0  0  0  0
   27.3070  -20.4157   -6.7873 N   0  0  0  0  0  0  0  0  0  0  0  0
   25.9949  -20.5191   -6.3241 C   0  0  0  0  0  0  0  0  0  0  0  0
   25.9105  -19.9485   -5.1052 C   0  0  0  0  0  0  0  0  0  0  0  0
   27.1043  -19.4664   -4.7275 C   0  0  0  0  0  0  0  0  0  0  0  0
   27.5412  -18.8089   -3.5992 C   0  0  0  0  0  0  0  0  0  0  0  0
   28.8657  -18.4447   -3.5333 C   0  0  0  0  0  0  0  0  0  0  0  0
   29.7469  -18.7233   -4.5612 C   0  0  0  0  0  0  0  0  0  0  0  0
   29.2844  -19.3812   -5.6771 C   0  0  0  0  0  0  0  0  0  0  0  0
   27.9802  -19.7577   -5.7791 O   0  0  0  0  0  0  0  0  0  0  0  0
   25.8582  -20.1443   -9.2295 O   0  0  0  0  0  0  0  0  0  0  0  0
  2  3  2  0
  2  1  1  0
  4  2  1  0
  5  4  1  0
  6  5  1  0
  7  6  1  0
  8 10  1  0
  8  7  1  0
  8  9  1  6
 10 20  1  0
 10 11  2  0
 12 13  1  0
 13 14  2  0
 15 13  1  0
 16 15  1  0
 17 16  1  0
 18 17  1  0
 19 18  1  6
 19 21  1  0
 20 19  1  0
 21 23  1  0
 21 22  2  0
 23 24  1  0
 24 35  1  0
 24 25  1  6
 26 25  1  0
 27 26  2  0
 28 29  1  0
 28 27  1  0
 29 34  2  0
 30 29  1  0
 30 31  2  0
 31 32  1  0
 32 33  2  0
 34 26  1  0
 34 33  1  0
 35 37  1  0
 36 35  2  0
M  END
$$$$
