RRW.pdb
     RDKit          3D

 37 38  0  0  1  0  0  0  0  0999 V2000
   18.4957  -19.7727  -19.0438 N   0  0  0  0  0  0  0  0  0  0  0  0
   19.5960  -20.0704  -19.9335 C   0  0  0  0  0  0  0  0  0  0  0  0
   19.7150  -19.4590  -21.0532 N   0  0  0  0  0  0  0  0  0  0  0  0
   20.5549  -21.0485  -19.5656 N   0  0  0  0  0  0  0  0  0  0  0  0
   20.5189  -21.7045  -18.2829 C   0  0  0  0  0  0  0  0  0  0  0  0
   20.4825  -20.6834  -17.1665 C   0  0  0  0  0  0  0  0  0  0  0  0
   21.2398  -21.1530  -15.9581 C   0  0  0  0  0  0  0  0  0  0  0  0
   22.4421  -20.3199  -15.6730 C   0  0  2  0  0  0  0  0  0  0  0  0
   22.9996  -19.8429  -16.9396 N   0  0  0  0  0  0  0  0  0  0  0  0
   23.5029  -21.0093  -14.8984 C   0  0  0  0  0  0  0  0  0  0  0  0
   23.2647  -21.6224  -13.8361 O   0  0  0  0  0  0  0  0  0  0  0  0
   20.4830  -19.6862  -21.7068 N   0  0  0  0  0  0  0  0  0  0  0  0
   27.8171  -25.4934  -17.0357 C   0  0  0  0  0  0  0  0  0  0  0  0
   29.0377  -24.7894  -16.8562 N   0  0  0  0  0  0  0  0  0  0  0  0
   30.0752  -25.4754  -16.4721 N   0  0  0  0  0  0  0  0  0  0  0  0
   29.1388  -23.3916  -17.0787 C   0  0  0  0  0  0  0  0  0  0  0  0
   28.0047  -22.6345  -17.5394 C   0  0  0  0  0  0  0  0  0  0  0  0
   26.9001  -22.4994  -16.5560 C   0  0  0  0  0  0  0  0  0  0  0  0
   27.2192  -21.7344  -15.3143 C   0  0  2  0  0  0  0  0  0  0  0  0
   25.9406  -21.4980  -14.4933 N   0  0  0  0  0  0  0  0  0  0  0  0
   24.8668  -21.0137  -15.3226 C   0  0  0  0  0  0  0  0  0  0  0  0
   26.2137  -20.5886  -13.3519 O   0  0  0  0  0  0  0  0  0  0  0  0
   26.1719  -19.3270  -13.4804 N   0  0  0  0  0  0  0  0  0  0  0  0
   30.9565  -25.0013  -16.2201 C   0  0  1  0  0  0  0  0  0  0  0  0
   26.5388  -21.0539  -12.0452 C   0  0  0  0  0  0  0  0  0  0  0  0
   26.8228  -20.1435  -10.9543 C   0  0  0  0  0  0  0  0  0  0  0  0
   25.6471  -19.2332  -10.6692 C   0  0  0  0  0  0  0  0  0  0  0  0
   24.5340  -20.0272  -10.0920 N   0  0  0  0  0  0  0  0  0  0  0  0
   24.4886  -20.6898   -8.8649 C   0  0  0  0  0  0  0  0  0  0  0  0
   23.2888  -21.2907   -8.7315 C   0  0  0  0  0  0  0  0  0  0  0  0
   22.5257  -21.0630   -9.8114 C   0  0  0  0  0  0  0  0  0  0  0  0
   21.2499  -21.4449  -10.1616 C   0  0  0  0  0  0  0  0  0  0  0  0
   20.7586  -21.0270  -11.3762 C   0  0  0  0  0  0  0  0  0  0  0  0
   21.5107  -20.2455  -12.2330 C   0  0  0  0  0  0  0  0  0  0  0  0
   22.7823  -19.8781  -11.8588 C   0  0  0  0  0  0  0  0  0  0  0  0
   23.3033  -20.2722  -10.6646 O   0  0  0  0  0  0  0  0  0  0  0  0
   27.1356  -20.9381   -9.7566 O   0  0  0  0  0  0  0  0  0  0  0  0
  2  3  2  0
  2  1  1  0
  4  2  1  0
  5  4  1  0
  6  5  1  0
  7  6  1  0
  8 10  1  0
  8  7  1  0
  8  9  1  6
 10 20  1  0
 10 11  2  0
 12 13  1  0
 13 14  2  0
 15 13  1  0
 16 15  1  0
 17 16  1  0
 18 17  1  0
 19 18  1  6
 19 21  1  0
 20 19  1  0
 21 23  1  0
 21 22  2  0
 23 24  1  0
 24 35  1  0
 24 25  1  1
 26 25  1  0
 27 26  2  0
 28 29  1  0
 28 27  1  0
 29 34  2  0
 30 29  1  0
 30 31  2  0
 31 32  1  0
 32 33  2  0
 34 26  1  0
 34 33  1  0
 35 37  1  0
 36 35  2  0
M  END
$$$$
