RRW.pdb
     RDKit          3D

 37 38  0  0  1  0  0  0  0  0999 V2000
   31.1371  -16.7222  -18.6646 N   0  0  0  0  0  0  0  0  0  0  0  0
   30.1364  -17.6396  -19.1623 C   0  0  0  0  0  0  0  0  0  0  0  0
   30.2278  -18.1293  -20.3428 N   0  0  0  0  0  0  0  0  0  0  0  0
   29.0414  -18.0031  -18.3375 N   0  0  0  0  0  0  0  0  0  0  0  0
   28.8952  -17.4919  -16.9980 C   0  0  0  0  0  0  0  0  0  0  0  0
   29.7277  -18.3020  -16.0280 C   0  0  0  0  0  0  0  0  0  0  0  0
   28.9149  -18.7753  -14.8577 C   0  0  0  0  0  0  0  0  0  0  0  0
   27.5352  -19.1855  -15.2436 C   0  0  2  0  0  0  0  0  0  0  0  0
   27.0892  -18.3545  -16.3631 N   0  0  0  0  0  0  0  0  0  0  0  0
   26.5380  -19.1095  -14.1481 C   0  0  0  0  0  0  0  0  0  0  0  0
   26.2822  -18.0436  -13.5486 O   0  0  0  0  0  0  0  0  0  0  0  0
   29.5202  -18.7914  -20.7027 N   0  0  0  0  0  0  0  0  0  0  0  0
   19.4467  -21.2153  -14.0050 C   0  0  0  0  0  0  0  0  0  0  0  0
   19.9366  -22.2330  -13.1435 N   0  0  0  0  0  0  0  0  0  0  0  0
   19.4501  -23.4312  -13.2927 N   0  0  0  0  0  0  0  0  0  0  0  0
   20.9153  -21.9700  -12.1504 C   0  0  0  0  0  0  0  0  0  0  0  0
   21.3315  -20.6222  -11.8640 C   0  0  0  0  0  0  0  0  0  0  0  0
   22.4151  -20.1023  -12.7362 C   0  0  0  0  0  0  0  0  0  0  0  0
   23.6009  -20.9929  -12.9083 C   0  0  2  0  0  0  0  0  0  0  0  0
   24.8940  -20.2213  -12.5967 N   0  0  0  0  0  0  0  0  0  0  0  0
   25.8067  -20.2559  -13.7108 C   0  0  0  0  0  0  0  0  0  0  0  0
   25.5194  -20.7318  -11.3507 O   0  0  0  0  0  0  0  0  0  0  0  0
   26.3836  -21.6605  -11.3712 N   0  0  0  0  0  0  0  0  0  0  0  0
   19.7343  -24.1974  -12.6626 C   0  0  2  0  0  0  0  0  0  0  0  0
   25.2030  -20.2273  -10.0565 C   0  0  0  0  0  0  0  0  0  0  0  0
   25.7254  -20.8318   -8.8477 C   0  0  0  0  0  0  0  0  0  0  0  0
   26.7934  -19.9681   -8.2108 C   0  0  0  0  0  0  0  0  0  0  0  0
   27.2144  -20.5706   -6.9215 N   0  0  0  0  0  0  0  0  0  0  0  0
   27.0572  -21.8879   -6.4891 C   0  0  0  0  0  0  0  0  0  0  0  0
   27.5812  -22.0126   -5.2529 C   0  0  0  0  0  0  0  0  0  0  0  0
   28.0831  -20.8409   -4.8341 C   0  0  0  0  0  0  0  0  0  0  0  0
   28.7112  -20.4450   -3.6743 C   0  0  0  0  0  0  0  0  0  0  0  0
   29.1091  -19.1329   -3.5681 C   0  0  0  0  0  0  0  0  0  0  0  0
   28.8927  -18.2242   -4.5870 C   0  0  0  0  0  0  0  0  0  0  0  0
   28.2630  -18.6458   -5.7349 C   0  0  0  0  0  0  0  0  0  0  0  0
   27.8545  -19.9365   -5.8771 O   0  0  0  0  0  0  0  0  0  0  0  0
   24.6123  -21.0191   -7.9045 O   0  0  0  0  0  0  0  0  0  0  0  0
  2  3  2  0
  2  1  1  0
  4  2  1  0
  5  4  1  0
  6  5  1  0
  7  6  1  0
  8 10  1  0
  8  7  1  0
  8  9  1  6
 10 20  1  0
 10 11  2  0
 12 13  1  0
 13 14  2  0
 15 13  1  0
 16 15  1  0
 17 16  1  0
 18 17  1  0
 19 18  1  6
 19 21  1  0
 20 19  1  0
 21 23  1  0
 21 22  2  0
 23 24  1  0
 24 35  1  0
 24 25  1  1
 26 25  1  0
 27 26  2  0
 28 29  1  0
 28 27  1  0
 29 34  2  0
 30 29  1  0
 30 31  2  0
 31 32  1  0
 32 33  2  0
 34 26  1  0
 34 33  1  0
 35 37  1  0
 36 35  2  0
M  END
$$$$
