RRW.pdb
     RDKit          3D

 37 38  0  0  1  0  0  0  0  0999 V2000
   29.0209  -27.3159  -15.6272 N   0  0  0  0  0  0  0  0  0  0  0  0
   28.5981  -28.1480  -16.7315 C   0  0  0  0  0  0  0  0  0  0  0  0
   28.5648  -29.4234  -16.6137 N   0  0  0  0  0  0  0  0  0  0  0  0
   28.2154  -27.5490  -17.9589 N   0  0  0  0  0  0  0  0  0  0  0  0
   27.8475  -26.1583  -18.0446 C   0  0  0  0  0  0  0  0  0  0  0  0
   26.3569  -25.9913  -17.8433 C   0  0  0  0  0  0  0  0  0  0  0  0
   25.7569  -25.0712  -18.8669 C   0  0  0  0  0  0  0  0  0  0  0  0
   25.0416  -25.8035  -19.9498 C   0  0  2  0  0  0  0  0  0  0  0  0
   25.4246  -25.2318  -21.2418 N   0  0  0  0  0  0  0  0  0  0  0  0
   23.5631  -25.7970  -19.8290 C   0  0  0  0  0  0  0  0  0  0  0  0
   22.8705  -24.8052  -20.1416 O   0  0  0  0  0  0  0  0  0  0  0  0
   28.2624  -30.0246  -17.3985 N   0  0  0  0  0  0  0  0  0  0  0  0
   17.1097  -29.1186  -16.3310 C   0  0  0  0  0  0  0  0  0  0  0  0
   16.5602  -29.0264  -17.6377 N   0  0  0  0  0  0  0  0  0  0  0  0
   15.3980  -28.4531  -17.7608 N   0  0  0  0  0  0  0  0  0  0  0  0
   17.2368  -29.5377  -18.7753 C   0  0  0  0  0  0  0  0  0  0  0  0
   18.6741  -29.6060  -18.8093 C   0  0  0  0  0  0  0  0  0  0  0  0
   19.3624  -28.2919  -18.8784 C   0  0  0  0  0  0  0  0  0  0  0  0
   20.8475  -28.3378  -19.0248 C   0  0  2  0  0  0  0  0  0  0  0  0
   21.4145  -26.9125  -19.1330 N   0  0  0  0  0  0  0  0  0  0  0  0
   22.8392  -26.9296  -19.3460 C   0  0  0  0  0  0  0  0  0  0  0  0
   21.0411  -26.1101  -17.9409 O   0  0  0  0  0  0  0  0  0  0  0  0
   21.5958  -26.2928  -16.8145 N   0  0  0  0  0  0  0  0  0  0  0  0
   14.9468  -28.3700  -18.6851 C   0  0  1  0  0  0  0  0  0  0  0  0
   20.0474  -25.0897  -17.9683 C   0  0  0  0  0  0  0  0  0  0  0  0
   19.7444  -24.2813  -16.8046 C   0  0  0  0  0  0  0  0  0  0  0  0
   19.8823  -22.8034  -17.1029 C   0  0  0  0  0  0  0  0  0  0  0  0
   18.9059  -22.4161  -18.1514 N   0  0  0  0  0  0  0  0  0  0  0  0
   17.5513  -22.1160  -18.0044 C   0  0  0  0  0  0  0  0  0  0  0  0
   17.0321  -21.8146  -19.2120 C   0  0  0  0  0  0  0  0  0  0  0  0
   17.9743  -21.8982  -20.1635 C   0  0  0  0  0  0  0  0  0  0  0  0
   17.9594  -21.6944  -21.5253 C   0  0  0  0  0  0  0  0  0  0  0  0
   19.1330  -21.8714  -22.2200 C   0  0  0  0  0  0  0  0  0  0  0  0
   20.3032  -22.2430  -21.5850 C   0  0  0  0  0  0  0  0  0  0  0  0
   20.2905  -22.4402  -20.2238 C   0  0  0  0  0  0  0  0  0  0  0  0
   19.1484  -22.2748  -19.5018 O   0  0  0  0  0  0  0  0  0  0  0  0
   18.3662  -24.5747  -16.3822 O   0  0  0  0  0  0  0  0  0  0  0  0
  2  3  2  0
  2  1  1  0
  4  2  1  0
  5  4  1  0
  6  5  1  0
  7  6  1  0
  8 10  1  0
  8  7  1  0
  8  9  1  6
 10 20  1  0
 10 11  2  0
 12 13  1  0
 13 14  2  0
 15 13  1  0
 16 15  1  0
 17 16  1  0
 18 17  1  0
 19 18  1  6
 19 21  1  0
 20 19  1  0
 21 23  1  0
 21 22  2  0
 23 24  1  0
 24 35  1  0
 24 25  1  1
 26 25  1  0
 27 26  2  0
 28 29  1  0
 28 27  1  0
 29 34  2  0
 30 29  1  0
 30 31  2  0
 31 32  1  0
 32 33  2  0
 34 26  1  0
 34 33  1  0
 35 37  1  0
 36 35  2  0
M  END
$$$$
