RRW.pdb
     RDKit          3D

 37 38  0  0  1  0  0  0  0  0999 V2000
   31.9585  -25.0429  -19.8350 N   0  0  0  0  0  0  0  0  0  0  0  0
   31.3848  -26.3694  -19.8787 C   0  0  0  0  0  0  0  0  0  0  0  0
   31.1569  -26.9466  -20.9997 N   0  0  0  0  0  0  0  0  0  0  0  0
   31.0701  -27.0412  -18.6698 N   0  0  0  0  0  0  0  0  0  0  0  0
   30.3404  -26.3952  -17.6082 C   0  0  0  0  0  0  0  0  0  0  0  0
   29.3988  -25.3525  -18.1708 C   0  0  0  0  0  0  0  0  0  0  0  0
   28.8724  -24.4421  -17.0992 C   0  0  0  0  0  0  0  0  0  0  0  0
   29.8743  -23.4299  -16.6608 C   0  0  2  0  0  0  0  0  0  0  0  0
   31.1257  -24.1138  -16.3303 N   0  0  0  0  0  0  0  0  0  0  0  0
   29.4500  -22.5984  -15.5079 C   0  0  0  0  0  0  0  0  0  0  0  0
   29.4270  -23.0376  -14.3385 O   0  0  0  0  0  0  0  0  0  0  0  0
   30.7919  -27.9130  -21.0385 N   0  0  0  0  0  0  0  0  0  0  0  0
   24.5899  -19.4317  -15.9001 C   0  0  0  0  0  0  0  0  0  0  0  0
   24.3995  -18.2141  -16.6065 N   0  0  0  0  0  0  0  0  0  0  0  0
   23.1803  -17.7732  -16.7246 N   0  0  0  0  0  0  0  0  0  0  0  0
   25.4847  -17.4953  -17.1713 C   0  0  0  0  0  0  0  0  0  0  0  0
   26.8200  -17.6518  -16.6571 C   0  0  0  0  0  0  0  0  0  0  0  0
   27.1133  -18.9842  -16.0704 C   0  0  0  0  0  0  0  0  0  0  0  0
   28.1863  -19.0206  -15.0330 C   0  0  1  0  0  0  0  0  0  0  0  0
   28.4548  -20.4709  -14.5977 N   0  0  0  0  0  0  0  0  0  0  0  0
   29.0405  -21.2392  -15.6664 C   0  0  0  0  0  0  0  0  0  0  0  0
   27.2135  -21.0985  -14.0786 O   0  0  0  0  0  0  0  0  0  0  0  0
   26.9114  -22.3008  -14.3492 N   0  0  0  0  0  0  0  0  0  0  0  0
   22.9946  -16.8352  -17.1128 C   0  0  1  0  0  0  0  0  0  0  0  0
   26.2802  -20.4112  -13.2503 C   0  0  0  0  0  0  0  0  0  0  0  0
   25.8029  -20.9716  -12.0022 C   0  0  0  0  0  0  0  0  0  0  0  0
   26.9451  -21.2733  -11.0553 C   0  0  0  0  0  0  0  0  0  0  0  0
   26.5647  -20.8753   -9.6771 N   0  0  0  0  0  0  0  0  0  0  0  0
   25.2887  -20.6350   -9.1663 C   0  0  0  0  0  0  0  0  0  0  0  0
   25.3903  -20.2961   -7.8651 C   0  0  0  0  0  0  0  0  0  0  0  0
   26.6748  -20.2972   -7.4774 C   0  0  0  0  0  0  0  0  0  0  0  0
   27.2981  -20.0277   -6.2795 C   0  0  0  0  0  0  0  0  0  0  0  0
   28.6688  -20.1244   -6.2258 C   0  0  0  0  0  0  0  0  0  0  0  0
   29.4150  -20.4808   -7.3335 C   0  0  0  0  0  0  0  0  0  0  0  0
   28.7674  -20.7447   -8.5180 C   0  0  0  0  0  0  0  0  0  0  0  0
   27.4120  -20.6594   -8.6103 O   0  0  0  0  0  0  0  0  0  0  0  0
   24.8863  -20.0039  -11.3799 O   0  0  0  0  0  0  0  0  0  0  0  0
  2  3  2  0
  2  1  1  0
  4  2  1  0
  5  4  1  0
  6  5  1  0
  7  6  1  0
  8 10  1  0
  8  7  1  0
  8  9  1  1
 10 20  1  0
 10 11  2  0
 12 13  1  0
 13 14  2  0
 15 13  1  0
 16 15  1  0
 17 16  1  0
 18 17  1  0
 19 18  1  1
 19 21  1  0
 20 19  1  0
 21 23  1  0
 21 22  2  0
 23 24  1  0
 24 35  1  0
 24 25  1  1
 26 25  1  0
 27 26  2  0
 28 29  1  0
 28 27  1  0
 29 34  2  0
 30 29  1  0
 30 31  2  0
 31 32  1  0
 32 33  2  0
 34 26  1  0
 34 33  1  0
 35 37  1  0
 36 35  2  0
M  END
$$$$
