RRW.pdb
     RDKit          3D

 37 38  0  0  1  0  0  0  0  0999 V2000
   22.3130  -24.0055  -15.3568 N   0  0  0  0  0  0  0  0  0  0  0  0
   23.5330  -24.7323  -15.0845 C   0  0  0  0  0  0  0  0  0  0  0  0
   23.8195  -25.7966  -15.7378 N   0  0  0  0  0  0  0  0  0  0  0  0
   24.4236  -24.2646  -14.0847 N   0  0  0  0  0  0  0  0  0  0  0  0
   24.2330  -22.9953  -13.4294 C   0  0  0  0  0  0  0  0  0  0  0  0
   25.3757  -22.7134  -12.4781 C   0  0  0  0  0  0  0  0  0  0  0  0
   26.4282  -21.8510  -13.1128 C   0  0  0  0  0  0  0  0  0  0  0  0
   26.4143  -20.4529  -12.5973 C   0  0  2  0  0  0  0  0  0  0  0  0
   26.1213  -20.4792  -11.1634 N   0  0  0  0  0  0  0  0  0  0  0  0
   25.4525  -19.5519  -13.2784 C   0  0  0  0  0  0  0  0  0  0  0  0
   24.5149  -18.9921  -12.6715 O   0  0  0  0  0  0  0  0  0  0  0  0
   24.6463  -26.3672  -15.4934 N   0  0  0  0  0  0  0  0  0  0  0  0
   27.1163  -17.8974  -19.4392 C   0  0  0  0  0  0  0  0  0  0  0  0
   27.0180  -16.4815  -19.3815 N   0  0  0  0  0  0  0  0  0  0  0  0
   28.0430  -15.7916  -19.7917 N   0  0  0  0  0  0  0  0  0  0  0  0
   25.8565  -15.8280  -18.8947 C   0  0  0  0  0  0  0  0  0  0  0  0
   24.6177  -16.5444  -18.7398 C   0  0  0  0  0  0  0  0  0  0  0  0
   24.2873  -16.9304  -17.3444 C   0  0  0  0  0  0  0  0  0  0  0  0
   25.2107  -17.9110  -16.7004 C   0  0  2  0  0  0  0  0  0  0  0  0
   24.6388  -18.3702  -15.3489 N   0  0  0  0  0  0  0  0  0  0  0  0
   25.5413  -19.2689  -14.6756 C   0  0  0  0  0  0  0  0  0  0  0  0
   23.2915  -18.9677  -15.5279 O   0  0  0  0  0  0  0  0  0  0  0  0
   23.1397  -20.1918  -15.8254 N   0  0  0  0  0  0  0  0  0  0  0  0
   28.0057  -14.7608  -19.8233 C   0  0  1  0  0  0  0  0  0  0  0  0
   22.0842  -18.2255  -15.3824 C   0  0  0  0  0  0  0  0  0  0  0  0
   20.7836  -18.8227  -15.6087 C   0  0  0  0  0  0  0  0  0  0  0  0
   20.4305  -19.8153  -14.5214 C   0  0  0  0  0  0  0  0  0  0  0  0
   20.4051  -19.1240  -13.2084 N   0  0  0  0  0  0  0  0  0  0  0  0
   20.3003  -17.7565  -12.9518 C   0  0  0  0  0  0  0  0  0  0  0  0
   20.3158  -17.5547  -11.6186 C   0  0  0  0  0  0  0  0  0  0  0  0
   20.4260  -18.7225  -10.9671 C   0  0  0  0  0  0  0  0  0  0  0  0
   20.4853  -19.0552   -9.6322 C   0  0  0  0  0  0  0  0  0  0  0  0
   20.6016  -20.3847   -9.3002 C   0  0  0  0  0  0  0  0  0  0  0  0
   20.6586  -21.3716  -10.2663 C   0  0  0  0  0  0  0  0  0  0  0  0
   20.5973  -21.0119  -11.5925 C   0  0  0  0  0  0  0  0  0  0  0  0
   20.4822  -19.7064  -11.9605 O   0  0  0  0  0  0  0  0  0  0  0  0
   19.7796  -17.7481  -15.6432 O   0  0  0  0  0  0  0  0  0  0  0  0
  2  3  2  0
  2  1  1  0
  4  2  1  0
  5  4  1  0
  6  5  1  0
  7  6  1  0
  8 10  1  0
  8  7  1  0
  8  9  1  1
 10 20  1  0
 10 11  2  0
 12 13  1  0
 13 14  2  0
 15 13  1  0
 16 15  1  0
 17 16  1  0
 18 17  1  0
 19 18  1  1
 19 21  1  0
 20 19  1  0
 21 23  1  0
 21 22  2  0
 23 24  1  0
 24 35  1  0
 24 25  1  6
 26 25  1  0
 27 26  2  0
 28 29  1  0
 28 27  1  0
 29 34  2  0
 30 29  1  0
 30 31  2  0
 31 32  1  0
 32 33  2  0
 34 26  1  0
 34 33  1  0
 35 37  1  0
 36 35  2  0
M  END
$$$$
