RRW.pdb
     RDKit          3D

 37 38  0  0  1  0  0  0  0  0999 V2000
   24.2738  -31.2512  -16.4531 N   0  0  0  0  0  0  0  0  0  0  0  0
   23.1759  -30.4347  -15.9855 C   0  0  0  0  0  0  0  0  0  0  0  0
   22.4186  -30.8398  -15.0346 N   0  0  0  0  0  0  0  0  0  0  0  0
   22.9324  -29.1719  -16.5834 N   0  0  0  0  0  0  0  0  0  0  0  0
   23.9177  -28.5171  -17.4063 C   0  0  0  0  0  0  0  0  0  0  0  0
   25.0986  -28.0759  -16.5689 C   0  0  0  0  0  0  0  0  0  0  0  0
   24.9679  -26.6452  -16.1328 C   0  0  0  0  0  0  0  0  0  0  0  0
   25.7163  -25.7045  -17.0135 C   0  0  2  0  0  0  0  0  0  0  0  0
   27.0173  -26.2919  -17.3376 N   0  0  0  0  0  0  0  0  0  0  0  0
   25.9176  -24.3502  -16.4428 C   0  0  0  0  0  0  0  0  0  0  0  0
   26.5705  -24.1556  -15.3954 O   0  0  0  0  0  0  0  0  0  0  0  0
   21.6188  -30.2712  -14.7095 N   0  0  0  0  0  0  0  0  0  0  0  0
   29.2477  -18.7715  -19.8587 C   0  0  0  0  0  0  0  0  0  0  0  0
   28.7062  -18.1318  -18.7119 N   0  0  0  0  0  0  0  0  0  0  0  0
   28.7207  -16.8303  -18.6877 N   0  0  0  0  0  0  0  0  0  0  0  0
   28.1697  -18.8678  -17.6238 C   0  0  0  0  0  0  0  0  0  0  0  0
   28.1418  -20.3066  -17.6494 C   0  0  0  0  0  0  0  0  0  0  0  0
   26.9925  -20.8981  -18.3805 C   0  0  0  0  0  0  0  0  0  0  0  0
   25.6699  -20.8226  -17.6920 C   0  0  2  0  0  0  0  0  0  0  0  0
   25.6051  -21.8530  -16.5525 N   0  0  0  0  0  0  0  0  0  0  0  0
   25.3747  -23.1817  -17.0594 C   0  0  0  0  0  0  0  0  0  0  0  0
   24.5855  -21.4576  -15.5483 O   0  0  0  0  0  0  0  0  0  0  0  0
   23.3541  -21.7161  -15.7118 N   0  0  0  0  0  0  0  0  0  0  0  0
   28.4483  -16.3161  -17.8355 C   0  0  2  0  0  0  0  0  0  0  0  0
   24.9049  -20.7685  -14.3431 C   0  0  0  0  0  0  0  0  0  0  0  0
   23.8798  -20.2769  -13.4447 C   0  0  0  0  0  0  0  0  0  0  0  0
   24.4816  -19.5950  -12.2343 C   0  0  0  0  0  0  0  0  0  0  0  0
   23.9293  -20.2020  -10.9977 N   0  0  0  0  0  0  0  0  0  0  0  0
   22.7764  -20.9745  -10.8527 C   0  0  0  0  0  0  0  0  0  0  0  0
   22.6394  -21.3247   -9.5577 C   0  0  0  0  0  0  0  0  0  0  0  0
   23.6461  -20.8239   -8.8257 C   0  0  0  0  0  0  0  0  0  0  0  0
   23.9621  -20.8904   -7.4870 C   0  0  0  0  0  0  0  0  0  0  0  0
   25.0975  -20.2451   -7.0562 C   0  0  0  0  0  0  0  0  0  0  0  0
   25.9096  -19.5452   -7.9286 C   0  0  0  0  0  0  0  0  0  0  0  0
   25.5710  -19.4945   -9.2608 C   0  0  0  0  0  0  0  0  0  0  0  0
   24.4550  -20.1205   -9.7251 O   0  0  0  0  0  0  0  0  0  0  0  0
   23.0358  -19.3237  -14.1815 O   0  0  0  0  0  0  0  0  0  0  0  0
  2  3  2  0
  2  1  1  0
  4  2  1  0
  5  4  1  0
  6  5  1  0
  7  6  1  0
  8 10  1  0
  8  7  1  0
  8  9  1  1
 10 20  1  0
 10 11  2  0
 12 13  1  0
 13 14  2  0
 15 13  1  0
 16 15  1  0
 17 16  1  0
 18 17  1  0
 19 18  1  6
 19 21  1  0
 20 19  1  0
 21 23  1  0
 21 22  2  0
 23 24  1  0
 24 35  1  0
 24 25  1  1
 26 25  1  0
 27 26  2  0
 28 29  1  0
 28 27  1  0
 29 34  2  0
 30 29  1  0
 30 31  2  0
 31 32  1  0
 32 33  2  0
 34 26  1  0
 34 33  1  0
 35 37  1  0
 36 35  2  0
M  END
$$$$
