RRW.pdb
     RDKit          3D

 37 38  0  0  1  0  0  0  0  0999 V2000
   19.9420  -22.9661   -7.6194 N   0  0  0  0  0  0  0  0  0  0  0  0
   19.3247  -22.7698   -8.9121 C   0  0  0  0  0  0  0  0  0  0  0  0
   18.2031  -22.1589   -9.0150 N   0  0  0  0  0  0  0  0  0  0  0  0
   19.9651  -23.2570  -10.0800 N   0  0  0  0  0  0  0  0  0  0  0  0
   21.3349  -22.9322  -10.3884 C   0  0  0  0  0  0  0  0  0  0  0  0
   21.7066  -21.5893   -9.7979 C   0  0  0  0  0  0  0  0  0  0  0  0
   22.3755  -20.7031  -10.8087 C   0  0  0  0  0  0  0  0  0  0  0  0
   23.7633  -21.1414  -11.1291 C   0  0  2  0  0  0  0  0  0  0  0  0
   24.6082  -20.9399   -9.9509 N   0  0  0  0  0  0  0  0  0  0  0  0
   24.3747  -20.4569  -12.2945 C   0  0  0  0  0  0  0  0  0  0  0  0
   24.7319  -19.2602  -12.2560 O   0  0  0  0  0  0  0  0  0  0  0  0
   17.7045  -22.1062   -9.9191 N   0  0  0  0  0  0  0  0  0  0  0  0
   27.9149  -25.1903  -15.9856 C   0  0  0  0  0  0  0  0  0  0  0  0
   26.7976  -24.8289  -16.7848 N   0  0  0  0  0  0  0  0  0  0  0  0
   25.9272  -25.7585  -17.0549 N   0  0  0  0  0  0  0  0  0  0  0  0
   26.6235  -23.5110  -17.2812 C   0  0  0  0  0  0  0  0  0  0  0  0
   27.4371  -22.4272  -16.7965 C   0  0  0  0  0  0  0  0  0  0  0  0
   26.8062  -21.5931  -15.7421 C   0  0  0  0  0  0  0  0  0  0  0  0
   25.3337  -21.3814  -15.8688 C   0  0  2  0  0  0  0  0  0  0  0  0
   24.8385  -20.4260  -14.7703 N   0  0  0  0  0  0  0  0  0  0  0  0
   24.5930  -21.1279  -13.5364 C   0  0  0  0  0  0  0  0  0  0  0  0
   23.6419  -19.6770  -15.2302 O   0  0  0  0  0  0  0  0  0  0  0  0
   22.5959  -19.5897  -14.5174 N   0  0  0  0  0  0  0  0  0  0  0  0
   25.1010  -25.5532  -17.6382 C   0  0  1  0  0  0  0  0  0  0  0  0
   23.5759  -19.0093  -16.4869 C   0  0  0  0  0  0  0  0  0  0  0  0
   22.6986  -17.8780  -16.7104 C   0  0  0  0  0  0  0  0  0  0  0  0
   22.9907  -16.7485  -15.7454 C   0  0  0  0  0  0  0  0  0  0  0  0
   22.0650  -15.6190  -16.0095 N   0  0  0  0  0  0  0  0  0  0  0  0
   20.7496  -15.4574  -15.5731 C   0  0  0  0  0  0  0  0  0  0  0  0
   20.2699  -14.2867  -16.0400 C   0  0  0  0  0  0  0  0  0  0  0  0
   21.2013  -13.6541  -16.7698 C   0  0  0  0  0  0  0  0  0  0  0  0
   21.2131  -12.4566  -17.4496 C   0  0  0  0  0  0  0  0  0  0  0  0
   22.3636  -12.0992  -18.1129 C   0  0  0  0  0  0  0  0  0  0  0  0
   23.4851  -12.9071  -18.1075 C   0  0  0  0  0  0  0  0  0  0  0  0
   23.4465  -14.0983  -17.4207 C   0  0  0  0  0  0  0  0  0  0  0  0
   22.3260  -14.4863  -16.7522 O   0  0  0  0  0  0  0  0  0  0  0  0
   22.8879  -17.4101  -18.0921 O   0  0  0  0  0  0  0  0  0  0  0  0
  2  3  2  0
  2  1  1  0
  4  2  1  0
  5  4  1  0
  6  5  1  0
  7  6  1  0
  8 10  1  0
  8  7  1  0
  8  9  1  1
 10 20  1  0
 10 11  2  0
 12 13  1  0
 13 14  2  0
 15 13  1  0
 16 15  1  0
 17 16  1  0
 18 17  1  0
 19 18  1  1
 19 21  1  0
 20 19  1  0
 21 23  1  0
 21 22  2  0
 23 24  1  0
 24 35  1  0
 24 25  1  6
 26 25  1  0
 27 26  2  0
 28 29  1  0
 28 27  1  0
 29 34  2  0
 30 29  1  0
 30 31  2  0
 31 32  1  0
 32 33  2  0
 34 26  1  0
 34 33  1  0
 35 37  1  0
 36 35  2  0
M  END
$$$$
