RRW.pdb
     RDKit          3D

 37 38  0  0  1  0  0  0  0  0999 V2000
   29.1381  -25.4358  -19.5779 N   0  0  0  0  0  0  0  0  0  0  0  0
   27.8504  -25.1936  -20.1893 C   0  0  0  0  0  0  0  0  0  0  0  0
   27.4463  -25.9132  -21.1695 N   0  0  0  0  0  0  0  0  0  0  0  0
   27.0238  -24.1496  -19.7011 N   0  0  0  0  0  0  0  0  0  0  0  0
   27.3607  -23.4040  -18.5148 C   0  0  0  0  0  0  0  0  0  0  0  0
   27.0161  -24.1988  -17.2739 C   0  0  0  0  0  0  0  0  0  0  0  0
   25.7772  -23.6770  -16.6052 C   0  0  0  0  0  0  0  0  0  0  0  0
   25.9875  -22.3509  -15.9586 C   0  0  2  0  0  0  0  0  0  0  0  0
   27.2930  -22.3479  -15.2966 N   0  0  0  0  0  0  0  0  0  0  0  0
   24.9403  -21.9664  -14.9807 C   0  0  0  0  0  0  0  0  0  0  0  0
   23.7364  -21.8586  -15.2971 O   0  0  0  0  0  0  0  0  0  0  0  0
   26.5813  -25.6775  -21.6842 N   0  0  0  0  0  0  0  0  0  0  0  0
   21.1076  -23.0099   -8.3466 C   0  0  0  0  0  0  0  0  0  0  0  0
   21.0901  -21.5972   -8.1989 N   0  0  0  0  0  0  0  0  0  0  0  0
   20.0586  -21.0685   -7.6064 N   0  0  0  0  0  0  0  0  0  0  0  0
   22.1460  -20.7785   -8.6766 C   0  0  0  0  0  0  0  0  0  0  0  0
   23.1906  -21.3285   -9.5000 C   0  0  0  0  0  0  0  0  0  0  0  0
   23.8812  -20.3470  -10.3748 C   0  0  0  0  0  0  0  0  0  0  0  0
   24.9040  -20.9072  -11.3071 C   0  0  1  0  0  0  0  0  0  0  0  0
   24.2690  -21.2029  -12.6760 N   0  0  0  0  0  0  0  0  0  0  0  0
   25.2470  -21.6953  -13.6123 C   0  0  0  0  0  0  0  0  0  0  0  0
   23.5601  -20.0051  -13.1925 O   0  0  0  0  0  0  0  0  0  0  0  0
   24.1127  -18.8632  -13.2180 N   0  0  0  0  0  0  0  0  0  0  0  0
   19.9736  -20.0446   -7.5104 C   0  0  2  0  0  0  0  0  0  0  0  0
   22.2262  -20.0436  -13.6912 C   0  0  0  0  0  0  0  0  0  0  0  0
   21.6358  -18.9218  -14.3930 C   0  0  0  0  0  0  0  0  0  0  0  0
   22.4697  -18.5126  -15.5886 C   0  0  0  0  0  0  0  0  0  0  0  0
   21.8362  -17.3509  -16.2605 N   0  0  0  0  0  0  0  0  0  0  0  0
   21.1813  -16.2651  -15.6782 C   0  0  0  0  0  0  0  0  0  0  0  0
   20.7529  -15.4344  -16.6502 C   0  0  0  0  0  0  0  0  0  0  0  0
   21.0891  -15.9110  -17.8585 C   0  0  0  0  0  0  0  0  0  0  0  0
   20.8901  -15.4522  -19.1416 C   0  0  0  0  0  0  0  0  0  0  0  0
   21.3773  -16.2071  -20.1827 C   0  0  0  0  0  0  0  0  0  0  0  0
   22.0500  -17.3949  -19.9652 C   0  0  0  0  0  0  0  0  0  0  0  0
   22.2351  -17.8304  -18.6737 C   0  0  0  0  0  0  0  0  0  0  0  0
   21.7674  -17.1109  -17.6171 O   0  0  0  0  0  0  0  0  0  0  0  0
   20.2888  -19.3102  -14.8383 O   0  0  0  0  0  0  0  0  0  0  0  0
  2  3  2  0
  2  1  1  0
  4  2  1  0
  5  4  1  0
  6  5  1  0
  7  6  1  0
  8 10  1  0
  8  7  1  0
  8  9  1  1
 10 20  1  0
 10 11  2  0
 12 13  1  0
 13 14  2  0
 15 13  1  0
 16 15  1  0
 17 16  1  0
 18 17  1  0
 19 18  1  1
 19 21  1  0
 20 19  1  0
 21 23  1  0
 21 22  2  0
 23 24  1  0
 24 35  1  0
 24 25  1  1
 26 25  1  0
 27 26  2  0
 28 29  1  0
 28 27  1  0
 29 34  2  0
 30 29  1  0
 30 31  2  0
 31 32  1  0
 32 33  2  0
 34 26  1  0
 34 33  1  0
 35 37  1  0
 36 35  2  0
M  END
$$$$
