RRW.pdb
     RDKit          3D

 37 38  0  0  1  0  0  0  0  0999 V2000
   29.1817  -19.2501  -18.5388 N   0  0  0  0  0  0  0  0  0  0  0  0
   28.1526  -18.5867  -19.3080 C   0  0  0  0  0  0  0  0  0  0  0  0
   28.4606  -17.7339  -20.2134 N   0  0  0  0  0  0  0  0  0  0  0  0
   26.7875  -18.8811  -19.0602 N   0  0  0  0  0  0  0  0  0  0  0  0
   26.3874  -19.9404  -18.1688 C   0  0  0  0  0  0  0  0  0  0  0  0
   26.1966  -19.4079  -16.7651 C   0  0  0  0  0  0  0  0  0  0  0  0
   24.8479  -19.7676  -16.2121 C   0  0  0  0  0  0  0  0  0  0  0  0
   24.8998  -20.9278  -15.2783 C   0  0  2  0  0  0  0  0  0  0  0  0
   25.1708  -22.1435  -16.0472 N   0  0  0  0  0  0  0  0  0  0  0  0
   23.6739  -21.1237  -14.4663 C   0  0  0  0  0  0  0  0  0  0  0  0
   22.7617  -21.9055  -14.8094 O   0  0  0  0  0  0  0  0  0  0  0  0
   27.7298  -17.2370  -20.7498 N   0  0  0  0  0  0  0  0  0  0  0  0
   19.0561  -22.3387   -9.1807 C   0  0  0  0  0  0  0  0  0  0  0  0
   20.2064  -22.5992   -8.3890 N   0  0  0  0  0  0  0  0  0  0  0  0
   20.3186  -23.7860   -7.8659 N   0  0  0  0  0  0  0  0  0  0  0  0
   21.2024  -21.6140   -8.1635 C   0  0  0  0  0  0  0  0  0  0  0  0
   21.1437  -20.3401   -8.8308 C   0  0  0  0  0  0  0  0  0  0  0  0
   21.0931  -20.4110  -10.3133 C   0  0  0  0  0  0  0  0  0  0  0  0
   22.4056  -20.3157  -11.0183 C   0  0  2  0  0  0  0  0  0  0  0  0
   22.2030  -20.4453  -12.5371 N   0  0  0  0  0  0  0  0  0  0  0  0
   23.4618  -20.4270  -13.2375 C   0  0  0  0  0  0  0  0  0  0  0  0
   21.2773  -19.3954  -13.0318 O   0  0  0  0  0  0  0  0  0  0  0  0
   21.4121  -18.1781  -12.7001 N   0  0  0  0  0  0  0  0  0  0  0  0
   21.1295  -24.0266   -7.2746 C   0  0  1  0  0  0  0  0  0  0  0  0
   20.1835  -19.6682  -13.9029 C   0  0  0  0  0  0  0  0  0  0  0  0
   19.3550  -18.6124  -14.4494 C   0  0  0  0  0  0  0  0  0  0  0  0
   20.1244  -17.7529  -15.4298 C   0  0  0  0  0  0  0  0  0  0  0  0
   20.1637  -18.4241  -16.7529 N   0  0  0  0  0  0  0  0  0  0  0  0
   19.1498  -19.1389  -17.3915 C   0  0  0  0  0  0  0  0  0  0  0  0
   19.6046  -19.5842  -18.5803 C   0  0  0  0  0  0  0  0  0  0  0  0
   20.8766  -19.2022  -18.7706 C   0  0  0  0  0  0  0  0  0  0  0  0
   21.7755  -19.3952  -19.7957 C   0  0  0  0  0  0  0  0  0  0  0  0
   23.0328  -18.8534  -19.6660 C   0  0  0  0  0  0  0  0  0  0  0  0
   23.4002  -18.1326  -18.5452 C   0  0  0  0  0  0  0  0  0  0  0  0
   22.4830  -17.9546  -17.5357 C   0  0  0  0  0  0  0  0  0  0  0  0
   21.2289  -18.4758  -17.6277 O   0  0  0  0  0  0  0  0  0  0  0  0
   18.2052  -19.2297  -15.1281 O   0  0  0  0  0  0  0  0  0  0  0  0
  2  3  2  0
  2  1  1  0
  4  2  1  0
  5  4  1  0
  6  5  1  0
  7  6  1  0
  8 10  1  0
  8  7  1  0
  8  9  1  6
 10 20  1  0
 10 11  2  0
 12 13  1  0
 13 14  2  0
 15 13  1  0
 16 15  1  0
 17 16  1  0
 18 17  1  0
 19 18  1  1
 19 21  1  0
 20 19  1  0
 21 23  1  0
 21 22  2  0
 23 24  1  0
 24 35  1  0
 24 25  1  6
 26 25  1  0
 27 26  2  0
 28 29  1  0
 28 27  1  0
 29 34  2  0
 30 29  1  0
 30 31  2  0
 31 32  1  0
 32 33  2  0
 34 26  1  0
 34 33  1  0
 35 37  1  0
 36 35  2  0
M  END
$$$$
