RRW.pdb
     RDKit          3D

 37 38  0  0  1  0  0  0  0  0999 V2000
   31.1276  -16.6839  -18.1086 N   0  0  0  0  0  0  0  0  0  0  0  0
   29.8577  -16.4669  -18.7651 C   0  0  0  0  0  0  0  0  0  0  0  0
   29.6752  -16.8431  -19.9762 N   0  0  0  0  0  0  0  0  0  0  0  0
   28.8014  -15.8316  -18.0636 N   0  0  0  0  0  0  0  0  0  0  0  0
   28.9319  -15.4413  -16.6825 C   0  0  0  0  0  0  0  0  0  0  0  0
   28.6667  -16.6203  -15.7715 C   0  0  0  0  0  0  0  0  0  0  0  0
   27.2700  -16.5951  -15.2211 C   0  0  0  0  0  0  0  0  0  0  0  0
   26.4158  -17.6862  -15.7693 C   0  0  2  0  0  0  0  0  0  0  0  0
   25.4616  -17.1100  -16.7181 N   0  0  0  0  0  0  0  0  0  0  0  0
   25.6794  -18.4685  -14.7464 C   0  0  0  0  0  0  0  0  0  0  0  0
   24.8839  -17.9375  -13.9424 O   0  0  0  0  0  0  0  0  0  0  0  0
   28.7692  -16.6935  -20.4512 N   0  0  0  0  0  0  0  0  0  0  0  0
   24.2905  -24.8525  -16.6152 C   0  0  0  0  0  0  0  0  0  0  0  0
   25.0364  -25.3863  -15.5305 N   0  0  0  0  0  0  0  0  0  0  0  0
   26.0406  -26.1634  -15.8176 N   0  0  0  0  0  0  0  0  0  0  0  0
   24.7109  -25.0970  -14.1801 C   0  0  0  0  0  0  0  0  0  0  0  0
   23.5860  -24.2594  -13.8560 C   0  0  0  0  0  0  0  0  0  0  0  0
   23.9355  -22.8918  -13.3947 C   0  0  0  0  0  0  0  0  0  0  0  0
   24.8087  -22.0962  -14.3077 C   0  0  2  0  0  0  0  0  0  0  0  0
   25.0200  -20.6822  -13.7414 N   0  0  0  0  0  0  0  0  0  0  0  0
   25.8361  -19.8824  -14.6188 C   0  0  0  0  0  0  0  0  0  0  0  0
   25.5809  -20.7480  -12.3683 O   0  0  0  0  0  0  0  0  0  0  0  0
   26.8324  -20.7621  -12.1599 N   0  0  0  0  0  0  0  0  0  0  0  0
   26.6123  -26.5839  -15.0685 C   0  0  2  0  0  0  0  0  0  0  0  0
   24.7712  -20.7998  -11.1973 C   0  0  0  0  0  0  0  0  0  0  0  0
   25.3347  -21.0395   -9.8840 C   0  0  0  0  0  0  0  0  0  0  0  0
   26.3130  -19.9527   -9.4918 C   0  0  0  0  0  0  0  0  0  0  0  0
   26.8112  -20.2067   -8.1172 N   0  0  0  0  0  0  0  0  0  0  0  0
   26.8204  -21.4082   -7.4078 C   0  0  0  0  0  0  0  0  0  0  0  0
   27.3614  -21.1984   -6.1905 C   0  0  0  0  0  0  0  0  0  0  0  0
   27.7162  -19.9123   -6.0485 C   0  0  0  0  0  0  0  0  0  0  0  0
   28.2957  -19.2023   -5.0208 C   0  0  0  0  0  0  0  0  0  0  0  0
   28.5285  -17.8603   -5.2107 C   0  0  0  0  0  0  0  0  0  0  0  0
   28.1966  -17.2265   -6.3934 C   0  0  0  0  0  0  0  0  0  0  0  0
   27.6188  -17.9591   -7.4041 C   0  0  0  0  0  0  0  0  0  0  0  0
   27.3726  -19.2894   -7.2535 O   0  0  0  0  0  0  0  0  0  0  0  0
   24.2340  -21.0902   -8.9095 O   0  0  0  0  0  0  0  0  0  0  0  0
  2  3  2  0
  2  1  1  0
  4  2  1  0
  5  4  1  0
  6  5  1  0
  7  6  1  0
  8 10  1  0
  8  7  1  0
  8  9  1  6
 10 20  1  0
 10 11  2  0
 12 13  1  0
 13 14  2  0
 15 13  1  0
 16 15  1  0
 17 16  1  0
 18 17  1  0
 19 18  1  6
 19 21  1  0
 20 19  1  0
 21 23  1  0
 21 22  2  0
 23 24  1  0
 24 35  1  0
 24 25  1  6
 26 25  1  0
 27 26  2  0
 28 29  1  0
 28 27  1  0
 29 34  2  0
 30 29  1  0
 30 31  2  0
 31 32  1  0
 32 33  2  0
 34 26  1  0
 34 33  1  0
 35 37  1  0
 36 35  2  0
M  END
$$$$
