RRW.pdb
     RDKit          3D

 37 38  0  0  1  0  0  0  0  0999 V2000
   20.8544  -23.4502   -9.1944 N   0  0  0  0  0  0  0  0  0  0  0  0
   20.4653  -22.3773   -8.3067 C   0  0  0  0  0  0  0  0  0  0  0  0
   19.5197  -22.5415   -7.4578 N   0  0  0  0  0  0  0  0  0  0  0  0
   21.1355  -21.1291   -8.3738 N   0  0  0  0  0  0  0  0  0  0  0  0
   22.0526  -20.8143   -9.4399 C   0  0  0  0  0  0  0  0  0  0  0  0
   23.4740  -20.7753   -8.9217 C   0  0  0  0  0  0  0  0  0  0  0  0
   24.4329  -20.2783   -9.9646 C   0  0  0  0  0  0  0  0  0  0  0  0
   24.7635  -21.3149  -10.9829 C   0  0  2  0  0  0  0  0  0  0  0  0
   26.0216  -21.9629  -10.6087 N   0  0  0  0  0  0  0  0  0  0  0  0
   24.8679  -20.8060  -12.3724 C   0  0  0  0  0  0  0  0  0  0  0  0
   25.7526  -19.9968  -12.7241 O   0  0  0  0  0  0  0  0  0  0  0  0
   19.2368  -21.7794   -6.8191 N   0  0  0  0  0  0  0  0  0  0  0  0
   26.3770  -24.2271  -16.2211 C   0  0  0  0  0  0  0  0  0  0  0  0
   25.5958  -25.4100  -16.1302 N   0  0  0  0  0  0  0  0  0  0  0  0
   26.1529  -26.5270  -16.4998 N   0  0  0  0  0  0  0  0  0  0  0  0
   24.2569  -25.3921  -15.6606 C   0  0  0  0  0  0  0  0  0  0  0  0
   23.6420  -24.1630  -15.2329 C   0  0  0  0  0  0  0  0  0  0  0  0
   24.0420  -22.9600  -16.0063 C   0  0  0  0  0  0  0  0  0  0  0  0
   23.2831  -21.7090  -15.7095 C   0  0  2  0  0  0  0  0  0  0  0  0
   24.0982  -20.8037  -14.7710 N   0  0  0  0  0  0  0  0  0  0  0  0
   23.9590  -21.2126  -13.3966 C   0  0  0  0  0  0  0  0  0  0  0  0
   23.7269  -19.3796  -14.9667 O   0  0  0  0  0  0  0  0  0  0  0  0
   22.6130  -18.9207  -14.5688 N   0  0  0  0  0  0  0  0  0  0  0  0
   25.6378  -27.4189  -16.4364 C   0  0  2  0  0  0  0  0  0  0  0  0
   24.5783  -18.4330  -15.6060 C   0  0  0  0  0  0  0  0  0  0  0  0
   24.1927  -17.0470  -15.7788 C   0  0  0  0  0  0  0  0  0  0  0  0
   25.3620  -16.1963  -16.2273 C   0  0  0  0  0  0  0  0  0  0  0  0
   24.9071  -14.7991  -16.4363 N   0  0  0  0  0  0  0  0  0  0  0  0
   24.7764  -13.7806  -15.4916 C   0  0  0  0  0  0  0  0  0  0  0  0
   24.3307  -12.6648  -16.1038 C   0  0  0  0  0  0  0  0  0  0  0  0
   24.1556  -12.8857  -17.4156 C   0  0  0  0  0  0  0  0  0  0  0  0
   23.7268  -12.0922  -18.4561 C   0  0  0  0  0  0  0  0  0  0  0  0
   23.6618  -12.6491  -19.7119 C   0  0  0  0  0  0  0  0  0  0  0  0
   24.0132  -13.9663  -19.9405 C   0  0  0  0  0  0  0  0  0  0  0  0
   24.4381  -14.7370  -18.8835 C   0  0  0  0  0  0  0  0  0  0  0  0
   24.5157  -14.2214  -17.6261 O   0  0  0  0  0  0  0  0  0  0  0  0
   23.1212  -16.9858  -16.7848 O   0  0  0  0  0  0  0  0  0  0  0  0
  2  3  2  0
  2  1  1  0
  4  2  1  0
  5  4  1  0
  6  5  1  0
  7  6  1  0
  8 10  1  0
  8  7  1  0
  8  9  1  1
 10 20  1  0
 10 11  2  0
 12 13  1  0
 13 14  2  0
 15 13  1  0
 16 15  1  0
 17 16  1  0
 18 17  1  0
 19 18  1  6
 19 21  1  0
 20 19  1  0
 21 23  1  0
 21 22  2  0
 23 24  1  0
 24 35  1  0
 24 25  1  6
 26 25  1  0
 27 26  2  0
 28 29  1  0
 28 27  1  0
 29 34  2  0
 30 29  1  0
 30 31  2  0
 31 32  1  0
 32 33  2  0
 34 26  1  0
 34 33  1  0
 35 37  1  0
 36 35  2  0
M  END
$$$$
