EVN.pdb
     RDKit          3D

 25 24  0  0  1  0  0  0  0  0999 V2000
    8.7340  -18.0599   18.7006 N   0  0  0  0  0  0  0  0  0  0  0  0
   10.0964  -17.5057   18.7297 C   0  0  1  0  0  0  0  0  0  0  0  0
   10.5360  -17.1742   17.3329 C   0  0  0  0  0  0  0  0  0  0  0  0
    9.8114  -17.9734   16.2847 C   0  0  0  0  0  0  0  0  0  0  0  0
   10.3670  -17.6592   14.9263 C   0  0  0  0  0  0  0  0  0  0  0  0
   11.4919  -18.0996   14.5952 O   0  0  0  0  0  0  0  0  0  0  0  0
   10.0227  -16.2889   19.5636 C   0  0  0  0  0  0  0  0  0  0  0  0
   11.0514  -15.6866   19.9599 O   0  0  0  0  0  0  0  0  0  0  0  0
    9.6262  -16.8909   14.0695 O   0  0  0  0  0  0  0  0  0  0  0  0
    6.9581  -12.8036   21.3854 C   0  0  0  0  0  0  0  0  0  0  0  0
    7.4138  -13.8255   20.3916 C   0  0  1  0  0  0  0  0  0  0  0  0
    7.4178  -13.2577   19.0129 C   0  0  0  0  0  0  0  0  0  0  0  0
    8.6971  -14.5175   20.7879 C   0  0  2  0  0  0  0  0  0  0  0  0
    8.7512  -15.7352   19.9622 N   0  0  0  0  0  0  0  0  0  0  0  0
    8.7409  -14.9415   22.1976 C   0  0  0  0  0  0  0  0  0  0  0  0
    8.7304  -14.0775   23.1424 O   0  0  0  0  0  0  0  0  0  0  0  0
    8.6452  -17.7888   26.7275 N   0  0  0  0  0  0  0  0  0  0  0  0
    7.5522  -17.8688   25.8267 C   0  0  0  0  0  0  0  0  0  0  0  0
    6.5170  -18.4127   26.2842 O   0  0  0  0  0  0  0  0  0  0  0  0
    7.5494  -17.3802   24.4557 C   0  0  0  0  0  0  0  0  0  0  0  0
    8.8095  -16.6649   24.0421 C   0  0  2  0  0  0  0  0  0  0  0  0
    8.7965  -16.2899   22.6415 N   0  0  0  0  0  0  0  0  0  0  0  0
   10.0311  -17.4162   24.4038 C   0  0  0  0  0  0  0  0  0  0  0  0
   11.0867  -16.8041   25.0437 O   0  0  0  0  0  0  0  0  0  0  0  0
   10.1104  -18.6305   24.1247 O   0  0  0  0  0  0  0  0  0  0  0  0
  2  1  1  6
  2  3  1  0
  4  3  1  0
  5  9  1  0
  5  4  1  0
  6  5  2  0
  7  2  1  0
  7  8  2  0
 11 10  1  1
 11 13  1  0
 12 11  1  0
 13 14  1  6
 14  7  1  0
 15 16  2  0
 15 13  1  0
 18 19  2  0
 18 17  1  0
 20 18  1  0
 21 22  1  0
 21 20  1  6
 22 15  1  0
 23 21  1  0
 24 23  1  0
 25 23  2  0
M  END
$$$$
