EVN.pdb
     RDKit          3D

 25 24  0  0  1  0  0  0  0  0999 V2000
    8.2220  -15.4602   20.8584 N   0  0  0  0  0  0  0  0  0  0  0  0
    7.3536  -15.7154   22.0180 C   0  0  1  0  0  0  0  0  0  0  0  0
    7.1889  -17.1955   22.2088 C   0  0  0  0  0  0  0  0  0  0  0  0
    6.1979  -17.5414   23.2863 C   0  0  0  0  0  0  0  0  0  0  0  0
    6.8861  -18.2799   24.3970 C   0  0  0  0  0  0  0  0  0  0  0  0
    7.8241  -19.0675   24.1351 O   0  0  0  0  0  0  0  0  0  0  0  0
    8.0344  -15.1053   23.1781 C   0  0  0  0  0  0  0  0  0  0  0  0
    9.2681  -15.2370   23.3746 O   0  0  0  0  0  0  0  0  0  0  0  0
    6.4707  -18.0755   25.6850 O   0  0  0  0  0  0  0  0  0  0  0  0
    5.7203  -13.2274   26.2060 C   0  0  0  0  0  0  0  0  0  0  0  0
    7.0377  -12.6458   25.7987 C   0  0  1  0  0  0  0  0  0  0  0  0
    7.5904  -11.7799   26.8793 C   0  0  0  0  0  0  0  0  0  0  0  0
    8.0069  -13.6730   25.2616 C   0  0  2  0  0  0  0  0  0  0  0  0
    7.3020  -14.3235   24.1448 N   0  0  0  0  0  0  0  0  0  0  0  0
    8.3634  -14.7259   26.2277 C   0  0  0  0  0  0  0  0  0  0  0  0
    7.5922  -15.7304   26.4163 O   0  0  0  0  0  0  0  0  0  0  0  0
   12.6115  -18.5026   27.5966 N   0  0  0  0  0  0  0  0  0  0  0  0
   11.2684  -18.0482   27.5563 C   0  0  0  0  0  0  0  0  0  0  0  0
   10.4390  -18.7667   28.1668 O   0  0  0  0  0  0  0  0  0  0  0  0
   10.8024  -16.8471   26.8789 C   0  0  0  0  0  0  0  0  0  0  0  0
    9.9984  -15.9111   27.7439 C   0  0  2  0  0  0  0  0  0  0  0  0
    9.5445  -14.7414   27.0170 N   0  0  0  0  0  0  0  0  0  0  0  0
   10.7033  -15.5490   28.9926 C   0  0  0  0  0  0  0  0  0  0  0  0
   11.0524  -16.5042   29.9223 O   0  0  0  0  0  0  0  0  0  0  0  0
   10.9893  -14.3537   29.2119 O   0  0  0  0  0  0  0  0  0  0  0  0
  2  1  1  6
  2  3  1  0
  4  3  1  0
  5  9  1  0
  5  4  1  0
  6  5  2  0
  7  2  1  0
  7  8  2  0
 11 10  1  1
 11 13  1  0
 12 11  1  0
 13 14  1  6
 14  7  1  0
 15 16  2  0
 15 13  1  0
 18 19  2  0
 18 17  1  0
 20 18  1  0
 21 22  1  0
 21 20  1  6
 22 15  1  0
 23 21  1  0
 24 23  1  0
 25 23  2  0
M  END
$$$$
