EVN.pdb
     RDKit          3D

 25 24  0  0  1  0  0  0  0  0999 V2000
    8.6948  -15.2265   20.6191 N   0  0  0  0  0  0  0  0  0  0  0  0
    7.9067  -15.6822   21.7747 C   0  0  1  0  0  0  0  0  0  0  0  0
    8.0487  -17.1691   21.9272 C   0  0  0  0  0  0  0  0  0  0  0  0
    7.4986  -17.9342   20.7548 C   0  0  0  0  0  0  0  0  0  0  0  0
    7.6357  -19.4092   20.9961 C   0  0  0  0  0  0  0  0  0  0  0  0
    8.2545  -20.1213   20.1721 O   0  0  0  0  0  0  0  0  0  0  0  0
    8.4590  -14.9752   22.9479 C   0  0  0  0  0  0  0  0  0  0  0  0
    9.6947  -14.8931   23.1585 O   0  0  0  0  0  0  0  0  0  0  0  0
    7.0767  -19.9507   22.1219 O   0  0  0  0  0  0  0  0  0  0  0  0
    5.7812  -13.5057   25.8939 C   0  0  0  0  0  0  0  0  0  0  0  0
    7.0575  -12.7772   25.6107 C   0  0  1  0  0  0  0  0  0  0  0  0
    7.4472  -11.9230   26.7690 C   0  0  0  0  0  0  0  0  0  0  0  0
    8.1587  -13.6741   25.0952 C   0  0  2  0  0  0  0  0  0  0  0  0
    7.5919  -14.3419   23.9119 N   0  0  0  0  0  0  0  0  0  0  0  0
    8.5674  -14.7279   26.0395 C   0  0  0  0  0  0  0  0  0  0  0  0
    7.8255  -15.7521   26.2395 O   0  0  0  0  0  0  0  0  0  0  0  0
   13.2210  -17.6143   28.6907 N   0  0  0  0  0  0  0  0  0  0  0  0
   11.9255  -17.5148   28.1214 C   0  0  0  0  0  0  0  0  0  0  0  0
   11.1364  -18.4466   28.4144 O   0  0  0  0  0  0  0  0  0  0  0  0
   11.4648  -16.4431   27.2510 C   0  0  0  0  0  0  0  0  0  0  0  0
   10.1629  -15.8106   27.6700 C   0  0  2  0  0  0  0  0  0  0  0  0
    9.7709  -14.7234   26.7943 N   0  0  0  0  0  0  0  0  0  0  0  0
   10.1631  -15.4046   29.0922 C   0  0  0  0  0  0  0  0  0  0  0  0
    9.9035  -14.1045   29.4673 O   0  0  0  0  0  0  0  0  0  0  0  0
   10.4033  -16.2555   29.9737 O   0  0  0  0  0  0  0  0  0  0  0  0
  2  1  1  6
  2  3  1  0
  4  3  1  0
  5  9  1  0
  5  4  1  0
  6  5  2  0
  7  2  1  0
  7  8  2  0
 11 10  1  1
 11 13  1  0
 12 11  1  0
 13 14  1  6
 14  7  1  0
 15 16  2  0
 15 13  1  0
 18 19  2  0
 18 17  1  0
 20 18  1  0
 21 22  1  0
 21 20  1  6
 22 15  1  0
 23 21  1  0
 24 23  1  0
 25 23  2  0
M  END
$$$$
