EVN.pdb
     RDKit          3D

 25 24  0  0  1  0  0  0  0  0999 V2000
    8.8752  -17.2653   15.7669 N   0  0  0  0  0  0  0  0  0  0  0  0
    8.2475  -17.4896   17.0784 C   0  0  1  0  0  0  0  0  0  0  0  0
    8.5018  -18.9005   17.5245 C   0  0  0  0  0  0  0  0  0  0  0  0
    7.9083  -19.9250   16.5967 C   0  0  0  0  0  0  0  0  0  0  0  0
    8.1296  -21.3036   17.1474 C   0  0  0  0  0  0  0  0  0  0  0  0
    9.0377  -22.0256   16.6751 O   0  0  0  0  0  0  0  0  0  0  0  0
    8.8758  -16.5221   18.0006 C   0  0  0  0  0  0  0  0  0  0  0  0
   10.1128  -16.3033   17.9994 O   0  0  0  0  0  0  0  0  0  0  0  0
    7.3273  -21.7474   18.1634 O   0  0  0  0  0  0  0  0  0  0  0  0
    6.4821  -14.6011   20.9656 C   0  0  0  0  0  0  0  0  0  0  0  0
    7.6161  -13.8864   20.3002 C   0  0  1  0  0  0  0  0  0  0  0  0
    8.0673  -12.7281   21.1236 C   0  0  0  0  0  0  0  0  0  0  0  0
    8.7270  -14.8081   19.8538 C   0  0  2  0  0  0  0  0  0  0  0  0
    8.0854  -15.7793   18.9523 N   0  0  0  0  0  0  0  0  0  0  0  0
    9.3510  -15.5715   20.9478 C   0  0  0  0  0  0  0  0  0  0  0  0
    8.8956  -16.7184   21.2893 O   0  0  0  0  0  0  0  0  0  0  0  0
   13.9644  -17.8071   23.2392 N   0  0  0  0  0  0  0  0  0  0  0  0
   13.4922  -16.4960   23.5042 C   0  0  0  0  0  0  0  0  0  0  0  0
   13.8056  -16.0281   24.6265 O   0  0  0  0  0  0  0  0  0  0  0  0
   12.6967  -15.6843   22.5949 C   0  0  0  0  0  0  0  0  0  0  0  0
   11.2277  -16.0194   22.5770 C   0  0  2  0  0  0  0  0  0  0  0  0
   10.4719  -15.1399   21.7064 N   0  0  0  0  0  0  0  0  0  0  0  0
   10.6466  -16.0884   23.9353 C   0  0  0  0  0  0  0  0  0  0  0  0
    9.7917  -15.1131   24.4005 O   0  0  0  0  0  0  0  0  0  0  0  0
   10.9350  -17.0493   24.6784 O   0  0  0  0  0  0  0  0  0  0  0  0
  2  1  1  6
  2  3  1  0
  4  3  1  0
  5  9  1  0
  5  4  1  0
  6  5  2  0
  7  2  1  0
  7  8  2  0
 11 10  1  1
 11 13  1  0
 12 11  1  0
 13 14  1  6
 14  7  1  0
 15 16  2  0
 15 13  1  0
 18 19  2  0
 18 17  1  0
 20 18  1  0
 21 22  1  0
 21 20  1  1
 22 15  1  0
 23 21  1  0
 24 23  1  0
 25 23  2  0
M  END
$$$$
