EVN.pdb
     RDKit          3D

 25 24  0  0  1  0  0  0  0  0999 V2000
    9.3785  -16.9561   15.8513 N   0  0  0  0  0  0  0  0  0  0  0  0
    8.4311  -17.0381   16.9738 C   0  0  1  0  0  0  0  0  0  0  0  0
    8.2698  -18.4704   17.3941 C   0  0  0  0  0  0  0  0  0  0  0  0
    9.4898  -19.0213   18.0802 C   0  0  0  0  0  0  0  0  0  0  0  0
    9.2196  -20.4166   18.5628 C   0  0  0  0  0  0  0  0  0  0  0  0
    8.1128  -20.9542   18.3288 O   0  0  0  0  0  0  0  0  0  0  0  0
    9.0191  -16.2308   18.0619 C   0  0  0  0  0  0  0  0  0  0  0  0
   10.2589  -16.0633   18.1752 O   0  0  0  0  0  0  0  0  0  0  0  0
   10.1972  -21.0787   19.2551 O   0  0  0  0  0  0  0  0  0  0  0  0
    7.9424  -13.0542   21.7680 C   0  0  0  0  0  0  0  0  0  0  0  0
    7.6442  -13.8014   20.5061 C   0  0  1  0  0  0  0  0  0  0  0  0
    7.1297  -12.8787   19.4540 C   0  0  0  0  0  0  0  0  0  0  0  0
    8.7761  -14.6954   20.0562 C   0  0  2  0  0  0  0  0  0  0  0  0
    8.1840  -15.5936   19.0511 N   0  0  0  0  0  0  0  0  0  0  0  0
    9.3352  -15.5411   21.1246 C   0  0  0  0  0  0  0  0  0  0  0  0
    8.6747  -16.5363   21.5857 O   0  0  0  0  0  0  0  0  0  0  0  0
   13.9391  -14.9522   21.2110 N   0  0  0  0  0  0  0  0  0  0  0  0
   13.3860  -16.0528   21.9144 C   0  0  0  0  0  0  0  0  0  0  0  0
   13.6605  -17.1844   21.4442 O   0  0  0  0  0  0  0  0  0  0  0  0
   12.5509  -15.9628   23.1031 C   0  0  0  0  0  0  0  0  0  0  0  0
   11.0770  -16.1470   22.8496 C   0  0  2  0  0  0  0  0  0  0  0  0
   10.6066  -15.3543   21.7303 N   0  0  0  0  0  0  0  0  0  0  0  0
   10.2625  -15.9291   24.0647 C   0  0  0  0  0  0  0  0  0  0  0  0
    9.5773  -14.7510   24.2674 O   0  0  0  0  0  0  0  0  0  0  0  0
   10.1923  -16.8296   24.9266 O   0  0  0  0  0  0  0  0  0  0  0  0
  2  1  1  6
  2  3  1  0
  4  3  1  0
  5  9  1  0
  5  4  1  0
  6  5  2  0
  7  2  1  0
  7  8  2  0
 11 10  1  1
 11 13  1  0
 12 11  1  0
 13 14  1  6
 14  7  1  0
 15 16  2  0
 15 13  1  0
 18 19  2  0
 18 17  1  0
 20 18  1  0
 21 22  1  0
 21 20  1  1
 22 15  1  0
 23 21  1  0
 24 23  1  0
 25 23  2  0
M  END
$$$$
