EVN.pdb
     RDKit          3D

 25 24  0  0  1  0  0  0  0  0999 V2000
    8.7053  -17.3962   17.1631 N   0  0  0  0  0  0  0  0  0  0  0  0
    8.1588  -17.6978   18.4952 C   0  0  1  0  0  0  0  0  0  0  0  0
    8.3665  -19.1514   18.8084 C   0  0  0  0  0  0  0  0  0  0  0  0
    9.7673  -19.6188   18.5219 C   0  0  0  0  0  0  0  0  0  0  0  0
    9.9032  -21.0726   18.8693 C   0  0  0  0  0  0  0  0  0  0  0  0
   11.0006  -21.6534   18.7044 O   0  0  0  0  0  0  0  0  0  0  0  0
    8.9008  -16.8416   19.4426 C   0  0  0  0  0  0  0  0  0  0  0  0
   10.0781  -16.4635   19.2212 O   0  0  0  0  0  0  0  0  0  0  0  0
    8.8151  -21.7397   19.3635 O   0  0  0  0  0  0  0  0  0  0  0  0
    7.3527  -13.6598   20.8929 C   0  0  0  0  0  0  0  0  0  0  0  0
    7.9402  -14.4690   22.0063 C   0  0  1  0  0  0  0  0  0  0  0  0
    6.8658  -15.0758   22.8433 C   0  0  0  0  0  0  0  0  0  0  0  0
    9.0007  -15.4419   21.5462 C   0  0  2  0  0  0  0  0  0  0  0  0
    8.2970  -16.3986   20.6761 N   0  0  0  0  0  0  0  0  0  0  0  0
    9.6209  -16.2147   22.6358 C   0  0  0  0  0  0  0  0  0  0  0  0
    9.0903  -17.3033   23.0514 O   0  0  0  0  0  0  0  0  0  0  0  0
   13.6214  -17.5367   22.4259 N   0  0  0  0  0  0  0  0  0  0  0  0
   13.6349  -16.4577   23.3466 C   0  0  0  0  0  0  0  0  0  0  0  0
   14.3928  -15.5029   23.0451 O   0  0  0  0  0  0  0  0  0  0  0  0
   12.8569  -16.3845   24.5746 C   0  0  0  0  0  0  0  0  0  0  0  0
   11.3811  -16.6322   24.3977 C   0  0  2  0  0  0  0  0  0  0  0  0
   10.8176  -15.8544   23.3114 N   0  0  0  0  0  0  0  0  0  0  0  0
   10.6235  -16.4577   25.6558 C   0  0  0  0  0  0  0  0  0  0  0  0
   10.8562  -17.2609   26.7509 O   0  0  0  0  0  0  0  0  0  0  0  0
    9.7542  -15.5646   25.7304 O   0  0  0  0  0  0  0  0  0  0  0  0
  2  1  1  6
  2  3  1  0
  4  3  1  0
  5  9  1  0
  5  4  1  0
  6  5  2  0
  7  2  1  0
  7  8  2  0
 11 10  1  6
 11 13  1  0
 12 11  1  0
 13 14  1  6
 14  7  1  0
 15 16  2  0
 15 13  1  0
 18 19  2  0
 18 17  1  0
 20 18  1  0
 21 22  1  0
 21 20  1  1
 22 15  1  0
 23 21  1  0
 24 23  1  0
 25 23  2  0
M  END
$$$$
