EVN.pdb
     RDKit          3D

 25 24  0  0  1  0  0  0  0  0999 V2000
    7.7673  -14.5804   20.3882 N   0  0  0  0  0  0  0  0  0  0  0  0
    6.9616  -14.8735   21.5836 C   0  0  1  0  0  0  0  0  0  0  0  0
    6.6927  -16.3486   21.6613 C   0  0  0  0  0  0  0  0  0  0  0  0
    7.6327  -17.1616   20.8139 C   0  0  0  0  0  0  0  0  0  0  0  0
    7.8320  -18.5172   21.4266 C   0  0  0  0  0  0  0  0  0  0  0  0
    6.8692  -19.3147   21.5036 O   0  0  0  0  0  0  0  0  0  0  0  0
    7.7657  -14.4212   22.7369 C   0  0  0  0  0  0  0  0  0  0  0  0
    9.0208  -14.3810   22.7024 O   0  0  0  0  0  0  0  0  0  0  0  0
    9.0731  -18.8570   21.8928 O   0  0  0  0  0  0  0  0  0  0  0  0
    5.7933  -12.6729   26.0194 C   0  0  0  0  0  0  0  0  0  0  0  0
    7.2315  -12.3988   25.7094 C   0  0  1  0  0  0  0  0  0  0  0  0
    7.9165  -11.7800   26.8803 C   0  0  0  0  0  0  0  0  0  0  0  0
    7.9543  -13.5856   25.1160 C   0  0  2  0  0  0  0  0  0  0  0  0
    7.1355  -14.0017   23.9654 N   0  0  0  0  0  0  0  0  0  0  0  0
    8.0562  -14.7420   26.0224 C   0  0  0  0  0  0  0  0  0  0  0  0
    7.0575  -15.5224   26.2037 O   0  0  0  0  0  0  0  0  0  0  0  0
   10.5013  -19.3628   24.8705 N   0  0  0  0  0  0  0  0  0  0  0  0
    9.6792  -18.7237   25.8338 C   0  0  0  0  0  0  0  0  0  0  0  0
    9.3475  -19.4346   26.8143 O   0  0  0  0  0  0  0  0  0  0  0  0
    9.2104  -17.3475   25.7652 C   0  0  0  0  0  0  0  0  0  0  0  0
    9.6800  -16.4679   26.8950 C   0  0  2  0  0  0  0  0  0  0  0  0
    9.2173  -15.1005   26.7583 N   0  0  0  0  0  0  0  0  0  0  0  0
   11.1432  -16.5406   27.0979 C   0  0  0  0  0  0  0  0  0  0  0  0
   11.9543  -15.4506   26.8691 O   0  0  0  0  0  0  0  0  0  0  0  0
   11.6571  -17.6107   27.4846 O   0  0  0  0  0  0  0  0  0  0  0  0
  2  1  1  6
  2  3  1  0
  4  3  1  0
  5  9  1  0
  5  4  1  0
  6  5  2  0
  7  2  1  0
  7  8  2  0
 11 10  1  1
 11 13  1  0
 12 11  1  0
 13 14  1  6
 14  7  1  0
 15 16  2  0
 15 13  1  0
 18 19  2  0
 18 17  1  0
 20 18  1  0
 21 22  1  0
 21 20  1  6
 22 15  1  0
 23 21  1  0
 24 23  1  0
 25 23  2  0
M  END
$$$$
