EVN.pdb
     RDKit          3D

 25 24  0  0  1  0  0  0  0  0999 V2000
    7.8296  -14.3452   20.4125 N   0  0  0  0  0  0  0  0  0  0  0  0
    7.1546  -14.8504   21.6180 C   0  0  1  0  0  0  0  0  0  0  0  0
    7.1061  -16.3505   21.5778 C   0  0  0  0  0  0  0  0  0  0  0  0
    6.8149  -16.8913   20.2047 C   0  0  0  0  0  0  0  0  0  0  0  0
    6.7417  -18.3897   20.2495 C   0  0  0  0  0  0  0  0  0  0  0  0
    7.5518  -19.0741   19.5830 O   0  0  0  0  0  0  0  0  0  0  0  0
    7.9592  -14.3779   22.7628 C   0  0  0  0  0  0  0  0  0  0  0  0
    9.2151  -14.3676   22.7385 O   0  0  0  0  0  0  0  0  0  0  0  0
    5.7825  -18.9829   21.0250 O   0  0  0  0  0  0  0  0  0  0  0  0
    5.9463  -13.1633   26.2863 C   0  0  0  0  0  0  0  0  0  0  0  0
    7.2440  -12.5264   25.8990 C   0  0  1  0  0  0  0  0  0  0  0  0
    7.8942  -11.8897   27.0801 C   0  0  0  0  0  0  0  0  0  0  0  0
    8.1471  -13.4400   25.1036 C   0  0  2  0  0  0  0  0  0  0  0  0
    7.3287  -13.9028   23.9706 N   0  0  0  0  0  0  0  0  0  0  0  0
    8.5921  -14.6354   25.8399 C   0  0  0  0  0  0  0  0  0  0  0  0
    7.8059  -15.6319   26.0078 O   0  0  0  0  0  0  0  0  0  0  0  0
   13.2807  -18.0294   27.6278 N   0  0  0  0  0  0  0  0  0  0  0  0
   11.9918  -17.8578   27.0607 C   0  0  0  0  0  0  0  0  0  0  0  0
   11.2328  -18.8551   27.1388 O   0  0  0  0  0  0  0  0  0  0  0  0
   11.5062  -16.6462   26.4168 C   0  0  0  0  0  0  0  0  0  0  0  0
   10.3002  -16.0267   27.0742 C   0  0  2  0  0  0  0  0  0  0  0  0
    9.8796  -14.8051   26.4158 N   0  0  0  0  0  0  0  0  0  0  0  0
   10.4840  -15.8373   28.5294 C   0  0  0  0  0  0  0  0  0  0  0  0
   10.4474  -14.5837   29.1002 O   0  0  0  0  0  0  0  0  0  0  0  0
   10.6767  -16.8321   29.2587 O   0  0  0  0  0  0  0  0  0  0  0  0
  2  1  1  6
  2  3  1  0
  4  3  1  0
  5  9  1  0
  5  4  1  0
  6  5  2  0
  7  2  1  0
  7  8  2  0
 11 10  1  1
 11 13  1  0
 12 11  1  0
 13 14  1  6
 14  7  1  0
 15 16  2  0
 15 13  1  0
 18 19  2  0
 18 17  1  0
 20 18  1  0
 21 22  1  0
 21 20  1  6
 22 15  1  0
 23 21  1  0
 24 23  1  0
 25 23  2  0
M  END
$$$$
