HYY.pdb
     RDKit          3D

 35 37  0  0  1  0  0  0  0  0999 V2000
   27.7847  -19.7628  -16.8750 N   0  0  0  0  0  0  0  0  0  0  0  0
   26.5490  -20.4521  -17.1915 C   0  0  1  0  0  0  0  0  0  0  0  0
   26.8202  -21.6954  -18.0290 C   0  0  0  0  0  0  0  0  0  0  0  0
   27.5318  -21.2708  -19.2639 C   0  0  0  0  0  0  0  0  0  0  0  0
   28.6925  -21.8230  -19.7815 C   0  0  0  0  0  0  0  0  0  0  0  0
   28.9989  -21.1370  -20.9183 N   0  0  0  0  0  0  0  0  0  0  0  0
   28.0653  -20.1857  -21.1114 C   0  0  0  0  0  0  0  0  0  0  0  0
   27.1884  -20.2723  -20.1148 N   0  0  0  0  0  0  0  0  0  0  0  0
   25.7822  -20.7837  -15.9694 C   0  0  0  0  0  0  0  0  0  0  0  0
   25.4845  -21.9661  -15.6803 O   0  0  0  0  0  0  0  0  0  0  0  0
   30.3584  -21.4748  -11.2850 O   0  0  0  0  0  0  0  0  0  0  0  0
   29.1295  -20.9252  -11.6442 C   0  0  0  0  0  0  0  0  0  0  0  0
   29.0728  -19.9258  -12.5955 C   0  0  0  0  0  0  0  0  0  0  0  0
   27.8595  -19.3702  -12.9626 C   0  0  0  0  0  0  0  0  0  0  0  0
   26.6624  -19.7871  -12.3986 C   0  0  0  0  0  0  0  0  0  0  0  0
   25.3679  -19.2188  -12.7669 C   0  0  0  0  0  0  0  0  0  0  0  0
   24.6718  -19.9523  -13.8684 C   0  0  2  0  0  0  0  0  0  0  0  0
   25.3705  -19.7552  -15.1013 N   0  0  0  0  0  0  0  0  0  0  0  0
   23.2545  -19.4702  -13.9464 C   0  0  0  0  0  0  0  0  0  0  0  0
   22.9956  -18.3563  -14.4699 O   0  0  0  0  0  0  0  0  0  0  0  0
   26.7211  -20.7815  -11.4523 C   0  0  0  0  0  0  0  0  0  0  0  0
   27.9350  -21.3354  -11.0870 C   0  0  0  0  0  0  0  0  0  0  0  0
   20.3674  -24.3178  -18.0279 O   0  0  0  0  0  0  0  0  0  0  0  0
   20.3991  -23.1323  -17.2833 C   0  0  0  0  0  0  0  0  0  0  0  0
   19.2648  -22.6993  -16.6316 C   0  0  0  0  0  0  0  0  0  0  0  0
   19.2940  -21.5183  -15.8890 C   0  0  0  0  0  0  0  0  0  0  0  0
   20.4421  -20.7697  -15.7927 C   0  0  0  0  0  0  0  0  0  0  0  0
   20.5004  -19.5218  -15.0229 C   0  0  0  0  0  0  0  0  0  0  0  0
   20.7936  -19.7968  -13.5851 C   0  0  2  0  0  0  0  0  0  0  0  0
   22.1867  -20.2553  -13.4352 N   0  0  0  0  0  0  0  0  0  0  0  0
   19.8895  -20.7825  -12.9768 C   0  0  0  0  0  0  0  0  0  0  0  0
   18.5406  -20.4962  -12.8657 O   0  0  0  0  0  0  0  0  0  0  0  0
   21.5657  -21.2151  -16.4486 C   0  0  0  0  0  0  0  0  0  0  0  0
   21.5407  -22.3744  -17.1787 C   0  0  0  0  0  0  0  0  0  0  0  0
   20.2854  -21.8869  -12.5468 O   0  0  0  0  0  0  0  0  0  0  0  0
  2  1  1  1
  3  2  1  0
  4  5  2  0
  4  3  1  0
  6  5  1  0
  7  8  2  0
  7  6  1  0
  8  4  1  0
  9  2  1  0
 10  9  2  0
 12 11  1  0
 12 22  2  0
 13 12  1  0
 14 13  2  0
 14 15  1  0
 15 21  2  0
 16 15  1  0
 17 16  1  1
 17 18  1  0
 18  9  1  0
 19 20  2  0
 19 17  1  0
 21 22  1  0
 24 34  2  0
 24 23  1  0
 25 24  1  0
 26 27  1  0
 26 25  2  0
 27 33  2  0
 29 28  1  6
 28 27  1  0
 29 30  1  0
 30 19  1  0
 31 32  1  0
 31 29  1  0
 33 34  1  0
 35 31  2  0
M  END
$$$$
