HYY.pdb
     RDKit          3D

 35 37  0  0  1  0  0  0  0  0999 V2000
   20.8593   -2.5732  -19.5713 N   0  0  0  0  0  0  0  0  0  0  0  0
   21.0584   -4.0095  -19.5722 C   0  0  1  0  0  0  0  0  0  0  0  0
   21.5582   -4.4873  -20.9296 C   0  0  0  0  0  0  0  0  0  0  0  0
   20.4092   -4.4710  -21.8736 C   0  0  0  0  0  0  0  0  0  0  0  0
   19.1836   -5.0928  -21.6964 C   0  0  0  0  0  0  0  0  0  0  0  0
   18.4267   -4.8237  -22.7970 N   0  0  0  0  0  0  0  0  0  0  0  0
   19.1484   -4.0594  -23.6390 C   0  0  0  0  0  0  0  0  0  0  0  0
   20.3366   -3.8521  -23.0780 N   0  0  0  0  0  0  0  0  0  0  0  0
   21.9683   -4.4337  -18.4843 C   0  0  0  0  0  0  0  0  0  0  0  0
   23.1502   -4.0225  -18.4176 O   0  0  0  0  0  0  0  0  0  0  0  0
   21.6615    0.4093  -14.6826 O   0  0  0  0  0  0  0  0  0  0  0  0
   21.6667   -0.9801  -14.7853 C   0  0  0  0  0  0  0  0  0  0  0  0
   20.4771   -1.6647  -14.9374 C   0  0  0  0  0  0  0  0  0  0  0  0
   20.4663   -3.0448  -15.0408 C   0  0  0  0  0  0  0  0  0  0  0  0
   21.6347   -3.7917  -14.9968 C   0  0  0  0  0  0  0  0  0  0  0  0
   21.6531   -5.2487  -15.1035 C   0  0  0  0  0  0  0  0  0  0  0  0
   22.2715   -5.7593  -16.3655 C   0  0  2  0  0  0  0  0  0  0  0  0
   21.5080   -5.3207  -17.4932 N   0  0  0  0  0  0  0  0  0  0  0  0
   22.3502   -7.2544  -16.2917 C   0  0  0  0  0  0  0  0  0  0  0  0
   21.3092   -7.9476  -16.4240 O   0  0  0  0  0  0  0  0  0  0  0  0
   22.8172   -3.1086  -14.8455 C   0  0  0  0  0  0  0  0  0  0  0  0
   22.8255   -1.7292  -14.7423 C   0  0  0  0  0  0  0  0  0  0  0  0
   25.3943  -15.4865  -15.9533 O   0  0  0  0  0  0  0  0  0  0  0  0
   25.3116  -14.0886  -15.9430 C   0  0  0  0  0  0  0  0  0  0  0  0
   25.3539  -13.3888  -17.1293 C   0  0  0  0  0  0  0  0  0  0  0  0
   25.2717  -11.9958  -17.1215 C   0  0  0  0  0  0  0  0  0  0  0  0
   25.1483  -11.2996  -15.9434 C   0  0  0  0  0  0  0  0  0  0  0  0
   25.0645   -9.8350  -15.9049 C   0  0  0  0  0  0  0  0  0  0  0  0
   23.6443   -9.3812  -15.9823 C   0  0  2  0  0  0  0  0  0  0  0  0
   23.5910   -7.9107  -16.0729 N   0  0  0  0  0  0  0  0  0  0  0  0
   22.8195   -9.8286  -14.8516 C   0  0  0  0  0  0  0  0  0  0  0  0
   22.0161  -10.9461  -14.9911 O   0  0  0  0  0  0  0  0  0  0  0  0
   25.1074  -12.0123  -14.7680 C   0  0  0  0  0  0  0  0  0  0  0  0
   25.1878  -13.3802  -14.7719 C   0  0  0  0  0  0  0  0  0  0  0  0
   22.8073   -9.2393  -13.7499 O   0  0  0  0  0  0  0  0  0  0  0  0
  2  1  1  6
  3  2  1  0
  4  5  2  0
  4  3  1  0
  6  5  1  0
  7  8  2  0
  7  6  1  0
  8  4  1  0
  9  2  1  0
 10  9  2  0
 12 11  1  0
 12 22  2  0
 13 12  1  0
 14 13  2  0
 14 15  1  0
 15 21  2  0
 16 15  1  0
 17 16  1  1
 17 18  1  0
 18  9  1  0
 19 20  2  0
 19 17  1  0
 21 22  1  0
 24 34  2  0
 24 23  1  0
 25 24  1  0
 26 27  1  0
 26 25  2  0
 27 33  2  0
 29 28  1  1
 28 27  1  0
 29 30  1  0
 30 19  1  0
 31 32  1  0
 31 29  1  0
 33 34  1  0
 35 31  2  0
M  END
$$$$
