HYY.pdb
     RDKit          3D

 35 37  0  0  1  0  0  0  0  0999 V2000
   20.9339  -13.4349  -20.8093 N   0  0  0  0  0  0  0  0  0  0  0  0
   21.7872  -12.7737  -19.8412 C   0  0  1  0  0  0  0  0  0  0  0  0
   23.2572  -13.0188  -20.1567 C   0  0  0  0  0  0  0  0  0  0  0  0
   23.5283  -14.4706  -19.9827 C   0  0  0  0  0  0  0  0  0  0  0  0
   23.0298  -15.2917  -18.9840 C   0  0  0  0  0  0  0  0  0  0  0  0
   23.5267  -16.5423  -19.1981 N   0  0  0  0  0  0  0  0  0  0  0  0
   24.3109  -16.5120  -20.2927 C   0  0  0  0  0  0  0  0  0  0  0  0
   24.3068  -15.2656  -20.7578 N   0  0  0  0  0  0  0  0  0  0  0  0
   21.4902  -11.3262  -19.7526 C   0  0  0  0  0  0  0  0  0  0  0  0
   21.0552  -10.6827  -20.7360 O   0  0  0  0  0  0  0  0  0  0  0  0
   17.0601  -12.2230  -14.5669 O   0  0  0  0  0  0  0  0  0  0  0  0
   17.7563  -11.4463  -15.4906 C   0  0  0  0  0  0  0  0  0  0  0  0
   17.9334  -11.9034  -16.7816 C   0  0  0  0  0  0  0  0  0  0  0  0
   18.6227  -11.1431  -17.7103 C   0  0  0  0  0  0  0  0  0  0  0  0
   19.1591   -9.9045  -17.3895 C   0  0  0  0  0  0  0  0  0  0  0  0
   19.8909   -9.0808  -18.3490 C   0  0  0  0  0  0  0  0  0  0  0  0
   21.3737   -9.2684  -18.3068 C   0  0  2  0  0  0  0  0  0  0  0  0
   21.6968  -10.6425  -18.5398 N   0  0  0  0  0  0  0  0  0  0  0  0
   21.8808   -8.7929  -16.9787 C   0  0  0  0  0  0  0  0  0  0  0  0
   22.0569   -9.6125  -16.0411 O   0  0  0  0  0  0  0  0  0  0  0  0
   18.9819   -9.4515  -16.1045 C   0  0  0  0  0  0  0  0  0  0  0  0
   18.2926  -10.2132  -15.1781 C   0  0  0  0  0  0  0  0  0  0  0  0
   26.9551  -11.5630  -16.9102 O   0  0  0  0  0  0  0  0  0  0  0  0
   26.2850  -10.3698  -16.6129 C   0  0  0  0  0  0  0  0  0  0  0  0
   26.1242   -9.4103  -17.5888 C   0  0  0  0  0  0  0  0  0  0  0  0
   25.4568   -8.2205  -17.2949 C   0  0  0  0  0  0  0  0  0  0  0  0
   24.9513   -7.9828  -16.0396 C   0  0  0  0  0  0  0  0  0  0  0  0
   24.2495   -6.7393  -15.7011 C   0  0  0  0  0  0  0  0  0  0  0  0
   22.7930   -6.9907  -15.4908 C   0  0  2  0  0  0  0  0  0  0  0  0
   22.1695   -7.4199  -16.7559 N   0  0  0  0  0  0  0  0  0  0  0  0
   22.0648   -5.8305  -14.9593 C   0  0  0  0  0  0  0  0  0  0  0  0
   20.9899   -5.3169  -15.6626 O   0  0  0  0  0  0  0  0  0  0  0  0
   25.1199   -8.9500  -15.0767 C   0  0  0  0  0  0  0  0  0  0  0  0
   25.7746  -10.1195  -15.3617 C   0  0  0  0  0  0  0  0  0  0  0  0
   22.3735   -5.2742  -13.8839 O   0  0  0  0  0  0  0  0  0  0  0  0
  2  1  1  6
  3  2  1  0
  4  5  2  0
  4  3  1  0
  6  5  1  0
  7  8  2  0
  7  6  1  0
  8  4  1  0
  9  2  1  0
 10  9  2  0
 12 11  1  0
 12 22  2  0
 13 12  1  0
 14 13  2  0
 14 15  1  0
 15 21  2  0
 16 15  1  0
 17 16  1  1
 17 18  1  0
 18  9  1  0
 19 20  2  0
 19 17  1  0
 21 22  1  0
 24 34  2  0
 24 23  1  0
 25 24  1  0
 26 27  1  0
 26 25  2  0
 27 33  2  0
 29 28  1  6
 28 27  1  0
 29 30  1  0
 30 19  1  0
 31 32  1  0
 31 29  1  0
 33 34  1  0
 35 31  2  0
M  END
$$$$
