HYY.pdb
     RDKit          3D

 35 37  0  0  1  0  0  0  0  0999 V2000
   25.1536  -18.0179  -19.0687 N   0  0  0  0  0  0  0  0  0  0  0  0
   23.9619  -17.8850  -18.2534 C   0  0  1  0  0  0  0  0  0  0  0  0
   22.7362  -17.6299  -19.1212 C   0  0  0  0  0  0  0  0  0  0  0  0
   22.9446  -16.3471  -19.8442 C   0  0  0  0  0  0  0  0  0  0  0  0
   22.9819  -16.1678  -21.2177 C   0  0  0  0  0  0  0  0  0  0  0  0
   23.1939  -14.8421  -21.4505 N   0  0  0  0  0  0  0  0  0  0  0  0
   23.2872  -14.2070  -20.2665 C   0  0  0  0  0  0  0  0  0  0  0  0
   23.1365  -15.1166  -19.3075 N   0  0  0  0  0  0  0  0  0  0  0  0
   23.7661  -19.0635  -17.3792 C   0  0  0  0  0  0  0  0  0  0  0  0
   23.6455  -20.2186  -17.8498 O   0  0  0  0  0  0  0  0  0  0  0  0
   29.4489  -21.7379  -17.0296 O   0  0  0  0  0  0  0  0  0  0  0  0
   28.3184  -21.3128  -16.3350 C   0  0  0  0  0  0  0  0  0  0  0  0
   27.3672  -22.2317  -15.9379 C   0  0  0  0  0  0  0  0  0  0  0  0
   26.2390  -21.8246  -15.2472 C   0  0  0  0  0  0  0  0  0  0  0  0
   26.0168  -20.4930  -14.9273 C   0  0  0  0  0  0  0  0  0  0  0  0
   24.8357  -20.0350  -14.1994 C   0  0  0  0  0  0  0  0  0  0  0  0
   23.5968  -19.9615  -15.0333 C   0  0  2  0  0  0  0  0  0  0  0  0
   23.7120  -18.8974  -15.9826 N   0  0  0  0  0  0  0  0  0  0  0  0
   22.4174  -19.7760  -14.1268 C   0  0  0  0  0  0  0  0  0  0  0  0
   22.4960  -18.9984  -13.1414 O   0  0  0  0  0  0  0  0  0  0  0  0
   26.9645  -19.5803  -15.3233 C   0  0  0  0  0  0  0  0  0  0  0  0
   28.0913  -19.9896  -16.0136 C   0  0  0  0  0  0  0  0  0  0  0  0
   20.3436  -14.1630  -15.0568 O   0  0  0  0  0  0  0  0  0  0  0  0
   20.0010  -15.5018  -14.8301 C   0  0  0  0  0  0  0  0  0  0  0  0
   20.0758  -16.4143  -15.8600 C   0  0  0  0  0  0  0  0  0  0  0  0
   19.7349  -17.7489  -15.6365 C   0  0  0  0  0  0  0  0  0  0  0  0
   19.3217  -18.1771  -14.3981 C   0  0  0  0  0  0  0  0  0  0  0  0
   18.9527  -19.5729  -14.1356 C   0  0  0  0  0  0  0  0  0  0  0  0
   20.0603  -20.2946  -13.4421 C   0  0  2  0  0  0  0  0  0  0  0  0
   21.1996  -20.4689  -14.3614 N   0  0  0  0  0  0  0  0  0  0  0  0
   19.6656  -21.6037  -12.9040 C   0  0  0  0  0  0  0  0  0  0  0  0
   18.6941  -21.6746  -11.9217 O   0  0  0  0  0  0  0  0  0  0  0  0
   19.2523  -17.2545  -13.3807 C   0  0  0  0  0  0  0  0  0  0  0  0
   19.5863  -15.9432  -13.5965 C   0  0  0  0  0  0  0  0  0  0  0  0
   20.1729  -22.6759  -13.2965 O   0  0  0  0  0  0  0  0  0  0  0  0
  2  1  1  6
  3  2  1  0
  4  5  2  0
  4  3  1  0
  6  5  1  0
  7  8  2  0
  7  6  1  0
  8  4  1  0
  9  2  1  0
 10  9  2  0
 12 11  1  0
 12 22  2  0
 13 12  1  0
 14 13  2  0
 14 15  1  0
 15 21  2  0
 16 15  1  0
 17 16  1  1
 17 18  1  0
 18  9  1  0
 19 20  2  0
 19 17  1  0
 21 22  1  0
 24 34  2  0
 24 23  1  0
 25 24  1  0
 26 27  1  0
 26 25  2  0
 27 33  2  0
 29 28  1  6
 28 27  1  0
 29 30  1  0
 30 19  1  0
 31 32  1  0
 31 29  1  0
 33 34  1  0
 35 31  2  0
M  END
$$$$
