HYY.pdb
     RDKit          3D

 35 37  0  0  1  0  0  0  0  0999 V2000
   30.4169  -24.6843  -21.3529 N   0  0  0  0  0  0  0  0  0  0  0  0
   29.1619  -25.3711  -21.1165 C   0  0  1  0  0  0  0  0  0  0  0  0
   28.2748  -25.3218  -22.3539 C   0  0  0  0  0  0  0  0  0  0  0  0
   27.9612  -23.8960  -22.6375 C   0  0  0  0  0  0  0  0  0  0  0  0
   26.9832  -23.1267  -22.0278 C   0  0  0  0  0  0  0  0  0  0  0  0
   27.0367  -21.8836  -22.5834 N   0  0  0  0  0  0  0  0  0  0  0  0
   28.0135  -21.8685  -23.5106 C   0  0  0  0  0  0  0  0  0  0  0  0
   28.5635  -23.0795  -23.5372 N   0  0  0  0  0  0  0  0  0  0  0  0
   29.3801  -26.7643  -20.6664 C   0  0  0  0  0  0  0  0  0  0  0  0
   30.2723  -27.4861  -21.1699 O   0  0  0  0  0  0  0  0  0  0  0  0
   29.8478  -33.6692  -15.2968 O   0  0  0  0  0  0  0  0  0  0  0  0
   29.6868  -32.4189  -15.8900 C   0  0  0  0  0  0  0  0  0  0  0  0
   30.6515  -31.9351  -16.7516 C   0  0  0  0  0  0  0  0  0  0  0  0
   30.5055  -30.6949  -17.3484 C   0  0  0  0  0  0  0  0  0  0  0  0
   29.3983  -29.8935  -17.1106 C   0  0  0  0  0  0  0  0  0  0  0  0
   29.2181  -28.5809  -17.7266 C   0  0  0  0  0  0  0  0  0  0  0  0
   28.6905  -28.6314  -19.1247 C   0  0  2  0  0  0  0  0  0  0  0  0
   28.5728  -27.3051  -19.6482 N   0  0  0  0  0  0  0  0  0  0  0  0
   27.3735  -29.3473  -19.1161 C   0  0  0  0  0  0  0  0  0  0  0  0
   26.3211  -28.7274  -18.8160 O   0  0  0  0  0  0  0  0  0  0  0  0
   28.4396  -30.3766  -16.2531 C   0  0  0  0  0  0  0  0  0  0  0  0
   28.5877  -31.6165  -15.6577 C   0  0  0  0  0  0  0  0  0  0  0  0
   20.2344  -33.5962  -17.8675 O   0  0  0  0  0  0  0  0  0  0  0  0
   21.4546  -32.9159  -17.9643 C   0  0  0  0  0  0  0  0  0  0  0  0
   21.4685  -31.5636  -18.2292 C   0  0  0  0  0  0  0  0  0  0  0  0
   22.6831  -30.8836  -18.3261 C   0  0  0  0  0  0  0  0  0  0  0  0
   23.8785  -31.5406  -18.1615 C   0  0  0  0  0  0  0  0  0  0  0  0
   25.1704  -30.8521  -18.2627 C   0  0  0  0  0  0  0  0  0  0  0  0
   25.9960  -31.4292  -19.3646 C   0  0  2  0  0  0  0  0  0  0  0  0
   27.2899  -30.7271  -19.4436 N   0  0  0  0  0  0  0  0  0  0  0  0
   25.3391  -31.3866  -20.6783 C   0  0  0  0  0  0  0  0  0  0  0  0
   25.9642  -30.7492  -21.7351 O   0  0  0  0  0  0  0  0  0  0  0  0
   23.8480  -32.8900  -17.8977 C   0  0  0  0  0  0  0  0  0  0  0  0
   22.6571  -33.5610  -17.8018 C   0  0  0  0  0  0  0  0  0  0  0  0
   24.2235  -31.9068  -20.8926 O   0  0  0  0  0  0  0  0  0  0  0  0
  2  1  1  6
  3  2  1  0
  4  5  2  0
  4  3  1  0
  6  5  1  0
  7  8  2  0
  7  6  1  0
  8  4  1  0
  9  2  1  0
 10  9  2  0
 12 11  1  0
 12 22  2  0
 13 12  1  0
 14 13  2  0
 14 15  1  0
 15 21  2  0
 16 15  1  0
 17 16  1  1
 17 18  1  0
 18  9  1  0
 19 20  2  0
 19 17  1  0
 21 22  1  0
 24 34  2  0
 24 23  1  0
 25 24  1  0
 26 27  1  0
 26 25  2  0
 27 33  2  0
 29 28  1  1
 28 27  1  0
 29 30  1  0
 30 19  1  0
 31 32  1  0
 31 29  1  0
 33 34  1  0
 35 31  2  0
M  END
$$$$
