HYY.pdb
     RDKit          3D

 35 37  0  0  1  0  0  0  0  0999 V2000
   21.2597  -10.0864  -20.0135 N   0  0  0  0  0  0  0  0  0  0  0  0
   21.0238  -11.5040  -20.2065 C   0  0  1  0  0  0  0  0  0  0  0  0
   22.3373  -12.2517  -20.3971 C   0  0  0  0  0  0  0  0  0  0  0  0
   22.9486  -11.7884  -21.6711 C   0  0  0  0  0  0  0  0  0  0  0  0
   22.9625  -12.4691  -22.8780 C   0  0  0  0  0  0  0  0  0  0  0  0
   23.6232  -11.6889  -23.7788 N   0  0  0  0  0  0  0  0  0  0  0  0
   24.0125  -10.5562  -23.1629 C   0  0  0  0  0  0  0  0  0  0  0  0
   23.6041  -10.6232  -21.8986 N   0  0  0  0  0  0  0  0  0  0  0  0
   20.2331  -12.0805  -19.0957 C   0  0  0  0  0  0  0  0  0  0  0  0
   20.5652  -11.9177  -17.8983 O   0  0  0  0  0  0  0  0  0  0  0  0
   16.2504   -7.4638  -16.8010 O   0  0  0  0  0  0  0  0  0  0  0  0
   16.3924   -8.7774  -17.2428 C   0  0  0  0  0  0  0  0  0  0  0  0
   16.1431   -9.8260  -16.3795 C   0  0  0  0  0  0  0  0  0  0  0  0
   16.2799  -11.1362  -16.8040 C   0  0  0  0  0  0  0  0  0  0  0  0
   16.6683  -11.4500  -18.0984 C   0  0  0  0  0  0  0  0  0  0  0  0
   16.8206  -12.8232  -18.5735 C   0  0  0  0  0  0  0  0  0  0  0  0
   18.1958  -13.3815  -18.3922 C   0  0  2  0  0  0  0  0  0  0  0  0
   19.0771  -12.8326  -19.3765 N   0  0  0  0  0  0  0  0  0  0  0  0
   18.1231  -14.8763  -18.4791 C   0  0  0  0  0  0  0  0  0  0  0  0
   18.4220  -15.4605  -19.5520 O   0  0  0  0  0  0  0  0  0  0  0  0
   16.9159  -10.4053  -18.9557 C   0  0  0  0  0  0  0  0  0  0  0  0
   16.7786   -9.0965  -18.5292 C   0  0  0  0  0  0  0  0  0  0  0  0
   19.2539  -17.8874  -11.3537 O   0  0  0  0  0  0  0  0  0  0  0  0
   19.1812  -17.8435  -12.7515 C   0  0  0  0  0  0  0  0  0  0  0  0
   18.4716  -18.8080  -13.4335 C   0  0  0  0  0  0  0  0  0  0  0  0
   18.3977  -18.7663  -14.8264 C   0  0  0  0  0  0  0  0  0  0  0  0
   19.0244  -17.7735  -15.5401 C   0  0  0  0  0  0  0  0  0  0  0  0
   18.9676  -17.7076  -17.0049 C   0  0  0  0  0  0  0  0  0  0  0  0
   17.6713  -17.1243  -17.4614 C   0  0  2  0  0  0  0  0  0  0  0  0
   17.7189  -15.6542  -17.3613 N   0  0  0  0  0  0  0  0  0  0  0  0
   16.5057  -17.6243  -16.7195 C   0  0  0  0  0  0  0  0  0  0  0  0
   16.1254  -18.9476  -16.8545 O   0  0  0  0  0  0  0  0  0  0  0  0
   19.7285  -16.8184  -14.8450 C   0  0  0  0  0  0  0  0  0  0  0  0
   19.8031  -16.8561  -13.4773 C   0  0  0  0  0  0  0  0  0  0  0  0
   15.8283  -16.9008  -15.9588 O   0  0  0  0  0  0  0  0  0  0  0  0
  2  1  1  1
  3  2  1  0
  4  5  2  0
  4  3  1  0
  6  5  1  0
  7  8  2  0
  7  6  1  0
  8  4  1  0
  9  2  1  0
 10  9  2  0
 12 11  1  0
 12 22  2  0
 13 12  1  0
 14 13  2  0
 14 15  1  0
 15 21  2  0
 16 15  1  0
 17 16  1  6
 17 18  1  0
 18  9  1  0
 19 20  2  0
 19 17  1  0
 21 22  1  0
 24 34  2  0
 24 23  1  0
 25 24  1  0
 26 27  1  0
 26 25  2  0
 27 33  2  0
 29 28  1  1
 28 27  1  0
 29 30  1  0
 30 19  1  0
 31 32  1  0
 31 29  1  0
 33 34  1  0
 35 31  2  0
M  END
$$$$
