HYY.pdb
     RDKit          3D

 35 37  0  0  1  0  0  0  0  0999 V2000
   21.3006  -12.0837  -19.4042 N   0  0  0  0  0  0  0  0  0  0  0  0
   21.7768  -10.8209  -18.8740 C   0  0  1  0  0  0  0  0  0  0  0  0
   22.3679   -9.9562  -19.9801 C   0  0  0  0  0  0  0  0  0  0  0  0
   23.5081  -10.6971  -20.5823 C   0  0  0  0  0  0  0  0  0  0  0  0
   23.6155  -11.1257  -21.8956 C   0  0  0  0  0  0  0  0  0  0  0  0
   24.8149  -11.7601  -22.0210 N   0  0  0  0  0  0  0  0  0  0  0  0
   25.4424  -11.7331  -20.8296 C   0  0  0  0  0  0  0  0  0  0  0  0
   24.6521  -11.0937  -19.9715 N   0  0  0  0  0  0  0  0  0  0  0  0
   20.7108  -10.1016  -18.1408 C   0  0  0  0  0  0  0  0  0  0  0  0
   19.6569   -9.7312  -18.7086 O   0  0  0  0  0  0  0  0  0  0  0  0
   16.5068  -14.7107  -16.1844 O   0  0  0  0  0  0  0  0  0  0  0  0
   17.2548  -13.5872  -15.8389 C   0  0  0  0  0  0  0  0  0  0  0  0
   18.6344  -13.6415  -15.8686 C   0  0  0  0  0  0  0  0  0  0  0  0
   19.3909  -12.5337  -15.5281 C   0  0  0  0  0  0  0  0  0  0  0  0
   18.8045  -11.3354  -15.1469 C   0  0  0  0  0  0  0  0  0  0  0  0
   19.5779  -10.1507  -14.7826 C   0  0  0  0  0  0  0  0  0  0  0  0
   19.8710   -9.2379  -15.9301 C   0  0  2  0  0  0  0  0  0  0  0  0
   20.8713   -9.8200  -16.7711 N   0  0  0  0  0  0  0  0  0  0  0  0
   20.3012   -7.9079  -15.3888 C   0  0  0  0  0  0  0  0  0  0  0  0
   21.5081   -7.7064  -15.0976 O   0  0  0  0  0  0  0  0  0  0  0  0
   17.4318  -11.2835  -15.1180 C   0  0  0  0  0  0  0  0  0  0  0  0
   16.6778  -12.3921  -15.4588 C   0  0  0  0  0  0  0  0  0  0  0  0
   22.4048    0.2488  -14.3113 O   0  0  0  0  0  0  0  0  0  0  0  0
   22.0245   -1.0540  -14.6565 C   0  0  0  0  0  0  0  0  0  0  0  0
   21.0776   -1.2566  -15.6369 C   0  0  0  0  0  0  0  0  0  0  0  0
   20.6970   -2.5538  -15.9827 C   0  0  0  0  0  0  0  0  0  0  0  0
   21.2522   -3.6453  -15.3595 C   0  0  0  0  0  0  0  0  0  0  0  0
   20.8678   -5.0201  -15.6994 C   0  0  0  0  0  0  0  0  0  0  0  0
   19.8204   -5.5264  -14.7637 C   0  0  2  0  0  0  0  0  0  0  0  0
   19.3624   -6.8593  -15.1961 N   0  0  0  0  0  0  0  0  0  0  0  0
   18.6616   -4.6322  -14.6359 C   0  0  0  0  0  0  0  0  0  0  0  0
   17.6028   -4.7545  -15.5179 O   0  0  0  0  0  0  0  0  0  0  0  0
   22.1958   -3.4266  -14.3833 C   0  0  0  0  0  0  0  0  0  0  0  0
   22.5720   -2.1541  -14.0413 C   0  0  0  0  0  0  0  0  0  0  0  0
   18.5830   -3.7504  -13.7541 O   0  0  0  0  0  0  0  0  0  0  0  0
  2  1  1  6
  3  2  1  0
  4  5  2  0
  4  3  1  0
  6  5  1  0
  7  8  2  0
  7  6  1  0
  8  4  1  0
  9  2  1  0
 10  9  2  0
 12 11  1  0
 12 22  2  0
 13 12  1  0
 14 13  2  0
 14 15  1  0
 15 21  2  0
 16 15  1  0
 17 16  1  1
 17 18  1  0
 18  9  1  0
 19 20  2  0
 19 17  1  0
 21 22  1  0
 24 34  2  0
 24 23  1  0
 25 24  1  0
 26 27  1  0
 26 25  2  0
 27 33  2  0
 29 28  1  6
 28 27  1  0
 29 30  1  0
 30 19  1  0
 31 32  1  0
 31 29  1  0
 33 34  1  0
 35 31  2  0
M  END
$$$$
