HYY.pdb
     RDKit          3D

 35 37  0  0  1  0  0  0  0  0999 V2000
   16.3847  -18.4175    4.9117 N   0  0  0  0  0  0  0  0  0  0  0  0
   16.3642  -17.5620    6.0823 C   0  0  1  0  0  0  0  0  0  0  0  0
   16.1124  -18.3760    7.3451 C   0  0  0  0  0  0  0  0  0  0  0  0
   14.7292  -18.9176    7.2739 C   0  0  0  0  0  0  0  0  0  0  0  0
   13.8183  -18.7290    6.2468 C   0  0  0  0  0  0  0  0  0  0  0  0
   12.6789  -19.3956    6.5845 N   0  0  0  0  0  0  0  0  0  0  0  0
   12.8636  -19.9841    7.7818 C   0  0  0  0  0  0  0  0  0  0  0  0
   14.0961  -19.6928    8.1890 N   0  0  0  0  0  0  0  0  0  0  0  0
   17.6061  -16.7643    6.1954 C   0  0  0  0  0  0  0  0  0  0  0  0
   18.7145  -17.2171    5.8259 O   0  0  0  0  0  0  0  0  0  0  0  0
   22.4804   -9.4218    7.1835 O   0  0  0  0  0  0  0  0  0  0  0  0
   21.4383  -10.3440    7.1144 C   0  0  0  0  0  0  0  0  0  0  0  0
   20.7518  -10.6957    8.2599 C   0  0  0  0  0  0  0  0  0  0  0  0
   19.7144  -11.6103    8.2070 C   0  0  0  0  0  0  0  0  0  0  0  0
   19.3234  -12.2064    7.0168 C   0  0  0  0  0  0  0  0  0  0  0  0
   18.2325  -13.1745    6.9316 C   0  0  0  0  0  0  0  0  0  0  0  0
   18.6840  -14.5995    6.8953 C   0  0  2  0  0  0  0  0  0  0  0  0
   17.5555  -15.4631    6.7296 N   0  0  0  0  0  0  0  0  0  0  0  0
   19.4352  -14.8980    8.1578 C   0  0  0  0  0  0  0  0  0  0  0  0
   18.8129  -15.2448    9.1943 O   0  0  0  0  0  0  0  0  0  0  0  0
   20.0078  -11.8552    5.8783 C   0  0  0  0  0  0  0  0  0  0  0  0
   21.0444  -10.9408    5.9336 C   0  0  0  0  0  0  0  0  0  0  0  0
   20.2525  -21.0999    7.5218 O   0  0  0  0  0  0  0  0  0  0  0  0
   20.8394  -19.8897    7.9118 C   0  0  0  0  0  0  0  0  0  0  0  0
   20.8969  -19.5525    9.2466 C   0  0  0  0  0  0  0  0  0  0  0  0
   21.4813  -18.3471    9.6377 C   0  0  0  0  0  0  0  0  0  0  0  0
   22.0060  -17.4800    8.7101 C   0  0  0  0  0  0  0  0  0  0  0  0
   22.6220  -16.2040    9.0921 C   0  0  0  0  0  0  0  0  0  0  0  0
   21.5795  -15.1891    9.4268 C   0  0  2  0  0  0  0  0  0  0  0  0
   20.8512  -14.7959    8.2069 N   0  0  0  0  0  0  0  0  0  0  0  0
   22.1147  -13.9877   10.0818 C   0  0  0  0  0  0  0  0  0  0  0  0
   22.6852  -14.0902   11.3380 O   0  0  0  0  0  0  0  0  0  0  0  0
   21.9410  -17.8308    7.3820 C   0  0  0  0  0  0  0  0  0  0  0  0
   21.3680  -19.0137    6.9944 C   0  0  0  0  0  0  0  0  0  0  0  0
   22.0797  -12.8570    9.5513 O   0  0  0  0  0  0  0  0  0  0  0  0
  2  1  1  6
  3  2  1  0
  4  5  2  0
  4  3  1  0
  6  5  1  0
  7  8  2  0
  7  6  1  0
  8  4  1  0
  9  2  1  0
 10  9  2  0
 12 11  1  0
 12 22  2  0
 13 12  1  0
 14 13  2  0
 14 15  1  0
 15 21  2  0
 16 15  1  0
 17 16  1  1
 17 18  1  0
 18  9  1  0
 19 20  2  0
 19 17  1  0
 21 22  1  0
 24 34  2  0
 24 23  1  0
 25 24  1  0
 26 27  1  0
 26 25  2  0
 27 33  2  0
 29 28  1  6
 28 27  1  0
 29 30  1  0
 30 19  1  0
 31 32  1  0
 31 29  1  0
 33 34  1  0
 35 31  2  0
M  END
$$$$
