HYY.pdb
     RDKit          3D

 35 37  0  0  1  0  0  0  0  0999 V2000
   28.7765  -17.4662  -19.5647 N   0  0  0  0  0  0  0  0  0  0  0  0
   28.3381  -18.6339  -18.8251 C   0  0  1  0  0  0  0  0  0  0  0  0
   29.5147  -19.5471  -18.5054 C   0  0  0  0  0  0  0  0  0  0  0  0
   30.0743  -20.0420  -19.7913 C   0  0  0  0  0  0  0  0  0  0  0  0
   31.2831  -19.6778  -20.3625 C   0  0  0  0  0  0  0  0  0  0  0  0
   31.4043  -20.3645  -21.5332 N   0  0  0  0  0  0  0  0  0  0  0  0
   30.3114  -21.1346  -21.6954 C   0  0  0  0  0  0  0  0  0  0  0  0
   29.5180  -20.9357  -20.6463 N   0  0  0  0  0  0  0  0  0  0  0  0
   27.6017  -18.2560  -17.5977 C   0  0  0  0  0  0  0  0  0  0  0  0
   28.0622  -17.4202  -16.7855 O   0  0  0  0  0  0  0  0  0  0  0  0
   22.5673  -16.2928  -21.6010 O   0  0  0  0  0  0  0  0  0  0  0  0
   23.1681  -16.4739  -20.3571 C   0  0  0  0  0  0  0  0  0  0  0  0
   22.4476  -17.0282  -19.3176 C   0  0  0  0  0  0  0  0  0  0  0  0
   23.0308  -17.2143  -18.0762 C   0  0  0  0  0  0  0  0  0  0  0  0
   24.3476  -16.8570  -17.8247 C   0  0  0  0  0  0  0  0  0  0  0  0
   24.9887  -17.0419  -16.5250 C   0  0  0  0  0  0  0  0  0  0  0  0
   25.4673  -18.4362  -16.2747 C   0  0  2  0  0  0  0  0  0  0  0  0
   26.3519  -18.8422  -17.3233 N   0  0  0  0  0  0  0  0  0  0  0  0
   24.2770  -19.3410  -16.1665 C   0  0  0  0  0  0  0  0  0  0  0  0
   23.8131  -19.8978  -17.1944 O   0  0  0  0  0  0  0  0  0  0  0  0
   25.0626  -16.3056  -18.8603 C   0  0  0  0  0  0  0  0  0  0  0  0
   24.4776  -16.1206  -20.1002 C   0  0  0  0  0  0  0  0  0  0  0  0
   17.5086  -23.9638  -13.0141 O   0  0  0  0  0  0  0  0  0  0  0  0
   18.6704  -23.1879  -13.1111 C   0  0  0  0  0  0  0  0  0  0  0  0
   18.6256  -21.8431  -12.8140 C   0  0  0  0  0  0  0  0  0  0  0  0
   19.7820  -21.0679  -12.9099 C   0  0  0  0  0  0  0  0  0  0  0  0
   20.9772  -21.6230  -13.2985 C   0  0  0  0  0  0  0  0  0  0  0  0
   22.2075  -20.8313  -13.4125 C   0  0  0  0  0  0  0  0  0  0  0  0
   22.4631  -20.4468  -14.8322 C   0  0  2  0  0  0  0  0  0  0  0  0
   23.6561  -19.5844  -14.9122 N   0  0  0  0  0  0  0  0  0  0  0  0
   21.3286  -19.7674  -15.4728 C   0  0  0  0  0  0  0  0  0  0  0  0
   21.2200  -18.3908  -15.3891 O   0  0  0  0  0  0  0  0  0  0  0  0
   21.0057  -22.9664  -13.5915 C   0  0  0  0  0  0  0  0  0  0  0  0
   19.8721  -23.7306  -13.4983 C   0  0  0  0  0  0  0  0  0  0  0  0
   20.4406  -20.3822  -16.1010 O   0  0  0  0  0  0  0  0  0  0  0  0
  2  1  1  1
  3  2  1  0
  4  5  2  0
  4  3  1  0
  6  5  1  0
  7  8  2  0
  7  6  1  0
  8  4  1  0
  9  2  1  0
 10  9  2  0
 12 11  1  0
 12 22  2  0
 13 12  1  0
 14 13  2  0
 14 15  1  0
 15 21  2  0
 16 15  1  0
 17 16  1  6
 17 18  1  0
 18  9  1  0
 19 20  2  0
 19 17  1  0
 21 22  1  0
 24 34  2  0
 24 23  1  0
 25 24  1  0
 26 27  1  0
 26 25  2  0
 27 33  2  0
 29 28  1  1
 28 27  1  0
 29 30  1  0
 30 19  1  0
 31 32  1  0
 31 29  1  0
 33 34  1  0
 35 31  2  0
M  END
$$$$
