HYY.pdb
     RDKit          3D

 35 37  0  0  1  0  0  0  0  0999 V2000
   34.3354  -35.1808  -16.3238 N   0  0  0  0  0  0  0  0  0  0  0  0
   34.3071  -34.4010  -15.1017 C   0  0  1  0  0  0  0  0  0  0  0  0
   32.9429  -33.7527  -14.9031 C   0  0  0  0  0  0  0  0  0  0  0  0
   32.7263  -32.7892  -16.0150 C   0  0  0  0  0  0  0  0  0  0  0  0
   33.6412  -31.8705  -16.5040 C   0  0  0  0  0  0  0  0  0  0  0  0
   33.0352  -31.1917  -17.5183 N   0  0  0  0  0  0  0  0  0  0  0  0
   31.7828  -31.6648  -17.6646 C   0  0  0  0  0  0  0  0  0  0  0  0
   31.6048  -32.6230  -16.7592 N   0  0  0  0  0  0  0  0  0  0  0  0
   34.6914  -35.2158  -13.9270 C   0  0  0  0  0  0  0  0  0  0  0  0
   34.1698  -36.3329  -13.7024 O   0  0  0  0  0  0  0  0  0  0  0  0
   39.8205  -37.9361   -7.2455 O   0  0  0  0  0  0  0  0  0  0  0  0
   39.2547  -37.2205   -8.2986 C   0  0  0  0  0  0  0  0  0  0  0  0
   39.2997  -37.7302   -9.5812 C   0  0  0  0  0  0  0  0  0  0  0  0
   38.7421  -37.0309  -10.6375 C   0  0  0  0  0  0  0  0  0  0  0  0
   38.1215  -35.8033  -10.4569 C   0  0  0  0  0  0  0  0  0  0  0  0
   37.5246  -35.0436  -11.5529 C   0  0  0  0  0  0  0  0  0  0  0  0
   36.1110  -35.4232  -11.8582 C   0  0  2  0  0  0  0  0  0  0  0  0
   35.6656  -34.7363  -13.0315 N   0  0  0  0  0  0  0  0  0  0  0  0
   35.2593  -35.1034  -10.6667 C   0  0  0  0  0  0  0  0  0  0  0  0
   34.8804  -33.9218  -10.4618 O   0  0  0  0  0  0  0  0  0  0  0  0
   38.0778  -35.2980   -9.1799 C   0  0  0  0  0  0  0  0  0  0  0  0
   38.6359  -35.9987   -8.1258 C   0  0  0  0  0  0  0  0  0  0  0  0
   29.5821  -33.8750   -4.4943 O   0  0  0  0  0  0  0  0  0  0  0  0
   30.3578  -34.2207   -5.6078 C   0  0  0  0  0  0  0  0  0  0  0  0
   30.3643  -35.5209   -6.0641 C   0  0  0  0  0  0  0  0  0  0  0  0
   31.1365  -35.8678   -7.1734 C   0  0  0  0  0  0  0  0  0  0  0  0
   31.8988  -34.9304   -7.8275 C   0  0  0  0  0  0  0  0  0  0  0  0
   32.7238  -35.2676   -8.9933 C   0  0  0  0  0  0  0  0  0  0  0  0
   34.0607  -35.7790   -8.5690 C   0  0  2  0  0  0  0  0  0  0  0  0
   34.8677  -36.1198   -9.7548 N   0  0  0  0  0  0  0  0  0  0  0  0
   33.9905  -36.9449   -7.6776 C   0  0  0  0  0  0  0  0  0  0  0  0
   34.6208  -38.1219   -8.0401 O   0  0  0  0  0  0  0  0  0  0  0  0
   31.8817  -33.6372   -7.3600 C   0  0  0  0  0  0  0  0  0  0  0  0
   31.1246  -33.2930   -6.2710 C   0  0  0  0  0  0  0  0  0  0  0  0
   33.3787  -36.9263   -6.5883 O   0  0  0  0  0  0  0  0  0  0  0  0
  2  1  1  6
  3  2  1  0
  4  5  2  0
  4  3  1  0
  6  5  1  0
  7  8  2  0
  7  6  1  0
  8  4  1  0
  9  2  1  0
 10  9  2  0
 12 11  1  0
 12 22  2  0
 13 12  1  0
 14 13  2  0
 14 15  1  0
 15 21  2  0
 16 15  1  0
 17 16  1  1
 17 18  1  0
 18  9  1  0
 19 20  2  0
 19 17  1  0
 21 22  1  0
 24 34  2  0
 24 23  1  0
 25 24  1  0
 26 27  1  0
 26 25  2  0
 27 33  2  0
 29 28  1  6
 28 27  1  0
 29 30  1  0
 30 19  1  0
 31 32  1  0
 31 29  1  0
 33 34  1  0
 35 31  2  0
M  END
$$$$
