HYY.pdb
     RDKit          3D

 35 37  0  0  1  0  0  0  0  0999 V2000
   33.0332  -29.3527  -19.3018 N   0  0  0  0  0  0  0  0  0  0  0  0
   32.1992  -30.3879  -18.7228 C   0  0  1  0  0  0  0  0  0  0  0  0
   32.7898  -30.8906  -17.4116 C   0  0  0  0  0  0  0  0  0  0  0  0
   34.0795  -31.5649  -17.7177 C   0  0  0  0  0  0  0  0  0  0  0  0
   34.2516  -32.7280  -18.4510 C   0  0  0  0  0  0  0  0  0  0  0  0
   35.5878  -32.9928  -18.4882 N   0  0  0  0  0  0  0  0  0  0  0  0
   36.2361  -32.0315  -17.8031 C   0  0  0  0  0  0  0  0  0  0  0  0
   35.3244  -31.1784  -17.3438 N   0  0  0  0  0  0  0  0  0  0  0  0
   30.8045  -29.9258  -18.5421 C   0  0  0  0  0  0  0  0  0  0  0  0
   30.5422  -28.7732  -18.1262 O   0  0  0  0  0  0  0  0  0  0  0  0
   29.4370  -25.9116  -23.2374 O   0  0  0  0  0  0  0  0  0  0  0  0
   29.0381  -27.0175  -22.4898 C   0  0  0  0  0  0  0  0  0  0  0  0
   27.9491  -26.9229  -21.6460 C   0  0  0  0  0  0  0  0  0  0  0  0
   27.5409  -28.0129  -20.8970 C   0  0  0  0  0  0  0  0  0  0  0  0
   28.1991  -29.2326  -20.9600 C   0  0  0  0  0  0  0  0  0  0  0  0
   27.7904  -30.3993  -20.1813 C   0  0  0  0  0  0  0  0  0  0  0  0
   28.3518  -30.4340  -18.7959 C   0  0  2  0  0  0  0  0  0  0  0  0
   29.7362  -30.7921  -18.8410 N   0  0  0  0  0  0  0  0  0  0  0  0
   27.5512  -31.4011  -17.9768 C   0  0  0  0  0  0  0  0  0  0  0  0
   28.1166  -32.3813  -17.4280 O   0  0  0  0  0  0  0  0  0  0  0  0
   29.2824  -29.3246  -21.8002 C   0  0  0  0  0  0  0  0  0  0  0  0
   29.6885  -28.2338  -22.5478 C   0  0  0  0  0  0  0  0  0  0  0  0
   23.0709  -35.4563  -12.0404 O   0  0  0  0  0  0  0  0  0  0  0  0
   23.7796  -34.6088  -12.9009 C   0  0  0  0  0  0  0  0  0  0  0  0
   23.4526  -33.2720  -12.9722 C   0  0  0  0  0  0  0  0  0  0  0  0
   24.1573  -32.4255  -13.8290 C   0  0  0  0  0  0  0  0  0  0  0  0
   25.1814  -32.9016  -14.6115 C   0  0  0  0  0  0  0  0  0  0  0  0
   25.9363  -32.0357  -15.5245 C   0  0  0  0  0  0  0  0  0  0  0  0
   25.3991  -32.1310  -16.9142 C   0  0  2  0  0  0  0  0  0  0  0  0
   26.1512  -31.2302  -17.8065 N   0  0  0  0  0  0  0  0  0  0  0  0
   23.9648  -31.8278  -17.0143 C   0  0  0  0  0  0  0  0  0  0  0  0
   23.0392  -32.8467  -16.8761 O   0  0  0  0  0  0  0  0  0  0  0  0
   25.4958  -34.2379  -14.5290 C   0  0  0  0  0  0  0  0  0  0  0  0
   24.8059  -35.0720  -13.6888 C   0  0  0  0  0  0  0  0  0  0  0  0
   23.5313  -30.6745  -17.2217 O   0  0  0  0  0  0  0  0  0  0  0  0
  2  1  1  1
  3  2  1  0
  4  5  2  0
  4  3  1  0
  6  5  1  0
  7  8  2  0
  7  6  1  0
  8  4  1  0
  9  2  1  0
 10  9  2  0
 12 11  1  0
 12 22  2  0
 13 12  1  0
 14 13  2  0
 14 15  1  0
 15 21  2  0
 16 15  1  0
 17 16  1  6
 17 18  1  0
 18  9  1  0
 19 20  2  0
 19 17  1  0
 21 22  1  0
 24 34  2  0
 24 23  1  0
 25 24  1  0
 26 27  1  0
 26 25  2  0
 27 33  2  0
 29 28  1  1
 28 27  1  0
 29 30  1  0
 30 19  1  0
 31 32  1  0
 31 29  1  0
 33 34  1  0
 35 31  2  0
M  END
$$$$
