FDE.pdb
     RDKit          3D

 29 29  0  0  1  0  0  0  0  0999 V2000
   23.6305  -32.8788   -1.2891 N   0  0  0  0  0  0  0  0  0  0  0  0
   25.0121  -32.5445   -1.4346 C   0  0  1  0  0  0  0  0  0  0  0  0
   25.3955  -31.3324   -0.6178 C   0  0  0  0  0  0  0  0  0  0  0  0
   24.6731  -30.1749   -1.2120 C   0  0  0  0  0  0  0  0  0  0  0  0
   23.5197  -29.6783   -0.6123 C   0  0  0  0  0  0  0  0  0  0  0  0
   22.8317  -28.6103   -1.1400 C   0  0  0  0  0  0  0  0  0  0  0  0
   23.2619  -27.9851   -2.2933 C   0  0  0  0  0  0  0  0  0  0  0  0
   24.3993  -28.4641   -2.8969 C   0  0  0  0  0  0  0  0  0  0  0  0
   25.0866  -29.5339   -2.3665 C   0  0  0  0  0  0  0  0  0  0  0  0
   25.8620  -33.7132   -1.1683 C   0  0  0  0  0  0  0  0  0  0  0  0
   25.5611  -34.4446   -0.1892 O   0  0  0  0  0  0  0  0  0  0  0  0
   26.9973  -34.0571   -1.9542 N   0  0  0  0  0  0  0  0  0  0  0  0
   27.7891  -35.1878   -1.5942 C   0  0  1  0  0  0  0  0  0  0  0  0
   28.7293  -35.6128   -2.7138 C   0  0  0  0  0  0  0  0  0  0  0  0
   27.9580  -36.0667   -3.8681 C   0  0  0  0  0  0  0  0  0  0  0  0
   26.8076  -36.5638   -3.7985 O   0  0  0  0  0  0  0  0  0  0  0  0
   28.4974  -35.0421   -0.3119 C   0  0  0  0  0  0  0  0  0  0  0  0
   29.1840  -34.0173   -0.1046 O   0  0  0  0  0  0  0  0  0  0  0  0
   28.5250  -35.9454   -5.1334 O   0  0  0  0  0  0  0  0  0  0  0  0
   28.4044  -36.0426    0.6708 N   0  0  0  0  0  0  0  0  0  0  0  0
   29.1119  -36.0012    1.9452 C   0  0  1  0  0  0  0  0  0  0  0  0
   28.2363  -36.4290    3.0723 C   0  0  0  0  0  0  0  0  0  0  0  0
   27.1624  -35.4576    3.4662 C   0  0  0  0  0  0  0  0  0  0  0  0
   26.8921  -35.3893    4.9086 C   0  0  0  0  0  0  0  0  0  0  0  0
   26.1340  -34.4853    5.3983 O   0  0  0  0  0  0  0  0  0  0  0  0
   30.3964  -36.7323    1.8651 C   0  0  0  0  0  0  0  0  0  0  0  0
   31.4901  -36.3842    2.5980 O   0  0  0  0  0  0  0  0  0  0  0  0
   27.4172  -36.2683    5.8387 O   0  0  0  0  0  0  0  0  0  0  0  0
   30.4663  -37.7128    1.0828 O   0  0  0  0  0  0  0  0  0  0  0  0
  2  1  1  1
  2 10  1  0
  3  2  1  0
  3  4  1  0
  4  9  2  0
  5  6  2  0
  5  4  1  0
  6  7  1  0
  7  8  2  0
  9  8  1  0
 10 12  1  0
 10 11  2  0
 12 13  1  0
 13 17  1  0
 13 14  1  6
 14 15  1  0
 15 19  1  0
 16 15  2  0
 17 18  2  0
 20 21  1  0
 20 17  1  0
 22 23  1  0
 21 22  1  1
 23 24  1  0
 24 25  2  0
 24 28  1  0
 26 21  1  0
 27 26  1  0
 29 26  2  0
M  END
$$$$
