FDE.pdb
     RDKit          3D

 29 29  0  0  1  0  0  0  0  0999 V2000
   20.1393  -11.4660  -15.4395 N   0  0  0  0  0  0  0  0  0  0  0  0
   19.7745  -10.3336  -16.2310 C   0  0  1  0  0  0  0  0  0  0  0  0
   18.3555  -10.4272  -16.7420 C   0  0  0  0  0  0  0  0  0  0  0  0
   18.3152  -11.5890  -17.6710 C   0  0  0  0  0  0  0  0  0  0  0  0
   17.8175  -12.8170  -17.2458 C   0  0  0  0  0  0  0  0  0  0  0  0
   17.7690  -13.9076  -18.0830 C   0  0  0  0  0  0  0  0  0  0  0  0
   18.2153  -13.8256  -19.3869 C   0  0  0  0  0  0  0  0  0  0  0  0
   18.7095  -12.6195  -19.8212 C   0  0  0  0  0  0  0  0  0  0  0  0
   18.7570  -11.5287  -18.9809 C   0  0  0  0  0  0  0  0  0  0  0  0
   20.0475   -9.0833  -15.5089 C   0  0  0  0  0  0  0  0  0  0  0  0
   20.1465   -9.1411  -14.2555 O   0  0  0  0  0  0  0  0  0  0  0  0
   20.2044   -7.8221  -16.1489 N   0  0  0  0  0  0  0  0  0  0  0  0
   20.6136   -6.6888  -15.3854 C   0  0  1  0  0  0  0  0  0  0  0  0
   21.9235   -6.9329  -14.6487 C   0  0  0  0  0  0  0  0  0  0  0  0
   22.2793   -5.7563  -13.8597 C   0  0  0  0  0  0  0  0  0  0  0  0
   23.0200   -4.8290  -14.2680 O   0  0  0  0  0  0  0  0  0  0  0  0
   20.6417   -5.4291  -16.1467 C   0  0  0  0  0  0  0  0  0  0  0  0
   21.0358   -5.4397  -17.3338 O   0  0  0  0  0  0  0  0  0  0  0  0
   21.7698   -5.6447  -12.5693 O   0  0  0  0  0  0  0  0  0  0  0  0
   20.2302   -4.2259  -15.5483 N   0  0  0  0  0  0  0  0  0  0  0  0
   19.4340   -3.2094  -16.2259 C   0  0  1  0  0  0  0  0  0  0  0  0
   18.2136   -3.7945  -16.8491 C   0  0  0  0  0  0  0  0  0  0  0  0
   17.3016   -2.8189  -17.5335 C   0  0  0  0  0  0  0  0  0  0  0  0
   17.5836   -2.6080  -18.9598 C   0  0  0  0  0  0  0  0  0  0  0  0
   17.4085   -3.5410  -19.8145 O   0  0  0  0  0  0  0  0  0  0  0  0
   19.1661   -2.0600  -15.3327 C   0  0  0  0  0  0  0  0  0  0  0  0
   19.1290   -0.7733  -15.7773 O   0  0  0  0  0  0  0  0  0  0  0  0
   18.0503   -1.4191  -19.4908 O   0  0  0  0  0  0  0  0  0  0  0  0
   18.9674   -2.2963  -14.1149 O   0  0  0  0  0  0  0  0  0  0  0  0
  2  1  1  1
  2 10  1  0
  3  2  1  0
  3  4  1  0
  4  9  2  0
  5  6  2  0
  5  4  1  0
  6  7  1  0
  7  8  2  0
  9  8  1  0
 10 12  1  0
 10 11  2  0
 12 13  1  0
 13 17  1  0
 13 14  1  6
 14 15  1  0
 15 19  1  0
 16 15  2  0
 17 18  2  0
 20 21  1  0
 20 17  1  0
 22 23  1  0
 21 22  1  1
 23 24  1  0
 24 25  2  0
 24 28  1  0
 26 21  1  0
 27 26  1  0
 29 26  2  0
M  END
$$$$
