FDE.pdb
     RDKit          3D

 29 29  0  0  1  0  0  0  0  0999 V2000
   27.0172  -18.3889   -8.3024 N   0  0  0  0  0  0  0  0  0  0  0  0
   27.1066  -19.6717   -8.9255 C   0  0  1  0  0  0  0  0  0  0  0  0
   26.8860  -20.7998   -7.9446 C   0  0  0  0  0  0  0  0  0  0  0  0
   27.5901  -20.4154   -6.6911 C   0  0  0  0  0  0  0  0  0  0  0  0
   27.1184  -20.8464   -5.4549 C   0  0  0  0  0  0  0  0  0  0  0  0
   27.7489  -20.5057   -4.2806 C   0  0  0  0  0  0  0  0  0  0  0  0
   28.8823  -19.7175   -4.2829 C   0  0  0  0  0  0  0  0  0  0  0  0
   29.3601  -19.2843   -5.4960 C   0  0  0  0  0  0  0  0  0  0  0  0
   28.7269  -19.6268   -6.6707 C   0  0  0  0  0  0  0  0  0  0  0  0
   26.2237  -19.7444  -10.0978 C   0  0  0  0  0  0  0  0  0  0  0  0
   25.6512  -18.6856  -10.4657 O   0  0  0  0  0  0  0  0  0  0  0  0
   25.9854  -20.9400  -10.8317 N   0  0  0  0  0  0  0  0  0  0  0  0
   26.0695  -20.9231  -12.2556 C   0  0  1  0  0  0  0  0  0  0  0  0
   27.4168  -20.4121  -12.7472 C   0  0  0  0  0  0  0  0  0  0  0  0
   27.4102  -20.3092  -14.2042 C   0  0  0  0  0  0  0  0  0  0  0  0
   28.2413  -20.8736  -14.9565 O   0  0  0  0  0  0  0  0  0  0  0  0
   25.7024  -22.1975  -12.8948 C   0  0  0  0  0  0  0  0  0  0  0  0
   26.3914  -22.6258  -13.8469 O   0  0  0  0  0  0  0  0  0  0  0  0
   26.4227  -19.5375  -14.8097 O   0  0  0  0  0  0  0  0  0  0  0  0
   24.5901  -22.9272  -12.4417 N   0  0  0  0  0  0  0  0  0  0  0  0
   23.3061  -22.9678  -13.1316 C   0  0  1  0  0  0  0  0  0  0  0  0
   22.3649  -21.9428  -12.5987 C   0  0  0  0  0  0  0  0  0  0  0  0
   21.0044  -21.9180  -13.2315 C   0  0  0  0  0  0  0  0  0  0  0  0
   20.0992  -20.8870  -12.7062 C   0  0  0  0  0  0  0  0  0  0  0  0
   20.1550  -19.6813  -13.1242 O   0  0  0  0  0  0  0  0  0  0  0  0
   23.4886  -22.9172  -14.5996 C   0  0  0  0  0  0  0  0  0  0  0  0
   22.9021  -23.8076  -15.4468 O   0  0  0  0  0  0  0  0  0  0  0  0
   19.1354  -21.1194  -11.7416 O   0  0  0  0  0  0  0  0  0  0  0  0
   24.2192  -22.0097  -15.0697 O   0  0  0  0  0  0  0  0  0  0  0  0
  2  1  1  1
  2 10  1  0
  3  2  1  0
  3  4  1  0
  4  9  2  0
  5  6  2  0
  5  4  1  0
  6  7  1  0
  7  8  2  0
  9  8  1  0
 10 12  1  0
 10 11  2  0
 12 13  1  0
 13 17  1  0
 13 14  1  1
 14 15  1  0
 15 19  1  0
 16 15  2  0
 17 18  2  0
 20 21  1  0
 20 17  1  0
 22 23  1  0
 21 22  1  1
 23 24  1  0
 24 25  2  0
 24 28  1  0
 26 21  1  0
 27 26  1  0
 29 26  2  0
M  END
$$$$
