FDE.pdb
     RDKit          3D

 29 29  0  0  1  0  0  0  0  0999 V2000
   17.6616  -12.5718  -17.8629 N   0  0  0  0  0  0  0  0  0  0  0  0
   18.8174  -11.8105  -17.5077 C   0  0  1  0  0  0  0  0  0  0  0  0
   19.6444  -11.4310  -18.7141 C   0  0  0  0  0  0  0  0  0  0  0  0
   20.0926  -12.7052  -19.3387 C   0  0  0  0  0  0  0  0  0  0  0  0
   19.3898  -13.2542  -20.4070 C   0  0  0  0  0  0  0  0  0  0  0  0
   19.7813  -14.4308  -21.0028 C   0  0  0  0  0  0  0  0  0  0  0  0
   20.8944  -15.1175  -20.5611 C   0  0  0  0  0  0  0  0  0  0  0  0
   21.5987  -14.5878  -19.5070 C   0  0  0  0  0  0  0  0  0  0  0  0
   21.2047  -13.4093  -18.9119 C   0  0  0  0  0  0  0  0  0  0  0  0
   18.4467  -10.6577  -16.6754 C   0  0  0  0  0  0  0  0  0  0  0  0
   17.2385  -10.3049  -16.6692 O   0  0  0  0  0  0  0  0  0  0  0  0
   19.3756   -9.9267  -15.8831 N   0  0  0  0  0  0  0  0  0  0  0  0
   18.9214   -8.8256  -15.0982 C   0  0  1  0  0  0  0  0  0  0  0  0
   17.8917   -9.2453  -14.0582 C   0  0  0  0  0  0  0  0  0  0  0  0
   17.5365   -8.1041  -13.2185 C   0  0  0  0  0  0  0  0  0  0  0  0
   16.9028   -7.0991  -13.6228 O   0  0  0  0  0  0  0  0  0  0  0  0
   20.0036   -8.0245  -14.5030 C   0  0  0  0  0  0  0  0  0  0  0  0
   20.8530   -8.5863  -13.7766 O   0  0  0  0  0  0  0  0  0  0  0  0
   17.9204   -8.1207  -11.8808 O   0  0  0  0  0  0  0  0  0  0  0  0
   20.0839   -6.6428  -14.7470 N   0  0  0  0  0  0  0  0  0  0  0  0
   21.3377   -5.9119  -14.8888 C   0  0  1  0  0  0  0  0  0  0  0  0
   21.5173   -5.3954  -16.2749 C   0  0  0  0  0  0  0  0  0  0  0  0
   22.8169   -4.6952  -16.5445 C   0  0  0  0  0  0  0  0  0  0  0  0
   23.0225   -4.2945  -17.9429 C   0  0  0  0  0  0  0  0  0  0  0  0
   22.1662   -4.5806  -18.8465 O   0  0  0  0  0  0  0  0  0  0  0  0
   21.4750   -4.8806  -13.8359 C   0  0  0  0  0  0  0  0  0  0  0  0
   22.6809   -4.3887  -13.4381 O   0  0  0  0  0  0  0  0  0  0  0  0
   24.1264   -3.5941  -18.3948 O   0  0  0  0  0  0  0  0  0  0  0  0
   20.4260   -4.4511  -13.2943 O   0  0  0  0  0  0  0  0  0  0  0  0
  2  1  1  6
  2 10  1  0
  3  2  1  0
  3  4  1  0
  4  9  2  0
  5  6  2  0
  5  4  1  0
  6  7  1  0
  7  8  2  0
  9  8  1  0
 10 12  1  0
 10 11  2  0
 12 13  1  0
 13 17  1  0
 13 14  1  1
 14 15  1  0
 15 19  1  0
 16 15  2  0
 17 18  2  0
 20 21  1  0
 20 17  1  0
 22 23  1  0
 21 22  1  6
 23 24  1  0
 24 25  2  0
 24 28  1  0
 26 21  1  0
 27 26  1  0
 29 26  2  0
M  END
$$$$
