FDE.pdb
     RDKit          3D

 29 29  0  0  1  0  0  0  0  0999 V2000
   27.9684  -22.0767  -12.8021 N   0  0  0  0  0  0  0  0  0  0  0  0
   26.9527  -21.2958  -12.1694 C   0  0  1  0  0  0  0  0  0  0  0  0
   27.4945  -20.0030  -11.6052 C   0  0  0  0  0  0  0  0  0  0  0  0
   27.9145  -20.2934  -10.2074 C   0  0  0  0  0  0  0  0  0  0  0  0
   29.2404  -20.6006   -9.9171 C   0  0  0  0  0  0  0  0  0  0  0  0
   29.6560  -20.8738   -8.6344 C   0  0  0  0  0  0  0  0  0  0  0  0
   28.7677  -20.8536   -7.5778 C   0  0  0  0  0  0  0  0  0  0  0  0
   27.4551  -20.5519   -7.8488 C   0  0  0  0  0  0  0  0  0  0  0  0
   27.0411  -20.2787   -9.1342 C   0  0  0  0  0  0  0  0  0  0  0  0
   25.8094  -21.0986  -13.0711 C   0  0  0  0  0  0  0  0  0  0  0  0
   26.0492  -20.7074  -14.2431 O   0  0  0  0  0  0  0  0  0  0  0  0
   24.4573  -21.3257  -12.6902 N   0  0  0  0  0  0  0  0  0  0  0  0
   23.4194  -21.1980  -13.6604 C   0  0  1  0  0  0  0  0  0  0  0  0
   22.7572  -22.5325  -13.9747 C   0  0  0  0  0  0  0  0  0  0  0  0
   23.5794  -23.2884  -14.9160 C   0  0  0  0  0  0  0  0  0  0  0  0
   24.3309  -24.2401  -14.5923 O   0  0  0  0  0  0  0  0  0  0  0  0
   22.4274  -20.1566  -13.3464 C   0  0  0  0  0  0  0  0  0  0  0  0
   22.0840  -19.9767  -12.1571 O   0  0  0  0  0  0  0  0  0  0  0  0
   23.5354  -22.9399  -16.2628 O   0  0  0  0  0  0  0  0  0  0  0  0
   21.8708  -19.3711  -14.3703 N   0  0  0  0  0  0  0  0  0  0  0  0
   20.8110  -18.3916  -14.1613 C   0  0  1  0  0  0  0  0  0  0  0  0
   20.6855  -17.4640  -15.3206 C   0  0  0  0  0  0  0  0  0  0  0  0
   19.6103  -16.4233  -15.2071 C   0  0  0  0  0  0  0  0  0  0  0  0
   19.4060  -15.6140  -16.4160 C   0  0  0  0  0  0  0  0  0  0  0  0
   19.7168  -14.3754  -16.4442 O   0  0  0  0  0  0  0  0  0  0  0  0
   19.5442  -19.0522  -13.7745 C   0  0  0  0  0  0  0  0  0  0  0  0
   19.0372  -20.1244  -14.4436 O   0  0  0  0  0  0  0  0  0  0  0  0
   18.8748  -16.1027  -17.5960 O   0  0  0  0  0  0  0  0  0  0  0  0
   18.9203  -18.5926  -12.7856 O   0  0  0  0  0  0  0  0  0  0  0  0
  2  1  1  6
  2 10  1  0
  3  2  1  0
  3  4  1  0
  4  9  2  0
  5  6  2  0
  5  4  1  0
  6  7  1  0
  7  8  2  0
  9  8  1  0
 10 12  1  0
 10 11  2  0
 12 13  1  0
 13 17  1  0
 13 14  1  1
 14 15  1  0
 15 19  1  0
 16 15  2  0
 17 18  2  0
 20 21  1  0
 20 17  1  0
 22 23  1  0
 21 22  1  6
 23 24  1  0
 24 25  2  0
 24 28  1  0
 26 21  1  0
 27 26  1  0
 29 26  2  0
M  END
$$$$
