FDE.pdb
     RDKit          3D

 29 29  0  0  1  0  0  0  0  0999 V2000
   26.4089  -19.3943  -10.8149 N   0  0  0  0  0  0  0  0  0  0  0  0
   25.7009  -20.6338  -10.7486 C   0  0  1  0  0  0  0  0  0  0  0  0
   25.5685  -21.1408   -9.3313 C   0  0  0  0  0  0  0  0  0  0  0  0
   26.8497  -20.8210   -8.6452 C   0  0  0  0  0  0  0  0  0  0  0  0
   26.9056  -19.8148   -7.6855 C   0  0  0  0  0  0  0  0  0  0  0  0
   28.0763  -19.4978   -7.0362 C   0  0  0  0  0  0  0  0  0  0  0  0
   29.2496  -20.1705   -7.3133 C   0  0  0  0  0  0  0  0  0  0  0  0
   29.2102  -21.1666   -8.2586 C   0  0  0  0  0  0  0  0  0  0  0  0
   28.0366  -21.4823   -8.9076 C   0  0  0  0  0  0  0  0  0  0  0  0
   24.4136  -20.5368  -11.4503 C   0  0  0  0  0  0  0  0  0  0  0  0
   23.5459  -19.7581  -10.9763 O   0  0  0  0  0  0  0  0  0  0  0  0
   24.1010  -21.2718  -12.6281 N   0  0  0  0  0  0  0  0  0  0  0  0
   22.8088  -21.1434  -13.2185 C   0  0  1  0  0  0  0  0  0  0  0  0
   22.8838  -20.8279  -14.7061 C   0  0  0  0  0  0  0  0  0  0  0  0
   23.4980  -19.5181  -14.9083 C   0  0  0  0  0  0  0  0  0  0  0  0
   24.5494  -19.3243  -15.5656 O   0  0  0  0  0  0  0  0  0  0  0  0
   21.9076  -22.2747  -12.9449 C   0  0  0  0  0  0  0  0  0  0  0  0
   22.2623  -23.4312  -13.2634 O   0  0  0  0  0  0  0  0  0  0  0  0
   22.8866  -18.4046  -14.3398 O   0  0  0  0  0  0  0  0  0  0  0  0
   20.6611  -22.0604  -12.3319 N   0  0  0  0  0  0  0  0  0  0  0  0
   19.6888  -23.1155  -12.0717 C   0  0  1  0  0  0  0  0  0  0  0  0
   19.4877  -23.3274  -10.6106 C   0  0  0  0  0  0  0  0  0  0  0  0
   18.5280  -24.4192  -10.2380 C   0  0  0  0  0  0  0  0  0  0  0  0
   18.3319  -24.6009   -8.7935 C   0  0  0  0  0  0  0  0  0  0  0  0
   17.5464  -25.5001   -8.3396 O   0  0  0  0  0  0  0  0  0  0  0  0
   18.4376  -22.8849  -12.8280 C   0  0  0  0  0  0  0  0  0  0  0  0
   17.8212  -21.6717  -12.8817 O   0  0  0  0  0  0  0  0  0  0  0  0
   18.9588  -23.8393   -7.8237 O   0  0  0  0  0  0  0  0  0  0  0  0
   17.9334  -23.8590  -13.4405 O   0  0  0  0  0  0  0  0  0  0  0  0
  2  1  1  1
  2 10  1  0
  3  2  1  0
  3  4  1  0
  4  9  2  0
  5  6  2  0
  5  4  1  0
  6  7  1  0
  7  8  2  0
  9  8  1  0
 10 12  1  0
 10 11  2  0
 12 13  1  0
 13 17  1  0
 13 14  1  6
 14 15  1  0
 15 19  1  0
 16 15  2  0
 17 18  2  0
 20 21  1  0
 20 17  1  0
 22 23  1  0
 21 22  1  1
 23 24  1  0
 24 25  2  0
 24 28  1  0
 26 21  1  0
 27 26  1  0
 29 26  2  0
M  END
$$$$
