FDE.pdb
     RDKit          3D

 29 29  0  0  1  0  0  0  0  0999 V2000
   17.7090  -11.1773  -15.6085 N   0  0  0  0  0  0  0  0  0  0  0  0
   17.3945   -9.7957  -15.4242 C   0  0  1  0  0  0  0  0  0  0  0  0
   15.9549   -9.4873  -15.7644 C   0  0  0  0  0  0  0  0  0  0  0  0
   15.8218   -9.6553  -17.2370 C   0  0  0  0  0  0  0  0  0  0  0  0
   16.3451   -8.7036  -18.1071 C   0  0  0  0  0  0  0  0  0  0  0  0
   16.2360   -8.8331  -19.4723 C   0  0  0  0  0  0  0  0  0  0  0  0
   15.5986   -9.9201  -20.0364 C   0  0  0  0  0  0  0  0  0  0  0  0
   15.0768  -10.8683  -19.1901 C   0  0  0  0  0  0  0  0  0  0  0  0
   15.1873  -10.7363  -17.8231 C   0  0  0  0  0  0  0  0  0  0  0  0
   17.7788   -9.3487  -14.0783 C   0  0  0  0  0  0  0  0  0  0  0  0
   17.4172  -10.0554  -13.1015 O   0  0  0  0  0  0  0  0  0  0  0  0
   18.5324   -8.1684  -13.8254 N   0  0  0  0  0  0  0  0  0  0  0  0
   18.7978   -7.7748  -12.4802 C   0  0  1  0  0  0  0  0  0  0  0  0
   20.0611   -6.9329  -12.3648 C   0  0  0  0  0  0  0  0  0  0  0  0
   21.1907   -7.6438  -12.9584 C   0  0  0  0  0  0  0  0  0  0  0  0
   21.7727   -7.2910  -14.0128 O   0  0  0  0  0  0  0  0  0  0  0  0
   17.6551   -7.1406  -11.8026 C   0  0  0  0  0  0  0  0  0  0  0  0
   17.0134   -6.2441  -12.3935 O   0  0  0  0  0  0  0  0  0  0  0  0
   21.6614   -8.7887  -12.3222 O   0  0  0  0  0  0  0  0  0  0  0  0
   17.2867   -7.5368  -10.5055 N   0  0  0  0  0  0  0  0  0  0  0  0
   16.2105   -6.9191   -9.7396 C   0  0  1  0  0  0  0  0  0  0  0  0
   15.7646   -7.7928   -8.6180 C   0  0  0  0  0  0  0  0  0  0  0  0
   14.6931   -7.2222   -7.7358 C   0  0  0  0  0  0  0  0  0  0  0  0
   13.3205   -7.5588   -8.1370 C   0  0  0  0  0  0  0  0  0  0  0  0
   13.0537   -8.6614   -8.7243 O   0  0  0  0  0  0  0  0  0  0  0  0
   16.5709   -5.5434   -9.3290 C   0  0  0  0  0  0  0  0  0  0  0  0
   15.6630   -4.5303   -9.2680 O   0  0  0  0  0  0  0  0  0  0  0  0
   12.2269   -6.7392   -7.9235 O   0  0  0  0  0  0  0  0  0  0  0  0
   17.7690   -5.3152   -9.0281 O   0  0  0  0  0  0  0  0  0  0  0  0
  2  1  1  1
  2 10  1  0
  3  2  1  0
  3  4  1  0
  4  9  2  0
  5  6  2  0
  5  4  1  0
  6  7  1  0
  7  8  2  0
  9  8  1  0
 10 12  1  0
 10 11  2  0
 12 13  1  0
 13 17  1  0
 13 14  1  6
 14 15  1  0
 15 19  1  0
 16 15  2  0
 17 18  2  0
 20 21  1  0
 20 17  1  0
 22 23  1  0
 21 22  1  1
 23 24  1  0
 24 25  2  0
 24 28  1  0
 26 21  1  0
 27 26  1  0
 29 26  2  0
M  END
$$$$
