FDE.pdb
     RDKit          3D

 29 29  0  0  1  0  0  0  0  0999 V2000
   27.1831  -20.9179  -17.1131 N   0  0  0  0  0  0  0  0  0  0  0  0
   27.2402  -20.1090  -15.9366 C   0  0  1  0  0  0  0  0  0  0  0  0
   27.0045  -18.6469  -16.2367 C   0  0  0  0  0  0  0  0  0  0  0  0
   28.1573  -18.1920  -17.0605 C   0  0  0  0  0  0  0  0  0  0  0  0
   29.4243  -18.0714  -16.4977 C   0  0  0  0  0  0  0  0  0  0  0  0
   30.5073  -17.6527  -17.2355 C   0  0  0  0  0  0  0  0  0  0  0  0
   30.3784  -17.3336  -18.5725 C   0  0  0  0  0  0  0  0  0  0  0  0
   29.1335  -17.4478  -19.1423 C   0  0  0  0  0  0  0  0  0  0  0  0
   28.0504  -17.8673  -18.4014 C   0  0  0  0  0  0  0  0  0  0  0  0
   26.3458  -20.6370  -14.8971 C   0  0  0  0  0  0  0  0  0  0  0  0
   25.2857  -21.2040  -15.2700 O   0  0  0  0  0  0  0  0  0  0  0  0
   26.6150  -20.5411  -13.5031 N   0  0  0  0  0  0  0  0  0  0  0  0
   25.5915  -20.8615  -12.5626 C   0  0  1  0  0  0  0  0  0  0  0  0
   26.1175  -20.9161  -11.1349 C   0  0  0  0  0  0  0  0  0  0  0  0
   25.0161  -21.1559  -10.2059 C   0  0  0  0  0  0  0  0  0  0  0  0
   23.8630  -21.5098  -10.5529 O   0  0  0  0  0  0  0  0  0  0  0  0
   24.3903  -20.0172  -12.6702 C   0  0  0  0  0  0  0  0  0  0  0  0
   24.5040  -18.7753  -12.5726 O   0  0  0  0  0  0  0  0  0  0  0  0
   25.2481  -20.9841   -8.8444 O   0  0  0  0  0  0  0  0  0  0  0  0
   23.1279  -20.5979  -12.8807 N   0  0  0  0  0  0  0  0  0  0  0  0
   21.9014  -19.8335  -13.0744 C   0  0  1  0  0  0  0  0  0  0  0  0
   22.0185  -18.8909  -14.2224 C   0  0  0  0  0  0  0  0  0  0  0  0
   21.9567  -19.5156  -15.5855 C   0  0  0  0  0  0  0  0  0  0  0  0
   20.6672  -19.3669  -16.2735 C   0  0  0  0  0  0  0  0  0  0  0  0
   20.1135  -18.2231  -16.4028 O   0  0  0  0  0  0  0  0  0  0  0  0
   20.7227  -20.7262  -13.1418 C   0  0  0  0  0  0  0  0  0  0  0  0
   20.8275  -22.0820  -13.2149 O   0  0  0  0  0  0  0  0  0  0  0  0
   19.9570  -20.4177  -16.8257 O   0  0  0  0  0  0  0  0  0  0  0  0
   19.5835  -20.1966  -13.1316 O   0  0  0  0  0  0  0  0  0  0  0  0
  2  1  1  6
  2 10  1  0
  3  2  1  0
  3  4  1  0
  4  9  2  0
  5  6  2  0
  5  4  1  0
  6  7  1  0
  7  8  2  0
  9  8  1  0
 10 12  1  0
 10 11  2  0
 12 13  1  0
 13 17  1  0
 13 14  1  1
 14 15  1  0
 15 19  1  0
 16 15  2  0
 17 18  2  0
 20 21  1  0
 20 17  1  0
 22 23  1  0
 21 22  1  6
 23 24  1  0
 24 25  2  0
 24 28  1  0
 26 21  1  0
 27 26  1  0
 29 26  2  0
M  END
$$$$
