FDE.pdb
     RDKit          3D

 29 29  0  0  1  0  0  0  0  0999 V2000
   26.1519  -10.3656  -15.2339 N   0  0  0  0  0  0  0  0  0  0  0  0
   25.8743   -9.2140  -16.0331 C   0  0  1  0  0  0  0  0  0  0  0  0
   25.8778   -9.5299  -17.5108 C   0  0  0  0  0  0  0  0  0  0  0  0
   27.2663   -9.9412  -17.8532 C   0  0  0  0  0  0  0  0  0  0  0  0
   28.2808   -8.9935  -17.9493 C   0  0  0  0  0  0  0  0  0  0  0  0
   29.5728   -9.3455  -18.2648 C   0  0  0  0  0  0  0  0  0  0  0  0
   29.9156  -10.6620  -18.4999 C   0  0  0  0  0  0  0  0  0  0  0  0
   28.9247  -11.6092  -18.4086 C   0  0  0  0  0  0  0  0  0  0  0  0
   27.6315  -11.2543  -18.0925 C   0  0  0  0  0  0  0  0  0  0  0  0
   24.6396   -8.5547  -15.5860 C   0  0  0  0  0  0  0  0  0  0  0  0
   23.7870   -9.2567  -14.9821 O   0  0  0  0  0  0  0  0  0  0  0  0
   24.3615   -7.1755  -15.7987 N   0  0  0  0  0  0  0  0  0  0  0  0
   23.1555   -6.6112  -15.2870 C   0  0  1  0  0  0  0  0  0  0  0  0
   23.3285   -5.1544  -14.8794 C   0  0  0  0  0  0  0  0  0  0  0  0
   22.0808   -4.6410  -14.3198 C   0  0  0  0  0  0  0  0  0  0  0  0
   21.6761   -4.8816  -13.1564 O   0  0  0  0  0  0  0  0  0  0  0  0
   21.9857   -6.7986  -16.1608 C   0  0  0  0  0  0  0  0  0  0  0  0
   22.0582   -6.4587  -17.3624 O   0  0  0  0  0  0  0  0  0  0  0  0
   21.2797   -3.8310  -15.1192 O   0  0  0  0  0  0  0  0  0  0  0  0
   20.7987   -7.3537  -15.6528 N   0  0  0  0  0  0  0  0  0  0  0  0
   19.6255   -7.6521  -16.4657 C   0  0  1  0  0  0  0  0  0  0  0  0
   19.2694   -9.0976  -16.4044 C   0  0  0  0  0  0  0  0  0  0  0  0
   18.7174   -9.5761  -15.0935 C   0  0  0  0  0  0  0  0  0  0  0  0
   18.2770  -10.9776  -15.0851 C   0  0  0  0  0  0  0  0  0  0  0  0
   17.6252  -11.4611  -14.0987 O   0  0  0  0  0  0  0  0  0  0  0  0
   18.5068   -6.7386  -16.1417 C   0  0  0  0  0  0  0  0  0  0  0  0
   17.3702   -6.6704  -16.8887 O   0  0  0  0  0  0  0  0  0  0  0  0
   18.5205  -11.8734  -16.1106 O   0  0  0  0  0  0  0  0  0  0  0  0
   18.6253   -5.9999  -15.1325 O   0  0  0  0  0  0  0  0  0  0  0  0
  2  1  1  1
  2 10  1  0
  3  2  1  0
  3  4  1  0
  4  9  2  0
  5  6  2  0
  5  4  1  0
  6  7  1  0
  7  8  2  0
  9  8  1  0
 10 12  1  0
 10 11  2  0
 12 13  1  0
 13 17  1  0
 13 14  1  6
 14 15  1  0
 15 19  1  0
 16 15  2  0
 17 18  2  0
 20 21  1  0
 20 17  1  0
 22 23  1  0
 21 22  1  1
 23 24  1  0
 24 25  2  0
 24 28  1  0
 26 21  1  0
 27 26  1  0
 29 26  2  0
M  END
$$$$
