FDE.pdb
     RDKit          3D

 29 29  0  0  1  0  0  0  0  0999 V2000
   24.7865  -11.5951  -17.7183 N   0  0  0  0  0  0  0  0  0  0  0  0
   24.4117  -11.2711  -16.3780 C   0  0  1  0  0  0  0  0  0  0  0  0
   25.5871  -10.7976  -15.5548 C   0  0  0  0  0  0  0  0  0  0  0  0
   26.5436  -11.9357  -15.4876 C   0  0  0  0  0  0  0  0  0  0  0  0
   27.7646  -11.8731  -16.1525 C   0  0  0  0  0  0  0  0  0  0  0  0
   28.6671  -12.9103  -16.1080 C   0  0  0  0  0  0  0  0  0  0  0  0
   28.3949  -14.0619  -15.3970 C   0  0  0  0  0  0  0  0  0  0  0  0
   27.1934  -14.1385  -14.7352 C   0  0  0  0  0  0  0  0  0  0  0  0
   26.2910  -13.0984  -14.7812 C   0  0  0  0  0  0  0  0  0  0  0  0
   23.2817  -10.3321  -16.3653 C   0  0  0  0  0  0  0  0  0  0  0  0
   23.2460   -9.4473  -17.2598 O   0  0  0  0  0  0  0  0  0  0  0  0
   22.2349  -10.3720  -15.4021 N   0  0  0  0  0  0  0  0  0  0  0  0
   21.1874   -9.4053  -15.4572 C   0  0  1  0  0  0  0  0  0  0  0  0
   19.9787   -9.8177  -14.6283 C   0  0  0  0  0  0  0  0  0  0  0  0
   19.4363  -11.0780  -15.1293 C   0  0  0  0  0  0  0  0  0  0  0  0
   19.4801  -12.1649  -14.5033 O   0  0  0  0  0  0  0  0  0  0  0  0
   21.6192   -8.0324  -15.1477 C   0  0  0  0  0  0  0  0  0  0  0  0
   22.3217   -7.8253  -14.1336 O   0  0  0  0  0  0  0  0  0  0  0  0
   18.8288  -11.0870  -16.3815 O   0  0  0  0  0  0  0  0  0  0  0  0
   21.2477   -6.9638  -15.9815 N   0  0  0  0  0  0  0  0  0  0  0  0
   21.6947   -5.5888  -15.7919 C   0  0  1  0  0  0  0  0  0  0  0  0
   21.7112   -4.8357  -17.0776 C   0  0  0  0  0  0  0  0  0  0  0  0
   22.2147   -3.4242  -16.9978 C   0  0  0  0  0  0  0  0  0  0  0  0
   22.1577   -2.6773  -18.2615 C   0  0  0  0  0  0  0  0  0  0  0  0
   22.5139   -1.4522  -18.3234 O   0  0  0  0  0  0  0  0  0  0  0  0
   20.9316   -4.9251  -14.7112 C   0  0  0  0  0  0  0  0  0  0  0  0
   21.5126   -4.0972  -13.7993 O   0  0  0  0  0  0  0  0  0  0  0  0
   21.7265   -3.2142  -19.4611 O   0  0  0  0  0  0  0  0  0  0  0  0
   19.6965   -5.1450  -14.6438 O   0  0  0  0  0  0  0  0  0  0  0  0
  2  1  1  6
  2 10  1  0
  3  2  1  0
  3  4  1  0
  4  9  2  0
  5  6  2  0
  5  4  1  0
  6  7  1  0
  7  8  2  0
  9  8  1  0
 10 12  1  0
 10 11  2  0
 12 13  1  0
 13 17  1  0
 13 14  1  1
 14 15  1  0
 15 19  1  0
 16 15  2  0
 17 18  2  0
 20 21  1  0
 20 17  1  0
 22 23  1  0
 21 22  1  6
 23 24  1  0
 24 25  2  0
 24 28  1  0
 26 21  1  0
 27 26  1  0
 29 26  2  0
M  END
$$$$
