FDE.pdb
     RDKit          3D

 29 29  0  0  1  0  0  0  0  0999 V2000
   10.1841  -15.6380   -5.8555 N   0  0  0  0  0  0  0  0  0  0  0  0
   11.4337  -15.5428   -6.5418 C   0  0  1  0  0  0  0  0  0  0  0  0
   12.4997  -16.4077   -5.9101 C   0  0  0  0  0  0  0  0  0  0  0  0
   12.8084  -15.8013   -4.5866 C   0  0  0  0  0  0  0  0  0  0  0  0
   12.1657  -16.2497   -3.4366 C   0  0  0  0  0  0  0  0  0  0  0  0
   12.4312  -15.7070   -2.2006 C   0  0  0  0  0  0  0  0  0  0  0  0
   13.3521  -14.6892   -2.0521 C   0  0  0  0  0  0  0  0  0  0  0  0
   13.9948  -14.2359   -3.1785 C   0  0  0  0  0  0  0  0  0  0  0  0
   13.7272  -14.7810   -4.4153 C   0  0  0  0  0  0  0  0  0  0  0  0
   11.2600  -15.7967   -7.9786 C   0  0  0  0  0  0  0  0  0  0  0  0
   10.1613  -16.2788   -8.3590 O   0  0  0  0  0  0  0  0  0  0  0  0
   12.2615  -15.5274   -8.9530 N   0  0  0  0  0  0  0  0  0  0  0  0
   11.9869  -15.7659  -10.3323 C   0  0  1  0  0  0  0  0  0  0  0  0
   12.7304  -14.7988  -11.2434 C   0  0  0  0  0  0  0  0  0  0  0  0
   12.3546  -15.0349  -12.6350 C   0  0  0  0  0  0  0  0  0  0  0  0
   11.2571  -14.6930  -13.1386 O   0  0  0  0  0  0  0  0  0  0  0  0
   12.1762  -17.1647  -10.7501 C   0  0  0  0  0  0  0  0  0  0  0  0
   13.1983  -17.7821  -10.3774 O   0  0  0  0  0  0  0  0  0  0  0  0
   13.2648  -15.6804  -13.4668 O   0  0  0  0  0  0  0  0  0  0  0  0
   11.2198  -17.8023  -11.5588 N   0  0  0  0  0  0  0  0  0  0  0  0
   11.2999  -19.1995  -11.9681 C   0  0  1  0  0  0  0  0  0  0  0  0
    9.9569  -19.8448  -11.9809 C   0  0  0  0  0  0  0  0  0  0  0  0
    8.9207  -19.1724  -12.8331 C   0  0  0  0  0  0  0  0  0  0  0  0
    7.6317  -19.8736  -12.9042 C   0  0  0  0  0  0  0  0  0  0  0  0
    7.4290  -20.9544  -12.2543 O   0  0  0  0  0  0  0  0  0  0  0  0
   12.0516  -19.3409  -13.2353 C   0  0  0  0  0  0  0  0  0  0  0  0
   12.4304  -18.2734  -13.9912 O   0  0  0  0  0  0  0  0  0  0  0  0
    6.5546  -19.4425  -13.6575 O   0  0  0  0  0  0  0  0  0  0  0  0
   12.3448  -20.5011  -13.6180 O   0  0  0  0  0  0  0  0  0  0  0  0
  2  1  1  1
  2 10  1  0
  3  2  1  0
  3  4  1  0
  4  9  2  0
  5  6  2  0
  5  4  1  0
  6  7  1  0
  7  8  2  0
  9  8  1  0
 10 12  1  0
 10 11  2  0
 12 13  1  0
 13 17  1  0
 13 14  1  6
 14 15  1  0
 15 19  1  0
 16 15  2  0
 17 18  2  0
 20 21  1  0
 20 17  1  0
 22 23  1  0
 21 22  1  6
 23 24  1  0
 24 25  2  0
 24 28  1  0
 26 21  1  0
 27 26  1  0
 29 26  2  0
M  END
$$$$
