FDE.pdb
     RDKit          3D

 29 29  0  0  1  0  0  0  0  0999 V2000
   22.8196  -12.8913  -18.3219 N   0  0  0  0  0  0  0  0  0  0  0  0
   23.4381  -11.6561  -17.9566 C   0  0  1  0  0  0  0  0  0  0  0  0
   24.1556  -11.0107  -19.1194 C   0  0  0  0  0  0  0  0  0  0  0  0
   23.3483  -11.3083  -20.3336 C   0  0  0  0  0  0  0  0  0  0  0  0
   21.9999  -11.6343  -20.2235 C   0  0  0  0  0  0  0  0  0  0  0  0
   21.2303  -11.9145  -21.3288 C   0  0  0  0  0  0  0  0  0  0  0  0
   21.7695  -11.8829  -22.5993 C   0  0  0  0  0  0  0  0  0  0  0  0
   23.0996  -11.5625  -22.7241 C   0  0  0  0  0  0  0  0  0  0  0  0
   23.8684  -11.2823  -21.6156 C   0  0  0  0  0  0  0  0  0  0  0  0
   22.4711  -10.7615  -17.3057 C   0  0  0  0  0  0  0  0  0  0  0  0
   21.2813  -11.1595  -17.2054 O   0  0  0  0  0  0  0  0  0  0  0  0
   22.8085   -9.4799  -16.7875 N   0  0  0  0  0  0  0  0  0  0  0  0
   21.8109   -8.6976  -16.1336 C   0  0  1  0  0  0  0  0  0  0  0  0
   21.0167   -9.5083  -15.1186 C   0  0  0  0  0  0  0  0  0  0  0  0
   19.9852   -8.6726  -14.5094 C   0  0  0  0  0  0  0  0  0  0  0  0
   19.4120   -7.7200  -15.0918 O   0  0  0  0  0  0  0  0  0  0  0  0
   22.3153   -7.4415  -15.5549 C   0  0  0  0  0  0  0  0  0  0  0  0
   22.8596   -7.4612  -14.4288 O   0  0  0  0  0  0  0  0  0  0  0  0
   19.6044   -8.9403  -13.1978 O   0  0  0  0  0  0  0  0  0  0  0  0
   22.1882   -6.2315  -16.2584 N   0  0  0  0  0  0  0  0  0  0  0  0
   22.8392   -4.9876  -15.8644 C   0  0  1  0  0  0  0  0  0  0  0  0
   23.2101   -4.1639  -17.0494 C   0  0  0  0  0  0  0  0  0  0  0  0
   22.0656   -3.5288  -17.7836 C   0  0  0  0  0  0  0  0  0  0  0  0
   22.4551   -2.6936  -18.9277 C   0  0  0  0  0  0  0  0  0  0  0  0
   23.1434   -1.6296  -18.7671 O   0  0  0  0  0  0  0  0  0  0  0  0
   22.0378   -4.2648  -14.8515 C   0  0  0  0  0  0  0  0  0  0  0  0
   20.7401   -4.5752  -14.5790 O   0  0  0  0  0  0  0  0  0  0  0  0
   22.1224   -2.9731  -20.2409 O   0  0  0  0  0  0  0  0  0  0  0  0
   22.5908   -3.3267  -14.2251 O   0  0  0  0  0  0  0  0  0  0  0  0
  2  1  1  6
  2 10  1  0
  3  2  1  0
  3  4  1  0
  4  9  2  0
  5  6  2  0
  5  4  1  0
  6  7  1  0
  7  8  2  0
  9  8  1  0
 10 12  1  0
 10 11  2  0
 12 13  1  0
 13 17  1  0
 13 14  1  1
 14 15  1  0
 15 19  1  0
 16 15  2  0
 17 18  2  0
 20 21  1  0
 20 17  1  0
 22 23  1  0
 21 22  1  6
 23 24  1  0
 24 25  2  0
 24 28  1  0
 26 21  1  0
 27 26  1  0
 29 26  2  0
M  END
$$$$
