FDE.pdb
     RDKit          3D

 29 29  0  0  1  0  0  0  0  0999 V2000
   27.9072  -20.3316  -10.8175 N   0  0  0  0  0  0  0  0  0  0  0  0
   26.7553  -21.1091  -10.4852 C   0  0  1  0  0  0  0  0  0  0  0  0
   26.0955  -20.6365   -9.2105 C   0  0  0  0  0  0  0  0  0  0  0  0
   27.1740  -20.5245   -8.1913 C   0  0  0  0  0  0  0  0  0  0  0  0
   27.2495  -19.4096   -7.3618 C   0  0  0  0  0  0  0  0  0  0  0  0
   28.2359  -19.2796   -6.4117 C   0  0  0  0  0  0  0  0  0  0  0  0
   29.1960  -20.2571   -6.2429 C   0  0  0  0  0  0  0  0  0  0  0  0
   29.1346  -21.3639   -7.0545 C   0  0  0  0  0  0  0  0  0  0  0  0
   28.1458  -21.4918   -8.0053 C   0  0  0  0  0  0  0  0  0  0  0  0
   25.8287  -21.1805  -11.6234 C   0  0  0  0  0  0  0  0  0  0  0  0
   25.6082  -20.1209  -12.2659 O   0  0  0  0  0  0  0  0  0  0  0  0
   25.1741  -22.3760  -12.0325 N   0  0  0  0  0  0  0  0  0  0  0  0
   24.3349  -22.3623  -13.1859 C   0  0  1  0  0  0  0  0  0  0  0  0
   24.4985  -23.6171  -14.0325 C   0  0  0  0  0  0  0  0  0  0  0  0
   23.6592  -23.5280  -15.2246 C   0  0  0  0  0  0  0  0  0  0  0  0
   22.9570  -22.5311  -15.5218 O   0  0  0  0  0  0  0  0  0  0  0  0
   22.9195  -22.0796  -12.8963 C   0  0  0  0  0  0  0  0  0  0  0  0
   22.3000  -22.8133  -12.0947 O   0  0  0  0  0  0  0  0  0  0  0  0
   23.6277  -24.6131  -16.0955 O   0  0  0  0  0  0  0  0  0  0  0  0
   22.2688  -20.9969  -13.5125 N   0  0  0  0  0  0  0  0  0  0  0  0
   20.8639  -20.6655  -13.3054 C   0  0  1  0  0  0  0  0  0  0  0  0
   20.5231  -19.3361  -13.8857 C   0  0  0  0  0  0  0  0  0  0  0  0
   19.1033  -18.8886  -13.6959 C   0  0  0  0  0  0  0  0  0  0  0  0
   18.9184  -17.4323  -13.6401 C   0  0  0  0  0  0  0  0  0  0  0  0
   19.6877  -16.6419  -14.2845 O   0  0  0  0  0  0  0  0  0  0  0  0
   19.9847  -21.7670  -13.7576 C   0  0  0  0  0  0  0  0  0  0  0  0
   18.8819  -22.1628  -13.0636 O   0  0  0  0  0  0  0  0  0  0  0  0
   17.9274  -16.8036  -12.9080 O   0  0  0  0  0  0  0  0  0  0  0  0
   20.2815  -22.3535  -14.8282 O   0  0  0  0  0  0  0  0  0  0  0  0
  2  1  1  6
  2 10  1  0
  3  2  1  0
  3  4  1  0
  4  9  2  0
  5  6  2  0
  5  4  1  0
  6  7  1  0
  7  8  2  0
  9  8  1  0
 10 12  1  0
 10 11  2  0
 12 13  1  0
 13 17  1  0
 13 14  1  1
 14 15  1  0
 15 19  1  0
 16 15  2  0
 17 18  2  0
 20 21  1  0
 20 17  1  0
 22 23  1  0
 21 22  1  6
 23 24  1  0
 24 25  2  0
 24 28  1  0
 26 21  1  0
 27 26  1  0
 29 26  2  0
M  END
$$$$
