VPE.pdb
     RDKit          3D

 24 24  0  0  1  0  0  0  0  0999 V2000
    7.5670  -15.4885   21.6767 C   0  0  0  0  0  0  0  0  0  0  0  0
    6.8608  -14.1484   21.7477 C   0  0  2  0  0  0  0  0  0  0  0  0
    6.2297  -13.8792   20.3946 C   0  0  0  0  0  0  0  0  0  0  0  0
    7.8816  -13.1032   22.1359 C   0  0  2  0  0  0  0  0  0  0  0  0
    8.8028  -12.9575   21.0375 N   0  0  0  0  0  0  0  0  0  0  0  0
    8.5218  -13.3485   23.4385 C   0  0  0  0  0  0  0  0  0  0  0  0
    9.7605  -13.6325   23.4347 O   0  0  0  0  0  0  0  0  0  0  0  0
    7.8547  -13.2888   24.6731 N   0  0  0  0  0  0  0  0  0  0  0  0
    6.4467  -12.9245   24.8311 C   0  0  0  0  0  0  0  0  0  0  0  0
    6.4417  -12.0813   26.1092 C   0  0  0  0  0  0  0  0  0  0  0  0
    7.3999  -12.8792   26.9685 C   0  0  0  0  0  0  0  0  0  0  0  0
    8.3577  -13.5535   25.9714 C   0  0  1  0  0  0  0  0  0  0  0  0
    8.3276  -15.0006   26.3324 C   0  0  0  0  0  0  0  0  0  0  0  0
    7.2206  -15.5903   26.2945 O   0  0  0  0  0  0  0  0  0  0  0  0
    9.4611  -15.7334   26.7102 N   0  0  0  0  0  0  0  0  0  0  0  0
    9.4589  -17.1465   27.0715 C   0  0  1  0  0  0  0  0  0  0  0  0
   10.2917  -17.8560   26.0219 C   0  0  0  0  0  0  0  0  0  0  0  0
   11.6988  -17.2952   25.9882 C   0  0  0  0  0  0  0  0  0  0  0  0
   12.4798  -17.9697   24.9336 C   0  0  0  0  0  0  0  0  0  0  0  0
   12.5113  -19.2185   24.8423 O   0  0  0  0  0  0  0  0  0  0  0  0
   10.0515  -17.3903   28.3847 C   0  0  0  0  0  0  0  0  0  0  0  0
   10.6704  -16.3655   29.0664 O   0  0  0  0  0  0  0  0  0  0  0  0
   13.1985  -17.2278   24.0175 O   0  0  0  0  0  0  0  0  0  0  0  0
   10.0034  -18.5242   28.9000 O   0  0  0  0  0  0  0  0  0  0  0  0
  2  1  1  6
  2  3  1  0
  4  2  1  0
  4  5  1  6
  6  8  1  0
  6  4  1  0
  7  6  2  0
  8 12  1  0
  9 10  1  0
  9  8  1  0
 10 11  1  0
 11 12  1  0
 12 13  1  1
 13 14  2  0
 15 13  1  0
 15 16  1  0
 16 21  1  0
 16 17  1  6
 18 17  1  0
 19 20  2  0
 19 18  1  0
 21 22  1  0
 23 19  1  0
 24 21  2  0
M  END
$$$$
