VPE.pdb
     RDKit          3D

 24 24  0  0  1  0  0  0  0  0999 V2000
    8.0480  -12.9089   26.7836 C   0  0  0  0  0  0  0  0  0  0  0  0
    7.0326  -12.5803   25.7062 C   0  0  2  0  0  0  0  0  0  0  0  0
    6.1445  -11.4646   26.2240 C   0  0  0  0  0  0  0  0  0  0  0  0
    6.2630  -13.8423   25.3901 C   0  0  2  0  0  0  0  0  0  0  0  0
    5.6456  -14.2991   26.6094 N   0  0  0  0  0  0  0  0  0  0  0  0
    7.0557  -14.8656   24.6891 C   0  0  0  0  0  0  0  0  0  0  0  0
    7.3082  -15.9399   25.3194 O   0  0  0  0  0  0  0  0  0  0  0  0
    7.5454  -14.7292   23.3799 N   0  0  0  0  0  0  0  0  0  0  0  0
    7.3642  -13.5357   22.5535 C   0  0  0  0  0  0  0  0  0  0  0  0
    7.1173  -14.1088   21.1552 C   0  0  0  0  0  0  0  0  0  0  0  0
    8.1357  -15.2293   21.1338 C   0  0  0  0  0  0  0  0  0  0  0  0
    8.2849  -15.6564   22.6040 C   0  0  1  0  0  0  0  0  0  0  0  0
    9.7524  -15.6093   22.8680 C   0  0  0  0  0  0  0  0  0  0  0  0
   10.2207  -14.5662   23.3848 O   0  0  0  0  0  0  0  0  0  0  0  0
   10.6318  -16.6597   22.5717 N   0  0  0  0  0  0  0  0  0  0  0  0
   11.7174  -17.1082   23.4362 C   0  0  1  0  0  0  0  0  0  0  0  0
   11.0651  -17.6533   24.6915 C   0  0  0  0  0  0  0  0  0  0  0  0
   12.0952  -18.3148   25.5843 C   0  0  0  0  0  0  0  0  0  0  0  0
   11.4479  -18.8019   26.8174 C   0  0  0  0  0  0  0  0  0  0  0  0
   10.2321  -18.5993   27.0404 O   0  0  0  0  0  0  0  0  0  0  0  0
   12.5192  -18.1665   22.8262 C   0  0  0  0  0  0  0  0  0  0  0  0
   11.9043  -19.2558   22.2489 O   0  0  0  0  0  0  0  0  0  0  0  0
   12.1791  -19.4981   27.7592 O   0  0  0  0  0  0  0  0  0  0  0  0
   13.7636  -18.0951   22.8219 O   0  0  0  0  0  0  0  0  0  0  0  0
  2  1  1  1
  2  3  1  0
  4  2  1  0
  4  5  1  1
  6  8  1  0
  6  4  1  0
  7  6  2  0
  8 12  1  0
  9 10  1  0
  9  8  1  0
 10 11  1  0
 11 12  1  0
 12 13  1  1
 13 14  2  0
 15 13  1  0
 15 16  1  0
 16 21  1  0
 16 17  1  1
 18 17  1  0
 19 20  2  0
 19 18  1  0
 21 22  1  0
 23 19  1  0
 24 21  2  0
M  END
$$$$
