VPE.pdb
     RDKit          3D

 24 24  0  0  1  0  0  0  0  0999 V2000
    7.5664  -16.2840   22.3040 C   0  0  0  0  0  0  0  0  0  0  0  0
    6.7541  -15.0060   22.2228 C   0  0  2  0  0  0  0  0  0  0  0  0
    5.9825  -15.0235   20.9168 C   0  0  0  0  0  0  0  0  0  0  0  0
    7.7096  -13.8389   22.3226 C   0  0  2  0  0  0  0  0  0  0  0  0
    8.5349  -13.8427   21.1414 N   0  0  0  0  0  0  0  0  0  0  0  0
    8.4592  -13.7872   23.5884 C   0  0  0  0  0  0  0  0  0  0  0  0
    9.7092  -14.0105   23.5349 O   0  0  0  0  0  0  0  0  0  0  0  0
    7.8839  -13.5092   24.8392 N   0  0  0  0  0  0  0  0  0  0  0  0
    6.4496  -13.3293   25.0638 C   0  0  0  0  0  0  0  0  0  0  0  0
    6.3927  -12.1942   26.0899 C   0  0  0  0  0  0  0  0  0  0  0  0
    7.5345  -12.5909   27.0021 C   0  0  0  0  0  0  0  0  0  0  0  0
    8.5187  -13.3508   26.0965 C   0  0  1  0  0  0  0  0  0  0  0  0
    8.7651  -14.6428   26.8002 C   0  0  0  0  0  0  0  0  0  0  0  0
    7.7859  -15.4061   26.9824 O   0  0  0  0  0  0  0  0  0  0  0  0
   10.0229  -15.0485   27.2673 N   0  0  0  0  0  0  0  0  0  0  0  0
   10.2853  -16.2897   27.9868 C   0  0  1  0  0  0  0  0  0  0  0  0
   11.6058  -16.8165   27.4603 C   0  0  0  0  0  0  0  0  0  0  0  0
   11.5843  -16.8947   25.9473 C   0  0  0  0  0  0  0  0  0  0  0  0
   12.8989  -17.3458   25.4521 C   0  0  0  0  0  0  0  0  0  0  0  0
   13.8402  -17.6010   26.2381 O   0  0  0  0  0  0  0  0  0  0  0  0
   10.4019  -16.0876   29.4292 C   0  0  0  0  0  0  0  0  0  0  0  0
   10.3640  -14.8151   29.9557 O   0  0  0  0  0  0  0  0  0  0  0  0
   13.1181  -17.4965   24.0972 O   0  0  0  0  0  0  0  0  0  0  0  0
   10.5365  -17.0612   30.1958 O   0  0  0  0  0  0  0  0  0  0  0  0
  2  1  1  6
  2  3  1  0
  4  2  1  0
  4  5  1  6
  6  8  1  0
  6  4  1  0
  7  6  2  0
  8 12  1  0
  9 10  1  0
  9  8  1  0
 10 11  1  0
 11 12  1  0
 12 13  1  1
 13 14  2  0
 15 13  1  0
 15 16  1  0
 16 21  1  0
 16 17  1  6
 18 17  1  0
 19 20  2  0
 19 18  1  0
 21 22  1  0
 23 19  1  0
 24 21  2  0
M  END
$$$$
