VPE.pdb
     RDKit          3D

 24 24  0  0  1  0  0  0  0  0999 V2000
    6.3664  -15.6469   21.1868 C   0  0  0  0  0  0  0  0  0  0  0  0
    7.2793  -15.0256   20.1475 C   0  0  2  0  0  0  0  0  0  0  0  0
    8.3096  -16.0649   19.7477 C   0  0  0  0  0  0  0  0  0  0  0  0
    7.9009  -13.7878   20.7529 C   0  0  2  0  0  0  0  0  0  0  0  0
    8.6488  -13.1192   19.7184 N   0  0  0  0  0  0  0  0  0  0  0  0
    8.6632  -14.0441   21.9858 C   0  0  0  0  0  0  0  0  0  0  0  0
    9.9124  -14.2452   21.8673 O   0  0  0  0  0  0  0  0  0  0  0  0
    8.1006  -14.0800   23.2722 N   0  0  0  0  0  0  0  0  0  0  0  0
    6.6730  -13.9234   23.5509 C   0  0  0  0  0  0  0  0  0  0  0  0
    6.6535  -13.0881   24.8340 C   0  0  0  0  0  0  0  0  0  0  0  0
    7.7858  -13.7372   25.6018 C   0  0  0  0  0  0  0  0  0  0  0  0
    8.7439  -14.2670   24.5212 C   0  0  1  0  0  0  0  0  0  0  0  0
    8.9539  -15.7026   24.8679 C   0  0  0  0  0  0  0  0  0  0  0  0
    8.0271  -16.5084   24.6104 O   0  0  0  0  0  0  0  0  0  0  0  0
   10.1223  -16.1979   25.4629 N   0  0  0  0  0  0  0  0  0  0  0  0
   10.3489  -17.5932   25.8220 C   0  0  1  0  0  0  0  0  0  0  0  0
   11.7900  -17.8973   25.4624 C   0  0  0  0  0  0  0  0  0  0  0  0
   12.0211  -17.7065   23.9771 C   0  0  0  0  0  0  0  0  0  0  0  0
   13.4342  -17.9802   23.6527 C   0  0  0  0  0  0  0  0  0  0  0  0
   14.2906  -18.1444   24.5520 O   0  0  0  0  0  0  0  0  0  0  0  0
   10.1585  -17.8428   27.2491 C   0  0  0  0  0  0  0  0  0  0  0  0
   10.1676  -19.1323   27.7340 O   0  0  0  0  0  0  0  0  0  0  0  0
   13.8432  -18.0612   22.3365 O   0  0  0  0  0  0  0  0  0  0  0  0
    9.9864  -16.8948   28.0400 O   0  0  0  0  0  0  0  0  0  0  0  0
  2  1  1  1
  2  3  1  0
  4  2  1  0
  4  5  1  6
  6  8  1  0
  6  4  1  0
  7  6  2  0
  8 12  1  0
  9 10  1  0
  9  8  1  0
 10 11  1  0
 11 12  1  0
 12 13  1  1
 13 14  2  0
 15 13  1  0
 15 16  1  0
 16 21  1  0
 16 17  1  1
 18 17  1  0
 19 20  2  0
 19 18  1  0
 21 22  1  0
 23 19  1  0
 24 21  2  0
M  END
$$$$
