VPE.pdb
     RDKit          3D

 24 24  0  0  1  0  0  0  0  0999 V2000
    6.2793  -18.2845   16.3843 C   0  0  0  0  0  0  0  0  0  0  0  0
    7.2091  -17.8912   17.5159 C   0  0  2  0  0  0  0  0  0  0  0  0
    6.3737  -17.7196   18.7705 C   0  0  0  0  0  0  0  0  0  0  0  0
    7.9254  -16.6229   17.1116 C   0  0  2  0  0  0  0  0  0  0  0  0
    8.5949  -16.8744   15.8606 N   0  0  0  0  0  0  0  0  0  0  0  0
    8.7910  -16.0646   18.1633 C   0  0  0  0  0  0  0  0  0  0  0  0
    9.9896  -16.4838   18.2149 O   0  0  0  0  0  0  0  0  0  0  0  0
    8.3778  -15.1070   19.1040 N   0  0  0  0  0  0  0  0  0  0  0  0
    7.0016  -14.6310   19.2439 C   0  0  0  0  0  0  0  0  0  0  0  0
    7.1726  -13.1370   19.5326 C   0  0  0  0  0  0  0  0  0  0  0  0
    8.3496  -13.1741   20.4848 C   0  0  0  0  0  0  0  0  0  0  0  0
    9.1488  -14.4237   20.0773 C   0  0  1  0  0  0  0  0  0  0  0  0
    9.3213  -15.1955   21.3421 C   0  0  0  0  0  0  0  0  0  0  0  0
    8.3655  -15.9128   21.7250 O   0  0  0  0  0  0  0  0  0  0  0  0
   10.4853  -15.1633   22.1224 N   0  0  0  0  0  0  0  0  0  0  0  0
   10.7368  -16.0124   23.2812 C   0  0  1  0  0  0  0  0  0  0  0  0
   12.2272  -15.9376   23.5490 C   0  0  0  0  0  0  0  0  0  0  0  0
   12.9718  -16.9575   22.7117 C   0  0  0  0  0  0  0  0  0  0  0  0
   14.4263  -16.7601   22.8617 C   0  0  0  0  0  0  0  0  0  0  0  0
   14.8904  -15.8575   23.5956 O   0  0  0  0  0  0  0  0  0  0  0  0
   10.0224  -15.5603   24.4730 C   0  0  0  0  0  0  0  0  0  0  0  0
    9.9702  -16.3595   25.5941 O   0  0  0  0  0  0  0  0  0  0  0  0
   15.3127  -17.5765   22.1877 O   0  0  0  0  0  0  0  0  0  0  0  0
    9.4547  -14.4508   24.4878 O   0  0  0  0  0  0  0  0  0  0  0  0
  2  1  1  6
  2  3  1  0
  4  2  1  0
  4  5  1  6
  6  8  1  0
  6  4  1  0
  7  6  2  0
  8 12  1  0
  9 10  1  0
  9  8  1  0
 10 11  1  0
 11 12  1  0
 12 13  1  1
 13 14  2  0
 15 13  1  0
 15 16  1  0
 16 21  1  0
 16 17  1  1
 18 17  1  0
 19 20  2  0
 19 18  1  0
 21 22  1  0
 23 19  1  0
 24 21  2  0
M  END
$$$$
