VPE.pdb
     RDKit          3D

 24 24  0  0  1  0  0  0  0  0999 V2000
    7.1247  -16.3047   22.3364 C   0  0  0  0  0  0  0  0  0  0  0  0
    6.5098  -14.9186   22.3456 C   0  0  2  0  0  0  0  0  0  0  0  0
    5.6803  -14.7656   21.0846 C   0  0  0  0  0  0  0  0  0  0  0  0
    7.6329  -13.9106   22.4334 C   0  0  2  0  0  0  0  0  0  0  0  0
    8.4076  -14.0074   21.2223 N   0  0  0  0  0  0  0  0  0  0  0  0
    8.4243  -14.0045   23.6710 C   0  0  0  0  0  0  0  0  0  0  0  0
    9.6379  -14.3650   23.5606 O   0  0  0  0  0  0  0  0  0  0  0  0
    7.9258  -13.7231   24.9536 N   0  0  0  0  0  0  0  0  0  0  0  0
    6.5417  -13.3402   25.2330 C   0  0  0  0  0  0  0  0  0  0  0  0
    6.6833  -12.2786   26.3272 C   0  0  0  0  0  0  0  0  0  0  0  0
    7.7689  -12.9039   27.1779 C   0  0  0  0  0  0  0  0  0  0  0  0
    8.6039  -13.7456   26.1979 C   0  0  1  0  0  0  0  0  0  0  0  0
    8.6619  -15.1029   26.8140 C   0  0  0  0  0  0  0  0  0  0  0  0
    7.5916  -15.7520   26.9018 O   0  0  0  0  0  0  0  0  0  0  0  0
    9.8393  -15.6894   27.2983 N   0  0  0  0  0  0  0  0  0  0  0  0
    9.9132  -16.9844   27.9652 C   0  0  1  0  0  0  0  0  0  0  0  0
   10.9998  -17.7679   27.2553 C   0  0  0  0  0  0  0  0  0  0  0  0
   11.7881  -16.8666   26.3269 C   0  0  0  0  0  0  0  0  0  0  0  0
   12.8832  -17.6311   25.6999 C   0  0  0  0  0  0  0  0  0  0  0  0
   13.0383  -18.8535   25.9249 O   0  0  0  0  0  0  0  0  0  0  0  0
   10.2655  -16.8678   29.3785 C   0  0  0  0  0  0  0  0  0  0  0  0
   10.3002  -17.9890   30.1784 O   0  0  0  0  0  0  0  0  0  0  0  0
   13.7674  -17.0057   24.8434 O   0  0  0  0  0  0  0  0  0  0  0  0
   10.5373  -15.7566   29.8734 O   0  0  0  0  0  0  0  0  0  0  0  0
  2  1  1  6
  2  3  1  0
  4  2  1  0
  4  5  1  6
  6  8  1  0
  6  4  1  0
  7  6  2  0
  8 12  1  0
  9 10  1  0
  9  8  1  0
 10 11  1  0
 11 12  1  0
 12 13  1  1
 13 14  2  0
 15 13  1  0
 15 16  1  0
 16 21  1  0
 16 17  1  6
 18 17  1  0
 19 20  2  0
 19 18  1  0
 21 22  1  0
 23 19  1  0
 24 21  2  0
M  END
$$$$
