VPE.pdb
     RDKit          3D

 24 24  0  0  1  0  0  0  0  0999 V2000
    8.5776  -13.9645   16.2886 C   0  0  0  0  0  0  0  0  0  0  0  0
    9.3156  -14.2179   17.5889 C   0  0  2  0  0  0  0  0  0  0  0  0
    9.3390  -15.7155   17.8302 C   0  0  0  0  0  0  0  0  0  0  0  0
    8.6030  -13.4594   18.6852 C   0  0  2  0  0  0  0  0  0  0  0  0
    8.6225  -12.0610   18.3381 N   0  0  0  0  0  0  0  0  0  0  0  0
    9.1003  -13.7574   20.0383 C   0  0  0  0  0  0  0  0  0  0  0  0
   10.0704  -13.0588   20.4694 O   0  0  0  0  0  0  0  0  0  0  0  0
    8.5741  -14.7563   20.8737 N   0  0  0  0  0  0  0  0  0  0  0  0
    7.3864  -15.5506   20.5596 C   0  0  0  0  0  0  0  0  0  0  0  0
    6.6813  -15.6811   21.9125 C   0  0  0  0  0  0  0  0  0  0  0  0
    7.8696  -15.9228   22.8195 C   0  0  0  0  0  0  0  0  0  0  0  0
    9.0430  -15.2013   22.1349 C   0  0  1  0  0  0  0  0  0  0  0  0
   10.1181  -16.2307   22.0353 C   0  0  0  0  0  0  0  0  0  0  0  0
   10.0241  -17.0887   21.1246 O   0  0  0  0  0  0  0  0  0  0  0  0
   11.2206  -16.2924   22.8986 N   0  0  0  0  0  0  0  0  0  0  0  0
   12.3242  -17.2379   22.7763 C   0  0  1  0  0  0  0  0  0  0  0  0
   13.5884  -16.4597   23.0842 C   0  0  0  0  0  0  0  0  0  0  0  0
   14.8007  -17.3668   23.0274 C   0  0  0  0  0  0  0  0  0  0  0  0
   16.0237  -16.5819   23.2831 C   0  0  0  0  0  0  0  0  0  0  0  0
   17.1587  -17.1102   23.2435 O   0  0  0  0  0  0  0  0  0  0  0  0
   12.2165  -18.3501   23.7179 C   0  0  0  0  0  0  0  0  0  0  0  0
   11.4033  -18.2442   24.8249 O   0  0  0  0  0  0  0  0  0  0  0  0
   15.9383  -15.2349   23.5740 O   0  0  0  0  0  0  0  0  0  0  0  0
   12.8572  -19.4027   23.5301 O   0  0  0  0  0  0  0  0  0  0  0  0
  2  1  1  6
  2  3  1  0
  4  2  1  0
  4  5  1  6
  6  8  1  0
  6  4  1  0
  7  6  2  0
  8 12  1  0
  9 10  1  0
  9  8  1  0
 10 11  1  0
 11 12  1  0
 12 13  1  6
 13 14  2  0
 15 13  1  0
 15 16  1  0
 16 21  1  0
 16 17  1  1
 18 17  1  0
 19 20  2  0
 19 18  1  0
 21 22  1  0
 23 19  1  0
 24 21  2  0
M  END
$$$$
