VPE.pdb
     RDKit          3D

 24 24  0  0  1  0  0  0  0  0999 V2000
    5.6070  -18.2341   17.5433 C   0  0  0  0  0  0  0  0  0  0  0  0
    6.9312  -17.6918   18.0454 C   0  0  2  0  0  0  0  0  0  0  0  0
    6.7594  -17.3133   19.5045 C   0  0  0  0  0  0  0  0  0  0  0  0
    7.3129  -16.5152   17.1765 C   0  0  2  0  0  0  0  0  0  0  0  0
    7.3575  -16.9721   15.8106 N   0  0  0  0  0  0  0  0  0  0  0  0
    8.5268  -15.8121   17.6228 C   0  0  0  0  0  0  0  0  0  0  0  0
    9.6355  -16.1965   17.1346 O   0  0  0  0  0  0  0  0  0  0  0  0
    8.5353  -14.7535   18.5457 N   0  0  0  0  0  0  0  0  0  0  0  0
    7.3561  -14.2892   19.2765 C   0  0  0  0  0  0  0  0  0  0  0  0
    7.5305  -12.7681   19.2979 C   0  0  0  0  0  0  0  0  0  0  0  0
    9.0163  -12.6658   19.5722 C   0  0  0  0  0  0  0  0  0  0  0  0
    9.6203  -13.9412   18.9600 C   0  0  1  0  0  0  0  0  0  0  0  0
   10.4256  -14.5478   20.0594 C   0  0  0  0  0  0  0  0  0  0  0  0
    9.8074  -15.0550   21.0265 O   0  0  0  0  0  0  0  0  0  0  0  0
   11.8268  -14.5814   20.0721 N   0  0  0  0  0  0  0  0  0  0  0  0
   12.6336  -15.4100   20.9608 C   0  0  1  0  0  0  0  0  0  0  0  0
   13.0406  -16.6281   20.1550 C   0  0  0  0  0  0  0  0  0  0  0  0
   13.8410  -17.5901   21.0093 C   0  0  0  0  0  0  0  0  0  0  0  0
   14.2438  -18.7577   20.2022 C   0  0  0  0  0  0  0  0  0  0  0  0
   13.9258  -18.8578   18.9948 O   0  0  0  0  0  0  0  0  0  0  0  0
   13.8404  -14.7274   21.4218 C   0  0  0  0  0  0  0  0  0  0  0  0
   14.2875  -13.5971   20.7732 O   0  0  0  0  0  0  0  0  0  0  0  0
   14.9874  -19.7732   20.7698 O   0  0  0  0  0  0  0  0  0  0  0  0
   14.4758  -15.1590   22.4034 O   0  0  0  0  0  0  0  0  0  0  0  0
  2  1  1  6
  2  3  1  0
  4  2  1  0
  4  5  1  6
  6  8  1  0
  6  4  1  0
  7  6  2  0
  8 12  1  0
  9 10  1  0
  9  8  1  0
 10 11  1  0
 11 12  1  0
 12 13  1  1
 13 14  2  0
 15 13  1  0
 15 16  1  0
 16 21  1  0
 16 17  1  6
 18 17  1  0
 19 20  2  0
 19 18  1  0
 21 22  1  0
 23 19  1  0
 24 21  2  0
M  END
$$$$
