VPE.pdb
     RDKit          3D

 24 24  0  0  1  0  0  0  0  0999 V2000
    8.3437  -18.8357   18.5135 C   0  0  0  0  0  0  0  0  0  0  0  0
    7.3840  -17.7896   17.9803 C   0  0  2  0  0  0  0  0  0  0  0  0
    6.6072  -18.4077   16.8331 C   0  0  0  0  0  0  0  0  0  0  0  0
    8.1944  -16.5857   17.5571 C   0  0  2  0  0  0  0  0  0  0  0  0
    8.9924  -16.9692   16.4202 N   0  0  0  0  0  0  0  0  0  0  0  0
    8.9556  -15.9630   18.6524 C   0  0  0  0  0  0  0  0  0  0  0  0
   10.2144  -16.1373   18.6598 O   0  0  0  0  0  0  0  0  0  0  0  0
    8.3821  -15.1960   19.6798 N   0  0  0  0  0  0  0  0  0  0  0  0
    6.9543  -14.8943   19.7828 C   0  0  0  0  0  0  0  0  0  0  0  0
    6.9345  -13.4457   20.2783 C   0  0  0  0  0  0  0  0  0  0  0  0
    8.0525  -13.4891   21.2989 C   0  0  0  0  0  0  0  0  0  0  0  0
    9.0127  -14.5767   20.7876 C   0  0  1  0  0  0  0  0  0  0  0  0
    9.2022  -15.4947   21.9481 C   0  0  0  0  0  0  0  0  0  0  0  0
    8.2772  -16.2996   22.2146 O   0  0  0  0  0  0  0  0  0  0  0  0
   10.3496  -15.5070   22.7530 N   0  0  0  0  0  0  0  0  0  0  0  0
   10.6572  -16.5241   23.7520 C   0  0  1  0  0  0  0  0  0  0  0  0
   12.0903  -16.9496   23.4999 C   0  0  0  0  0  0  0  0  0  0  0  0
   13.0269  -15.7641   23.6136 C   0  0  0  0  0  0  0  0  0  0  0  0
   14.4109  -16.1929   23.3347 C   0  0  0  0  0  0  0  0  0  0  0  0
   14.7719  -17.3810   23.4988 O   0  0  0  0  0  0  0  0  0  0  0  0
   10.5512  -16.0178   25.1186 C   0  0  0  0  0  0  0  0  0  0  0  0
   10.3433  -14.6749   25.3455 O   0  0  0  0  0  0  0  0  0  0  0  0
   15.3443  -15.2816   22.8823 O   0  0  0  0  0  0  0  0  0  0  0  0
   10.6476  -16.7929   26.0899 O   0  0  0  0  0  0  0  0  0  0  0  0
  2  1  1  6
  2  3  1  0
  4  2  1  0
  4  5  1  6
  6  8  1  0
  6  4  1  0
  7  6  2  0
  8 12  1  0
  9 10  1  0
  9  8  1  0
 10 11  1  0
 11 12  1  0
 12 13  1  1
 13 14  2  0
 15 13  1  0
 15 16  1  0
 16 21  1  0
 16 17  1  6
 18 17  1  0
 19 20  2  0
 19 18  1  0
 21 22  1  0
 23 19  1  0
 24 21  2  0
M  END
$$$$
