VPE.pdb
     RDKit          3D

 24 24  0  0  1  0  0  0  0  0999 V2000
    8.2581  -19.4940   19.5954 C   0  0  0  0  0  0  0  0  0  0  0  0
    7.1767  -18.5403   19.1255 C   0  0  2  0  0  0  0  0  0  0  0  0
    6.3640  -19.2442   18.0552 C   0  0  0  0  0  0  0  0  0  0  0  0
    7.8497  -17.2852   18.6188 C   0  0  2  0  0  0  0  0  0  0  0  0
    8.5023  -17.6065   17.3748 N   0  0  0  0  0  0  0  0  0  0  0  0
    8.7189  -16.6314   19.6107 C   0  0  0  0  0  0  0  0  0  0  0  0
    9.9744  -16.7433   19.4489 O   0  0  0  0  0  0  0  0  0  0  0  0
    8.2509  -15.8990   20.7140 N   0  0  0  0  0  0  0  0  0  0  0  0
    6.8505  -15.5313   20.9237 C   0  0  0  0  0  0  0  0  0  0  0  0
    6.9400  -14.1159   21.5009 C   0  0  0  0  0  0  0  0  0  0  0  0
    8.1130  -14.2778   22.4449 C   0  0  0  0  0  0  0  0  0  0  0  0
    8.9798  -15.3806   21.8133 C   0  0  1  0  0  0  0  0  0  0  0  0
    9.1877  -16.3751   22.9055 C   0  0  0  0  0  0  0  0  0  0  0  0
    8.5257  -17.4401   22.8611 O   0  0  0  0  0  0  0  0  0  0  0  0
   10.0762  -16.1861   23.9730 N   0  0  0  0  0  0  0  0  0  0  0  0
   11.0695  -17.1587   24.4141 C   0  0  1  0  0  0  0  0  0  0  0  0
   12.0239  -17.3502   23.2518 C   0  0  0  0  0  0  0  0  0  0  0  0
   13.0431  -18.4253   23.5696 C   0  0  0  0  0  0  0  0  0  0  0  0
   13.9652  -18.5915   22.4297 C   0  0  0  0  0  0  0  0  0  0  0  0
   14.5079  -17.6056   21.8799 O   0  0  0  0  0  0  0  0  0  0  0  0
   11.8290  -16.6977   25.5741 C   0  0  0  0  0  0  0  0  0  0  0  0
   11.9765  -17.5137   26.6742 O   0  0  0  0  0  0  0  0  0  0  0  0
   14.2499  -19.8517   21.9427 O   0  0  0  0  0  0  0  0  0  0  0  0
   12.3495  -15.5651   25.5804 O   0  0  0  0  0  0  0  0  0  0  0  0
  2  1  1  6
  2  3  1  0
  4  2  1  0
  4  5  1  6
  6  8  1  0
  6  4  1  0
  7  6  2  0
  8 12  1  0
  9 10  1  0
  9  8  1  0
 10 11  1  0
 11 12  1  0
 12 13  1  1
 13 14  2  0
 15 13  1  0
 15 16  1  0
 16 21  1  0
 16 17  1  6
 18 17  1  0
 19 20  2  0
 19 18  1  0
 21 22  1  0
 23 19  1  0
 24 21  2  0
M  END
$$$$
