VPE.pdb
     RDKit          3D

 24 24  0  0  1  0  0  0  0  0999 V2000
    7.9197  -12.9149   26.8825 C   0  0  0  0  0  0  0  0  0  0  0  0
    7.0102  -12.4456   25.7635 C   0  0  2  0  0  0  0  0  0  0  0  0
    6.1699  -11.2987   26.2926 C   0  0  0  0  0  0  0  0  0  0  0  0
    6.1763  -13.6239   25.3149 C   0  0  2  0  0  0  0  0  0  0  0  0
    5.3391  -14.0174   26.4197 N   0  0  0  0  0  0  0  0  0  0  0  0
    6.9609  -14.7210   24.7252 C   0  0  0  0  0  0  0  0  0  0  0  0
    7.0365  -15.8040   25.3859 O   0  0  0  0  0  0  0  0  0  0  0  0
    7.6248  -14.6453   23.4898 N   0  0  0  0  0  0  0  0  0  0  0  0
    7.6031  -13.4736   22.6141 C   0  0  0  0  0  0  0  0  0  0  0  0
    7.5204  -14.0827   21.2117 C   0  0  0  0  0  0  0  0  0  0  0  0
    8.4864  -15.2398   21.3572 C   0  0  0  0  0  0  0  0  0  0  0  0
    8.4223  -15.6238   22.8454 C   0  0  1  0  0  0  0  0  0  0  0  0
    9.8425  -15.6218   23.3016 C   0  0  0  0  0  0  0  0  0  0  0  0
   10.2737  -14.5885   23.8681 O   0  0  0  0  0  0  0  0  0  0  0  0
   10.7171  -16.7040   23.1326 N   0  0  0  0  0  0  0  0  0  0  0  0
   12.0004  -16.8533   23.8093 C   0  0  1  0  0  0  0  0  0  0  0  0
   11.6914  -16.9647   25.2893 C   0  0  0  0  0  0  0  0  0  0  0  0
   10.8786  -18.2117   25.5725 C   0  0  0  0  0  0  0  0  0  0  0  0
   10.6663  -18.3496   27.0261 C   0  0  0  0  0  0  0  0  0  0  0  0
    9.5806  -18.7672   27.4906 O   0  0  0  0  0  0  0  0  0  0  0  0
   12.7200  -18.0533   23.3882 C   0  0  0  0  0  0  0  0  0  0  0  0
   12.0951  -18.9948   22.6001 O   0  0  0  0  0  0  0  0  0  0  0  0
   11.6725  -18.0171   27.9112 O   0  0  0  0  0  0  0  0  0  0  0  0
   13.9026  -18.2370   23.7366 O   0  0  0  0  0  0  0  0  0  0  0  0
  2  1  1  1
  2  3  1  0
  4  2  1  0
  4  5  1  1
  6  8  1  0
  6  4  1  0
  7  6  2  0
  8 12  1  0
  9 10  1  0
  9  8  1  0
 10 11  1  0
 11 12  1  0
 12 13  1  1
 13 14  2  0
 15 13  1  0
 15 16  1  0
 16 21  1  0
 16 17  1  1
 18 17  1  0
 19 20  2  0
 19 18  1  0
 21 22  1  0
 23 19  1  0
 24 21  2  0
M  END
$$$$
