VPE.pdb
     RDKit          3D

 24 24  0  0  1  0  0  0  0  0999 V2000
    8.9356  -19.0705   19.7607 C   0  0  0  0  0  0  0  0  0  0  0  0
    7.6739  -18.2366   19.6500 C   0  0  2  0  0  0  0  0  0  0  0  0
    6.7472  -18.9179   18.6607 C   0  0  0  0  0  0  0  0  0  0  0  0
    8.0716  -16.8442   19.2162 C   0  0  2  0  0  0  0  0  0  0  0  0
    8.5999  -16.9333   17.8786 N   0  0  0  0  0  0  0  0  0  0  0  0
    8.9491  -16.1487   20.1718 C   0  0  0  0  0  0  0  0  0  0  0  0
   10.1620  -15.9792   19.8322 O   0  0  0  0  0  0  0  0  0  0  0  0
    8.5328  -15.6659   21.4233 N   0  0  0  0  0  0  0  0  0  0  0  0
    7.1494  -15.6950   21.8981 C   0  0  0  0  0  0  0  0  0  0  0  0
    7.0026  -14.3632   22.6392 C   0  0  0  0  0  0  0  0  0  0  0  0
    8.3347  -14.2996   23.3566 C   0  0  0  0  0  0  0  0  0  0  0  0
    9.3076  -15.0776   22.4540 C   0  0  1  0  0  0  0  0  0  0  0  0
    9.9475  -16.0785   23.3562 C   0  0  0  0  0  0  0  0  0  0  0  0
    9.3026  -17.1209   23.6248 O   0  0  0  0  0  0  0  0  0  0  0  0
   11.2218  -15.9194   23.9177 N   0  0  0  0  0  0  0  0  0  0  0  0
   11.8909  -16.9034   24.7609 C   0  0  1  0  0  0  0  0  0  0  0  0
   13.3624  -16.5384   24.7566 C   0  0  0  0  0  0  0  0  0  0  0  0
   13.9095  -16.5434   23.3437 C   0  0  0  0  0  0  0  0  0  0  0  0
   15.3292  -16.1417   23.3567 C   0  0  0  0  0  0  0  0  0  0  0  0
   15.9158  -15.8517   24.4247 O   0  0  0  0  0  0  0  0  0  0  0  0
   11.4062  -16.8829   26.1392 C   0  0  0  0  0  0  0  0  0  0  0  0
   11.7677  -17.8826   27.0156 O   0  0  0  0  0  0  0  0  0  0  0  0
   16.0453  -16.0776   22.1780 O   0  0  0  0  0  0  0  0  0  0  0  0
   10.6630  -15.9639   26.5351 O   0  0  0  0  0  0  0  0  0  0  0  0
  2  1  1  6
  2  3  1  0
  4  2  1  0
  4  5  1  6
  6  8  1  0
  6  4  1  0
  7  6  2  0
  8 12  1  0
  9 10  1  0
  9  8  1  0
 10 11  1  0
 11 12  1  0
 12 13  1  1
 13 14  2  0
 15 13  1  0
 15 16  1  0
 16 21  1  0
 16 17  1  1
 18 17  1  0
 19 20  2  0
 19 18  1  0
 21 22  1  0
 23 19  1  0
 24 21  2  0
M  END
$$$$
