VPE.pdb
     RDKit          3D

 24 24  0  0  1  0  0  0  0  0999 V2000
    6.7551  -13.7984   19.5053 C   0  0  0  0  0  0  0  0  0  0  0  0
    7.4461  -14.2795   20.7665 C   0  0  2  0  0  0  0  0  0  0  0  0
    6.4253  -15.0260   21.6044 C   0  0  0  0  0  0  0  0  0  0  0  0
    8.0155  -13.0722   21.4759 C   0  0  2  0  0  0  0  0  0  0  0  0
    8.8871  -12.3895   20.5536 N   0  0  0  0  0  0  0  0  0  0  0  0
    8.6285  -13.3789   22.7786 C   0  0  0  0  0  0  0  0  0  0  0  0
    9.8570  -13.7046   22.7823 O   0  0  0  0  0  0  0  0  0  0  0  0
    7.9462  -13.3345   24.0055 N   0  0  0  0  0  0  0  0  0  0  0  0
    6.5500  -12.9247   24.1564 C   0  0  0  0  0  0  0  0  0  0  0  0
    6.5566  -12.1230   25.4609 C   0  0  0  0  0  0  0  0  0  0  0  0
    7.4733  -12.9819   26.3066 C   0  0  0  0  0  0  0  0  0  0  0  0
    8.4207  -13.6583   25.3011 C   0  0  1  0  0  0  0  0  0  0  0  0
    8.3338  -15.1141   25.6148 C   0  0  0  0  0  0  0  0  0  0  0  0
    7.2352  -15.6895   25.4233 O   0  0  0  0  0  0  0  0  0  0  0  0
    9.4053  -15.8702   26.1095 N   0  0  0  0  0  0  0  0  0  0  0  0
    9.3706  -17.3081   26.3513 C   0  0  1  0  0  0  0  0  0  0  0  0
   10.2373  -17.9414   25.2808 C   0  0  0  0  0  0  0  0  0  0  0  0
   11.6675  -17.4540   25.3943 C   0  0  0  0  0  0  0  0  0  0  0  0
   12.4972  -18.0951   24.3563 C   0  0  0  0  0  0  0  0  0  0  0  0
   12.0007  -18.8813   23.5171 O   0  0  0  0  0  0  0  0  0  0  0  0
    9.9050  -17.6691   27.6625 C   0  0  0  0  0  0  0  0  0  0  0  0
   10.4899  -16.7101   28.4601 O   0  0  0  0  0  0  0  0  0  0  0  0
   13.8519  -17.8369   24.2902 O   0  0  0  0  0  0  0  0  0  0  0  0
    9.8376  -18.8446   28.0715 O   0  0  0  0  0  0  0  0  0  0  0  0
  2  1  1  6
  2  3  1  0
  4  2  1  0
  4  5  1  6
  6  8  1  0
  6  4  1  0
  7  6  2  0
  8 12  1  0
  9 10  1  0
  9  8  1  0
 10 11  1  0
 11 12  1  0
 12 13  1  1
 13 14  2  0
 15 13  1  0
 15 16  1  0
 16 21  1  0
 16 17  1  6
 18 17  1  0
 19 20  2  0
 19 18  1  0
 21 22  1  0
 23 19  1  0
 24 21  2  0
M  END
$$$$
