VPE.pdb
     RDKit          3D

 24 24  0  0  1  0  0  0  0  0999 V2000
    6.9038  -18.8034   17.0412 C   0  0  0  0  0  0  0  0  0  0  0  0
    7.7213  -18.1579   18.1433 C   0  0  2  0  0  0  0  0  0  0  0  0
    6.8254  -17.9942   19.3566 C   0  0  0  0  0  0  0  0  0  0  0  0
    8.2482  -16.8402   17.6226 C   0  0  2  0  0  0  0  0  0  0  0  0
    8.9631  -17.1037   16.3996 N   0  0  0  0  0  0  0  0  0  0  0  0
    9.0087  -16.0660   18.6172 C   0  0  0  0  0  0  0  0  0  0  0  0
   10.2486  -16.3211   18.7300 O   0  0  0  0  0  0  0  0  0  0  0  0
    8.4540  -15.0728   19.4409 N   0  0  0  0  0  0  0  0  0  0  0  0
    7.1068  -14.5263   19.2783 C   0  0  0  0  0  0  0  0  0  0  0  0
    7.2901  -13.0380   19.5879 C   0  0  0  0  0  0  0  0  0  0  0  0
    8.2314  -13.1174   20.7714 C   0  0  0  0  0  0  0  0  0  0  0  0
    9.0328  -14.4122   20.5533 C   0  0  1  0  0  0  0  0  0  0  0  0
    8.8889  -15.1697   21.8302 C   0  0  0  0  0  0  0  0  0  0  0  0
    7.8528  -15.8599   21.9876 O   0  0  0  0  0  0  0  0  0  0  0  0
    9.8414  -15.1525   22.8584 N   0  0  0  0  0  0  0  0  0  0  0  0
   10.2018  -16.3014   23.6813 C   0  0  1  0  0  0  0  0  0  0  0  0
   10.8544  -17.3045   22.7505 C   0  0  0  0  0  0  0  0  0  0  0  0
   11.1560  -18.5956   23.4838 C   0  0  0  0  0  0  0  0  0  0  0  0
   11.7915  -19.5565   22.5619 C   0  0  0  0  0  0  0  0  0  0  0  0
   12.9841  -19.9102   22.7078 O   0  0  0  0  0  0  0  0  0  0  0  0
   11.1488  -15.9579   24.7398 C   0  0  0  0  0  0  0  0  0  0  0  0
   12.0786  -14.9611   24.5405 O   0  0  0  0  0  0  0  0  0  0  0  0
   11.0745  -20.0896   21.5092 O   0  0  0  0  0  0  0  0  0  0  0  0
   11.1253  -16.5612   25.8302 O   0  0  0  0  0  0  0  0  0  0  0  0
  2  1  1  6
  2  3  1  0
  4  2  1  0
  4  5  1  6
  6  8  1  0
  6  4  1  0
  7  6  2  0
  8 12  1  0
  9 10  1  0
  9  8  1  0
 10 11  1  0
 11 12  1  0
 12 13  1  1
 13 14  2  0
 15 13  1  0
 15 16  1  0
 16 21  1  0
 16 17  1  6
 18 17  1  0
 19 20  2  0
 19 18  1  0
 21 22  1  0
 23 19  1  0
 24 21  2  0
M  END
$$$$
