PMQ.pdb
     RDKit          3D

 25 25  0  0  1  0  0  0  0  0999 V2000
    7.0863  -14.8030   20.4594 N   0  0  0  0  0  0  0  0  0  0  0  0
    6.8108  -14.5069   19.0450 C   0  0  0  0  0  0  0  0  0  0  0  0
    7.1668  -13.0375   18.9002 C   0  0  0  0  0  0  0  0  0  0  0  0
    7.9262  -12.6844   20.1867 C   0  0  0  0  0  0  0  0  0  0  0  0
    8.3239  -14.0779   20.6482 C   0  0  1  0  0  0  0  0  0  0  0  0
    8.8106  -14.1138   22.0303 C   0  0  0  0  0  0  0  0  0  0  0  0
    9.9716  -13.7042   22.2806 O   0  0  0  0  0  0  0  0  0  0  0  0
    7.0642  -11.2470   27.7150 C   0  0  0  0  0  0  0  0  0  0  0  0
    6.1900  -12.6577   27.0363 S   0  0  0  0  0  0  0  0  0  0  0  0
    6.6754  -13.0125   25.3314 C   0  0  0  0  0  0  0  0  0  0  0  0
    7.1591  -14.3979   25.2207 C   0  0  0  0  0  0  0  0  0  0  0  0
    8.4426  -14.6569   24.4897 C   0  0  2  0  0  0  0  0  0  0  0  0
    8.0036  -14.5940   23.0599 N   0  0  0  0  0  0  0  0  0  0  0  0
    9.0550  -15.9858   24.6960 C   0  0  0  0  0  0  0  0  0  0  0  0
    8.3280  -17.0194   24.5799 O   0  0  0  0  0  0  0  0  0  0  0  0
   14.5402  -17.8538   22.7148 N   0  0  0  0  0  0  0  0  0  0  0  0
   14.4443  -16.8427   23.6975 C   0  0  0  0  0  0  0  0  0  0  0  0
   15.3550  -15.9796   23.8716 O   0  0  0  0  0  0  0  0  0  0  0  0
   13.2458  -16.7626   24.5619 C   0  0  0  0  0  0  0  0  0  0  0  0
   12.1492  -17.6997   24.2300 C   0  0  0  0  0  0  0  0  0  0  0  0
   10.9497  -17.6066   25.1104 C   0  0  2  0  0  0  0  0  0  0  0  0
   10.4179  -16.2235   25.0090 N   0  0  0  0  0  0  0  0  0  0  0  0
   11.1779  -17.9718   26.4746 C   0  0  0  0  0  0  0  0  0  0  0  0
   10.9198  -17.0887   27.5383 O   0  0  0  0  0  0  0  0  0  0  0  0
   11.6295  -19.0912   26.8063 O   0  0  0  0  0  0  0  0  0  0  0  0
  1  5  1  0
  1  2  1  0
  2  3  1  0
  4  5  1  0
  4  3  1  0
  5  6  1  1
  6 13  1  0
  6  7  2  0
  8  9  1  0
  9 10  1  0
 11 10  1  0
 12 11  1  1
 12 14  1  0
 13 12  1  0
 14 15  2  0
 16 17  1  0
 17 19  1  0
 17 18  2  0
 19 20  1  0
 21 20  1  6
 22 21  1  0
 22 14  1  0
 23 24  1  0
 23 21  1  0
 25 23  2  0
M  END
$$$$
