PMQ.pdb
     RDKit          3D

 25 25  0  0  1  0  0  0  0  0999 V2000
    7.1183  -14.9799   20.2783 N   0  0  0  0  0  0  0  0  0  0  0  0
    7.0003  -14.7135   18.8363 C   0  0  0  0  0  0  0  0  0  0  0  0
    7.4874  -13.2829   18.6849 C   0  0  0  0  0  0  0  0  0  0  0  0
    8.1507  -12.9452   20.0275 C   0  0  0  0  0  0  0  0  0  0  0  0
    8.3884  -14.3485   20.5636 C   0  0  1  0  0  0  0  0  0  0  0  0
    8.7403  -14.3734   21.9863 C   0  0  0  0  0  0  0  0  0  0  0  0
    9.9113  -14.0770   22.3318 O   0  0  0  0  0  0  0  0  0  0  0  0
    7.1756  -10.8245   26.9803 C   0  0  0  0  0  0  0  0  0  0  0  0
    6.2146  -12.3128   26.7042 S   0  0  0  0  0  0  0  0  0  0  0  0
    6.3337  -12.9020   24.9992 C   0  0  0  0  0  0  0  0  0  0  0  0
    6.7275  -14.3198   24.9800 C   0  0  0  0  0  0  0  0  0  0  0  0
    8.0697  -14.6876   24.4216 C   0  0  2  0  0  0  0  0  0  0  0  0
    7.7955  -14.7199   22.9502 N   0  0  0  0  0  0  0  0  0  0  0  0
    8.5894  -16.0198   24.7940 C   0  0  0  0  0  0  0  0  0  0  0  0
    7.9473  -17.0514   24.4279 O   0  0  0  0  0  0  0  0  0  0  0  0
   13.2791  -18.2268   22.0175 N   0  0  0  0  0  0  0  0  0  0  0  0
   12.5855  -19.0712   22.9137 C   0  0  0  0  0  0  0  0  0  0  0  0
   12.0978  -20.1840   22.5551 O   0  0  0  0  0  0  0  0  0  0  0  0
   12.4149  -18.6686   24.3275 C   0  0  0  0  0  0  0  0  0  0  0  0
   11.6373  -17.4298   24.5545 C   0  0  0  0  0  0  0  0  0  0  0  0
   10.4646  -17.5768   25.4632 C   0  0  2  0  0  0  0  0  0  0  0  0
    9.7758  -16.2626   25.5323 N   0  0  0  0  0  0  0  0  0  0  0  0
   10.7776  -18.0636   26.7715 C   0  0  0  0  0  0  0  0  0  0  0  0
   11.2954  -19.3535   26.9852 O   0  0  0  0  0  0  0  0  0  0  0  0
   10.6018  -17.3797   27.8051 O   0  0  0  0  0  0  0  0  0  0  0  0
  1  5  1  0
  1  2  1  0
  2  3  1  0
  4  5  1  0
  4  3  1  0
  5  6  1  1
  6 13  1  0
  6  7  2  0
  8  9  1  0
  9 10  1  0
 11 10  1  0
 12 11  1  1
 12 14  1  0
 13 12  1  0
 14 15  2  0
 16 17  1  0
 17 19  1  0
 17 18  2  0
 19 20  1  0
 21 20  1  6
 22 21  1  0
 22 14  1  0
 23 24  1  0
 23 21  1  0
 25 23  2  0
M  END
$$$$
