PMQ.pdb
     RDKit          3D

 25 25  0  0  1  0  0  0  0  0999 V2000
    7.2806  -14.8346   20.2411 N   0  0  0  0  0  0  0  0  0  0  0  0
    7.0439  -14.5004   18.8281 C   0  0  0  0  0  0  0  0  0  0  0  0
    7.3367  -13.0122   18.7475 C   0  0  0  0  0  0  0  0  0  0  0  0
    8.0312  -12.6720   20.0736 C   0  0  0  0  0  0  0  0  0  0  0  0
    8.4756  -14.0619   20.5019 C   0  0  1  0  0  0  0  0  0  0  0  0
    8.9123  -14.1257   21.8997 C   0  0  0  0  0  0  0  0  0  0  0  0
   10.1282  -13.9592   22.1686 O   0  0  0  0  0  0  0  0  0  0  0  0
    6.7225  -11.1162   26.2230 C   0  0  0  0  0  0  0  0  0  0  0  0
    6.7972  -12.5201   27.3360 S   0  0  0  0  0  0  0  0  0  0  0  0
    6.9050  -14.0934   26.4522 C   0  0  0  0  0  0  0  0  0  0  0  0
    7.1149  -13.8537   25.0155 C   0  0  0  0  0  0  0  0  0  0  0  0
    8.3682  -14.3700   24.3742 C   0  0  2  0  0  0  0  0  0  0  0  0
    7.9984  -14.3672   22.9235 N   0  0  0  0  0  0  0  0  0  0  0  0
    8.7561  -15.7535   24.7188 C   0  0  0  0  0  0  0  0  0  0  0  0
    8.0313  -16.7120   24.3108 O   0  0  0  0  0  0  0  0  0  0  0  0
   13.4301  -18.4548   22.7385 N   0  0  0  0  0  0  0  0  0  0  0  0
   13.2223  -19.3375   23.8224 C   0  0  0  0  0  0  0  0  0  0  0  0
   13.9532  -20.3536   24.0175 O   0  0  0  0  0  0  0  0  0  0  0  0
   12.1241  -19.0852   24.7818 C   0  0  0  0  0  0  0  0  0  0  0  0
   11.5290  -17.7307   24.7371 C   0  0  0  0  0  0  0  0  0  0  0  0
   10.3158  -17.5447   25.5834 C   0  0  2  0  0  0  0  0  0  0  0  0
    9.8987  -16.1234   25.4735 N   0  0  0  0  0  0  0  0  0  0  0  0
   10.4751  -17.9302   26.9519 C   0  0  0  0  0  0  0  0  0  0  0  0
   10.5488  -19.2785   27.3451 O   0  0  0  0  0  0  0  0  0  0  0  0
   10.5482  -17.0967   27.8829 O   0  0  0  0  0  0  0  0  0  0  0  0
  1  5  1  0
  1  2  1  0
  2  3  1  0
  4  5  1  0
  4  3  1  0
  5  6  1  1
  6 13  1  0
  6  7  2  0
  8  9  1  0
  9 10  1  0
 11 10  1  0
 12 11  1  1
 12 14  1  0
 13 12  1  0
 14 15  2  0
 16 17  1  0
 17 19  1  0
 17 18  2  0
 19 20  1  0
 21 20  1  6
 22 21  1  0
 22 14  1  0
 23 24  1  0
 23 21  1  0
 25 23  2  0
M  END
$$$$
