PMQ.pdb
     RDKit          3D

 25 25  0  0  1  0  0  0  0  0999 V2000
    7.1594  -14.9214   20.0368 N   0  0  0  0  0  0  0  0  0  0  0  0
    6.8918  -14.8212   18.5937 C   0  0  0  0  0  0  0  0  0  0  0  0
    7.4568  -13.4652   18.2075 C   0  0  0  0  0  0  0  0  0  0  0  0
    8.2952  -13.0258   19.4161 C   0  0  0  0  0  0  0  0  0  0  0  0
    8.4953  -14.3695   20.0998 C   0  0  1  0  0  0  0  0  0  0  0  0
    9.0092  -14.2528   21.4676 C   0  0  0  0  0  0  0  0  0  0  0  0
   10.2156  -13.9494   21.6437 O   0  0  0  0  0  0  0  0  0  0  0  0
    5.7959  -11.7503   28.0766 C   0  0  0  0  0  0  0  0  0  0  0  0
    5.8580  -12.2328   26.3508 S   0  0  0  0  0  0  0  0  0  0  0  0
    7.2798  -13.2867   25.9821 C   0  0  0  0  0  0  0  0  0  0  0  0
    7.3391  -13.5702   24.5393 C   0  0  0  0  0  0  0  0  0  0  0  0
    8.5847  -14.1870   23.9765 C   0  0  2  0  0  0  0  0  0  0  0  0
    8.1784  -14.4736   22.5644 N   0  0  0  0  0  0  0  0  0  0  0  0
    9.0054  -15.4711   24.5745 C   0  0  0  0  0  0  0  0  0  0  0  0
    8.2260  -16.4692   24.4918 O   0  0  0  0  0  0  0  0  0  0  0  0
   14.2447  -17.9894   23.5206 N   0  0  0  0  0  0  0  0  0  0  0  0
   14.1951  -16.8069   24.2929 C   0  0  0  0  0  0  0  0  0  0  0  0
   15.1637  -15.9922   24.3462 O   0  0  0  0  0  0  0  0  0  0  0  0
   12.9785  -16.4815   25.0702 C   0  0  0  0  0  0  0  0  0  0  0  0
   11.8650  -17.4501   24.9580 C   0  0  0  0  0  0  0  0  0  0  0  0
   10.6196  -17.0688   25.6835 C   0  0  2  0  0  0  0  0  0  0  0  0
   10.2357  -15.7040   25.2407 N   0  0  0  0  0  0  0  0  0  0  0  0
   10.7110  -17.1409   27.1094 C   0  0  0  0  0  0  0  0  0  0  0  0
   11.0103  -18.3404   27.7797 O   0  0  0  0  0  0  0  0  0  0  0  0
   10.5210  -16.1483   27.8481 O   0  0  0  0  0  0  0  0  0  0  0  0
  1  5  1  0
  1  2  1  0
  2  3  1  0
  4  5  1  0
  4  3  1  0
  5  6  1  1
  6 13  1  0
  6  7  2  0
  8  9  1  0
  9 10  1  0
 11 10  1  0
 12 11  1  1
 12 14  1  0
 13 12  1  0
 14 15  2  0
 16 17  1  0
 17 19  1  0
 17 18  2  0
 19 20  1  0
 21 20  1  6
 22 21  1  0
 22 14  1  0
 23 24  1  0
 23 21  1  0
 25 23  2  0
M  END
$$$$
