PMQ.pdb
     RDKit          3D

 25 25  0  0  1  0  0  0  0  0999 V2000
    7.1245  -14.7432   20.3882 N   0  0  0  0  0  0  0  0  0  0  0  0
    6.8949  -14.4150   18.9726 C   0  0  0  0  0  0  0  0  0  0  0  0
    7.4576  -13.0121   18.8237 C   0  0  0  0  0  0  0  0  0  0  0  0
    8.2591  -12.7674   20.1099 C   0  0  0  0  0  0  0  0  0  0  0  0
    8.4531  -14.2021   20.5758 C   0  0  1  0  0  0  0  0  0  0  0  0
    8.9290  -14.3030   21.9586 C   0  0  0  0  0  0  0  0  0  0  0  0
   10.1516  -14.1407   22.1978 O   0  0  0  0  0  0  0  0  0  0  0  0
    6.2744  -12.1720   27.7990 C   0  0  0  0  0  0  0  0  0  0  0  0
    7.2785  -11.6026   26.4269 S   0  0  0  0  0  0  0  0  0  0  0  0
    6.9201  -12.4944   24.8958 C   0  0  0  0  0  0  0  0  0  0  0  0
    7.1945  -13.9297   25.0699 C   0  0  0  0  0  0  0  0  0  0  0  0
    8.4292  -14.5083   24.4459 C   0  0  2  0  0  0  0  0  0  0  0  0
    8.0447  -14.5748   23.0006 N   0  0  0  0  0  0  0  0  0  0  0  0
    8.7896  -15.8799   24.8611 C   0  0  0  0  0  0  0  0  0  0  0  0
    7.9180  -16.7972   24.7651 O   0  0  0  0  0  0  0  0  0  0  0  0
   14.2156  -18.7397   24.0195 N   0  0  0  0  0  0  0  0  0  0  0  0
   13.5209  -19.7040   24.7842 C   0  0  0  0  0  0  0  0  0  0  0  0
   14.0071  -20.8462   25.0365 O   0  0  0  0  0  0  0  0  0  0  0  0
   12.1800  -19.3915   25.3269 C   0  0  0  0  0  0  0  0  0  0  0  0
   11.6598  -18.0405   25.0187 C   0  0  0  0  0  0  0  0  0  0  0  0
   10.3466  -17.7110   25.6428 C   0  0  2  0  0  0  0  0  0  0  0  0
   10.0549  -16.2823   25.3598 N   0  0  0  0  0  0  0  0  0  0  0  0
   10.2636  -17.9857   27.0444 C   0  0  0  0  0  0  0  0  0  0  0  0
   10.1747  -19.2968   27.5453 O   0  0  0  0  0  0  0  0  0  0  0  0
   10.2544  -17.0808   27.9093 O   0  0  0  0  0  0  0  0  0  0  0  0
  1  5  1  0
  1  2  1  0
  2  3  1  0
  4  5  1  0
  4  3  1  0
  5  6  1  1
  6 13  1  0
  6  7  2  0
  8  9  1  0
  9 10  1  0
 11 10  1  0
 12 11  1  1
 12 14  1  0
 13 12  1  0
 14 15  2  0
 16 17  1  0
 17 19  1  0
 17 18  2  0
 19 20  1  0
 21 20  1  1
 22 21  1  0
 22 14  1  0
 23 24  1  0
 23 21  1  0
 25 23  2  0
M  END
$$$$
