PMQ.pdb
     RDKit          3D

 25 25  0  0  1  0  0  0  0  0999 V2000
    7.4423  -15.0305   20.3686 N   0  0  0  0  0  0  0  0  0  0  0  0
    7.4451  -14.6920   18.9370 C   0  0  0  0  0  0  0  0  0  0  0  0
    7.8132  -13.2187   18.9075 C   0  0  0  0  0  0  0  0  0  0  0  0
    8.3059  -12.9042   20.3270 C   0  0  0  0  0  0  0  0  0  0  0  0
    8.6151  -14.3108   20.8157 C   0  0  1  0  0  0  0  0  0  0  0  0
    8.8240  -14.3881   22.2644 C   0  0  0  0  0  0  0  0  0  0  0  0
    9.9564  -14.1137   22.7343 O   0  0  0  0  0  0  0  0  0  0  0  0
    6.9439  -10.6202   26.9676 C   0  0  0  0  0  0  0  0  0  0  0  0
    7.3517  -12.3073   26.5177 S   0  0  0  0  0  0  0  0  0  0  0  0
    6.2122  -12.9861   25.2893 C   0  0  0  0  0  0  0  0  0  0  0  0
    6.5223  -14.4028   25.0395 C   0  0  0  0  0  0  0  0  0  0  0  0
    7.9107  -14.7717   24.6091 C   0  0  2  0  0  0  0  0  0  0  0  0
    7.7866  -14.7599   23.1173 N   0  0  0  0  0  0  0  0  0  0  0  0
    8.3772  -16.1200   24.9936 C   0  0  0  0  0  0  0  0  0  0  0  0
    7.6013  -17.1089   24.8190 O   0  0  0  0  0  0  0  0  0  0  0  0
   13.6115  -18.9065   23.7227 N   0  0  0  0  0  0  0  0  0  0  0  0
   13.0755  -19.8219   24.6565 C   0  0  0  0  0  0  0  0  0  0  0  0
   13.6245  -20.9364   24.9034 O   0  0  0  0  0  0  0  0  0  0  0  0
   11.8343  -19.4885   25.3903 C   0  0  0  0  0  0  0  0  0  0  0  0
   11.2448  -18.1646   25.0896 C   0  0  0  0  0  0  0  0  0  0  0  0
   10.0243  -17.8228   25.8746 C   0  0  2  0  0  0  0  0  0  0  0  0
    9.6485  -16.4243   25.5442 N   0  0  0  0  0  0  0  0  0  0  0  0
   10.1516  -18.0015   27.2883 C   0  0  0  0  0  0  0  0  0  0  0  0
   10.1656  -19.2760   27.8825 O   0  0  0  0  0  0  0  0  0  0  0  0
   10.2477  -17.0394   28.0834 O   0  0  0  0  0  0  0  0  0  0  0  0
  1  5  1  0
  1  2  1  0
  2  3  1  0
  4  5  1  0
  4  3  1  0
  5  6  1  1
  6 13  1  0
  6  7  2  0
  8  9  1  0
  9 10  1  0
 11 10  1  0
 12 11  1  1
 12 14  1  0
 13 12  1  0
 14 15  2  0
 16 17  1  0
 17 19  1  0
 17 18  2  0
 19 20  1  0
 21 20  1  6
 22 21  1  0
 22 14  1  0
 23 24  1  0
 23 21  1  0
 25 23  2  0
M  END
$$$$
