PMQ.pdb
     RDKit          3D

 25 25  0  0  1  0  0  0  0  0999 V2000
    7.2192  -15.0992   20.0287 N   0  0  0  0  0  0  0  0  0  0  0  0
    7.0266  -14.9319   18.5799 C   0  0  0  0  0  0  0  0  0  0  0  0
    7.4548  -13.4990   18.3143 C   0  0  0  0  0  0  0  0  0  0  0  0
    8.1656  -13.0525   19.5996 C   0  0  0  0  0  0  0  0  0  0  0  0
    8.4775  -14.4090   20.2125 C   0  0  1  0  0  0  0  0  0  0  0  0
    8.8940  -14.3291   21.6155 C   0  0  0  0  0  0  0  0  0  0  0  0
   10.0040  -13.8114   21.8952 O   0  0  0  0  0  0  0  0  0  0  0  0
    6.4211  -11.7688   28.1213 C   0  0  0  0  0  0  0  0  0  0  0  0
    6.5521  -12.1027   26.3645 S   0  0  0  0  0  0  0  0  0  0  0  0
    6.8471  -13.8521   26.0170 C   0  0  0  0  0  0  0  0  0  0  0  0
    7.0381  -14.0560   24.5722 C   0  0  0  0  0  0  0  0  0  0  0  0
    8.3502  -14.5966   24.0877 C   0  0  2  0  0  0  0  0  0  0  0  0
    8.0765  -14.8180   22.6327 N   0  0  0  0  0  0  0  0  0  0  0  0
    8.7694  -15.8965   24.6516 C   0  0  0  0  0  0  0  0  0  0  0  0
    7.9744  -16.8826   24.5731 O   0  0  0  0  0  0  0  0  0  0  0  0
   11.0360  -18.2189   21.9782 N   0  0  0  0  0  0  0  0  0  0  0  0
   11.9383  -18.4510   23.0409 C   0  0  0  0  0  0  0  0  0  0  0  0
   12.6282  -19.5101   23.1240 O   0  0  0  0  0  0  0  0  0  0  0  0
   12.1074  -17.4344   24.1030 C   0  0  0  0  0  0  0  0  0  0  0  0
   11.7082  -17.8543   25.4651 C   0  0  0  0  0  0  0  0  0  0  0  0
   10.3154  -17.4930   25.8555 C   0  0  2  0  0  0  0  0  0  0  0  0
   10.0141  -16.1575   25.2796 N   0  0  0  0  0  0  0  0  0  0  0  0
   10.0629  -17.5156   27.2634 C   0  0  0  0  0  0  0  0  0  0  0  0
   10.1192  -18.7035   28.0142 O   0  0  0  0  0  0  0  0  0  0  0  0
    9.7670  -16.4865   27.9118 O   0  0  0  0  0  0  0  0  0  0  0  0
  1  5  1  0
  1  2  1  0
  2  3  1  0
  4  5  1  0
  4  3  1  0
  5  6  1  1
  6 13  1  0
  6  7  2  0
  8  9  1  0
  9 10  1  0
 11 10  1  0
 12 11  1  1
 12 14  1  0
 13 12  1  0
 14 15  2  0
 16 17  1  0
 17 19  1  0
 17 18  2  0
 19 20  1  0
 21 20  1  1
 22 21  1  0
 22 14  1  0
 23 24  1  0
 23 21  1  0
 25 23  2  0
M  END
$$$$
