PMQ.pdb
     RDKit          3D

 25 25  0  0  1  0  0  0  0  0999 V2000
    6.9953  -14.8939   20.1533 N   0  0  0  0  0  0  0  0  0  0  0  0
    6.7205  -14.6494   18.7288 C   0  0  0  0  0  0  0  0  0  0  0  0
    7.1997  -13.2264   18.5002 C   0  0  0  0  0  0  0  0  0  0  0  0
    8.0106  -12.8742   19.7552 C   0  0  0  0  0  0  0  0  0  0  0  0
    8.2945  -14.2711   20.2855 C   0  0  1  0  0  0  0  0  0  0  0  0
    8.8016  -14.2769   21.6607 C   0  0  0  0  0  0  0  0  0  0  0  0
   10.0368  -14.1585   21.8574 O   0  0  0  0  0  0  0  0  0  0  0  0
    7.2865  -10.7558   27.1846 C   0  0  0  0  0  0  0  0  0  0  0  0
    6.2101  -12.1417   26.8163 S   0  0  0  0  0  0  0  0  0  0  0  0
    7.1300  -13.6051   26.2866 C   0  0  0  0  0  0  0  0  0  0  0  0
    7.1919  -13.6598   24.8173 C   0  0  0  0  0  0  0  0  0  0  0  0
    8.3741  -14.3166   24.1696 C   0  0  2  0  0  0  0  0  0  0  0  0
    7.9331  -14.4113   22.7421 N   0  0  0  0  0  0  0  0  0  0  0  0
    8.6854  -15.6898   24.6180 C   0  0  0  0  0  0  0  0  0  0  0  0
    7.7927  -16.5855   24.5115 O   0  0  0  0  0  0  0  0  0  0  0  0
   13.7605  -18.8298   23.4599 N   0  0  0  0  0  0  0  0  0  0  0  0
   13.7704  -17.5926   24.1429 C   0  0  0  0  0  0  0  0  0  0  0  0
   14.7946  -16.8480   24.1797 O   0  0  0  0  0  0  0  0  0  0  0  0
   12.5531  -17.1238   24.8419 C   0  0  0  0  0  0  0  0  0  0  0  0
   11.3613  -17.9917   24.7109 C   0  0  0  0  0  0  0  0  0  0  0  0
   10.1666  -17.5460   25.4833 C   0  0  2  0  0  0  0  0  0  0  0  0
    9.9243  -16.1166   25.1608 N   0  0  0  0  0  0  0  0  0  0  0  0
   10.2579  -17.7467   26.8969 C   0  0  0  0  0  0  0  0  0  0  0  0
   10.4643  -19.0189   27.4596 O   0  0  0  0  0  0  0  0  0  0  0  0
   10.1502  -16.8090   27.7192 O   0  0  0  0  0  0  0  0  0  0  0  0
  1  5  1  0
  1  2  1  0
  2  3  1  0
  4  5  1  0
  4  3  1  0
  5  6  1  1
  6 13  1  0
  6  7  2  0
  8  9  1  0
  9 10  1  0
 11 10  1  0
 12 11  1  1
 12 14  1  0
 13 12  1  0
 14 15  2  0
 16 17  1  0
 17 19  1  0
 17 18  2  0
 19 20  1  0
 21 20  1  6
 22 21  1  0
 22 14  1  0
 23 24  1  0
 23 21  1  0
 25 23  2  0
M  END
$$$$
