PMQ.pdb
     RDKit          3D

 25 25  0  0  1  0  0  0  0  0999 V2000
    7.3567  -14.9316   20.2719 N   0  0  0  0  0  0  0  0  0  0  0  0
    7.3103  -14.5990   18.8397 C   0  0  0  0  0  0  0  0  0  0  0  0
    7.7009  -13.1321   18.7893 C   0  0  0  0  0  0  0  0  0  0  0  0
    8.2525  -12.8200   20.1875 C   0  0  0  0  0  0  0  0  0  0  0  0
    8.5573  -14.2296   20.6706 C   0  0  1  0  0  0  0  0  0  0  0  0
    8.8201  -14.3044   22.1107 C   0  0  0  0  0  0  0  0  0  0  0  0
    9.9566  -13.9870   22.5420 O   0  0  0  0  0  0  0  0  0  0  0  0
    7.0160  -10.8908   27.3827 C   0  0  0  0  0  0  0  0  0  0  0  0
    7.4018  -12.5364   26.7843 S   0  0  0  0  0  0  0  0  0  0  0  0
    6.4022  -12.9988   25.3506 C   0  0  0  0  0  0  0  0  0  0  0  0
    6.6596  -14.4008   24.9849 C   0  0  0  0  0  0  0  0  0  0  0  0
    8.0212  -14.7759   24.4810 C   0  0  2  0  0  0  0  0  0  0  0  0
    7.8291  -14.7209   22.9973 N   0  0  0  0  0  0  0  0  0  0  0  0
    8.4851  -16.1405   24.8066 C   0  0  0  0  0  0  0  0  0  0  0  0
    8.1537  -17.0982   24.0427 O   0  0  0  0  0  0  0  0  0  0  0  0
   11.9773  -18.9892   22.0509 N   0  0  0  0  0  0  0  0  0  0  0  0
   12.6349  -18.9671   23.3016 C   0  0  0  0  0  0  0  0  0  0  0  0
   13.8974  -18.9892   23.4030 O   0  0  0  0  0  0  0  0  0  0  0  0
   11.8450  -18.9091   24.5518 C   0  0  0  0  0  0  0  0  0  0  0  0
   10.9309  -17.7522   24.6824 C   0  0  0  0  0  0  0  0  0  0  0  0
   10.0936  -17.7439   25.9159 C   0  0  2  0  0  0  0  0  0  0  0  0
    9.2971  -16.4903   25.9158 N   0  0  0  0  0  0  0  0  0  0  0  0
   10.8244  -17.8896   27.1371 C   0  0  0  0  0  0  0  0  0  0  0  0
   10.9883  -16.8255   28.0418 O   0  0  0  0  0  0  0  0  0  0  0  0
   11.3706  -18.9652   27.4716 O   0  0  0  0  0  0  0  0  0  0  0  0
  1  5  1  0
  1  2  1  0
  2  3  1  0
  4  5  1  0
  4  3  1  0
  5  6  1  1
  6 13  1  0
  6  7  2  0
  8  9  1  0
  9 10  1  0
 11 10  1  0
 12 11  1  1
 12 14  1  0
 13 12  1  0
 14 15  2  0
 16 17  1  0
 17 19  1  0
 17 18  2  0
 19 20  1  0
 21 20  1  6
 22 21  1  0
 22 14  1  0
 23 24  1  0
 23 21  1  0
 25 23  2  0
M  END
$$$$
