PMQ.pdb
     RDKit          3D

 25 25  0  0  1  0  0  0  0  0999 V2000
    6.8065  -14.9082   19.9689 N   0  0  0  0  0  0  0  0  0  0  0  0
    6.4777  -14.6846   18.5526 C   0  0  0  0  0  0  0  0  0  0  0  0
    7.0238  -13.2974   18.2621 C   0  0  0  0  0  0  0  0  0  0  0  0
    7.9122  -12.9602   19.4678 C   0  0  0  0  0  0  0  0  0  0  0  0
    8.1431  -14.3570   20.0232 C   0  0  1  0  0  0  0  0  0  0  0  0
    8.7145  -14.3568   21.3730 C   0  0  0  0  0  0  0  0  0  0  0  0
    9.9417  -14.1299   21.5174 O   0  0  0  0  0  0  0  0  0  0  0  0
    6.8439  -11.4899   27.8567 C   0  0  0  0  0  0  0  0  0  0  0  0
    6.0940  -12.3387   26.4666 S   0  0  0  0  0  0  0  0  0  0  0  0
    6.9905  -13.8419   26.0138 C   0  0  0  0  0  0  0  0  0  0  0  0
    7.0283  -13.9871   24.5498 C   0  0  0  0  0  0  0  0  0  0  0  0
    8.3389  -14.2958   23.8898 C   0  0  2  0  0  0  0  0  0  0  0  0
    7.9152  -14.6040   22.4874 N   0  0  0  0  0  0  0  0  0  0  0  0
    9.0607  -15.4825   24.3941 C   0  0  0  0  0  0  0  0  0  0  0  0
    8.5507  -16.6307   24.2155 O   0  0  0  0  0  0  0  0  0  0  0  0
   15.9517  -18.0365   24.8519 N   0  0  0  0  0  0  0  0  0  0  0  0
   14.9464  -17.0445   24.8014 C   0  0  0  0  0  0  0  0  0  0  0  0
   15.2047  -15.8316   24.5429 O   0  0  0  0  0  0  0  0  0  0  0  0
   13.5337  -17.4098   25.0482 C   0  0  0  0  0  0  0  0  0  0  0  0
   12.5480  -16.3184   24.8805 C   0  0  0  0  0  0  0  0  0  0  0  0
   11.1363  -16.6890   25.1845 C   0  0  2  0  0  0  0  0  0  0  0  0
   10.3090  -15.4611   25.0674 N   0  0  0  0  0  0  0  0  0  0  0  0
   10.9427  -17.3214   26.4531 C   0  0  0  0  0  0  0  0  0  0  0  0
   11.3290  -18.6524   26.6918 O   0  0  0  0  0  0  0  0  0  0  0  0
   10.4104  -16.7366   27.4235 O   0  0  0  0  0  0  0  0  0  0  0  0
  1  5  1  0
  1  2  1  0
  2  3  1  0
  4  5  1  0
  4  3  1  0
  5  6  1  1
  6 13  1  0
  6  7  2  0
  8  9  1  0
  9 10  1  0
 11 10  1  0
 12 11  1  1
 12 14  1  0
 13 12  1  0
 14 15  2  0
 16 17  1  0
 17 19  1  0
 17 18  2  0
 19 20  1  0
 21 20  1  1
 22 21  1  0
 22 14  1  0
 23 24  1  0
 23 21  1  0
 25 23  2  0
M  END
$$$$
