PMQ.pdb
     RDKit          3D

 25 25  0  0  1  0  0  0  0  0999 V2000
    7.5052  -15.0583   19.5980 N   0  0  0  0  0  0  0  0  0  0  0  0
    7.3229  -14.6257   18.2037 C   0  0  0  0  0  0  0  0  0  0  0  0
    7.3242  -13.1090   18.2855 C   0  0  0  0  0  0  0  0  0  0  0  0
    7.8289  -12.7881   19.6993 C   0  0  0  0  0  0  0  0  0  0  0  0
    8.5007  -14.1082   20.0446 C   0  0  1  0  0  0  0  0  0  0  0  0
    8.8267  -14.2377   21.4678 C   0  0  0  0  0  0  0  0  0  0  0  0
   10.0281  -14.3715   21.8101 O   0  0  0  0  0  0  0  0  0  0  0  0
    7.5313  -11.7899   28.2029 C   0  0  0  0  0  0  0  0  0  0  0  0
    7.7191  -12.1368   26.4538 S   0  0  0  0  0  0  0  0  0  0  0  0
    6.6478  -13.4841   25.9011 C   0  0  0  0  0  0  0  0  0  0  0  0
    6.7852  -13.6767   24.4486 C   0  0  0  0  0  0  0  0  0  0  0  0
    8.1000  -14.1511   23.9057 C   0  0  2  0  0  0  0  0  0  0  0  0
    7.8244  -14.2137   22.4356 N   0  0  0  0  0  0  0  0  0  0  0  0
    8.5300  -15.5019   24.3229 C   0  0  0  0  0  0  0  0  0  0  0  0
    7.7362  -16.4770   24.1512 O   0  0  0  0  0  0  0  0  0  0  0  0
   13.9143  -18.0462   23.1034 N   0  0  0  0  0  0  0  0  0  0  0  0
   13.4002  -19.0144   23.9952 C   0  0  0  0  0  0  0  0  0  0  0  0
   13.9947  -20.1099   24.2211 O   0  0  0  0  0  0  0  0  0  0  0  0
   12.1283  -18.7617   24.7085 C   0  0  0  0  0  0  0  0  0  0  0  0
   11.4843  -17.4577   24.4335 C   0  0  0  0  0  0  0  0  0  0  0  0
   10.1835  -17.2360   25.1273 C   0  0  2  0  0  0  0  0  0  0  0  0
    9.7839  -15.8232   24.9028 N   0  0  0  0  0  0  0  0  0  0  0  0
   10.1863  -17.5550   26.5219 C   0  0  0  0  0  0  0  0  0  0  0  0
   10.2622  -16.5628   27.5157 O   0  0  0  0  0  0  0  0  0  0  0  0
   10.1321  -18.7321   26.9442 O   0  0  0  0  0  0  0  0  0  0  0  0
  1  5  1  0
  1  2  1  0
  2  3  1  0
  4  5  1  0
  4  3  1  0
  5  6  1  1
  6 13  1  0
  6  7  2  0
  8  9  1  0
  9 10  1  0
 11 10  1  0
 12 11  1  1
 12 14  1  0
 13 12  1  0
 14 15  2  0
 16 17  1  0
 17 19  1  0
 17 18  2  0
 19 20  1  0
 21 20  1  1
 22 21  1  0
 22 14  1  0
 23 24  1  0
 23 21  1  0
 25 23  2  0
M  END
$$$$
