PMQ.pdb
     RDKit          3D

 25 25  0  0  1  0  0  0  0  0999 V2000
    7.1148  -15.1918   19.8155 N   0  0  0  0  0  0  0  0  0  0  0  0
    6.9764  -14.9554   18.3701 C   0  0  0  0  0  0  0  0  0  0  0  0
    7.2604  -13.4718   18.2107 C   0  0  0  0  0  0  0  0  0  0  0  0
    7.8554  -13.0347   19.5566 C   0  0  0  0  0  0  0  0  0  0  0  0
    8.2810  -14.3869   20.1075 C   0  0  1  0  0  0  0  0  0  0  0  0
    8.6175  -14.3518   21.5337 C   0  0  0  0  0  0  0  0  0  0  0  0
    9.8048  -14.1253   21.8764 O   0  0  0  0  0  0  0  0  0  0  0  0
    6.8951  -11.8830   28.0880 C   0  0  0  0  0  0  0  0  0  0  0  0
    7.1657  -12.3185   26.3698 S   0  0  0  0  0  0  0  0  0  0  0  0
    6.2582  -13.8053   25.8860 C   0  0  0  0  0  0  0  0  0  0  0  0
    6.4667  -14.0827   24.4559 C   0  0  0  0  0  0  0  0  0  0  0  0
    7.8628  -14.3235   23.9645 C   0  0  2  0  0  0  0  0  0  0  0  0
    7.6403  -14.5654   22.5039 N   0  0  0  0  0  0  0  0  0  0  0  0
    8.5474  -15.5179   24.5013 C   0  0  0  0  0  0  0  0  0  0  0  0
    8.0632  -16.6643   24.2528 O   0  0  0  0  0  0  0  0  0  0  0  0
   14.5862  -16.4320   24.3641 N   0  0  0  0  0  0  0  0  0  0  0  0
   14.1051  -17.6848   24.8068 C   0  0  0  0  0  0  0  0  0  0  0  0
   14.8292  -18.7242   24.8128 O   0  0  0  0  0  0  0  0  0  0  0  0
   12.7129  -17.8131   25.2920 C   0  0  0  0  0  0  0  0  0  0  0  0
   11.8280  -16.6579   25.0215 C   0  0  0  0  0  0  0  0  0  0  0  0
   10.4554  -16.7650   25.5934 C   0  0  2  0  0  0  0  0  0  0  0  0
    9.7330  -15.5057   25.2798 N   0  0  0  0  0  0  0  0  0  0  0  0
   10.4107  -17.0491   26.9948 C   0  0  0  0  0  0  0  0  0  0  0  0
   10.6565  -18.3364   27.5050 O   0  0  0  0  0  0  0  0  0  0  0  0
   10.1412  -16.1767   27.8511 O   0  0  0  0  0  0  0  0  0  0  0  0
  1  5  1  0
  1  2  1  0
  2  3  1  0
  4  5  1  0
  4  3  1  0
  5  6  1  1
  6 13  1  0
  6  7  2  0
  8  9  1  0
  9 10  1  0
 11 10  1  0
 12 11  1  1
 12 14  1  0
 13 12  1  0
 14 15  2  0
 16 17  1  0
 17 19  1  0
 17 18  2  0
 19 20  1  0
 21 20  1  1
 22 21  1  0
 22 14  1  0
 23 24  1  0
 23 21  1  0
 25 23  2  0
M  END
$$$$
