PMQ.pdb
     RDKit          3D

 25 25  0  0  1  0  0  0  0  0999 V2000
    6.9941  -14.9848   19.8267 N   0  0  0  0  0  0  0  0  0  0  0  0
    6.8299  -14.7602   18.3821 C   0  0  0  0  0  0  0  0  0  0  0  0
    7.3107  -13.3345   18.1739 C   0  0  0  0  0  0  0  0  0  0  0  0
    8.0164  -12.9584   19.4843 C   0  0  0  0  0  0  0  0  0  0  0  0
    8.2722  -14.3456   20.0529 C   0  0  1  0  0  0  0  0  0  0  0  0
    8.6694  -14.3295   21.4637 C   0  0  0  0  0  0  0  0  0  0  0  0
    9.8512  -14.0254   21.7627 O   0  0  0  0  0  0  0  0  0  0  0  0
    6.9352  -12.1072   28.1453 C   0  0  0  0  0  0  0  0  0  0  0  0
    7.2131  -12.4728   26.4120 S   0  0  0  0  0  0  0  0  0  0  0  0
    6.4445  -14.0287   25.9056 C   0  0  0  0  0  0  0  0  0  0  0  0
    6.6233  -14.2345   24.4595 C   0  0  0  0  0  0  0  0  0  0  0  0
    8.0129  -14.4036   23.9219 C   0  0  2  0  0  0  0  0  0  0  0  0
    7.7556  -14.6457   22.4671 N   0  0  0  0  0  0  0  0  0  0  0  0
    8.7714  -15.5671   24.4263 C   0  0  0  0  0  0  0  0  0  0  0  0
    8.3252  -16.7334   24.1999 O   0  0  0  0  0  0  0  0  0  0  0  0
   14.8648  -15.9221   24.0351 N   0  0  0  0  0  0  0  0  0  0  0  0
   14.5672  -17.1833   24.5990 C   0  0  0  0  0  0  0  0  0  0  0  0
   15.4547  -18.0677   24.7857 O   0  0  0  0  0  0  0  0  0  0  0  0
   13.1796  -17.5052   25.0007 C   0  0  0  0  0  0  0  0  0  0  0  0
   12.1909  -16.4174   24.8279 C   0  0  0  0  0  0  0  0  0  0  0  0
   10.8258  -16.7151   25.3482 C   0  0  2  0  0  0  0  0  0  0  0  0
    9.9898  -15.5036   25.1497 N   0  0  0  0  0  0  0  0  0  0  0  0
   10.7856  -17.1510   26.7102 C   0  0  0  0  0  0  0  0  0  0  0  0
   11.2114  -18.4342   27.0974 O   0  0  0  0  0  0  0  0  0  0  0  0
   10.3614  -16.4255   27.6379 O   0  0  0  0  0  0  0  0  0  0  0  0
  1  5  1  0
  1  2  1  0
  2  3  1  0
  4  5  1  0
  4  3  1  0
  5  6  1  1
  6 13  1  0
  6  7  2  0
  8  9  1  0
  9 10  1  0
 11 10  1  0
 12 11  1  1
 12 14  1  0
 13 12  1  0
 14 15  2  0
 16 17  1  0
 17 19  1  0
 17 18  2  0
 19 20  1  0
 21 20  1  1
 22 21  1  0
 22 14  1  0
 23 24  1  0
 23 21  1  0
 25 23  2  0
M  END
$$$$
