PMQ.pdb
     RDKit          3D

 25 25  0  0  1  0  0  0  0  0999 V2000
    7.1893  -15.1033   20.0928 N   0  0  0  0  0  0  0  0  0  0  0  0
    6.9853  -14.9148   18.6481 C   0  0  0  0  0  0  0  0  0  0  0  0
    7.4785  -13.5021   18.3877 C   0  0  0  0  0  0  0  0  0  0  0  0
    8.2276  -13.1012   19.6662 C   0  0  0  0  0  0  0  0  0  0  0  0
    8.4818  -14.4762   20.2642 C   0  0  1  0  0  0  0  0  0  0  0  0
    8.9209  -14.4282   21.6618 C   0  0  0  0  0  0  0  0  0  0  0  0
   10.1341  -14.2222   21.9148 O   0  0  0  0  0  0  0  0  0  0  0  0
    6.5324  -11.4136   28.1481 C   0  0  0  0  0  0  0  0  0  0  0  0
    6.5576  -11.8240   26.4028 S   0  0  0  0  0  0  0  0  0  0  0  0
    6.9118  -13.5729   26.1127 C   0  0  0  0  0  0  0  0  0  0  0  0
    7.0366  -13.8314   24.6693 C   0  0  0  0  0  0  0  0  0  0  0  0
    8.3423  -14.3440   24.1392 C   0  0  2  0  0  0  0  0  0  0  0  0
    8.0121  -14.6075   22.7029 N   0  0  0  0  0  0  0  0  0  0  0  0
    8.8254  -15.6173   24.7124 C   0  0  0  0  0  0  0  0  0  0  0  0
    8.1264  -16.6645   24.5531 O   0  0  0  0  0  0  0  0  0  0  0  0
   14.1889  -16.2210   24.4217 N   0  0  0  0  0  0  0  0  0  0  0  0
   13.2706  -16.8433   23.5461 C   0  0  0  0  0  0  0  0  0  0  0  0
   13.4368  -16.8590   22.2904 O   0  0  0  0  0  0  0  0  0  0  0  0
   12.0681  -17.5132   24.0896 C   0  0  0  0  0  0  0  0  0  0  0  0
   11.8496  -17.3615   25.5456 C   0  0  0  0  0  0  0  0  0  0  0  0
   10.4353  -17.1213   25.9513 C   0  0  2  0  0  0  0  0  0  0  0  0
   10.0345  -15.7879   25.4342 N   0  0  0  0  0  0  0  0  0  0  0  0
   10.1895  -17.2237   27.3569 C   0  0  0  0  0  0  0  0  0  0  0  0
    9.5895  -16.1834   28.0887 O   0  0  0  0  0  0  0  0  0  0  0  0
   10.5007  -18.2365   28.0236 O   0  0  0  0  0  0  0  0  0  0  0  0
  1  5  1  0
  1  2  1  0
  2  3  1  0
  4  5  1  0
  4  3  1  0
  5  6  1  1
  6 13  1  0
  6  7  2  0
  8  9  1  0
  9 10  1  0
 11 10  1  0
 12 11  1  1
 12 14  1  0
 13 12  1  0
 14 15  2  0
 16 17  1  0
 17 19  1  0
 17 18  2  0
 19 20  1  0
 21 20  1  1
 22 21  1  0
 22 14  1  0
 23 24  1  0
 23 21  1  0
 25 23  2  0
M  END
$$$$
