PMQ.pdb
     RDKit          3D

 25 25  0  0  1  0  0  0  0  0999 V2000
    7.1387  -15.0165   20.0756 N   0  0  0  0  0  0  0  0  0  0  0  0
    6.9081  -14.8698   18.6300 C   0  0  0  0  0  0  0  0  0  0  0  0
    7.4917  -13.5069   18.3003 C   0  0  0  0  0  0  0  0  0  0  0  0
    8.3025  -13.1113   19.5424 C   0  0  0  0  0  0  0  0  0  0  0  0
    8.4763  -14.4769   20.1889 C   0  0  1  0  0  0  0  0  0  0  0  0
    8.9565  -14.4064   21.5720 C   0  0  0  0  0  0  0  0  0  0  0  0
   10.1378  -14.0392   21.7911 O   0  0  0  0  0  0  0  0  0  0  0  0
    6.1116  -11.5359   28.0133 C   0  0  0  0  0  0  0  0  0  0  0  0
    6.2417  -11.9572   26.2753 S   0  0  0  0  0  0  0  0  0  0  0  0
    7.1090  -13.5210   26.0098 C   0  0  0  0  0  0  0  0  0  0  0  0
    7.2336  -13.7925   24.5689 C   0  0  0  0  0  0  0  0  0  0  0  0
    8.4688  -14.4804   24.0691 C   0  0  2  0  0  0  0  0  0  0  0  0
    8.1213  -14.7402   22.6363 N   0  0  0  0  0  0  0  0  0  0  0  0
    8.7816  -15.7880   24.6821 C   0  0  0  0  0  0  0  0  0  0  0  0
    7.9154  -16.7137   24.6247 O   0  0  0  0  0  0  0  0  0  0  0  0
   13.1553  -18.9622   22.1901 N   0  0  0  0  0  0  0  0  0  0  0  0
   12.9511  -18.7010   23.5639 C   0  0  0  0  0  0  0  0  0  0  0  0
   13.8401  -18.9322   24.4362 O   0  0  0  0  0  0  0  0  0  0  0  0
   11.6657  -18.1311   24.0254 C   0  0  0  0  0  0  0  0  0  0  0  0
   11.5210  -17.9725   25.4899 C   0  0  0  0  0  0  0  0  0  0  0  0
   10.1957  -17.4612   25.9427 C   0  0  2  0  0  0  0  0  0  0  0  0
    9.9952  -16.1199   25.3370 N   0  0  0  0  0  0  0  0  0  0  0  0
   10.0241  -17.4161   27.3623 C   0  0  0  0  0  0  0  0  0  0  0  0
    9.7315  -18.5661   28.1169 O   0  0  0  0  0  0  0  0  0  0  0  0
   10.1128  -16.3538   28.0185 O   0  0  0  0  0  0  0  0  0  0  0  0
  1  5  1  0
  1  2  1  0
  2  3  1  0
  4  5  1  0
  4  3  1  0
  5  6  1  1
  6 13  1  0
  6  7  2  0
  8  9  1  0
  9 10  1  0
 11 10  1  0
 12 11  1  1
 12 14  1  0
 13 12  1  0
 14 15  2  0
 16 17  1  0
 17 19  1  0
 17 18  2  0
 19 20  1  0
 21 20  1  1
 22 21  1  0
 22 14  1  0
 23 24  1  0
 23 21  1  0
 25 23  2  0
M  END
$$$$
