PMQ.pdb
     RDKit          3D

 25 25  0  0  1  0  0  0  0  0999 V2000
    7.2497  -14.9150   20.0892 N   0  0  0  0  0  0  0  0  0  0  0  0
    7.0435  -14.6438   18.6581 C   0  0  0  0  0  0  0  0  0  0  0  0
    7.4818  -13.1993   18.4899 C   0  0  0  0  0  0  0  0  0  0  0  0
    8.2101  -12.8510   19.7956 C   0  0  0  0  0  0  0  0  0  0  0  0
    8.5160  -14.2501   20.3074 C   0  0  1  0  0  0  0  0  0  0  0  0
    8.9479  -14.2734   21.7079 C   0  0  0  0  0  0  0  0  0  0  0  0
   10.1557  -14.0582   21.9789 O   0  0  0  0  0  0  0  0  0  0  0  0
    7.5969  -10.9469   27.4104 C   0  0  0  0  0  0  0  0  0  0  0  0
    6.3750  -12.0417   26.6870 S   0  0  0  0  0  0  0  0  0  0  0  0
    7.0762  -13.6407   26.2182 C   0  0  0  0  0  0  0  0  0  0  0  0
    7.2175  -13.7223   24.7556 C   0  0  0  0  0  0  0  0  0  0  0  0
    8.3924  -14.4589   24.1850 C   0  0  2  0  0  0  0  0  0  0  0  0
    8.0385  -14.5297   22.7321 N   0  0  0  0  0  0  0  0  0  0  0  0
    8.5821  -15.8479   24.6520 C   0  0  0  0  0  0  0  0  0  0  0  0
    7.8974  -16.7725   24.1165 O   0  0  0  0  0  0  0  0  0  0  0  0
   11.7156  -18.8496   22.0562 N   0  0  0  0  0  0  0  0  0  0  0  0
   12.4498  -18.1503   23.0407 C   0  0  0  0  0  0  0  0  0  0  0  0
   13.7058  -18.0018   22.9701 O   0  0  0  0  0  0  0  0  0  0  0  0
   11.7505  -17.5549   24.2012 C   0  0  0  0  0  0  0  0  0  0  0  0
   10.4470  -18.1638   24.5488 C   0  0  0  0  0  0  0  0  0  0  0  0
    9.8494  -17.6904   25.8300 C   0  0  2  0  0  0  0  0  0  0  0  0
    9.4893  -16.2592   25.6618 N   0  0  0  0  0  0  0  0  0  0  0  0
   10.6746  -17.8817   26.9828 C   0  0  0  0  0  0  0  0  0  0  0  0
   11.0823  -16.8097   27.7967 O   0  0  0  0  0  0  0  0  0  0  0  0
   11.0929  -19.0084   27.3329 O   0  0  0  0  0  0  0  0  0  0  0  0
  1  5  1  0
  1  2  1  0
  2  3  1  0
  4  5  1  0
  4  3  1  0
  5  6  1  1
  6 13  1  0
  6  7  2  0
  8  9  1  0
  9 10  1  0
 11 10  1  0
 12 11  1  1
 12 14  1  0
 13 12  1  0
 14 15  2  0
 16 17  1  0
 17 19  1  0
 17 18  2  0
 19 20  1  0
 21 20  1  6
 22 21  1  0
 22 14  1  0
 23 24  1  0
 23 21  1  0
 25 23  2  0
M  END
$$$$
