PMN.pdb
     RDKit          3D

 24 24  0  0  1  0  0  0  0  0999 V2000
   26.3083  -17.4647  -17.1815 N   0  0  0  0  0  0  0  0  0  0  0  0
   27.5712  -17.8684  -16.6096 C   0  0  0  0  0  0  0  0  0  0  0  0
   27.5567  -17.5119  -15.1433 C   0  0  0  0  0  0  0  0  0  0  0  0
   26.1016  -17.2015  -14.8337 C   0  0  0  0  0  0  0  0  0  0  0  0
   25.5661  -16.7708  -16.1825 C   0  0  1  0  0  0  0  0  0  0  0  0
   25.7046  -15.2888  -16.2967 C   0  0  0  0  0  0  0  0  0  0  0  0
   25.2723  -14.6070  -15.3469 O   0  0  0  0  0  0  0  0  0  0  0  0
   31.8876  -13.1024  -16.8910 C   0  0  0  0  0  0  0  0  0  0  0  0
   30.5300  -12.7463  -18.0117 S   0  0  0  0  0  0  0  0  0  0  0  0
   28.9257  -13.2159  -17.2309 C   0  0  0  0  0  0  0  0  0  0  0  0
   27.8295  -12.8754  -18.2104 C   0  0  0  0  0  0  0  0  0  0  0  0
   26.4566  -13.2968  -17.7141 C   0  0  2  0  0  0  0  0  0  0  0  0
   26.2904  -14.6680  -17.4128 N   0  0  0  0  0  0  0  0  0  0  0  0
   25.3411  -12.6872  -18.4311 C   0  0  0  0  0  0  0  0  0  0  0  0
   24.8682  -13.2420  -19.4768 O   0  0  0  0  0  0  0  0  0  0  0  0
   21.3855   -9.7661  -19.9031 N   0  0  0  0  0  0  0  0  0  0  0  0
   21.4868   -9.6531  -18.4990 C   0  0  0  0  0  0  0  0  0  0  0  0
   20.5516   -9.1070  -17.8320 O   0  0  0  0  0  0  0  0  0  0  0  0
   22.7007  -10.1853  -17.8140 C   0  0  0  0  0  0  0  0  0  0  0  0
   23.5821  -10.9377  -18.8093 C   0  0  2  0  0  0  0  0  0  0  0  0
   24.7084  -11.4602  -18.0337 N   0  0  0  0  0  0  0  0  0  0  0  0
   24.0477   -9.9830  -19.8357 C   0  0  0  0  0  0  0  0  0  0  0  0
   25.2906   -9.3676  -19.7798 O   0  0  0  0  0  0  0  0  0  0  0  0
   23.3115   -9.6922  -20.8169 O   0  0  0  0  0  0  0  0  0  0  0  0
  1  5  1  0
  1  2  1  0
  2  3  1  0
  4  3  1  0
  5  4  1  0
  5  6  1  6
  7  6  2  0
  8  9  1  0
  9 10  1  0
 11 10  1  0
 12 11  1  6
 12 13  1  0
 13  6  1  0
 14 12  1  0
 14 15  2  0
 17 16  1  0
 17 19  1  0
 18 17  2  0
 20 19  1  1
 20 21  1  0
 21 14  1  0
 22 20  1  0
 23 22  1  0
 24 22  2  0
M  END
$$$$
