PMN.pdb
     RDKit          3D

 24 24  0  0  1  0  0  0  0  0999 V2000
   26.8721  -20.0259  -14.5339 N   0  0  0  0  0  0  0  0  0  0  0  0
   27.2260  -18.6410  -14.3303 C   0  0  0  0  0  0  0  0  0  0  0  0
   28.5573  -18.5972  -13.6211 C   0  0  0  0  0  0  0  0  0  0  0  0
   29.1057  -20.0097  -13.7373 C   0  0  0  0  0  0  0  0  0  0  0  0
   27.8466  -20.8371  -13.8837 C   0  0  1  0  0  0  0  0  0  0  0  0
   27.4075  -21.2772  -12.5265 C   0  0  0  0  0  0  0  0  0  0  0  0
   28.2044  -21.9821  -11.8770 O   0  0  0  0  0  0  0  0  0  0  0  0
   27.0480  -19.9352   -5.3980 C   0  0  0  0  0  0  0  0  0  0  0  0
   27.4895  -19.6802   -7.1201 S   0  0  0  0  0  0  0  0  0  0  0  0
   26.1859  -20.3863   -8.2183 C   0  0  0  0  0  0  0  0  0  0  0  0
   26.6681  -20.2448   -9.6411 C   0  0  0  0  0  0  0  0  0  0  0  0
   25.7232  -20.8902  -10.6409 C   0  0  2  0  0  0  0  0  0  0  0  0
   26.1592  -20.9268  -11.9851 N   0  0  0  0  0  0  0  0  0  0  0  0
   24.3189  -20.5357  -10.4614 C   0  0  0  0  0  0  0  0  0  0  0  0
   23.9908  -19.5797   -9.6847 O   0  0  0  0  0  0  0  0  0  0  0  0
   20.7481  -18.9638  -13.6017 N   0  0  0  0  0  0  0  0  0  0  0  0
   22.0927  -19.1387  -13.9967 C   0  0  0  0  0  0  0  0  0  0  0  0
   22.5094  -18.6363  -15.0883 O   0  0  0  0  0  0  0  0  0  0  0  0
   23.0126  -19.9152  -13.1153 C   0  0  0  0  0  0  0  0  0  0  0  0
   22.2594  -20.4343  -11.8918 C   0  0  2  0  0  0  0  0  0  0  0  0
   23.2328  -21.2079  -11.1190 N   0  0  0  0  0  0  0  0  0  0  0  0
   21.1521  -21.2949  -12.3554 C   0  0  0  0  0  0  0  0  0  0  0  0
   19.8375  -20.8547  -12.4249 O   0  0  0  0  0  0  0  0  0  0  0  0
   21.3743  -22.4840  -12.7105 O   0  0  0  0  0  0  0  0  0  0  0  0
  1  5  1  0
  1  2  1  0
  2  3  1  0
  4  3  1  0
  5  4  1  0
  5  6  1  1
  7  6  2  0
  8  9  1  0
  9 10  1  0
 11 10  1  0
 12 11  1  1
 12 13  1  0
 13  6  1  0
 14 12  1  0
 14 15  2  0
 17 16  1  0
 17 19  1  0
 18 17  2  0
 20 19  1  6
 20 21  1  0
 21 14  1  0
 22 20  1  0
 23 22  1  0
 24 22  2  0
M  END
$$$$
