PMN.pdb
     RDKit          3D

 24 24  0  0  1  0  0  0  0  0999 V2000
   19.3825  -13.9885  -18.0479 N   0  0  0  0  0  0  0  0  0  0  0  0
   19.6338  -15.3380  -17.6003 C   0  0  0  0  0  0  0  0  0  0  0  0
   19.1813  -15.4473  -16.1649 C   0  0  0  0  0  0  0  0  0  0  0  0
   18.3474  -14.1997  -15.9247 C   0  0  0  0  0  0  0  0  0  0  0  0
   18.9158  -13.2281  -16.9368 C   0  0  1  0  0  0  0  0  0  0  0  0
   20.0066  -12.4461  -16.2833 C   0  0  0  0  0  0  0  0  0  0  0  0
   19.7242  -11.8676  -15.2159 O   0  0  0  0  0  0  0  0  0  0  0  0
   27.8669  -11.6423  -15.5466 C   0  0  0  0  0  0  0  0  0  0  0  0
   26.4846  -12.3915  -16.4146 S   0  0  0  0  0  0  0  0  0  0  0  0
   24.9134  -11.5405  -15.9554 C   0  0  0  0  0  0  0  0  0  0  0  0
   23.7819  -12.2990  -16.6045 C   0  0  0  0  0  0  0  0  0  0  0  0
   22.4326  -11.6404  -16.3710 C   0  0  2  0  0  0  0  0  0  0  0  0
   21.2987  -12.3510  -16.8269 N   0  0  0  0  0  0  0  0  0  0  0  0
   22.4055  -10.2060  -16.6384 C   0  0  0  0  0  0  0  0  0  0  0  0
   22.3011   -9.7763  -17.8340 O   0  0  0  0  0  0  0  0  0  0  0  0
   22.0074   -5.1210  -16.3308 N   0  0  0  0  0  0  0  0  0  0  0  0
   21.5721   -5.6299  -15.0874 C   0  0  0  0  0  0  0  0  0  0  0  0
   21.0599   -4.8518  -14.2215 O   0  0  0  0  0  0  0  0  0  0  0  0
   21.7187   -7.0884  -14.8091 C   0  0  0  0  0  0  0  0  0  0  0  0
   22.4073   -7.7838  -15.9820 C   0  0  2  0  0  0  0  0  0  0  0  0
   22.4907   -9.1991  -15.6173 N   0  0  0  0  0  0  0  0  0  0  0  0
   23.7552   -7.2018  -16.1442 C   0  0  0  0  0  0  0  0  0  0  0  0
   24.8610   -7.6619  -15.4427 O   0  0  0  0  0  0  0  0  0  0  0  0
   23.9451   -6.2464  -16.9446 O   0  0  0  0  0  0  0  0  0  0  0  0
  1  5  1  0
  1  2  1  0
  2  3  1  0
  4  3  1  0
  5  4  1  0
  5  6  1  1
  7  6  2  0
  8  9  1  0
  9 10  1  0
 11 10  1  0
 12 11  1  6
 12 13  1  0
 13  6  1  0
 14 12  1  0
 14 15  2  0
 17 16  1  0
 17 19  1  0
 18 17  2  0
 20 19  1  1
 20 21  1  0
 21 14  1  0
 22 20  1  0
 23 22  1  0
 24 22  2  0
M  END
$$$$
