PMN.pdb
     RDKit          3D

 24 24  0  0  1  0  0  0  0  0999 V2000
   26.6908  -19.1818  -14.7530 N   0  0  0  0  0  0  0  0  0  0  0  0
   27.9443  -18.5678  -14.3837 C   0  0  0  0  0  0  0  0  0  0  0  0
   28.9937  -19.6501  -14.3147 C   0  0  0  0  0  0  0  0  0  0  0  0
   28.3578  -20.8512  -14.9949 C   0  0  0  0  0  0  0  0  0  0  0  0
   26.8794  -20.5935  -14.7957 C   0  0  1  0  0  0  0  0  0  0  0  0
   26.4466  -21.2644  -13.5344 C   0  0  0  0  0  0  0  0  0  0  0  0
   26.4915  -22.5100  -13.5140 O   0  0  0  0  0  0  0  0  0  0  0  0
   28.4812  -19.8893   -7.3217 C   0  0  0  0  0  0  0  0  0  0  0  0
   26.7908  -19.7599   -7.9147 S   0  0  0  0  0  0  0  0  0  0  0  0
   26.6375  -20.5636   -9.5683 C   0  0  0  0  0  0  0  0  0  0  0  0
   25.2251  -20.3403  -10.0502 C   0  0  0  0  0  0  0  0  0  0  0  0
   25.0044  -20.8599  -11.4610 C   0  0  2  0  0  0  0  0  0  0  0  0
   26.0047  -20.5473  -12.4098 N   0  0  0  0  0  0  0  0  0  0  0  0
   23.6349  -20.7262  -11.9473 C   0  0  0  0  0  0  0  0  0  0  0  0
   22.6550  -21.0945  -11.2200 O   0  0  0  0  0  0  0  0  0  0  0  0
   20.1086  -18.2739  -16.1824 N   0  0  0  0  0  0  0  0  0  0  0  0
   20.3435  -18.5570  -14.8189 C   0  0  0  0  0  0  0  0  0  0  0  0
   19.3684  -18.6497  -14.0076 O   0  0  0  0  0  0  0  0  0  0  0  0
   21.7465  -18.7481  -14.3489 C   0  0  0  0  0  0  0  0  0  0  0  0
   21.8848  -20.0884  -13.6290 C   0  0  2  0  0  0  0  0  0  0  0  0
   23.2910  -20.1896  -13.2348 N   0  0  0  0  0  0  0  0  0  0  0  0
   21.5242  -21.1653  -14.5735 C   0  0  0  0  0  0  0  0  0  0  0  0
   20.2771  -21.7746  -14.5768 O   0  0  0  0  0  0  0  0  0  0  0  0
   22.3595  -21.5723  -15.4256 O   0  0  0  0  0  0  0  0  0  0  0  0
  1  5  1  0
  1  2  1  0
  2  3  1  0
  4  3  1  0
  5  4  1  0
  5  6  1  1
  7  6  2  0
  8  9  1  0
  9 10  1  0
 11 10  1  0
 12 11  1  1
 12 13  1  0
 13  6  1  0
 14 12  1  0
 14 15  2  0
 17 16  1  0
 17 19  1  0
 18 17  2  0
 20 19  1  6
 20 21  1  0
 21 14  1  0
 22 20  1  0
 23 22  1  0
 24 22  2  0
M  END
$$$$
