PMN.pdb
     RDKit          3D

 24 24  0  0  1  0  0  0  0  0999 V2000
   14.4586  -11.5819   -9.9909 N   0  0  0  0  0  0  0  0  0  0  0  0
   13.0848  -11.4834   -9.5578 C   0  0  0  0  0  0  0  0  0  0  0  0
   12.2586  -11.0036  -10.7259 C   0  0  0  0  0  0  0  0  0  0  0  0
   13.1660  -11.1630  -11.9346 C   0  0  0  0  0  0  0  0  0  0  0  0
   14.5464  -11.0746  -11.3196 C   0  0  1  0  0  0  0  0  0  0  0  0
   14.9923   -9.6504  -11.3572 C   0  0  0  0  0  0  0  0  0  0  0  0
   14.9443   -9.0733  -12.4610 O   0  0  0  0  0  0  0  0  0  0  0  0
   14.9200   -5.8514   -6.0466 C   0  0  0  0  0  0  0  0  0  0  0  0
   13.4776   -6.0104   -7.1049 S   0  0  0  0  0  0  0  0  0  0  0  0
   13.8992   -6.9998   -8.6040 C   0  0  0  0  0  0  0  0  0  0  0  0
   15.3953   -6.9273   -8.7874 C   0  0  0  0  0  0  0  0  0  0  0  0
   15.8592   -7.6276  -10.0536 C   0  0  2  0  0  0  0  0  0  0  0  0
   15.4493   -8.9709  -10.2155 N   0  0  0  0  0  0  0  0  0  0  0  0
   17.2474   -7.3623  -10.4174 C   0  0  0  0  0  0  0  0  0  0  0  0
   18.1837   -7.5716   -9.5782 O   0  0  0  0  0  0  0  0  0  0  0  0
   21.6790   -6.2410  -12.6060 N   0  0  0  0  0  0  0  0  0  0  0  0
   21.0870   -7.4534  -13.0230 C   0  0  0  0  0  0  0  0  0  0  0  0
   21.7630   -8.2991  -13.6906 O   0  0  0  0  0  0  0  0  0  0  0  0
   19.6643   -7.7264  -12.6665 C   0  0  0  0  0  0  0  0  0  0  0  0
   19.0632   -6.5274  -11.9352 C   0  0  2  0  0  0  0  0  0  0  0  0
   17.6577   -6.8632  -11.7005 N   0  0  0  0  0  0  0  0  0  0  0  0
   19.1823   -5.3409  -12.8069 C   0  0  0  0  0  0  0  0  0  0  0  0
   20.3230   -4.5510  -12.8480 O   0  0  0  0  0  0  0  0  0  0  0  0
   18.2277   -5.0028  -13.5578 O   0  0  0  0  0  0  0  0  0  0  0  0
  1  5  1  0
  1  2  1  0
  2  3  1  0
  4  3  1  0
  5  4  1  0
  5  6  1  1
  7  6  2  0
  8  9  1  0
  9 10  1  0
 11 10  1  0
 12 11  1  1
 12 13  1  0
 13  6  1  0
 14 12  1  0
 14 15  2  0
 17 16  1  0
 17 19  1  0
 18 17  2  0
 20 19  1  6
 20 21  1  0
 21 14  1  0
 22 20  1  0
 23 22  1  0
 24 22  2  0
M  END
$$$$
