PMN.pdb
     RDKit          3D

 24 24  0  0  1  0  0  0  0  0999 V2000
   26.9211  -19.2762  -14.3675 N   0  0  0  0  0  0  0  0  0  0  0  0
   28.1121  -18.5861  -13.9316 C   0  0  0  0  0  0  0  0  0  0  0  0
   29.1821  -19.6177  -13.6702 C   0  0  0  0  0  0  0  0  0  0  0  0
   28.6543  -20.8937  -14.3050 C   0  0  0  0  0  0  0  0  0  0  0  0
   27.1563  -20.6784  -14.2725 C   0  0  1  0  0  0  0  0  0  0  0  0
   26.6205  -21.2612  -13.0069 C   0  0  0  0  0  0  0  0  0  0  0  0
   26.7559  -22.4904  -12.8504 O   0  0  0  0  0  0  0  0  0  0  0  0
   29.0642  -20.2269   -7.2164 C   0  0  0  0  0  0  0  0  0  0  0  0
   27.3073  -20.1075   -7.5695 S   0  0  0  0  0  0  0  0  0  0  0  0
   26.9606  -20.7302   -9.2713 C   0  0  0  0  0  0  0  0  0  0  0  0
   25.5134  -20.4309   -9.5761 C   0  0  0  0  0  0  0  0  0  0  0  0
   25.1151  -20.8597  -10.9783 C   0  0  2  0  0  0  0  0  0  0  0  0
   25.9887  -20.4815  -12.0235 N   0  0  0  0  0  0  0  0  0  0  0  0
   23.6956  -20.7020  -11.2786 C   0  0  0  0  0  0  0  0  0  0  0  0
   23.0054  -19.8150  -10.6772 O   0  0  0  0  0  0  0  0  0  0  0  0
   21.5471  -18.8853  -15.9593 N   0  0  0  0  0  0  0  0  0  0  0  0
   21.3662  -19.0972  -14.5748 C   0  0  0  0  0  0  0  0  0  0  0  0
   20.2955  -18.7162  -14.0038 O   0  0  0  0  0  0  0  0  0  0  0  0
   22.4444  -19.7751  -13.7976 C   0  0  0  0  0  0  0  0  0  0  0  0
   21.8619  -20.9246  -12.9773 C   0  0  2  0  0  0  0  0  0  0  0  0
   22.9865  -21.5014  -12.2387 N   0  0  0  0  0  0  0  0  0  0  0  0
   21.2799  -21.9139  -13.9070 C   0  0  0  0  0  0  0  0  0  0  0  0
   21.9483  -23.0687  -14.2893 O   0  0  0  0  0  0  0  0  0  0  0  0
   20.1303  -21.7337  -14.3923 O   0  0  0  0  0  0  0  0  0  0  0  0
  1  5  1  0
  1  2  1  0
  2  3  1  0
  4  3  1  0
  5  4  1  0
  5  6  1  1
  7  6  2  0
  8  9  1  0
  9 10  1  0
 11 10  1  0
 12 11  1  1
 12 13  1  0
 13  6  1  0
 14 12  1  0
 14 15  2  0
 17 16  1  0
 17 19  1  0
 18 17  2  0
 20 19  1  6
 20 21  1  0
 21 14  1  0
 22 20  1  0
 23 22  1  0
 24 22  2  0
M  END
$$$$
