PMN.pdb
     RDKit          3D

 24 24  0  0  1  0  0  0  0  0999 V2000
   22.1364  -12.3542  -18.9465 N   0  0  0  0  0  0  0  0  0  0  0  0
   20.8615  -13.0191  -18.8153 C   0  0  0  0  0  0  0  0  0  0  0  0
   19.8282  -11.9825  -18.4478 C   0  0  0  0  0  0  0  0  0  0  0  0
   20.5058  -10.6482  -18.7126 C   0  0  0  0  0  0  0  0  0  0  0  0
   21.9723  -10.9919  -18.5621 C   0  0  1  0  0  0  0  0  0  0  0  0
   22.3739  -10.7476  -17.1452 C   0  0  0  0  0  0  0  0  0  0  0  0
   21.5276  -11.0045  -16.2668 O   0  0  0  0  0  0  0  0  0  0  0  0
   28.4479  -13.2766  -15.9652 C   0  0  0  0  0  0  0  0  0  0  0  0
   27.8836  -11.6271  -15.5336 S   0  0  0  0  0  0  0  0  0  0  0  0
   26.0455  -11.5338  -15.6620 C   0  0  0  0  0  0  0  0  0  0  0  0
   25.6385  -10.1248  -15.3068 C   0  0  0  0  0  0  0  0  0  0  0  0
   24.1568   -9.8746  -15.5323 C   0  0  2  0  0  0  0  0  0  0  0  0
   23.6403  -10.2511  -16.7932 N   0  0  0  0  0  0  0  0  0  0  0  0
   23.6776   -8.5900  -15.0323 C   0  0  0  0  0  0  0  0  0  0  0  0
   23.8567   -8.2670  -13.8123 O   0  0  0  0  0  0  0  0  0  0  0  0
   21.8524   -3.8165  -14.5786 N   0  0  0  0  0  0  0  0  0  0  0  0
   22.2781   -3.9678  -15.9166 C   0  0  0  0  0  0  0  0  0  0  0  0
   22.2984   -2.9651  -16.6988 O   0  0  0  0  0  0  0  0  0  0  0  0
   22.7048   -5.3153  -16.3942 C   0  0  0  0  0  0  0  0  0  0  0  0
   22.5999   -6.3352  -15.2617 C   0  0  2  0  0  0  0  0  0  0  0  0
   22.9916   -7.6211  -15.8414 N   0  0  0  0  0  0  0  0  0  0  0  0
   21.1990   -6.3729  -14.7953 C   0  0  0  0  0  0  0  0  0  0  0  0
   20.6456   -5.3796  -13.9992 O   0  0  0  0  0  0  0  0  0  0  0  0
   20.4461   -7.3324  -15.1150 O   0  0  0  0  0  0  0  0  0  0  0  0
  1  5  1  0
  1  2  1  0
  2  3  1  0
  4  3  1  0
  5  4  1  0
  5  6  1  1
  7  6  2  0
  8  9  1  0
  9 10  1  0
 11 10  1  0
 12 11  1  6
 12 13  1  0
 13  6  1  0
 14 12  1  0
 14 15  2  0
 17 16  1  0
 17 19  1  0
 18 17  2  0
 20 19  1  6
 20 21  1  0
 21 14  1  0
 22 20  1  0
 23 22  1  0
 24 22  2  0
M  END
$$$$
