PMN.pdb
     RDKit          3D

 24 24  0  0  1  0  0  0  0  0999 V2000
   22.1783  -13.1790  -18.7323 N   0  0  0  0  0  0  0  0  0  0  0  0
   22.5771  -14.4710  -18.2259 C   0  0  0  0  0  0  0  0  0  0  0  0
   21.6653  -14.8255  -17.0769 C   0  0  0  0  0  0  0  0  0  0  0  0
   20.5158  -13.8362  -17.1740 C   0  0  0  0  0  0  0  0  0  0  0  0
   21.1550  -12.6629  -17.8856 C   0  0  1  0  0  0  0  0  0  0  0  0
   21.6873  -11.7183  -16.8595 C   0  0  0  0  0  0  0  0  0  0  0  0
   21.0118  -11.5734  -15.8220 O   0  0  0  0  0  0  0  0  0  0  0  0
   28.1225  -12.7166  -15.3651 C   0  0  0  0  0  0  0  0  0  0  0  0
   27.3715  -11.1730  -15.8933 S   0  0  0  0  0  0  0  0  0  0  0  0
   25.5330  -11.3023  -15.8069 C   0  0  0  0  0  0  0  0  0  0  0  0
   24.9677   -9.9476  -16.1566 C   0  0  0  0  0  0  0  0  0  0  0  0
   23.4526   -9.9633  -16.2714 C   0  0  2  0  0  0  0  0  0  0  0  0
   22.8905  -11.0136  -17.0325 N   0  0  0  0  0  0  0  0  0  0  0  0
   22.8497   -8.6532  -16.4952 C   0  0  0  0  0  0  0  0  0  0  0  0
   22.4611   -8.3145  -17.6610 O   0  0  0  0  0  0  0  0  0  0  0  0
   19.5934   -5.0963  -17.5621 N   0  0  0  0  0  0  0  0  0  0  0  0
   19.6393   -5.6383  -16.2589 C   0  0  0  0  0  0  0  0  0  0  0  0
   18.9696   -5.1031  -15.3194 O   0  0  0  0  0  0  0  0  0  0  0  0
   20.4790   -6.8450  -16.0041 C   0  0  0  0  0  0  0  0  0  0  0  0
   21.9307   -6.4368  -15.7597 C   0  0  2  0  0  0  0  0  0  0  0  0
   22.6516   -7.6755  -15.4615 N   0  0  0  0  0  0  0  0  0  0  0  0
   21.9688   -5.5149  -14.6064 C   0  0  0  0  0  0  0  0  0  0  0  0
   21.6204   -4.1749  -14.7045 O   0  0  0  0  0  0  0  0  0  0  0  0
   22.3278   -5.9286  -13.4708 O   0  0  0  0  0  0  0  0  0  0  0  0
  1  5  1  0
  1  2  1  0
  2  3  1  0
  4  3  1  0
  5  4  1  0
  5  6  1  1
  7  6  2  0
  8  9  1  0
  9 10  1  0
 11 10  1  0
 12 11  1  6
 12 13  1  0
 13  6  1  0
 14 12  1  0
 14 15  2  0
 17 16  1  0
 17 19  1  0
 18 17  2  0
 20 19  1  1
 20 21  1  0
 21 14  1  0
 22 20  1  0
 23 22  1  0
 24 22  2  0
M  END
$$$$
