PMN.pdb
     RDKit          3D

 24 24  0  0  1  0  0  0  0  0999 V2000
   22.7865  -12.0111  -19.7528 N   0  0  0  0  0  0  0  0  0  0  0  0
   23.4583  -13.2762  -19.5721 C   0  0  0  0  0  0  0  0  0  0  0  0
   22.7448  -14.0336  -18.4792 C   0  0  0  0  0  0  0  0  0  0  0  0
   21.4333  -13.2908  -18.2847 C   0  0  0  0  0  0  0  0  0  0  0  0
   21.7779  -11.8932  -18.7531 C   0  0  1  0  0  0  0  0  0  0  0  0
   22.2335  -11.0968  -17.5755 C   0  0  0  0  0  0  0  0  0  0  0  0
   21.4700  -11.0588  -16.5909 O   0  0  0  0  0  0  0  0  0  0  0  0
   28.1802  -12.9630  -15.2846 C   0  0  0  0  0  0  0  0  0  0  0  0
   27.6966  -11.3119  -15.8002 S   0  0  0  0  0  0  0  0  0  0  0  0
   25.8591  -11.2004  -15.9220 C   0  0  0  0  0  0  0  0  0  0  0  0
   25.5161   -9.7785  -16.2929 C   0  0  0  0  0  0  0  0  0  0  0  0
   24.0317   -9.5897  -16.5570 C   0  0  2  0  0  0  0  0  0  0  0  0
   23.4607  -10.4130  -17.5543 N   0  0  0  0  0  0  0  0  0  0  0  0
   23.5953   -8.1974  -16.5876 C   0  0  0  0  0  0  0  0  0  0  0  0
   23.6255   -7.5374  -17.6777 O   0  0  0  0  0  0  0  0  0  0  0  0
   19.7622   -4.5965  -17.5093 N   0  0  0  0  0  0  0  0  0  0  0  0
   20.9733   -4.7595  -16.8014 C   0  0  0  0  0  0  0  0  0  0  0  0
   21.6037   -3.7429  -16.3695 O   0  0  0  0  0  0  0  0  0  0  0  0
   21.4965   -6.1369  -16.5665 C   0  0  0  0  0  0  0  0  0  0  0  0
   22.6606   -6.0986  -15.5779 C   0  0  2  0  0  0  0  0  0  0  0  0
   23.1143   -7.4834  -15.4376 N   0  0  0  0  0  0  0  0  0  0  0  0
   22.1625   -5.5748  -14.2898 C   0  0  0  0  0  0  0  0  0  0  0  0
   22.1912   -4.2252  -13.9666 O   0  0  0  0  0  0  0  0  0  0  0  0
   21.6847   -6.3578  -13.4249 O   0  0  0  0  0  0  0  0  0  0  0  0
  1  5  1  0
  1  2  1  0
  2  3  1  0
  4  3  1  0
  5  4  1  0
  5  6  1  1
  7  6  2  0
  8  9  1  0
  9 10  1  0
 11 10  1  0
 12 11  1  6
 12 13  1  0
 13  6  1  0
 14 12  1  0
 14 15  2  0
 17 16  1  0
 17 19  1  0
 18 17  2  0
 20 19  1  6
 20 21  1  0
 21 14  1  0
 22 20  1  0
 23 22  1  0
 24 22  2  0
M  END
$$$$
