PMN.pdb
     RDKit          3D

 24 24  0  0  1  0  0  0  0  0999 V2000
   18.4379  -24.8874   -5.2776 N   0  0  0  0  0  0  0  0  0  0  0  0
   18.8472  -25.4506   -6.5425 C   0  0  0  0  0  0  0  0  0  0  0  0
   18.0424  -26.7049   -6.7792 C   0  0  0  0  0  0  0  0  0  0  0  0
   16.9176  -26.6427   -5.7592 C   0  0  0  0  0  0  0  0  0  0  0  0
   17.5173  -25.7860   -4.6647 C   0  0  1  0  0  0  0  0  0  0  0  0
   18.1739  -26.6816   -3.6672 C   0  0  0  0  0  0  0  0  0  0  0  0
   18.0793  -27.9091   -3.8629 O   0  0  0  0  0  0  0  0  0  0  0  0
   22.8454  -23.6205   -0.4243 C   0  0  0  0  0  0  0  0  0  0  0  0
   22.2596  -24.9481    0.6341 S   0  0  0  0  0  0  0  0  0  0  0  0
   21.4050  -26.2328   -0.3774 C   0  0  0  0  0  0  0  0  0  0  0  0
   19.9236  -25.9551   -0.3030 C   0  0  0  0  0  0  0  0  0  0  0  0
   19.1272  -26.7849   -1.2959 C   0  0  2  0  0  0  0  0  0  0  0  0
   18.8711  -26.1882   -2.5516 N   0  0  0  0  0  0  0  0  0  0  0  0
   17.9957  -27.5009   -0.7153 C   0  0  0  0  0  0  0  0  0  0  0  0
   16.8655  -26.9248   -0.5903 O   0  0  0  0  0  0  0  0  0  0  0  0
   15.6545  -32.0933   -2.1712 N   0  0  0  0  0  0  0  0  0  0  0  0
   15.6234  -31.1455   -1.1248 C   0  0  0  0  0  0  0  0  0  0  0  0
   14.5571  -30.4964   -0.8810 O   0  0  0  0  0  0  0  0  0  0  0  0
   16.8542  -30.9217   -0.3118 C   0  0  0  0  0  0  0  0  0  0  0  0
   16.8550  -29.5083    0.2680 C   0  0  2  0  0  0  0  0  0  0  0  0
   18.0590  -28.8602   -0.2549 N   0  0  0  0  0  0  0  0  0  0  0  0
   16.9080  -29.6077    1.7407 C   0  0  0  0  0  0  0  0  0  0  0  0
   15.7879  -29.8735    2.5161 O   0  0  0  0  0  0  0  0  0  0  0  0
   17.9996  -29.4501    2.3516 O   0  0  0  0  0  0  0  0  0  0  0  0
  1  5  1  0
  1  2  1  0
  2  3  1  0
  4  3  1  0
  5  4  1  0
  5  6  1  1
  7  6  2  0
  8  9  1  0
  9 10  1  0
 11 10  1  0
 12 11  1  1
 12 13  1  0
 13  6  1  0
 14 12  1  0
 14 15  2  0
 17 16  1  0
 17 19  1  0
 18 17  2  0
 20 19  1  6
 20 21  1  0
 21 14  1  0
 22 20  1  0
 23 22  1  0
 24 22  2  0
M  END
$$$$
