PMN.pdb
     RDKit          3D

 24 24  0  0  1  0  0  0  0  0999 V2000
   23.2649   -9.6268  -17.2615 N   0  0  0  0  0  0  0  0  0  0  0  0
   23.2412  -10.9980  -16.8097 C   0  0  0  0  0  0  0  0  0  0  0  0
   21.8416  -11.5295  -16.9991 C   0  0  0  0  0  0  0  0  0  0  0  0
   21.1575  -10.5107  -17.8956 C   0  0  0  0  0  0  0  0  0  0  0  0
   21.9352   -9.2453  -17.6032 C   0  0  1  0  0  0  0  0  0  0  0  0
   21.2508   -8.5127  -16.4971 C   0  0  0  0  0  0  0  0  0  0  0  0
   20.0564   -8.2054  -16.6784 O   0  0  0  0  0  0  0  0  0  0  0  0
   22.9445  -10.8995  -10.3028 C   0  0  0  0  0  0  0  0  0  0  0  0
   22.7186   -9.1750  -10.7506 S   0  0  0  0  0  0  0  0  0  0  0  0
   22.0272   -9.0501  -12.4566 C   0  0  0  0  0  0  0  0  0  0  0  0
   22.1301   -7.6058  -12.8814 C   0  0  0  0  0  0  0  0  0  0  0  0
   21.4790   -7.3499  -14.2303 C   0  0  2  0  0  0  0  0  0  0  0  0
   21.9014   -8.1735  -15.2988 N   0  0  0  0  0  0  0  0  0  0  0  0
   21.3230   -5.9389  -14.5685 C   0  0  0  0  0  0  0  0  0  0  0  0
   22.3002   -5.2826  -15.0575 O   0  0  0  0  0  0  0  0  0  0  0  0
   21.0963   -2.0843  -17.8941 N   0  0  0  0  0  0  0  0  0  0  0  0
   20.1162   -2.5331  -16.9819 C   0  0  0  0  0  0  0  0  0  0  0  0
   19.1280   -1.7887  -16.6869 O   0  0  0  0  0  0  0  0  0  0  0  0
   20.2561   -3.8892  -16.3756 C   0  0  0  0  0  0  0  0  0  0  0  0
   20.0071   -3.8233  -14.8698 C   0  0  2  0  0  0  0  0  0  0  0  0
   20.1036   -5.2015  -14.3859 N   0  0  0  0  0  0  0  0  0  0  0  0
   18.6524   -3.2797  -14.6437 C   0  0  0  0  0  0  0  0  0  0  0  0
   18.4190   -1.9431  -14.3511 O   0  0  0  0  0  0  0  0  0  0  0  0
   17.6436   -4.0328  -14.7118 O   0  0  0  0  0  0  0  0  0  0  0  0
  1  5  1  0
  1  2  1  0
  2  3  1  0
  4  3  1  0
  5  4  1  0
  5  6  1  1
  7  6  2  0
  8  9  1  0
  9 10  1  0
 11 10  1  0
 12 11  1  1
 12 13  1  0
 13  6  1  0
 14 12  1  0
 14 15  2  0
 17 16  1  0
 17 19  1  0
 18 17  2  0
 20 19  1  6
 20 21  1  0
 21 14  1  0
 22 20  1  0
 23 22  1  0
 24 22  2  0
M  END
$$$$
