PMN.pdb
     RDKit          3D

 24 24  0  0  1  0  0  0  0  0999 V2000
   27.1707  -18.9233  -15.8127 N   0  0  0  0  0  0  0  0  0  0  0  0
   28.2790  -18.1033  -15.3836 C   0  0  0  0  0  0  0  0  0  0  0  0
   29.4897  -18.9920  -15.2364 C   0  0  0  0  0  0  0  0  0  0  0  0
   29.1064  -20.2884  -15.9306 C   0  0  0  0  0  0  0  0  0  0  0  0
   27.5966  -20.2831  -15.8201 C   0  0  1  0  0  0  0  0  0  0  0  0
   27.2095  -21.0079  -14.5738 C   0  0  0  0  0  0  0  0  0  0  0  0
   27.4564  -22.2291  -14.5318 O   0  0  0  0  0  0  0  0  0  0  0  0
   27.1731  -19.9913   -8.2984 C   0  0  0  0  0  0  0  0  0  0  0  0
   25.4103  -20.3110   -8.4246 S   0  0  0  0  0  0  0  0  0  0  0  0
   25.0119  -21.0113  -10.0844 C   0  0  0  0  0  0  0  0  0  0  0  0
   25.9035  -20.3255  -11.0903 C   0  0  0  0  0  0  0  0  0  0  0  0
   25.7253  -20.8771  -12.4948 C   0  0  2  0  0  0  0  0  0  0  0  0
   26.5940  -20.3660  -13.4861 N   0  0  0  0  0  0  0  0  0  0  0  0
   24.3354  -21.0245  -12.9147 C   0  0  0  0  0  0  0  0  0  0  0  0
   23.6932  -20.0248  -13.3763 O   0  0  0  0  0  0  0  0  0  0  0  0
   24.0839  -25.1616  -14.7894 N   0  0  0  0  0  0  0  0  0  0  0  0
   23.1743  -24.1008  -14.9939 C   0  0  0  0  0  0  0  0  0  0  0  0
   23.2259  -23.4105  -16.0608 O   0  0  0  0  0  0  0  0  0  0  0  0
   22.1549  -23.8069  -13.9449 C   0  0  0  0  0  0  0  0  0  0  0  0
   22.2851  -22.3602  -13.4718 C   0  0  2  0  0  0  0  0  0  0  0  0
   23.6046  -22.2594  -12.8457 N   0  0  0  0  0  0  0  0  0  0  0  0
   21.2148  -22.0916  -12.4901 C   0  0  0  0  0  0  0  0  0  0  0  0
   19.8676  -22.1120  -12.8237 O   0  0  0  0  0  0  0  0  0  0  0  0
   21.5008  -21.8297  -11.2905 O   0  0  0  0  0  0  0  0  0  0  0  0
  1  5  1  0
  1  2  1  0
  2  3  1  0
  4  3  1  0
  5  4  1  0
  5  6  1  1
  7  6  2  0
  8  9  1  0
  9 10  1  0
 11 10  1  0
 12 11  1  1
 12 13  1  0
 13  6  1  0
 14 12  1  0
 14 15  2  0
 17 16  1  0
 17 19  1  0
 18 17  2  0
 20 19  1  1
 20 21  1  0
 21 14  1  0
 22 20  1  0
 23 22  1  0
 24 22  2  0
M  END
$$$$
