PMN.pdb
     RDKit          3D

 24 24  0  0  1  0  0  0  0  0999 V2000
   19.3101  -12.2023  -17.9900 N   0  0  0  0  0  0  0  0  0  0  0  0
   19.8179  -13.5536  -17.9579 C   0  0  0  0  0  0  0  0  0  0  0  0
   19.5423  -14.1251  -16.5887 C   0  0  0  0  0  0  0  0  0  0  0  0
   18.5514  -13.1608  -15.9579 C   0  0  0  0  0  0  0  0  0  0  0  0
   18.8487  -11.8665  -16.6844 C   0  0  1  0  0  0  0  0  0  0  0  0
   19.8646  -11.1045  -15.8997 C   0  0  0  0  0  0  0  0  0  0  0  0
   19.5804  -10.8405  -14.7151 O   0  0  0  0  0  0  0  0  0  0  0  0
   26.4638  -11.7480  -14.5377 C   0  0  0  0  0  0  0  0  0  0  0  0
   26.2237  -10.4147  -15.7168 S   0  0  0  0  0  0  0  0  0  0  0  0
   24.5922   -9.6025  -15.4295 C   0  0  0  0  0  0  0  0  0  0  0  0
   23.5521  -10.4010  -16.1761 C   0  0  0  0  0  0  0  0  0  0  0  0
   22.1375   -9.9315  -15.8802 C   0  0  2  0  0  0  0  0  0  0  0  0
   21.0905  -10.6924  -16.4488 N   0  0  0  0  0  0  0  0  0  0  0  0
   21.9531   -8.4855  -15.9514 C   0  0  0  0  0  0  0  0  0  0  0  0
   22.0828   -7.8743  -17.0625 O   0  0  0  0  0  0  0  0  0  0  0  0
   19.9093   -4.7638  -16.7114 N   0  0  0  0  0  0  0  0  0  0  0  0
   19.2607   -5.1419  -15.5153 C   0  0  0  0  0  0  0  0  0  0  0  0
   18.0466   -4.8193  -15.3163 O   0  0  0  0  0  0  0  0  0  0  0  0
   20.0177   -5.9250  -14.4957 C   0  0  0  0  0  0  0  0  0  0  0  0
   21.4287   -6.2236  -14.9992 C   0  0  2  0  0  0  0  0  0  0  0  0
   21.6229   -7.6636  -14.8205 N   0  0  0  0  0  0  0  0  0  0  0  0
   22.3892   -5.4573  -14.1794 C   0  0  0  0  0  0  0  0  0  0  0  0
   22.7603   -4.1540  -14.4799 O   0  0  0  0  0  0  0  0  0  0  0  0
   22.9127   -5.9776  -13.1574 O   0  0  0  0  0  0  0  0  0  0  0  0
  1  5  1  0
  1  2  1  0
  2  3  1  0
  4  3  1  0
  5  4  1  0
  5  6  1  1
  7  6  2  0
  8  9  1  0
  9 10  1  0
 11 10  1  0
 12 11  1  6
 12 13  1  0
 13  6  1  0
 14 12  1  0
 14 15  2  0
 17 16  1  0
 17 19  1  0
 18 17  2  0
 20 19  1  1
 20 21  1  0
 21 14  1  0
 22 20  1  0
 23 22  1  0
 24 22  2  0
M  END
$$$$
