PMN.pdb
     RDKit          3D

 24 24  0  0  1  0  0  0  0  0999 V2000
   30.2920  -21.8632  -11.7633 N   0  0  0  0  0  0  0  0  0  0  0  0
   31.2574  -20.8042  -11.5866 C   0  0  0  0  0  0  0  0  0  0  0  0
   31.9588  -21.0247  -10.2688 C   0  0  0  0  0  0  0  0  0  0  0  0
   31.5918  -22.4435   -9.8664 C   0  0  0  0  0  0  0  0  0  0  0  0
   30.2717  -22.6526  -10.5771 C   0  0  1  0  0  0  0  0  0  0  0  0
   29.1674  -22.2617   -9.6517 C   0  0  0  0  0  0  0  0  0  0  0  0
   29.3364  -22.4995   -8.4398 O   0  0  0  0  0  0  0  0  0  0  0  0
   27.7565  -19.7856   -4.8732 C   0  0  0  0  0  0  0  0  0  0  0  0
   26.8732  -18.6827   -5.9818 S   0  0  0  0  0  0  0  0  0  0  0  0
   26.2008  -19.6314   -7.4143 C   0  0  0  0  0  0  0  0  0  0  0  0
   27.3767  -20.1679   -8.1931 C   0  0  0  0  0  0  0  0  0  0  0  0
   26.9489  -21.0188   -9.3771 C   0  0  2  0  0  0  0  0  0  0  0  0
   27.9834  -21.6536  -10.1017 N   0  0  0  0  0  0  0  0  0  0  0  0
   25.8989  -20.4262  -10.1994 C   0  0  0  0  0  0  0  0  0  0  0  0
   26.1975  -19.6292  -11.1484 O   0  0  0  0  0  0  0  0  0  0  0  0
   20.8422  -22.8458  -12.0322 N   0  0  0  0  0  0  0  0  0  0  0  0
   21.3021  -21.5510  -11.7062 C   0  0  0  0  0  0  0  0  0  0  0  0
   20.8720  -20.5393  -12.3459 O   0  0  0  0  0  0  0  0  0  0  0  0
   22.2929  -21.3895  -10.6024 C   0  0  0  0  0  0  0  0  0  0  0  0
   23.6595  -21.0103  -11.1701 C   0  0  2  0  0  0  0  0  0  0  0  0
   24.4972  -20.6818  -10.0154 N   0  0  0  0  0  0  0  0  0  0  0  0
   23.4906  -19.8354  -12.0491 C   0  0  0  0  0  0  0  0  0  0  0  0
   23.3562  -19.9414  -13.4266 O   0  0  0  0  0  0  0  0  0  0  0  0
   23.4627  -18.6730  -11.5616 O   0  0  0  0  0  0  0  0  0  0  0  0
  1  5  1  0
  1  2  1  0
  2  3  1  0
  4  3  1  0
  5  4  1  0
  5  6  1  1
  7  6  2  0
  8  9  1  0
  9 10  1  0
 11 10  1  0
 12 11  1  6
 12 13  1  0
 13  6  1  0
 14 12  1  0
 14 15  2  0
 17 16  1  0
 17 19  1  0
 18 17  2  0
 20 19  1  1
 20 21  1  0
 21 14  1  0
 22 20  1  0
 23 22  1  0
 24 22  2  0
M  END
$$$$
