PMN.pdb
     RDKit          3D

 24 24  0  0  1  0  0  0  0  0999 V2000
   26.2059  -18.0331  -15.1147 N   0  0  0  0  0  0  0  0  0  0  0  0
   27.3113  -17.2960  -14.5494 C   0  0  0  0  0  0  0  0  0  0  0  0
   28.5917  -17.9689  -14.9795 C   0  0  0  0  0  0  0  0  0  0  0  0
   28.1773  -18.9158  -16.0936 C   0  0  0  0  0  0  0  0  0  0  0  0
   26.7252  -19.1896  -15.7653 C   0  0  1  0  0  0  0  0  0  0  0  0
   26.6547  -20.4072  -14.9044 C   0  0  0  0  0  0  0  0  0  0  0  0
   27.0184  -21.4831  -15.4183 O   0  0  0  0  0  0  0  0  0  0  0  0
   25.1281  -20.5397   -8.5069 C   0  0  0  0  0  0  0  0  0  0  0  0
   26.8152  -20.4196   -9.1110 S   0  0  0  0  0  0  0  0  0  0  0  0
   26.9059  -21.0131  -10.8556 C   0  0  0  0  0  0  0  0  0  0  0  0
   25.4906  -21.2130  -11.3393 C   0  0  0  0  0  0  0  0  0  0  0  0
   25.3995  -21.2815  -12.8545 C   0  0  2  0  0  0  0  0  0  0  0  0
   26.2026  -20.3679  -13.5747 N   0  0  0  0  0  0  0  0  0  0  0  0
   24.0450  -21.4473  -13.3719 C   0  0  0  0  0  0  0  0  0  0  0  0
   23.3245  -22.4259  -12.9870 O   0  0  0  0  0  0  0  0  0  0  0  0
   19.9102  -22.2390  -13.8869 N   0  0  0  0  0  0  0  0  0  0  0  0
   20.1353  -21.1054  -13.0754 C   0  0  0  0  0  0  0  0  0  0  0  0
   19.3905  -20.8808  -12.0691 O   0  0  0  0  0  0  0  0  0  0  0  0
   21.2575  -20.1823  -13.4137 C   0  0  0  0  0  0  0  0  0  0  0  0
   22.0131  -20.6953  -14.6383 C   0  0  2  0  0  0  0  0  0  0  0  0
   23.4353  -20.5568  -14.3201 N   0  0  0  0  0  0  0  0  0  0  0  0
   21.6489  -19.8554  -15.7975 C   0  0  0  0  0  0  0  0  0  0  0  0
   22.1183  -18.5596  -15.9628 O   0  0  0  0  0  0  0  0  0  0  0  0
   20.8821  -20.3023  -16.6929 O   0  0  0  0  0  0  0  0  0  0  0  0
  1  5  1  0
  1  2  1  0
  2  3  1  0
  4  3  1  0
  5  4  1  0
  5  6  1  1
  7  6  2  0
  8  9  1  0
  9 10  1  0
 11 10  1  0
 12 11  1  1
 12 13  1  0
 13  6  1  0
 14 12  1  0
 14 15  2  0
 17 16  1  0
 17 19  1  0
 18 17  2  0
 20 19  1  1
 20 21  1  0
 21 14  1  0
 22 20  1  0
 23 22  1  0
 24 22  2  0
M  END
$$$$
