PMN.pdb
     RDKit          3D

 24 24  0  0  1  0  0  0  0  0999 V2000
   21.2899  -11.1718  -18.5405 N   0  0  0  0  0  0  0  0  0  0  0  0
   21.7658  -12.5342  -18.4920 C   0  0  0  0  0  0  0  0  0  0  0  0
   21.2682  -13.1588  -17.2116 C   0  0  0  0  0  0  0  0  0  0  0  0
   20.2045  -12.2013  -16.7004 C   0  0  0  0  0  0  0  0  0  0  0  0
   20.6325  -10.8833  -17.3096 C   0  0  1  0  0  0  0  0  0  0  0  0
   21.5227  -10.1792  -16.3399 C   0  0  0  0  0  0  0  0  0  0  0  0
   21.0683   -9.9850  -15.1955 O   0  0  0  0  0  0  0  0  0  0  0  0
   27.8965  -10.4914  -16.7941 C   0  0  0  0  0  0  0  0  0  0  0  0
   27.0183  -11.5504  -15.6397 S   0  0  0  0  0  0  0  0  0  0  0  0
   25.2562  -11.0194  -15.5094 C   0  0  0  0  0  0  0  0  0  0  0  0
   25.1880   -9.5717  -15.9295 C   0  0  0  0  0  0  0  0  0  0  0  0
   23.7684   -9.0301  -15.9168 C   0  0  2  0  0  0  0  0  0  0  0  0
   22.8157   -9.7454  -16.6779 N   0  0  0  0  0  0  0  0  0  0  0  0
   23.6743   -7.5778  -16.0254 C   0  0  0  0  0  0  0  0  0  0  0  0
   24.2137   -6.9697  -17.0073 O   0  0  0  0  0  0  0  0  0  0  0  0
   20.4883   -3.4955  -17.5978 N   0  0  0  0  0  0  0  0  0  0  0  0
   21.7466   -3.8637  -17.0729 C   0  0  0  0  0  0  0  0  0  0  0  0
   22.6692   -2.9963  -16.9548 O   0  0  0  0  0  0  0  0  0  0  0  0
   21.9736   -5.2787  -16.6580 C   0  0  0  0  0  0  0  0  0  0  0  0
   22.7842   -5.3265  -15.3640 C   0  0  2  0  0  0  0  0  0  0  0  0
   22.9929   -6.7459  -15.0728 N   0  0  0  0  0  0  0  0  0  0  0  0
   21.9961   -4.6802  -14.2950 C   0  0  0  0  0  0  0  0  0  0  0  0
   21.4485   -5.3877  -13.2336 O   0  0  0  0  0  0  0  0  0  0  0  0
   21.7928   -3.4362  -14.3158 O   0  0  0  0  0  0  0  0  0  0  0  0
  1  5  1  0
  1  2  1  0
  2  3  1  0
  4  3  1  0
  5  4  1  0
  5  6  1  1
  7  6  2  0
  8  9  1  0
  9 10  1  0
 11 10  1  0
 12 11  1  6
 12 13  1  0
 13  6  1  0
 14 12  1  0
 14 15  2  0
 17 16  1  0
 17 19  1  0
 18 17  2  0
 20 19  1  6
 20 21  1  0
 21 14  1  0
 22 20  1  0
 23 22  1  0
 24 22  2  0
M  END
$$$$
