ISF.pdb
     RDKit          3D

 26 26  0  0  1  0  0  0  0  0999 V2000
   26.4036   -8.8494  -24.0472 C   0  0  0  0  0  0  0  0  0  0  0  0
   25.1283   -8.3488  -23.4153 C   0  0  0  0  0  0  0  0  0  0  0  0
   25.3461   -7.7301  -22.0727 C   0  0  2  0  0  0  0  0  0  0  0  0
   25.9568   -8.7493  -21.1570 C   0  0  0  0  0  0  0  0  0  0  0  0
   24.0850   -7.1222  -21.4999 C   0  0  2  0  0  0  0  0  0  0  0  0
   23.6335   -6.1029  -22.4547 N   0  0  0  0  0  0  0  0  0  0  0  0
   24.2972   -6.5411  -20.1668 C   0  0  0  0  0  0  0  0  0  0  0  0
   24.6747   -7.3003  -19.2278 O   0  0  0  0  0  0  0  0  0  0  0  0
   23.2485   -2.5710  -18.9960 O   0  0  0  0  0  0  0  0  0  0  0  0
   24.3738   -3.1869  -18.5043 C   0  0  0  0  0  0  0  0  0  0  0  0
   24.2835   -4.6964  -18.5281 C   0  0  2  0  0  0  0  0  0  0  0  0
   24.1028   -5.1667  -19.8651 N   0  0  0  0  0  0  0  0  0  0  0  0
   23.2271   -5.1864  -17.6019 C   0  0  0  0  0  0  0  0  0  0  0  0
   22.1221   -5.5263  -18.0960 O   0  0  0  0  0  0  0  0  0  0  0  0
   23.4041   -5.2868  -16.2095 N   0  0  0  0  0  0  0  0  0  0  0  0
   22.3530   -5.6483  -15.2701 C   0  0  1  0  0  0  0  0  0  0  0  0
   22.8734   -6.6864  -14.3289 C   0  0  0  0  0  0  0  0  0  0  0  0
   23.2453   -7.9709  -14.9422 C   0  0  0  0  0  0  0  0  0  0  0  0
   24.5123   -8.2124  -15.4254 C   0  0  0  0  0  0  0  0  0  0  0  0
   24.8513   -9.4234  -15.9816 C   0  0  0  0  0  0  0  0  0  0  0  0
   23.9377  -10.4510  -16.0807 C   0  0  0  0  0  0  0  0  0  0  0  0
   22.6781  -10.1876  -15.5916 C   0  0  0  0  0  0  0  0  0  0  0  0
   22.3146   -8.9830  -15.0301 C   0  0  0  0  0  0  0  0  0  0  0  0
   21.8453   -4.4920  -14.5301 C   0  0  0  0  0  0  0  0  0  0  0  0
   22.3816   -3.2145  -14.6199 O   0  0  0  0  0  0  0  0  0  0  0  0
   20.8689   -4.6331  -13.7618 O   0  0  0  0  0  0  0  0  0  0  0  0
  1  2  1  0
  2  3  1  0
  3  5  1  0
  3  4  1  1
  5  7  1  0
  5  6  1  6
  7  8  2  0
  9 10  1  0
 11 10  1  6
 12 11  1  0
 12  7  1  0
 13 11  1  0
 13 14  2  0
 15 13  1  0
 16 15  1  0
 16 24  1  0
 16 17  1  1
 18 19  2  0
 18 17  1  0
 20 19  1  0
 21 22  1  0
 21 20  2  0
 22 23  2  0
 23 18  1  0
 24 25  1  0
 26 24  2  0
M  END
$$$$
