ISF.pdb
     RDKit          3D

 26 26  0  0  1  0  0  0  0  0999 V2000
   19.3023  -14.0704  -15.4162 C   0  0  0  0  0  0  0  0  0  0  0  0
   19.0547  -13.3641  -16.7262 C   0  0  0  0  0  0  0  0  0  0  0  0
   19.5287  -11.9471  -16.7238 C   0  0  2  0  0  0  0  0  0  0  0  0
   18.8759  -11.2141  -15.5894 C   0  0  0  0  0  0  0  0  0  0  0  0
   19.3149  -11.2591  -18.0539 C   0  0  2  0  0  0  0  0  0  0  0  0
   19.9281  -12.1140  -19.0775 N   0  0  0  0  0  0  0  0  0  0  0  0
   19.8861   -9.9053  -18.0840 C   0  0  0  0  0  0  0  0  0  0  0  0
   21.1446   -9.7778  -18.0585 O   0  0  0  0  0  0  0  0  0  0  0  0
   17.6816   -6.3351  -18.7348 O   0  0  0  0  0  0  0  0  0  0  0  0
   19.0009   -6.4963  -19.0824 C   0  0  0  0  0  0  0  0  0  0  0  0
   19.7450   -7.4433  -18.1676 C   0  0  2  0  0  0  0  0  0  0  0  0
   19.1049   -8.7204  -18.1404 N   0  0  0  0  0  0  0  0  0  0  0  0
   19.9125   -6.8586  -16.8097 C   0  0  0  0  0  0  0  0  0  0  0  0
   19.0411   -7.1235  -15.9429 O   0  0  0  0  0  0  0  0  0  0  0  0
   20.9916   -6.0294  -16.4516 N   0  0  0  0  0  0  0  0  0  0  0  0
   21.1869   -5.4587  -15.1271 C   0  0  1  0  0  0  0  0  0  0  0  0
   22.5378   -5.8489  -14.6203 C   0  0  0  0  0  0  0  0  0  0  0  0
   22.7884   -7.2957  -14.5280 C   0  0  0  0  0  0  0  0  0  0  0  0
   23.6704   -7.9413  -15.3660 C   0  0  0  0  0  0  0  0  0  0  0  0
   23.9075   -9.2915  -15.2584 C   0  0  0  0  0  0  0  0  0  0  0  0
   23.2728  -10.0602  -14.3062 C   0  0  0  0  0  0  0  0  0  0  0  0
   22.3959   -9.3944  -13.4798 C   0  0  0  0  0  0  0  0  0  0  0  0
   22.1417   -8.0430  -13.5680 C   0  0  0  0  0  0  0  0  0  0  0  0
   21.0362   -4.0028  -15.1202 C   0  0  0  0  0  0  0  0  0  0  0  0
   21.0506   -3.2247  -13.9704 O   0  0  0  0  0  0  0  0  0  0  0  0
   20.8833   -3.3946  -16.2021 O   0  0  0  0  0  0  0  0  0  0  0  0
  1  2  1  0
  2  3  1  0
  3  5  1  0
  3  4  1  1
  5  7  1  0
  5  6  1  6
  7  8  2  0
  9 10  1  0
 11 10  1  6
 12 11  1  0
 12  7  1  0
 13 11  1  0
 13 14  2  0
 15 13  1  0
 16 15  1  0
 16 24  1  0
 16 17  1  6
 18 19  2  0
 18 17  1  0
 20 19  1  0
 21 22  1  0
 21 20  2  0
 22 23  2  0
 23 18  1  0
 24 25  1  0
 26 24  2  0
M  END
$$$$
