ISF.pdb
     RDKit          3D

 26 26  0  0  1  0  0  0  0  0999 V2000
   17.6668  -16.2179  -18.0332 C   0  0  0  0  0  0  0  0  0  0  0  0
   18.6887  -15.3722  -18.7522 C   0  0  0  0  0  0  0  0  0  0  0  0
   18.7460  -13.9683  -18.2438 C   0  0  2  0  0  0  0  0  0  0  0  0
   17.3690  -13.3748  -18.2881 C   0  0  0  0  0  0  0  0  0  0  0  0
   19.7621  -13.1233  -18.9798 C   0  0  2  0  0  0  0  0  0  0  0  0
   21.0619  -13.7858  -18.8184 N   0  0  0  0  0  0  0  0  0  0  0  0
   19.8078  -11.7408  -18.4833 C   0  0  0  0  0  0  0  0  0  0  0  0
   20.3949  -11.5098  -17.3867 O   0  0  0  0  0  0  0  0  0  0  0  0
   19.4929   -7.0031  -19.2271 O   0  0  0  0  0  0  0  0  0  0  0  0
   19.4291   -8.2898  -19.7044 C   0  0  0  0  0  0  0  0  0  0  0  0
   19.3186   -9.3255  -18.6078 C   0  0  2  0  0  0  0  0  0  0  0  0
   19.2280  -10.6379  -19.1653 N   0  0  0  0  0  0  0  0  0  0  0  0
   18.1910   -9.0161  -17.6877 C   0  0  0  0  0  0  0  0  0  0  0  0
   17.0328   -9.3545  -18.0409 O   0  0  0  0  0  0  0  0  0  0  0  0
   18.3574   -8.3674  -16.4501 N   0  0  0  0  0  0  0  0  0  0  0  0
   17.2632   -7.9012  -15.6113 C   0  0  1  0  0  0  0  0  0  0  0  0
   17.1689   -8.7726  -14.4006 C   0  0  0  0  0  0  0  0  0  0  0  0
   16.7159  -10.1511  -14.6435 C   0  0  0  0  0  0  0  0  0  0  0  0
   17.5966  -11.2060  -14.7364 C   0  0  0  0  0  0  0  0  0  0  0  0
   17.1585  -12.4923  -14.9476 C   0  0  0  0  0  0  0  0  0  0  0  0
   15.8174  -12.7841  -15.0760 C   0  0  0  0  0  0  0  0  0  0  0  0
   14.9555  -11.7149  -14.9798 C   0  0  0  0  0  0  0  0  0  0  0  0
   15.3700  -10.4179  -14.7686 C   0  0  0  0  0  0  0  0  0  0  0  0
   17.4171   -6.4981  -15.2240 C   0  0  0  0  0  0  0  0  0  0  0  0
   16.5058   -5.8031  -14.4404 O   0  0  0  0  0  0  0  0  0  0  0  0
   18.4217   -5.8602  -15.6079 O   0  0  0  0  0  0  0  0  0  0  0  0
  1  2  1  0
  2  3  1  0
  3  5  1  0
  3  4  1  6
  5  7  1  0
  5  6  1  1
  7  8  2  0
  9 10  1  0
 11 10  1  6
 12 11  1  0
 12  7  1  0
 13 11  1  0
 13 14  2  0
 15 13  1  0
 16 15  1  0
 16 24  1  0
 16 17  1  1
 18 19  2  0
 18 17  1  0
 20 19  1  0
 21 22  1  0
 21 20  2  0
 22 23  2  0
 23 18  1  0
 24 25  1  0
 26 24  2  0
M  END
$$$$
