ISF.pdb
     RDKit          3D

 26 26  0  0  1  0  0  0  0  0999 V2000
   20.7428  -24.6028  -23.5725 C   0  0  0  0  0  0  0  0  0  0  0  0
   21.6179  -23.5826  -22.8872 C   0  0  0  0  0  0  0  0  0  0  0  0
   20.9297  -22.8886  -21.7569 C   0  0  2  0  0  0  0  0  0  0  0  0
   19.6275  -22.3277  -22.2467 C   0  0  0  0  0  0  0  0  0  0  0  0
   21.7997  -21.8390  -21.1016 C   0  0  2  0  0  0  0  0  0  0  0  0
   23.0300  -22.5149  -20.6724 N   0  0  0  0  0  0  0  0  0  0  0  0
   21.1323  -21.1850  -19.9672 C   0  0  0  0  0  0  0  0  0  0  0  0
   20.9199  -21.8594  -18.9181 O   0  0  0  0  0  0  0  0  0  0  0  0
   19.7982  -17.1680  -19.9682 O   0  0  0  0  0  0  0  0  0  0  0  0
   20.1945  -17.7790  -18.8033 C   0  0  0  0  0  0  0  0  0  0  0  0
   20.0387  -19.2829  -18.8382 C   0  0  2  0  0  0  0  0  0  0  0  0
   20.7070  -19.8297  -19.9765 N   0  0  0  0  0  0  0  0  0  0  0  0
   18.6053  -19.6765  -18.7730 C   0  0  0  0  0  0  0  0  0  0  0  0
   17.9152  -19.5626  -19.8177 O   0  0  0  0  0  0  0  0  0  0  0  0
   17.9894  -20.1667  -17.6066 N   0  0  0  0  0  0  0  0  0  0  0  0
   16.5705  -20.4687  -17.4896 C   0  0  1  0  0  0  0  0  0  0  0  0
   16.4050  -21.9090  -17.1256 C   0  0  0  0  0  0  0  0  0  0  0  0
   16.7245  -22.8740  -18.1892 C   0  0  0  0  0  0  0  0  0  0  0  0
   17.9964  -23.3706  -18.3698 C   0  0  0  0  0  0  0  0  0  0  0  0
   18.2782  -24.2846  -19.3578 C   0  0  0  0  0  0  0  0  0  0  0  0
   17.2997  -24.7454  -20.2125 C   0  0  0  0  0  0  0  0  0  0  0  0
   16.0363  -24.2358  -20.0138 C   0  0  0  0  0  0  0  0  0  0  0  0
   15.7294  -23.3197  -19.0314 C   0  0  0  0  0  0  0  0  0  0  0  0
   15.8971  -19.6112  -16.5131 C   0  0  0  0  0  0  0  0  0  0  0  0
   16.5139  -18.5648  -15.8407 O   0  0  0  0  0  0  0  0  0  0  0  0
   14.6913  -19.8097  -16.2477 O   0  0  0  0  0  0  0  0  0  0  0  0
  1  2  1  0
  2  3  1  0
  3  5  1  0
  3  4  1  6
  5  7  1  0
  5  6  1  1
  7  8  2  0
  9 10  1  0
 11 10  1  6
 12 11  1  0
 12  7  1  0
 13 11  1  0
 13 14  2  0
 15 13  1  0
 16 15  1  0
 16 24  1  0
 16 17  1  1
 18 19  2  0
 18 17  1  0
 20 19  1  0
 21 22  1  0
 21 20  2  0
 22 23  2  0
 23 18  1  0
 24 25  1  0
 26 24  2  0
M  END
$$$$
