ISF.pdb
     RDKit          3D

 26 26  0  0  1  0  0  0  0  0999 V2000
   19.5736  -18.2492  -17.1279 C   0  0  0  0  0  0  0  0  0  0  0  0
   21.0467  -18.0960  -16.8400 C   0  0  0  0  0  0  0  0  0  0  0  0
   21.3780  -16.8052  -16.1642 C   0  0  2  0  0  0  0  0  0  0  0  0
   20.8017  -15.6728  -16.9617 C   0  0  0  0  0  0  0  0  0  0  0  0
   22.8613  -16.6406  -15.9176 C   0  0  2  0  0  0  0  0  0  0  0  0
   23.2958  -17.8112  -15.1459 N   0  0  0  0  0  0  0  0  0  0  0  0
   23.1775  -15.3927  -15.2087 C   0  0  0  0  0  0  0  0  0  0  0  0
   22.8133  -15.2715  -14.0032 O   0  0  0  0  0  0  0  0  0  0  0  0
   26.1491  -12.6019  -16.1972 O   0  0  0  0  0  0  0  0  0  0  0  0
   25.5653  -12.7908  -14.9680 C   0  0  0  0  0  0  0  0  0  0  0  0
   24.0883  -13.1047  -15.0535 C   0  0  2  0  0  0  0  0  0  0  0  0
   23.8733  -14.3042  -15.7993 N   0  0  0  0  0  0  0  0  0  0  0  0
   23.3237  -11.9493  -15.5958 C   0  0  0  0  0  0  0  0  0  0  0  0
   22.9581  -11.9971  -16.7979 O   0  0  0  0  0  0  0  0  0  0  0  0
   22.9925  -10.8138  -14.8336 N   0  0  0  0  0  0  0  0  0  0  0  0
   22.2649   -9.6621  -15.3458 C   0  0  1  0  0  0  0  0  0  0  0  0
   20.8884  -10.0893  -15.7418 C   0  0  0  0  0  0  0  0  0  0  0  0
   20.0447   -9.0417  -16.3378 C   0  0  0  0  0  0  0  0  0  0  0  0
   20.1067   -8.7245  -17.6767 C   0  0  0  0  0  0  0  0  0  0  0  0
   19.3008   -7.7541  -18.2242 C   0  0  0  0  0  0  0  0  0  0  0  0
   18.3939   -7.0546  -17.4571 C   0  0  0  0  0  0  0  0  0  0  0  0
   18.3488   -7.3879  -16.1221 C   0  0  0  0  0  0  0  0  0  0  0  0
   19.1456   -8.3559  -15.5506 C   0  0  0  0  0  0  0  0  0  0  0  0
   22.2042   -8.5660  -14.3777 C   0  0  0  0  0  0  0  0  0  0  0  0
   22.2122   -7.2214  -14.7235 O   0  0  0  0  0  0  0  0  0  0  0  0
   22.1407   -8.8263  -13.1562 O   0  0  0  0  0  0  0  0  0  0  0  0
  1  2  1  0
  2  3  1  0
  3  5  1  0
  3  4  1  6
  5  7  1  0
  5  6  1  1
  7  8  2  0
  9 10  1  0
 11 10  1  6
 12 11  1  0
 12  7  1  0
 13 11  1  0
 13 14  2  0
 15 13  1  0
 16 15  1  0
 16 24  1  0
 16 17  1  1
 18 19  2  0
 18 17  1  0
 20 19  1  0
 21 22  1  0
 21 20  2  0
 22 23  2  0
 23 18  1  0
 24 25  1  0
 26 24  2  0
M  END
$$$$
