ISF.pdb
     RDKit          3D

 26 26  0  0  1  0  0  0  0  0999 V2000
   11.7245  -10.2770  -12.7683 C   0  0  0  0  0  0  0  0  0  0  0  0
   13.0538  -10.9856  -12.6836 C   0  0  0  0  0  0  0  0  0  0  0  0
   13.7731  -11.0350  -13.9924 C   0  0  2  0  0  0  0  0  0  0  0  0
   12.9366  -11.7898  -14.9828 C   0  0  0  0  0  0  0  0  0  0  0  0
   15.1705  -11.6005  -13.8681 C   0  0  2  0  0  0  0  0  0  0  0  0
   15.0304  -12.9710  -13.3615 N   0  0  0  0  0  0  0  0  0  0  0  0
   16.0256  -10.7950  -12.9849 C   0  0  0  0  0  0  0  0  0  0  0  0
   16.0797  -11.0934  -11.7566 O   0  0  0  0  0  0  0  0  0  0  0  0
   18.6615   -7.6952  -14.2294 O   0  0  0  0  0  0  0  0  0  0  0  0
   18.8129   -8.4014  -13.0608 C   0  0  0  0  0  0  0  0  0  0  0  0
   17.5005   -8.8818  -12.4825 C   0  0  2  0  0  0  0  0  0  0  0  0
   16.8021   -9.6919  -13.4297 N   0  0  0  0  0  0  0  0  0  0  0  0
   16.6806   -7.7419  -11.9904 C   0  0  0  0  0  0  0  0  0  0  0  0
   15.7995   -7.2760  -12.7568 O   0  0  0  0  0  0  0  0  0  0  0  0
   16.8428   -7.1642  -10.7175 N   0  0  0  0  0  0  0  0  0  0  0  0
   16.1522   -5.9665  -10.2630 C   0  0  1  0  0  0  0  0  0  0  0  0
   14.6768   -6.1937  -10.3388 C   0  0  0  0  0  0  0  0  0  0  0  0
   14.1172   -7.0834   -9.3094 C   0  0  0  0  0  0  0  0  0  0  0  0
   13.7304   -6.6195   -8.0716 C   0  0  0  0  0  0  0  0  0  0  0  0
   13.1936   -7.4592   -7.1242 C   0  0  0  0  0  0  0  0  0  0  0  0
   13.0183   -8.8041   -7.3707 C   0  0  0  0  0  0  0  0  0  0  0  0
   13.4116   -9.2458   -8.6139 C   0  0  0  0  0  0  0  0  0  0  0  0
   13.9517   -8.4244   -9.5793 C   0  0  0  0  0  0  0  0  0  0  0  0
   16.5435   -5.5786   -8.9070 C   0  0  0  0  0  0  0  0  0  0  0  0
   17.3917   -6.3237   -8.0990 O   0  0  0  0  0  0  0  0  0  0  0  0
   16.1020   -4.5151   -8.4194 O   0  0  0  0  0  0  0  0  0  0  0  0
  1  2  1  0
  2  3  1  0
  3  5  1  0
  3  4  1  6
  5  7  1  0
  5  6  1  1
  7  8  2  0
  9 10  1  0
 11 10  1  6
 12 11  1  0
 12  7  1  0
 13 11  1  0
 13 14  2  0
 15 13  1  0
 16 15  1  0
 16 24  1  0
 16 17  1  1
 18 19  2  0
 18 17  1  0
 20 19  1  0
 21 22  1  0
 21 20  2  0
 22 23  2  0
 23 18  1  0
 24 25  1  0
 26 24  2  0
M  END
$$$$
