ISF.pdb
     RDKit          3D

 26 26  0  0  1  0  0  0  0  0999 V2000
   23.6197  -29.3373  -16.9637 C   0  0  0  0  0  0  0  0  0  0  0  0
   22.4228  -29.2307  -16.0512 C   0  0  0  0  0  0  0  0  0  0  0  0
   21.7289  -27.9111  -16.1508 C   0  0  2  0  0  0  0  0  0  0  0  0
   22.7030  -26.8193  -15.8199 C   0  0  0  0  0  0  0  0  0  0  0  0
   20.4784  -27.8450  -15.3022 C   0  0  2  0  0  0  0  0  0  0  0  0
   19.5872  -28.9108  -15.7758 N   0  0  0  0  0  0  0  0  0  0  0  0
   19.8195  -26.5334  -15.3746 C   0  0  0  0  0  0  0  0  0  0  0  0
   19.3091  -26.1714  -16.4742 O   0  0  0  0  0  0  0  0  0  0  0  0
   17.4231  -24.7316  -12.7817 O   0  0  0  0  0  0  0  0  0  0  0  0
   17.6493  -24.4032  -14.0964 C   0  0  0  0  0  0  0  0  0  0  0  0
   19.1185  -24.3547  -14.4524 C   0  0  2  0  0  0  0  0  0  0  0  0
   19.7196  -25.6388  -14.2758 N   0  0  0  0  0  0  0  0  0  0  0  0
   19.8207  -23.2853  -13.6928 C   0  0  0  0  0  0  0  0  0  0  0  0
   20.1558  -23.5292  -12.5057 O   0  0  0  0  0  0  0  0  0  0  0  0
   20.1255  -22.0231  -14.2351 N   0  0  0  0  0  0  0  0  0  0  0  0
   20.8050  -20.9586  -13.5118 C   0  0  1  0  0  0  0  0  0  0  0  0
   22.0444  -20.5759  -14.2545 C   0  0  0  0  0  0  0  0  0  0  0  0
   21.8504  -20.2006  -15.6637 C   0  0  0  0  0  0  0  0  0  0  0  0
   21.5387  -18.9138  -16.0430 C   0  0  0  0  0  0  0  0  0  0  0  0
   21.3760  -18.5729  -17.3652 C   0  0  0  0  0  0  0  0  0  0  0  0
   21.5176  -19.5045  -18.3714 C   0  0  0  0  0  0  0  0  0  0  0  0
   21.8291  -20.7839  -17.9696 C   0  0  0  0  0  0  0  0  0  0  0  0
   21.9971  -21.1496  -16.6518 C   0  0  0  0  0  0  0  0  0  0  0  0
   19.9480  -19.7902  -13.3054 C   0  0  0  0  0  0  0  0  0  0  0  0
   20.2460  -18.7510  -12.4343 O   0  0  0  0  0  0  0  0  0  0  0  0
   18.8744  -19.6946  -13.9394 O   0  0  0  0  0  0  0  0  0  0  0  0
  1  2  1  0
  2  3  1  0
  3  5  1  0
  3  4  1  1
  5  7  1  0
  5  6  1  6
  7  8  2  0
  9 10  1  0
 11 10  1  1
 12 11  1  0
 12  7  1  0
 13 11  1  0
 13 14  2  0
 15 13  1  0
 16 15  1  0
 16 24  1  0
 16 17  1  6
 18 19  2  0
 18 17  1  0
 20 19  1  0
 21 22  1  0
 21 20  2  0
 22 23  2  0
 23 18  1  0
 24 25  1  0
 26 24  2  0
M  END
$$$$
