ISF.pdb
     RDKit          3D

 26 26  0  0  1  0  0  0  0  0999 V2000
   15.4915  -11.8998  -21.5147 C   0  0  0  0  0  0  0  0  0  0  0  0
   16.9573  -12.2290  -21.3749 C   0  0  0  0  0  0  0  0  0  0  0  0
   17.6225  -11.4722  -20.2714 C   0  0  2  0  0  0  0  0  0  0  0  0
   17.3965  -10.0038  -20.4789 C   0  0  0  0  0  0  0  0  0  0  0  0
   19.0890  -11.8158  -20.1311 C   0  0  2  0  0  0  0  0  0  0  0  0
   19.1673  -13.2672  -19.9269 N   0  0  0  0  0  0  0  0  0  0  0  0
   19.7322  -11.0908  -19.0263 C   0  0  0  0  0  0  0  0  0  0  0  0
   19.4373  -11.4108  -17.8383 O   0  0  0  0  0  0  0  0  0  0  0  0
   22.5818   -7.8986  -19.4197 O   0  0  0  0  0  0  0  0  0  0  0  0
   22.6916   -8.9165  -18.5036 C   0  0  0  0  0  0  0  0  0  0  0  0
   21.3545   -9.4869  -18.0861 C   0  0  2  0  0  0  0  0  0  0  0  0
   20.6733  -10.0432  -19.2121 N   0  0  0  0  0  0  0  0  0  0  0  0
   20.5377   -8.4717  -17.3678 C   0  0  0  0  0  0  0  0  0  0  0  0
   19.6299   -7.8847  -18.0099 O   0  0  0  0  0  0  0  0  0  0  0  0
   20.7309   -8.1394  -16.0142 N   0  0  0  0  0  0  0  0  0  0  0  0
   20.0165   -7.0806  -15.3164 C   0  0  1  0  0  0  0  0  0  0  0  0
   19.6624   -7.5519  -13.9429 C   0  0  0  0  0  0  0  0  0  0  0  0
   20.7829   -8.0625  -13.1377 C   0  0  0  0  0  0  0  0  0  0  0  0
   21.4743   -7.2633  -12.2544 C   0  0  0  0  0  0  0  0  0  0  0  0
   22.5093   -7.7574  -11.4958 C   0  0  0  0  0  0  0  0  0  0  0  0
   22.9019   -9.0758  -11.5853 C   0  0  0  0  0  0  0  0  0  0  0  0
   22.1972   -9.8561  -12.4741 C   0  0  0  0  0  0  0  0  0  0  0  0
   21.1570   -9.3842  -13.2447 C   0  0  0  0  0  0  0  0  0  0  0  0
   20.7874   -5.8381  -15.2506 C   0  0  0  0  0  0  0  0  0  0  0  0
   20.2866   -4.6367  -14.7678 O   0  0  0  0  0  0  0  0  0  0  0  0
   21.9734   -5.8278  -15.6469 O   0  0  0  0  0  0  0  0  0  0  0  0
  1  2  1  0
  2  3  1  0
  3  5  1  0
  3  4  1  6
  5  7  1  0
  5  6  1  1
  7  8  2  0
  9 10  1  0
 11 10  1  6
 12 11  1  0
 12  7  1  0
 13 11  1  0
 13 14  2  0
 15 13  1  0
 16 15  1  0
 16 24  1  0
 16 17  1  1
 18 19  2  0
 18 17  1  0
 20 19  1  0
 21 22  1  0
 21 20  2  0
 22 23  2  0
 23 18  1  0
 24 25  1  0
 26 24  2  0
M  END
$$$$
