ISF.pdb
     RDKit          3D

 26 26  0  0  1  0  0  0  0  0999 V2000
   20.2194  -13.4283  -19.7875 C   0  0  0  0  0  0  0  0  0  0  0  0
   20.9264  -13.8031  -18.5084 C   0  0  0  0  0  0  0  0  0  0  0  0
   22.3816  -14.0792  -18.7054 C   0  0  2  0  0  0  0  0  0  0  0  0
   22.5404  -15.1579  -19.7357 C   0  0  0  0  0  0  0  0  0  0  0  0
   23.0924  -14.4085  -17.4114 C   0  0  2  0  0  0  0  0  0  0  0  0
   22.4079  -15.5722  -16.8353 N   0  0  0  0  0  0  0  0  0  0  0  0
   23.0981  -13.2791  -16.4709 C   0  0  0  0  0  0  0  0  0  0  0  0
   22.1415  -13.1690  -15.6503 O   0  0  0  0  0  0  0  0  0  0  0  0
   26.2048  -10.3575  -16.0795 O   0  0  0  0  0  0  0  0  0  0  0  0
   25.3874  -10.7611  -15.0518 C   0  0  0  0  0  0  0  0  0  0  0  0
   24.0162  -11.1961  -15.5188 C   0  0  2  0  0  0  0  0  0  0  0  0
   24.1211  -12.2947  -16.4263 N   0  0  0  0  0  0  0  0  0  0  0  0
   23.2552  -10.0526  -16.0907 C   0  0  0  0  0  0  0  0  0  0  0  0
   23.0544  -10.0406  -17.3318 O   0  0  0  0  0  0  0  0  0  0  0  0
   22.7530   -8.9915  -15.3147 N   0  0  0  0  0  0  0  0  0  0  0  0
   22.0037   -7.8639  -15.8488 C   0  0  1  0  0  0  0  0  0  0  0  0
   20.7547   -8.3688  -16.4963 C   0  0  0  0  0  0  0  0  0  0  0  0
   19.8519   -7.3356  -17.0272 C   0  0  0  0  0  0  0  0  0  0  0  0
   18.5972   -7.1190  -16.5020 C   0  0  0  0  0  0  0  0  0  0  0  0
   17.7694   -6.1389  -16.9972 C   0  0  0  0  0  0  0  0  0  0  0  0
   18.1584   -5.3284  -18.0423 C   0  0  0  0  0  0  0  0  0  0  0  0
   19.4159   -5.5625  -18.5515 C   0  0  0  0  0  0  0  0  0  0  0  0
   20.2631   -6.5379  -18.0726 C   0  0  0  0  0  0  0  0  0  0  0  0
   21.6850   -6.8705  -14.8222 C   0  0  0  0  0  0  0  0  0  0  0  0
   21.4758   -5.5229  -15.0822 O   0  0  0  0  0  0  0  0  0  0  0  0
   21.5888   -7.2286  -13.6280 O   0  0  0  0  0  0  0  0  0  0  0  0
  1  2  1  0
  2  3  1  0
  3  5  1  0
  3  4  1  6
  5  7  1  0
  5  6  1  1
  7  8  2  0
  9 10  1  0
 11 10  1  6
 12 11  1  0
 12  7  1  0
 13 11  1  0
 13 14  2  0
 15 13  1  0
 16 15  1  0
 16 24  1  0
 16 17  1  1
 18 19  2  0
 18 17  1  0
 20 19  1  0
 21 22  1  0
 21 20  2  0
 22 23  2  0
 23 18  1  0
 24 25  1  0
 26 24  2  0
M  END
$$$$
