ISF.pdb
     RDKit          3D

 26 26  0  0  1  0  0  0  0  0999 V2000
   21.0994  -16.7391  -13.5878 C   0  0  0  0  0  0  0  0  0  0  0  0
   21.7437  -18.0689  -13.2827 C   0  0  0  0  0  0  0  0  0  0  0  0
   21.0399  -19.2195  -13.9257 C   0  0  2  0  0  0  0  0  0  0  0  0
   20.0267  -19.7715  -12.9670 C   0  0  0  0  0  0  0  0  0  0  0  0
   21.9950  -20.2790  -14.4288 C   0  0  2  0  0  0  0  0  0  0  0  0
   21.1872  -21.2730  -15.1456 N   0  0  0  0  0  0  0  0  0  0  0  0
   22.7621  -20.9047  -13.3425 C   0  0  0  0  0  0  0  0  0  0  0  0
   22.1418  -21.5929  -12.4809 O   0  0  0  0  0  0  0  0  0  0  0  0
   25.1531  -23.4553  -13.4934 O   0  0  0  0  0  0  0  0  0  0  0  0
   25.7876  -22.5146  -12.7189 C   0  0  0  0  0  0  0  0  0  0  0  0
   24.8439  -21.4793  -12.1490 C   0  0  2  0  0  0  0  0  0  0  0  0
   24.1700  -20.7833  -13.1992 N   0  0  0  0  0  0  0  0  0  0  0  0
   25.5525  -20.5610  -11.2172 C   0  0  0  0  0  0  0  0  0  0  0  0
   26.1041  -19.5405  -11.7020 O   0  0  0  0  0  0  0  0  0  0  0  0
   25.6345  -20.7783   -9.8293 N   0  0  0  0  0  0  0  0  0  0  0  0
   26.6550  -20.2041   -8.9650 C   0  0  1  0  0  0  0  0  0  0  0  0
   26.2639  -20.4159   -7.5381 C   0  0  0  0  0  0  0  0  0  0  0  0
   27.1951  -19.8734   -6.5366 C   0  0  0  0  0  0  0  0  0  0  0  0
   27.1811  -18.5470   -6.1659 C   0  0  0  0  0  0  0  0  0  0  0  0
   28.0465  -18.0562   -5.2165 C   0  0  0  0  0  0  0  0  0  0  0  0
   28.9676  -18.8703   -4.5926 C   0  0  0  0  0  0  0  0  0  0  0  0
   28.9639  -20.1918   -4.9785 C   0  0  0  0  0  0  0  0  0  0  0  0
   28.1071  -20.7069   -5.9268 C   0  0  0  0  0  0  0  0  0  0  0  0
   27.9826  -20.7640   -9.2225 C   0  0  0  0  0  0  0  0  0  0  0  0
   28.2125  -22.0828   -9.5909 O   0  0  0  0  0  0  0  0  0  0  0  0
   28.9911  -20.0330   -9.1117 O   0  0  0  0  0  0  0  0  0  0  0  0
  1  2  1  0
  2  3  1  0
  3  5  1  0
  3  4  1  1
  5  7  1  0
  5  6  1  1
  7  8  2  0
  9 10  1  0
 11 10  1  6
 12 11  1  0
 12  7  1  0
 13 11  1  0
 13 14  2  0
 15 13  1  0
 16 15  1  0
 16 24  1  0
 16 17  1  1
 18 19  2  0
 18 17  1  0
 20 19  1  0
 21 22  1  0
 21 20  2  0
 22 23  2  0
 23 18  1  0
 24 25  1  0
 26 24  2  0
M  END
$$$$
