ISF.pdb
     RDKit          3D

 26 26  0  0  1  0  0  0  0  0999 V2000
   22.0818  -14.8693  -18.4230 C   0  0  0  0  0  0  0  0  0  0  0  0
   21.4235  -13.5204  -18.2702 C   0  0  0  0  0  0  0  0  0  0  0  0
   20.0358  -13.6070  -17.7229 C   0  0  2  0  0  0  0  0  0  0  0  0
   19.2148  -14.4971  -18.6083 C   0  0  0  0  0  0  0  0  0  0  0  0
   19.4020  -12.2479  -17.5245 C   0  0  2  0  0  0  0  0  0  0  0  0
   19.4608  -11.5590  -18.8192 N   0  0  0  0  0  0  0  0  0  0  0  0
   20.0716  -11.4638  -16.4772 C   0  0  0  0  0  0  0  0  0  0  0  0
   20.3913  -12.0420  -15.3982 O   0  0  0  0  0  0  0  0  0  0  0  0
   23.3838   -9.5180  -14.6129 O   0  0  0  0  0  0  0  0  0  0  0  0
   22.5230  -10.1503  -15.4769 C   0  0  0  0  0  0  0  0  0  0  0  0
   21.1939   -9.4422  -15.6159 C   0  0  2  0  0  0  0  0  0  0  0  0
   20.3848  -10.0841  -16.6032 N   0  0  0  0  0  0  0  0  0  0  0  0
   21.3834   -7.9916  -15.8869 C   0  0  0  0  0  0  0  0  0  0  0  0
   21.8200   -7.6557  -17.0172 O   0  0  0  0  0  0  0  0  0  0  0  0
   21.0996   -6.9846  -14.9458 N   0  0  0  0  0  0  0  0  0  0  0  0
   21.3627   -5.5680  -15.1513 C   0  0  1  0  0  0  0  0  0  0  0  0
   20.1165   -4.7926  -14.8686 C   0  0  0  0  0  0  0  0  0  0  0  0
   20.2053   -3.3419  -15.0963 C   0  0  0  0  0  0  0  0  0  0  0  0
   19.9306   -2.7744  -16.3208 C   0  0  0  0  0  0  0  0  0  0  0  0
   20.0017   -1.4150  -16.5159 C   0  0  0  0  0  0  0  0  0  0  0  0
   20.3513   -0.5585  -15.4939 C   0  0  0  0  0  0  0  0  0  0  0  0
   20.6214   -1.1472  -14.2791 C   0  0  0  0  0  0  0  0  0  0  0  0
   20.5570   -2.5059  -14.0591 C   0  0  0  0  0  0  0  0  0  0  0  0
   22.4691   -5.0815  -14.3258 C   0  0  0  0  0  0  0  0  0  0  0  0
   23.4314   -4.1827  -14.7660 O   0  0  0  0  0  0  0  0  0  0  0  0
   22.5802   -5.4828  -13.1467 O   0  0  0  0  0  0  0  0  0  0  0  0
  1  2  1  0
  2  3  1  0
  3  5  1  0
  3  4  1  6
  5  7  1  0
  5  6  1  6
  7  8  2  0
  9 10  1  0
 11 10  1  6
 12 11  1  0
 12  7  1  0
 13 11  1  0
 13 14  2  0
 15 13  1  0
 16 15  1  0
 16 24  1  0
 16 17  1  1
 18 19  2  0
 18 17  1  0
 20 19  1  0
 21 22  1  0
 21 20  2  0
 22 23  2  0
 23 18  1  0
 24 25  1  0
 26 24  2  0
M  END
$$$$
