IAL.pdb
     RDKit          3D

 22 21  0  0  1  0  0  0  0  0999 V2000
   26.4481  -34.1137  -10.8711 C   0  0  0  0  0  0  0  0  0  0  0  0
   25.5875  -33.4881   -9.7665 C   0  0  0  0  0  0  0  0  0  0  0  0
   26.3871  -33.3768   -8.4846 C   0  0  2  0  0  0  0  0  0  0  0  0
   26.9092  -34.7332   -8.0550 C   0  0  0  0  0  0  0  0  0  0  0  0
   25.5635  -32.7221   -7.4039 C   0  0  2  0  0  0  0  0  0  0  0  0
   25.1903  -31.4045   -7.8143 N   0  0  0  0  0  0  0  0  0  0  0  0
   26.2182  -32.7981   -6.0952 C   0  0  0  0  0  0  0  0  0  0  0  0
   27.0939  -31.9111   -5.8412 O   0  0  0  0  0  0  0  0  0  0  0  0
   25.7889  -34.1613   -2.6703 C   0  0  0  0  0  0  0  0  0  0  0  0
   26.6687  -33.7171   -3.8441 C   0  0  2  0  0  0  0  0  0  0  0  0
   25.9659  -33.7668   -5.0882 N   0  0  0  0  0  0  0  0  0  0  0  0
   27.8582  -34.6290   -3.8323 C   0  0  0  0  0  0  0  0  0  0  0  0
   27.8196  -35.7086   -4.4590 O   0  0  0  0  0  0  0  0  0  0  0  0
   32.9490  -33.5081   -5.1511 C   0  0  0  0  0  0  0  0  0  0  0  0
   31.8345  -34.5728   -4.9567 C   0  0  1  0  0  0  0  0  0  0  0  0
   32.5465  -35.8812   -5.2770 C   0  0  0  0  0  0  0  0  0  0  0  0
   31.3974  -34.4172   -3.5520 C   0  0  0  0  0  0  0  0  0  0  0  0
   30.2197  -35.1575   -3.0391 C   0  0  2  0  0  0  0  0  0  0  0  0
   29.0251  -34.2711   -3.1135 N   0  0  0  0  0  0  0  0  0  0  0  0
   30.2682  -35.8129   -1.7488 C   0  0  0  0  0  0  0  0  0  0  0  0
   31.0083  -37.0268   -1.6248 O   0  0  0  0  0  0  0  0  0  0  0  0
   29.7344  -35.4578   -0.6798 O   0  0  0  0  0  0  0  0  0  0  0  0
  2  1  1  0
  3  2  1  0
  3  4  1  1
  5  3  1  0
  5  6  1  6
  7  5  1  0
  7 11  1  0
  8  7  2  0
 10  9  1  1
 10 11  1  0
 10 12  1  0
 12 19  1  0
 13 12  2  0
 15 14  1  1
 15 16  1  0
 17 15  1  0
 18 20  1  0
 18 17  1  1
 19 18  1  0
 20 21  1  0
 22 20  2  0
M  END
$$$$
