IAL.pdb
     RDKit          3D

 22 21  0  0  1  0  0  0  0  0999 V2000
   21.7841  -12.5895  -19.6287 C   0  0  0  0  0  0  0  0  0  0  0  0
   20.3042  -12.5268  -19.2310 C   0  0  0  0  0  0  0  0  0  0  0  0
   19.9771  -11.1629  -18.6584 C   0  0  2  0  0  0  0  0  0  0  0  0
   20.8463  -10.8608  -17.4541 C   0  0  0  0  0  0  0  0  0  0  0  0
   18.5080  -11.0664  -18.3310 C   0  0  2  0  0  0  0  0  0  0  0  0
   17.7348  -11.4889  -19.4569 N   0  0  0  0  0  0  0  0  0  0  0  0
   18.1515   -9.7489  -17.7978 C   0  0  0  0  0  0  0  0  0  0  0  0
   18.2698   -8.7602  -18.5894 O   0  0  0  0  0  0  0  0  0  0  0  0
   16.2032   -8.0800  -15.1119 C   0  0  0  0  0  0  0  0  0  0  0  0
   17.3833   -8.1355  -16.0884 C   0  0  2  0  0  0  0  0  0  0  0  0
   17.6878   -9.4753  -16.4840 N   0  0  0  0  0  0  0  0  0  0  0  0
   18.5318   -7.4825  -15.3804 C   0  0  0  0  0  0  0  0  0  0  0  0
   18.4123   -6.3179  -14.9456 O   0  0  0  0  0  0  0  0  0  0  0  0
   23.0575   -9.3867  -15.8050 C   0  0  0  0  0  0  0  0  0  0  0  0
   22.0360   -9.8934  -14.7498 C   0  0  1  0  0  0  0  0  0  0  0  0
   22.7943  -11.0095  -14.0424 C   0  0  0  0  0  0  0  0  0  0  0  0
   21.7278   -8.7103  -13.9167 C   0  0  0  0  0  0  0  0  0  0  0  0
   20.8998   -7.6027  -14.4513 C   0  0  2  0  0  0  0  0  0  0  0  0
   19.7513   -8.1810  -15.2029 N   0  0  0  0  0  0  0  0  0  0  0  0
   21.5065   -6.5366  -15.2208 C   0  0  0  0  0  0  0  0  0  0  0  0
   22.3639   -5.6121  -14.5524 O   0  0  0  0  0  0  0  0  0  0  0  0
   21.3854   -6.2948  -16.4376 O   0  0  0  0  0  0  0  0  0  0  0  0
  2  1  1  0
  3  2  1  0
  3  4  1  1
  5  3  1  0
  5  6  1  6
  7  5  1  0
  7 11  1  0
  8  7  2  0
 10  9  1  1
 10 11  1  0
 10 12  1  0
 12 19  1  0
 13 12  2  0
 15 14  1  6
 15 16  1  0
 17 15  1  0
 18 20  1  0
 18 17  1  6
 19 18  1  0
 20 21  1  0
 22 20  2  0
M  END
$$$$
