IAL.pdb
     RDKit          3D

 22 21  0  0  1  0  0  0  0  0999 V2000
   16.9830  -15.6951  -17.1749 C   0  0  0  0  0  0  0  0  0  0  0  0
   16.9733  -14.8040  -18.4232 C   0  0  0  0  0  0  0  0  0  0  0  0
   17.7786  -13.5460  -18.1702 C   0  0  2  0  0  0  0  0  0  0  0  0
   17.2173  -12.7737  -16.9932 C   0  0  0  0  0  0  0  0  0  0  0  0
   17.8445  -12.7016  -19.4181 C   0  0  2  0  0  0  0  0  0  0  0  0
   18.4278  -13.4583  -20.4816 N   0  0  0  0  0  0  0  0  0  0  0  0
   18.4751  -11.4030  -19.1675 C   0  0  0  0  0  0  0  0  0  0  0  0
   19.7424  -11.3939  -19.0579 O   0  0  0  0  0  0  0  0  0  0  0  0
   17.6593   -7.7159  -18.8192 C   0  0  0  0  0  0  0  0  0  0  0  0
   18.5389   -8.9685  -18.7378 C   0  0  2  0  0  0  0  0  0  0  0  0
   17.8044  -10.1583  -19.0363 N   0  0  0  0  0  0  0  0  0  0  0  0
   19.0988   -8.9861  -17.3475 C   0  0  0  0  0  0  0  0  0  0  0  0
   18.3994   -9.4049  -16.4014 O   0  0  0  0  0  0  0  0  0  0  0  0
   22.0245  -10.3023  -13.3668 C   0  0  0  0  0  0  0  0  0  0  0  0
   22.9194   -9.6112  -14.4322 C   0  0  1  0  0  0  0  0  0  0  0  0
   24.1108  -10.5539  -14.5474 C   0  0  0  0  0  0  0  0  0  0  0  0
   22.0705   -9.5132  -15.6398 C   0  0  0  0  0  0  0  0  0  0  0  0
   21.0057   -8.4859  -15.7355 C   0  0  2  0  0  0  0  0  0  0  0  0
   20.4173   -8.5296  -17.1030 N   0  0  0  0  0  0  0  0  0  0  0  0
   21.2718   -7.1140  -15.3564 C   0  0  0  0  0  0  0  0  0  0  0  0
   21.1928   -6.7571  -13.9769 O   0  0  0  0  0  0  0  0  0  0  0  0
   21.5738   -6.1529  -16.0905 O   0  0  0  0  0  0  0  0  0  0  0  0
  2  1  1  0
  3  2  1  0
  3  4  1  1
  5  3  1  0
  5  6  1  6
  7  5  1  0
  7 11  1  0
  8  7  2  0
 10  9  1  1
 10 11  1  0
 10 12  1  0
 12 19  1  0
 13 12  2  0
 15 14  1  1
 15 16  1  0
 17 15  1  0
 18 20  1  0
 18 17  1  6
 19 18  1  0
 20 21  1  0
 22 20  2  0
M  END
$$$$
