IAL.pdb
     RDKit          3D

 22 21  0  0  1  0  0  0  0  0999 V2000
   24.7630  -14.3964  -18.1071 C   0  0  0  0  0  0  0  0  0  0  0  0
   23.4524  -13.6049  -18.1972 C   0  0  0  0  0  0  0  0  0  0  0  0
   23.6427  -12.2168  -17.6209 C   0  0  2  0  0  0  0  0  0  0  0  0
   24.1312  -12.2899  -16.1881 C   0  0  0  0  0  0  0  0  0  0  0  0
   22.3703  -11.4161  -17.7421 C   0  0  2  0  0  0  0  0  0  0  0  0
   21.7242  -11.7228  -18.9799 N   0  0  0  0  0  0  0  0  0  0  0  0
   22.5973   -9.9885  -17.5022 C   0  0  0  0  0  0  0  0  0  0  0  0
   23.0569   -9.6661  -16.3607 O   0  0  0  0  0  0  0  0  0  0  0  0
   22.1909   -6.5987  -19.1615 C   0  0  0  0  0  0  0  0  0  0  0  0
   22.5441   -7.5738  -18.0328 C   0  0  2  0  0  0  0  0  0  0  0  0
   22.3524   -8.9358  -18.4231 N   0  0  0  0  0  0  0  0  0  0  0  0
   21.6731   -7.1920  -16.8743 C   0  0  0  0  0  0  0  0  0  0  0  0
   20.5436   -7.7100  -16.7489 O   0  0  0  0  0  0  0  0  0  0  0  0
   20.0699   -8.4658  -12.2168 C   0  0  0  0  0  0  0  0  0  0  0  0
   20.3139   -6.9927  -12.6456 C   0  0  1  0  0  0  0  0  0  0  0  0
   21.1285   -6.4262  -11.4894 C   0  0  0  0  0  0  0  0  0  0  0  0
   21.0276   -7.0837  -13.9383 C   0  0  0  0  0  0  0  0  0  0  0  0
   21.3181   -5.8644  -14.7303 C   0  0  2  0  0  0  0  0  0  0  0  0
   22.1260   -6.2464  -15.9217 N   0  0  0  0  0  0  0  0  0  0  0  0
   21.8942   -4.6965  -14.0972 C   0  0  0  0  0  0  0  0  0  0  0  0
   23.2423   -4.3450  -14.4063 O   0  0  0  0  0  0  0  0  0  0  0  0
   21.3627   -3.9158  -13.2837 O   0  0  0  0  0  0  0  0  0  0  0  0
  2  1  1  0
  3  2  1  0
  3  4  1  1
  5  3  1  0
  5  6  1  6
  7  5  1  0
  7 11  1  0
  8  7  2  0
 10  9  1  6
 10 11  1  0
 10 12  1  0
 12 19  1  0
 13 12  2  0
 15 14  1  1
 15 16  1  0
 17 15  1  0
 18 20  1  0
 18 17  1  1
 19 18  1  0
 20 21  1  0
 22 20  2  0
M  END
$$$$
