IAL.pdb
     RDKit          3D

 22 21  0  0  1  0  0  0  0  0999 V2000
   17.6256  -15.9435  -19.0139 C   0  0  0  0  0  0  0  0  0  0  0  0
   17.2372  -14.9389  -17.9220 C   0  0  0  0  0  0  0  0  0  0  0  0
   18.0192  -13.6531  -18.0965 C   0  0  2  0  0  0  0  0  0  0  0  0
   19.5104  -13.9159  -18.0329 C   0  0  0  0  0  0  0  0  0  0  0  0
   17.5839  -12.6284  -17.0790 C   0  0  2  0  0  0  0  0  0  0  0  0
   16.1561  -12.5842  -17.0203 N   0  0  0  0  0  0  0  0  0  0  0  0
   18.2324  -11.3324  -17.2956 C   0  0  0  0  0  0  0  0  0  0  0  0
   19.5019  -11.3342  -17.3759 O   0  0  0  0  0  0  0  0  0  0  0  0
   17.4368   -7.6675  -17.8667 C   0  0  0  0  0  0  0  0  0  0  0  0
   18.3353   -8.8807  -17.6016 C   0  0  2  0  0  0  0  0  0  0  0  0
   17.5767  -10.0795  -17.4239 N   0  0  0  0  0  0  0  0  0  0  0  0
   19.1388   -8.5369  -16.3839 C   0  0  0  0  0  0  0  0  0  0  0  0
   18.6645   -8.7451  -15.2475 O   0  0  0  0  0  0  0  0  0  0  0  0
   23.7589  -10.5099  -14.7507 C   0  0  0  0  0  0  0  0  0  0  0  0
   22.3382   -9.8908  -14.6416 C   0  0  1  0  0  0  0  0  0  0  0  0
   22.0984   -9.8381  -13.1380 C   0  0  0  0  0  0  0  0  0  0  0  0
   22.4410   -8.5765  -15.3129 C   0  0  0  0  0  0  0  0  0  0  0  0
   21.2853   -7.6482  -15.3408 C   0  0  2  0  0  0  0  0  0  0  0  0
   20.4331   -7.9770  -16.5172 N   0  0  0  0  0  0  0  0  0  0  0  0
   21.4902   -6.2168  -15.2646 C   0  0  0  0  0  0  0  0  0  0  0  0
   21.7979   -5.6355  -13.9981 O   0  0  0  0  0  0  0  0  0  0  0  0
   21.4349   -5.3770  -16.1842 O   0  0  0  0  0  0  0  0  0  0  0  0
  2  1  1  0
  3  2  1  0
  3  4  1  1
  5  3  1  0
  5  6  1  6
  7  5  1  0
  7 11  1  0
  8  7  2  0
 10  9  1  1
 10 11  1  0
 10 12  1  0
 12 19  1  0
 13 12  2  0
 15 14  1  1
 15 16  1  0
 17 15  1  0
 18 20  1  0
 18 17  1  6
 19 18  1  0
 20 21  1  0
 22 20  2  0
M  END
$$$$
