IAL.pdb
     RDKit          3D

 22 21  0  0  1  0  0  0  0  0999 V2000
   19.1964  -12.4236  -20.9674 C   0  0  0  0  0  0  0  0  0  0  0  0
   19.7902  -12.5711  -19.5610 C   0  0  0  0  0  0  0  0  0  0  0  0
   19.4396  -11.3613  -18.7192 C   0  0  2  0  0  0  0  0  0  0  0  0
   19.9315  -10.0867  -19.3752 C   0  0  0  0  0  0  0  0  0  0  0  0
   19.9784  -11.5185  -17.3193 C   0  0  2  0  0  0  0  0  0  0  0  0
   19.5673  -12.7785  -16.7835 N   0  0  0  0  0  0  0  0  0  0  0  0
   19.6651  -10.3595  -16.4791 C   0  0  0  0  0  0  0  0  0  0  0  0
   18.4330  -10.0969  -16.3028 O   0  0  0  0  0  0  0  0  0  0  0  0
   21.1707   -7.9364  -14.0425 C   0  0  0  0  0  0  0  0  0  0  0  0
   20.1670   -8.3532  -15.1234 C   0  0  2  0  0  0  0  0  0  0  0  0
   20.6067   -9.5060  -15.8458 N   0  0  0  0  0  0  0  0  0  0  0  0
   20.0045   -7.1585  -16.0139 C   0  0  0  0  0  0  0  0  0  0  0  0
   20.7821   -6.9909  -16.9766 O   0  0  0  0  0  0  0  0  0  0  0  0
   15.2023   -5.2267  -17.7952 C   0  0  0  0  0  0  0  0  0  0  0  0
   16.6754   -5.7198  -17.7808 C   0  0  1  0  0  0  0  0  0  0  0  0
   17.0778   -5.6502  -19.2487 C   0  0  0  0  0  0  0  0  0  0  0  0
   17.3847   -4.7803  -16.8846 C   0  0  0  0  0  0  0  0  0  0  0  0
   18.8204   -4.9733  -16.5687 C   0  0  2  0  0  0  0  0  0  0  0  0
   18.9728   -6.2195  -15.7676 N   0  0  0  0  0  0  0  0  0  0  0  0
   19.5913   -3.9040  -15.9696 C   0  0  0  0  0  0  0  0  0  0  0  0
   19.9995   -2.8107  -16.7909 O   0  0  0  0  0  0  0  0  0  0  0  0
   19.9695   -3.7912  -14.7872 O   0  0  0  0  0  0  0  0  0  0  0  0
  2  1  1  0
  3  2  1  0
  3  4  1  6
  5  3  1  0
  5  6  1  1
  7  5  1  0
  7 11  1  0
  8  7  2  0
 10  9  1  1
 10 11  1  0
 10 12  1  0
 12 19  1  0
 13 12  2  0
 15 14  1  6
 15 16  1  0
 17 15  1  0
 18 20  1  0
 18 17  1  1
 19 18  1  0
 20 21  1  0
 22 20  2  0
M  END
$$$$
