IAL.pdb
     RDKit          3D

 22 21  0  0  1  0  0  0  0  0999 V2000
   17.5341  -14.4410  -17.8538 C   0  0  0  0  0  0  0  0  0  0  0  0
   17.0307  -13.2872  -16.9778 C   0  0  0  0  0  0  0  0  0  0  0  0
   17.9731  -12.1057  -17.0821 C   0  0  2  0  0  0  0  0  0  0  0  0
   19.3873  -12.5098  -16.7165 C   0  0  0  0  0  0  0  0  0  0  0  0
   17.4783  -10.9595  -16.2359 C   0  0  2  0  0  0  0  0  0  0  0  0
   16.1033  -10.7016  -16.5306 N   0  0  0  0  0  0  0  0  0  0  0  0
   18.3581   -9.7914  -16.3282 C   0  0  0  0  0  0  0  0  0  0  0  0
   19.5833   -9.9736  -16.0386 O   0  0  0  0  0  0  0  0  0  0  0  0
   18.3499   -6.1591  -17.4198 C   0  0  0  0  0  0  0  0  0  0  0  0
   18.9487   -7.4451  -16.8392 C   0  0  2  0  0  0  0  0  0  0  0  0
   17.9706   -8.4798  -16.7100 N   0  0  0  0  0  0  0  0  0  0  0  0
   19.5401   -7.0606  -15.5166 C   0  0  0  0  0  0  0  0  0  0  0  0
   18.8073   -6.9792  -14.5086 O   0  0  0  0  0  0  0  0  0  0  0  0
   22.9498   -9.8381  -12.8753 C   0  0  0  0  0  0  0  0  0  0  0  0
   21.7797   -8.8384  -13.0881 C   0  0  1  0  0  0  0  0  0  0  0  0
   21.2298   -8.6448  -11.6804 C   0  0  0  0  0  0  0  0  0  0  0  0
   22.4040   -7.6419  -13.6941 C   0  0  0  0  0  0  0  0  0  0  0  0
   21.5770   -6.4811  -14.1023 C   0  0  2  0  0  0  0  0  0  0  0  0
   20.9260   -6.7896  -15.4059 N   0  0  0  0  0  0  0  0  0  0  0  0
   22.1453   -5.1497  -14.1375 C   0  0  0  0  0  0  0  0  0  0  0  0
   22.0694   -4.4045  -15.3522 O   0  0  0  0  0  0  0  0  0  0  0  0
   22.7183   -4.5284  -13.2212 O   0  0  0  0  0  0  0  0  0  0  0  0
  2  1  1  0
  3  2  1  0
  3  4  1  1
  5  3  1  0
  5  6  1  6
  7  5  1  0
  7 11  1  0
  8  7  2  0
 10  9  1  1
 10 11  1  0
 10 12  1  0
 12 19  1  0
 13 12  2  0
 15 14  1  1
 15 16  1  0
 17 15  1  0
 18 20  1  0
 18 17  1  6
 19 18  1  0
 20 21  1  0
 22 20  2  0
M  END
$$$$
