IAL.pdb
     RDKit          3D

 22 21  0  0  1  0  0  0  0  0999 V2000
   17.2763  -16.0492  -15.8264 C   0  0  0  0  0  0  0  0  0  0  0  0
   16.4202  -15.0569  -16.6231 C   0  0  0  0  0  0  0  0  0  0  0  0
   17.0157  -13.6668  -16.5324 C   0  0  2  0  0  0  0  0  0  0  0  0
   17.1085  -13.2128  -15.0894 C   0  0  0  0  0  0  0  0  0  0  0  0
   16.2268  -12.6986  -17.3780 C   0  0  2  0  0  0  0  0  0  0  0  0
   16.0544  -13.2357  -18.6916 N   0  0  0  0  0  0  0  0  0  0  0  0
   16.7918  -11.3473  -17.3337 C   0  0  0  0  0  0  0  0  0  0  0  0
   17.9387  -11.1890  -17.8607 O   0  0  0  0  0  0  0  0  0  0  0  0
   15.9325   -7.7824  -16.4188 C   0  0  0  0  0  0  0  0  0  0  0  0
   16.8748   -8.9541  -16.7165 C   0  0  2  0  0  0  0  0  0  0  0  0
   16.1791  -10.2024  -16.7590 N   0  0  0  0  0  0  0  0  0  0  0  0
   17.9163   -8.9260  -15.6389 C   0  0  0  0  0  0  0  0  0  0  0  0
   17.8945   -9.7837  -14.7314 O   0  0  0  0  0  0  0  0  0  0  0  0
   22.0254  -11.2356  -14.1395 C   0  0  0  0  0  0  0  0  0  0  0  0
   21.9403   -9.6851  -14.0944 C   0  0  1  0  0  0  0  0  0  0  0  0
   23.2466   -9.2479  -14.7455 C   0  0  0  0  0  0  0  0  0  0  0  0
   20.7130   -9.3471  -14.8481 C   0  0  0  0  0  0  0  0  0  0  0  0
   20.1142   -7.9941  -14.7524 C   0  0  2  0  0  0  0  0  0  0  0  0
   18.9244   -7.9309  -15.6461 N   0  0  0  0  0  0  0  0  0  0  0  0
   20.9323   -6.8135  -14.9358 C   0  0  0  0  0  0  0  0  0  0  0  0
   21.1105   -6.3022  -16.2561 O   0  0  0  0  0  0  0  0  0  0  0  0
   21.5325   -6.1460  -14.0710 O   0  0  0  0  0  0  0  0  0  0  0  0
  2  1  1  0
  3  2  1  0
  3  4  1  1
  5  3  1  0
  5  6  1  6
  7  5  1  0
  7 11  1  0
  8  7  2  0
 10  9  1  1
 10 11  1  0
 10 12  1  0
 12 19  1  0
 13 12  2  0
 15 14  1  6
 15 16  1  0
 17 15  1  0
 18 20  1  0
 18 17  1  6
 19 18  1  0
 20 21  1  0
 22 20  2  0
M  END
$$$$
