IAL.pdb
     RDKit          3D

 22 21  0  0  1  0  0  0  0  0999 V2000
   30.1122  -15.0063  -19.9205 C   0  0  0  0  0  0  0  0  0  0  0  0
   29.6750  -13.9204  -18.9296 C   0  0  0  0  0  0  0  0  0  0  0  0
   30.5491  -12.6928  -19.0845 C   0  0  2  0  0  0  0  0  0  0  0  0
   32.0106  -13.0431  -18.8889 C   0  0  0  0  0  0  0  0  0  0  0  0
   30.1003  -11.6031  -18.1433 C   0  0  2  0  0  0  0  0  0  0  0  0
   28.6755  -11.4917  -18.1798 N   0  0  0  0  0  0  0  0  0  0  0  0
   30.8228  -10.3493  -18.3735 C   0  0  0  0  0  0  0  0  0  0  0  0
   32.0857  -10.3808  -18.2238 O   0  0  0  0  0  0  0  0  0  0  0  0
   30.2767   -6.7616  -19.4762 C   0  0  0  0  0  0  0  0  0  0  0  0
   31.0660   -7.9478  -18.9110 C   0  0  2  0  0  0  0  0  0  0  0  0
   30.2454   -9.1070  -18.7470 N   0  0  0  0  0  0  0  0  0  0  0  0
   31.6398   -7.4750  -17.6095 C   0  0  0  0  0  0  0  0  0  0  0  0
   31.2303   -7.9642  -16.5359 O   0  0  0  0  0  0  0  0  0  0  0  0
   34.7930   -7.5452  -13.8925 C   0  0  0  0  0  0  0  0  0  0  0  0
   35.3847   -7.8149  -15.3034 C   0  0  1  0  0  0  0  0  0  0  0  0
   35.9532   -9.2228  -15.1767 C   0  0  0  0  0  0  0  0  0  0  0  0
   34.2409   -7.6751  -16.2312 C   0  0  0  0  0  0  0  0  0  0  0  0
   33.6249   -6.3494  -16.4792 C   0  0  2  0  0  0  0  0  0  0  0  0
   32.6441   -6.4761  -17.5928 N   0  0  0  0  0  0  0  0  0  0  0  0
   34.4542   -5.1800  -16.6827 C   0  0  0  0  0  0  0  0  0  0  0  0
   34.9036   -4.8807  -18.0037 O   0  0  0  0  0  0  0  0  0  0  0  0
   34.8529   -4.3570  -15.8357 O   0  0  0  0  0  0  0  0  0  0  0  0
  2  1  1  0
  3  2  1  0
  3  4  1  1
  5  3  1  0
  5  6  1  6
  7  5  1  0
  7 11  1  0
  8  7  2  0
 10  9  1  1
 10 11  1  0
 10 12  1  0
 12 19  1  0
 13 12  2  0
 15 14  1  1
 15 16  1  0
 17 15  1  0
 18 20  1  0
 18 17  1  6
 19 18  1  0
 20 21  1  0
 22 20  2  0
M  END
$$$$
