IAL.pdb
     RDKit          3D

 22 21  0  0  1  0  0  0  0  0999 V2000
   13.0636  -10.7547  -15.3698 C   0  0  0  0  0  0  0  0  0  0  0  0
   14.3967  -11.1205  -14.7055 C   0  0  0  0  0  0  0  0  0  0  0  0
   15.5349  -10.9376  -15.6884 C   0  0  2  0  0  0  0  0  0  0  0  0
   15.3392  -11.8138  -16.9094 C   0  0  0  0  0  0  0  0  0  0  0  0
   16.8598  -11.1965  -15.0159 C   0  0  2  0  0  0  0  0  0  0  0  0
   16.9038  -12.5441  -14.5409 N   0  0  0  0  0  0  0  0  0  0  0  0
   17.1709  -10.1777  -14.0097 C   0  0  0  0  0  0  0  0  0  0  0  0
   16.9204  -10.4745  -12.7983 O   0  0  0  0  0  0  0  0  0  0  0  0
   18.9975   -6.8913  -13.6291 C   0  0  0  0  0  0  0  0  0  0  0  0
   18.0857   -8.0368  -13.1758 C   0  0  2  0  0  0  0  0  0  0  0  0
   17.7245   -8.8946  -14.2612 N   0  0  0  0  0  0  0  0  0  0  0  0
   16.8893   -7.3851  -12.5508 C   0  0  0  0  0  0  0  0  0  0  0  0
   15.8927   -7.1129  -13.2524 O   0  0  0  0  0  0  0  0  0  0  0  0
   13.3986   -7.0889   -8.3572 C   0  0  0  0  0  0  0  0  0  0  0  0
   14.7132   -6.2928   -8.1305 C   0  0  1  0  0  0  0  0  0  0  0  0
   15.0144   -6.5348   -6.6567 C   0  0  0  0  0  0  0  0  0  0  0  0
   15.6844   -6.8793   -9.0799 C   0  0  0  0  0  0  0  0  0  0  0  0
   15.7178   -6.4413  -10.4960 C   0  0  2  0  0  0  0  0  0  0  0  0
   16.8850   -7.0771  -11.1681 N   0  0  0  0  0  0  0  0  0  0  0  0
   15.6615   -5.0339  -10.8317 C   0  0  0  0  0  0  0  0  0  0  0  0
   16.8835   -4.3389  -11.0770 O   0  0  0  0  0  0  0  0  0  0  0  0
   14.6568   -4.3046  -10.9434 O   0  0  0  0  0  0  0  0  0  0  0  0
  2  1  1  0
  3  2  1  0
  3  4  1  6
  5  3  1  0
  5  6  1  1
  7  5  1  0
  7 11  1  0
  8  7  2  0
 10  9  1  6
 10 11  1  0
 10 12  1  0
 12 19  1  0
 13 12  2  0
 15 14  1  6
 15 16  1  0
 17 15  1  0
 18 20  1  0
 18 17  1  1
 19 18  1  0
 20 21  1  0
 22 20  2  0
M  END
$$$$
