IAL.pdb
     RDKit          3D

 22 21  0  0  1  0  0  0  0  0999 V2000
   27.4223  -22.1060  -10.3211 C   0  0  0  0  0  0  0  0  0  0  0  0
   26.0879  -21.3798  -10.5316 C   0  0  0  0  0  0  0  0  0  0  0  0
   25.9566  -20.9417  -11.9759 C   0  0  2  0  0  0  0  0  0  0  0  0
   27.1923  -20.1881  -12.4255 C   0  0  0  0  0  0  0  0  0  0  0  0
   24.7003  -20.1298  -12.1690 C   0  0  2  0  0  0  0  0  0  0  0  0
   23.7088  -20.5449  -11.2264 N   0  0  0  0  0  0  0  0  0  0  0  0
   24.2597  -20.1274  -13.5665 C   0  0  0  0  0  0  0  0  0  0  0  0
   25.0589  -19.6222  -14.4175 O   0  0  0  0  0  0  0  0  0  0  0  0
   21.2088  -20.8790  -15.6892 C   0  0  0  0  0  0  0  0  0  0  0  0
   22.6447  -20.4174  -15.4166 C   0  0  2  0  0  0  0  0  0  0  0  0
   23.0276  -20.6353  -14.0564 N   0  0  0  0  0  0  0  0  0  0  0  0
   22.6856  -18.9657  -15.7876 C   0  0  0  0  0  0  0  0  0  0  0  0
   22.2256  -18.1106  -15.0021 O   0  0  0  0  0  0  0  0  0  0  0  0
   27.2632  -16.6509  -15.2058 C   0  0  0  0  0  0  0  0  0  0  0  0
   25.7161  -16.7566  -15.1129 C   0  0  1  0  0  0  0  0  0  0  0  0
   25.2532  -15.3389  -15.4247 C   0  0  0  0  0  0  0  0  0  0  0  0
   25.3416  -17.7796  -16.1138 C   0  0  0  0  0  0  0  0  0  0  0  0
   24.2889  -17.5038  -17.1208 C   0  0  2  0  0  0  0  0  0  0  0  0
   23.2436  -18.5604  -17.0249 N   0  0  0  0  0  0  0  0  0  0  0  0
   24.6390  -17.2805  -18.5080 C   0  0  0  0  0  0  0  0  0  0  0  0
   24.8053  -15.9387  -18.9648 O   0  0  0  0  0  0  0  0  0  0  0  0
   24.8254  -18.1258  -19.4049 O   0  0  0  0  0  0  0  0  0  0  0  0
  2  1  1  0
  3  2  1  0
  3  4  1  1
  5  3  1  0
  5  6  1  1
  7  5  1  0
  7 11  1  0
  8  7  2  0
 10  9  1  1
 10 11  1  0
 10 12  1  0
 12 19  1  0
 13 12  2  0
 15 14  1  6
 15 16  1  0
 17 15  1  0
 18 20  1  0
 18 17  1  1
 19 18  1  0
 20 21  1  0
 22 20  2  0
M  END
$$$$
