IAL.pdb
     RDKit          3D

 22 21  0  0  1  0  0  0  0  0999 V2000
   29.6377  -21.0214  -15.4009 C   0  0  0  0  0  0  0  0  0  0  0  0
   28.1311  -20.7593  -15.2836 C   0  0  0  0  0  0  0  0  0  0  0  0
   27.7909  -20.3007  -13.8803 C   0  0  2  0  0  0  0  0  0  0  0  0
   28.3043  -21.2875  -12.8509 C   0  0  0  0  0  0  0  0  0  0  0  0
   26.3067  -20.0681  -13.7464 C   0  0  2  0  0  0  0  0  0  0  0  0
   25.8758  -19.1265  -14.7320 N   0  0  0  0  0  0  0  0  0  0  0  0
   25.9266  -19.7377  -12.3703 C   0  0  0  0  0  0  0  0  0  0  0  0
   26.3692  -18.6408  -11.9021 O   0  0  0  0  0  0  0  0  0  0  0  0
   23.4621  -20.5486   -9.6957 C   0  0  0  0  0  0  0  0  0  0  0  0
   24.8478  -20.1020  -10.1752 C   0  0  2  0  0  0  0  0  0  0  0  0
   25.1127  -20.5260  -11.5147 N   0  0  0  0  0  0  0  0  0  0  0  0
   25.8256  -20.6804   -9.1975 C   0  0  0  0  0  0  0  0  0  0  0  0
   26.3694  -21.7785   -9.4386 O   0  0  0  0  0  0  0  0  0  0  0  0
   30.2247  -20.3377   -6.1847 C   0  0  0  0  0  0  0  0  0  0  0  0
   29.0020  -19.6627   -5.5043 C   0  0  1  0  0  0  0  0  0  0  0  0
   29.5963  -18.3943   -4.9049 C   0  0  0  0  0  0  0  0  0  0  0  0
   28.0258  -19.4504   -6.5955 C   0  0  0  0  0  0  0  0  0  0  0  0
   27.0845  -20.5261   -6.9892 C   0  0  2  0  0  0  0  0  0  0  0  0
   26.1348  -19.9866   -8.0018 N   0  0  0  0  0  0  0  0  0  0  0  0
   26.3604  -21.2739   -5.9827 C   0  0  0  0  0  0  0  0  0  0  0  0
   24.9417  -21.1350   -5.9150 O   0  0  0  0  0  0  0  0  0  0  0  0
   26.8133  -22.0580   -5.1260 O   0  0  0  0  0  0  0  0  0  0  0  0
  2  1  1  0
  3  2  1  0
  3  4  1  1
  5  3  1  0
  5  6  1  6
  7  5  1  0
  7 11  1  0
  8  7  2  0
 10  9  1  1
 10 11  1  0
 10 12  1  0
 12 19  1  0
 13 12  2  0
 15 14  1  6
 15 16  1  0
 17 15  1  0
 18 20  1  0
 18 17  1  1
 19 18  1  0
 20 21  1  0
 22 20  2  0
M  END
$$$$
