IAL.pdb
     RDKit          3D

 22 21  0  0  1  0  0  0  0  0999 V2000
   25.5228  -13.9734  -15.2079 C   0  0  0  0  0  0  0  0  0  0  0  0
   25.6662  -15.2928  -15.9765 C   0  0  0  0  0  0  0  0  0  0  0  0
   25.6669  -16.4598  -15.0105 C   0  0  2  0  0  0  0  0  0  0  0  0
   26.8513  -16.3793  -14.0682 C   0  0  0  0  0  0  0  0  0  0  0  0
   25.6328  -17.7670  -15.7619 C   0  0  2  0  0  0  0  0  0  0  0  0
   24.6015  -17.7273  -16.7512 N   0  0  0  0  0  0  0  0  0  0  0  0
   25.5743  -18.9175  -14.8563 C   0  0  0  0  0  0  0  0  0  0  0  0
   24.4384  -19.1937  -14.3548 O   0  0  0  0  0  0  0  0  0  0  0  0
   27.4382  -21.9983  -13.8742 C   0  0  0  0  0  0  0  0  0  0  0  0
   26.4681  -20.8456  -13.5919 C   0  0  2  0  0  0  0  0  0  0  0  0
   26.6647  -19.7493  -14.4884 N   0  0  0  0  0  0  0  0  0  0  0  0
   26.7015  -20.4544  -12.1640 C   0  0  0  0  0  0  0  0  0  0  0  0
   27.8214  -20.0283  -11.8116 O   0  0  0  0  0  0  0  0  0  0  0  0
   28.5025  -20.2409   -7.5927 C   0  0  0  0  0  0  0  0  0  0  0  0
   27.1475  -19.5310   -7.8635 C   0  0  1  0  0  0  0  0  0  0  0  0
   27.4232  -18.0905   -7.4509 C   0  0  0  0  0  0  0  0  0  0  0  0
   26.8883  -19.7382   -9.3052 C   0  0  0  0  0  0  0  0  0  0  0  0
   25.9189  -20.7635   -9.7604 C   0  0  2  0  0  0  0  0  0  0  0  0
   25.6573  -20.5660  -11.2133 N   0  0  0  0  0  0  0  0  0  0  0  0
   24.6688  -20.9574   -9.0559 C   0  0  0  0  0  0  0  0  0  0  0  0
   24.7002  -21.5366   -7.7520 O   0  0  0  0  0  0  0  0  0  0  0  0
   23.5147  -20.6805   -9.4369 O   0  0  0  0  0  0  0  0  0  0  0  0
  2  1  1  0
  3  2  1  0
  3  4  1  6
  5  3  1  0
  5  6  1  6
  7  5  1  0
  7 11  1  0
  8  7  2  0
 10  9  1  6
 10 11  1  0
 10 12  1  0
 12 19  1  0
 13 12  2  0
 15 14  1  6
 15 16  1  0
 17 15  1  0
 18 20  1  0
 18 17  1  1
 19 18  1  0
 20 21  1  0
 22 20  2  0
M  END
$$$$
