RPP.pdb
     RDKit          3D

 26 27  0  0  1  0  0  0  0  0999 V2000
    8.1102  -13.1262   15.4940 N   0  0  0  0  0  0  0  0  0  0  0  0
    8.3016  -14.0217   16.5743 C   0  0  0  0  0  0  0  0  0  0  0  0
    8.4627  -15.2903   16.4083 N   0  0  0  0  0  0  0  0  0  0  0  0
    8.3192  -13.5049   17.9253 N   0  0  0  0  0  0  0  0  0  0  0  0
    7.4633  -14.0854   18.9268 C   0  0  0  0  0  0  0  0  0  0  0  0
    7.6647  -15.5734   18.9457 C   0  0  0  0  0  0  0  0  0  0  0  0
    6.8267  -16.2454   19.9693 C   0  0  0  0  0  0  0  0  0  0  0  0
    7.5954  -17.2405   20.7767 C   0  0  2  0  0  0  0  0  0  0  0  0
    7.0676  -18.5719   20.5138 N   0  0  0  0  0  0  0  0  0  0  0  0
    7.4995  -16.8955   22.2118 C   0  0  0  0  0  0  0  0  0  0  0  0
    6.4099  -17.1294   22.8163 O   0  0  0  0  0  0  0  0  0  0  0  0
    8.5648  -15.9033   17.2349 N   0  0  0  0  0  0  0  0  0  0  0  0
    8.6095  -16.3301   22.8756 C   0  0  0  0  0  0  0  0  0  0  0  0
    9.9817  -16.2029   22.3608 C   0  0  0  0  0  0  0  0  0  0  0  0
   10.7135  -16.6793   23.6324 C   0  0  0  0  0  0  0  0  0  0  0  0
   10.0298  -15.8629   24.6866 C   0  0  2  0  0  0  0  0  0  0  0  0
    8.5825  -15.8230   24.2199 C   0  0  0  0  0  0  0  0  0  0  0  0
    7.9631  -14.5380   24.4292 O   0  0  0  0  0  0  0  0  0  0  0  0
    7.8010  -13.8720   23.3079 N   0  0  0  0  0  0  0  0  0  0  0  0
    7.5084  -13.8829   25.5775 C   0  0  0  0  0  0  0  0  0  0  0  0
    7.6067  -14.4300   26.9443 C   0  0  0  0  0  0  0  0  0  0  0  0
    6.2367  -14.1140   27.5316 C   0  0  0  0  0  0  0  0  0  0  0  0
    5.9880  -12.7237   27.0012 C   0  0  1  0  0  0  0  0  0  0  0  0
    6.9074  -12.5930   25.7789 C   0  0  0  0  0  0  0  0  0  0  0  0
    7.9254  -11.5682   26.1646 O   0  0  0  0  0  0  0  0  0  0  0  0
    7.6810  -10.2176   26.0710 O   0  0  0  0  0  0  0  0  0  0  0  0
  2  1  1  0
  3  2  2  0
  4  2  1  0
  5  4  1  0
  6  5  1  0
  6  7  1  0
  7  8  1  0
  8  9  1  1
 10  8  1  0
 11 10  2  0
 12 16  1  0
 12 10  1  0
 13 14  1  0
 13 12  1  0
 14 15  1  0
 15 16  1  0
 17 19  1  0
 16 17  1  6
 18 17  2  0
 19 20  1  0
 20 21  1  0
 22 21  1  0
 23 19  1  0
 23 22  1  0
 24 25  1  0
 23 24  1  1
 26 24  2  0
M  END
$$$$
