RPP.pdb
     RDKit          3D

 26 27  0  0  1  0  0  0  0  0999 V2000
   13.6880  -16.3714   18.7951 N   0  0  0  0  0  0  0  0  0  0  0  0
   13.0151  -16.3934   17.5492 C   0  0  0  0  0  0  0  0  0  0  0  0
   13.3453  -17.1923   16.5923 N   0  0  0  0  0  0  0  0  0  0  0  0
   11.9097  -15.4870   17.3276 N   0  0  0  0  0  0  0  0  0  0  0  0
   10.5944  -15.8297   17.8021 C   0  0  0  0  0  0  0  0  0  0  0  0
   10.4748  -15.4418   19.2479 C   0  0  0  0  0  0  0  0  0  0  0  0
    9.9719  -14.0570   19.4230 C   0  0  0  0  0  0  0  0  0  0  0  0
    8.4815  -13.9748   19.3527 C   0  0  2  0  0  0  0  0  0  0  0  0
    8.1093  -12.8992   18.4445 N   0  0  0  0  0  0  0  0  0  0  0  0
    7.9322  -13.7516   20.7078 C   0  0  0  0  0  0  0  0  0  0  0  0
    7.9185  -12.5693   21.1651 O   0  0  0  0  0  0  0  0  0  0  0  0
   12.8343  -17.1500   15.6943 N   0  0  0  0  0  0  0  0  0  0  0  0
    7.4308  -14.8409   21.4524 C   0  0  0  0  0  0  0  0  0  0  0  0
    7.3190  -16.2403   21.0130 C   0  0  0  0  0  0  0  0  0  0  0  0
    5.8916  -16.4977   21.5384 C   0  0  0  0  0  0  0  0  0  0  0  0
    5.9920  -15.9597   22.9333 C   0  0  2  0  0  0  0  0  0  0  0  0
    6.8858  -14.7386   22.7782 C   0  0  0  0  0  0  0  0  0  0  0  0
    7.8193  -14.5875   23.8666 O   0  0  0  0  0  0  0  0  0  0  0  0
    8.9986  -15.0966   23.5889 N   0  0  0  0  0  0  0  0  0  0  0  0
    7.7081  -14.0092   25.1345 C   0  0  0  0  0  0  0  0  0  0  0  0
    6.4446  -13.5253   25.7230 C   0  0  0  0  0  0  0  0  0  0  0  0
    6.8494  -12.1904   26.3360 C   0  0  0  0  0  0  0  0  0  0  0  0
    8.1953  -12.5213   26.9321 C   0  0  1  0  0  0  0  0  0  0  0  0
    8.6717  -13.7677   26.1732 C   0  0  0  0  0  0  0  0  0  0  0  0
    8.6710  -14.8659   27.1876 O   0  0  0  0  0  0  0  0  0  0  0  0
    9.7101  -15.0527   28.0696 O   0  0  0  0  0  0  0  0  0  0  0  0
  2  1  1  0
  3  2  2  0
  4  2  1  0
  5  4  1  0
  6  5  1  0
  6  7  1  0
  7  8  1  0
  8  9  1  6
 10  8  1  0
 11 10  2  0
 12 16  1  0
 12 10  1  0
 13 14  1  0
 13 12  1  0
 14 15  1  0
 15 16  1  0
 17 19  1  0
 16 17  1  1
 18 17  2  0
 19 20  1  0
 20 21  1  0
 22 21  1  0
 23 19  1  0
 23 22  1  0
 24 25  1  0
 23 24  1  1
 26 24  2  0
M  END
$$$$
