RPP.pdb
     RDKit          3D

 26 27  0  0  1  0  0  0  0  0999 V2000
   11.5084  -22.1986   19.8970 N   0  0  0  0  0  0  0  0  0  0  0  0
   10.8600  -21.2676   19.0494 C   0  0  0  0  0  0  0  0  0  0  0  0
   11.3994  -20.8146   17.9692 N   0  0  0  0  0  0  0  0  0  0  0  0
    9.5373  -20.7972   19.3981 N   0  0  0  0  0  0  0  0  0  0  0  0
    8.8213  -19.9342   18.4952 C   0  0  0  0  0  0  0  0  0  0  0  0
    9.6005  -18.6647   18.3040 C   0  0  0  0  0  0  0  0  0  0  0  0
    8.8613  -17.6625   17.4975 C   0  0  0  0  0  0  0  0  0  0  0  0
    9.6081  -16.3759   17.3567 C   0  0  2  0  0  0  0  0  0  0  0  0
   10.9237  -16.6514   16.7967 N   0  0  0  0  0  0  0  0  0  0  0  0
    9.7105  -15.7144   18.6757 C   0  0  0  0  0  0  0  0  0  0  0  0
   10.7983  -15.8177   19.3186 O   0  0  0  0  0  0  0  0  0  0  0  0
   10.9062  -20.0919   17.4179 N   0  0  0  0  0  0  0  0  0  0  0  0
    8.6156  -14.9821   19.1829 C   0  0  0  0  0  0  0  0  0  0  0  0
    7.3899  -14.6043   18.4625 C   0  0  0  0  0  0  0  0  0  0  0  0
    7.3245  -13.1393   18.9410 C   0  0  0  0  0  0  0  0  0  0  0  0
    7.5302  -13.3039   20.4160 C   0  0  2  0  0  0  0  0  0  0  0  0
    8.5496  -14.4293   20.5077 C   0  0  0  0  0  0  0  0  0  0  0  0
    8.2795  -15.3410   21.5915 O   0  0  0  0  0  0  0  0  0  0  0  0
    8.0758  -16.5699   21.1728 N   0  0  0  0  0  0  0  0  0  0  0  0
    8.1993  -15.1667   22.9763 C   0  0  0  0  0  0  0  0  0  0  0  0
    7.9920  -13.8669   23.6431 C   0  0  0  0  0  0  0  0  0  0  0  0
    8.9899  -13.9169   24.7934 C   0  0  0  0  0  0  0  0  0  0  0  0
    8.8454  -15.3429   25.2641 C   0  0  1  0  0  0  0  0  0  0  0  0
    8.2433  -16.0975   24.0705 C   0  0  0  0  0  0  0  0  0  0  0  0
    6.8699  -16.4912   24.5108 O   0  0  0  0  0  0  0  0  0  0  0  0
    6.6388  -17.5937   25.3006 O   0  0  0  0  0  0  0  0  0  0  0  0
  2  1  1  0
  3  2  2  0
  4  2  1  0
  5  4  1  0
  6  5  1  0
  6  7  1  0
  7  8  1  0
  8  9  1  1
 10  8  1  0
 11 10  2  0
 12 16  1  0
 12 10  1  0
 13 14  1  0
 13 12  1  0
 14 15  1  0
 15 16  1  0
 17 19  1  0
 16 17  1  1
 18 17  2  0
 19 20  1  0
 20 21  1  0
 22 21  1  0
 23 19  1  0
 23 22  1  0
 24 25  1  0
 23 24  1  1
 26 24  2  0
M  END
$$$$
