RPP.pdb
     RDKit          3D

 26 27  0  0  1  0  0  0  0  0999 V2000
    6.0967  -13.2341   18.3225 N   0  0  0  0  0  0  0  0  0  0  0  0
    7.3647  -13.7666   17.9848 C   0  0  0  0  0  0  0  0  0  0  0  0
    8.2915  -13.0623   17.4298 N   0  0  0  0  0  0  0  0  0  0  0  0
    7.6451  -15.1571   18.2686 N   0  0  0  0  0  0  0  0  0  0  0  0
    6.9949  -15.8087   19.3756 C   0  0  0  0  0  0  0  0  0  0  0  0
    6.8791  -14.8416   20.5186 C   0  0  0  0  0  0  0  0  0  0  0  0
    7.7532  -15.2070   21.6605 C   0  0  0  0  0  0  0  0  0  0  0  0
    8.8939  -14.2580   21.8362 C   0  0  2  0  0  0  0  0  0  0  0  0
    9.9973  -14.6819   20.9858 N   0  0  0  0  0  0  0  0  0  0  0  0
    9.2934  -14.2200   23.2599 C   0  0  0  0  0  0  0  0  0  0  0  0
   10.5191  -14.3715   23.5459 O   0  0  0  0  0  0  0  0  0  0  0  0
    9.1442  -13.5293   17.0775 N   0  0  0  0  0  0  0  0  0  0  0  0
    8.3190  -14.0087   24.2590 C   0  0  0  0  0  0  0  0  0  0  0  0
    6.8673  -13.8673   24.0678 C   0  0  0  0  0  0  0  0  0  0  0  0
    6.6633  -12.6560   25.0009 C   0  0  0  0  0  0  0  0  0  0  0  0
    7.4076  -13.0998   26.2233 C   0  0  1  0  0  0  0  0  0  0  0  0
    8.6092  -13.8408   25.6564 C   0  0  0  0  0  0  0  0  0  0  0  0
    8.9417  -15.0246   26.4092 O   0  0  0  0  0  0  0  0  0  0  0  0
    8.5899  -16.1280   25.7881 N   0  0  0  0  0  0  0  0  0  0  0  0
    9.5592  -15.2146   27.6489 C   0  0  0  0  0  0  0  0  0  0  0  0
    9.3392  -14.3589   28.8307 C   0  0  0  0  0  0  0  0  0  0  0  0
   10.7504  -14.1635   29.3710 C   0  0  0  0  0  0  0  0  0  0  0  0
   11.3383  -15.5425   29.2014 C   0  0  1  0  0  0  0  0  0  0  0  0
   10.4698  -16.2171   28.1303 C   0  0  0  0  0  0  0  0  0  0  0  0
    9.7491  -17.3137   28.8465 O   0  0  0  0  0  0  0  0  0  0  0  0
   10.3635  -18.4959   29.1896 O   0  0  0  0  0  0  0  0  0  0  0  0
  2  1  1  0
  3  2  2  0
  4  2  1  0
  5  4  1  0
  6  5  1  0
  6  7  1  0
  7  8  1  0
  8  9  1  6
 10  8  1  0
 11 10  2  0
 12 16  1  0
 12 10  1  0
 13 14  1  0
 13 12  1  0
 14 15  1  0
 15 16  1  0
 17 19  1  0
 16 17  1  6
 18 17  2  0
 19 20  1  0
 20 21  1  0
 22 21  1  0
 23 19  1  0
 23 22  1  0
 24 25  1  0
 23 24  1  1
 26 24  2  0
M  END
$$$$
