RPP.pdb
     RDKit          3D

 26 27  0  0  1  0  0  0  0  0999 V2000
    9.4593  -13.7261   18.2989 N   0  0  0  0  0  0  0  0  0  0  0  0
    8.9596  -12.8991   19.3343 C   0  0  0  0  0  0  0  0  0  0  0  0
    9.6112  -11.8849   19.7924 N   0  0  0  0  0  0  0  0  0  0  0  0
    7.6659  -13.1932   19.9108 N   0  0  0  0  0  0  0  0  0  0  0  0
    6.9716  -14.3982   19.5384 C   0  0  0  0  0  0  0  0  0  0  0  0
    7.1596  -15.4286   20.6147 C   0  0  0  0  0  0  0  0  0  0  0  0
    6.2380  -16.5813   20.4624 C   0  0  0  0  0  0  0  0  0  0  0  0
    6.4308  -17.6140   21.5250 C   0  0  2  0  0  0  0  0  0  0  0  0
    5.4198  -18.6500   21.3668 N   0  0  0  0  0  0  0  0  0  0  0  0
    6.3472  -16.9771   22.8573 C   0  0  0  0  0  0  0  0  0  0  0  0
    5.3441  -16.2453   23.1134 O   0  0  0  0  0  0  0  0  0  0  0  0
    9.1749  -11.2808   20.5095 N   0  0  0  0  0  0  0  0  0  0  0  0
    7.3650  -17.2003   23.8094 C   0  0  0  0  0  0  0  0  0  0  0  0
    8.5028  -18.1254   23.6925 C   0  0  0  0  0  0  0  0  0  0  0  0
    8.4088  -18.7321   25.1076 C   0  0  0  0  0  0  0  0  0  0  0  0
    8.2889  -17.4973   25.9480 C   0  0  2  0  0  0  0  0  0  0  0  0
    7.4201  -16.5776   25.1034 C   0  0  0  0  0  0  0  0  0  0  0  0
    7.8466  -15.2014   25.1569 O   0  0  0  0  0  0  0  0  0  0  0  0
    8.6719  -14.8948   24.1811 N   0  0  0  0  0  0  0  0  0  0  0  0
    7.5497  -14.1525   26.0322 C   0  0  0  0  0  0  0  0  0  0  0  0
    6.4939  -14.1986   27.0619 C   0  0  0  0  0  0  0  0  0  0  0  0
    5.8280  -12.8354   26.9210 C   0  0  0  0  0  0  0  0  0  0  0  0
    7.0183  -11.9315   26.7155 C   0  0  1  0  0  0  0  0  0  0  0  0
    8.1395  -12.8553   26.2196 C   0  0  0  0  0  0  0  0  0  0  0  0
    9.1508  -12.8669   27.3206 O   0  0  0  0  0  0  0  0  0  0  0  0
   10.0548  -11.8454   27.4994 O   0  0  0  0  0  0  0  0  0  0  0  0
  2  1  1  0
  3  2  2  0
  4  2  1  0
  5  4  1  0
  6  5  1  0
  6  7  1  0
  7  8  1  0
  8  9  1  1
 10  8  1  0
 11 10  2  0
 12 16  1  0
 12 10  1  0
 13 14  1  0
 13 12  1  0
 14 15  1  0
 15 16  1  0
 17 19  1  0
 16 17  1  1
 18 17  2  0
 19 20  1  0
 20 21  1  0
 22 21  1  0
 23 19  1  0
 23 22  1  0
 24 25  1  0
 23 24  1  1
 26 24  2  0
M  END
$$$$
