RPP.pdb
     RDKit          3D

 26 27  0  0  1  0  0  0  0  0999 V2000
    8.0290  -15.5258   17.6200 N   0  0  0  0  0  0  0  0  0  0  0  0
    7.6174  -14.2178   17.2662 C   0  0  0  0  0  0  0  0  0  0  0  0
    7.3749  -13.8684   16.0488 N   0  0  0  0  0  0  0  0  0  0  0  0
    7.4588  -13.2225   18.3039 N   0  0  0  0  0  0  0  0  0  0  0  0
    6.6702  -13.5218   19.4706 C   0  0  0  0  0  0  0  0  0  0  0  0
    7.1019  -14.8462   20.0316 C   0  0  0  0  0  0  0  0  0  0  0  0
    7.3826  -14.7804   21.4871 C   0  0  0  0  0  0  0  0  0  0  0  0
    8.2765  -13.6386   21.8478 C   0  0  2  0  0  0  0  0  0  0  0  0
    9.3646  -13.5666   20.8829 N   0  0  0  0  0  0  0  0  0  0  0  0
    8.7865  -13.8230   23.2239 C   0  0  0  0  0  0  0  0  0  0  0  0
   10.0341  -13.9772   23.3885 O   0  0  0  0  0  0  0  0  0  0  0  0
    7.1345  -12.8846   15.8395 N   0  0  0  0  0  0  0  0  0  0  0  0
    7.8900  -13.8135   24.3141 C   0  0  0  0  0  0  0  0  0  0  0  0
    6.4202  -13.8331   24.2552 C   0  0  0  0  0  0  0  0  0  0  0  0
    6.1669  -12.7361   25.3097 C   0  0  0  0  0  0  0  0  0  0  0  0
    7.0652  -13.1858   26.4214 C   0  0  1  0  0  0  0  0  0  0  0  0
    8.2859  -13.7273   25.6929 C   0  0  0  0  0  0  0  0  0  0  0  0
    8.8176  -14.9202   26.3036 O   0  0  0  0  0  0  0  0  0  0  0  0
    8.5902  -15.9954   25.5831 N   0  0  0  0  0  0  0  0  0  0  0  0
    9.5188  -15.1421   27.4925 C   0  0  0  0  0  0  0  0  0  0  0  0
    9.3247  -14.3669   28.7328 C   0  0  0  0  0  0  0  0  0  0  0  0
   10.7534  -14.1201   29.2015 C   0  0  0  0  0  0  0  0  0  0  0  0
   11.4042  -15.4513   28.9180 C   0  0  1  0  0  0  0  0  0  0  0  0
   10.5103  -16.1151   27.8612 C   0  0  0  0  0  0  0  0  0  0  0  0
    9.8953  -17.2894   28.5526 O   0  0  0  0  0  0  0  0  0  0  0  0
    8.5569  -17.3394   28.8670 O   0  0  0  0  0  0  0  0  0  0  0  0
  2  1  1  0
  3  2  2  0
  4  2  1  0
  5  4  1  0
  6  5  1  0
  6  7  1  0
  7  8  1  0
  8  9  1  6
 10  8  1  0
 11 10  2  0
 12 16  1  0
 12 10  1  0
 13 14  1  0
 13 12  1  0
 14 15  1  0
 15 16  1  0
 17 19  1  0
 16 17  1  6
 18 17  2  0
 19 20  1  0
 20 21  1  0
 22 21  1  0
 23 19  1  0
 23 22  1  0
 24 25  1  0
 23 24  1  1
 26 24  2  0
M  END
$$$$
