RPP.pdb
     RDKit          3D

 26 27  0  0  1  0  0  0  0  0999 V2000
   12.5271  -17.2477   21.7666 N   0  0  0  0  0  0  0  0  0  0  0  0
   11.7404  -18.3799   21.4433 C   0  0  0  0  0  0  0  0  0  0  0  0
   12.1495  -19.5890   21.6272 N   0  0  0  0  0  0  0  0  0  0  0  0
   10.4211  -18.1863   20.8826 N   0  0  0  0  0  0  0  0  0  0  0  0
    9.3534  -17.6940   21.7135 C   0  0  0  0  0  0  0  0  0  0  0  0
    8.6244  -16.6019   20.9846 C   0  0  0  0  0  0  0  0  0  0  0  0
    7.5511  -15.9908   21.8068 C   0  0  0  0  0  0  0  0  0  0  0  0
    7.6269  -14.4987   21.8316 C   0  0  2  0  0  0  0  0  0  0  0  0
    8.2882  -14.0383   20.6188 N   0  0  0  0  0  0  0  0  0  0  0  0
    8.3530  -14.0585   23.0427 C   0  0  0  0  0  0  0  0  0  0  0  0
    9.5779  -13.7509   22.9324 O   0  0  0  0  0  0  0  0  0  0  0  0
   11.5323  -20.3795   21.3751 N   0  0  0  0  0  0  0  0  0  0  0  0
    7.6769  -13.9799   24.2793 C   0  0  0  0  0  0  0  0  0  0  0  0
    6.2339  -14.1433   24.5142 C   0  0  0  0  0  0  0  0  0  0  0  0
    6.0511  -12.9380   25.4594 C   0  0  0  0  0  0  0  0  0  0  0  0
    7.1847  -13.1431   26.4177 C   0  0  2  0  0  0  0  0  0  0  0  0
    8.3060  -13.6658   25.5325 C   0  0  0  0  0  0  0  0  0  0  0  0
    9.0772  -14.7075   26.1643 O   0  0  0  0  0  0  0  0  0  0  0  0
    9.2034  -15.7697   25.4009 N   0  0  0  0  0  0  0  0  0  0  0  0
    9.7061  -14.7957   27.4096 C   0  0  0  0  0  0  0  0  0  0  0  0
    9.3885  -13.9379   28.5675 C   0  0  0  0  0  0  0  0  0  0  0  0
   10.7674  -13.5750   29.1046 C   0  0  0  0  0  0  0  0  0  0  0  0
   11.5033  -14.8854   28.9732 C   0  0  1  0  0  0  0  0  0  0  0  0
   10.7186  -15.6793   27.9194 C   0  0  0  0  0  0  0  0  0  0  0  0
   10.1188  -16.8287   28.6638 O   0  0  0  0  0  0  0  0  0  0  0  0
   10.8509  -17.9389   29.0162 O   0  0  0  0  0  0  0  0  0  0  0  0
  2  1  1  0
  3  2  2  0
  4  2  1  0
  5  4  1  0
  6  5  1  0
  6  7  1  0
  7  8  1  0
  8  9  1  6
 10  8  1  0
 11 10  2  0
 12 16  1  0
 12 10  1  0
 13 14  1  0
 13 12  1  0
 14 15  1  0
 15 16  1  0
 17 19  1  0
 16 17  1  1
 18 17  2  0
 19 20  1  0
 20 21  1  0
 22 21  1  0
 23 19  1  0
 23 22  1  0
 24 25  1  0
 23 24  1  1
 26 24  2  0
M  END
$$$$
