RPP.pdb
     RDKit          3D

 26 27  0  0  1  0  0  0  0  0999 V2000
    9.5750  -13.3593   17.6195 N   0  0  0  0  0  0  0  0  0  0  0  0
    8.5906  -13.3423   18.6375 C   0  0  0  0  0  0  0  0  0  0  0  0
    8.3896  -12.3190   19.3961 N   0  0  0  0  0  0  0  0  0  0  0  0
    7.7697  -14.5150   18.8456 N   0  0  0  0  0  0  0  0  0  0  0  0
    6.7370  -14.4994   19.8485 C   0  0  0  0  0  0  0  0  0  0  0  0
    6.9855  -15.6086   20.8299 C   0  0  0  0  0  0  0  0  0  0  0  0
    5.9643  -16.6814   20.7426 C   0  0  0  0  0  0  0  0  0  0  0  0
    6.1528  -17.7387   21.7815 C   0  0  2  0  0  0  0  0  0  0  0  0
    5.0658  -18.7021   21.6788 N   0  0  0  0  0  0  0  0  0  0  0  0
    6.1967  -17.1152   23.1221 C   0  0  0  0  0  0  0  0  0  0  0  0
    5.2156  -16.3993   23.4860 O   0  0  0  0  0  0  0  0  0  0  0  0
    7.7447  -12.4002   20.2005 N   0  0  0  0  0  0  0  0  0  0  0  0
    7.3084  -17.3333   23.9639 C   0  0  0  0  0  0  0  0  0  0  0  0
    8.4267  -18.2615   23.7354 C   0  0  0  0  0  0  0  0  0  0  0  0
    8.4808  -18.8576   25.1571 C   0  0  0  0  0  0  0  0  0  0  0  0
    8.4510  -17.6164   25.9961 C   0  0  2  0  0  0  0  0  0  0  0  0
    7.4995  -16.7013   25.2403 C   0  0  0  0  0  0  0  0  0  0  0  0
    7.9308  -15.3255   25.2385 O   0  0  0  0  0  0  0  0  0  0  0  0
    8.6735  -15.0352   24.1939 N   0  0  0  0  0  0  0  0  0  0  0  0
    7.7083  -14.2634   26.1199 C   0  0  0  0  0  0  0  0  0  0  0  0
    6.7997  -14.3191   27.2811 C   0  0  0  0  0  0  0  0  0  0  0  0
    6.0652  -12.9868   27.1968 C   0  0  0  0  0  0  0  0  0  0  0  0
    7.1797  -12.0449   26.8138 C   0  0  1  0  0  0  0  0  0  0  0  0
    8.2633  -12.9398   26.1962 C   0  0  0  0  0  0  0  0  0  0  0  0
    9.4101  -12.8808   27.1536 O   0  0  0  0  0  0  0  0  0  0  0  0
   10.3210  -11.8498   27.1471 O   0  0  0  0  0  0  0  0  0  0  0  0
  2  1  1  0
  3  2  2  0
  4  2  1  0
  5  4  1  0
  6  5  1  0
  6  7  1  0
  7  8  1  0
  8  9  1  1
 10  8  1  0
 11 10  2  0
 12 16  1  0
 12 10  1  0
 13 14  1  0
 13 12  1  0
 14 15  1  0
 15 16  1  0
 17 19  1  0
 16 17  1  6
 18 17  2  0
 19 20  1  0
 20 21  1  0
 22 21  1  0
 23 19  1  0
 23 22  1  0
 24 25  1  0
 23 24  1  1
 26 24  2  0
M  END
$$$$
