RPP.pdb
     RDKit          3D

 26 27  0  0  1  0  0  0  0  0999 V2000
   12.7874  -14.6764   19.7808 N   0  0  0  0  0  0  0  0  0  0  0  0
   11.9739  -15.4221   18.8932 C   0  0  0  0  0  0  0  0  0  0  0  0
   12.2315  -15.5288   17.6342 N   0  0  0  0  0  0  0  0  0  0  0  0
   10.8023  -16.0970   19.4074 N   0  0  0  0  0  0  0  0  0  0  0  0
   10.0417  -15.5015   20.4748 C   0  0  0  0  0  0  0  0  0  0  0  0
    8.6833  -16.1396   20.5283 C   0  0  0  0  0  0  0  0  0  0  0  0
    7.8907  -15.6872   21.6981 C   0  0  0  0  0  0  0  0  0  0  0  0
    7.9762  -14.2108   21.9125 C   0  0  2  0  0  0  0  0  0  0  0  0
    8.7270  -13.6162   20.8156 N   0  0  0  0  0  0  0  0  0  0  0  0
    8.6166  -13.9348   23.2169 C   0  0  0  0  0  0  0  0  0  0  0  0
    9.8760  -13.7939   23.2521 O   0  0  0  0  0  0  0  0  0  0  0  0
   11.5375  -15.9713   17.0080 N   0  0  0  0  0  0  0  0  0  0  0  0
    7.8251  -13.8245   24.3804 C   0  0  0  0  0  0  0  0  0  0  0  0
    6.3578  -13.8889   24.4655 C   0  0  0  0  0  0  0  0  0  0  0  0
    6.1630  -12.6858   25.4110 C   0  0  0  0  0  0  0  0  0  0  0  0
    7.1762  -12.9823   26.4744 C   0  0  1  0  0  0  0  0  0  0  0  0
    8.3433  -13.5713   25.6966 C   0  0  0  0  0  0  0  0  0  0  0  0
    8.9727  -14.6726   26.3821 O   0  0  0  0  0  0  0  0  0  0  0  0
    8.8833  -15.7978   25.7092 N   0  0  0  0  0  0  0  0  0  0  0  0
    9.6497  -14.7647   27.6017 C   0  0  0  0  0  0  0  0  0  0  0  0
    9.4334  -13.8594   28.7467 C   0  0  0  0  0  0  0  0  0  0  0  0
   10.8532  -13.5641   29.2141 C   0  0  0  0  0  0  0  0  0  0  0  0
   11.5059  -14.9186   29.0896 C   0  0  1  0  0  0  0  0  0  0  0  0
   10.6311  -15.6925   28.0934 C   0  0  0  0  0  0  0  0  0  0  0  0
    9.9995  -16.7846   28.8956 O   0  0  0  0  0  0  0  0  0  0  0  0
   10.6910  -17.9112   29.2766 O   0  0  0  0  0  0  0  0  0  0  0  0
  2  1  1  0
  3  2  2  0
  4  2  1  0
  5  4  1  0
  6  5  1  0
  6  7  1  0
  7  8  1  0
  8  9  1  6
 10  8  1  0
 11 10  2  0
 12 16  1  0
 12 10  1  0
 13 14  1  0
 13 12  1  0
 14 15  1  0
 15 16  1  0
 17 19  1  0
 16 17  1  1
 18 17  2  0
 19 20  1  0
 20 21  1  0
 22 21  1  0
 23 19  1  0
 23 22  1  0
 24 25  1  0
 23 24  1  1
 26 24  2  0
M  END
$$$$
