RPP.pdb
     RDKit          3D

 26 27  0  0  1  0  0  0  0  0999 V2000
    8.4568  -12.5133   17.1631 N   0  0  0  0  0  0  0  0  0  0  0  0
    8.6072  -13.7855   17.7669 C   0  0  0  0  0  0  0  0  0  0  0  0
    8.4240  -14.8884   17.1242 N   0  0  0  0  0  0  0  0  0  0  0  0
    8.9816  -13.8652   19.1619 N   0  0  0  0  0  0  0  0  0  0  0  0
    9.3489  -15.1338   19.7349 C   0  0  0  0  0  0  0  0  0  0  0  0
    8.1085  -15.8460   20.1930 C   0  0  0  0  0  0  0  0  0  0  0  0
    8.4095  -17.1410   20.8515 C   0  0  0  0  0  0  0  0  0  0  0  0
    7.2049  -17.7542   21.4883 C   0  0  2  0  0  0  0  0  0  0  0  0
    6.1246  -17.7979   20.5129 N   0  0  0  0  0  0  0  0  0  0  0  0
    6.8220  -16.9709   22.6832 C   0  0  0  0  0  0  0  0  0  0  0  0
    6.1274  -15.9230   22.5194 O   0  0  0  0  0  0  0  0  0  0  0  0
    8.4499  -15.7866   17.6362 N   0  0  0  0  0  0  0  0  0  0  0  0
    7.2216  -17.4030   23.9660 C   0  0  0  0  0  0  0  0  0  0  0  0
    7.8612  -18.6815   24.3130 C   0  0  0  0  0  0  0  0  0  0  0  0
    7.0027  -19.0000   25.5544 C   0  0  0  0  0  0  0  0  0  0  0  0
    7.0574  -17.6959   26.2904 C   0  0  2  0  0  0  0  0  0  0  0  0
    7.0111  -16.6596   25.1777 C   0  0  0  0  0  0  0  0  0  0  0  0
    7.8811  -15.5365   25.4236 O   0  0  0  0  0  0  0  0  0  0  0  0
    9.0194  -15.6335   24.7740 N   0  0  0  0  0  0  0  0  0  0  0  0
    7.7419  -14.3854   26.2047 C   0  0  0  0  0  0  0  0  0  0  0  0
    6.5162  -14.0193   26.9401 C   0  0  0  0  0  0  0  0  0  0  0  0
    6.3812  -12.5302   26.6472 C   0  0  0  0  0  0  0  0  0  0  0  0
    7.8130  -12.0657   26.7491 C   0  0  1  0  0  0  0  0  0  0  0  0
    8.6580  -13.3302   26.5408 C   0  0  0  0  0  0  0  0  0  0  0  0
    9.3201  -13.5782   27.8581 O   0  0  0  0  0  0  0  0  0  0  0  0
   10.4725  -12.9285   28.2356 O   0  0  0  0  0  0  0  0  0  0  0  0
  2  1  1  0
  3  2  2  0
  4  2  1  0
  5  4  1  0
  6  5  1  0
  6  7  1  0
  7  8  1  0
  8  9  1  6
 10  8  1  0
 11 10  2  0
 12 16  1  0
 12 10  1  0
 13 14  1  0
 13 12  1  0
 14 15  1  0
 15 16  1  0
 17 19  1  0
 16 17  1  1
 18 17  2  0
 19 20  1  0
 20 21  1  0
 22 21  1  0
 23 19  1  0
 23 22  1  0
 24 25  1  0
 23 24  1  1
 26 24  2  0
M  END
$$$$
