RPP.pdb
     RDKit          3D

 26 27  0  0  1  0  0  0  0  0999 V2000
    6.7513  -21.9705   22.7193 N   0  0  0  0  0  0  0  0  0  0  0  0
    6.3299  -20.8669   21.9382 C   0  0  0  0  0  0  0  0  0  0  0  0
    5.0869  -20.5757   21.7561 N   0  0  0  0  0  0  0  0  0  0  0  0
    7.3248  -20.0233   21.3131 N   0  0  0  0  0  0  0  0  0  0  0  0
    6.9898  -18.6735   20.9410 C   0  0  0  0  0  0  0  0  0  0  0  0
    7.0078  -17.8051   22.1662 C   0  0  0  0  0  0  0  0  0  0  0  0
    8.2713  -17.0389   22.2988 C   0  0  0  0  0  0  0  0  0  0  0  0
    8.0805  -15.5743   22.0719 C   0  0  2  0  0  0  0  0  0  0  0  0
    8.6943  -15.2081   20.8033 N   0  0  0  0  0  0  0  0  0  0  0  0
    8.6717  -14.8166   23.1963 C   0  0  0  0  0  0  0  0  0  0  0  0
    9.8926  -14.4834   23.1223 O   0  0  0  0  0  0  0  0  0  0  0  0
    4.8344  -19.7777   21.1488 N   0  0  0  0  0  0  0  0  0  0  0  0
    7.8754  -14.4740   24.3102 C   0  0  0  0  0  0  0  0  0  0  0  0
    6.4086  -14.5341   24.4052 C   0  0  0  0  0  0  0  0  0  0  0  0
    6.1990  -13.1623   25.0787 C   0  0  0  0  0  0  0  0  0  0  0  0
    7.2116  -13.2200   26.1816 C   0  0  2  0  0  0  0  0  0  0  0  0
    8.3869  -13.9464   25.5452 C   0  0  0  0  0  0  0  0  0  0  0  0
    9.0248  -14.8739   26.4461 O   0  0  0  0  0  0  0  0  0  0  0  0
    9.0109  -16.1058   25.9888 N   0  0  0  0  0  0  0  0  0  0  0  0
    9.6459  -14.7108   27.6878 C   0  0  0  0  0  0  0  0  0  0  0  0
    9.2776  -13.6787   28.6760 C   0  0  0  0  0  0  0  0  0  0  0  0
   10.6328  -13.1606   29.1413 C   0  0  0  0  0  0  0  0  0  0  0  0
   11.4312  -14.4366   29.2436 C   0  0  1  0  0  0  0  0  0  0  0  0
   10.6946  -15.4407   28.3460 C   0  0  0  0  0  0  0  0  0  0  0  0
   10.1433  -16.4686   29.2813 O   0  0  0  0  0  0  0  0  0  0  0  0
   10.9284  -17.4502   29.8405 O   0  0  0  0  0  0  0  0  0  0  0  0
  2  1  1  0
  3  2  2  0
  4  2  1  0
  5  4  1  0
  6  5  1  0
  6  7  1  0
  7  8  1  0
  8  9  1  6
 10  8  1  0
 11 10  2  0
 12 16  1  0
 12 10  1  0
 13 14  1  0
 13 12  1  0
 14 15  1  0
 15 16  1  0
 17 19  1  0
 16 17  1  1
 18 17  2  0
 19 20  1  0
 20 21  1  0
 22 21  1  0
 23 19  1  0
 23 22  1  0
 24 25  1  0
 23 24  1  1
 26 24  2  0
M  END
$$$$
