RPP.pdb
     RDKit          3D

 26 27  0  0  1  0  0  0  0  0999 V2000
    7.4944  -17.0936   13.7650 N   0  0  0  0  0  0  0  0  0  0  0  0
    8.1281  -15.9101   14.2163 C   0  0  0  0  0  0  0  0  0  0  0  0
    8.2438  -14.8572   13.4808 N   0  0  0  0  0  0  0  0  0  0  0  0
    8.6726  -15.8674   15.5557 N   0  0  0  0  0  0  0  0  0  0  0  0
    8.2370  -16.8252   16.5383 C   0  0  0  0  0  0  0  0  0  0  0  0
    8.8387  -16.4752   17.8691 C   0  0  0  0  0  0  0  0  0  0  0  0
   10.3024  -16.7144   17.9092 C   0  0  0  0  0  0  0  0  0  0  0  0
   11.0463  -15.6064   18.5813 C   0  0  2  0  0  0  0  0  0  0  0  0
   12.4652  -15.9332   18.6015 N   0  0  0  0  0  0  0  0  0  0  0  0
   10.5178  -15.4116   19.9490 C   0  0  0  0  0  0  0  0  0  0  0  0
   11.2016  -15.8416   20.9261 O   0  0  0  0  0  0  0  0  0  0  0  0
    8.8312  -14.0707   13.8061 N   0  0  0  0  0  0  0  0  0  0  0  0
    9.2851  -14.7510   20.1399 C   0  0  0  0  0  0  0  0  0  0  0  0
    8.3134  -14.3678   19.1040 C   0  0  0  0  0  0  0  0  0  0  0  0
    8.0324  -12.9403   19.6168 C   0  0  0  0  0  0  0  0  0  0  0  0
    7.7955  -13.1944   21.0744 C   0  0  2  0  0  0  0  0  0  0  0  0
    8.7973  -14.2889   21.4102 C   0  0  0  0  0  0  0  0  0  0  0  0
    8.2626  -15.2782   22.3124 O   0  0  0  0  0  0  0  0  0  0  0  0
    7.9706  -16.4054   21.7032 N   0  0  0  0  0  0  0  0  0  0  0  0
    8.0055  -15.2644   23.6865 C   0  0  0  0  0  0  0  0  0  0  0  0
    7.8664  -14.0394   24.4972 C   0  0  0  0  0  0  0  0  0  0  0  0
    8.6740  -14.3699   25.7462 C   0  0  0  0  0  0  0  0  0  0  0  0
    8.2881  -15.8079   25.9903 C   0  0  1  0  0  0  0  0  0  0  0  0
    7.7759  -16.3185   24.6363 C   0  0  0  0  0  0  0  0  0  0  0  0
    6.3153  -16.5645   24.8395 O   0  0  0  0  0  0  0  0  0  0  0  0
    5.8377  -17.7164   25.4207 O   0  0  0  0  0  0  0  0  0  0  0  0
  2  1  1  0
  3  2  2  0
  4  2  1  0
  5  4  1  0
  6  5  1  0
  6  7  1  0
  7  8  1  0
  8  9  1  1
 10  8  1  0
 11 10  2  0
 12 16  1  0
 12 10  1  0
 13 14  1  0
 13 12  1  0
 14 15  1  0
 15 16  1  0
 17 19  1  0
 16 17  1  6
 18 17  2  0
 19 20  1  0
 20 21  1  0
 22 21  1  0
 23 19  1  0
 23 22  1  0
 24 25  1  0
 23 24  1  1
 26 24  2  0
M  END
$$$$
