RPP.pdb
     RDKit          3D

 26 27  0  0  1  0  0  0  0  0999 V2000
    7.7869  -21.4880   26.0915 N   0  0  0  0  0  0  0  0  0  0  0  0
    7.0096  -21.1270   24.9640 C   0  0  0  0  0  0  0  0  0  0  0  0
    6.0307  -21.8470   24.5325 N   0  0  0  0  0  0  0  0  0  0  0  0
    7.3160  -19.9022   24.2580 N   0  0  0  0  0  0  0  0  0  0  0  0
    8.4899  -19.1462   24.6087 C   0  0  0  0  0  0  0  0  0  0  0  0
    9.4950  -19.2520   23.4979 C   0  0  0  0  0  0  0  0  0  0  0  0
    8.9847  -18.7018   22.2180 C   0  0  0  0  0  0  0  0  0  0  0  0
    9.8941  -17.6697   21.6343 C   0  0  2  0  0  0  0  0  0  0  0  0
   11.2639  -18.1603   21.6899 N   0  0  0  0  0  0  0  0  0  0  0  0
    9.7450  -16.3994   22.3773 C   0  0  0  0  0  0  0  0  0  0  0  0
   10.6722  -16.0522   23.1691 O   0  0  0  0  0  0  0  0  0  0  0  0
    5.4860  -21.5278   23.7134 N   0  0  0  0  0  0  0  0  0  0  0  0
    8.5953  -15.6031   22.1866 C   0  0  0  0  0  0  0  0  0  0  0  0
    7.4990  -15.8400   21.2347 C   0  0  0  0  0  0  0  0  0  0  0  0
    7.3807  -14.3950   20.7078 C   0  0  0  0  0  0  0  0  0  0  0  0
    7.3567  -13.6176   21.9886 C   0  0  2  0  0  0  0  0  0  0  0  0
    8.3352  -14.3702   22.8776 C   0  0  0  0  0  0  0  0  0  0  0  0
    7.8909  -14.4607   24.2462 O   0  0  0  0  0  0  0  0  0  0  0  0
    7.8060  -15.7039   24.6637 N   0  0  0  0  0  0  0  0  0  0  0  0
    7.5442  -13.4933   25.1940 C   0  0  0  0  0  0  0  0  0  0  0  0
    7.4411  -12.0485   24.9124 C   0  0  0  0  0  0  0  0  0  0  0  0
    8.1371  -11.4217   26.1142 C   0  0  0  0  0  0  0  0  0  0  0  0
    7.6318  -12.2824   27.2455 C   0  0  1  0  0  0  0  0  0  0  0  0
    7.1753  -13.5882   26.5799 C   0  0  0  0  0  0  0  0  0  0  0  0
    5.6903  -13.6148   26.7511 O   0  0  0  0  0  0  0  0  0  0  0  0
    4.8254  -13.3958   25.7039 O   0  0  0  0  0  0  0  0  0  0  0  0
  2  1  1  0
  3  2  2  0
  4  2  1  0
  5  4  1  0
  6  5  1  0
  6  7  1  0
  7  8  1  0
  8  9  1  1
 10  8  1  0
 11 10  2  0
 12 16  1  0
 12 10  1  0
 13 14  1  0
 13 12  1  0
 14 15  1  0
 15 16  1  0
 17 19  1  0
 16 17  1  6
 18 17  2  0
 19 20  1  0
 20 21  1  0
 22 21  1  0
 23 19  1  0
 23 22  1  0
 24 25  1  0
 23 24  1  6
 26 24  2  0
M  END
$$$$
