RPP.pdb
     RDKit          3D

 26 27  0  0  1  0  0  0  0  0999 V2000
   13.4771  -17.2747   16.0568 N   0  0  0  0  0  0  0  0  0  0  0  0
   12.8833  -15.9892   16.0802 C   0  0  0  0  0  0  0  0  0  0  0  0
   11.9259  -15.6488   15.2862 N   0  0  0  0  0  0  0  0  0  0  0  0
   13.3612  -15.0078   17.0294 N   0  0  0  0  0  0  0  0  0  0  0  0
   13.1156  -15.1909   18.4361 C   0  0  0  0  0  0  0  0  0  0  0  0
   11.6582  -15.4847   18.6483 C   0  0  0  0  0  0  0  0  0  0  0  0
   11.1115  -14.8019   19.8468 C   0  0  0  0  0  0  0  0  0  0  0  0
    9.8268  -14.0921   19.5664 C   0  0  2  0  0  0  0  0  0  0  0  0
   10.0977  -12.9421   18.7152 N   0  0  0  0  0  0  0  0  0  0  0  0
    9.1968  -13.6838   20.8409 C   0  0  0  0  0  0  0  0  0  0  0  0
    9.6417  -12.6531   21.4299 O   0  0  0  0  0  0  0  0  0  0  0  0
   11.5499  -14.6862   15.3249 N   0  0  0  0  0  0  0  0  0  0  0  0
    8.1208  -14.4316   21.3655 C   0  0  0  0  0  0  0  0  0  0  0  0
    7.5251  -15.6502   20.7958 C   0  0  0  0  0  0  0  0  0  0  0  0
    6.0466  -15.2497   20.9781 C   0  0  0  0  0  0  0  0  0  0  0  0
    6.0432  -14.7837   22.4022 C   0  0  2  0  0  0  0  0  0  0  0  0
    7.3828  -14.0776   22.5467 C   0  0  0  0  0  0  0  0  0  0  0  0
    8.0124  -14.3285   23.8193 O   0  0  0  0  0  0  0  0  0  0  0  0
    9.0874  -15.0761   23.7071 N   0  0  0  0  0  0  0  0  0  0  0  0
    7.7019  -13.9305   25.1229 C   0  0  0  0  0  0  0  0  0  0  0  0
    6.4707  -13.2127   25.5053 C   0  0  0  0  0  0  0  0  0  0  0  0
    6.9890  -12.1398   26.4550 C   0  0  0  0  0  0  0  0  0  0  0  0
    8.0169  -12.9046   27.2515 C   0  0  1  0  0  0  0  0  0  0  0  0
    8.3833  -14.1107   26.3755 C   0  0  0  0  0  0  0  0  0  0  0  0
    7.8646  -15.3019   27.1152 O   0  0  0  0  0  0  0  0  0  0  0  0
    8.5735  -15.9038   28.1290 O   0  0  0  0  0  0  0  0  0  0  0  0
  2  1  1  0
  3  2  2  0
  4  2  1  0
  5  4  1  0
  6  5  1  0
  6  7  1  0
  7  8  1  0
  8  9  1  6
 10  8  1  0
 11 10  2  0
 12 16  1  0
 12 10  1  0
 13 14  1  0
 13 12  1  0
 14 15  1  0
 15 16  1  0
 17 19  1  0
 16 17  1  1
 18 17  2  0
 19 20  1  0
 20 21  1  0
 22 21  1  0
 23 19  1  0
 23 22  1  0
 24 25  1  0
 23 24  1  1
 26 24  2  0
M  END
$$$$
