RMG.pdb
     RDKit          3D

 24 23  0  0  1  0  0  0  0  0999 V2000
   26.0073  -18.4561  -18.1887 N   0  0  0  0  0  0  0  0  0  0  0  0
   25.3948  -19.7392  -17.9890 C   0  0  0  0  0  0  0  0  0  0  0  0
   25.3845  -20.6056  -18.9373 N   0  0  0  0  0  0  0  0  0  0  0  0
   24.7930  -20.0590  -16.7307 N   0  0  0  0  0  0  0  0  0  0  0  0
   24.7790  -19.0731  -15.6650 C   0  0  0  0  0  0  0  0  0  0  0  0
   25.9584  -19.3000  -14.7591 C   0  0  0  0  0  0  0  0  0  0  0  0
   25.7934  -20.4516  -13.8270 C   0  0  0  0  0  0  0  0  0  0  0  0
   26.9353  -20.5058  -12.8391 C   0  0  2  0  0  0  0  0  0  0  0  0
   27.9260  -21.3967  -13.4091 N   0  0  0  0  0  0  0  0  0  0  0  0
   26.5185  -21.0518  -11.5284 C   0  0  0  0  0  0  0  0  0  0  0  0
   26.1418  -22.2440  -11.4413 O   0  0  0  0  0  0  0  0  0  0  0  0
   24.9159  -21.5229  -18.8016 C   0  0  0  0  0  0  0  0  0  0  0  0
   28.7518  -18.7880   -5.9910 S   0  0  0  0  0  0  0  0  0  0  0  0
   27.6224  -20.0667   -5.4109 C   0  0  0  0  0  0  0  0  0  0  0  0
   26.4621  -20.5975   -6.6479 C   0  0  0  0  0  0  0  0  0  0  0  0
   26.8987  -20.3393   -8.0418 C   0  0  1  0  0  0  0  0  0  0  0  0
   25.9258  -20.6881   -9.0849 N   0  0  0  0  0  0  0  0  0  0  0  0
   26.5428  -20.2346  -10.3688 C   0  0  0  0  0  0  0  0  0  0  0  0
   24.6121  -20.0825   -9.0279 O   0  0  0  0  0  0  0  0  0  0  0  0
   24.3159  -18.9556   -9.5364 N   0  0  0  0  0  0  0  0  0  0  0  0
   23.5338  -20.7749   -8.3548 C   0  0  0  0  0  0  0  0  0  0  0  0
   22.8254  -21.8412   -9.0640 C   0  0  0  0  0  0  0  0  0  0  0  0
   21.7083  -21.2829   -9.8415 O   0  0  0  0  0  0  0  0  0  0  0  0
   20.8493  -22.1579  -10.4914 O   0  0  0  0  0  0  0  0  0  0  0  0
  1  2  1  0
  2  3  2  0
  4  5  1  0
  4  2  1  0
  6  7  1  0
  6  5  1  0
  8  7  1  0
  8  9  1  6
  8 10  1  0
 10 11  2  0
 13 14  1  0
 13 12  1  0
 16 15  1  6
 15 14  1  0
 17 16  1  0
 17 10  1  0
 18 16  1  0
 18 19  2  0
 20 18  1  0
 21 20  1  0
 22 21  1  0
 23 22  1  0
 24 22  2  0
M  END
$$$$
