RMG.pdb
     RDKit          3D

 24 23  0  0  1  0  0  0  0  0999 V2000
   22.1109  -21.1032   -9.9991 N   0  0  0  0  0  0  0  0  0  0  0  0
   22.8585  -21.2701   -8.7848 C   0  0  0  0  0  0  0  0  0  0  0  0
   22.3107  -21.8130   -7.7575 N   0  0  0  0  0  0  0  0  0  0  0  0
   24.2190  -20.8324   -8.7137 N   0  0  0  0  0  0  0  0  0  0  0  0
   24.8295  -20.1816   -9.8591 C   0  0  0  0  0  0  0  0  0  0  0  0
   26.0832  -20.9192  -10.2431 C   0  0  0  0  0  0  0  0  0  0  0  0
   26.7771  -20.3542  -11.4354 C   0  0  0  0  0  0  0  0  0  0  0  0
   25.9099  -20.4798  -12.6663 C   0  0  2  0  0  0  0  0  0  0  0  0
   26.4696  -21.5617  -13.4511 N   0  0  0  0  0  0  0  0  0  0  0  0
   25.9244  -19.2514  -13.4912 C   0  0  0  0  0  0  0  0  0  0  0  0
   25.4981  -18.1743  -13.0127 O   0  0  0  0  0  0  0  0  0  0  0  0
   22.8371  -21.8916   -6.8652 C   0  0  0  0  0  0  0  0  0  0  0  0
   30.0185  -18.8898  -18.5510 S   0  0  0  0  0  0  0  0  0  0  0  0
   29.4805  -17.1895  -18.2929 C   0  0  0  0  0  0  0  0  0  0  0  0
   27.9393  -17.0622  -17.4172 C   0  0  0  0  0  0  0  0  0  0  0  0
   27.6994  -18.1576  -16.4462 C   0  0  1  0  0  0  0  0  0  0  0  0
   26.4602  -18.0517  -15.6657 N   0  0  0  0  0  0  0  0  0  0  0  0
   26.4182  -19.2844  -14.8210 C   0  0  0  0  0  0  0  0  0  0  0  0
   25.2016  -18.0041  -16.3796 O   0  0  0  0  0  0  0  0  0  0  0  0
   24.5707  -19.0261  -16.7960 N   0  0  0  0  0  0  0  0  0  0  0  0
   24.5857  -16.7242  -16.6588 C   0  0  0  0  0  0  0  0  0  0  0  0
   23.2885  -16.6955  -17.3358 C   0  0  0  0  0  0  0  0  0  0  0  0
   23.4672  -16.4243  -18.7706 O   0  0  0  0  0  0  0  0  0  0  0  0
   24.0499  -17.4029  -19.5636 O   0  0  0  0  0  0  0  0  0  0  0  0
  1  2  1  0
  2  3  2  0
  4  5  1  0
  4  2  1  0
  6  7  1  0
  6  5  1  0
  8  7  1  0
  8  9  1  6
  8 10  1  0
 10 11  2  0
 13 14  1  0
 13 12  1  0
 16 15  1  1
 15 14  1  0
 17 16  1  0
 17 10  1  0
 18 16  1  0
 18 19  2  0
 20 18  1  0
 21 20  1  0
 22 21  1  0
 23 22  1  0
 24 22  2  0
M  END
$$$$
