RMG.pdb
     RDKit          3D

 24 23  0  0  1  0  0  0  0  0999 V2000
   25.2120  -23.2453  -17.1748 N   0  0  0  0  0  0  0  0  0  0  0  0
   25.6093  -24.1030  -16.0941 C   0  0  0  0  0  0  0  0  0  0  0  0
   25.7674  -25.3623  -16.2925 N   0  0  0  0  0  0  0  0  0  0  0  0
   25.8318  -23.5579  -14.7899 N   0  0  0  0  0  0  0  0  0  0  0  0
   25.5046  -22.1690  -14.5217 C   0  0  0  0  0  0  0  0  0  0  0  0
   26.7746  -21.3756  -14.3777 C   0  0  0  0  0  0  0  0  0  0  0  0
   27.1630  -21.1053  -12.9641 C   0  0  0  0  0  0  0  0  0  0  0  0
   25.9374  -20.9057  -12.1033 C   0  0  2  0  0  0  0  0  0  0  0  0
   25.5996  -19.4995  -12.1942 N   0  0  0  0  0  0  0  0  0  0  0  0
   26.1901  -21.2321  -10.6822 C   0  0  0  0  0  0  0  0  0  0  0  0
   26.5501  -22.3894  -10.3631 O   0  0  0  0  0  0  0  0  0  0  0  0
   25.9166  -26.0030  -15.4884 C   0  0  0  0  0  0  0  0  0  0  0  0
   29.6704  -19.2143   -6.1768 S   0  0  0  0  0  0  0  0  0  0  0  0
   28.1453  -19.0326   -5.2345 C   0  0  0  0  0  0  0  0  0  0  0  0
   26.7298  -19.7458   -6.0384 C   0  0  0  0  0  0  0  0  0  0  0  0
   26.7558  -19.6446   -7.5180 C   0  0  1  0  0  0  0  0  0  0  0  0
   25.9151  -20.6128   -8.2337 N   0  0  0  0  0  0  0  0  0  0  0  0
   26.0278  -20.2431   -9.6778 C   0  0  0  0  0  0  0  0  0  0  0  0
   24.4996  -20.6477   -7.9315 O   0  0  0  0  0  0  0  0  0  0  0  0
   23.6565  -19.7842   -8.3308 N   0  0  0  0  0  0  0  0  0  0  0  0
   23.9675  -21.7229   -7.1216 C   0  0  0  0  0  0  0  0  0  0  0  0
   22.5287  -21.7643   -6.8566 C   0  0  0  0  0  0  0  0  0  0  0  0
   22.2600  -21.4475   -5.4454 O   0  0  0  0  0  0  0  0  0  0  0  0
   20.9553  -21.5387   -4.9815 O   0  0  0  0  0  0  0  0  0  0  0  0
  1  2  1  0
  2  3  2  0
  4  5  1  0
  4  2  1  0
  6  7  1  0
  6  5  1  0
  8  7  1  0
  8  9  1  1
  8 10  1  0
 10 11  2  0
 13 14  1  0
 13 12  1  0
 16 15  1  6
 15 14  1  0
 17 16  1  0
 17 10  1  0
 18 16  1  0
 18 19  2  0
 20 18  1  0
 21 20  1  0
 22 21  1  0
 23 22  1  0
 24 22  2  0
M  END
$$$$
