RMG.pdb
     RDKit          3D

 24 23  0  0  1  0  0  0  0  0999 V2000
   26.9204  -20.0589  -18.3956 N   0  0  0  0  0  0  0  0  0  0  0  0
   26.2258  -21.2854  -18.1221 C   0  0  0  0  0  0  0  0  0  0  0  0
   25.9771  -22.1135  -19.0721 N   0  0  0  0  0  0  0  0  0  0  0  0
   25.8079  -21.5913  -16.7882 N   0  0  0  0  0  0  0  0  0  0  0  0
   25.8604  -20.5662  -15.7614 C   0  0  0  0  0  0  0  0  0  0  0  0
   27.2438  -20.5200  -15.1720 C   0  0  0  0  0  0  0  0  0  0  0  0
   27.3185  -21.0029  -13.7636 C   0  0  0  0  0  0  0  0  0  0  0  0
   26.0292  -20.7130  -13.0314 C   0  0  2  0  0  0  0  0  0  0  0  0
   25.8090  -19.2851  -13.1426 N   0  0  0  0  0  0  0  0  0  0  0  0
   26.1086  -21.0606  -11.5952 C   0  0  0  0  0  0  0  0  0  0  0  0
   26.3419  -22.2433  -11.2523 O   0  0  0  0  0  0  0  0  0  0  0  0
   25.4714  -22.9992  -18.8740 C   0  0  0  0  0  0  0  0  0  0  0  0
   27.9788  -19.4937   -4.2870 S   0  0  0  0  0  0  0  0  0  0  0  0
   27.9716  -19.1285   -6.0516 C   0  0  0  0  0  0  0  0  0  0  0  0
   26.6938  -19.9828   -6.9438 C   0  0  0  0  0  0  0  0  0  0  0  0
   26.7634  -19.8144   -8.4159 C   0  0  1  0  0  0  0  0  0  0  0  0
   25.6653  -20.4254   -9.1756 N   0  0  0  0  0  0  0  0  0  0  0  0
   25.9226  -20.0635  -10.6031 C   0  0  0  0  0  0  0  0  0  0  0  0
   24.3116  -20.0020   -8.8857 O   0  0  0  0  0  0  0  0  0  0  0  0
   23.6624  -19.1480   -9.5679 N   0  0  0  0  0  0  0  0  0  0  0  0
   23.6137  -20.5655   -7.7496 C   0  0  0  0  0  0  0  0  0  0  0  0
   22.6897  -21.6793   -7.9677 C   0  0  0  0  0  0  0  0  0  0  0  0
   22.0963  -22.1079   -6.6916 O   0  0  0  0  0  0  0  0  0  0  0  0
   21.1225  -23.0965   -6.7113 O   0  0  0  0  0  0  0  0  0  0  0  0
  1  2  1  0
  2  3  2  0
  4  5  1  0
  4  2  1  0
  6  7  1  0
  6  5  1  0
  8  7  1  0
  8  9  1  1
  8 10  1  0
 10 11  2  0
 13 14  1  0
 13 12  1  0
 16 15  1  6
 15 14  1  0
 17 16  1  0
 17 10  1  0
 18 16  1  0
 18 19  2  0
 20 18  1  0
 21 20  1  0
 22 21  1  0
 23 22  1  0
 24 22  2  0
M  END
$$$$
