RMG.pdb
     RDKit          3D

 24 23  0  0  1  0  0  0  0  0999 V2000
   22.0606  -19.9644  -16.3256 N   0  0  0  0  0  0  0  0  0  0  0  0
   20.9800  -20.1872  -15.4069 C   0  0  0  0  0  0  0  0  0  0  0  0
   19.9509  -20.8644  -15.7708 N   0  0  0  0  0  0  0  0  0  0  0  0
   21.0452  -19.6557  -14.0799 N   0  0  0  0  0  0  0  0  0  0  0  0
   22.2800  -19.0626  -13.5989 C   0  0  0  0  0  0  0  0  0  0  0  0
   23.3978  -20.0610  -13.7297 C   0  0  0  0  0  0  0  0  0  0  0  0
   23.7947  -20.6981  -12.4417 C   0  0  0  0  0  0  0  0  0  0  0  0
   25.2484  -20.4222  -12.1362 C   0  0  2  0  0  0  0  0  0  0  0  0
   26.0160  -21.0877  -13.1696 N   0  0  0  0  0  0  0  0  0  0  0  0
   25.6606  -20.9709  -10.8250 C   0  0  0  0  0  0  0  0  0  0  0  0
   25.8295  -22.2055  -10.6914 O   0  0  0  0  0  0  0  0  0  0  0  0
   19.1579  -21.0031  -15.1140 C   0  0  0  0  0  0  0  0  0  0  0  0
   28.8618  -19.3228   -3.8131 S   0  0  0  0  0  0  0  0  0  0  0  0
   28.4118  -18.8695   -5.4981 C   0  0  0  0  0  0  0  0  0  0  0  0
   27.2637  -19.9987   -6.2499 C   0  0  0  0  0  0  0  0  0  0  0  0
   26.9762  -19.7134   -7.6768 C   0  0  1  0  0  0  0  0  0  0  0  0
   26.0552  -20.6477   -8.3362 N   0  0  0  0  0  0  0  0  0  0  0  0
   25.8661  -20.1081   -9.7175 C   0  0  0  0  0  0  0  0  0  0  0  0
   24.7294  -20.8128   -7.7784 O   0  0  0  0  0  0  0  0  0  0  0  0
   23.7596  -20.0155   -7.9783 N   0  0  0  0  0  0  0  0  0  0  0  0
   24.4473  -21.9506   -6.9293 C   0  0  0  0  0  0  0  0  0  0  0  0
   23.1037  -22.0996   -6.3685 C   0  0  0  0  0  0  0  0  0  0  0  0
   23.0316  -21.4696   -5.0411 O   0  0  0  0  0  0  0  0  0  0  0  0
   21.8435  -21.5558   -4.3291 O   0  0  0  0  0  0  0  0  0  0  0  0
  1  2  1  0
  2  3  2  0
  4  5  1  0
  4  2  1  0
  6  7  1  0
  6  5  1  0
  8  7  1  0
  8  9  1  6
  8 10  1  0
 10 11  2  0
 13 14  1  0
 13 12  1  0
 16 15  1  6
 15 14  1  0
 17 16  1  0
 17 10  1  0
 18 16  1  0
 18 19  2  0
 20 18  1  0
 21 20  1  0
 22 21  1  0
 23 22  1  0
 24 22  2  0
M  END
$$$$
