RMG.pdb
     RDKit          3D

 24 23  0  0  1  0  0  0  0  0999 V2000
   26.8255  -20.4960  -21.0889 N   0  0  0  0  0  0  0  0  0  0  0  0
   28.2434  -20.2787  -21.0268 C   0  0  0  0  0  0  0  0  0  0  0  0
   28.7984  -19.4083  -21.7913 N   0  0  0  0  0  0  0  0  0  0  0  0
   29.0452  -21.0313  -20.1113 N   0  0  0  0  0  0  0  0  0  0  0  0
   28.4072  -21.8519  -19.0976 C   0  0  0  0  0  0  0  0  0  0  0  0
   27.2770  -21.0822  -18.4704 C   0  0  0  0  0  0  0  0  0  0  0  0
   26.5096  -21.8547  -17.4522 C   0  0  0  0  0  0  0  0  0  0  0  0
   27.1591  -21.7374  -16.0931 C   0  0  2  0  0  0  0  0  0  0  0  0
   28.2009  -22.7437  -16.0505 N   0  0  0  0  0  0  0  0  0  0  0  0
   26.2083  -22.0057  -14.9914 C   0  0  0  0  0  0  0  0  0  0  0  0
   25.6191  -23.1103  -14.9319 O   0  0  0  0  0  0  0  0  0  0  0  0
   29.8215  -19.2374  -21.7316 C   0  0  0  0  0  0  0  0  0  0  0  0
   24.9925  -20.9320   -7.4028 S   0  0  0  0  0  0  0  0  0  0  0  0
   25.9347  -20.7439   -8.9272 C   0  0  0  0  0  0  0  0  0  0  0  0
   24.9800  -21.0658  -10.3912 C   0  0  0  0  0  0  0  0  0  0  0  0
   25.7474  -20.9501  -11.6553 C   0  0  1  0  0  0  0  0  0  0  0  0
   25.0026  -21.2699  -12.8797 N   0  0  0  0  0  0  0  0  0  0  0  0
   25.9592  -21.0206  -14.0011 C   0  0  0  0  0  0  0  0  0  0  0  0
   23.8134  -20.5008  -13.1801 O   0  0  0  0  0  0  0  0  0  0  0  0
   23.7869  -19.2363  -13.3084 N   0  0  0  0  0  0  0  0  0  0  0  0
   22.5470  -21.1802  -13.3536 C   0  0  0  0  0  0  0  0  0  0  0  0
   21.3334  -20.3814  -13.5291 C   0  0  0  0  0  0  0  0  0  0  0  0
   20.6031  -20.2756  -12.2565 O   0  0  0  0  0  0  0  0  0  0  0  0
   19.2262  -20.1065  -12.2934 O   0  0  0  0  0  0  0  0  0  0  0  0
  1  2  1  0
  2  3  2  0
  4  5  1  0
  4  2  1  0
  6  7  1  0
  6  5  1  0
  8  7  1  0
  8  9  1  6
  8 10  1  0
 10 11  2  0
 13 14  1  0
 13 12  1  0
 16 15  1  1
 15 14  1  0
 17 16  1  0
 17 10  1  0
 18 16  1  0
 18 19  2  0
 20 18  1  0
 21 20  1  0
 22 21  1  0
 23 22  1  0
 24 22  2  0
M  END
$$$$
