RMG.pdb
     RDKit          3D

 24 23  0  0  1  0  0  0  0  0999 V2000
   21.0519  -27.4847  -12.3487 N   0  0  0  0  0  0  0  0  0  0  0  0
   19.9652  -28.3685  -12.0335 C   0  0  0  0  0  0  0  0  0  0  0  0
   20.0669  -29.6275  -12.2670 N   0  0  0  0  0  0  0  0  0  0  0  0
   18.7628  -27.8500  -11.4564 N   0  0  0  0  0  0  0  0  0  0  0  0
   18.7011  -26.4597  -11.0424 C   0  0  0  0  0  0  0  0  0  0  0  0
   19.3943  -26.3021   -9.7166 C   0  0  0  0  0  0  0  0  0  0  0  0
   18.4831  -26.4021   -8.5410 C   0  0  0  0  0  0  0  0  0  0  0  0
   18.0309  -25.0300   -8.0987 C   0  0  2  0  0  0  0  0  0  0  0  0
   19.0804  -24.1095   -8.4873 N   0  0  0  0  0  0  0  0  0  0  0  0
   17.8553  -24.9423   -6.6320 C   0  0  0  0  0  0  0  0  0  0  0  0
   18.8126  -24.5763   -5.9105 O   0  0  0  0  0  0  0  0  0  0  0  0
   19.2564  -30.2564  -12.1026 C   0  0  0  0  0  0  0  0  0  0  0  0
   12.4465  -21.3913   -5.3395 S   0  0  0  0  0  0  0  0  0  0  0  0
   12.8838  -23.0148   -4.6914 C   0  0  0  0  0  0  0  0  0  0  0  0
   14.6097  -23.4020   -4.8640 C   0  0  0  0  0  0  0  0  0  0  0  0
   14.9741  -24.7683   -4.4160 C   0  0  2  0  0  0  0  0  0  0  0  0
   16.3903  -25.1266   -4.5645 N   0  0  0  0  0  0  0  0  0  0  0  0
   16.6098  -25.2696   -6.0364 C   0  0  0  0  0  0  0  0  0  0  0  0
   16.8531  -26.3590   -3.9620 O   0  0  0  0  0  0  0  0  0  0  0  0
   16.9952  -27.4571   -4.5867 N   0  0  0  0  0  0  0  0  0  0  0  0
   17.1874  -26.3853   -2.5539 C   0  0  0  0  0  0  0  0  0  0  0  0
   17.6339  -27.6441   -1.9557 C   0  0  0  0  0  0  0  0  0  0  0  0
   19.1036  -27.7055   -1.9324 O   0  0  0  0  0  0  0  0  0  0  0  0
   19.7129  -28.7871   -1.3121 O   0  0  0  0  0  0  0  0  0  0  0  0
  1  2  1  0
  2  3  2  0
  4  5  1  0
  4  2  1  0
  6  7  1  0
  6  5  1  0
  8  7  1  0
  8  9  1  1
  8 10  1  0
 10 11  2  0
 13 14  1  0
 13 12  1  0
 16 15  1  6
 15 14  1  0
 17 16  1  0
 17 10  1  0
 18 16  1  0
 18 19  2  0
 20 18  1  0
 21 20  1  0
 22 21  1  0
 23 22  1  0
 24 22  2  0
M  END
$$$$
