RMG.pdb
     RDKit          3D

 24 23  0  0  1  0  0  0  0  0999 V2000
   28.2035  -18.7353  -17.7113 N   0  0  0  0  0  0  0  0  0  0  0  0
   26.8876  -18.5238  -17.1774 C   0  0  0  0  0  0  0  0  0  0  0  0
   25.8588  -18.6025  -17.9426 N   0  0  0  0  0  0  0  0  0  0  0  0
   26.7161  -18.2247  -15.7886 N   0  0  0  0  0  0  0  0  0  0  0  0
   27.8778  -18.1113  -14.9251 C   0  0  0  0  0  0  0  0  0  0  0  0
   27.6424  -18.8988  -13.6651 C   0  0  0  0  0  0  0  0  0  0  0  0
   27.8318  -20.3688  -13.8253 C   0  0  0  0  0  0  0  0  0  0  0  0
   26.6267  -21.1209  -13.3107 C   0  0  2  0  0  0  0  0  0  0  0  0
   25.4684  -20.3232  -13.6596 N   0  0  0  0  0  0  0  0  0  0  0  0
   26.6527  -21.2844  -11.8402 C   0  0  0  0  0  0  0  0  0  0  0  0
   27.4428  -22.1055  -11.3183 O   0  0  0  0  0  0  0  0  0  0  0  0
   24.9157  -18.3667  -17.5758 C   0  0  0  0  0  0  0  0  0  0  0  0
   28.9976  -20.1111   -6.8965 S   0  0  0  0  0  0  0  0  0  0  0  0
   27.4850  -19.2459   -6.4374 C   0  0  0  0  0  0  0  0  0  0  0  0
   26.0627  -19.7704   -7.3650 C   0  0  0  0  0  0  0  0  0  0  0  0
   26.2574  -19.7581   -8.8354 C   0  0  1  0  0  0  0  0  0  0  0  0
   25.5992  -20.8457   -9.5703 N   0  0  0  0  0  0  0  0  0  0  0  0
   25.7888  -20.5173  -11.0164 C   0  0  0  0  0  0  0  0  0  0  0  0
   24.1772  -21.0402   -9.3799 O   0  0  0  0  0  0  0  0  0  0  0  0
   23.2967  -20.8394  -10.2746 N   0  0  0  0  0  0  0  0  0  0  0  0
   23.6828  -21.4934   -8.0972 C   0  0  0  0  0  0  0  0  0  0  0  0
   22.4407  -22.2659   -8.0500 C   0  0  0  0  0  0  0  0  0  0  0  0
   21.3038  -21.4310   -8.4679 O   0  0  0  0  0  0  0  0  0  0  0  0
   20.0268  -21.9709   -8.4087 O   0  0  0  0  0  0  0  0  0  0  0  0
  1  2  1  0
  2  3  2  0
  4  5  1  0
  4  2  1  0
  6  7  1  0
  6  5  1  0
  8  7  1  0
  8  9  1  1
  8 10  1  0
 10 11  2  0
 13 14  1  0
 13 12  1  0
 16 15  1  6
 15 14  1  0
 17 16  1  0
 17 10  1  0
 18 16  1  0
 18 19  2  0
 20 18  1  0
 21 20  1  0
 22 21  1  0
 23 22  1  0
 24 22  2  0
M  END
$$$$
