RMG.pdb
     RDKit          3D

 24 23  0  0  1  0  0  0  0  0999 V2000
   17.7608  -20.2233  -13.8267 N   0  0  0  0  0  0  0  0  0  0  0  0
   18.1507  -19.6744  -15.0948 C   0  0  0  0  0  0  0  0  0  0  0  0
   17.5690  -20.0606  -16.1730 N   0  0  0  0  0  0  0  0  0  0  0  0
   19.1898  -18.6930  -15.1630 N   0  0  0  0  0  0  0  0  0  0  0  0
   20.4106  -18.8789  -14.3994 C   0  0  0  0  0  0  0  0  0  0  0  0
   20.5331  -20.3234  -13.9972 C   0  0  0  0  0  0  0  0  0  0  0  0
   21.5503  -20.5725  -12.9363 C   0  0  0  0  0  0  0  0  0  0  0  0
   22.8968  -20.8779  -13.5498 C   0  0  2  0  0  0  0  0  0  0  0  0
   23.0734  -22.3129  -13.4528 N   0  0  0  0  0  0  0  0  0  0  0  0
   24.0068  -20.2228  -12.8227 C   0  0  0  0  0  0  0  0  0  0  0  0
   24.0652  -18.9720  -12.7705 O   0  0  0  0  0  0  0  0  0  0  0  0
   17.8099  -19.6206  -17.0829 C   0  0  0  0  0  0  0  0  0  0  0  0
   27.4445  -19.6110   -7.0941 S   0  0  0  0  0  0  0  0  0  0  0  0
   26.0766  -20.7143   -7.4926 C   0  0  0  0  0  0  0  0  0  0  0  0
   25.4325  -20.4763   -9.1318 C   0  0  0  0  0  0  0  0  0  0  0  0
   26.2903  -21.0291  -10.2083 C   0  0  2  0  0  0  0  0  0  0  0  0
   26.1786  -20.3626  -11.5119 N   0  0  0  0  0  0  0  0  0  0  0  0
   25.0060  -21.0017  -12.1837 C   0  0  0  0  0  0  0  0  0  0  0  0
   27.2875  -20.4728  -12.4361 O   0  0  0  0  0  0  0  0  0  0  0  0
   28.4986  -20.2233  -12.1409 N   0  0  0  0  0  0  0  0  0  0  0  0
   27.0431  -20.8927  -13.7997 C   0  0  0  0  0  0  0  0  0  0  0  0
   28.1750  -20.9988  -14.7214 C   0  0  0  0  0  0  0  0  0  0  0  0
   28.0231  -22.1816  -15.5827 O   0  0  0  0  0  0  0  0  0  0  0  0
   29.0487  -22.4982  -16.4624 O   0  0  0  0  0  0  0  0  0  0  0  0
  1  2  1  0
  2  3  2  0
  4  5  1  0
  4  2  1  0
  6  7  1  0
  6  5  1  0
  8  7  1  0
  8  9  1  1
  8 10  1  0
 10 11  2  0
 13 14  1  0
 13 12  1  0
 16 15  1  1
 15 14  1  0
 17 16  1  0
 17 10  1  0
 18 16  1  0
 18 19  2  0
 20 18  1  0
 21 20  1  0
 22 21  1  0
 23 22  1  0
 24 22  2  0
M  END
$$$$
