NTY.pdb
     RDKit          3D

 28 28  0  0  1  0  0  0  0  0999 V2000
   15.3688  -17.2885   17.5388 N   0  0  0  0  0  0  0  0  0  0  0  0
   14.3427  -16.7787   16.7070 C   0  0  0  0  0  0  0  0  0  0  0  0
   14.2985  -17.1351   15.5060 O   0  0  0  0  0  0  0  0  0  0  0  0
   13.3428  -15.8395   17.2681 C   0  0  0  0  0  0  0  0  0  0  0  0
   12.1774  -16.6234   17.8252 C   0  0  2  0  0  0  0  0  0  0  0  0
   11.3800  -17.2733   16.8464 N   0  0  0  0  0  0  0  0  0  0  0  0
   11.4010  -15.7727   18.7747 C   0  0  0  0  0  0  0  0  0  0  0  0
   11.4151  -14.5356   18.6039 O   0  0  0  0  0  0  0  0  0  0  0  0
    7.8846  -15.3597   19.1396 C   0  0  0  0  0  0  0  0  0  0  0  0
    8.3411  -15.8982   20.4773 C   0  0  1  0  0  0  0  0  0  0  0  0
    8.1406  -17.2736   20.4440 O   0  0  0  0  0  0  0  0  0  0  0  0
    9.8015  -15.5464   20.7419 C   0  0  2  0  0  0  0  0  0  0  0  0
   10.6629  -16.3188   19.8429 N   0  0  0  0  0  0  0  0  0  0  0  0
   10.0902  -15.8996   22.1536 C   0  0  0  0  0  0  0  0  0  0  0  0
   10.4636  -17.0563   22.4696 O   0  0  0  0  0  0  0  0  0  0  0  0
   10.6183  -15.7290   30.9348 O   0  0  0  0  0  0  0  0  0  0  0  0
   10.4549  -15.3608   29.5945 C   0  0  0  0  0  0  0  0  0  0  0  0
   11.3548  -15.6962   28.6116 C   0  0  0  0  0  0  0  0  0  0  0  0
   11.1882  -15.3294   27.2894 C   0  0  0  0  0  0  0  0  0  0  0  0
   10.0651  -14.5964   26.9674 C   0  0  0  0  0  0  0  0  0  0  0  0
    9.8754  -14.1942   25.5516 C   0  0  0  0  0  0  0  0  0  0  0  0
   10.1086  -15.3579   24.6129 C   0  0  2  0  0  0  0  0  0  0  0  0
    9.9645  -14.9621   23.2254 N   0  0  0  0  0  0  0  0  0  0  0  0
    9.1859  -16.4796   24.8964 C   0  0  0  0  0  0  0  0  0  0  0  0
    9.5899  -17.4359   25.5950 O   0  0  0  0  0  0  0  0  0  0  0  0
    9.1608  -14.2579   27.9467 C   0  0  0  0  0  0  0  0  0  0  0  0
    9.3255  -14.6259   29.2809 C   0  0  0  0  0  0  0  0  0  0  0  0
    7.8818  -16.5372   24.4269 O   0  0  0  0  0  0  0  0  0  0  0  0
  2  1  1  0
  2  3  2  0
  4  5  1  0
  4  2  1  0
  5  7  1  0
  5  6  1  6
  7  8  2  0
 10  9  1  6
 10 11  1  0
 10 12  1  0
 12 14  1  0
 12 13  1  6
 13  7  1  0
 14 15  2  0
 14 23  1  0
 16 17  1  0
 17 18  2  0
 18 19  1  0
 20 21  1  0
 20 19  2  0
 22 21  1  1
 22 24  1  0
 23 22  1  0
 24 25  2  0
 24 28  1  0
 26 20  1  0
 27 26  2  0
 27 17  1  0
M  END
$$$$
