NTY.pdb
     RDKit          3D

 28 28  0  0  1  0  0  0  0  0999 V2000
   10.6181  -15.2588   14.4033 N   0  0  0  0  0  0  0  0  0  0  0  0
    9.7852  -16.2051   15.0479 C   0  0  0  0  0  0  0  0  0  0  0  0
    9.8130  -17.3995   14.6686 O   0  0  0  0  0  0  0  0  0  0  0  0
    8.9017  -15.7700   16.1555 C   0  0  0  0  0  0  0  0  0  0  0  0
    9.7040  -15.6882   17.4331 C   0  0  2  0  0  0  0  0  0  0  0  0
   10.5003  -16.8319   17.7055 N   0  0  0  0  0  0  0  0  0  0  0  0
    8.8184  -15.2808   18.5635 C   0  0  0  0  0  0  0  0  0  0  0  0
    8.0970  -14.2726   18.4127 O   0  0  0  0  0  0  0  0  0  0  0  0
    5.8303  -16.5002   20.2002 C   0  0  0  0  0  0  0  0  0  0  0  0
    6.9140  -16.5718   21.2530 C   0  0  1  0  0  0  0  0  0  0  0  0
    7.3864  -17.8795   21.2518 O   0  0  0  0  0  0  0  0  0  0  0  0
    8.0266  -15.5690   20.9655 C   0  0  2  0  0  0  0  0  0  0  0  0
    8.7740  -15.9921   19.7785 N   0  0  0  0  0  0  0  0  0  0  0  0
    8.9190  -15.5503   22.1505 C   0  0  0  0  0  0  0  0  0  0  0  0
    9.9067  -16.3218   22.2311 O   0  0  0  0  0  0  0  0  0  0  0  0
   11.1438  -15.1437   30.6288 O   0  0  0  0  0  0  0  0  0  0  0  0
   10.4906  -14.9575   29.4051 C   0  0  0  0  0  0  0  0  0  0  0  0
    9.5617  -15.8414   28.9111 C   0  0  0  0  0  0  0  0  0  0  0  0
    8.9199  -15.6523   27.7015 C   0  0  0  0  0  0  0  0  0  0  0  0
    9.2420  -14.5230   26.9782 C   0  0  0  0  0  0  0  0  0  0  0  0
    8.5619  -14.3092   25.6767 C   0  0  0  0  0  0  0  0  0  0  0  0
    9.3769  -14.8691   24.5313 C   0  0  2  0  0  0  0  0  0  0  0  0
    8.7154  -14.6680   23.2567 N   0  0  0  0  0  0  0  0  0  0  0  0
    9.6527  -16.3115   24.7133 C   0  0  0  0  0  0  0  0  0  0  0  0
   10.7967  -16.6700   25.0720 O   0  0  0  0  0  0  0  0  0  0  0  0
   10.1708  -13.6346   27.4676 C   0  0  0  0  0  0  0  0  0  0  0  0
   10.8199  -13.8220   28.6868 C   0  0  0  0  0  0  0  0  0  0  0  0
    8.7072  -17.3052   24.5061 O   0  0  0  0  0  0  0  0  0  0  0  0
  2  1  1  0
  2  3  2  0
  4  5  1  0
  4  2  1  0
  5  7  1  0
  5  6  1  1
  7  8  2  0
 10  9  1  6
 10 11  1  0
 10 12  1  0
 12 14  1  0
 12 13  1  6
 13  7  1  0
 14 15  2  0
 14 23  1  0
 16 17  1  0
 17 18  2  0
 18 19  1  0
 20 21  1  0
 20 19  2  0
 22 21  1  1
 22 24  1  0
 23 22  1  0
 24 25  2  0
 24 28  1  0
 26 20  1  0
 27 26  2  0
 27 17  1  0
M  END
$$$$
