NTY.pdb
     RDKit          3D

 28 28  0  0  1  0  0  0  0  0999 V2000
    3.7385  -19.1539   19.2553 N   0  0  0  0  0  0  0  0  0  0  0  0
    5.0729  -19.6228   19.3195 C   0  0  0  0  0  0  0  0  0  0  0  0
    5.2863  -20.8073   19.6700 O   0  0  0  0  0  0  0  0  0  0  0  0
    6.1881  -18.7109   18.9708 C   0  0  0  0  0  0  0  0  0  0  0  0
    7.1154  -18.5782   20.1562 C   0  0  2  0  0  0  0  0  0  0  0  0
    6.4815  -18.7075   21.4202 N   0  0  0  0  0  0  0  0  0  0  0  0
    7.9457  -17.3457   20.0157 C   0  0  0  0  0  0  0  0  0  0  0  0
    8.3912  -17.0615   18.8841 O   0  0  0  0  0  0  0  0  0  0  0  0
    6.9358  -13.8627   21.2449 C   0  0  0  0  0  0  0  0  0  0  0  0
    8.1421  -14.1734   20.3868 C   0  0  1  0  0  0  0  0  0  0  0  0
    8.8437  -12.9823   20.2375 O   0  0  0  0  0  0  0  0  0  0  0  0
    9.0030  -15.2603   21.0220 C   0  0  2  0  0  0  0  0  0  0  0  0
    8.2362  -16.5058   21.1085 N   0  0  0  0  0  0  0  0  0  0  0  0
    9.3709  -14.7921   22.3808 C   0  0  0  0  0  0  0  0  0  0  0  0
    9.0454  -13.6476   22.7828 O   0  0  0  0  0  0  0  0  0  0  0  0
    5.7642  -11.1654   26.8113 O   0  0  0  0  0  0  0  0  0  0  0  0
    6.4429  -12.3133   26.3866 C   0  0  0  0  0  0  0  0  0  0  0  0
    7.8027  -12.4673   26.5112 C   0  0  0  0  0  0  0  0  0  0  0  0
    8.4677  -13.6034   26.0895 C   0  0  0  0  0  0  0  0  0  0  0  0
    7.7143  -14.6101   25.5230 C   0  0  0  0  0  0  0  0  0  0  0  0
    8.4163  -15.8344   25.0640 C   0  0  0  0  0  0  0  0  0  0  0  0
    9.8644  -15.5467   24.7322 C   0  0  2  0  0  0  0  0  0  0  0  0
   10.1058  -15.5997   23.3034 N   0  0  0  0  0  0  0  0  0  0  0  0
   10.7773  -16.4908   25.4144 C   0  0  0  0  0  0  0  0  0  0  0  0
   10.8533  -16.4659   26.6632 O   0  0  0  0  0  0  0  0  0  0  0  0
    6.3530  -14.4619   25.3958 C   0  0  0  0  0  0  0  0  0  0  0  0
    5.6791  -13.3178   25.8198 C   0  0  0  0  0  0  0  0  0  0  0  0
   11.5664  -17.4141   24.7443 O   0  0  0  0  0  0  0  0  0  0  0  0
  2  1  1  0
  2  3  2  0
  4  5  1  0
  4  2  1  0
  5  7  1  0
  5  6  1  1
  7  8  2  0
 10  9  1  1
 10 11  1  0
 10 12  1  0
 12 14  1  0
 12 13  1  1
 13  7  1  0
 14 15  2  0
 14 23  1  0
 16 17  1  0
 17 18  2  0
 18 19  1  0
 20 21  1  0
 20 19  2  0
 22 21  1  6
 22 24  1  0
 23 22  1  0
 24 25  2  0
 24 28  1  0
 26 20  1  0
 27 26  2  0
 27 17  1  0
M  END
$$$$
