NTY.pdb
     RDKit          3D

 28 28  0  0  1  0  0  0  0  0999 V2000
    7.4606  -13.8794   15.4705 N   0  0  0  0  0  0  0  0  0  0  0  0
    7.9166  -13.2699   16.6642 C   0  0  0  0  0  0  0  0  0  0  0  0
    8.8612  -12.4478   16.6063 O   0  0  0  0  0  0  0  0  0  0  0  0
    7.2713  -13.6106   17.9543 C   0  0  0  0  0  0  0  0  0  0  0  0
    8.3238  -14.0788   18.9320 C   0  0  2  0  0  0  0  0  0  0  0  0
    9.3288  -14.9077   18.3671 N   0  0  0  0  0  0  0  0  0  0  0  0
    7.6702  -14.6557   20.1438 C   0  0  0  0  0  0  0  0  0  0  0  0
    6.7372  -14.0147   20.6712 O   0  0  0  0  0  0  0  0  0  0  0  0
    6.3169  -18.2706   20.4244 C   0  0  0  0  0  0  0  0  0  0  0  0
    7.2708  -18.0239   21.5721 C   0  0  1  0  0  0  0  0  0  0  0  0
    8.4808  -18.6107   21.2193 O   0  0  0  0  0  0  0  0  0  0  0  0
    7.4255  -16.5316   21.8468 C   0  0  2  0  0  0  0  0  0  0  0  0
    8.0707  -15.8859   20.7007 N   0  0  0  0  0  0  0  0  0  0  0  0
    8.2746  -16.3926   23.0554 C   0  0  0  0  0  0  0  0  0  0  0  0
    9.5249  -16.3153   22.9645 O   0  0  0  0  0  0  0  0  0  0  0  0
    6.5384  -10.3698   26.3995 O   0  0  0  0  0  0  0  0  0  0  0  0
    6.8353  -11.7337   26.5004 C   0  0  0  0  0  0  0  0  0  0  0  0
    5.9202  -12.6695   26.9189 C   0  0  0  0  0  0  0  0  0  0  0  0
    6.2194  -14.0154   27.0168 C   0  0  0  0  0  0  0  0  0  0  0  0
    7.4957  -14.4115   26.6755 C   0  0  0  0  0  0  0  0  0  0  0  0
    7.8307  -15.8536   26.7784 C   0  0  0  0  0  0  0  0  0  0  0  0
    8.5803  -16.3330   25.5544 C   0  0  2  0  0  0  0  0  0  0  0  0
    7.7334  -16.3381   24.3773 N   0  0  0  0  0  0  0  0  0  0  0  0
    9.1410  -17.6877   25.7552 C   0  0  0  0  0  0  0  0  0  0  0  0
   10.0332  -17.8535   26.6168 O   0  0  0  0  0  0  0  0  0  0  0  0
    8.4158  -13.4796   26.2557 C   0  0  0  0  0  0  0  0  0  0  0  0
    8.1177  -12.1218   26.1558 C   0  0  0  0  0  0  0  0  0  0  0  0
    8.7329  -18.8011   25.0353 O   0  0  0  0  0  0  0  0  0  0  0  0
  2  1  1  0
  2  3  2  0
  4  5  1  0
  4  2  1  0
  5  7  1  0
  5  6  1  6
  7  8  2  0
 10  9  1  6
 10 11  1  0
 10 12  1  0
 12 14  1  0
 12 13  1  6
 13  7  1  0
 14 15  2  0
 14 23  1  0
 16 17  1  0
 17 18  2  0
 18 19  1  0
 20 21  1  0
 20 19  2  0
 22 21  1  1
 22 24  1  0
 23 22  1  0
 24 25  2  0
 24 28  1  0
 26 20  1  0
 27 26  2  0
 27 17  1  0
M  END
$$$$
