NTY.pdb
     RDKit          3D

 28 28  0  0  1  0  0  0  0  0999 V2000
   14.0649  -15.6473   20.0278 N   0  0  0  0  0  0  0  0  0  0  0  0
   13.4091  -14.7466   19.1543 C   0  0  0  0  0  0  0  0  0  0  0  0
   13.9296  -14.4867   18.0440 O   0  0  0  0  0  0  0  0  0  0  0  0
   12.1243  -14.1319   19.5644 C   0  0  0  0  0  0  0  0  0  0  0  0
   10.9812  -15.0012   19.0950 C   0  0  2  0  0  0  0  0  0  0  0  0
   10.6019  -14.7994   17.7415 N   0  0  0  0  0  0  0  0  0  0  0  0
    9.8480  -14.9162   20.0629 C   0  0  0  0  0  0  0  0  0  0  0  0
    8.9148  -14.1260   19.8093 O   0  0  0  0  0  0  0  0  0  0  0  0
    7.1928  -16.7999   20.3413 C   0  0  0  0  0  0  0  0  0  0  0  0
    7.7934  -16.9979   21.7153 C   0  0  1  0  0  0  0  0  0  0  0  0
    8.5484  -18.1639   21.6572 O   0  0  0  0  0  0  0  0  0  0  0  0
    8.6399  -15.7965   22.1232 C   0  0  2  0  0  0  0  0  0  0  0  0
    9.8025  -15.6920   21.2378 N   0  0  0  0  0  0  0  0  0  0  0  0
    9.0819  -16.0241   23.5210 C   0  0  0  0  0  0  0  0  0  0  0  0
   10.2867  -16.2545   23.7911 O   0  0  0  0  0  0  0  0  0  0  0  0
    6.3985  -10.2009   26.3163 O   0  0  0  0  0  0  0  0  0  0  0  0
    6.7162  -11.5523   26.4936 C   0  0  0  0  0  0  0  0  0  0  0  0
    7.9057  -11.9762   27.0354 C   0  0  0  0  0  0  0  0  0  0  0  0
    8.2142  -13.3125   27.2077 C   0  0  0  0  0  0  0  0  0  0  0  0
    7.2738  -14.2404   26.8116 C   0  0  0  0  0  0  0  0  0  0  0  0
    7.5933  -15.6787   26.9890 C   0  0  0  0  0  0  0  0  0  0  0  0
    8.6416  -16.1358   25.9981 C   0  0  2  0  0  0  0  0  0  0  0  0
    8.1808  -15.9957   24.6303 N   0  0  0  0  0  0  0  0  0  0  0  0
    9.0389  -17.5414   26.2352 C   0  0  0  0  0  0  0  0  0  0  0  0
    8.6821  -18.4190   25.4177 O   0  0  0  0  0  0  0  0  0  0  0  0
    6.0813  -13.8223   26.2689 C   0  0  0  0  0  0  0  0  0  0  0  0
    5.7669  -12.4757   26.0936 C   0  0  0  0  0  0  0  0  0  0  0  0
    9.7927  -17.9518   27.3251 O   0  0  0  0  0  0  0  0  0  0  0  0
  2  1  1  0
  2  3  2  0
  4  5  1  0
  4  2  1  0
  5  7  1  0
  5  6  1  6
  7  8  2  0
 10  9  1  6
 10 11  1  0
 10 12  1  0
 12 14  1  0
 12 13  1  6
 13  7  1  0
 14 15  2  0
 14 23  1  0
 16 17  1  0
 17 18  2  0
 18 19  1  0
 20 21  1  0
 20 19  2  0
 22 21  1  1
 22 24  1  0
 23 22  1  0
 24 25  2  0
 24 28  1  0
 26 20  1  0
 27 26  2  0
 27 17  1  0
M  END
$$$$
