NTY.pdb
     RDKit          3D

 28 28  0  0  1  0  0  0  0  0999 V2000
    8.9468  -12.3246   18.3556 N   0  0  0  0  0  0  0  0  0  0  0  0
    7.6243  -12.8114   18.4921 C   0  0  0  0  0  0  0  0  0  0  0  0
    6.7294  -12.3641   17.7368 O   0  0  0  0  0  0  0  0  0  0  0  0
    7.3229  -13.8373   19.5184 C   0  0  0  0  0  0  0  0  0  0  0  0
    8.5558  -14.0844   20.3561 C   0  0  2  0  0  0  0  0  0  0  0  0
    9.7183  -14.4197   19.6129 N   0  0  0  0  0  0  0  0  0  0  0  0
    8.2390  -15.0438   21.4550 C   0  0  0  0  0  0  0  0  0  0  0  0
    7.1500  -14.9160   22.0528 O   0  0  0  0  0  0  0  0  0  0  0  0
    9.1415  -19.4274   23.5918 C   0  0  0  0  0  0  0  0  0  0  0  0
    9.4700  -18.3855   22.5457 C   0  0  1  0  0  0  0  0  0  0  0  0
    8.9667  -18.8583   21.3390 O   0  0  0  0  0  0  0  0  0  0  0  0
    8.8748  -17.0304   22.9140 C   0  0  2  0  0  0  0  0  0  0  0  0
    9.1217  -16.0752   21.8308 N   0  0  0  0  0  0  0  0  0  0  0  0
    9.5471  -16.5777   24.1566 C   0  0  0  0  0  0  0  0  0  0  0  0
   10.7333  -16.1656   24.1391 O   0  0  0  0  0  0  0  0  0  0  0  0
    6.0915  -10.9593   25.3345 O   0  0  0  0  0  0  0  0  0  0  0  0
    6.6910  -12.0938   25.8933 C   0  0  0  0  0  0  0  0  0  0  0  0
    6.0201  -13.2782   26.0816 C   0  0  0  0  0  0  0  0  0  0  0  0
    6.6174  -14.3954   26.6344 C   0  0  0  0  0  0  0  0  0  0  0  0
    7.9419  -14.2931   27.0050 C   0  0  0  0  0  0  0  0  0  0  0  0
    8.5946  -15.4847   27.6019 C   0  0  0  0  0  0  0  0  0  0  0  0
    9.5666  -16.1228   26.6334 C   0  0  2  0  0  0  0  0  0  0  0  0
    8.8988  -16.5811   25.4306 N   0  0  0  0  0  0  0  0  0  0  0  0
   10.2856  -17.2584   27.2524 C   0  0  0  0  0  0  0  0  0  0  0  0
   11.0986  -17.0307   28.1761 O   0  0  0  0  0  0  0  0  0  0  0  0
    8.6186  -13.1104   26.8189 C   0  0  0  0  0  0  0  0  0  0  0  0
    8.0196  -11.9818   26.2619 C   0  0  0  0  0  0  0  0  0  0  0  0
   10.1121  -18.5790   26.8648 O   0  0  0  0  0  0  0  0  0  0  0  0
  2  1  1  0
  2  3  2  0
  4  5  1  0
  4  2  1  0
  5  7  1  0
  5  6  1  6
  7  8  2  0
 10  9  1  1
 10 11  1  0
 10 12  1  0
 12 14  1  0
 12 13  1  6
 13  7  1  0
 14 15  2  0
 14 23  1  0
 16 17  1  0
 17 18  2  0
 18 19  1  0
 20 21  1  0
 20 19  2  0
 22 21  1  1
 22 24  1  0
 23 22  1  0
 24 25  2  0
 24 28  1  0
 26 20  1  0
 27 26  2  0
 27 17  1  0
M  END
$$$$
