NTY.pdb
     RDKit          3D

 28 28  0  0  1  0  0  0  0  0999 V2000
   14.8730  -18.4693   15.3323 N   0  0  0  0  0  0  0  0  0  0  0  0
   14.8862  -17.7889   16.5738 C   0  0  0  0  0  0  0  0  0  0  0  0
   15.9699  -17.6716   17.1928 O   0  0  0  0  0  0  0  0  0  0  0  0
   13.6258  -17.2281   17.1160 C   0  0  0  0  0  0  0  0  0  0  0  0
   13.3365  -17.8550   18.4598 C   0  0  2  0  0  0  0  0  0  0  0  0
   13.1979  -19.2680   18.4357 N   0  0  0  0  0  0  0  0  0  0  0  0
   12.2009  -17.1439   19.1178 C   0  0  0  0  0  0  0  0  0  0  0  0
   11.8345  -16.0501   18.6394 O   0  0  0  0  0  0  0  0  0  0  0  0
    9.2902  -19.2276   21.1939 C   0  0  0  0  0  0  0  0  0  0  0  0
    9.1444  -17.8027   20.7079 C   0  0  1  0  0  0  0  0  0  0  0  0
    8.0687  -17.2536   21.3968 O   0  0  0  0  0  0  0  0  0  0  0  0
   10.4267  -17.0096   20.9382 C   0  0  2  0  0  0  0  0  0  0  0  0
   11.5399  -17.6653   20.2472 N   0  0  0  0  0  0  0  0  0  0  0  0
   10.6748  -16.9895   22.4007 C   0  0  0  0  0  0  0  0  0  0  0  0
   11.3045  -17.9183   22.9647 O   0  0  0  0  0  0  0  0  0  0  0  0
   10.8324  -14.8238   30.9210 O   0  0  0  0  0  0  0  0  0  0  0  0
   10.6292  -14.7677   29.5375 C   0  0  0  0  0  0  0  0  0  0  0  0
    9.4497  -14.3479   28.9712 C   0  0  0  0  0  0  0  0  0  0  0  0
    9.2546  -14.2950   27.6037 C   0  0  0  0  0  0  0  0  0  0  0  0
   10.3012  -14.6850   26.7946 C   0  0  0  0  0  0  0  0  0  0  0  0
   10.1041  -14.6352   25.3246 C   0  0  0  0  0  0  0  0  0  0  0  0
   10.3652  -15.9831   24.6883 C   0  0  2  0  0  0  0  0  0  0  0  0
   10.2215  -15.9299   23.2464 N   0  0  0  0  0  0  0  0  0  0  0  0
    9.4626  -17.0241   25.2283 C   0  0  0  0  0  0  0  0  0  0  0  0
    8.3106  -17.1348   24.7523 O   0  0  0  0  0  0  0  0  0  0  0  0
   11.4842  -15.1061   27.3555 C   0  0  0  0  0  0  0  0  0  0  0  0
   11.6844  -15.1608   28.7338 C   0  0  0  0  0  0  0  0  0  0  0  0
    9.8203  -17.8967   26.2457 O   0  0  0  0  0  0  0  0  0  0  0  0
  2  1  1  0
  2  3  2  0
  4  5  1  0
  4  2  1  0
  5  7  1  0
  5  6  1  6
  7  8  2  0
 10  9  1  1
 10 11  1  0
 10 12  1  0
 12 14  1  0
 12 13  1  6
 13  7  1  0
 14 15  2  0
 14 23  1  0
 16 17  1  0
 17 18  2  0
 18 19  1  0
 20 21  1  0
 20 19  2  0
 22 21  1  1
 22 24  1  0
 23 22  1  0
 24 25  2  0
 24 28  1  0
 26 20  1  0
 27 26  2  0
 27 17  1  0
M  END
$$$$
