NTY.pdb
     RDKit          3D

 28 28  0  0  1  0  0  0  0  0999 V2000
   11.1761  -19.8499   18.3909 N   0  0  0  0  0  0  0  0  0  0  0  0
   12.1642  -18.8690   18.1338 C   0  0  0  0  0  0  0  0  0  0  0  0
   13.2183  -19.2057   17.5449 O   0  0  0  0  0  0  0  0  0  0  0  0
   11.9352  -17.4682   18.5607 C   0  0  0  0  0  0  0  0  0  0  0  0
   10.4545  -17.1699   18.5252 C   0  0  2  0  0  0  0  0  0  0  0  0
    9.9470  -16.8471   17.2390 N   0  0  0  0  0  0  0  0  0  0  0  0
   10.1122  -16.1725   19.5817 C   0  0  0  0  0  0  0  0  0  0  0  0
   10.8135  -15.1429   19.6692 O   0  0  0  0  0  0  0  0  0  0  0  0
    6.5732  -14.5840   20.1297 C   0  0  0  0  0  0  0  0  0  0  0  0
    7.0452  -15.2769   21.3887 C   0  0  1  0  0  0  0  0  0  0  0  0
    6.4623  -16.5392   21.3926 O   0  0  0  0  0  0  0  0  0  0  0  0
    8.5676  -15.3575   21.4337 C   0  0  2  0  0  0  0  0  0  0  0  0
    9.0347  -16.3575   20.4701 N   0  0  0  0  0  0  0  0  0  0  0  0
    8.9463  -15.7598   22.8105 C   0  0  0  0  0  0  0  0  0  0  0  0
    9.2146  -16.9553   23.0865 O   0  0  0  0  0  0  0  0  0  0  0  0
   10.8333  -15.7518   31.3968 O   0  0  0  0  0  0  0  0  0  0  0  0
   10.5136  -15.3541   30.0937 C   0  0  0  0  0  0  0  0  0  0  0  0
   10.9624  -16.0184   28.9776 C   0  0  0  0  0  0  0  0  0  0  0  0
   10.6435  -15.6206   27.6927 C   0  0  0  0  0  0  0  0  0  0  0  0
    9.8410  -14.5081   27.5501 C   0  0  0  0  0  0  0  0  0  0  0  0
    9.4930  -14.0690   26.1760 C   0  0  0  0  0  0  0  0  0  0  0  0
    9.3091  -15.2518   25.2503 C   0  0  2  0  0  0  0  0  0  0  0  0
    9.0290  -14.8286   23.8919 N   0  0  0  0  0  0  0  0  0  0  0  0
    8.2232  -16.1433   25.7150 C   0  0  0  0  0  0  0  0  0  0  0  0
    7.0380  -15.8499   25.4407 O   0  0  0  0  0  0  0  0  0  0  0  0
    9.3886  -13.8392   28.6634 C   0  0  0  0  0  0  0  0  0  0  0  0
    9.7081  -14.2373   29.9604 C   0  0  0  0  0  0  0  0  0  0  0  0
    8.4418  -17.3006   26.4480 O   0  0  0  0  0  0  0  0  0  0  0  0
  2  1  1  0
  2  3  2  0
  4  5  1  0
  4  2  1  0
  5  7  1  0
  5  6  1  6
  7  8  2  0
 10  9  1  6
 10 11  1  0
 10 12  1  0
 12 14  1  0
 12 13  1  6
 13  7  1  0
 14 15  2  0
 14 23  1  0
 16 17  1  0
 17 18  2  0
 18 19  1  0
 20 21  1  0
 20 19  2  0
 22 21  1  1
 22 24  1  0
 23 22  1  0
 24 25  2  0
 24 28  1  0
 26 20  1  0
 27 26  2  0
 27 17  1  0
M  END
$$$$
