NTY.pdb
     RDKit          3D

 28 28  0  0  1  0  0  0  0  0999 V2000
    7.6700  -14.6086   14.7397 N   0  0  0  0  0  0  0  0  0  0  0  0
    8.2350  -13.7165   15.6828 C   0  0  0  0  0  0  0  0  0  0  0  0
    9.2347  -13.0353   15.3543 O   0  0  0  0  0  0  0  0  0  0  0  0
    7.6366  -13.6024   17.0340 C   0  0  0  0  0  0  0  0  0  0  0  0
    8.6163  -14.1212   18.0606 C   0  0  2  0  0  0  0  0  0  0  0  0
    9.4881  -15.1365   17.5859 N   0  0  0  0  0  0  0  0  0  0  0  0
    7.8935  -14.4789   19.3167 C   0  0  0  0  0  0  0  0  0  0  0  0
    7.0627  -13.6643   19.7705 O   0  0  0  0  0  0  0  0  0  0  0  0
    6.1639  -17.9338   20.2165 C   0  0  0  0  0  0  0  0  0  0  0  0
    7.2012  -17.5731   21.2566 C   0  0  1  0  0  0  0  0  0  0  0  0
    8.3417  -18.3091   20.9556 O   0  0  0  0  0  0  0  0  0  0  0  0
    7.4805  -16.0736   21.2572 C   0  0  2  0  0  0  0  0  0  0  0  0
    8.1189  -15.6928   19.9947 N   0  0  0  0  0  0  0  0  0  0  0  0
    8.3924  -15.7965   22.3941 C   0  0  0  0  0  0  0  0  0  0  0  0
    9.6387  -15.8755   22.2602 O   0  0  0  0  0  0  0  0  0  0  0  0
   11.5869  -14.2852   30.4526 O   0  0  0  0  0  0  0  0  0  0  0  0
   10.7111  -14.4594   29.3750 C   0  0  0  0  0  0  0  0  0  0  0  0
   10.1263  -15.6659   29.0739 C   0  0  0  0  0  0  0  0  0  0  0  0
    9.2622  -15.8320   28.0079 C   0  0  0  0  0  0  0  0  0  0  0  0
    8.9913  -14.7271   27.2283 C   0  0  0  0  0  0  0  0  0  0  0  0
    8.0669  -14.8923   26.0792 C   0  0  0  0  0  0  0  0  0  0  0  0
    8.8176  -15.2566   24.8168 C   0  0  2  0  0  0  0  0  0  0  0  0
    7.9192  -15.4277   23.6916 N   0  0  0  0  0  0  0  0  0  0  0  0
    9.6146  -16.4907   24.9942 C   0  0  0  0  0  0  0  0  0  0  0  0
   10.8497  -16.3953   25.1709 O   0  0  0  0  0  0  0  0  0  0  0  0
    9.5734  -13.5168   27.5247 C   0  0  0  0  0  0  0  0  0  0  0  0
   10.4451  -13.3456   28.5987 C   0  0  0  0  0  0  0  0  0  0  0  0
    9.0684  -17.7658   24.9749 O   0  0  0  0  0  0  0  0  0  0  0  0
  2  1  1  0
  2  3  2  0
  4  5  1  0
  4  2  1  0
  5  7  1  0
  5  6  1  6
  7  8  2  0
 10  9  1  6
 10 11  1  0
 10 12  1  0
 12 14  1  0
 12 13  1  6
 13  7  1  0
 14 15  2  0
 14 23  1  0
 16 17  1  0
 17 18  2  0
 18 19  1  0
 20 21  1  0
 20 19  2  0
 22 21  1  1
 22 24  1  0
 23 22  1  0
 24 25  2  0
 24 28  1  0
 26 20  1  0
 27 26  2  0
 27 17  1  0
M  END
$$$$
