NTY.pdb
     RDKit          3D

 28 28  0  0  1  0  0  0  0  0999 V2000
   11.6806  -18.0182   16.5127 N   0  0  0  0  0  0  0  0  0  0  0  0
   10.7809  -16.9745   16.1871 C   0  0  0  0  0  0  0  0  0  0  0  0
   10.6863  -16.6017   14.9941 O   0  0  0  0  0  0  0  0  0  0  0  0
    9.9693  -16.3460   17.2563 C   0  0  0  0  0  0  0  0  0  0  0  0
   10.2685  -17.0215   18.5742 C   0  0  2  0  0  0  0  0  0  0  0  0
    9.8233  -18.3669   18.6636 N   0  0  0  0  0  0  0  0  0  0  0  0
    9.8165  -16.1553   19.7028 C   0  0  0  0  0  0  0  0  0  0  0  0
   10.4004  -15.0656   19.8793 O   0  0  0  0  0  0  0  0  0  0  0  0
    5.9743  -15.4269   20.8194 C   0  0  0  0  0  0  0  0  0  0  0  0
    6.8154  -16.0000   21.9383 C   0  0  1  0  0  0  0  0  0  0  0  0
    6.5381  -17.3615   21.9896 O   0  0  0  0  0  0  0  0  0  0  0  0
    8.2986  -15.7341   21.7023 C   0  0  2  0  0  0  0  0  0  0  0  0
    8.7640  -16.5275   20.5619 N   0  0  0  0  0  0  0  0  0  0  0  0
    9.0196  -16.1393   22.9340 C   0  0  0  0  0  0  0  0  0  0  0  0
    9.6873  -17.2023   22.9748 O   0  0  0  0  0  0  0  0  0  0  0  0
    5.1263  -11.5343   26.5783 O   0  0  0  0  0  0  0  0  0  0  0  0
    6.3023  -12.2893   26.5037 C   0  0  0  0  0  0  0  0  0  0  0  0
    7.4225  -11.8644   25.8308 C   0  0  0  0  0  0  0  0  0  0  0  0
    8.5813  -12.6147   25.7603 C   0  0  0  0  0  0  0  0  0  0  0  0
    8.5895  -13.8370   26.3991 C   0  0  0  0  0  0  0  0  0  0  0  0
    9.8267  -14.6536   26.3293 C   0  0  0  0  0  0  0  0  0  0  0  0
    9.6822  -15.7877   25.3379 C   0  0  2  0  0  0  0  0  0  0  0  0
    9.0011  -15.3592   24.1316 N   0  0  0  0  0  0  0  0  0  0  0  0
    8.9548  -16.9349   25.9251 C   0  0  0  0  0  0  0  0  0  0  0  0
    7.8244  -17.2301   25.4770 O   0  0  0  0  0  0  0  0  0  0  0  0
    7.4715  -14.2676   27.0744 C   0  0  0  0  0  0  0  0  0  0  0  0
    6.3014  -13.5138   27.1475 C   0  0  0  0  0  0  0  0  0  0  0  0
    9.4563  -17.7135   26.9580 O   0  0  0  0  0  0  0  0  0  0  0  0
  2  1  1  0
  2  3  2  0
  4  5  1  0
  4  2  1  0
  5  7  1  0
  5  6  1  6
  7  8  2  0
 10  9  1  6
 10 11  1  0
 10 12  1  0
 12 14  1  0
 12 13  1  6
 13  7  1  0
 14 15  2  0
 14 23  1  0
 16 17  1  0
 17 18  2  0
 18 19  1  0
 20 21  1  0
 20 19  2  0
 22 21  1  1
 22 24  1  0
 23 22  1  0
 24 25  2  0
 24 28  1  0
 26 20  1  0
 27 26  2  0
 27 17  1  0
M  END
$$$$
