NTY.pdb
     RDKit          3D

 28 28  0  0  1  0  0  0  0  0999 V2000
   14.7925  -17.6324   17.7735 N   0  0  0  0  0  0  0  0  0  0  0  0
   13.4209  -17.8383   17.4891 C   0  0  0  0  0  0  0  0  0  0  0  0
   13.0829  -18.8342   16.8071 O   0  0  0  0  0  0  0  0  0  0  0  0
   12.4138  -16.8792   18.0018 C   0  0  0  0  0  0  0  0  0  0  0  0
   11.5458  -17.5669   19.0296 C   0  0  2  0  0  0  0  0  0  0  0  0
   10.6112  -18.4906   18.4916 N   0  0  0  0  0  0  0  0  0  0  0  0
   10.9415  -16.5532   19.9436 C   0  0  0  0  0  0  0  0  0  0  0  0
   11.6607  -15.6106   20.3358 O   0  0  0  0  0  0  0  0  0  0  0  0
    6.9486  -15.3190   19.8589 C   0  0  0  0  0  0  0  0  0  0  0  0
    7.4500  -15.8164   21.1964 C   0  0  1  0  0  0  0  0  0  0  0  0
    7.0362  -17.1388   21.3117 O   0  0  0  0  0  0  0  0  0  0  0  0
    8.9666  -15.6884   21.2969 C   0  0  2  0  0  0  0  0  0  0  0  0
    9.6010  -16.6289   20.3697 N   0  0  0  0  0  0  0  0  0  0  0  0
    9.3441  -16.0159   22.6937 C   0  0  0  0  0  0  0  0  0  0  0  0
    9.7315  -17.1686   23.0077 O   0  0  0  0  0  0  0  0  0  0  0  0
   10.7293  -15.6208   31.3744 O   0  0  0  0  0  0  0  0  0  0  0  0
   10.4023  -15.2738   30.0585 C   0  0  0  0  0  0  0  0  0  0  0  0
    9.1088  -15.2249   29.5973 C   0  0  0  0  0  0  0  0  0  0  0  0
    8.7920  -14.8818   28.2963 C   0  0  0  0  0  0  0  0  0  0  0  0
    9.8339  -14.5808   27.4443 C   0  0  0  0  0  0  0  0  0  0  0  0
    9.5077  -14.2131   26.0441 C   0  0  0  0  0  0  0  0  0  0  0  0
    9.5850  -15.4145   25.1273 C   0  0  2  0  0  0  0  0  0  0  0  0
    9.2925  -15.0571   23.7527 N   0  0  0  0  0  0  0  0  0  0  0  0
    8.6615  -16.4878   25.5572 C   0  0  0  0  0  0  0  0  0  0  0  0
    7.4461  -16.3915   25.2754 O   0  0  0  0  0  0  0  0  0  0  0  0
   11.1306  -14.6278   27.9002 C   0  0  0  0  0  0  0  0  0  0  0  0
   11.4538  -14.9733   29.2112 C   0  0  0  0  0  0  0  0  0  0  0  0
    9.0664  -17.6101   26.2651 O   0  0  0  0  0  0  0  0  0  0  0  0
  2  1  1  0
  2  3  2  0
  4  5  1  0
  4  2  1  0
  5  7  1  0
  5  6  1  6
  7  8  2  0
 10  9  1  6
 10 11  1  0
 10 12  1  0
 12 14  1  0
 12 13  1  6
 13  7  1  0
 14 15  2  0
 14 23  1  0
 16 17  1  0
 17 18  2  0
 18 19  1  0
 20 21  1  0
 20 19  2  0
 22 21  1  1
 22 24  1  0
 23 22  1  0
 24 25  2  0
 24 28  1  0
 26 20  1  0
 27 26  2  0
 27 17  1  0
M  END
$$$$
