NTY.pdb
     RDKit          3D

 28 28  0  0  1  0  0  0  0  0999 V2000
    9.4919  -18.1470   12.9664 N   0  0  0  0  0  0  0  0  0  0  0  0
   10.0977  -18.6331   14.1501 C   0  0  0  0  0  0  0  0  0  0  0  0
   10.2508  -19.8690   14.2930 O   0  0  0  0  0  0  0  0  0  0  0  0
   10.5402  -17.6775   15.1931 C   0  0  0  0  0  0  0  0  0  0  0  0
   10.1224  -16.2796   14.8006 C   0  0  2  0  0  0  0  0  0  0  0  0
   10.8072  -15.7521   13.6740 N   0  0  0  0  0  0  0  0  0  0  0  0
   10.1446  -15.3881   15.9977 C   0  0  0  0  0  0  0  0  0  0  0  0
   11.2126  -14.8044   16.2776 O   0  0  0  0  0  0  0  0  0  0  0  0
    7.5035  -13.2096   19.6605 C   0  0  0  0  0  0  0  0  0  0  0  0
    7.5587  -14.1488   18.4761 C   0  0  1  0  0  0  0  0  0  0  0  0
    6.8233  -13.5521   17.4582 O   0  0  0  0  0  0  0  0  0  0  0  0
    8.9995  -14.4135   18.0515 C   0  0  2  0  0  0  0  0  0  0  0  0
    9.0103  -15.1895   16.8088 N   0  0  0  0  0  0  0  0  0  0  0  0
    9.6444  -15.1864   19.1413 C   0  0  0  0  0  0  0  0  0  0  0  0
    9.6128  -16.4419   19.1526 O   0  0  0  0  0  0  0  0  0  0  0  0
   16.1210  -15.6841   17.6283 O   0  0  0  0  0  0  0  0  0  0  0  0
   15.1799  -15.4796   18.6437 C   0  0  0  0  0  0  0  0  0  0  0  0
   14.9835  -16.3700   19.6718 C   0  0  0  0  0  0  0  0  0  0  0  0
   14.0520  -16.1627   20.6719 C   0  0  0  0  0  0  0  0  0  0  0  0
   13.3003  -15.0079   20.6141 C   0  0  0  0  0  0  0  0  0  0  0  0
   12.2951  -14.7743   21.6804 C   0  0  0  0  0  0  0  0  0  0  0  0
   10.9429  -15.3331   21.2941 C   0  0  2  0  0  0  0  0  0  0  0  0
   10.3311  -14.5626   20.2288 N   0  0  0  0  0  0  0  0  0  0  0  0
   10.0217  -15.3787   22.4513 C   0  0  0  0  0  0  0  0  0  0  0  0
    9.0267  -14.6200   22.4650 O   0  0  0  0  0  0  0  0  0  0  0  0
   13.4924  -14.1129   19.5877 C   0  0  0  0  0  0  0  0  0  0  0  0
   14.4306  -14.3186   18.5775 C   0  0  0  0  0  0  0  0  0  0  0  0
   10.1971  -16.2226   23.5383 O   0  0  0  0  0  0  0  0  0  0  0  0
  2  1  1  0
  2  3  2  0
  4  5  1  0
  4  2  1  0
  5  7  1  0
  5  6  1  6
  7  8  2  0
 10  9  1  1
 10 11  1  0
 10 12  1  0
 12 14  1  0
 12 13  1  6
 13  7  1  0
 14 15  2  0
 14 23  1  0
 16 17  1  0
 17 18  2  0
 18 19  1  0
 20 21  1  0
 20 19  2  0
 22 21  1  1
 22 24  1  0
 23 22  1  0
 24 25  2  0
 24 28  1  0
 26 20  1  0
 27 26  2  0
 27 17  1  0
M  END
$$$$
