CTQ.pdb
     RDKit          3D

 23 22  0  0  1  0  0  0  0  0999 V2000
    7.8234  -13.8837   17.7812 N   0  0  0  0  0  0  0  0  0  0  0  0
    8.9622  -13.1948   18.4213 C   0  0  1  0  0  0  0  0  0  0  0  0
    8.3687  -12.3797   19.5239 C   0  0  0  0  0  0  0  0  0  0  0  0
    7.6426  -13.4297   20.7787 S   0  0  0  0  0  0  0  0  0  0  0  0
    9.9244  -14.2103   18.8618 C   0  0  0  0  0  0  0  0  0  0  0  0
    9.5047  -15.3704   19.1355 O   0  0  0  0  0  0  0  0  0  0  0  0
   12.4921  -15.6858   17.0362 C   0  0  0  0  0  0  0  0  0  0  0  0
   13.2632  -15.3437   18.2984 C   0  0  1  0  0  0  0  0  0  0  0  0
   14.1723  -14.3435   18.1150 O   0  0  0  0  0  0  0  0  0  0  0  0
   12.2336  -15.0558   19.3707 C   0  0  2  0  0  0  0  0  0  0  0  0
   11.3312  -14.0065   19.0125 N   0  0  0  0  0  0  0  0  0  0  0  0
   12.8519  -14.9271   20.7067 C   0  0  0  0  0  0  0  0  0  0  0  0
   13.2461  -13.7682   21.0741 O   0  0  0  0  0  0  0  0  0  0  0  0
   12.1700  -18.5845   25.5879 N   0  0  0  0  0  0  0  0  0  0  0  0
   11.3679  -18.3417   24.4323 C   0  0  0  0  0  0  0  0  0  0  0  0
   10.2794  -18.9518   24.3095 O   0  0  0  0  0  0  0  0  0  0  0  0
   11.8983  -17.3667   23.4487 C   0  0  0  0  0  0  0  0  0  0  0  0
   13.1786  -16.7327   23.8765 C   0  0  0  0  0  0  0  0  0  0  0  0
   13.7520  -15.7359   22.9168 C   0  0  2  0  0  0  0  0  0  0  0  0
   13.0570  -15.9623   21.6348 N   0  0  0  0  0  0  0  0  0  0  0  0
   15.1884  -16.0540   22.7056 C   0  0  0  0  0  0  0  0  0  0  0  0
   16.1696  -15.7735   23.6374 O   0  0  0  0  0  0  0  0  0  0  0  0
   15.5812  -16.6098   21.6336 O   0  0  0  0  0  0  0  0  0  0  0  0
  2  1  1  1
  2  3  1  0
  2  5  1  0
  3  4  1  0
  5  6  2  0
  5 11  1  0
  8  7  1  6
  8 10  1  0
  8  9  1  0
 10 12  1  0
 10 11  1  6
 12 20  1  0
 12 13  2  0
 14 15  1  0
 15 16  2  0
 17 15  1  0
 17 18  1  0
 19 18  1  1
 19 21  1  0
 20 19  1  0
 21 22  1  0
 23 21  2  0
M  END
$$$$
