CTQ.pdb
     RDKit          3D

 23 22  0  0  1  0  0  0  0  0999 V2000
    8.9429  -13.2209   17.6307 N   0  0  0  0  0  0  0  0  0  0  0  0
    9.4663  -14.4661   18.2276 C   0  0  1  0  0  0  0  0  0  0  0  0
   10.9114  -14.2027   18.5008 C   0  0  0  0  0  0  0  0  0  0  0  0
   11.1087  -13.0603   19.8647 S   0  0  0  0  0  0  0  0  0  0  0  0
    8.6663  -14.7770   19.4168 C   0  0  0  0  0  0  0  0  0  0  0  0
    7.9219  -13.8791   19.9031 O   0  0  0  0  0  0  0  0  0  0  0  0
    6.5763  -18.0391   20.2178 C   0  0  0  0  0  0  0  0  0  0  0  0
    7.4439  -17.7160   21.4209 C   0  0  1  0  0  0  0  0  0  0  0  0
    8.4788  -18.5894   21.5838 O   0  0  0  0  0  0  0  0  0  0  0  0
    7.8707  -16.2709   21.2721 C   0  0  2  0  0  0  0  0  0  0  0  0
    8.6469  -16.0353   20.0949 N   0  0  0  0  0  0  0  0  0  0  0  0
    8.4449  -15.7350   22.5238 C   0  0  0  0  0  0  0  0  0  0  0  0
    9.6842  -15.4222   22.5274 O   0  0  0  0  0  0  0  0  0  0  0  0
    5.2802  -12.4565   26.5093 N   0  0  0  0  0  0  0  0  0  0  0  0
    6.5303  -12.3557   27.1910 C   0  0  0  0  0  0  0  0  0  0  0  0
    6.6112  -11.6241   28.2061 O   0  0  0  0  0  0  0  0  0  0  0  0
    7.6570  -13.1411   26.6314 C   0  0  0  0  0  0  0  0  0  0  0  0
    7.2865  -13.9229   25.4167 C   0  0  0  0  0  0  0  0  0  0  0  0
    8.3707  -14.7935   24.8598 C   0  0  2  0  0  0  0  0  0  0  0  0
    7.7615  -15.5284   23.7343 N   0  0  0  0  0  0  0  0  0  0  0  0
    8.7503  -15.7948   25.8905 C   0  0  0  0  0  0  0  0  0  0  0  0
    9.7182  -15.5631   26.8491 O   0  0  0  0  0  0  0  0  0  0  0  0
    8.1864  -16.9319   25.9322 O   0  0  0  0  0  0  0  0  0  0  0  0
  2  1  1  1
  2  3  1  0
  2  5  1  0
  3  4  1  0
  5  6  2  0
  5 11  1  0
  8  7  1  6
  8 10  1  0
  8  9  1  0
 10 12  1  0
 10 11  1  6
 12 20  1  0
 12 13  2  0
 14 15  1  0
 15 16  2  0
 17 15  1  0
 17 18  1  0
 19 18  1  1
 19 21  1  0
 20 19  1  0
 21 22  1  0
 23 21  2  0
M  END
$$$$
