CTQ.pdb
     RDKit          3D

 23 22  0  0  1  0  0  0  0  0999 V2000
    5.3329  -13.2181   26.2953 N   0  0  0  0  0  0  0  0  0  0  0  0
    6.5391  -12.7885   25.5594 C   0  0  1  0  0  0  0  0  0  0  0  0
    7.3951  -12.0911   26.5659 C   0  0  0  0  0  0  0  0  0  0  0  0
    6.6577  -10.5400   27.0706 S   0  0  0  0  0  0  0  0  0  0  0  0
    7.1527  -13.9739   24.9517 C   0  0  0  0  0  0  0  0  0  0  0  0
    7.2838  -15.0189   25.6500 O   0  0  0  0  0  0  0  0  0  0  0  0
    6.9776  -14.6377   21.0749 C   0  0  0  0  0  0  0  0  0  0  0  0
    8.2818  -15.2469   21.5573 C   0  0  1  0  0  0  0  0  0  0  0  0
    9.3832  -14.6338   21.0365 O   0  0  0  0  0  0  0  0  0  0  0  0
    8.2283  -15.2432   23.0706 C   0  0  2  0  0  0  0  0  0  0  0  0
    7.6273  -14.0618   23.6062 N   0  0  0  0  0  0  0  0  0  0  0  0
    9.5275  -15.6161   23.6680 C   0  0  0  0  0  0  0  0  0  0  0  0
   10.2190  -14.6935   24.2195 O   0  0  0  0  0  0  0  0  0  0  0  0
    9.8589  -19.1120   27.9779 N   0  0  0  0  0  0  0  0  0  0  0  0
   11.2808  -19.0915   27.8532 C   0  0  0  0  0  0  0  0  0  0  0  0
   11.9755  -19.6589   28.7293 O   0  0  0  0  0  0  0  0  0  0  0  0
   11.8337  -18.3854   26.6721 C   0  0  0  0  0  0  0  0  0  0  0  0
   10.7834  -17.8447   25.7617 C   0  0  0  0  0  0  0  0  0  0  0  0
   11.2910  -17.2101   24.5035 C   0  0  2  0  0  0  0  0  0  0  0  0
   10.0955  -16.9013   23.6952 N   0  0  0  0  0  0  0  0  0  0  0  0
   12.0866  -18.2166   23.7531 C   0  0  0  0  0  0  0  0  0  0  0  0
   13.4424  -18.4032   23.9438 O   0  0  0  0  0  0  0  0  0  0  0  0
   11.5385  -18.9637   22.8847 O   0  0  0  0  0  0  0  0  0  0  0  0
  2  1  1  1
  2  3  1  0
  2  5  1  0
  3  4  1  0
  5  6  2  0
  5 11  1  0
  8  7  1  6
  8 10  1  0
  8  9  1  0
 10 12  1  0
 10 11  1  1
 12 20  1  0
 12 13  2  0
 14 15  1  0
 15 16  2  0
 17 15  1  0
 17 18  1  0
 19 18  1  1
 19 21  1  0
 20 19  1  0
 21 22  1  0
 23 21  2  0
M  END
$$$$
