CTQ.pdb
     RDKit          3D

 23 22  0  0  1  0  0  0  0  0999 V2000
    5.3820  -13.1749   26.4997 N   0  0  0  0  0  0  0  0  0  0  0  0
    6.4457  -12.6981   25.5930 C   0  0  1  0  0  0  0  0  0  0  0  0
    7.3603  -11.8791   26.4444 C   0  0  0  0  0  0  0  0  0  0  0  0
    6.5857  -10.3368   26.9190 S   0  0  0  0  0  0  0  0  0  0  0  0
    7.0748  -13.8665   24.9685 C   0  0  0  0  0  0  0  0  0  0  0  0
    7.2998  -14.8892   25.6759 O   0  0  0  0  0  0  0  0  0  0  0  0
    7.0963  -14.0461   21.0812 C   0  0  0  0  0  0  0  0  0  0  0  0
    8.0703  -15.1246   21.5205 C   0  0  1  0  0  0  0  0  0  0  0  0
    9.3152  -14.9711   20.9848 O   0  0  0  0  0  0  0  0  0  0  0  0
    8.0451  -15.1409   23.0344 C   0  0  2  0  0  0  0  0  0  0  0  0
    7.4660  -13.9611   23.5969 N   0  0  0  0  0  0  0  0  0  0  0  0
    9.3514  -15.5345   23.6022 C   0  0  0  0  0  0  0  0  0  0  0  0
   10.1096  -14.6105   24.0548 O   0  0  0  0  0  0  0  0  0  0  0  0
   10.2424  -20.0666   27.2817 N   0  0  0  0  0  0  0  0  0  0  0  0
   11.4824  -19.3885   27.4822 C   0  0  0  0  0  0  0  0  0  0  0  0
   12.2078  -19.7223   28.4489 O   0  0  0  0  0  0  0  0  0  0  0  0
   11.8199  -18.3205   26.5102 C   0  0  0  0  0  0  0  0  0  0  0  0
   10.8064  -18.1652   25.4273 C   0  0  0  0  0  0  0  0  0  0  0  0
   11.1308  -17.1356   24.3889 C   0  0  2  0  0  0  0  0  0  0  0  0
    9.8594  -16.8412   23.6998 N   0  0  0  0  0  0  0  0  0  0  0  0
   12.0473  -17.7439   23.3892 C   0  0  0  0  0  0  0  0  0  0  0  0
   13.4020  -17.9077   23.6071 O   0  0  0  0  0  0  0  0  0  0  0  0
   11.6112  -18.1470   22.2669 O   0  0  0  0  0  0  0  0  0  0  0  0
  2  1  1  1
  2  3  1  0
  2  5  1  0
  3  4  1  0
  5  6  2  0
  5 11  1  0
  8  7  1  1
  8 10  1  0
  8  9  1  0
 10 12  1  0
 10 11  1  1
 12 20  1  0
 12 13  2  0
 14 15  1  0
 15 16  2  0
 17 15  1  0
 17 18  1  0
 19 18  1  1
 19 21  1  0
 20 19  1  0
 21 22  1  0
 23 21  2  0
M  END
$$$$
