CTQ.pdb
     RDKit          3D

 23 22  0  0  1  0  0  0  0  0999 V2000
   10.3626  -15.5853   15.1012 N   0  0  0  0  0  0  0  0  0  0  0  0
    9.3617  -16.1224   16.0450 C   0  0  1  0  0  0  0  0  0  0  0  0
    9.5397  -17.6055   16.0165 C   0  0  0  0  0  0  0  0  0  0  0  0
   11.2276  -18.0414   15.6100 S   0  0  0  0  0  0  0  0  0  0  0  0
    9.5885  -15.5047   17.3557 C   0  0  0  0  0  0  0  0  0  0  0  0
   10.7276  -15.0223   17.6138 O   0  0  0  0  0  0  0  0  0  0  0  0
    7.3433  -12.8984   19.1872 C   0  0  0  0  0  0  0  0  0  0  0  0
    7.6719  -13.9959   20.1832 C   0  0  1  0  0  0  0  0  0  0  0  0
    6.6070  -14.8013   20.4620 O   0  0  0  0  0  0  0  0  0  0  0  0
    8.8778  -14.7307   19.6365 C   0  0  2  0  0  0  0  0  0  0  0  0
    8.6151  -15.3916   18.3964 N   0  0  0  0  0  0  0  0  0  0  0  0
    9.5297  -15.5629   20.6690 C   0  0  0  0  0  0  0  0  0  0  0  0
    9.5822  -16.8250   20.4744 O   0  0  0  0  0  0  0  0  0  0  0  0
   14.1154  -18.5545   24.0048 N   0  0  0  0  0  0  0  0  0  0  0  0
   13.9446  -17.2159   23.5395 C   0  0  0  0  0  0  0  0  0  0  0  0
   14.7493  -16.7599   22.6928 O   0  0  0  0  0  0  0  0  0  0  0  0
   12.8047  -16.4558   24.1072 C   0  0  0  0  0  0  0  0  0  0  0  0
   12.0676  -15.6498   23.0919 C   0  0  0  0  0  0  0  0  0  0  0  0
   10.6359  -16.0372   22.8827 C   0  0  2  0  0  0  0  0  0  0  0  0
   10.1095  -15.1068   21.8653 N   0  0  0  0  0  0  0  0  0  0  0  0
    9.8886  -15.7866   24.1428 C   0  0  0  0  0  0  0  0  0  0  0  0
    9.9191  -16.6471   25.2235 O   0  0  0  0  0  0  0  0  0  0  0  0
    9.1741  -14.7459   24.2798 O   0  0  0  0  0  0  0  0  0  0  0  0
  2  1  1  6
  2  3  1  0
  2  5  1  0
  3  4  1  0
  5  6  2  0
  5 11  1  0
  8  7  1  6
  8 10  1  0
  8  9  1  0
 10 12  1  0
 10 11  1  6
 12 20  1  0
 12 13  2  0
 14 15  1  0
 15 16  2  0
 17 15  1  0
 17 18  1  0
 19 18  1  1
 19 21  1  0
 20 19  1  0
 21 22  1  0
 23 21  2  0
M  END
$$$$
