CTQ.pdb
     RDKit          3D

 23 22  0  0  1  0  0  0  0  0999 V2000
    9.3537  -15.4051   13.9811 N   0  0  0  0  0  0  0  0  0  0  0  0
    8.4099  -15.5346   15.1095 C   0  0  1  0  0  0  0  0  0  0  0  0
    8.0127  -16.9746   15.1363 C   0  0  0  0  0  0  0  0  0  0  0  0
    9.3810  -18.0081   15.6499 S   0  0  0  0  0  0  0  0  0  0  0  0
    9.0805  -15.0628   16.3255 C   0  0  0  0  0  0  0  0  0  0  0  0
   10.3292  -14.8708   16.2982 O   0  0  0  0  0  0  0  0  0  0  0  0
    7.5739  -12.5282   19.0767 C   0  0  0  0  0  0  0  0  0  0  0  0
    8.2498  -13.7003   19.7651 C   0  0  1  0  0  0  0  0  0  0  0  0
    7.3664  -14.5558   20.3551 O   0  0  0  0  0  0  0  0  0  0  0  0
    9.1466  -14.3509   18.7329 C   0  0  2  0  0  0  0  0  0  0  0  0
    8.4367  -14.7900   17.5723 N   0  0  0  0  0  0  0  0  0  0  0  0
   10.0458  -15.3545   19.3394 C   0  0  0  0  0  0  0  0  0  0  0  0
    9.9090  -16.5739   18.9814 O   0  0  0  0  0  0  0  0  0  0  0  0
   15.1748  -13.8222   18.3257 N   0  0  0  0  0  0  0  0  0  0  0  0
   15.0721  -14.5656   19.5400 C   0  0  0  0  0  0  0  0  0  0  0  0
   16.1041  -15.0937   20.0179 O   0  0  0  0  0  0  0  0  0  0  0  0
   13.7240  -14.6557   20.1514 C   0  0  0  0  0  0  0  0  0  0  0  0
   13.2305  -16.0562   20.2901 C   0  0  0  0  0  0  0  0  0  0  0  0
   11.8582  -16.1971   20.8737 C   0  0  2  0  0  0  0  0  0  0  0  0
   11.0547  -15.1076   20.2860 N   0  0  0  0  0  0  0  0  0  0  0  0
   11.9384  -15.9502   22.3371 C   0  0  0  0  0  0  0  0  0  0  0  0
   12.5877  -16.7997   23.2125 O   0  0  0  0  0  0  0  0  0  0  0  0
   11.3995  -14.9233   22.8545 O   0  0  0  0  0  0  0  0  0  0  0  0
  2  1  1  6
  2  3  1  0
  2  5  1  0
  3  4  1  0
  5  6  2  0
  5 11  1  0
  8  7  1  6
  8 10  1  0
  8  9  1  0
 10 12  1  0
 10 11  1  6
 12 20  1  0
 12 13  2  0
 14 15  1  0
 15 16  2  0
 17 15  1  0
 17 18  1  0
 19 18  1  6
 19 21  1  0
 20 19  1  0
 21 22  1  0
 23 21  2  0
M  END
$$$$
