CTQ.pdb
     RDKit          3D

 23 22  0  0  1  0  0  0  0  0999 V2000
    3.2914  -19.8083   19.9606 N   0  0  0  0  0  0  0  0  0  0  0  0
    3.3996  -18.4340   20.4903 C   0  0  1  0  0  0  0  0  0  0  0  0
    2.3392  -18.3235   21.5369 C   0  0  0  0  0  0  0  0  0  0  0  0
    2.8430  -19.1379   23.0492 S   0  0  0  0  0  0  0  0  0  0  0  0
    4.7671  -18.2379   20.9826 C   0  0  0  0  0  0  0  0  0  0  0  0
    5.4877  -19.2524   21.2025 O   0  0  0  0  0  0  0  0  0  0  0  0
    7.4578  -16.0904   19.4882 C   0  0  0  0  0  0  0  0  0  0  0  0
    7.4866  -15.7423   20.9656 C   0  0  1  0  0  0  0  0  0  0  0  0
    7.0261  -14.4855   21.2279 O   0  0  0  0  0  0  0  0  0  0  0  0
    6.7323  -16.8409   21.6846 C   0  0  2  0  0  0  0  0  0  0  0  0
    5.3793  -16.9725   21.2421 N   0  0  0  0  0  0  0  0  0  0  0  0
    6.9121  -16.7641   23.1494 C   0  0  0  0  0  0  0  0  0  0  0  0
    5.9739  -16.2386   23.8403 O   0  0  0  0  0  0  0  0  0  0  0  0
    8.6591  -20.7762   26.9677 N   0  0  0  0  0  0  0  0  0  0  0  0
    8.4744  -19.7536   27.9464 C   0  0  0  0  0  0  0  0  0  0  0  0
    8.6120  -20.0415   29.1590 O   0  0  0  0  0  0  0  0  0  0  0  0
    8.1269  -18.4040   27.4392 C   0  0  0  0  0  0  0  0  0  0  0  0
    7.9527  -18.3559   25.9588 C   0  0  0  0  0  0  0  0  0  0  0  0
    8.1421  -17.0074   25.3349 C   0  0  2  0  0  0  0  0  0  0  0  0
    8.0255  -17.2154   23.8785 N   0  0  0  0  0  0  0  0  0  0  0  0
    9.5295  -16.5497   25.6085 C   0  0  0  0  0  0  0  0  0  0  0  0
    9.9261  -16.0236   26.8232 O   0  0  0  0  0  0  0  0  0  0  0  0
   10.4281  -16.6255   24.7145 O   0  0  0  0  0  0  0  0  0  0  0  0
  2  1  1  1
  2  3  1  0
  2  5  1  0
  3  4  1  0
  5  6  2  0
  5 11  1  0
  8  7  1  6
  8 10  1  0
  8  9  1  0
 10 12  1  0
 10 11  1  1
 12 20  1  0
 12 13  2  0
 14 15  1  0
 15 16  2  0
 17 15  1  0
 17 18  1  0
 19 18  1  1
 19 21  1  0
 20 19  1  0
 21 22  1  0
 23 21  2  0
M  END
$$$$
