CTQ.pdb
     RDKit          3D

 23 22  0  0  1  0  0  0  0  0999 V2000
    7.8973  -14.4865   16.9187 N   0  0  0  0  0  0  0  0  0  0  0  0
    8.5529  -13.9806   18.1415 C   0  0  1  0  0  0  0  0  0  0  0  0
    7.6265  -12.9469   18.6942 C   0  0  0  0  0  0  0  0  0  0  0  0
    8.1747  -12.3892   20.3044 S   0  0  0  0  0  0  0  0  0  0  0  0
    8.8016  -15.1179   19.0334 C   0  0  0  0  0  0  0  0  0  0  0  0
    7.8542  -15.9161   19.2830 O   0  0  0  0  0  0  0  0  0  0  0  0
   10.8528  -17.9741   18.6898 C   0  0  0  0  0  0  0  0  0  0  0  0
   11.2857  -17.5015   20.0660 C   0  0  1  0  0  0  0  0  0  0  0  0
   12.5534  -16.9986   20.0843 O   0  0  0  0  0  0  0  0  0  0  0  0
   10.2270  -16.5300   20.5436 C   0  0  2  0  0  0  0  0  0  0  0  0
   10.0496  -15.4183   19.6625 N   0  0  0  0  0  0  0  0  0  0  0  0
   10.4017  -16.1830   21.9694 C   0  0  0  0  0  0  0  0  0  0  0  0
   11.0191  -15.0995   22.2499 O   0  0  0  0  0  0  0  0  0  0  0  0
    6.8249  -18.0903   26.3812 N   0  0  0  0  0  0  0  0  0  0  0  0
    6.5727  -16.9146   25.6120 C   0  0  0  0  0  0  0  0  0  0  0  0
    5.4061  -16.4571   25.5667 O   0  0  0  0  0  0  0  0  0  0  0  0
    7.7357  -16.3163   24.9130 C   0  0  0  0  0  0  0  0  0  0  0  0
    9.0320  -16.9675   25.2587 C   0  0  0  0  0  0  0  0  0  0  0  0
   10.2132  -16.5070   24.4610 C   0  0  2  0  0  0  0  0  0  0  0  0
    9.9533  -16.9308   23.0715 N   0  0  0  0  0  0  0  0  0  0  0  0
   11.4173  -17.2406   24.9313 C   0  0  0  0  0  0  0  0  0  0  0  0
   12.1042  -16.9064   26.0828 O   0  0  0  0  0  0  0  0  0  0  0  0
   11.8745  -18.2283   24.2771 O   0  0  0  0  0  0  0  0  0  0  0  0
  2  1  1  6
  2  3  1  0
  2  5  1  0
  3  4  1  0
  5  6  2  0
  5 11  1  0
  8  7  1  6
  8 10  1  0
  8  9  1  0
 10 12  1  0
 10 11  1  6
 12 20  1  0
 12 13  2  0
 14 15  1  0
 15 16  2  0
 17 15  1  0
 17 18  1  0
 19 18  1  1
 19 21  1  0
 20 19  1  0
 21 22  1  0
 23 21  2  0
M  END
$$$$
