CTQ.pdb
     RDKit          3D

 23 22  0  0  1  0  0  0  0  0999 V2000
    9.2456  -15.4968   15.9060 N   0  0  0  0  0  0  0  0  0  0  0  0
    8.4696  -16.1107   17.0023 C   0  0  1  0  0  0  0  0  0  0  0  0
    8.6028  -17.5863   16.8098 C   0  0  0  0  0  0  0  0  0  0  0  0
    7.7520  -18.1194   15.3278 S   0  0  0  0  0  0  0  0  0  0  0  0
    8.9983  -15.6103   18.2755 C   0  0  0  0  0  0  0  0  0  0  0  0
   10.2338  -15.3610   18.3672 O   0  0  0  0  0  0  0  0  0  0  0  0
    7.5612  -12.7477   20.5495 C   0  0  0  0  0  0  0  0  0  0  0  0
    7.8307  -13.9583   21.4249 C   0  0  1  0  0  0  0  0  0  0  0  0
    6.6915  -14.5902   21.8291 O   0  0  0  0  0  0  0  0  0  0  0  0
    8.7907  -14.8430   20.6576 C   0  0  2  0  0  0  0  0  0  0  0  0
    8.2263  -15.3689   19.4541 N   0  0  0  0  0  0  0  0  0  0  0  0
    9.4438  -15.8368   21.5347 C   0  0  0  0  0  0  0  0  0  0  0  0
    9.1168  -17.0645   21.3948 O   0  0  0  0  0  0  0  0  0  0  0  0
   15.5215  -17.3480   21.8454 N   0  0  0  0  0  0  0  0  0  0  0  0
   14.6610  -16.3603   22.4124 C   0  0  0  0  0  0  0  0  0  0  0  0
   15.1696  -15.3859   23.0159 O   0  0  0  0  0  0  0  0  0  0  0  0
   13.2033  -16.5707   22.2387 C   0  0  0  0  0  0  0  0  0  0  0  0
   12.4228  -16.3634   23.4924 C   0  0  0  0  0  0  0  0  0  0  0  0
   10.9542  -16.6380   23.3857 C   0  0  2  0  0  0  0  0  0  0  0  0
   10.4046  -15.5720   22.5256 N   0  0  0  0  0  0  0  0  0  0  0  0
   10.3440  -16.4813   24.7319 C   0  0  0  0  0  0  0  0  0  0  0  0
   10.5629  -17.3681   25.7688 O   0  0  0  0  0  0  0  0  0  0  0  0
    9.5778  -15.5020   24.9893 O   0  0  0  0  0  0  0  0  0  0  0  0
  2  1  1  6
  2  3  1  0
  2  5  1  0
  3  4  1  0
  5  6  2  0
  5 11  1  0
  8  7  1  6
  8 10  1  0
  8  9  1  0
 10 12  1  0
 10 11  1  6
 12 20  1  0
 12 13  2  0
 14 15  1  0
 15 16  2  0
 17 15  1  0
 17 18  1  0
 19 18  1  1
 19 21  1  0
 20 19  1  0
 21 22  1  0
 23 21  2  0
M  END
$$$$
