CTQ.pdb
     RDKit          3D

 23 22  0  0  1  0  0  0  0  0999 V2000
    7.8835  -15.2204   17.9162 N   0  0  0  0  0  0  0  0  0  0  0  0
    8.6681  -14.5904   18.9971 C   0  0  1  0  0  0  0  0  0  0  0  0
    8.1588  -13.1894   19.0975 C   0  0  0  0  0  0  0  0  0  0  0  0
    8.9213  -12.1396   17.8644 S   0  0  0  0  0  0  0  0  0  0  0  0
    8.4987  -15.3910   20.2142 C   0  0  0  0  0  0  0  0  0  0  0  0
    7.3292  -15.6712   20.6021 O   0  0  0  0  0  0  0  0  0  0  0  0
    9.4881  -18.7710   21.3049 C   0  0  0  0  0  0  0  0  0  0  0  0
   10.0537  -17.8775   22.3942 C   0  0  1  0  0  0  0  0  0  0  0  0
   11.4140  -17.7847   22.3570 O   0  0  0  0  0  0  0  0  0  0  0  0
    9.3387  -16.5477   22.2788 C   0  0  2  0  0  0  0  0  0  0  0  0
    9.5610  -15.9003   21.0238 N   0  0  0  0  0  0  0  0  0  0  0  0
    9.5537  -15.7021   23.4715 C   0  0  0  0  0  0  0  0  0  0  0  0
   10.5398  -14.8892   23.4583 O   0  0  0  0  0  0  0  0  0  0  0  0
    5.3212  -12.9929   26.6516 N   0  0  0  0  0  0  0  0  0  0  0  0
    6.4052  -12.5428   27.4640 C   0  0  0  0  0  0  0  0  0  0  0  0
    6.1826  -11.6895   28.3554 O   0  0  0  0  0  0  0  0  0  0  0  0
    7.7361  -13.1332   27.1821 C   0  0  0  0  0  0  0  0  0  0  0  0
    7.7331  -14.0702   26.0220 C   0  0  0  0  0  0  0  0  0  0  0  0
    9.0366  -14.7557   25.7487 C   0  0  2  0  0  0  0  0  0  0  0  0
    8.7751  -15.6957   24.6415 N   0  0  0  0  0  0  0  0  0  0  0  0
    9.4053  -15.5643   26.9401 C   0  0  0  0  0  0  0  0  0  0  0  0
   10.0268  -15.0306   28.0529 O   0  0  0  0  0  0  0  0  0  0  0  0
    9.1580  -16.8091   26.9839 O   0  0  0  0  0  0  0  0  0  0  0  0
  2  1  1  6
  2  3  1  0
  2  5  1  0
  3  4  1  0
  5  6  2  0
  5 11  1  0
  8  7  1  6
  8 10  1  0
  8  9  1  0
 10 12  1  0
 10 11  1  6
 12 20  1  0
 12 13  2  0
 14 15  1  0
 15 16  2  0
 17 15  1  0
 17 18  1  0
 19 18  1  1
 19 21  1  0
 20 19  1  0
 21 22  1  0
 23 21  2  0
M  END
$$$$
