CTQ.pdb
     RDKit          3D

 23 22  0  0  1  0  0  0  0  0999 V2000
    7.6405  -14.8812   18.3154 N   0  0  0  0  0  0  0  0  0  0  0  0
    8.5645  -14.4037   19.3638 C   0  0  1  0  0  0  0  0  0  0  0  0
    8.3048  -12.9378   19.4891 C   0  0  0  0  0  0  0  0  0  0  0  0
    9.1063  -12.0292   18.1714 S   0  0  0  0  0  0  0  0  0  0  0  0
    8.3120  -15.1758   20.5849 C   0  0  0  0  0  0  0  0  0  0  0  0
    7.1184  -15.3448   20.9639 O   0  0  0  0  0  0  0  0  0  0  0  0
    8.7309  -18.6072   21.5931 C   0  0  0  0  0  0  0  0  0  0  0  0
    9.4956  -17.8685   22.6767 C   0  0  1  0  0  0  0  0  0  0  0  0
   10.8479  -18.0099   22.5679 O   0  0  0  0  0  0  0  0  0  0  0  0
    9.0183  -16.4319   22.6415 C   0  0  2  0  0  0  0  0  0  0  0  0
    9.3162  -15.7736   21.4080 N   0  0  0  0  0  0  0  0  0  0  0  0
    9.4071  -15.6929   23.8607 C   0  0  0  0  0  0  0  0  0  0  0  0
   10.4908  -15.0159   23.8296 O   0  0  0  0  0  0  0  0  0  0  0  0
    5.5001  -11.7762   25.7698 N   0  0  0  0  0  0  0  0  0  0  0  0
    6.5437  -12.2257   26.6339 C   0  0  0  0  0  0  0  0  0  0  0  0
    6.4854  -11.9436   27.8542 O   0  0  0  0  0  0  0  0  0  0  0  0
    7.6364  -13.0066   26.0050 C   0  0  0  0  0  0  0  0  0  0  0  0
    8.0738  -14.1748   26.8222 C   0  0  0  0  0  0  0  0  0  0  0  0
    9.2245  -14.9534   26.2625 C   0  0  2  0  0  0  0  0  0  0  0  0
    8.6995  -15.6537   25.0743 N   0  0  0  0  0  0  0  0  0  0  0  0
    9.6199  -15.9906   27.2509 C   0  0  0  0  0  0  0  0  0  0  0  0
   10.3535  -15.7106   28.3879 O   0  0  0  0  0  0  0  0  0  0  0  0
    9.2913  -17.2060   27.0856 O   0  0  0  0  0  0  0  0  0  0  0  0
  2  1  1  6
  2  3  1  0
  2  5  1  0
  3  4  1  0
  5  6  2  0
  5 11  1  0
  8  7  1  6
  8 10  1  0
  8  9  1  0
 10 12  1  0
 10 11  1  6
 12 20  1  0
 12 13  2  0
 14 15  1  0
 15 16  2  0
 17 15  1  0
 17 18  1  0
 19 18  1  1
 19 21  1  0
 20 19  1  0
 21 22  1  0
 23 21  2  0
M  END
$$$$
