CTQ.pdb
     RDKit          3D

 23 22  0  0  1  0  0  0  0  0999 V2000
    7.3167  -15.3042   18.2672 N   0  0  0  0  0  0  0  0  0  0  0  0
    8.2046  -14.5554   19.1793 C   0  0  1  0  0  0  0  0  0  0  0  0
    7.6198  -13.1836   19.2708 C   0  0  0  0  0  0  0  0  0  0  0  0
    8.5359  -12.1716   20.4287 S   0  0  0  0  0  0  0  0  0  0  0  0
    8.2692  -15.2785   20.4537 C   0  0  0  0  0  0  0  0  0  0  0  0
    7.1905  -15.6031   21.0263 O   0  0  0  0  0  0  0  0  0  0  0  0
    8.2565  -18.2935   21.2616 C   0  0  0  0  0  0  0  0  0  0  0  0
    9.5296  -17.9519   22.0149 C   0  0  1  0  0  0  0  0  0  0  0  0
   10.6597  -18.3503   21.3632 O   0  0  0  0  0  0  0  0  0  0  0  0
    9.4746  -16.4675   22.3083 C   0  0  2  0  0  0  0  0  0  0  0  0
    9.4703  -15.6634   21.1263 N   0  0  0  0  0  0  0  0  0  0  0  0
   10.4605  -16.0728   23.3360 C   0  0  0  0  0  0  0  0  0  0  0  0
   11.6101  -15.6775   22.9412 O   0  0  0  0  0  0  0  0  0  0  0  0
    9.5287  -14.9382   29.3375 N   0  0  0  0  0  0  0  0  0  0  0  0
    9.3151  -13.9823   28.2991 C   0  0  0  0  0  0  0  0  0  0  0  0
    8.6069  -12.9753   28.5370 O   0  0  0  0  0  0  0  0  0  0  0  0
    9.9616  -14.2634   26.9944 C   0  0  0  0  0  0  0  0  0  0  0  0
   10.7468  -15.5313   26.9850 C   0  0  0  0  0  0  0  0  0  0  0  0
   11.3803  -15.8829   25.6741 C   0  0  2  0  0  0  0  0  0  0  0  0
   10.2662  -16.0858   24.7277 N   0  0  0  0  0  0  0  0  0  0  0  0
   12.0810  -17.1854   25.8210 C   0  0  0  0  0  0  0  0  0  0  0  0
   13.3310  -17.3104   26.3967 O   0  0  0  0  0  0  0  0  0  0  0  0
   11.5458  -18.2622   25.4129 O   0  0  0  0  0  0  0  0  0  0  0  0
  2  1  1  6
  2  3  1  0
  2  5  1  0
  3  4  1  0
  5  6  2  0
  5 11  1  0
  8  7  1  6
  8 10  1  0
  8  9  1  0
 10 12  1  0
 10 11  1  6
 12 20  1  0
 12 13  2  0
 14 15  1  0
 15 16  2  0
 17 15  1  0
 17 18  1  0
 19 18  1  1
 19 21  1  0
 20 19  1  0
 21 22  1  0
 23 21  2  0
M  END
$$$$
