CTQ.pdb
     RDKit          3D

 23 22  0  0  1  0  0  0  0  0999 V2000
    8.5469  -14.8697   13.5256 N   0  0  0  0  0  0  0  0  0  0  0  0
    8.1386  -15.5917   14.7474 C   0  0  1  0  0  0  0  0  0  0  0  0
    8.4643  -17.0273   14.4920 C   0  0  0  0  0  0  0  0  0  0  0  0
    7.5974  -17.6348   13.0486 S   0  0  0  0  0  0  0  0  0  0  0  0
    8.8438  -14.9987   15.8885 C   0  0  0  0  0  0  0  0  0  0  0  0
   10.0252  -14.5808   15.7254 O   0  0  0  0  0  0  0  0  0  0  0  0
    7.1682  -12.7515   18.8217 C   0  0  0  0  0  0  0  0  0  0  0  0
    8.1329  -13.7683   19.4050 C   0  0  1  0  0  0  0  0  0  0  0  0
    7.5049  -14.7871   20.0593 O   0  0  0  0  0  0  0  0  0  0  0  0
    9.0265  -14.2195   18.2689 C   0  0  2  0  0  0  0  0  0  0  0  0
    8.3050  -14.8423   17.2033 N   0  0  0  0  0  0  0  0  0  0  0  0
   10.2016  -14.9702   18.7580 C   0  0  0  0  0  0  0  0  0  0  0  0
   10.2913  -16.2075   18.4504 O   0  0  0  0  0  0  0  0  0  0  0  0
   15.9314  -13.4932   18.7697 N   0  0  0  0  0  0  0  0  0  0  0  0
   16.1017  -14.5826   19.6763 C   0  0  0  0  0  0  0  0  0  0  0  0
   17.2575  -14.8733   20.0662 O   0  0  0  0  0  0  0  0  0  0  0  0
   14.8715  -15.2984   20.0929 C   0  0  0  0  0  0  0  0  0  0  0  0
   13.6166  -14.6070   19.6788 C   0  0  0  0  0  0  0  0  0  0  0  0
   12.3466  -15.3175   20.0336 C   0  0  2  0  0  0  0  0  0  0  0  0
   11.2517  -14.4598   19.5402 N   0  0  0  0  0  0  0  0  0  0  0  0
   12.2335  -15.3742   21.5145 C   0  0  0  0  0  0  0  0  0  0  0  0
   12.9188  -16.2896   22.2903 O   0  0  0  0  0  0  0  0  0  0  0  0
   11.4836  -14.5637   22.1416 O   0  0  0  0  0  0  0  0  0  0  0  0
  2  1  1  6
  2  3  1  0
  2  5  1  0
  3  4  1  0
  5  6  2  0
  5 11  1  0
  8  7  1  6
  8 10  1  0
  8  9  1  0
 10 12  1  0
 10 11  1  6
 12 20  1  0
 12 13  2  0
 14 15  1  0
 15 16  2  0
 17 15  1  0
 17 18  1  0
 19 18  1  1
 19 21  1  0
 20 19  1  0
 21 22  1  0
 23 21  2  0
M  END
$$$$
