GRP.pdb
     RDKit          3D

 23 23  0  0  1  0  0  0  0  0999 V2000
    9.8447  -20.1658   26.7977 N   0  0  0  0  0  0  0  0  0  0  0  0
    8.6201  -19.5783   26.3091 C   0  0  0  0  0  0  0  0  0  0  0  0
    8.8510  -18.1484   25.9324 C   0  0  0  0  0  0  0  0  0  0  0  0
    9.8997  -17.5444   26.3113 O   0  0  0  0  0  0  0  0  0  0  0  0
    7.1351  -13.5070   18.6515 N   0  0  0  0  0  0  0  0  0  0  0  0
    8.3437  -13.0609   19.2490 C   0  0  0  0  0  0  0  0  0  0  0  0
    9.1327  -12.2363   18.6536 N   0  0  0  0  0  0  0  0  0  0  0  0
    8.7227  -13.5246   20.5516 N   0  0  0  0  0  0  0  0  0  0  0  0
    7.9614  -14.5037   21.2662 C   0  0  0  0  0  0  0  0  0  0  0  0
    8.6561  -14.8389   22.5615 C   0  0  0  0  0  0  0  0  0  0  0  0
    7.8386  -15.8738   23.2701 C   0  0  0  0  0  0  0  0  0  0  0  0
    8.2405  -16.0113   24.7366 C   0  0  2  0  0  0  0  0  0  0  0  0
    7.9469  -17.4031   25.1566 N   0  0  0  0  0  0  0  0  0  0  0  0
    7.3029  -15.1708   25.4994 C   0  0  0  0  0  0  0  0  0  0  0  0
    6.1165  -15.6654   25.5973 O   0  0  0  0  0  0  0  0  0  0  0  0
    9.9988  -11.9520   19.1417 N   0  0  0  0  0  0  0  0  0  0  0  0
    7.5931  -13.9096   26.1134 C   0  0  0  0  0  0  0  0  0  0  0  0
    8.8550  -13.2842   25.9257 C   0  0  0  0  0  0  0  0  0  0  0  0
    8.6059  -11.8420   26.2933 C   0  0  0  0  0  0  0  0  0  0  0  0
    7.6332  -12.0205   27.4797 C   0  0  2  0  0  0  0  0  0  0  0  0
    6.7576  -13.1163   26.9044 C   0  0  0  0  0  0  0  0  0  0  0  0
    5.5721  -12.5617   26.2252 O   0  0  0  0  0  0  0  0  0  0  0  0
    5.5054  -12.5731   24.9841 O   0  0  0  0  0  0  0  0  0  0  0  0
  1  2  1  0
  3  4  2  0
  3  2  1  0
  5  6  1  0
  6  8  1  0
  7  6  2  0
  8  9  1  0
  9 10  1  0
 10 11  1  0
 12 11  1  6
 12 13  1  0
 13  3  1  0
 14 16  1  0
 14 12  1  0
 15 14  2  0
 16 17  1  0
 18 17  1  0
 19 20  1  0
 19 18  1  0
 20 16  1  0
 20 21  1  6
 21 23  1  0
 22 21  2  0
M  END
$$$$
