GRP.pdb
     RDKit          3D

 23 23  0  0  1  0  0  0  0  0999 V2000
   12.6017  -16.5187   20.8255 N   0  0  0  0  0  0  0  0  0  0  0  0
   11.5266  -17.2136   21.4924 C   0  0  0  0  0  0  0  0  0  0  0  0
   11.0309  -16.4035   22.6491 C   0  0  0  0  0  0  0  0  0  0  0  0
   11.6174  -15.3292   22.9806 O   0  0  0  0  0  0  0  0  0  0  0  0
    7.0640  -10.6553   26.2563 N   0  0  0  0  0  0  0  0  0  0  0  0
    6.2687  -11.8278   26.1591 C   0  0  0  0  0  0  0  0  0  0  0  0
    5.0029  -11.7739   25.9316 N   0  0  0  0  0  0  0  0  0  0  0  0
    6.8642  -13.1226   26.3144 N   0  0  0  0  0  0  0  0  0  0  0  0
    6.6068  -14.1970   25.4043 C   0  0  0  0  0  0  0  0  0  0  0  0
    7.3549  -15.4279   25.8491 C   0  0  0  0  0  0  0  0  0  0  0  0
    7.9193  -16.0911   24.6312 C   0  0  0  0  0  0  0  0  0  0  0  0
    9.4354  -15.9321   24.5469 C   0  0  2  0  0  0  0  0  0  0  0  0
    9.9153  -16.7699   23.4211 N   0  0  0  0  0  0  0  0  0  0  0  0
    9.9821  -16.5631   25.7596 C   0  0  0  0  0  0  0  0  0  0  0  0
   10.1178  -17.8419   25.6690 O   0  0  0  0  0  0  0  0  0  0  0  0
    4.4981  -12.6624   25.7731 N   0  0  0  0  0  0  0  0  0  0  0  0
   10.3590  -15.8989   26.9714 C   0  0  0  0  0  0  0  0  0  0  0  0
   10.0396  -14.5300   27.1783 C   0  0  0  0  0  0  0  0  0  0  0  0
   10.1527  -14.3506   28.6724 C   0  0  0  0  0  0  0  0  0  0  0  0
   11.3708  -15.2524   28.9702 C   0  0  1  0  0  0  0  0  0  0  0  0
   11.0144  -16.4306   28.0853 C   0  0  0  0  0  0  0  0  0  0  0  0
   10.2715  -17.4630   28.8314 O   0  0  0  0  0  0  0  0  0  0  0  0
    9.0810  -17.6918   28.5568 O   0  0  0  0  0  0  0  0  0  0  0  0
  1  2  1  0
  3  4  2  0
  3  2  1  0
  5  6  1  0
  6  8  1  0
  7  6  2  0
  8  9  1  0
  9 10  1  0
 10 11  1  0
 12 11  1  1
 12 13  1  0
 13  3  1  0
 14 16  1  0
 14 12  1  0
 15 14  2  0
 16 17  1  0
 18 17  1  0
 19 20  1  0
 19 18  1  0
 20 16  1  0
 20 21  1  1
 21 23  1  0
 22 21  2  0
M  END
$$$$
