GRP.pdb
     RDKit          3D

 23 23  0  0  1  0  0  0  0  0999 V2000
    2.3823  -18.8214   20.9405 N   0  0  0  0  0  0  0  0  0  0  0  0
    3.7047  -19.1361   21.4261 C   0  0  0  0  0  0  0  0  0  0  0  0
    4.3716  -17.8984   21.9393 C   0  0  0  0  0  0  0  0  0  0  0  0
    3.7650  -16.7849   21.9185 O   0  0  0  0  0  0  0  0  0  0  0  0
   10.4896  -14.5364   26.4036 N   0  0  0  0  0  0  0  0  0  0  0  0
    9.3346  -14.2703   27.1858 C   0  0  0  0  0  0  0  0  0  0  0  0
    9.2121  -13.1877   27.8711 N   0  0  0  0  0  0  0  0  0  0  0  0
    8.2578  -15.2156   27.2334 N   0  0  0  0  0  0  0  0  0  0  0  0
    8.1687  -16.3197   26.3267 C   0  0  0  0  0  0  0  0  0  0  0  0
    7.5748  -15.8562   25.0209 C   0  0  0  0  0  0  0  0  0  0  0  0
    6.9326  -17.0364   24.3604 C   0  0  0  0  0  0  0  0  0  0  0  0
    6.2804  -16.6608   23.0321 C   0  0  2  0  0  0  0  0  0  0  0  0
    5.6757  -17.8895   22.4626 N   0  0  0  0  0  0  0  0  0  0  0  0
    7.3812  -16.3121   22.1188 C   0  0  0  0  0  0  0  0  0  0  0  0
    8.2004  -17.2812   21.8915 O   0  0  0  0  0  0  0  0  0  0  0  0
    8.3438  -13.0515   28.4159 N   0  0  0  0  0  0  0  0  0  0  0  0
    7.6003  -15.0430   21.4917 C   0  0  0  0  0  0  0  0  0  0  0  0
    6.8092  -13.9153   21.8398 C   0  0  0  0  0  0  0  0  0  0  0  0
    7.6228  -12.7373   21.3627 C   0  0  0  0  0  0  0  0  0  0  0  0
    8.2019  -13.3112   20.0508 C   0  0  2  0  0  0  0  0  0  0  0  0
    8.5645  -14.6996   20.5401 C   0  0  0  0  0  0  0  0  0  0  0  0
    9.9649  -14.7641   20.9972 O   0  0  0  0  0  0  0  0  0  0  0  0
   10.8917  -14.6674   20.1748 O   0  0  0  0  0  0  0  0  0  0  0  0
  1  2  1  0
  3  4  2  0
  3  2  1  0
  5  6  1  0
  6  8  1  0
  7  6  2  0
  8  9  1  0
  9 10  1  0
 10 11  1  0
 12 11  1  1
 12 13  1  0
 13  3  1  0
 14 16  1  0
 14 12  1  0
 15 14  2  0
 16 17  1  0
 18 17  1  0
 19 20  1  0
 19 18  1  0
 20 16  1  0
 20 21  1  6
 21 23  1  0
 22 21  2  0
M  END
$$$$
