GRP.pdb
     RDKit          3D

 23 23  0  0  1  0  0  0  0  0999 V2000
    9.4248  -15.8861   19.4146 N   0  0  0  0  0  0  0  0  0  0  0  0
    9.7445  -16.2483   20.7747 C   0  0  0  0  0  0  0  0  0  0  0  0
    8.7094  -15.7035   21.7084 C   0  0  0  0  0  0  0  0  0  0  0  0
    7.9210  -14.7852   21.3298 O   0  0  0  0  0  0  0  0  0  0  0  0
    8.3910  -21.4217   25.2308 N   0  0  0  0  0  0  0  0  0  0  0  0
    6.9955  -21.1583   25.2401 C   0  0  0  0  0  0  0  0  0  0  0  0
    6.1304  -22.0835   25.4689 N   0  0  0  0  0  0  0  0  0  0  0  0
    6.5061  -19.8340   24.9908 N   0  0  0  0  0  0  0  0  0  0  0  0
    6.9062  -19.0737   23.8459 C   0  0  0  0  0  0  0  0  0  0  0  0
    6.1687  -17.7590   23.8280 C   0  0  0  0  0  0  0  0  0  0  0  0
    6.9109  -16.8005   24.7065 C   0  0  0  0  0  0  0  0  0  0  0  0
    7.4849  -15.6286   23.9139 C   0  0  2  0  0  0  0  0  0  0  0  0
    8.5481  -16.1608   23.0273 N   0  0  0  0  0  0  0  0  0  0  0  0
    8.1850  -14.7771   24.8899 C   0  0  0  0  0  0  0  0  0  0  0  0
    9.3974  -15.1435   25.1302 O   0  0  0  0  0  0  0  0  0  0  0  0
    5.1280  -21.8313   25.4395 N   0  0  0  0  0  0  0  0  0  0  0  0
    7.6510  -13.6281   25.5578 C   0  0  0  0  0  0  0  0  0  0  0  0
    6.3482  -13.1508   25.2515 C   0  0  0  0  0  0  0  0  0  0  0  0
    5.9850  -12.2935   26.4391 C   0  0  0  0  0  0  0  0  0  0  0  0
    7.3521  -11.6410   26.7407 C   0  0  2  0  0  0  0  0  0  0  0  0
    8.2386  -12.8583   26.5654 C   0  0  0  0  0  0  0  0  0  0  0  0
    8.4678  -13.5504   27.8470 O   0  0  0  0  0  0  0  0  0  0  0  0
    7.9725  -14.6733   28.0437 O   0  0  0  0  0  0  0  0  0  0  0  0
  1  2  1  0
  3  4  2  0
  3  2  1  0
  5  6  1  0
  6  8  1  0
  7  6  2  0
  8  9  1  0
  9 10  1  0
 10 11  1  0
 12 11  1  1
 12 13  1  0
 13  3  1  0
 14 16  1  0
 14 12  1  0
 15 14  2  0
 16 17  1  0
 18 17  1  0
 19 20  1  0
 19 18  1  0
 20 16  1  0
 20 21  1  1
 21 23  1  0
 22 21  2  0
M  END
$$$$
