GRP.pdb
     RDKit          3D

 23 23  0  0  1  0  0  0  0  0999 V2000
   12.9385  -16.6570   21.6796 N   0  0  0  0  0  0  0  0  0  0  0  0
   11.8394  -17.1149   22.4955 C   0  0  0  0  0  0  0  0  0  0  0  0
   11.0145  -15.9505   22.9467 C   0  0  0  0  0  0  0  0  0  0  0  0
   11.5715  -14.8985   23.3841 O   0  0  0  0  0  0  0  0  0  0  0  0
    8.1401  -12.3414   18.6094 N   0  0  0  0  0  0  0  0  0  0  0  0
    7.9105  -13.6418   18.0868 C   0  0  0  0  0  0  0  0  0  0  0  0
    8.4517  -14.0385   16.9885 N   0  0  0  0  0  0  0  0  0  0  0  0
    7.0564  -14.5612   18.7800 N   0  0  0  0  0  0  0  0  0  0  0  0
    6.7155  -14.3963   20.1604 C   0  0  0  0  0  0  0  0  0  0  0  0
    7.9724  -14.3640   20.9922 C   0  0  0  0  0  0  0  0  0  0  0  0
    7.5986  -14.6798   22.4071 C   0  0  0  0  0  0  0  0  0  0  0  0
    8.8227  -14.7552   23.3164 C   0  0  2  0  0  0  0  0  0  0  0  0
    9.6097  -15.9470   22.9162 N   0  0  0  0  0  0  0  0  0  0  0  0
    8.3145  -15.0617   24.6638 C   0  0  0  0  0  0  0  0  0  0  0  0
    8.3549  -16.3140   24.9668 O   0  0  0  0  0  0  0  0  0  0  0  0
    8.2943  -15.0170   16.6934 N   0  0  0  0  0  0  0  0  0  0  0  0
    7.8064  -14.1222   25.6183 C   0  0  0  0  0  0  0  0  0  0  0  0
    7.6491  -12.7523   25.2754 C   0  0  0  0  0  0  0  0  0  0  0  0
    6.6853  -12.2254   26.3102 C   0  0  0  0  0  0  0  0  0  0  0  0
    7.1659  -12.9981   27.5582 C   0  0  1  0  0  0  0  0  0  0  0  0
    7.3759  -14.3601   26.9264 C   0  0  0  0  0  0  0  0  0  0  0  0
    6.1783  -15.2098   27.0606 O   0  0  0  0  0  0  0  0  0  0  0  0
    5.3951  -15.3347   26.1036 O   0  0  0  0  0  0  0  0  0  0  0  0
  1  2  1  0
  3  4  2  0
  3  2  1  0
  5  6  1  0
  6  8  1  0
  7  6  2  0
  8  9  1  0
  9 10  1  0
 10 11  1  0
 12 11  1  6
 12 13  1  0
 13  3  1  0
 14 16  1  0
 14 12  1  0
 15 14  2  0
 16 17  1  0
 18 17  1  0
 19 20  1  0
 19 18  1  0
 20 16  1  0
 20 21  1  1
 21 23  1  0
 22 21  2  0
M  END
$$$$
