GRP.pdb
     RDKit          3D

 23 23  0  0  1  0  0  0  0  0999 V2000
   13.3675  -18.0795   25.1894 N   0  0  0  0  0  0  0  0  0  0  0  0
   11.9500  -18.1486   25.4529 C   0  0  0  0  0  0  0  0  0  0  0  0
   11.2890  -16.8686   25.0471 C   0  0  0  0  0  0  0  0  0  0  0  0
   11.9014  -15.7640   25.1611 O   0  0  0  0  0  0  0  0  0  0  0  0
    8.2715  -11.5399   19.2945 N   0  0  0  0  0  0  0  0  0  0  0  0
    8.1136  -12.9513   19.3000 C   0  0  0  0  0  0  0  0  0  0  0  0
    8.7868  -13.7139   18.5114 N   0  0  0  0  0  0  0  0  0  0  0  0
    7.1854  -13.5733   20.1983 N   0  0  0  0  0  0  0  0  0  0  0  0
    7.4856  -14.7931   20.8845 C   0  0  0  0  0  0  0  0  0  0  0  0
    8.0973  -14.4818   22.2268 C   0  0  0  0  0  0  0  0  0  0  0  0
    8.6695  -15.7501   22.7793 C   0  0  0  0  0  0  0  0  0  0  0  0
    9.3643  -15.5250   24.1201 C   0  0  2  0  0  0  0  0  0  0  0  0
    9.9844  -16.8089   24.5284 N   0  0  0  0  0  0  0  0  0  0  0  0
    8.2936  -15.2830   25.1013 C   0  0  0  0  0  0  0  0  0  0  0  0
    7.6852  -16.3519   25.4873 O   0  0  0  0  0  0  0  0  0  0  0  0
    8.6305  -14.7344   18.5695 N   0  0  0  0  0  0  0  0  0  0  0  0
    7.8971  -14.0147   25.6362 C   0  0  0  0  0  0  0  0  0  0  0  0
    8.4126  -12.8060   25.0960 C   0  0  0  0  0  0  0  0  0  0  0  0
    7.4385  -11.7525   25.5635 C   0  0  0  0  0  0  0  0  0  0  0  0
    7.1213  -12.2756   26.9818 C   0  0  1  0  0  0  0  0  0  0  0  0
    6.9881  -13.7521   26.6646 C   0  0  0  0  0  0  0  0  0  0  0  0
    5.5876  -14.1227   26.3899 O   0  0  0  0  0  0  0  0  0  0  0  0
    5.2473  -14.4567   25.2420 O   0  0  0  0  0  0  0  0  0  0  0  0
  1  2  1  0
  3  4  2  0
  3  2  1  0
  5  6  1  0
  6  8  1  0
  7  6  2  0
  8  9  1  0
  9 10  1  0
 10 11  1  0
 12 11  1  6
 12 13  1  0
 13  3  1  0
 14 16  1  0
 14 12  1  0
 15 14  2  0
 16 17  1  0
 18 17  1  0
 19 20  1  0
 19 18  1  0
 20 16  1  0
 20 21  1  6
 21 23  1  0
 22 21  2  0
M  END
$$$$
