GRP.pdb
     RDKit          3D

 23 23  0  0  1  0  0  0  0  0999 V2000
    8.1162  -13.0974   19.1117 N   0  0  0  0  0  0  0  0  0  0  0  0
    8.9022  -13.7611   20.1242 C   0  0  0  0  0  0  0  0  0  0  0  0
    8.0794  -13.9728   21.3564 C   0  0  0  0  0  0  0  0  0  0  0  0
    7.0459  -13.2693   21.5687 O   0  0  0  0  0  0  0  0  0  0  0  0
    4.5654  -20.1585   23.2015 N   0  0  0  0  0  0  0  0  0  0  0  0
    5.6146  -20.5954   22.3500 C   0  0  0  0  0  0  0  0  0  0  0  0
    5.5935  -21.7505   21.7826 N   0  0  0  0  0  0  0  0  0  0  0  0
    6.7426  -19.7477   22.0960 N   0  0  0  0  0  0  0  0  0  0  0  0
    7.3075  -18.9037   23.1047 C   0  0  0  0  0  0  0  0  0  0  0  0
    7.0066  -17.4615   22.7854 C   0  0  0  0  0  0  0  0  0  0  0  0
    7.5711  -16.6170   23.8852 C   0  0  0  0  0  0  0  0  0  0  0  0
    7.5446  -15.1315   23.5337 C   0  0  2  0  0  0  0  0  0  0  0  0
    8.3895  -14.9371   22.3304 N   0  0  0  0  0  0  0  0  0  0  0  0
    8.2555  -14.4398   24.6217 C   0  0  0  0  0  0  0  0  0  0  0  0
    9.5082  -14.7340   24.6992 O   0  0  0  0  0  0  0  0  0  0  0  0
    6.3926  -22.0125   21.1808 N   0  0  0  0  0  0  0  0  0  0  0  0
    7.6917  -13.5090   25.5531 C   0  0  0  0  0  0  0  0  0  0  0  0
    6.3500  -13.0634   25.4118 C   0  0  0  0  0  0  0  0  0  0  0  0
    5.9997  -12.5217   26.7760 C   0  0  0  0  0  0  0  0  0  0  0  0
    7.3410  -11.8637   27.1678 C   0  0  1  0  0  0  0  0  0  0  0  0
    8.2853  -12.9481   26.6872 C   0  0  0  0  0  0  0  0  0  0  0  0
    8.6187  -13.8940   27.7681 O   0  0  0  0  0  0  0  0  0  0  0  0
    9.3320  -13.5262   28.7171 O   0  0  0  0  0  0  0  0  0  0  0  0
  1  2  1  0
  3  4  2  0
  3  2  1  0
  5  6  1  0
  6  8  1  0
  7  6  2  0
  8  9  1  0
  9 10  1  0
 10 11  1  0
 12 11  1  1
 12 13  1  0
 13  3  1  0
 14 16  1  0
 14 12  1  0
 15 14  2  0
 16 17  1  0
 18 17  1  0
 19 20  1  0
 19 18  1  0
 20 16  1  0
 20 21  1  1
 21 23  1  0
 22 21  2  0
M  END
$$$$
