GRP.pdb
     RDKit          3D

 23 23  0  0  1  0  0  0  0  0999 V2000
    7.9210  -12.5866   19.1442 N   0  0  0  0  0  0  0  0  0  0  0  0
    8.5821  -13.6056   19.9240 C   0  0  0  0  0  0  0  0  0  0  0  0
    7.8335  -13.8443   21.1978 C   0  0  0  0  0  0  0  0  0  0  0  0
    6.8753  -13.0843   21.5330 O   0  0  0  0  0  0  0  0  0  0  0  0
    9.0947  -18.3828   27.5970 N   0  0  0  0  0  0  0  0  0  0  0  0
    7.9460  -18.9283   26.9647 C   0  0  0  0  0  0  0  0  0  0  0  0
    6.9950  -19.4756   27.6375 N   0  0  0  0  0  0  0  0  0  0  0  0
    7.8137  -18.8830   25.5379 N   0  0  0  0  0  0  0  0  0  0  0  0
    6.5820  -18.5397   24.8945 C   0  0  0  0  0  0  0  0  0  0  0  0
    6.4989  -17.0441   24.7246 C   0  0  0  0  0  0  0  0  0  0  0  0
    7.3199  -16.6682   23.5304 C   0  0  0  0  0  0  0  0  0  0  0  0
    7.3157  -15.1609   23.2878 C   0  0  2  0  0  0  0  0  0  0  0  0
    8.1348  -14.8957   22.0801 N   0  0  0  0  0  0  0  0  0  0  0  0
    8.0675  -14.5637   24.4040 C   0  0  0  0  0  0  0  0  0  0  0  0
    9.3055  -14.9197   24.4517 O   0  0  0  0  0  0  0  0  0  0  0  0
    6.1212  -19.7157   27.1392 N   0  0  0  0  0  0  0  0  0  0  0  0
    7.5559  -13.6602   25.3907 C   0  0  0  0  0  0  0  0  0  0  0  0
    6.1989  -13.2404   25.3564 C   0  0  0  0  0  0  0  0  0  0  0  0
    5.9398  -12.7284   26.7521 C   0  0  0  0  0  0  0  0  0  0  0  0
    7.2933  -12.0490   27.0558 C   0  0  2  0  0  0  0  0  0  0  0  0
    8.2205  -13.1055   26.4878 C   0  0  0  0  0  0  0  0  0  0  0  0
    8.6513  -14.0617   27.5243 O   0  0  0  0  0  0  0  0  0  0  0  0
    8.2335  -15.2321   27.5017 O   0  0  0  0  0  0  0  0  0  0  0  0
  1  2  1  0
  3  4  2  0
  3  2  1  0
  5  6  1  0
  6  8  1  0
  7  6  2  0
  8  9  1  0
  9 10  1  0
 10 11  1  0
 12 11  1  1
 12 13  1  0
 13  3  1  0
 14 16  1  0
 14 12  1  0
 15 14  2  0
 16 17  1  0
 18 17  1  0
 19 20  1  0
 19 18  1  0
 20 16  1  0
 20 21  1  1
 21 23  1  0
 22 21  2  0
M  END
$$$$
