GRP.pdb
     RDKit          3D

 23 23  0  0  1  0  0  0  0  0999 V2000
    8.1443  -12.6647   18.2323 N   0  0  0  0  0  0  0  0  0  0  0  0
    8.9955  -12.9452   19.3638 C   0  0  0  0  0  0  0  0  0  0  0  0
    8.1735  -13.4261   20.5183 C   0  0  0  0  0  0  0  0  0  0  0  0
    6.9480  -13.1133   20.6101 O   0  0  0  0  0  0  0  0  0  0  0  0
    9.5441  -19.4362   22.3477 N   0  0  0  0  0  0  0  0  0  0  0  0
    9.1435  -19.2094   21.0042 C   0  0  0  0  0  0  0  0  0  0  0  0
    9.9219  -19.4621   20.0107 N   0  0  0  0  0  0  0  0  0  0  0  0
    7.8411  -18.6846   20.7148 N   0  0  0  0  0  0  0  0  0  0  0  0
    6.8852  -18.4015   21.7419 C   0  0  0  0  0  0  0  0  0  0  0  0
    6.6858  -16.9112   21.8515 C   0  0  0  0  0  0  0  0  0  0  0  0
    7.9051  -16.3278   22.4953 C   0  0  0  0  0  0  0  0  0  0  0  0
    7.8211  -14.8071   22.6012 C   0  0  2  0  0  0  0  0  0  0  0  0
    8.6910  -14.2323   21.5464 N   0  0  0  0  0  0  0  0  0  0  0  0
    8.4678  -14.4482   23.8742 C   0  0  0  0  0  0  0  0  0  0  0  0
    9.6686  -14.9006   23.9978 O   0  0  0  0  0  0  0  0  0  0  0  0
    9.5615  -19.2983   19.0554 N   0  0  0  0  0  0  0  0  0  0  0  0
    7.8955  -13.6713   24.9328 C   0  0  0  0  0  0  0  0  0  0  0  0
    6.6262  -13.0527   24.7747 C   0  0  0  0  0  0  0  0  0  0  0  0
    6.1801  -12.7682   26.1880 C   0  0  0  0  0  0  0  0  0  0  0  0
    7.5264  -12.3667   26.8299 C   0  0  1  0  0  0  0  0  0  0  0  0
    8.4105  -13.4305   26.2095 C   0  0  0  0  0  0  0  0  0  0  0  0
    8.5307  -14.6121   27.0834 O   0  0  0  0  0  0  0  0  0  0  0  0
    7.9442  -15.6668   26.7859 O   0  0  0  0  0  0  0  0  0  0  0  0
  1  2  1  0
  3  4  2  0
  3  2  1  0
  5  6  1  0
  6  8  1  0
  7  6  2  0
  8  9  1  0
  9 10  1  0
 10 11  1  0
 12 11  1  6
 12 13  1  0
 13  3  1  0
 14 16  1  0
 14 12  1  0
 15 14  2  0
 16 17  1  0
 18 17  1  0
 19 20  1  0
 19 18  1  0
 20 16  1  0
 20 21  1  1
 21 23  1  0
 22 21  2  0
M  END
$$$$
