GRP.pdb
     RDKit          3D

 23 23  0  0  1  0  0  0  0  0999 V2000
    8.5362  -12.4239   18.6145 N   0  0  0  0  0  0  0  0  0  0  0  0
    9.2128  -13.0530   19.7235 C   0  0  0  0  0  0  0  0  0  0  0  0
    8.2293  -13.3933   20.7991 C   0  0  0  0  0  0  0  0  0  0  0  0
    7.0035  -13.0965   20.6674 O   0  0  0  0  0  0  0  0  0  0  0  0
    8.8548  -20.0660   19.8197 N   0  0  0  0  0  0  0  0  0  0  0  0
    7.8933  -19.2491   19.1679 C   0  0  0  0  0  0  0  0  0  0  0  0
    7.4945  -19.4934   17.9688 N   0  0  0  0  0  0  0  0  0  0  0  0
    7.3330  -18.1129   19.8391 N   0  0  0  0  0  0  0  0  0  0  0  0
    7.8150  -17.6601   21.1086 C   0  0  0  0  0  0  0  0  0  0  0  0
    6.9569  -16.5220   21.5996 C   0  0  0  0  0  0  0  0  0  0  0  0
    7.5294  -16.0370   22.8951 C   0  0  0  0  0  0  0  0  0  0  0  0
    7.5724  -14.5124   22.9637 C   0  0  2  0  0  0  0  0  0  0  0  0
    8.5896  -14.0452   21.9907 N   0  0  0  0  0  0  0  0  0  0  0  0
    8.1208  -14.1767   24.2882 C   0  0  0  0  0  0  0  0  0  0  0  0
    9.3412  -14.5540   24.4609 O   0  0  0  0  0  0  0  0  0  0  0  0
    6.8067  -18.8489   17.5432 N   0  0  0  0  0  0  0  0  0  0  0  0
    7.4380  -13.4944   25.3465 C   0  0  0  0  0  0  0  0  0  0  0  0
    6.0911  -13.0710   25.1870 C   0  0  0  0  0  0  0  0  0  0  0  0
    5.6058  -12.8573   26.5998 C   0  0  0  0  0  0  0  0  0  0  0  0
    6.8767  -12.2609   27.2440 C   0  0  1  0  0  0  0  0  0  0  0  0
    7.9098  -13.1810   26.6241 C   0  0  0  0  0  0  0  0  0  0  0  0
    8.2029  -14.3325   27.4973 O   0  0  0  0  0  0  0  0  0  0  0  0
    8.7981  -14.1593   28.5747 O   0  0  0  0  0  0  0  0  0  0  0  0
  1  2  1  0
  3  4  2  0
  3  2  1  0
  5  6  1  0
  6  8  1  0
  7  6  2  0
  8  9  1  0
  9 10  1  0
 10 11  1  0
 12 11  1  1
 12 13  1  0
 13  3  1  0
 14 16  1  0
 14 12  1  0
 15 14  2  0
 16 17  1  0
 18 17  1  0
 19 20  1  0
 19 18  1  0
 20 16  1  0
 20 21  1  1
 21 23  1  0
 22 21  2  0
M  END
$$$$
