GRP.pdb
     RDKit          3D

 23 23  0  0  1  0  0  0  0  0999 V2000
   12.2353  -18.8499   25.2644 N   0  0  0  0  0  0  0  0  0  0  0  0
   10.8204  -18.7168   25.0117 C   0  0  0  0  0  0  0  0  0  0  0  0
   10.4664  -17.2754   24.8189 C   0  0  0  0  0  0  0  0  0  0  0  0
   11.2989  -16.3640   25.1095 O   0  0  0  0  0  0  0  0  0  0  0  0
    7.5918  -12.4411   18.3326 N   0  0  0  0  0  0  0  0  0  0  0  0
    8.5821  -13.2194   18.9888 C   0  0  0  0  0  0  0  0  0  0  0  0
    9.8357  -13.0824   18.7310 N   0  0  0  0  0  0  0  0  0  0  0  0
    8.2053  -14.1934   19.9710 N   0  0  0  0  0  0  0  0  0  0  0  0
    7.2395  -13.9173   20.9907 C   0  0  0  0  0  0  0  0  0  0  0  0
    7.9145  -13.9086   22.3386 C   0  0  0  0  0  0  0  0  0  0  0  0
    8.2433  -15.3237   22.7001 C   0  0  0  0  0  0  0  0  0  0  0  0
    8.9358  -15.4188   24.0575 C   0  0  2  0  0  0  0  0  0  0  0  0
    9.2244  -16.8501   24.3178 N   0  0  0  0  0  0  0  0  0  0  0  0
    7.9270  -15.0388   25.0602 C   0  0  0  0  0  0  0  0  0  0  0  0
    7.0491  -15.9537   25.2931 O   0  0  0  0  0  0  0  0  0  0  0  0
   10.5018  -13.7207   19.1981 N   0  0  0  0  0  0  0  0  0  0  0  0
    7.8506  -13.7938   25.7645 C   0  0  0  0  0  0  0  0  0  0  0  0
    8.6836  -12.7018   25.4006 C   0  0  0  0  0  0  0  0  0  0  0  0
    7.9970  -11.5017   26.0052 C   0  0  0  0  0  0  0  0  0  0  0  0
    7.4966  -12.1072   27.3351 C   0  0  1  0  0  0  0  0  0  0  0  0
    6.9988  -13.4412   26.8148 C   0  0  0  0  0  0  0  0  0  0  0  0
    5.5627  -13.3916   26.4838 O   0  0  0  0  0  0  0  0  0  0  0  0
    5.1965  -13.4496   25.2975 O   0  0  0  0  0  0  0  0  0  0  0  0
  1  2  1  0
  3  4  2  0
  3  2  1  0
  5  6  1  0
  6  8  1  0
  7  6  2  0
  8  9  1  0
  9 10  1  0
 10 11  1  0
 12 11  1  6
 12 13  1  0
 13  3  1  0
 14 16  1  0
 14 12  1  0
 15 14  2  0
 16 17  1  0
 18 17  1  0
 19 20  1  0
 19 18  1  0
 20 16  1  0
 20 21  1  6
 21 23  1  0
 22 21  2  0
M  END
$$$$
