KRS.pdb
     RDKit          3D

 27 26  0  0  1  0  0  0  0  0999 V2000
   18.6171  -21.3942  -13.4388 N   0  0  0  0  0  0  0  0  0  0  0  0
   19.6374  -21.5805  -14.4513 C   0  0  1  0  0  0  0  0  0  0  0  0
   19.0406  -21.2235  -15.7846 C   0  0  0  0  0  0  0  0  0  0  0  0
   18.8934  -22.4565  -16.6436 C   0  0  0  0  0  0  0  0  0  0  0  0
   17.5236  -22.6804  -17.1840 C   0  0  0  0  0  0  0  0  0  0  0  0
   17.5970  -23.8515  -18.1419 C   0  0  0  0  0  0  0  0  0  0  0  0
   16.3284  -24.1262  -18.7619 N   0  0  0  0  0  0  0  0  0  0  0  0
   20.8499  -20.8039  -14.1366 C   0  0  0  0  0  0  0  0  0  0  0  0
   20.7185  -19.7394  -13.4596 O   0  0  0  0  0  0  0  0  0  0  0  0
   26.7978  -19.6737  -10.0238 N   0  0  0  0  0  0  0  0  0  0  0  0
   25.8854  -20.7148   -9.6973 C   0  0  0  0  0  0  0  0  0  0  0  0
   25.2658  -20.7483   -8.5532 N   0  0  0  0  0  0  0  0  0  0  0  0
   25.5878  -21.7894  -10.5974 N   0  0  0  0  0  0  0  0  0  0  0  0
   26.1584  -21.8419  -11.9310 C   0  0  0  0  0  0  0  0  0  0  0  0
   25.4124  -20.8479  -12.7844 C   0  0  0  0  0  0  0  0  0  0  0  0
   24.1655  -21.3660  -13.3821 C   0  0  0  0  0  0  0  0  0  0  0  0
   23.3659  -20.4556  -14.2387 C   0  0  2  0  0  0  0  0  0  0  0  0
   22.1221  -21.1929  -14.5518 N   0  0  0  0  0  0  0  0  0  0  0  0
   23.9617  -20.1052  -15.5422 C   0  0  0  0  0  0  0  0  0  0  0  0
   24.1427  -21.0149  -16.4283 O   0  0  0  0  0  0  0  0  0  0  0  0
   24.5764  -21.4929   -8.3245 O   0  0  0  0  0  0  0  0  0  0  0  0
   26.1723  -16.8295  -18.3954 C   0  0  0  0  0  0  0  0  0  0  0  0
   25.4889  -17.1168  -17.2193 C   0  0  2  0  0  0  0  0  0  0  0  0
   25.0985  -18.5975  -17.1999 N   0  0  0  0  0  0  0  0  0  0  0  0
   24.3735  -18.8085  -15.9400 C   0  0  0  0  0  0  0  0  0  0  0  0
   26.3082  -19.4235  -17.2693 O   0  0  0  0  0  0  0  0  0  0  0  0
   26.7382  -19.9987  -18.4525 O   0  0  0  0  0  0  0  0  0  0  0  0
  2  3  1  0
  2  1  1  1
  4  3  1  0
  5  4  1  0
  6  5  1  0
  7  6  1  0
  8  9  2  0
  8  2  1  0
 10 11  1  0
 11 12  2  0
 13 11  1  0
 13 14  1  0
 15 14  1  0
 16 15  1  0
 17 16  1  1
 17 18  1  0
 18  8  1  0
 19 20  2  0
 19 17  1  0
 22 21  1  0
 23 24  1  0
 23 22  1  6
 24 19  1  0
 25 23  1  0
 26 25  1  0
 27 25  2  0
M  END
$$$$
