KRS.pdb
     RDKit          3D

 27 26  0  0  1  0  0  0  0  0999 V2000
   25.3257  -19.1562  -17.6973 N   0  0  0  0  0  0  0  0  0  0  0  0
   24.3812  -20.2027  -18.0346 C   0  0  1  0  0  0  0  0  0  0  0  0
   25.0768  -21.1840  -18.9370 C   0  0  0  0  0  0  0  0  0  0  0  0
   24.9517  -20.7546  -20.3792 C   0  0  0  0  0  0  0  0  0  0  0  0
   25.6131  -21.6602  -21.3594 C   0  0  0  0  0  0  0  0  0  0  0  0
   25.4155  -21.0632  -22.7374 C   0  0  0  0  0  0  0  0  0  0  0  0
   26.0187  -21.8650  -23.7682 N   0  0  0  0  0  0  0  0  0  0  0  0
   23.8239  -20.8297  -16.8227 C   0  0  0  0  0  0  0  0  0  0  0  0
   23.0716  -21.8409  -16.9654 O   0  0  0  0  0  0  0  0  0  0  0  0
   27.3916  -21.0981   -9.2191 N   0  0  0  0  0  0  0  0  0  0  0  0
   27.3421  -20.8580  -10.6200 C   0  0  0  0  0  0  0  0  0  0  0  0
   28.4074  -20.9270  -11.3647 N   0  0  0  0  0  0  0  0  0  0  0  0
   26.1266  -20.5263  -11.3028 N   0  0  0  0  0  0  0  0  0  0  0  0
   24.8375  -20.9945  -10.8274 C   0  0  0  0  0  0  0  0  0  0  0  0
   23.7934  -20.5260  -11.8087 C   0  0  0  0  0  0  0  0  0  0  0  0
   24.2881  -20.3351  -13.1869 C   0  0  0  0  0  0  0  0  0  0  0  0
   23.4994  -20.9133  -14.3029 C   0  0  2  0  0  0  0  0  0  0  0  0
   24.0909  -20.3566  -15.5394 N   0  0  0  0  0  0  0  0  0  0  0  0
   22.0709  -20.5464  -14.3429 C   0  0  0  0  0  0  0  0  0  0  0  0
   21.7291  -19.3120  -14.4137 O   0  0  0  0  0  0  0  0  0  0  0  0
   28.3801  -20.7120  -12.3820 O   0  0  0  0  0  0  0  0  0  0  0  0
   19.0736  -23.2964  -14.0801 C   0  0  0  0  0  0  0  0  0  0  0  0
   18.7398  -22.1480  -14.7891 C   0  0  1  0  0  0  0  0  0  0  0  0
   19.5955  -20.9754  -14.3011 N   0  0  0  0  0  0  0  0  0  0  0  0
   20.9836  -21.4553  -14.3118 C   0  0  0  0  0  0  0  0  0  0  0  0
   19.1706  -20.5877  -12.9522 O   0  0  0  0  0  0  0  0  0  0  0  0
   17.9651  -19.9497  -12.7166 O   0  0  0  0  0  0  0  0  0  0  0  0
  2  3  1  0
  2  1  1  1
  4  3  1  0
  5  4  1  0
  6  5  1  0
  7  6  1  0
  8  9  2  0
  8  2  1  0
 10 11  1  0
 11 12  2  0
 13 11  1  0
 13 14  1  0
 15 14  1  0
 16 15  1  0
 17 16  1  1
 17 18  1  0
 18  8  1  0
 19 20  2  0
 19 17  1  0
 22 21  1  0
 23 24  1  0
 23 22  1  6
 24 19  1  0
 25 23  1  0
 26 25  1  0
 27 25  2  0
M  END
$$$$
