KRS.pdb
     RDKit          3D

 27 26  0  0  1  0  0  0  0  0999 V2000
   26.9410  -21.6416  -15.2835 N   0  0  0  0  0  0  0  0  0  0  0  0
   26.0490  -20.6286  -14.7552 C   0  0  1  0  0  0  0  0  0  0  0  0
   25.9029  -19.5501  -15.7930 C   0  0  0  0  0  0  0  0  0  0  0  0
   27.2430  -19.2250  -16.4079 C   0  0  0  0  0  0  0  0  0  0  0  0
   27.4860  -19.8470  -17.7392 C   0  0  0  0  0  0  0  0  0  0  0  0
   28.7133  -19.1877  -18.3336 C   0  0  0  0  0  0  0  0  0  0  0  0
   28.4313  -17.8706  -18.8386 N   0  0  0  0  0  0  0  0  0  0  0  0
   24.7592  -21.2133  -14.3468 C   0  0  0  0  0  0  0  0  0  0  0  0
   24.4701  -22.3747  -14.7669 O   0  0  0  0  0  0  0  0  0  0  0  0
   18.9902  -22.2306   -9.2386 N   0  0  0  0  0  0  0  0  0  0  0  0
   20.1064  -22.1479   -8.3611 C   0  0  0  0  0  0  0  0  0  0  0  0
   20.2539  -22.9685   -7.3616 N   0  0  0  0  0  0  0  0  0  0  0  0
   21.1368  -21.1640   -8.5152 N   0  0  0  0  0  0  0  0  0  0  0  0
   21.0802  -20.1645   -9.5662 C   0  0  0  0  0  0  0  0  0  0  0  0
   21.2127  -20.8831  -10.8849 C   0  0  0  0  0  0  0  0  0  0  0  0
   22.4571  -20.5873  -11.6228 C   0  0  0  0  0  0  0  0  0  0  0  0
   22.6093  -21.1374  -12.9925 C   0  0  2  0  0  0  0  0  0  0  0  0
   23.8553  -20.5432  -13.5245 N   0  0  0  0  0  0  0  0  0  0  0  0
   21.5514  -20.7761  -13.9554 C   0  0  0  0  0  0  0  0  0  0  0  0
   21.4211  -19.5579  -14.3356 O   0  0  0  0  0  0  0  0  0  0  0  0
   21.1266  -22.9927   -6.7962 O   0  0  0  0  0  0  0  0  0  0  0  0
   19.1521  -23.5395  -15.6940 C   0  0  0  0  0  0  0  0  0  0  0  0
   19.3343  -22.3749  -16.4313 C   0  0  1  0  0  0  0  0  0  0  0  0
   19.6027  -21.2027  -15.4832 N   0  0  0  0  0  0  0  0  0  0  0  0
   20.6201  -21.6742  -14.5345 C   0  0  0  0  0  0  0  0  0  0  0  0
   18.3597  -20.8322  -14.7991 O   0  0  0  0  0  0  0  0  0  0  0  0
   17.2743  -20.3084  -15.4800 O   0  0  0  0  0  0  0  0  0  0  0  0
  2  3  1  0
  2  1  1  6
  4  3  1  0
  5  4  1  0
  6  5  1  0
  7  6  1  0
  8  9  2  0
  8  2  1  0
 10 11  1  0
 11 12  2  0
 13 11  1  0
 13 14  1  0
 15 14  1  0
 16 15  1  0
 17 16  1  1
 17 18  1  0
 18  8  1  0
 19 20  2  0
 19 17  1  0
 22 21  1  0
 23 24  1  0
 23 22  1  6
 24 19  1  0
 25 23  1  0
 26 25  1  0
 27 25  2  0
M  END
$$$$
