KRS.pdb
     RDKit          3D

 27 26  0  0  1  0  0  0  0  0999 V2000
   24.7585  -19.9698  -18.6319 N   0  0  0  0  0  0  0  0  0  0  0  0
   24.2232  -21.2676  -18.9926 C   0  0  1  0  0  0  0  0  0  0  0  0
   25.3593  -22.2528  -19.0034 C   0  0  0  0  0  0  0  0  0  0  0  0
   26.5771  -21.6607  -18.3355 C   0  0  0  0  0  0  0  0  0  0  0  0
   27.4206  -22.6399  -17.5952 C   0  0  0  0  0  0  0  0  0  0  0  0
   28.0218  -23.5861  -18.6140 C   0  0  0  0  0  0  0  0  0  0  0  0
   28.9935  -24.4697  -18.0273 N   0  0  0  0  0  0  0  0  0  0  0  0
   23.1270  -21.6626  -18.0900 C   0  0  0  0  0  0  0  0  0  0  0  0
   22.5889  -22.7977  -18.2649 O   0  0  0  0  0  0  0  0  0  0  0  0
   18.1067  -22.2188  -12.1413 N   0  0  0  0  0  0  0  0  0  0  0  0
   19.0736  -23.0069  -12.8245 C   0  0  0  0  0  0  0  0  0  0  0  0
   18.8029  -24.2076  -13.2479 N   0  0  0  0  0  0  0  0  0  0  0  0
   20.4011  -22.5379  -13.0916 N   0  0  0  0  0  0  0  0  0  0  0  0
   20.8092  -21.1853  -12.7583 C   0  0  0  0  0  0  0  0  0  0  0  0
   20.5916  -20.3304  -13.9809 C   0  0  0  0  0  0  0  0  0  0  0  0
   21.6939  -20.3715  -14.9626 C   0  0  0  0  0  0  0  0  0  0  0  0
   21.4933  -21.1462  -16.2122 C   0  0  2  0  0  0  0  0  0  0  0  0
   22.6655  -20.8425  -17.0621 N   0  0  0  0  0  0  0  0  0  0  0  0
   20.3113  -20.7811  -17.0163 C   0  0  0  0  0  0  0  0  0  0  0  0
   20.2383  -19.6195  -17.5556 O   0  0  0  0  0  0  0  0  0  0  0  0
   19.5232  -24.8036  -13.7040 O   0  0  0  0  0  0  0  0  0  0  0  0
   16.1942  -22.0340  -19.2640 C   0  0  0  0  0  0  0  0  0  0  0  0
   17.2128  -22.3766  -18.3820 C   0  0  2  0  0  0  0  0  0  0  0  0
   18.0551  -21.1381  -18.0631 N   0  0  0  0  0  0  0  0  0  0  0  0
   19.1952  -21.6172  -17.2705 C   0  0  0  0  0  0  0  0  0  0  0  0
   17.2441  -20.1750  -17.3114 O   0  0  0  0  0  0  0  0  0  0  0  0
   16.5883  -19.1252  -17.9309 O   0  0  0  0  0  0  0  0  0  0  0  0
  2  3  1  0
  2  1  1  1
  4  3  1  0
  5  4  1  0
  6  5  1  0
  7  6  1  0
  8  9  2  0
  8  2  1  0
 10 11  1  0
 11 12  2  0
 13 11  1  0
 13 14  1  0
 15 14  1  0
 16 15  1  0
 17 16  1  1
 17 18  1  0
 18  8  1  0
 19 20  2  0
 19 17  1  0
 22 21  1  0
 23 24  1  0
 23 22  1  6
 24 19  1  0
 25 23  1  0
 26 25  1  0
 27 25  2  0
M  END
$$$$
