KRS.pdb
     RDKit          3D

 27 26  0  0  1  0  0  0  0  0999 V2000
   25.4853  -19.6020  -18.6746 N   0  0  0  0  0  0  0  0  0  0  0  0
   24.3659  -19.0558  -17.9333 C   0  0  1  0  0  0  0  0  0  0  0  0
   23.3643  -18.5294  -18.9237 C   0  0  0  0  0  0  0  0  0  0  0  0
   23.9106  -17.3115  -19.6294 C   0  0  0  0  0  0  0  0  0  0  0  0
   24.3216  -16.1998  -18.7275 C   0  0  0  0  0  0  0  0  0  0  0  0
   24.8665  -15.0851  -19.5963 C   0  0  0  0  0  0  0  0  0  0  0  0
   25.3203  -13.9631  -18.8189 N   0  0  0  0  0  0  0  0  0  0  0  0
   23.7953  -20.0566  -17.0139 C   0  0  0  0  0  0  0  0  0  0  0  0
   23.6050  -21.2312  -17.4529 O   0  0  0  0  0  0  0  0  0  0  0  0
   26.1696  -22.4702  -11.6195 N   0  0  0  0  0  0  0  0  0  0  0  0
   26.2494  -21.0509  -11.5777 C   0  0  0  0  0  0  0  0  0  0  0  0
   27.3729  -20.4222  -11.7693 N   0  0  0  0  0  0  0  0  0  0  0  0
   25.1084  -20.2218  -11.3241 N   0  0  0  0  0  0  0  0  0  0  0  0
   23.8236  -20.7904  -10.9594 C   0  0  0  0  0  0  0  0  0  0  0  0
   23.1192  -21.1779  -12.2347 C   0  0  0  0  0  0  0  0  0  0  0  0
   23.5357  -20.4083  -13.4241 C   0  0  0  0  0  0  0  0  0  0  0  0
   22.9151  -20.7427  -14.7299 C   0  0  2  0  0  0  0  0  0  0  0  0
   23.4609  -19.7617  -15.6935 N   0  0  0  0  0  0  0  0  0  0  0  0
   21.4483  -20.6015  -14.8035 C   0  0  0  0  0  0  0  0  0  0  0  0
   20.9167  -19.4341  -14.7965 O   0  0  0  0  0  0  0  0  0  0  0  0
   27.4264  -19.3834  -11.7727 O   0  0  0  0  0  0  0  0  0  0  0  0
   18.8522  -23.0332  -16.6748 C   0  0  0  0  0  0  0  0  0  0  0  0
   18.4269  -22.7241  -15.3877 C   0  0  2  0  0  0  0  0  0  0  0  0
   19.0736  -21.4125  -14.9334 N   0  0  0  0  0  0  0  0  0  0  0  0
   20.5192  -21.6688  -14.8869 C   0  0  0  0  0  0  0  0  0  0  0  0
   18.5506  -21.0398  -13.6151 O   0  0  0  0  0  0  0  0  0  0  0  0
   17.3992  -20.2858  -13.4678 O   0  0  0  0  0  0  0  0  0  0  0  0
  2  3  1  0
  2  1  1  6
  4  3  1  0
  5  4  1  0
  6  5  1  0
  7  6  1  0
  8  9  2  0
  8  2  1  0
 10 11  1  0
 11 12  2  0
 13 11  1  0
 13 14  1  0
 15 14  1  0
 16 15  1  0
 17 16  1  1
 17 18  1  0
 18  8  1  0
 19 20  2  0
 19 17  1  0
 22 21  1  0
 23 24  1  0
 23 22  1  6
 24 19  1  0
 25 23  1  0
 26 25  1  0
 27 25  2  0
M  END
$$$$
