KRS.pdb
     RDKit          3D

 27 26  0  0  1  0  0  0  0  0999 V2000
   20.2721  -23.3171  -14.5052 N   0  0  0  0  0  0  0  0  0  0  0  0
   19.5507  -22.0653  -14.3895 C   0  0  1  0  0  0  0  0  0  0  0  0
   18.8101  -22.0743  -13.0807 C   0  0  0  0  0  0  0  0  0  0  0  0
   17.8066  -23.2020  -13.0504 C   0  0  0  0  0  0  0  0  0  0  0  0
   16.6360  -23.0198  -13.9532 C   0  0  0  0  0  0  0  0  0  0  0  0
   15.7071  -24.1970  -13.7390 C   0  0  0  0  0  0  0  0  0  0  0  0
   14.5825  -24.1715  -14.6355 N   0  0  0  0  0  0  0  0  0  0  0  0
   20.4572  -20.9117  -14.5303 C   0  0  0  0  0  0  0  0  0  0  0  0
   19.9788  -19.7507  -14.3512 O   0  0  0  0  0  0  0  0  0  0  0  0
   27.4984  -19.0271  -12.4425 N   0  0  0  0  0  0  0  0  0  0  0  0
   27.0785  -20.3841  -12.5140 C   0  0  0  0  0  0  0  0  0  0  0  0
   27.0717  -21.1549  -11.4652 N   0  0  0  0  0  0  0  0  0  0  0  0
   26.6378  -20.9914  -13.7349 N   0  0  0  0  0  0  0  0  0  0  0  0
   26.5965  -20.2472  -14.9804 C   0  0  0  0  0  0  0  0  0  0  0  0
   25.2507  -19.5729  -15.0630 C   0  0  0  0  0  0  0  0  0  0  0  0
   24.0976  -20.4897  -14.9610 C   0  0  0  0  0  0  0  0  0  0  0  0
   22.7331  -19.9172  -15.0719 C   0  0  2  0  0  0  0  0  0  0  0  0
   21.8067  -21.0492  -14.8497 N   0  0  0  0  0  0  0  0  0  0  0  0
   22.3719  -19.3577  -16.3884 C   0  0  0  0  0  0  0  0  0  0  0  0
   22.1012  -20.1438  -17.3654 O   0  0  0  0  0  0  0  0  0  0  0  0
   26.7763  -22.1508  -11.5185 O   0  0  0  0  0  0  0  0  0  0  0  0
   20.8552  -15.7114  -19.1519 C   0  0  0  0  0  0  0  0  0  0  0  0
   21.1622  -16.2321  -17.8998 C   0  0  1  0  0  0  0  0  0  0  0  0
   21.9552  -17.5319  -18.0638 N   0  0  0  0  0  0  0  0  0  0  0  0
   22.2860  -17.9784  -16.7041 C   0  0  0  0  0  0  0  0  0  0  0  0
   23.1631  -17.2720  -18.8535 O   0  0  0  0  0  0  0  0  0  0  0  0
   23.2247  -17.5370  -20.2107 O   0  0  0  0  0  0  0  0  0  0  0  0
  2  3  1  0
  2  1  1  1
  4  3  1  0
  5  4  1  0
  6  5  1  0
  7  6  1  0
  8  9  2  0
  8  2  1  0
 10 11  1  0
 11 12  2  0
 13 11  1  0
 13 14  1  0
 15 14  1  0
 16 15  1  0
 17 16  1  6
 17 18  1  0
 18  8  1  0
 19 20  2  0
 19 17  1  0
 22 21  1  0
 23 24  1  0
 23 22  1  1
 24 19  1  0
 25 23  1  0
 26 25  1  0
 27 25  2  0
M  END
$$$$
