KRS.pdb
     RDKit          3D

 27 26  0  0  1  0  0  0  0  0999 V2000
   27.7919  -19.4246  -18.1562 N   0  0  0  0  0  0  0  0  0  0  0  0
   26.7627  -18.4171  -18.3194 C   0  0  1  0  0  0  0  0  0  0  0  0
   26.6715  -18.0777  -19.7816 C   0  0  0  0  0  0  0  0  0  0  0  0
   27.0840  -19.2607  -20.6242 C   0  0  0  0  0  0  0  0  0  0  0  0
   27.0410  -19.0248  -22.0942 C   0  0  0  0  0  0  0  0  0  0  0  0
   27.4075  -20.3268  -22.7761 C   0  0  0  0  0  0  0  0  0  0  0  0
   27.4465  -20.1975  -24.2082 N   0  0  0  0  0  0  0  0  0  0  0  0
   25.4794  -18.8681  -17.7519 C   0  0  0  0  0  0  0  0  0  0  0  0
   24.9038  -19.8613  -18.2913 O   0  0  0  0  0  0  0  0  0  0  0  0
   24.2694  -21.2059   -9.5870 N   0  0  0  0  0  0  0  0  0  0  0  0
   22.9603  -20.9890  -10.0987 C   0  0  0  0  0  0  0  0  0  0  0  0
   21.8981  -21.2257   -9.3848 N   0  0  0  0  0  0  0  0  0  0  0  0
   22.7222  -20.4990  -11.4241 N   0  0  0  0  0  0  0  0  0  0  0  0
   23.8113  -20.0623  -12.2785 C   0  0  0  0  0  0  0  0  0  0  0  0
   23.2140  -19.6399  -13.5967 C   0  0  0  0  0  0  0  0  0  0  0  0
   24.1987  -19.1882  -14.6001 C   0  0  0  0  0  0  0  0  0  0  0  0
   23.7019  -18.7779  -15.9368 C   0  0  2  0  0  0  0  0  0  0  0  0
   24.8819  -18.2490  -16.6555 N   0  0  0  0  0  0  0  0  0  0  0  0
   22.7053  -17.6901  -15.9500 C   0  0  0  0  0  0  0  0  0  0  0  0
   23.0665  -16.4880  -15.6851 O   0  0  0  0  0  0  0  0  0  0  0  0
   20.9405  -21.0518   -9.7520 O   0  0  0  0  0  0  0  0  0  0  0  0
   18.8232  -15.5662  -17.5663 C   0  0  0  0  0  0  0  0  0  0  0  0
   19.6974  -16.6468  -17.5333 C   0  0  2  0  0  0  0  0  0  0  0  0
   20.4121  -16.6890  -16.1795 N   0  0  0  0  0  0  0  0  0  0  0  0
   21.3256  -17.8376  -16.2397 C   0  0  0  0  0  0  0  0  0  0  0  0
   19.4225  -16.8441  -15.1084 O   0  0  0  0  0  0  0  0  0  0  0  0
   18.7805  -15.7583  -14.5385 O   0  0  0  0  0  0  0  0  0  0  0  0
  2  3  1  0
  2  1  1  6
  4  3  1  0
  5  4  1  0
  6  5  1  0
  7  6  1  0
  8  9  2  0
  8  2  1  0
 10 11  1  0
 11 12  2  0
 13 11  1  0
 13 14  1  0
 15 14  1  0
 16 15  1  0
 17 16  1  1
 17 18  1  0
 18  8  1  0
 19 20  2  0
 19 17  1  0
 22 21  1  0
 23 24  1  0
 23 22  1  6
 24 19  1  0
 25 23  1  0
 26 25  1  0
 27 25  2  0
M  END
$$$$
