KRS.pdb
     RDKit          3D

 27 26  0  0  1  0  0  0  0  0999 V2000
   20.8430  -12.5408  -19.2608 N   0  0  0  0  0  0  0  0  0  0  0  0
   21.5472  -11.7950  -18.2367 C   0  0  1  0  0  0  0  0  0  0  0  0
   22.9811  -11.6535  -18.6672 C   0  0  0  0  0  0  0  0  0  0  0  0
   23.6107  -13.0124  -18.8589 C   0  0  0  0  0  0  0  0  0  0  0  0
   25.0613  -12.9859  -19.1958 C   0  0  0  0  0  0  0  0  0  0  0  0
   25.4850  -14.4080  -19.4998 C   0  0  0  0  0  0  0  0  0  0  0  0
   25.7092  -15.1753  -18.3039 N   0  0  0  0  0  0  0  0  0  0  0  0
   20.8940  -10.5000  -17.9750 C   0  0  0  0  0  0  0  0  0  0  0  0
   20.4988   -9.8186  -18.9692 O   0  0  0  0  0  0  0  0  0  0  0  0
   13.9947   -9.5608  -13.7808 N   0  0  0  0  0  0  0  0  0  0  0  0
   14.5097   -9.5701  -15.1065 C   0  0  0  0  0  0  0  0  0  0  0  0
   13.8138  -10.0240  -16.1083 N   0  0  0  0  0  0  0  0  0  0  0  0
   15.8191   -9.0846  -15.4283 N   0  0  0  0  0  0  0  0  0  0  0  0
   16.6795   -8.4966  -14.4179 C   0  0  0  0  0  0  0  0  0  0  0  0
   17.9330   -8.0221  -15.1082 C   0  0  0  0  0  0  0  0  0  0  0  0
   18.7536   -9.0986  -15.6985 C   0  0  0  0  0  0  0  0  0  0  0  0
   20.0174   -8.7249  -16.3804 C   0  0  2  0  0  0  0  0  0  0  0  0
   20.6971  -10.0024  -16.6882 N   0  0  0  0  0  0  0  0  0  0  0  0
   20.9784   -7.9441  -15.5781 C   0  0  0  0  0  0  0  0  0  0  0  0
   21.6279   -8.5107  -14.6280 O   0  0  0  0  0  0  0  0  0  0  0  0
   14.1860  -10.0236  -17.0796 O   0  0  0  0  0  0  0  0  0  0  0  0
   22.2412   -4.2768  -16.7014 C   0  0  0  0  0  0  0  0  0  0  0  0
   23.1193   -5.0505  -15.9509 C   0  0  1  0  0  0  0  0  0  0  0  0
   22.3288   -5.9157  -14.9652 N   0  0  0  0  0  0  0  0  0  0  0  0
   21.2765   -6.5695  -15.7542 C   0  0  0  0  0  0  0  0  0  0  0  0
   21.7627   -5.0657  -13.9129 O   0  0  0  0  0  0  0  0  0  0  0  0
   22.5468   -4.5076  -12.9181 O   0  0  0  0  0  0  0  0  0  0  0  0
  2  3  1  0
  2  1  1  6
  4  3  1  0
  5  4  1  0
  6  5  1  0
  7  6  1  0
  8  9  2  0
  8  2  1  0
 10 11  1  0
 11 12  2  0
 13 11  1  0
 13 14  1  0
 15 14  1  0
 16 15  1  0
 17 16  1  1
 17 18  1  0
 18  8  1  0
 19 20  2  0
 19 17  1  0
 22 21  1  0
 23 24  1  0
 23 22  1  6
 24 19  1  0
 25 23  1  0
 26 25  1  0
 27 25  2  0
M  END
$$$$
