KRS.pdb
     RDKit          3D

 27 26  0  0  1  0  0  0  0  0999 V2000
   24.3694  -25.4253  -14.6740 N   0  0  0  0  0  0  0  0  0  0  0  0
   24.1488  -23.9935  -14.7177 C   0  0  1  0  0  0  0  0  0  0  0  0
   24.6036  -23.4934  -16.0610 C   0  0  0  0  0  0  0  0  0  0  0  0
   26.1004  -23.6372  -16.1980 C   0  0  0  0  0  0  0  0  0  0  0  0
   26.8234  -22.3714  -16.5034 C   0  0  0  0  0  0  0  0  0  0  0  0
   28.2726  -22.7257  -16.7659 C   0  0  0  0  0  0  0  0  0  0  0  0
   29.0476  -21.5814  -17.1650 N   0  0  0  0  0  0  0  0  0  0  0  0
   22.7430  -23.6607  -14.4252 C   0  0  0  0  0  0  0  0  0  0  0  0
   21.8373  -24.3584  -14.9745 O   0  0  0  0  0  0  0  0  0  0  0  0
   18.9991  -24.9885   -7.1563 N   0  0  0  0  0  0  0  0  0  0  0  0
   18.0192  -24.4417   -8.0301 C   0  0  0  0  0  0  0  0  0  0  0  0
   16.7780  -24.3007   -7.6644 N   0  0  0  0  0  0  0  0  0  0  0  0
   18.3277  -24.0121   -9.3619 N   0  0  0  0  0  0  0  0  0  0  0  0
   19.6610  -23.5692   -9.7264 C   0  0  0  0  0  0  0  0  0  0  0  0
   19.6380  -23.2152  -11.1916 C   0  0  0  0  0  0  0  0  0  0  0  0
   20.9198  -22.7076  -11.7206 C   0  0  0  0  0  0  0  0  0  0  0  0
   20.9884  -22.3311  -13.1543 C   0  0  2  0  0  0  0  0  0  0  0  0
   22.3771  -22.6182  -13.5759 N   0  0  0  0  0  0  0  0  0  0  0  0
   20.7648  -20.9050  -13.4595 C   0  0  0  0  0  0  0  0  0  0  0  0
   21.4895  -20.0088  -12.8963 O   0  0  0  0  0  0  0  0  0  0  0  0
   16.0453  -23.9725   -8.3258 O   0  0  0  0  0  0  0  0  0  0  0  0
   19.1286  -17.4123  -16.3148 C   0  0  0  0  0  0  0  0  0  0  0  0
   19.2857  -18.7653  -16.0359 C   0  0  2  0  0  0  0  0  0  0  0  0
   19.6311  -18.9486  -14.5553 N   0  0  0  0  0  0  0  0  0  0  0  0
   19.7894  -20.3947  -14.3526 C   0  0  0  0  0  0  0  0  0  0  0  0
   18.5482  -18.4049  -13.7293 O   0  0  0  0  0  0  0  0  0  0  0  0
   17.6839  -19.2214  -13.0207 O   0  0  0  0  0  0  0  0  0  0  0  0
  2  3  1  0
  2  1  1  6
  4  3  1  0
  5  4  1  0
  6  5  1  0
  7  6  1  0
  8  9  2  0
  8  2  1  0
 10 11  1  0
 11 12  2  0
 13 11  1  0
 13 14  1  0
 15 14  1  0
 16 15  1  0
 17 16  1  1
 17 18  1  0
 18  8  1  0
 19 20  2  0
 19 17  1  0
 22 21  1  0
 23 24  1  0
 23 22  1  6
 24 19  1  0
 25 23  1  0
 26 25  1  0
 27 25  2  0
M  END
$$$$
