KRS.pdb
     RDKit          3D

 27 26  0  0  1  0  0  0  0  0999 V2000
   18.9482  -11.1159  -14.3831 N   0  0  0  0  0  0  0  0  0  0  0  0
   18.5115   -9.9614  -15.1430 C   0  0  1  0  0  0  0  0  0  0  0  0
   17.8339  -10.4552  -16.3914 C   0  0  0  0  0  0  0  0  0  0  0  0
   17.2975  -11.8512  -16.1832 C   0  0  0  0  0  0  0  0  0  0  0  0
   16.6860  -12.4712  -17.3916 C   0  0  0  0  0  0  0  0  0  0  0  0
   16.1892  -13.8466  -16.9968 C   0  0  0  0  0  0  0  0  0  0  0  0
   17.1939  -14.8598  -17.1786 N   0  0  0  0  0  0  0  0  0  0  0  0
   17.6520   -9.0817  -14.3308 C   0  0  0  0  0  0  0  0  0  0  0  0
   17.2747   -7.9818  -14.8374 O   0  0  0  0  0  0  0  0  0  0  0  0
   11.3269  -11.2753   -8.4357 N   0  0  0  0  0  0  0  0  0  0  0  0
   11.4563   -9.8633   -8.5463 C   0  0  0  0  0  0  0  0  0  0  0  0
   10.5282   -9.0553   -8.1224 N   0  0  0  0  0  0  0  0  0  0  0  0
   12.6075   -9.2379   -9.1271 N   0  0  0  0  0  0  0  0  0  0  0  0
   13.4828   -9.9550  -10.0362 C   0  0  0  0  0  0  0  0  0  0  0  0
   14.6423   -9.0481  -10.3613 C   0  0  0  0  0  0  0  0  0  0  0  0
   15.5629   -9.5734  -11.3895 C   0  0  0  0  0  0  0  0  0  0  0  0
   16.3103   -8.6018  -12.2256 C   0  0  2  0  0  0  0  0  0  0  0  0
   17.2432   -9.4114  -13.0399 N   0  0  0  0  0  0  0  0  0  0  0  0
   17.1526   -7.6347  -11.4960 C   0  0  0  0  0  0  0  0  0  0  0  0
   18.3357   -7.9668  -11.1277 O   0  0  0  0  0  0  0  0  0  0  0  0
   10.6161   -8.0229   -8.2139 O   0  0  0  0  0  0  0  0  0  0  0  0
   17.2762   -3.7395  -11.9897 C   0  0  0  0  0  0  0  0  0  0  0  0
   17.2137   -4.0149  -10.6283 C   0  0  2  0  0  0  0  0  0  0  0  0
   17.6811   -5.4505  -10.3720 N   0  0  0  0  0  0  0  0  0  0  0  0
   16.7773   -6.3141  -11.1432 C   0  0  0  0  0  0  0  0  0  0  0  0
   17.6074   -5.7402   -8.9364 O   0  0  0  0  0  0  0  0  0  0  0  0
   18.4530   -5.1378   -8.0210 O   0  0  0  0  0  0  0  0  0  0  0  0
  2  3  1  0
  2  1  1  1
  4  3  1  0
  5  4  1  0
  6  5  1  0
  7  6  1  0
  8  9  2  0
  8  2  1  0
 10 11  1  0
 11 12  2  0
 13 11  1  0
 13 14  1  0
 15 14  1  0
 16 15  1  0
 17 16  1  1
 17 18  1  0
 18  8  1  0
 19 20  2  0
 19 17  1  0
 22 21  1  0
 23 24  1  0
 23 22  1  6
 24 19  1  0
 25 23  1  0
 26 25  1  0
 27 25  2  0
M  END
$$$$
