KRS.pdb
     RDKit          3D

 27 26  0  0  1  0  0  0  0  0999 V2000
   20.1557  -14.3801  -16.1828 N   0  0  0  0  0  0  0  0  0  0  0  0
   19.3663  -13.3893  -16.8871 C   0  0  1  0  0  0  0  0  0  0  0  0
   18.0670  -14.0303  -17.2902 C   0  0  0  0  0  0  0  0  0  0  0  0
   17.7990  -15.2541  -16.4474 C   0  0  0  0  0  0  0  0  0  0  0  0
   16.5205  -15.9543  -16.7532 C   0  0  0  0  0  0  0  0  0  0  0  0
   16.4416  -17.1723  -15.8562 C   0  0  0  0  0  0  0  0  0  0  0  0
   15.2142  -17.9005  -16.0360 N   0  0  0  0  0  0  0  0  0  0  0  0
   19.1810  -12.1759  -16.0711 C   0  0  0  0  0  0  0  0  0  0  0  0
   19.0069  -12.3165  -14.8226 O   0  0  0  0  0  0  0  0  0  0  0  0
   21.2641   -4.2872  -14.1394 N   0  0  0  0  0  0  0  0  0  0  0  0
   22.0238   -5.4256  -13.7526 C   0  0  0  0  0  0  0  0  0  0  0  0
   22.6316   -5.4849  -12.6032 N   0  0  0  0  0  0  0  0  0  0  0  0
   22.1716   -6.5760  -14.5942 N   0  0  0  0  0  0  0  0  0  0  0  0
   21.4749   -6.6820  -15.8632 C   0  0  0  0  0  0  0  0  0  0  0  0
   20.1886   -7.4280  -15.6149 C   0  0  0  0  0  0  0  0  0  0  0  0
   20.2068   -8.8417  -16.0413 C   0  0  0  0  0  0  0  0  0  0  0  0
   18.9807   -9.6525  -15.8383 C   0  0  2  0  0  0  0  0  0  0  0  0
   19.1901  -10.8934  -16.6162 N   0  0  0  0  0  0  0  0  0  0  0  0
   17.7267   -9.0671  -16.3498 C   0  0  0  0  0  0  0  0  0  0  0  0
   17.5603   -8.9140  -17.6125 O   0  0  0  0  0  0  0  0  0  0  0  0
   23.1562   -6.3315  -12.3033 O   0  0  0  0  0  0  0  0  0  0  0  0
   14.3713   -8.8206  -14.2058 C   0  0  0  0  0  0  0  0  0  0  0  0
   14.2382   -8.7196  -15.5861 C   0  0  1  0  0  0  0  0  0  0  0  0
   15.4584   -8.0012  -16.1692 N   0  0  0  0  0  0  0  0  0  0  0  0
   16.6329   -8.6368  -15.5574 C   0  0  0  0  0  0  0  0  0  0  0  0
   15.3881   -6.5733  -15.8425 O   0  0  0  0  0  0  0  0  0  0  0  0
   16.3164   -5.9618  -15.0178 O   0  0  0  0  0  0  0  0  0  0  0  0
  2  3  1  0
  2  1  1  1
  4  3  1  0
  5  4  1  0
  6  5  1  0
  7  6  1  0
  8  9  2  0
  8  2  1  0
 10 11  1  0
 11 12  2  0
 13 11  1  0
 13 14  1  0
 15 14  1  0
 16 15  1  0
 17 16  1  6
 17 18  1  0
 18  8  1  0
 19 20  2  0
 19 17  1  0
 22 21  1  0
 23 24  1  0
 23 22  1  6
 24 19  1  0
 25 23  1  0
 26 25  1  0
 27 25  2  0
M  END
$$$$
