KRL.pdb
     RDKit          3D

 29 28  0  0  1  0  0  0  0  0999 V2000
    7.3392  -16.7555   19.5128 N   0  0  0  0  0  0  0  0  0  0  0  0
    8.2176  -15.7339   19.9333 C   0  0  1  0  0  0  0  0  0  0  0  0
    7.5760  -14.3757   19.8290 C   0  0  0  0  0  0  0  0  0  0  0  0
    8.0014  -13.5598   18.6682 C   0  0  0  0  0  0  0  0  0  0  0  0
    7.0385  -13.2828   17.5860 C   0  0  0  0  0  0  0  0  0  0  0  0
    7.5349  -12.5294   16.4010 C   0  0  0  0  0  0  0  0  0  0  0  0
    6.6260  -12.4265   15.3116 N   0  0  0  0  0  0  0  0  0  0  0  0
    8.7271  -16.0123   21.2902 C   0  0  0  0  0  0  0  0  0  0  0  0
    8.0459  -16.6158   22.1659 O   0  0  0  0  0  0  0  0  0  0  0  0
   13.3925  -16.2221   19.0058 N   0  0  0  0  0  0  0  0  0  0  0  0
   14.2816  -15.1396   19.1597 C   0  0  0  0  0  0  0  0  0  0  0  0
   14.7153  -14.4636   18.1546 N   0  0  0  0  0  0  0  0  0  0  0  0
   14.7215  -14.7746   20.4796 N   0  0  0  0  0  0  0  0  0  0  0  0
   14.1643  -15.3267   21.6687 C   0  0  0  0  0  0  0  0  0  0  0  0
   12.6595  -15.4717   21.6208 C   0  0  0  0  0  0  0  0  0  0  0  0
   12.1007  -16.0332   22.8854 C   0  0  0  0  0  0  0  0  0  0  0  0
   10.6182  -16.0682   22.9522 C   0  0  2  0  0  0  0  0  0  0  0  0
   10.0239  -15.6156   21.6937 N   0  0  0  0  0  0  0  0  0  0  0  0
   10.0121  -15.3186   24.0995 C   0  0  0  0  0  0  0  0  0  0  0  0
    9.6932  -14.1125   23.9797 O   0  0  0  0  0  0  0  0  0  0  0  0
   15.4637  -13.7337   18.3404 C   0  0  0  0  0  0  0  0  0  0  0  0
    8.4956  -12.2713   26.5287 C   0  0  2  0  0  0  0  0  0  0  0  0
    7.8087  -13.3319   25.7719 C   0  0  0  0  0  0  0  0  0  0  0  0
    6.3245  -12.9465   25.6373 C   0  0  0  0  0  0  0  0  0  0  0  0
    7.9581  -14.7272   26.2084 C   0  0  2  0  0  0  0  0  0  0  0  0
    9.2907  -15.2521   26.5396 N   0  0  0  0  0  0  0  0  0  0  0  0
    9.7900  -15.9671   25.3305 C   0  0  0  0  0  0  0  0  0  0  0  0
    9.3436  -16.2249   27.6358 O   0  0  0  0  0  0  0  0  0  0  0  0
    9.5615  -15.9911   28.8502 O   0  0  0  0  0  0  0  0  0  0  0  0
  2  1  1  1
  3  2  1  0
  4  5  1  0
  4  3  1  0
  6  7  1  0
  6  5  1  0
  8  9  2  0
  8  2  1  0
 11 10  1  0
 12 11  2  0
 13 11  1  0
 14 13  1  0
 15 14  1  0
 16 15  1  0
 17 16  1  6
 17 18  1  0
 18  8  1  0
 19 17  1  0
 19 26  1  0
 20 19  2  0
 22 21  1  6
 22 24  1  0
 23 22  1  0
 25 24  1  6
 25 26  1  0
 25 27  1  0
 27 29  1  0
 28 27  2  0
M  END
$$$$
