KRL.pdb
     RDKit          3D

 29 28  0  0  1  0  0  0  0  0999 V2000
   14.3667  -17.8635   20.7928 N   0  0  0  0  0  0  0  0  0  0  0  0
   13.2426  -18.4092   21.4490 C   0  0  1  0  0  0  0  0  0  0  0  0
   13.6332  -19.5323   22.3728 C   0  0  0  0  0  0  0  0  0  0  0  0
   13.5006  -20.8950   21.8075 C   0  0  0  0  0  0  0  0  0  0  0  0
   13.7902  -22.0637   22.6592 C   0  0  0  0  0  0  0  0  0  0  0  0
   13.5968  -23.4141   22.0615 C   0  0  0  0  0  0  0  0  0  0  0  0
   14.0023  -24.5103   22.8724 N   0  0  0  0  0  0  0  0  0  0  0  0
   12.4803  -17.3516   22.1408 C   0  0  0  0  0  0  0  0  0  0  0  0
   13.0364  -16.4041   22.7639 O   0  0  0  0  0  0  0  0  0  0  0  0
    7.4760  -15.1270   18.7385 N   0  0  0  0  0  0  0  0  0  0  0  0
    7.6810  -13.7979   19.1595 C   0  0  0  0  0  0  0  0  0  0  0  0
    8.0056  -12.8631   18.3371 N   0  0  0  0  0  0  0  0  0  0  0  0
    7.5240  -13.4701   20.5511 N   0  0  0  0  0  0  0  0  0  0  0  0
    7.1403  -14.4221   21.5389 C   0  0  0  0  0  0  0  0  0  0  0  0
    8.2636  -14.8081   22.4753 C   0  0  0  0  0  0  0  0  0  0  0  0
    9.1464  -15.8653   21.9008 C   0  0  0  0  0  0  0  0  0  0  0  0
   10.3025  -16.2442   22.7512 C   0  0  2  0  0  0  0  0  0  0  0  0
   11.0655  -17.3364   22.1456 N   0  0  0  0  0  0  0  0  0  0  0  0
    9.9671  -16.5845   24.1715 C   0  0  0  0  0  0  0  0  0  0  0  0
    9.3918  -17.6618   24.4534 O   0  0  0  0  0  0  0  0  0  0  0  0
    8.0712  -11.8745   18.7190 C   0  0  0  0  0  0  0  0  0  0  0  0
    9.3757  -12.9195   29.0301 C   0  0  1  0  0  0  0  0  0  0  0  0
    9.8223  -14.2290   28.5251 C   0  0  0  0  0  0  0  0  0  0  0  0
   11.3428  -14.3373   28.7393 C   0  0  0  0  0  0  0  0  0  0  0  0
    9.4476  -14.6305   27.1619 C   0  0  2  0  0  0  0  0  0  0  0  0
    9.9013  -15.9231   26.6285 N   0  0  0  0  0  0  0  0  0  0  0  0
   10.3003  -15.6933   25.2107 C   0  0  0  0  0  0  0  0  0  0  0  0
    8.8987  -16.9930   26.5987 O   0  0  0  0  0  0  0  0  0  0  0  0
    7.8279  -17.0139   25.9433 O   0  0  0  0  0  0  0  0  0  0  0  0
  2  1  1  1
  3  2  1  0
  4  5  1  0
  4  3  1  0
  6  7  1  0
  6  5  1  0
  8  9  2  0
  8  2  1  0
 11 10  1  0
 12 11  2  0
 13 11  1  0
 14 13  1  0
 15 14  1  0
 16 15  1  0
 17 16  1  6
 17 18  1  0
 18  8  1  0
 19 17  1  0
 19 26  1  0
 20 19  2  0
 22 21  1  1
 22 24  1  0
 23 22  1  0
 25 24  1  1
 25 26  1  0
 25 27  1  0
 27 29  1  0
 28 27  2  0
M  END
$$$$
