KRL.pdb
     RDKit          3D

 29 28  0  0  1  0  0  0  0  0999 V2000
    7.9989  -20.8575   22.4731 N   0  0  0  0  0  0  0  0  0  0  0  0
    7.0616  -19.8453   22.7716 C   0  0  1  0  0  0  0  0  0  0  0  0
    6.2919  -20.1578   24.0274 C   0  0  0  0  0  0  0  0  0  0  0  0
    7.1072  -20.6240   25.1728 C   0  0  0  0  0  0  0  0  0  0  0  0
    6.6108  -21.7302   26.0125 C   0  0  0  0  0  0  0  0  0  0  0  0
    6.9379  -21.6904   27.4650 C   0  0  0  0  0  0  0  0  0  0  0  0
    8.1755  -22.2867   27.8341 N   0  0  0  0  0  0  0  0  0  0  0  0
    7.7218  -18.5265   22.8303 C   0  0  0  0  0  0  0  0  0  0  0  0
    8.8759  -18.3606   23.3157 O   0  0  0  0  0  0  0  0  0  0  0  0
    8.1576  -13.9497   17.1242 N   0  0  0  0  0  0  0  0  0  0  0  0
    9.0195  -13.5516   18.1656 C   0  0  0  0  0  0  0  0  0  0  0  0
   10.2414  -13.9495   18.2309 N   0  0  0  0  0  0  0  0  0  0  0  0
    8.5232  -12.6730   19.1905 N   0  0  0  0  0  0  0  0  0  0  0  0
    7.4711  -13.0296   20.0821 C   0  0  0  0  0  0  0  0  0  0  0  0
    7.9361  -13.8345   21.2753 C   0  0  0  0  0  0  0  0  0  0  0  0
    7.1607  -15.0979   21.4474 C   0  0  0  0  0  0  0  0  0  0  0  0
    7.7107  -16.0360   22.4577 C   0  0  2  0  0  0  0  0  0  0  0  0
    7.0934  -17.3577   22.3397 N   0  0  0  0  0  0  0  0  0  0  0  0
    7.6336  -15.5636   23.8777 C   0  0  0  0  0  0  0  0  0  0  0  0
    6.6098  -15.7759   24.5687 O   0  0  0  0  0  0  0  0  0  0  0  0
   10.8228  -13.6156   19.0542 C   0  0  0  0  0  0  0  0  0  0  0  0
    7.6975  -11.6718   26.5628 C   0  0  2  0  0  0  0  0  0  0  0  0
    6.9081  -12.8186   26.0821 C   0  0  0  0  0  0  0  0  0  0  0  0
    5.4659  -12.6632   26.5975 C   0  0  0  0  0  0  0  0  0  0  0  0
    7.4133  -14.1783   26.3183 C   0  0  2  0  0  0  0  0  0  0  0  0
    8.7784  -14.5343   25.9047 N   0  0  0  0  0  0  0  0  0  0  0  0
    8.7192  -14.8753   24.4548 C   0  0  0  0  0  0  0  0  0  0  0  0
    9.3678  -15.7002   26.5711 O   0  0  0  0  0  0  0  0  0  0  0  0
    9.2038  -16.9093   26.2746 O   0  0  0  0  0  0  0  0  0  0  0  0
  2  1  1  1
  3  2  1  0
  4  5  1  0
  4  3  1  0
  6  7  1  0
  6  5  1  0
  8  9  2  0
  8  2  1  0
 11 10  1  0
 12 11  2  0
 13 11  1  0
 14 13  1  0
 15 14  1  0
 16 15  1  0
 17 16  1  6
 17 18  1  0
 18  8  1  0
 19 17  1  0
 19 26  1  0
 20 19  2  0
 22 21  1  6
 22 24  1  0
 23 22  1  0
 25 24  1  6
 25 26  1  0
 25 27  1  0
 27 29  1  0
 28 27  2  0
M  END
$$$$
