KRL.pdb
     RDKit          3D

 29 28  0  0  1  0  0  0  0  0999 V2000
    7.2709  -20.3895   22.4819 N   0  0  0  0  0  0  0  0  0  0  0  0
    7.1542  -19.3706   23.4515 C   0  0  1  0  0  0  0  0  0  0  0  0
    7.2066  -19.9289   24.8490 C   0  0  0  0  0  0  0  0  0  0  0  0
    6.4024  -21.1520   25.0749 C   0  0  0  0  0  0  0  0  0  0  0  0
    6.3533  -21.7476   26.4232 C   0  0  0  0  0  0  0  0  0  0  0  0
    5.5103  -22.9615   26.6077 C   0  0  0  0  0  0  0  0  0  0  0  0
    5.4995  -23.5102   27.9201 N   0  0  0  0  0  0  0  0  0  0  0  0
    8.1671  -18.3208   23.2271 C   0  0  0  0  0  0  0  0  0  0  0  0
    9.4022  -18.5699   23.1399 O   0  0  0  0  0  0  0  0  0  0  0  0
    7.8407  -11.9776   18.7422 N   0  0  0  0  0  0  0  0  0  0  0  0
    7.9234  -13.3333   18.3667 C   0  0  0  0  0  0  0  0  0  0  0  0
    8.9230  -13.7988   17.7037 N   0  0  0  0  0  0  0  0  0  0  0  0
    6.8598  -14.2295   18.7332 N   0  0  0  0  0  0  0  0  0  0  0  0
    6.6759  -14.7228   20.0568 C   0  0  0  0  0  0  0  0  0  0  0  0
    7.8854  -15.4461   20.6062 C   0  0  0  0  0  0  0  0  0  0  0  0
    8.3306  -14.8952   21.9197 C   0  0  0  0  0  0  0  0  0  0  0  0
    8.8094  -15.9090   22.8926 C   0  0  2  0  0  0  0  0  0  0  0  0
    7.8094  -16.9584   23.0940 N   0  0  0  0  0  0  0  0  0  0  0  0
    9.2502  -15.3653   24.2176 C   0  0  0  0  0  0  0  0  0  0  0  0
   10.1708  -14.5177   24.2881 O   0  0  0  0  0  0  0  0  0  0  0  0
    8.8718  -14.8101   17.3842 C   0  0  0  0  0  0  0  0  0  0  0  0
    8.0169  -12.1780   26.6487 C   0  0  2  0  0  0  0  0  0  0  0  0
    7.2108  -13.4107   26.6346 C   0  0  0  0  0  0  0  0  0  0  0  0
    5.8066  -13.0765   27.1696 C   0  0  0  0  0  0  0  0  0  0  0  0
    7.7493  -14.6195   27.2737 C   0  0  2  0  0  0  0  0  0  0  0  0
    8.9696  -15.2458   26.7446 N   0  0  0  0  0  0  0  0  0  0  0  0
    8.6279  -15.8013   25.4041 C   0  0  0  0  0  0  0  0  0  0  0  0
    9.5053  -16.3672   27.5231 O   0  0  0  0  0  0  0  0  0  0  0  0
    9.4349  -17.5894   27.2438 O   0  0  0  0  0  0  0  0  0  0  0  0
  2  1  1  6
  3  2  1  0
  4  5  1  0
  4  3  1  0
  6  7  1  0
  6  5  1  0
  8  9  2  0
  8  2  1  0
 11 10  1  0
 12 11  2  0
 13 11  1  0
 14 13  1  0
 15 14  1  0
 16 15  1  0
 17 16  1  6
 17 18  1  0
 18  8  1  0
 19 17  1  0
 19 26  1  0
 20 19  2  0
 22 21  1  6
 22 24  1  0
 23 22  1  0
 25 24  1  6
 25 26  1  0
 25 27  1  0
 27 29  1  0
 28 27  2  0
M  END
$$$$
