KRL.pdb
     RDKit          3D

 29 28  0  0  1  0  0  0  0  0999 V2000
    9.9553  -14.2737   18.7479 N   0  0  0  0  0  0  0  0  0  0  0  0
    8.7731  -13.9035   19.4240 C   0  0  1  0  0  0  0  0  0  0  0  0
    7.5748  -13.9611   18.5141 C   0  0  0  0  0  0  0  0  0  0  0  0
    7.7326  -13.2736   17.2116 C   0  0  0  0  0  0  0  0  0  0  0  0
    7.3481  -13.9737   15.9719 C   0  0  0  0  0  0  0  0  0  0  0  0
    8.1809  -13.7336   14.7606 C   0  0  0  0  0  0  0  0  0  0  0  0
    7.7614  -14.4088   13.5810 N   0  0  0  0  0  0  0  0  0  0  0  0
    8.5939  -14.7179   20.6418 C   0  0  0  0  0  0  0  0  0  0  0  0
    7.5487  -14.6694   21.3492 O   0  0  0  0  0  0  0  0  0  0  0  0
   12.4695  -19.1490   18.7516 N   0  0  0  0  0  0  0  0  0  0  0  0
   11.7727  -20.3395   19.0402 C   0  0  0  0  0  0  0  0  0  0  0  0
   11.6006  -21.2610   18.1590 N   0  0  0  0  0  0  0  0  0  0  0  0
   11.2346  -20.5358   20.3595 N   0  0  0  0  0  0  0  0  0  0  0  0
   11.3407  -19.5667   21.3981 C   0  0  0  0  0  0  0  0  0  0  0  0
   10.3128  -18.4613   21.3011 C   0  0  0  0  0  0  0  0  0  0  0  0
   10.4331  -17.4723   22.4121 C   0  0  0  0  0  0  0  0  0  0  0  0
    9.4687  -16.3455   22.3528 C   0  0  2  0  0  0  0  0  0  0  0  0
    9.5939  -15.6115   21.0928 N   0  0  0  0  0  0  0  0  0  0  0  0
    9.5297  -15.3905   23.5060 C   0  0  0  0  0  0  0  0  0  0  0  0
   10.5391  -14.6704   23.6887 O   0  0  0  0  0  0  0  0  0  0  0  0
   11.1016  -22.1465   18.4660 C   0  0  0  0  0  0  0  0  0  0  0  0
    5.8338  -12.7775   27.3163 C   0  0  1  0  0  0  0  0  0  0  0  0
    6.8022  -12.4451   26.2574 C   0  0  0  0  0  0  0  0  0  0  0  0
    6.3254  -11.1635   25.5507 C   0  0  0  0  0  0  0  0  0  0  0  0
    7.1750  -13.4815   25.2844 C   0  0  2  0  0  0  0  0  0  0  0  0
    8.3932  -14.2775   25.4930 N   0  0  0  0  0  0  0  0  0  0  0  0
    8.4450  -15.2892   24.3994 C   0  0  0  0  0  0  0  0  0  0  0  0
    8.4591  -15.0338   26.7478 O   0  0  0  0  0  0  0  0  0  0  0  0
    8.8571  -14.6208   27.8648 O   0  0  0  0  0  0  0  0  0  0  0  0
  2  1  1  6
  3  2  1  0
  4  5  1  0
  4  3  1  0
  6  7  1  0
  6  5  1  0
  8  9  2  0
  8  2  1  0
 11 10  1  0
 12 11  2  0
 13 11  1  0
 14 13  1  0
 15 14  1  0
 16 15  1  0
 17 16  1  1
 17 18  1  0
 18  8  1  0
 19 17  1  0
 19 26  1  0
 20 19  2  0
 22 21  1  1
 22 24  1  0
 23 22  1  0
 25 24  1  6
 25 26  1  0
 25 27  1  0
 27 29  1  0
 28 27  2  0
M  END
$$$$
