KRL.pdb
     RDKit          3D

 29 28  0  0  1  0  0  0  0  0999 V2000
    6.8730  -16.3642   19.6718 N   0  0  0  0  0  0  0  0  0  0  0  0
    7.6410  -15.5811   20.5600 C   0  0  1  0  0  0  0  0  0  0  0  0
    7.1053  -14.1777   20.6639 C   0  0  0  0  0  0  0  0  0  0  0  0
    7.4094  -13.2949   19.5140 C   0  0  0  0  0  0  0  0  0  0  0  0
    8.7216  -12.6256   19.4421 C   0  0  0  0  0  0  0  0  0  0  0  0
    8.9927  -11.7711   18.2527 C   0  0  0  0  0  0  0  0  0  0  0  0
   10.2367  -11.0813   18.2606 N   0  0  0  0  0  0  0  0  0  0  0  0
    7.7476  -16.2411   21.8758 C   0  0  0  0  0  0  0  0  0  0  0  0
    6.7387  -16.6181   22.5354 O   0  0  0  0  0  0  0  0  0  0  0  0
   12.4422  -18.7804   20.3869 N   0  0  0  0  0  0  0  0  0  0  0  0
   11.9836  -20.1106   20.3096 C   0  0  0  0  0  0  0  0  0  0  0  0
   12.0910  -20.8088   19.2342 N   0  0  0  0  0  0  0  0  0  0  0  0
   11.3753  -20.7119   21.4659 N   0  0  0  0  0  0  0  0  0  0  0  0
   11.1828  -20.0194   22.6957 C   0  0  0  0  0  0  0  0  0  0  0  0
   10.1670  -18.9022   22.6082 C   0  0  0  0  0  0  0  0  0  0  0  0
    9.9807  -18.1982   23.9108 C   0  0  0  0  0  0  0  0  0  0  0  0
    9.1141  -16.9945   23.8523 C   0  0  2  0  0  0  0  0  0  0  0  0
    9.0009  -16.4938   22.4818 N   0  0  0  0  0  0  0  0  0  0  0  0
    9.5078  -15.8780   24.7709 C   0  0  0  0  0  0  0  0  0  0  0  0
   10.4681  -15.1240   24.4877 O   0  0  0  0  0  0  0  0  0  0  0  0
   11.7038  -21.7973   19.2501 C   0  0  0  0  0  0  0  0  0  0  0  0
    8.7998  -11.9650   25.3956 C   0  0  2  0  0  0  0  0  0  0  0  0
    7.8145  -12.8794   25.9975 C   0  0  0  0  0  0  0  0  0  0  0  0
    6.5284  -12.0837   26.2849 C   0  0  0  0  0  0  0  0  0  0  0  0
    8.2111  -13.6864   27.1599 C   0  0  2  0  0  0  0  0  0  0  0  0
    9.2570  -14.7098   27.0183 N   0  0  0  0  0  0  0  0  0  0  0  0
    8.7960  -15.6611   25.9673 C   0  0  0  0  0  0  0  0  0  0  0  0
    9.5264  -15.5218   28.2094 O   0  0  0  0  0  0  0  0  0  0  0  0
    9.2026  -16.7195   28.4026 O   0  0  0  0  0  0  0  0  0  0  0  0
  2  1  1  6
  3  2  1  0
  4  5  1  0
  4  3  1  0
  6  7  1  0
  6  5  1  0
  8  9  2  0
  8  2  1  0
 11 10  1  0
 12 11  2  0
 13 11  1  0
 14 13  1  0
 15 14  1  0
 16 15  1  0
 17 16  1  6
 17 18  1  0
 18  8  1  0
 19 17  1  0
 19 26  1  0
 20 19  2  0
 22 21  1  6
 22 24  1  0
 23 22  1  0
 25 24  1  6
 25 26  1  0
 25 27  1  0
 27 29  1  0
 28 27  2  0
M  END
$$$$
