KRL.pdb
     RDKit          3D

 29 28  0  0  1  0  0  0  0  0999 V2000
    9.5031  -20.3563   21.4964 N   0  0  0  0  0  0  0  0  0  0  0  0
    9.2770  -19.5805   22.6536 C   0  0  1  0  0  0  0  0  0  0  0  0
   10.0665  -20.0960   23.8275 C   0  0  0  0  0  0  0  0  0  0  0  0
   10.6580  -21.4427   23.6531 C   0  0  0  0  0  0  0  0  0  0  0  0
   11.3237  -22.0949   24.7962 C   0  0  0  0  0  0  0  0  0  0  0  0
   11.8911  -23.4544   24.5765 C   0  0  0  0  0  0  0  0  0  0  0  0
   11.2684  -24.5065   25.3037 N   0  0  0  0  0  0  0  0  0  0  0  0
    9.5396  -18.1537   22.3823 C   0  0  0  0  0  0  0  0  0  0  0  0
   10.6635  -17.7268   21.9954 O   0  0  0  0  0  0  0  0  0  0  0  0
    8.3394  -13.9363   16.5762 N   0  0  0  0  0  0  0  0  0  0  0  0
    8.1361  -13.2612   17.7963 C   0  0  0  0  0  0  0  0  0  0  0  0
    8.3355  -11.9959   17.9184 N   0  0  0  0  0  0  0  0  0  0  0  0
    7.6919  -14.0046   18.9446 N   0  0  0  0  0  0  0  0  0  0  0  0
    7.6778  -15.4282   18.9953 C   0  0  0  0  0  0  0  0  0  0  0  0
    7.1608  -15.9816   20.3046 C   0  0  0  0  0  0  0  0  0  0  0  0
    7.6179  -15.1844   21.4803 C   0  0  0  0  0  0  0  0  0  0  0  0
    8.7701  -15.7616   22.2169 C   0  0  2  0  0  0  0  0  0  0  0  0
    8.5357  -17.1694   22.5409 N   0  0  0  0  0  0  0  0  0  0  0  0
    9.1776  -15.0165   23.4516 C   0  0  0  0  0  0  0  0  0  0  0  0
    9.4929  -13.8049   23.3939 O   0  0  0  0  0  0  0  0  0  0  0  0
    8.2240  -11.5727   18.8858 C   0  0  0  0  0  0  0  0  0  0  0  0
    6.2062  -12.7682   27.2519 C   0  0  1  0  0  0  0  0  0  0  0  0
    7.5705  -13.3133   27.1466 C   0  0  0  0  0  0  0  0  0  0  0  0
    8.5691  -12.1554   27.3241 C   0  0  0  0  0  0  0  0  0  0  0  0
    7.9174  -14.1408   25.9827 C   0  0  2  0  0  0  0  0  0  0  0  0
    9.1493  -14.9430   25.9957 N   0  0  0  0  0  0  0  0  0  0  0  0
    9.2069  -15.6736   24.6976 C   0  0  0  0  0  0  0  0  0  0  0  0
    9.2375  -15.9675   27.0413 O   0  0  0  0  0  0  0  0  0  0  0  0
    8.6699  -17.0874   27.0586 O   0  0  0  0  0  0  0  0  0  0  0  0
  2  1  1  6
  3  2  1  0
  4  5  1  0
  4  3  1  0
  6  7  1  0
  6  5  1  0
  8  9  2  0
  8  2  1  0
 11 10  1  0
 12 11  2  0
 13 11  1  0
 14 13  1  0
 15 14  1  0
 16 15  1  0
 17 16  1  1
 17 18  1  0
 18  8  1  0
 19 17  1  0
 19 26  1  0
 20 19  2  0
 22 21  1  1
 22 24  1  0
 23 22  1  0
 25 24  1  6
 25 26  1  0
 25 27  1  0
 27 29  1  0
 28 27  2  0
M  END
$$$$
