KRL.pdb
     RDKit          3D

 29 28  0  0  1  0  0  0  0  0999 V2000
    9.2729  -16.2866   19.6488 N   0  0  0  0  0  0  0  0  0  0  0  0
    8.7891  -15.1129   20.2655 C   0  0  1  0  0  0  0  0  0  0  0  0
    8.3220  -14.1062   19.2479 C   0  0  0  0  0  0  0  0  0  0  0  0
    8.5705  -14.4702   17.8338 C   0  0  0  0  0  0  0  0  0  0  0  0
    8.2248  -13.5116   16.7677 C   0  0  0  0  0  0  0  0  0  0  0  0
    8.4925  -13.9221   15.3613 C   0  0  0  0  0  0  0  0  0  0  0  0
    8.0734  -13.0020   14.3607 N   0  0  0  0  0  0  0  0  0  0  0  0
    7.7436  -15.4387   21.2550 C   0  0  0  0  0  0  0  0  0  0  0  0
    6.6010  -15.8654   20.9271 O   0  0  0  0  0  0  0  0  0  0  0  0
    6.5449  -18.9623   27.3277 N   0  0  0  0  0  0  0  0  0  0  0  0
    7.2000  -20.1864   27.0859 C   0  0  0  0  0  0  0  0  0  0  0  0
    7.4453  -21.0276   28.0280 N   0  0  0  0  0  0  0  0  0  0  0  0
    7.6096  -20.5108   25.7459 N   0  0  0  0  0  0  0  0  0  0  0  0
    8.1662  -19.5561   24.8470 C   0  0  0  0  0  0  0  0  0  0  0  0
    7.1388  -18.6280   24.2381 C   0  0  0  0  0  0  0  0  0  0  0  0
    7.7534  -17.6127   23.3334 C   0  0  0  0  0  0  0  0  0  0  0  0
    7.3775  -16.2067   23.6252 C   0  0  2  0  0  0  0  0  0  0  0  0
    7.9631  -15.2912   22.6450 N   0  0  0  0  0  0  0  0  0  0  0  0
    7.6922  -15.7355   25.0125 C   0  0  0  0  0  0  0  0  0  0  0  0
    7.2475  -16.3461   26.0127 O   0  0  0  0  0  0  0  0  0  0  0  0
    8.0307  -21.8795   27.7851 C   0  0  0  0  0  0  0  0  0  0  0  0
    7.2153  -11.5502   25.7892 C   0  0  2  0  0  0  0  0  0  0  0  0
    6.7674  -12.7934   26.4399 C   0  0  0  0  0  0  0  0  0  0  0  0
    5.5103  -12.4788   27.2708 C   0  0  0  0  0  0  0  0  0  0  0  0
    7.7366  -13.5773   27.2183 C   0  0  2  0  0  0  0  0  0  0  0  0
    8.9266  -14.1340   26.5585 N   0  0  0  0  0  0  0  0  0  0  0  0
    8.4989  -14.5970   25.2076 C   0  0  0  0  0  0  0  0  0  0  0  0
    9.5374  -15.2970   27.2105 O   0  0  0  0  0  0  0  0  0  0  0  0
    9.4921  -16.4929   26.8305 O   0  0  0  0  0  0  0  0  0  0  0  0
  2  1  1  6
  3  2  1  0
  4  5  1  0
  4  3  1  0
  6  7  1  0
  6  5  1  0
  8  9  2  0
  8  2  1  0
 11 10  1  0
 12 11  2  0
 13 11  1  0
 14 13  1  0
 15 14  1  0
 16 15  1  0
 17 16  1  6
 17 18  1  0
 18  8  1  0
 19 17  1  0
 19 26  1  0
 20 19  2  0
 22 21  1  6
 22 24  1  0
 23 22  1  0
 25 24  1  6
 25 26  1  0
 25 27  1  0
 27 29  1  0
 28 27  2  0
M  END
$$$$
