KRL.pdb
     RDKit          3D

 29 28  0  0  1  0  0  0  0  0999 V2000
    8.0892  -19.3564   22.6487 N   0  0  0  0  0  0  0  0  0  0  0  0
    9.3249  -19.2871   21.9702 C   0  0  1  0  0  0  0  0  0  0  0  0
    9.2492  -19.9410   20.6160 C   0  0  0  0  0  0  0  0  0  0  0  0
    8.3424  -21.1087   20.5243 C   0  0  0  0  0  0  0  0  0  0  0  0
    8.5826  -22.1326   19.4903 C   0  0  0  0  0  0  0  0  0  0  0  0
    7.6186  -23.2650   19.4078 C   0  0  0  0  0  0  0  0  0  0  0  0
    7.8874  -24.2302   18.3981 N   0  0  0  0  0  0  0  0  0  0  0  0
    9.7990  -17.8915   21.8949 C   0  0  0  0  0  0  0  0  0  0  0  0
   10.9510  -17.5821   21.4797 O   0  0  0  0  0  0  0  0  0  0  0  0
    8.2312  -15.3400   17.1049 N   0  0  0  0  0  0  0  0  0  0  0  0
    7.9421  -13.9725   17.2849 C   0  0  0  0  0  0  0  0  0  0  0  0
    8.2754  -13.0838   16.4162 N   0  0  0  0  0  0  0  0  0  0  0  0
    7.2532  -13.5512   18.4751 N   0  0  0  0  0  0  0  0  0  0  0  0
    6.7859  -14.4583   19.4690 C   0  0  0  0  0  0  0  0  0  0  0  0
    7.8894  -15.2592   20.1238 C   0  0  0  0  0  0  0  0  0  0  0  0
    8.3774  -14.6306   21.3862 C   0  0  0  0  0  0  0  0  0  0  0  0
    9.4031  -15.4146   22.1188 C   0  0  2  0  0  0  0  0  0  0  0  0
    8.9810  -16.8057   22.2872 N   0  0  0  0  0  0  0  0  0  0  0  0
    9.8188  -14.8455   23.4412 C   0  0  0  0  0  0  0  0  0  0  0  0
   10.3833  -13.7285   23.5090 O   0  0  0  0  0  0  0  0  0  0  0  0
    7.9859  -12.0799   16.6054 C   0  0  0  0  0  0  0  0  0  0  0  0
    6.4339  -12.4326   26.7127 C   0  0  1  0  0  0  0  0  0  0  0  0
    7.6920  -13.1816   26.8721 C   0  0  0  0  0  0  0  0  0  0  0  0
    8.7678  -12.2141   27.3977 C   0  0  0  0  0  0  0  0  0  0  0  0
    8.1960  -13.9735   25.7413 C   0  0  2  0  0  0  0  0  0  0  0  0
    9.3251  -14.8943   25.9377 N   0  0  0  0  0  0  0  0  0  0  0  0
    9.5745  -15.5629   24.6290 C   0  0  0  0  0  0  0  0  0  0  0  0
    9.1132  -15.9722   26.9093 O   0  0  0  0  0  0  0  0  0  0  0  0
    9.4712  -15.9927   28.1127 O   0  0  0  0  0  0  0  0  0  0  0  0
  2  1  1  6
  3  2  1  0
  4  5  1  0
  4  3  1  0
  6  7  1  0
  6  5  1  0
  8  9  2  0
  8  2  1  0
 11 10  1  0
 12 11  2  0
 13 11  1  0
 14 13  1  0
 15 14  1  0
 16 15  1  0
 17 16  1  1
 17 18  1  0
 18  8  1  0
 19 17  1  0
 19 26  1  0
 20 19  2  0
 22 21  1  1
 22 24  1  0
 23 22  1  0
 25 24  1  6
 25 26  1  0
 25 27  1  0
 27 29  1  0
 28 27  2  0
M  END
$$$$
