KRL.pdb
     RDKit          3D

 29 28  0  0  1  0  0  0  0  0999 V2000
    8.3536  -20.7195   23.1761 N   0  0  0  0  0  0  0  0  0  0  0  0
    7.6922  -19.5410   23.5833 C   0  0  1  0  0  0  0  0  0  0  0  0
    7.5609  -19.4705   25.0817 C   0  0  0  0  0  0  0  0  0  0  0  0
    7.4095  -20.7744   25.7680 C   0  0  0  0  0  0  0  0  0  0  0  0
    7.2781  -20.8088   27.2366 C   0  0  0  0  0  0  0  0  0  0  0  0
    6.9836  -22.1245   27.8694 C   0  0  0  0  0  0  0  0  0  0  0  0
    6.9229  -22.1245   29.2906 N   0  0  0  0  0  0  0  0  0  0  0  0
    8.3583  -18.3502   23.0207 C   0  0  0  0  0  0  0  0  0  0  0  0
    9.6140  -18.2461   22.9339 O   0  0  0  0  0  0  0  0  0  0  0  0
    9.3154  -14.7365   17.2365 N   0  0  0  0  0  0  0  0  0  0  0  0
    8.1684  -13.9746   16.9365 C   0  0  0  0  0  0  0  0  0  0  0  0
    7.6877  -13.9038   15.7451 N   0  0  0  0  0  0  0  0  0  0  0  0
    7.5104  -13.2513   17.9912 N   0  0  0  0  0  0  0  0  0  0  0  0
    7.7142  -13.5291   19.3734 C   0  0  0  0  0  0  0  0  0  0  0  0
    7.9015  -14.9997   19.6736 C   0  0  0  0  0  0  0  0  0  0  0  0
    7.3282  -15.3889   20.9953 C   0  0  0  0  0  0  0  0  0  0  0  0
    8.2681  -16.0967   21.9002 C   0  0  2  0  0  0  0  0  0  0  0  0
    7.6205  -17.2430   22.5393 N   0  0  0  0  0  0  0  0  0  0  0  0
    8.9239  -15.2386   22.9390 C   0  0  0  0  0  0  0  0  0  0  0  0
    9.6756  -14.2923   22.6068 O   0  0  0  0  0  0  0  0  0  0  0  0
    6.8729  -13.2426   15.5833 C   0  0  0  0  0  0  0  0  0  0  0  0
    7.9097  -12.5162   27.5451 C   0  0  1  0  0  0  0  0  0  0  0  0
    7.5368  -12.3895   26.1259 C   0  0  0  0  0  0  0  0  0  0  0  0
    6.1242  -11.7828   26.0492 C   0  0  0  0  0  0  0  0  0  0  0  0
    7.6590  -13.5642   25.2512 C   0  0  1  0  0  0  0  0  0  0  0  0
    8.8413  -14.4321   25.3517 N   0  0  0  0  0  0  0  0  0  0  0  0
    8.6978  -15.4862   24.3074 C   0  0  0  0  0  0  0  0  0  0  0  0
    9.0103  -15.1424   26.6236 O   0  0  0  0  0  0  0  0  0  0  0  0
    8.3306  -16.1075   27.0519 O   0  0  0  0  0  0  0  0  0  0  0  0
  2  1  1  1
  3  2  1  0
  4  5  1  0
  4  3  1  0
  6  7  1  0
  6  5  1  0
  8  9  2  0
  8  2  1  0
 11 10  1  0
 12 11  2  0
 13 11  1  0
 14 13  1  0
 15 14  1  0
 16 15  1  0
 17 16  1  1
 17 18  1  0
 18  8  1  0
 19 17  1  0
 19 26  1  0
 20 19  2  0
 22 21  1  6
 22 24  1  0
 23 22  1  0
 25 24  1  6
 25 26  1  0
 25 27  1  0
 27 29  1  0
 28 27  2  0
M  END
$$$$
