KRL.pdb
     RDKit          3D

 29 28  0  0  1  0  0  0  0  0999 V2000
    7.5046  -16.7747   19.3894 N   0  0  0  0  0  0  0  0  0  0  0  0
    8.2193  -15.8364   20.1644 C   0  0  1  0  0  0  0  0  0  0  0  0
    7.6553  -14.4487   20.0109 C   0  0  0  0  0  0  0  0  0  0  0  0
    8.3378  -13.5924   19.0135 C   0  0  0  0  0  0  0  0  0  0  0  0
    7.7784  -13.4778   17.6537 C   0  0  0  0  0  0  0  0  0  0  0  0
    8.5861  -12.7469   16.6379 C   0  0  0  0  0  0  0  0  0  0  0  0
    7.9588  -12.5525   15.3761 N   0  0  0  0  0  0  0  0  0  0  0  0
    8.2799  -16.2658   21.5752 C   0  0  0  0  0  0  0  0  0  0  0  0
    7.2652  -16.6650   22.2126 O   0  0  0  0  0  0  0  0  0  0  0  0
    9.3655  -20.1143   20.9768 N   0  0  0  0  0  0  0  0  0  0  0  0
   10.3992  -21.0717   20.9524 C   0  0  0  0  0  0  0  0  0  0  0  0
   10.3900  -22.0664   20.1363 N   0  0  0  0  0  0  0  0  0  0  0  0
   11.5018  -20.9380   21.8663 N   0  0  0  0  0  0  0  0  0  0  0  0
   11.5772  -19.9145   22.8541 C   0  0  0  0  0  0  0  0  0  0  0  0
   10.4891  -18.8714   22.7287 C   0  0  0  0  0  0  0  0  0  0  0  0
   10.5608  -17.8409   23.8056 C   0  0  0  0  0  0  0  0  0  0  0  0
    9.5734  -16.7394   23.6833 C   0  0  2  0  0  0  0  0  0  0  0  0
    9.4924  -16.2561   22.3043 N   0  0  0  0  0  0  0  0  0  0  0  0
    9.7846  -15.5850   24.6152 C   0  0  0  0  0  0  0  0  0  0  0  0
   10.8881  -14.9925   24.6612 O   0  0  0  0  0  0  0  0  0  0  0  0
   11.2027  -22.7480   20.1841 C   0  0  0  0  0  0  0  0  0  0  0  0
    7.9756  -11.6550   25.1938 C   0  0  2  0  0  0  0  0  0  0  0  0
    7.1697  -12.7363   25.7860 C   0  0  0  0  0  0  0  0  0  0  0  0
    5.7962  -12.1594   26.1736 C   0  0  0  0  0  0  0  0  0  0  0  0
    7.7415  -13.5300   26.8828 C   0  0  2  0  0  0  0  0  0  0  0  0
    8.9683  -14.3089   26.6606 N   0  0  0  0  0  0  0  0  0  0  0  0
    8.7376  -15.1494   25.4512 C   0  0  0  0  0  0  0  0  0  0  0  0
    9.3431  -15.2366   27.7329 O   0  0  0  0  0  0  0  0  0  0  0  0
    9.1801  -16.4814   27.7531 O   0  0  0  0  0  0  0  0  0  0  0  0
  2  1  1  6
  3  2  1  0
  4  5  1  0
  4  3  1  0
  6  7  1  0
  6  5  1  0
  8  9  2  0
  8  2  1  0
 11 10  1  0
 12 11  2  0
 13 11  1  0
 14 13  1  0
 15 14  1  0
 16 15  1  0
 17 16  1  6
 17 18  1  0
 18  8  1  0
 19 17  1  0
 19 26  1  0
 20 19  2  0
 22 21  1  6
 22 24  1  0
 23 22  1  0
 25 24  1  6
 25 26  1  0
 25 27  1  0
 27 29  1  0
 28 27  2  0
M  END
$$$$
