KRL.pdb
     RDKit          3D

 29 28  0  0  1  0  0  0  0  0999 V2000
    6.2598  -15.9122   18.9867 N   0  0  0  0  0  0  0  0  0  0  0  0
    7.2090  -15.3057   19.8371 C   0  0  1  0  0  0  0  0  0  0  0  0
    7.2231  -13.8092   19.6714 C   0  0  0  0  0  0  0  0  0  0  0  0
    8.5069  -13.1462   19.9976 C   0  0  0  0  0  0  0  0  0  0  0  0
    9.7064  -13.4576   19.1980 C   0  0  0  0  0  0  0  0  0  0  0  0
   11.0032  -12.8833   19.6527 C   0  0  0  0  0  0  0  0  0  0  0  0
   12.1431  -13.2537   18.8866 N   0  0  0  0  0  0  0  0  0  0  0  0
    6.9876  -15.7142   21.2381 C   0  0  0  0  0  0  0  0  0  0  0  0
    5.8435  -15.7313   21.7727 O   0  0  0  0  0  0  0  0  0  0  0  0
    6.7737  -18.8547   27.2508 N   0  0  0  0  0  0  0  0  0  0  0  0
    7.1299  -20.2178   27.2175 C   0  0  0  0  0  0  0  0  0  0  0  0
    6.6034  -21.0811   28.0130 N   0  0  0  0  0  0  0  0  0  0  0  0
    8.1125  -20.6636   26.2665 N   0  0  0  0  0  0  0  0  0  0  0  0
    8.2556  -20.0964   24.9677 C   0  0  0  0  0  0  0  0  0  0  0  0
    7.9952  -18.6070   24.9261 C   0  0  0  0  0  0  0  0  0  0  0  0
    8.0925  -18.0500   23.5451 C   0  0  0  0  0  0  0  0  0  0  0  0
    7.8378  -16.5914   23.4402 C   0  0  2  0  0  0  0  0  0  0  0  0
    8.0565  -16.1160   22.0734 N   0  0  0  0  0  0  0  0  0  0  0  0
    8.6040  -15.7376   24.4044 C   0  0  0  0  0  0  0  0  0  0  0  0
    9.8317  -15.5394   24.2488 O   0  0  0  0  0  0  0  0  0  0  0  0
    6.9186  -22.0907   27.9196 C   0  0  0  0  0  0  0  0  0  0  0  0
    7.1465  -11.7048   25.2735 C   0  0  2  0  0  0  0  0  0  0  0  0
    6.6496  -12.6914   26.2478 C   0  0  0  0  0  0  0  0  0  0  0  0
    5.5550  -12.0222   27.0984 C   0  0  0  0  0  0  0  0  0  0  0  0
    7.6170  -13.4056   27.0926 C   0  0  2  0  0  0  0  0  0  0  0  0
    8.6449  -14.2539   26.4721 N   0  0  0  0  0  0  0  0  0  0  0  0
    7.9472  -15.1428   25.4998 C   0  0  0  0  0  0  0  0  0  0  0  0
    9.3778  -15.1426   27.3796 O   0  0  0  0  0  0  0  0  0  0  0  0
    9.2507  -16.3867   27.4929 O   0  0  0  0  0  0  0  0  0  0  0  0
  2  1  1  6
  3  2  1  0
  4  5  1  0
  4  3  1  0
  6  7  1  0
  6  5  1  0
  8  9  2  0
  8  2  1  0
 11 10  1  0
 12 11  2  0
 13 11  1  0
 14 13  1  0
 15 14  1  0
 16 15  1  0
 17 16  1  6
 17 18  1  0
 18  8  1  0
 19 17  1  0
 19 26  1  0
 20 19  2  0
 22 21  1  6
 22 24  1  0
 23 22  1  0
 25 24  1  6
 25 26  1  0
 25 27  1  0
 27 29  1  0
 28 27  2  0
M  END
$$$$
