KRL.pdb
     RDKit          3D

 29 28  0  0  1  0  0  0  0  0999 V2000
    8.8426  -19.7825   22.5918 N   0  0  0  0  0  0  0  0  0  0  0  0
   10.2026  -19.4083   22.6394 C   0  0  1  0  0  0  0  0  0  0  0  0
   10.9928  -20.0546   21.5326 C   0  0  0  0  0  0  0  0  0  0  0  0
   10.7491  -21.5029   21.3402 C   0  0  0  0  0  0  0  0  0  0  0  0
   11.7320  -22.3096   20.5932 C   0  0  0  0  0  0  0  0  0  0  0  0
   11.3869  -23.7324   20.3192 C   0  0  0  0  0  0  0  0  0  0  0  0
   12.3204  -24.4499   19.5210 N   0  0  0  0  0  0  0  0  0  0  0  0
   10.3376  -17.9385   22.6424 C   0  0  0  0  0  0  0  0  0  0  0  0
   11.4525  -17.3544   22.7475 O   0  0  0  0  0  0  0  0  0  0  0  0
    8.7677  -12.4961   17.5186 N   0  0  0  0  0  0  0  0  0  0  0  0
    8.1262  -13.7427   17.6617 C   0  0  0  0  0  0  0  0  0  0  0  0
    8.1368  -14.6276   16.7278 N   0  0  0  0  0  0  0  0  0  0  0  0
    7.4363  -14.0405   18.8881 N   0  0  0  0  0  0  0  0  0  0  0  0
    7.4908  -13.2017   20.0381 C   0  0  0  0  0  0  0  0  0  0  0  0
    8.4887  -13.6635   21.0767 C   0  0  0  0  0  0  0  0  0  0  0  0
    8.3729  -15.1222   21.3692 C   0  0  0  0  0  0  0  0  0  0  0  0
    9.3478  -15.6400   22.3615 C   0  0  2  0  0  0  0  0  0  0  0  0
    9.2129  -17.0880   22.5256 N   0  0  0  0  0  0  0  0  0  0  0  0
    9.3124  -14.9708   23.7018 C   0  0  0  0  0  0  0  0  0  0  0  0
    9.6103  -13.7592   23.8209 O   0  0  0  0  0  0  0  0  0  0  0  0
    7.6095  -15.5324   16.9031 C   0  0  0  0  0  0  0  0  0  0  0  0
    7.9989  -12.0822   26.6611 C   0  0  2  0  0  0  0  0  0  0  0  0
    7.2343  -13.1627   26.0151 C   0  0  0  0  0  0  0  0  0  0  0  0
    5.7345  -12.8486   26.1619 C   0  0  0  0  0  0  0  0  0  0  0  0
    7.5239  -14.5560   26.3821 C   0  0  2  0  0  0  0  0  0  0  0  0
    8.8816  -15.0921   26.2075 N   0  0  0  0  0  0  0  0  0  0  0  0
    8.9381  -15.7002   24.8476 C   0  0  0  0  0  0  0  0  0  0  0  0
    9.2791  -16.1507   27.1413 O   0  0  0  0  0  0  0  0  0  0  0  0
    9.3233  -16.0823   28.3944 O   0  0  0  0  0  0  0  0  0  0  0  0
  2  1  1  6
  3  2  1  0
  4  5  1  0
  4  3  1  0
  6  7  1  0
  6  5  1  0
  8  9  2  0
  8  2  1  0
 11 10  1  0
 12 11  2  0
 13 11  1  0
 14 13  1  0
 15 14  1  0
 16 15  1  0
 17 16  1  6
 17 18  1  0
 18  8  1  0
 19 17  1  0
 19 26  1  0
 20 19  2  0
 22 21  1  6
 22 24  1  0
 23 22  1  0
 25 24  1  6
 25 26  1  0
 25 27  1  0
 27 29  1  0
 28 27  2  0
M  END
$$$$
