FCR.pdb
     RDKit          3D

 29 29  0  0  1  0  0  0  0  0999 V2000
   28.2926  -21.4472  -15.2925 N   0  0  0  0  0  0  0  0  0  0  0  0
   27.6573  -20.5178  -14.3779 C   0  0  1  0  0  0  0  0  0  0  0  0
   26.9036  -19.5290  -15.2455 C   0  0  0  0  0  0  0  0  0  0  0  0
   27.9041  -18.7002  -15.9677 C   0  0  0  0  0  0  0  0  0  0  0  0
   28.6459  -17.7354  -15.3351 C   0  0  0  0  0  0  0  0  0  0  0  0
   29.5786  -16.9771  -16.0386 C   0  0  0  0  0  0  0  0  0  0  0  0
   29.7934  -17.1627  -17.3883 C   0  0  0  0  0  0  0  0  0  0  0  0
   29.0472  -18.1330  -18.0241 C   0  0  0  0  0  0  0  0  0  0  0  0
   28.1181  -18.8859  -17.3154 C   0  0  0  0  0  0  0  0  0  0  0  0
   26.7581  -21.2876  -13.4997 C   0  0  0  0  0  0  0  0  0  0  0  0
   26.1772  -22.2964  -13.9176 O   0  0  0  0  0  0  0  0  0  0  0  0
   26.5059  -20.9253  -12.1394 N   0  0  0  0  0  0  0  0  0  0  0  0
   25.3590  -21.3432  -11.4054 C   0  0  1  0  0  0  0  0  0  0  0  0
   25.4866  -21.2109   -9.9139 C   0  0  0  0  0  0  0  0  0  0  0  0
   27.1815  -20.9777   -9.3599 S   0  0  0  0  0  0  0  0  0  0  0  0
   24.1027  -20.6805  -11.8858 C   0  0  0  0  0  0  0  0  0  0  0  0
   24.0585  -19.4302  -12.0171 O   0  0  0  0  0  0  0  0  0  0  0  0
   19.6181  -21.1239  -19.2549 N   0  0  0  0  0  0  0  0  0  0  0  0
   18.9540  -20.2260  -18.3875 C   0  0  0  0  0  0  0  0  0  0  0  0
   17.9299  -19.5164  -18.7829 N   0  0  0  0  0  0  0  0  0  0  0  0
   19.3411  -20.0260  -17.0364 N   0  0  0  0  0  0  0  0  0  0  0  0
   20.4377  -20.7145  -16.3934 C   0  0  0  0  0  0  0  0  0  0  0  0
   20.5121  -20.3708  -14.9041 C   0  0  0  0  0  0  0  0  0  0  0  0
   21.7208  -21.0024  -14.2744 C   0  0  0  0  0  0  0  0  0  0  0  0
   21.7639  -20.7441  -12.8135 C   0  0  2  0  0  0  0  0  0  0  0  0
   22.9383  -21.4074  -12.2063 N   0  0  0  0  0  0  0  0  0  0  0  0
   20.5479  -21.1097  -12.0888 C   0  0  0  0  0  0  0  0  0  0  0  0
   19.4850  -20.2739  -11.9127 O   0  0  0  0  0  0  0  0  0  0  0  0
   20.4154  -22.2745  -11.5611 O   0  0  0  0  0  0  0  0  0  0  0  0
  2  1  1  6
  2  3  1  0
  3  4  1  0
  4  5  2  0
  4  9  1  0
  5  6  1  0
  6  7  2  0
  8  7  1  0
  9  8  2  0
 10  2  1  0
 11 10  2  0
 12 10  1  0
 13 12  1  0
 13 14  1  1
 15 14  1  0
 16 13  1  0
 16 26  1  0
 17 16  2  0
 19 18  1  0
 20 19  2  0
 21 19  1  0
 22 21  1  0
 23 22  1  0
 24 23  1  0
 25 26  1  0
 25 24  1  6
 27 25  1  0
 28 27  1  0
 29 27  2  0
M  END
$$$$
