FCR.pdb
     RDKit          3D

 29 29  0  0  1  0  0  0  0  0999 V2000
   24.8030  -35.6044  -11.6054 N   0  0  0  0  0  0  0  0  0  0  0  0
   25.7758  -34.7905  -10.9016 C   0  0  1  0  0  0  0  0  0  0  0  0
   25.3782  -33.3503  -11.1589 C   0  0  0  0  0  0  0  0  0  0  0  0
   25.7156  -33.0287  -12.5704 C   0  0  0  0  0  0  0  0  0  0  0  0
   24.7624  -32.9772  -13.5552 C   0  0  0  0  0  0  0  0  0  0  0  0
   25.1094  -32.6696  -14.8686 C   0  0  0  0  0  0  0  0  0  0  0  0
   26.4140  -32.4065  -15.2305 C   0  0  0  0  0  0  0  0  0  0  0  0
   27.3723  -32.4584  -14.2398 C   0  0  0  0  0  0  0  0  0  0  0  0
   27.0185  -32.7661  -12.9313 C   0  0  0  0  0  0  0  0  0  0  0  0
   25.7108  -35.1399   -9.4712 C   0  0  0  0  0  0  0  0  0  0  0  0
   24.6400  -35.4733   -8.9498 O   0  0  0  0  0  0  0  0  0  0  0  0
   26.8559  -35.1162   -8.6148 N   0  0  0  0  0  0  0  0  0  0  0  0
   26.8385  -35.5341   -7.2532 C   0  0  1  0  0  0  0  0  0  0  0  0
   28.0637  -36.2839   -6.8117 C   0  0  0  0  0  0  0  0  0  0  0  0
   29.5952  -35.3909   -7.1137 S   0  0  0  0  0  0  0  0  0  0  0  0
   26.5486  -34.4021   -6.3136 C   0  0  0  0  0  0  0  0  0  0  0  0
   27.0802  -33.2769   -6.4971 O   0  0  0  0  0  0  0  0  0  0  0  0
   19.2506  -33.9731   -2.2993 N   0  0  0  0  0  0  0  0  0  0  0  0
   20.1089  -34.8498   -3.0025 C   0  0  0  0  0  0  0  0  0  0  0  0
   19.8626  -36.1303   -3.0922 N   0  0  0  0  0  0  0  0  0  0  0  0
   21.2906  -34.4152   -3.6583 N   0  0  0  0  0  0  0  0  0  0  0  0
   21.6662  -33.0292   -3.8253 C   0  0  0  0  0  0  0  0  0  0  0  0
   23.0348  -32.9020   -4.4977 C   0  0  0  0  0  0  0  0  0  0  0  0
   24.1011  -33.5403   -3.6540 C   0  0  0  0  0  0  0  0  0  0  0  0
   25.4380  -33.4088   -4.2852 C   0  0  2  0  0  0  0  0  0  0  0  0
   25.6874  -34.5391   -5.2061 N   0  0  0  0  0  0  0  0  0  0  0  0
   26.5498  -33.2689   -3.3462 C   0  0  0  0  0  0  0  0  0  0  0  0
   27.1854  -32.0907   -3.0875 O   0  0  0  0  0  0  0  0  0  0  0  0
   27.0013  -34.2828   -2.6974 O   0  0  0  0  0  0  0  0  0  0  0  0
  2  1  1  6
  2  3  1  0
  3  4  1  0
  4  5  2  0
  4  9  1  0
  5  6  1  0
  6  7  2  0
  8  7  1  0
  9  8  2  0
 10  2  1  0
 11 10  2  0
 12 10  1  0
 13 12  1  0
 13 14  1  1
 15 14  1  0
 16 13  1  0
 16 26  1  0
 17 16  2  0
 19 18  1  0
 20 19  2  0
 21 19  1  0
 22 21  1  0
 23 22  1  0
 24 23  1  0
 25 26  1  0
 25 24  1  1
 27 25  1  0
 28 27  1  0
 29 27  2  0
M  END
$$$$
