FCR.pdb
     RDKit          3D

 29 29  0  0  1  0  0  0  0  0999 V2000
   27.9631  -19.0102  -16.1877 N   0  0  0  0  0  0  0  0  0  0  0  0
   27.2817  -18.4398  -15.0414 C   0  0  1  0  0  0  0  0  0  0  0  0
   26.2296  -17.5048  -15.6050 C   0  0  0  0  0  0  0  0  0  0  0  0
   26.9043  -16.2375  -15.9901 C   0  0  0  0  0  0  0  0  0  0  0  0
   27.0984  -15.8830  -17.3008 C   0  0  0  0  0  0  0  0  0  0  0  0
   27.7312  -14.6867  -17.6301 C   0  0  0  0  0  0  0  0  0  0  0  0
   28.1851  -13.8165  -16.6611 C   0  0  0  0  0  0  0  0  0  0  0  0
   27.9897  -14.1735  -15.3430 C   0  0  0  0  0  0  0  0  0  0  0  0
   27.3574  -15.3690  -15.0221 C   0  0  0  0  0  0  0  0  0  0  0  0
   26.6884  -19.5458  -14.2687 C   0  0  0  0  0  0  0  0  0  0  0  0
   26.3121  -20.5803  -14.8325 O   0  0  0  0  0  0  0  0  0  0  0  0
   26.5142  -19.4941  -12.8501 N   0  0  0  0  0  0  0  0  0  0  0  0
   25.8201  -20.4850  -12.0984 C   0  0  1  0  0  0  0  0  0  0  0  0
   26.0998  -20.4622  -10.6220 C   0  0  0  0  0  0  0  0  0  0  0  0
   25.0676  -21.5956   -9.6818 S   0  0  0  0  0  0  0  0  0  0  0  0
   24.3426  -20.4623  -12.3533 C   0  0  0  0  0  0  0  0  0  0  0  0
   23.7105  -19.3756  -12.3084 O   0  0  0  0  0  0  0  0  0  0  0  0
   17.9114  -24.8441  -11.7220 N   0  0  0  0  0  0  0  0  0  0  0  0
   17.3835  -24.4904  -12.9853 C   0  0  0  0  0  0  0  0  0  0  0  0
   16.0967  -24.3844  -13.1891 N   0  0  0  0  0  0  0  0  0  0  0  0
   18.1977  -24.2257  -14.1177 N   0  0  0  0  0  0  0  0  0  0  0  0
   19.6422  -24.1747  -14.0877 C   0  0  0  0  0  0  0  0  0  0  0  0
   20.1386  -22.9055  -13.3918 C   0  0  0  0  0  0  0  0  0  0  0  0
   21.6400  -22.8637  -13.3740 C   0  0  0  0  0  0  0  0  0  0  0  0
   22.1364  -21.5884  -12.7996 C   0  0  2  0  0  0  0  0  0  0  0  0
   23.6073  -21.6280  -12.6486 N   0  0  0  0  0  0  0  0  0  0  0  0
   21.5105  -21.1981  -11.5373 C   0  0  0  0  0  0  0  0  0  0  0  0
   20.5078  -20.2798  -11.4355 O   0  0  0  0  0  0  0  0  0  0  0  0
   21.8874  -21.7157  -10.4225 O   0  0  0  0  0  0  0  0  0  0  0  0
  2  1  1  6
  2  3  1  0
  3  4  1  0
  4  5  2  0
  4  9  1  0
  5  6  1  0
  6  7  2  0
  8  7  1  0
  9  8  2  0
 10  2  1  0
 11 10  2  0
 12 10  1  0
 13 12  1  0
 13 14  1  1
 15 14  1  0
 16 13  1  0
 16 26  1  0
 17 16  2  0
 19 18  1  0
 20 19  2  0
 21 19  1  0
 22 21  1  0
 23 22  1  0
 24 23  1  0
 25 26  1  0
 25 24  1  1
 27 25  1  0
 28 27  1  0
 29 27  2  0
M  END
$$$$
