FCR.pdb
     RDKit          3D

 29 29  0  0  1  0  0  0  0  0999 V2000
   28.4792  -19.9141  -13.9043 N   0  0  0  0  0  0  0  0  0  0  0  0
   27.0899  -19.5764  -14.1485 C   0  0  1  0  0  0  0  0  0  0  0  0
   26.9362  -19.5088  -15.6553 C   0  0  0  0  0  0  0  0  0  0  0  0
   27.5189  -18.2214  -16.1163 C   0  0  0  0  0  0  0  0  0  0  0  0
   28.4644  -18.1617  -17.1081 C   0  0  0  0  0  0  0  0  0  0  0  0
   28.9892  -16.9394  -17.5209 C   0  0  0  0  0  0  0  0  0  0  0  0
   28.5840  -15.7488  -16.9549 C   0  0  0  0  0  0  0  0  0  0  0  0
   27.6332  -15.8092  -15.9574 C   0  0  0  0  0  0  0  0  0  0  0  0
   27.1140  -17.0328  -15.5507 C   0  0  0  0  0  0  0  0  0  0  0  0
   26.2536  -20.6318  -13.5494 C   0  0  0  0  0  0  0  0  0  0  0  0
   26.7568  -21.6926  -13.1603 O   0  0  0  0  0  0  0  0  0  0  0  0
   24.8393  -20.4995  -13.3837 N   0  0  0  0  0  0  0  0  0  0  0  0
   24.1343  -20.9101  -12.2161 C   0  0  1  0  0  0  0  0  0  0  0  0
   24.7141  -20.4068  -10.9242 C   0  0  0  0  0  0  0  0  0  0  0  0
   23.7353  -20.8489   -9.4818 S   0  0  0  0  0  0  0  0  0  0  0  0
   22.6707  -20.5933  -12.2935 C   0  0  0  0  0  0  0  0  0  0  0  0
   22.2833  -19.3966  -12.3076 O   0  0  0  0  0  0  0  0  0  0  0  0
   15.7154  -25.6511  -10.1747 N   0  0  0  0  0  0  0  0  0  0  0  0
   16.1895  -25.4492  -11.4916 C   0  0  0  0  0  0  0  0  0  0  0  0
   15.9674  -26.3161  -12.4443 N   0  0  0  0  0  0  0  0  0  0  0  0
   16.9343  -24.3044  -11.8790 N   0  0  0  0  0  0  0  0  0  0  0  0
   17.2139  -23.1829  -11.0106 C   0  0  0  0  0  0  0  0  0  0  0  0
   17.9911  -22.0901  -11.7477 C   0  0  0  0  0  0  0  0  0  0  0  0
   19.4663  -22.3703  -11.7076 C   0  0  0  0  0  0  0  0  0  0  0  0
   20.2426  -21.2556  -12.3057 C   0  0  2  0  0  0  0  0  0  0  0  0
   21.6813  -21.5956  -12.3531 N   0  0  0  0  0  0  0  0  0  0  0  0
   20.0523  -19.9581  -11.6593 C   0  0  0  0  0  0  0  0  0  0  0  0
   19.2539  -18.9698  -12.1541 O   0  0  0  0  0  0  0  0  0  0  0  0
   20.6494  -19.6726  -10.5572 O   0  0  0  0  0  0  0  0  0  0  0  0
  2  1  1  6
  2  3  1  0
  3  4  1  0
  4  5  2  0
  4  9  1  0
  5  6  1  0
  6  7  2  0
  8  7  1  0
  9  8  2  0
 10  2  1  0
 11 10  2  0
 12 10  1  0
 13 12  1  0
 13 14  1  1
 15 14  1  0
 16 13  1  0
 16 26  1  0
 17 16  2  0
 19 18  1  0
 20 19  2  0
 21 19  1  0
 22 21  1  0
 23 22  1  0
 24 23  1  0
 25 26  1  0
 25 24  1  1
 27 25  1  0
 28 27  1  0
 29 27  2  0
M  END
$$$$
