FCR.pdb
     RDKit          3D

 29 29  0  0  1  0  0  0  0  0999 V2000
   16.3727  -10.6732  -10.9407 N   0  0  0  0  0  0  0  0  0  0  0  0
   15.3813   -9.7049  -10.5124 C   0  0  1  0  0  0  0  0  0  0  0  0
   14.5565  -10.3974   -9.4452 C   0  0  0  0  0  0  0  0  0  0  0  0
   13.4957  -11.1843  -10.1272 C   0  0  0  0  0  0  0  0  0  0  0  0
   13.5616  -12.5492  -10.2459 C   0  0  0  0  0  0  0  0  0  0  0  0
   12.5499  -13.2592  -10.8877 C   0  0  0  0  0  0  0  0  0  0  0  0
   11.4494  -12.6256  -11.4260 C   0  0  0  0  0  0  0  0  0  0  0  0
   11.3834  -11.2530  -11.3064 C   0  0  0  0  0  0  0  0  0  0  0  0
   12.3971  -10.5511  -10.6645 C   0  0  0  0  0  0  0  0  0  0  0  0
   16.0940   -8.5260   -9.9887 C   0  0  0  0  0  0  0  0  0  0  0  0
   17.1045   -8.6579   -9.2877 O   0  0  0  0  0  0  0  0  0  0  0  0
   15.6721   -7.1851  -10.2517 N   0  0  0  0  0  0  0  0  0  0  0  0
   16.3304   -6.0302   -9.7400 C   0  0  1  0  0  0  0  0  0  0  0  0
   17.4453   -5.5100  -10.6031 C   0  0  0  0  0  0  0  0  0  0  0  0
   16.9673   -5.2706  -12.3201 S   0  0  0  0  0  0  0  0  0  0  0  0
   15.3697   -4.9293   -9.4031 C   0  0  0  0  0  0  0  0  0  0  0  0
   14.3579   -4.7314  -10.1237 O   0  0  0  0  0  0  0  0  0  0  0  0
   13.4478   -1.8007   -1.7596 N   0  0  0  0  0  0  0  0  0  0  0  0
   12.8232   -2.6484   -2.7036 C   0  0  0  0  0  0  0  0  0  0  0  0
   11.9863   -3.5848   -2.3412 N   0  0  0  0  0  0  0  0  0  0  0  0
   13.0522   -2.5517   -4.1013 N   0  0  0  0  0  0  0  0  0  0  0  0
   13.4593   -1.3405   -4.7776 C   0  0  0  0  0  0  0  0  0  0  0  0
   13.5846   -1.5625   -6.2864 C   0  0  0  0  0  0  0  0  0  0  0  0
   14.4101   -2.7836   -6.5756 C   0  0  0  0  0  0  0  0  0  0  0  0
   14.6318   -2.9509   -8.0336 C   0  0  2  0  0  0  0  0  0  0  0  0
   15.5483   -4.0832   -8.2899 N   0  0  0  0  0  0  0  0  0  0  0  0
   15.1055   -1.7526   -8.7245 C   0  0  0  0  0  0  0  0  0  0  0  0
   14.3013   -0.7121   -9.0845 O   0  0  0  0  0  0  0  0  0  0  0  0
   16.3441   -1.6156   -9.0405 O   0  0  0  0  0  0  0  0  0  0  0  0
  2  1  1  1
  2  3  1  0
  3  4  1  0
  4  5  2  0
  4  9  1  0
  5  6  1  0
  6  7  2  0
  8  7  1  0
  9  8  2  0
 10  2  1  0
 11 10  2  0
 12 10  1  0
 13 12  1  0
 13 14  1  6
 15 14  1  0
 16 13  1  0
 16 26  1  0
 17 16  2  0
 19 18  1  0
 20 19  2  0
 21 19  1  0
 22 21  1  0
 23 22  1  0
 24 23  1  0
 25 26  1  0
 25 24  1  1
 27 25  1  0
 28 27  1  0
 29 27  2  0
M  END
$$$$
