FCR.pdb
     RDKit          3D

 29 29  0  0  1  0  0  0  0  0999 V2000
   17.7147  -22.6432    6.5288 N   0  0  0  0  0  0  0  0  0  0  0  0
   19.1067  -22.2404    6.4666 C   0  0  1  0  0  0  0  0  0  0  0  0
   19.3260  -21.7153    5.0613 C   0  0  0  0  0  0  0  0  0  0  0  0
   19.4316  -22.8838    4.1487 C   0  0  0  0  0  0  0  0  0  0  0  0
   18.4172  -23.2381    3.2962 C   0  0  0  0  0  0  0  0  0  0  0  0
   18.5473  -24.3369    2.4502 C   0  0  0  0  0  0  0  0  0  0  0  0
   19.6910  -25.1076    2.4343 C   0  0  0  0  0  0  0  0  0  0  0  0
   20.7109  -24.7509    3.2918 C   0  0  0  0  0  0  0  0  0  0  0  0
   20.5738  -23.6531    4.1333 C   0  0  0  0  0  0  0  0  0  0  0  0
   19.3257  -21.2027    7.4901 C   0  0  0  0  0  0  0  0  0  0  0  0
   18.3767  -20.5522    7.9441 O   0  0  0  0  0  0  0  0  0  0  0  0
   20.6200  -20.8892    8.0115 N   0  0  0  0  0  0  0  0  0  0  0  0
   20.8517  -19.9298    9.0385 C   0  0  1  0  0  0  0  0  0  0  0  0
   22.0432  -20.2176    9.9081 C   0  0  0  0  0  0  0  0  0  0  0  0
   23.4461  -20.8822    9.0003 S   0  0  0  0  0  0  0  0  0  0  0  0
   20.9162  -18.5296    8.5060 C   0  0  0  0  0  0  0  0  0  0  0  0
   21.5811  -18.2785    7.4682 O   0  0  0  0  0  0  0  0  0  0  0  0
   17.4879  -13.3119    3.5063 N   0  0  0  0  0  0  0  0  0  0  0  0
   18.3433  -12.5169    4.3038 C   0  0  0  0  0  0  0  0  0  0  0  0
   18.9183  -11.4405    3.8356 N   0  0  0  0  0  0  0  0  0  0  0  0
   18.6420  -12.8202    5.6581 N   0  0  0  0  0  0  0  0  0  0  0  0
   18.4751  -14.1260    6.2557 C   0  0  0  0  0  0  0  0  0  0  0  0
   19.0869  -14.1773    7.6574 C   0  0  0  0  0  0  0  0  0  0  0  0
   19.0064  -15.5677    8.2201 C   0  0  0  0  0  0  0  0  0  0  0  0
   20.3506  -16.0785    8.5875 C   0  0  2  0  0  0  0  0  0  0  0  0
   20.2514  -17.4525    9.1262 N   0  0  0  0  0  0  0  0  0  0  0  0
   21.0998  -15.2280    9.5111 C   0  0  0  0  0  0  0  0  0  0  0  0
   21.6418  -14.0243    9.1697 O   0  0  0  0  0  0  0  0  0  0  0  0
   21.2944  -15.5842   10.7309 O   0  0  0  0  0  0  0  0  0  0  0  0
  2  1  1  6
  2  3  1  0
  3  4  1  0
  4  5  2  0
  4  9  1  0
  5  6  1  0
  6  7  2  0
  8  7  1  0
  9  8  2  0
 10  2  1  0
 11 10  2  0
 12 10  1  0
 13 12  1  0
 13 14  1  6
 15 14  1  0
 16 13  1  0
 16 26  1  0
 17 16  2  0
 19 18  1  0
 20 19  2  0
 21 19  1  0
 22 21  1  0
 23 22  1  0
 24 23  1  0
 25 26  1  0
 25 24  1  1
 27 25  1  0
 28 27  1  0
 29 27  2  0
M  END
$$$$
