FCR.pdb
     RDKit          3D

 29 29  0  0  1  0  0  0  0  0999 V2000
   28.5806  -21.1631   -9.0179 N   0  0  0  0  0  0  0  0  0  0  0  0
   27.1648  -20.8866   -8.8665 C   0  0  1  0  0  0  0  0  0  0  0  0
   27.0736  -19.6295   -8.0239 C   0  0  0  0  0  0  0  0  0  0  0  0
   27.6509  -19.9326   -6.6881 C   0  0  0  0  0  0  0  0  0  0  0  0
   26.9987  -20.7182   -5.7722 C   0  0  0  0  0  0  0  0  0  0  0  0
   27.5673  -20.9870   -4.5295 C   0  0  0  0  0  0  0  0  0  0  0  0
   28.7985  -20.4793   -4.1710 C   0  0  0  0  0  0  0  0  0  0  0  0
   29.4541  -19.6892   -5.0923 C   0  0  0  0  0  0  0  0  0  0  0  0
   28.8803  -19.4253   -6.3306 C   0  0  0  0  0  0  0  0  0  0  0  0
   26.5921  -20.6991  -10.2116 C   0  0  0  0  0  0  0  0  0  0  0  0
   27.0755  -19.8732  -10.9951 O   0  0  0  0  0  0  0  0  0  0  0  0
   25.4665  -21.4433  -10.6854 N   0  0  0  0  0  0  0  0  0  0  0  0
   24.9303  -21.3225  -11.9994 C   0  0  1  0  0  0  0  0  0  0  0  0
   25.1513  -22.5205  -12.8794 C   0  0  0  0  0  0  0  0  0  0  0  0
   26.8626  -22.7233  -13.3935 S   0  0  0  0  0  0  0  0  0  0  0  0
   23.4811  -20.9378  -11.9901 C   0  0  0  0  0  0  0  0  0  0  0  0
   22.7473  -21.2637  -11.0218 O   0  0  0  0  0  0  0  0  0  0  0  0
   17.9757  -15.9577  -12.8393 N   0  0  0  0  0  0  0  0  0  0  0  0
   17.3883  -16.2910  -14.0817 C   0  0  0  0  0  0  0  0  0  0  0  0
   16.1291  -16.0495  -14.3353 N   0  0  0  0  0  0  0  0  0  0  0  0
   18.1095  -16.9064  -15.1384 N   0  0  0  0  0  0  0  0  0  0  0  0
   19.5110  -17.2549  -15.0726 C   0  0  0  0  0  0  0  0  0  0  0  0
   19.7631  -18.3473  -14.0311 C   0  0  0  0  0  0  0  0  0  0  0  0
   21.2237  -18.6926  -13.9683 C   0  0  0  0  0  0  0  0  0  0  0  0
   21.4875  -19.7330  -12.9432 C   0  0  2  0  0  0  0  0  0  0  0  0
   22.8842  -20.2102  -13.0395 N   0  0  0  0  0  0  0  0  0  0  0  0
   20.5647  -20.8668  -12.9669 C   0  0  0  0  0  0  0  0  0  0  0  0
   20.8377  -22.0594  -13.5687 O   0  0  0  0  0  0  0  0  0  0  0  0
   19.4104  -20.7939  -12.4056 O   0  0  0  0  0  0  0  0  0  0  0  0
  2  1  1  6
  2  3  1  0
  3  4  1  0
  4  5  2  0
  4  9  1  0
  5  6  1  0
  6  7  2  0
  8  7  1  0
  9  8  2  0
 10  2  1  0
 11 10  2  0
 12 10  1  0
 13 12  1  0
 13 14  1  1
 15 14  1  0
 16 13  1  0
 16 26  1  0
 17 16  2  0
 19 18  1  0
 20 19  2  0
 21 19  1  0
 22 21  1  0
 23 22  1  0
 24 23  1  0
 25 26  1  0
 25 24  1  6
 27 25  1  0
 28 27  1  0
 29 27  2  0
M  END
$$$$
