FCR.pdb
     RDKit          3D

 29 29  0  0  1  0  0  0  0  0999 V2000
   27.9084  -20.0311  -15.8613 N   0  0  0  0  0  0  0  0  0  0  0  0
   27.2597  -19.3046  -14.7864 C   0  0  1  0  0  0  0  0  0  0  0  0
   26.2014  -18.4422  -15.4458 C   0  0  0  0  0  0  0  0  0  0  0  0
   26.8781  -17.2518  -16.0244 C   0  0  0  0  0  0  0  0  0  0  0  0
   27.3942  -17.2514  -17.2952 C   0  0  0  0  0  0  0  0  0  0  0  0
   28.0198  -16.1189  -17.8108 C   0  0  0  0  0  0  0  0  0  0  0  0
   28.1455  -14.9610  -17.0720 C   0  0  0  0  0  0  0  0  0  0  0  0
   27.6264  -14.9618  -15.7940 C   0  0  0  0  0  0  0  0  0  0  0  0
   27.0034  -16.0959  -15.2863 C   0  0  0  0  0  0  0  0  0  0  0  0
   26.6771  -20.2904  -13.8585 C   0  0  0  0  0  0  0  0  0  0  0  0
   26.1989  -21.3502  -14.2804 O   0  0  0  0  0  0  0  0  0  0  0  0
   26.6287  -20.0888  -12.4435 N   0  0  0  0  0  0  0  0  0  0  0  0
   25.7309  -20.7718  -11.5739 C   0  0  1  0  0  0  0  0  0  0  0  0
   26.0185  -20.5933  -10.1097 C   0  0  0  0  0  0  0  0  0  0  0  0
   24.6557  -21.0928   -9.0479 S   0  0  0  0  0  0  0  0  0  0  0  0
   24.2964  -20.4511  -11.8702 C   0  0  0  0  0  0  0  0  0  0  0  0
   23.8843  -19.2654  -11.7884 O   0  0  0  0  0  0  0  0  0  0  0  0
   21.4977  -20.7335  -18.1993 N   0  0  0  0  0  0  0  0  0  0  0  0
   20.3550  -20.0065  -17.7923 C   0  0  0  0  0  0  0  0  0  0  0  0
   19.8767  -19.0198  -18.5038 N   0  0  0  0  0  0  0  0  0  0  0  0
   19.6458  -20.2862  -16.5948 N   0  0  0  0  0  0  0  0  0  0  0  0
   19.8987  -21.4297  -15.7471 C   0  0  0  0  0  0  0  0  0  0  0  0
   20.2402  -20.9978  -14.3194 C   0  0  0  0  0  0  0  0  0  0  0  0
   21.6603  -21.3539  -13.9834 C   0  0  0  0  0  0  0  0  0  0  0  0
   21.9591  -21.0858  -12.5545 C   0  0  2  0  0  0  0  0  0  0  0  0
   23.3621  -21.4376  -12.2456 N   0  0  0  0  0  0  0  0  0  0  0  0
   21.0560  -21.7352  -11.6056 C   0  0  0  0  0  0  0  0  0  0  0  0
   19.8202  -21.2591  -11.2814 O   0  0  0  0  0  0  0  0  0  0  0  0
   21.3930  -22.8220  -11.0072 O   0  0  0  0  0  0  0  0  0  0  0  0
  2  1  1  6
  2  3  1  0
  3  4  1  0
  4  5  2  0
  4  9  1  0
  5  6  1  0
  6  7  2  0
  8  7  1  0
  9  8  2  0
 10  2  1  0
 11 10  2  0
 12 10  1  0
 13 12  1  0
 13 14  1  1
 15 14  1  0
 16 13  1  0
 16 26  1  0
 17 16  2  0
 19 18  1  0
 20 19  2  0
 21 19  1  0
 22 21  1  0
 23 22  1  0
 24 23  1  0
 25 26  1  0
 25 24  1  6
 27 25  1  0
 28 27  1  0
 29 27  2  0
M  END
$$$$
