FCR.pdb
     RDKit          3D

 29 29  0  0  1  0  0  0  0  0999 V2000
   30.6999  -21.7571  -10.1736 N   0  0  0  0  0  0  0  0  0  0  0  0
   29.3890  -21.1592  -10.3415 C   0  0  1  0  0  0  0  0  0  0  0  0
   29.4701  -19.7895   -9.6963 C   0  0  0  0  0  0  0  0  0  0  0  0
   29.1764  -19.9492   -8.2480 C   0  0  0  0  0  0  0  0  0  0  0  0
   27.9267  -20.2786   -7.7886 C   0  0  0  0  0  0  0  0  0  0  0  0
   27.6834  -20.4245   -6.4250 C   0  0  0  0  0  0  0  0  0  0  0  0
   28.6795  -20.2454   -5.4881 C   0  0  0  0  0  0  0  0  0  0  0  0
   29.9361  -19.9141   -5.9504 C   0  0  0  0  0  0  0  0  0  0  0  0
   30.1714  -19.7702   -7.3128 C   0  0  0  0  0  0  0  0  0  0  0  0
   29.1077  -21.0793  -11.7860 C   0  0  0  0  0  0  0  0  0  0  0  0
   29.9712  -20.6818  -12.5774 O   0  0  0  0  0  0  0  0  0  0  0  0
   27.8470  -21.4480  -12.3517 N   0  0  0  0  0  0  0  0  0  0  0  0
   27.5403  -21.3522  -13.7394 C   0  0  1  0  0  0  0  0  0  0  0  0
   28.5321  -22.0219  -14.6484 C   0  0  0  0  0  0  0  0  0  0  0  0
   29.4263  -20.8708  -15.7017 S   0  0  0  0  0  0  0  0  0  0  0  0
   26.1482  -21.8158  -14.0484 C   0  0  0  0  0  0  0  0  0  0  0  0
   25.7927  -22.9863  -13.7556 O   0  0  0  0  0  0  0  0  0  0  0  0
   22.0579  -20.8156  -10.6670 N   0  0  0  0  0  0  0  0  0  0  0  0
   20.6528  -20.8310  -10.8257 C   0  0  0  0  0  0  0  0  0  0  0  0
   19.8479  -21.0435   -9.8179 N   0  0  0  0  0  0  0  0  0  0  0  0
   20.0126  -20.6200  -12.0751 N   0  0  0  0  0  0  0  0  0  0  0  0
   20.6145  -19.9257  -13.1912 C   0  0  0  0  0  0  0  0  0  0  0  0
   21.4753  -20.8698  -14.0334 C   0  0  0  0  0  0  0  0  0  0  0  0
   22.9306  -20.5236  -13.8968 C   0  0  0  0  0  0  0  0  0  0  0  0
   23.7730  -21.3868  -14.7617 C   0  0  2  0  0  0  0  0  0  0  0  0
   25.1930  -20.9838  -14.6667 N   0  0  0  0  0  0  0  0  0  0  0  0
   23.3581  -21.4448  -16.1624 C   0  0  0  0  0  0  0  0  0  0  0  0
   22.4484  -22.3347  -16.6517 O   0  0  0  0  0  0  0  0  0  0  0  0
   23.8476  -20.6352  -17.0329 O   0  0  0  0  0  0  0  0  0  0  0  0
  2  1  1  6
  2  3  1  0
  3  4  1  0
  4  5  2  0
  4  9  1  0
  5  6  1  0
  6  7  2  0
  8  7  1  0
  9  8  2  0
 10  2  1  0
 11 10  2  0
 12 10  1  0
 13 12  1  0
 13 14  1  6
 15 14  1  0
 16 13  1  0
 16 26  1  0
 17 16  2  0
 19 18  1  0
 20 19  2  0
 21 19  1  0
 22 21  1  0
 23 22  1  0
 24 23  1  0
 25 26  1  0
 25 24  1  1
 27 25  1  0
 28 27  1  0
 29 27  2  0
M  END
$$$$
