FCR.pdb
     RDKit          3D

 29 29  0  0  1  0  0  0  0  0999 V2000
   27.3384  -19.4540  -16.1379 N   0  0  0  0  0  0  0  0  0  0  0  0
   26.8293  -18.9205  -14.8889 C   0  0  1  0  0  0  0  0  0  0  0  0
   25.8409  -17.8363  -15.2712 C   0  0  0  0  0  0  0  0  0  0  0  0
   26.6157  -16.6506  -15.7222 C   0  0  0  0  0  0  0  0  0  0  0  0
   26.8270  -16.3787  -17.0499 C   0  0  0  0  0  0  0  0  0  0  0  0
   27.5546  -15.2575  -17.4414 C   0  0  0  0  0  0  0  0  0  0  0  0
   28.0883  -14.3817  -16.5192 C   0  0  0  0  0  0  0  0  0  0  0  0
   27.8755  -14.6556  -15.1841 C   0  0  0  0  0  0  0  0  0  0  0  0
   27.1484  -15.7765  -14.8009 C   0  0  0  0  0  0  0  0  0  0  0  0
   26.1889  -20.0239  -14.1509 C   0  0  0  0  0  0  0  0  0  0  0  0
   25.6317  -20.9486  -14.7543 O   0  0  0  0  0  0  0  0  0  0  0  0
   26.1716  -20.0938  -12.7226 N   0  0  0  0  0  0  0  0  0  0  0  0
   25.3179  -20.9588  -11.9798 C   0  0  1  0  0  0  0  0  0  0  0  0
   25.7025  -21.1323  -10.5374 C   0  0  0  0  0  0  0  0  0  0  0  0
   27.4537  -21.4657  -10.3002 S   0  0  0  0  0  0  0  0  0  0  0  0
   23.8741  -20.5710  -12.0953 C   0  0  0  0  0  0  0  0  0  0  0  0
   23.5306  -19.3681  -11.9633 O   0  0  0  0  0  0  0  0  0  0  0  0
   19.1869  -17.0133  -13.2069 N   0  0  0  0  0  0  0  0  0  0  0  0
   19.3837  -17.2275  -14.5908 C   0  0  0  0  0  0  0  0  0  0  0  0
   19.8628  -16.2947  -15.3711 N   0  0  0  0  0  0  0  0  0  0  0  0
   19.0808  -18.4560  -15.2346 N   0  0  0  0  0  0  0  0  0  0  0  0
   19.3054  -19.7587  -14.6494 C   0  0  0  0  0  0  0  0  0  0  0  0
   20.6867  -20.3031  -15.0198 C   0  0  0  0  0  0  0  0  0  0  0  0
   21.6660  -20.0654  -13.9059 C   0  0  0  0  0  0  0  0  0  0  0  0
   21.5252  -21.0865  -12.8380 C   0  0  2  0  0  0  0  0  0  0  0  0
   22.8558  -21.5115  -12.3513 N   0  0  0  0  0  0  0  0  0  0  0  0
   20.7266  -22.2545  -13.2062 C   0  0  0  0  0  0  0  0  0  0  0  0
   19.3722  -22.3268  -13.0658 O   0  0  0  0  0  0  0  0  0  0  0  0
   21.2785  -23.3080  -13.6943 O   0  0  0  0  0  0  0  0  0  0  0  0
  2  1  1  6
  2  3  1  0
  3  4  1  0
  4  5  2  0
  4  9  1  0
  5  6  1  0
  6  7  2  0
  8  7  1  0
  9  8  2  0
 10  2  1  0
 11 10  2  0
 12 10  1  0
 13 12  1  0
 13 14  1  1
 15 14  1  0
 16 13  1  0
 16 26  1  0
 17 16  2  0
 19 18  1  0
 20 19  2  0
 21 19  1  0
 22 21  1  0
 23 22  1  0
 24 23  1  0
 25 26  1  0
 25 24  1  6
 27 25  1  0
 28 27  1  0
 29 27  2  0
M  END
$$$$
