FCR.pdb
     RDKit          3D

 29 29  0  0  1  0  0  0  0  0999 V2000
   21.4232   -8.0559  -16.2976 N   0  0  0  0  0  0  0  0  0  0  0  0
   20.8340   -7.9826  -14.9742 C   0  0  1  0  0  0  0  0  0  0  0  0
   21.9872   -8.1037  -13.9975 C   0  0  0  0  0  0  0  0  0  0  0  0
   22.5270   -9.4851  -14.0974 C   0  0  0  0  0  0  0  0  0  0  0  0
   23.7887   -9.7434  -14.5691 C   0  0  0  0  0  0  0  0  0  0  0  0
   24.2676  -11.0489  -14.6476 C   0  0  0  0  0  0  0  0  0  0  0  0
   23.5004  -12.1267  -14.2580 C   0  0  0  0  0  0  0  0  0  0  0  0
   22.2315  -11.8665  -13.7837 C   0  0  0  0  0  0  0  0  0  0  0  0
   21.7604  -10.5610  -13.7083 C   0  0  0  0  0  0  0  0  0  0  0  0
   20.1381   -6.6887  -14.8577 C   0  0  0  0  0  0  0  0  0  0  0  0
   20.4552   -5.7332  -15.5763 O   0  0  0  0  0  0  0  0  0  0  0  0
   19.0760   -6.4608  -13.9275 N   0  0  0  0  0  0  0  0  0  0  0  0
   18.2884   -5.2744  -13.8959 C   0  0  1  0  0  0  0  0  0  0  0  0
   17.4137   -5.0701  -15.1007 C   0  0  0  0  0  0  0  0  0  0  0  0
   16.4321   -6.5162  -15.5241 S   0  0  0  0  0  0  0  0  0  0  0  0
   17.4829   -5.1588  -12.6364 C   0  0  0  0  0  0  0  0  0  0  0  0
   16.7742   -6.1233  -12.2491 O   0  0  0  0  0  0  0  0  0  0  0  0
   16.8425   -0.1514   -5.3583 N   0  0  0  0  0  0  0  0  0  0  0  0
   15.5662   -0.6948   -5.6327 C   0  0  0  0  0  0  0  0  0  0  0  0
   14.5914   -0.6370   -4.7638 N   0  0  0  0  0  0  0  0  0  0  0  0
   15.2458   -1.3380   -6.8570 N   0  0  0  0  0  0  0  0  0  0  0  0
   16.1844   -1.5475   -7.9364 C   0  0  0  0  0  0  0  0  0  0  0  0
   15.5270   -2.2770   -9.1100 C   0  0  0  0  0  0  0  0  0  0  0  0
   16.5005   -2.4452  -10.2416 C   0  0  0  0  0  0  0  0  0  0  0  0
   16.5792   -3.8615  -10.6782 C   0  0  2  0  0  0  0  0  0  0  0  0
   17.4800   -3.9932  -11.8439 N   0  0  0  0  0  0  0  0  0  0  0  0
   15.2899   -4.4890  -10.9641 C   0  0  0  0  0  0  0  0  0  0  0  0
   14.5917   -4.3035  -12.1205 O   0  0  0  0  0  0  0  0  0  0  0  0
   14.7294   -5.2707  -10.1112 O   0  0  0  0  0  0  0  0  0  0  0  0
  2  1  1  6
  2  3  1  0
  3  4  1  0
  4  5  2  0
  4  9  1  0
  5  6  1  0
  6  7  2  0
  8  7  1  0
  9  8  2  0
 10  2  1  0
 11 10  2  0
 12 10  1  0
 13 12  1  0
 13 14  1  6
 15 14  1  0
 16 13  1  0
 16 26  1  0
 17 16  2  0
 19 18  1  0
 20 19  2  0
 21 19  1  0
 22 21  1  0
 23 22  1  0
 24 23  1  0
 25 26  1  0
 25 24  1  6
 27 25  1  0
 28 27  1  0
 29 27  2  0
M  END
$$$$
