HKW.pdb
     RDKit          3D

 34 36  0  0  1  0  0  0  0  0999 V2000
    9.1660  -17.2752   17.7490 N   0  0  0  0  0  0  0  0  0  0  0  0
    9.5128  -16.2542   18.7110 C   0  0  1  0  0  0  0  0  0  0  0  0
    8.3310  -15.3926   19.0418 C   0  0  0  0  0  0  0  0  0  0  0  0
    7.8861  -14.6184   17.8320 C   0  0  0  0  0  0  0  0  0  0  0  0
    8.7135  -13.9694   16.9296 C   0  0  0  0  0  0  0  0  0  0  0  0
    7.9591  -13.3980   15.9990 N   0  0  0  0  0  0  0  0  0  0  0  0
    6.6768  -13.6780   16.3035 C   0  0  0  0  0  0  0  0  0  0  0  0
    6.6243  -14.4175   17.4134 N   0  0  0  0  0  0  0  0  0  0  0  0
   10.1818  -16.8562   19.8798 C   0  0  0  0  0  0  0  0  0  0  0  0
    9.8137  -17.9235   20.4217 O   0  0  0  0  0  0  0  0  0  0  0  0
   11.3118  -16.1943   20.4318 N   0  0  0  0  0  0  0  0  0  0  0  0
   12.0769  -16.8094   21.5401 C   0  0  1  0  0  0  0  0  0  0  0  0
   13.4610  -16.2479   21.5361 C   0  0  0  0  0  0  0  0  0  0  0  0
   14.1225  -16.4201   20.2079 C   0  0  0  0  0  0  0  0  0  0  0  0
   15.5876  -15.9957   20.2451 C   0  0  0  0  0  0  0  0  0  0  0  0
   15.7600  -14.5098   20.1407 C   0  0  0  0  0  0  0  0  0  0  0  0
   17.1629  -14.1275   20.0870 N   0  0  0  0  0  0  0  0  0  0  0  0
   11.3747  -16.4235   22.7734 C   0  0  0  0  0  0  0  0  0  0  0  0
   10.7138  -15.3267   22.7585 O   0  0  0  0  0  0  0  0  0  0  0  0
   11.3390  -17.1352   23.9832 N   0  0  0  0  0  0  0  0  0  0  0  0
   10.4838  -16.7019   25.1034 C   0  0  1  0  0  0  0  0  0  0  0  0
    9.8251  -15.4405   24.6708 C   0  0  0  0  0  0  0  0  0  0  0  0
    8.6514  -15.0551   25.4528 C   0  0  0  0  0  0  0  0  0  0  0  0
    7.8242  -15.8952   26.2167 C   0  0  0  0  0  0  0  0  0  0  0  0
    6.8409  -15.1584   26.7569 N   0  0  0  0  0  0  0  0  0  0  0  0
    6.9663  -13.8779   26.3975 C   0  0  0  0  0  0  0  0  0  0  0  0
    6.2062  -12.7773   26.7197 C   0  0  0  0  0  0  0  0  0  0  0  0
    6.5787  -11.5500   26.2153 C   0  0  0  0  0  0  0  0  0  0  0  0
    7.6927  -11.4045   25.3984 C   0  0  0  0  0  0  0  0  0  0  0  0
    8.4085  -12.5380   25.1133 C   0  0  0  0  0  0  0  0  0  0  0  0
    8.0698  -13.7900   25.5977 C   0  0  0  0  0  0  0  0  0  0  0  0
    9.6495  -17.7664   25.6241 C   0  0  0  0  0  0  0  0  0  0  0  0
    9.2052  -18.7247   24.9109 O   0  0  0  0  0  0  0  0  0  0  0  0
    9.3018  -17.7597   26.9830 O   0  0  0  0  0  0  0  0  0  0  0  0
  2  1  1  6
  2  3  1  0
  3  4  1  0
  4  5  2  0
  4  8  1  0
  5  6  1  0
  6  7  1  0
  8  7  2  0
  9  2  1  0
  9 10  2  0
 11  9  1  0
 12 11  1  0
 12 13  1  1
 13 14  1  0
 14 15  1  0
 16 15  1  0
 17 16  1  0
 18 12  1  0
 19 18  2  0
 20 18  1  0
 21 20  1  0
 21 22  1  6
 22 23  1  0
 23 31  1  0
 24 23  2  0
 24 25  1  0
 25 26  1  0
 26 27  1  0
 27 28  2  0
 29 28  1  0
 30 29  2  0
 31 26  2  0
 31 30  1  0
 32 21  1  0
 32 34  1  0
 33 32  2  0
M  END
$$$$
