HKW.pdb
     RDKit          3D

 34 36  0  0  1  0  0  0  0  0999 V2000
    9.1409  -16.6531   19.0291 N   0  0  0  0  0  0  0  0  0  0  0  0
    8.8195  -15.7888   20.1417 C   0  0  1  0  0  0  0  0  0  0  0  0
    7.6066  -14.9558   19.8524 C   0  0  0  0  0  0  0  0  0  0  0  0
    7.7927  -14.1748   18.5810 C   0  0  0  0  0  0  0  0  0  0  0  0
    8.4349  -12.9529   18.4611 C   0  0  0  0  0  0  0  0  0  0  0  0
    8.3982  -12.5785   17.1883 N   0  0  0  0  0  0  0  0  0  0  0  0
    7.7454  -13.5435   16.5116 C   0  0  0  0  0  0  0  0  0  0  0  0
    7.3751  -14.5148   17.3489 N   0  0  0  0  0  0  0  0  0  0  0  0
    8.7472  -16.5674   21.3924 C   0  0  0  0  0  0  0  0  0  0  0  0
    7.7757  -17.2914   21.7088 O   0  0  0  0  0  0  0  0  0  0  0  0
    9.8390  -16.4990   22.2996 N   0  0  0  0  0  0  0  0  0  0  0  0
   10.0267  -17.5445   23.3311 C   0  0  1  0  0  0  0  0  0  0  0  0
   11.2510  -18.3324   22.9973 C   0  0  0  0  0  0  0  0  0  0  0  0
   11.4795  -19.4378   23.9759 C   0  0  0  0  0  0  0  0  0  0  0  0
   12.7601  -20.2090   23.6706 C   0  0  0  0  0  0  0  0  0  0  0  0
   13.0295  -21.2964   24.6674 C   0  0  0  0  0  0  0  0  0  0  0  0
   14.2710  -21.9998   24.3825 N   0  0  0  0  0  0  0  0  0  0  0  0
   10.2147  -16.8253   24.6001 C   0  0  0  0  0  0  0  0  0  0  0  0
   11.0378  -15.8443   24.6069 O   0  0  0  0  0  0  0  0  0  0  0  0
    9.5791  -17.0904   25.8236 N   0  0  0  0  0  0  0  0  0  0  0  0
    9.9455  -16.3624   27.0524 C   0  0  1  0  0  0  0  0  0  0  0  0
    8.6701  -15.9760   27.7127 C   0  0  0  0  0  0  0  0  0  0  0  0
    7.7179  -15.2712   26.8559 C   0  0  0  0  0  0  0  0  0  0  0  0
    6.6850  -15.8345   26.0881 C   0  0  0  0  0  0  0  0  0  0  0  0
    6.0566  -14.8528   25.4227 N   0  0  0  0  0  0  0  0  0  0  0  0
    6.6106  -13.6700   25.7035 C   0  0  0  0  0  0  0  0  0  0  0  0
    6.2916  -12.4043   25.2688 C   0  0  0  0  0  0  0  0  0  0  0  0
    7.0310  -11.3411   25.7401 C   0  0  0  0  0  0  0  0  0  0  0  0
    8.0788  -11.5203   26.6343 C   0  0  0  0  0  0  0  0  0  0  0  0
    8.3479  -12.8049   27.0292 C   0  0  0  0  0  0  0  0  0  0  0  0
    7.6315  -13.9014   26.5807 C   0  0  0  0  0  0  0  0  0  0  0  0
   10.9444  -17.0528   27.8435 C   0  0  0  0  0  0  0  0  0  0  0  0
   11.3728  -18.2219   27.5711 O   0  0  0  0  0  0  0  0  0  0  0  0
   11.4810  -16.4170   28.9728 O   0  0  0  0  0  0  0  0  0  0  0  0
  2  1  1  6
  2  3  1  0
  3  4  1  0
  4  5  2  0
  4  8  1  0
  5  6  1  0
  6  7  1  0
  8  7  2  0
  9  2  1  0
  9 10  2  0
 11  9  1  0
 12 11  1  0
 12 13  1  6
 13 14  1  0
 14 15  1  0
 16 15  1  0
 17 16  1  0
 18 12  1  0
 19 18  2  0
 20 18  1  0
 21 20  1  0
 21 22  1  1
 22 23  1  0
 23 31  1  0
 24 23  2  0
 24 25  1  0
 25 26  1  0
 26 27  1  0
 27 28  2  0
 29 28  1  0
 30 29  2  0
 31 26  2  0
 31 30  1  0
 32 21  1  0
 32 34  1  0
 33 32  2  0
M  END
$$$$
