HKW.pdb
     RDKit          3D

 34 36  0  0  1  0  0  0  0  0999 V2000
    9.9453  -15.4360   19.7167 N   0  0  0  0  0  0  0  0  0  0  0  0
    8.6545  -15.2498   20.3391 C   0  0  1  0  0  0  0  0  0  0  0  0
    7.5428  -15.3967   19.3435 C   0  0  0  0  0  0  0  0  0  0  0  0
    7.7219  -14.4313   18.2047 C   0  0  0  0  0  0  0  0  0  0  0  0
    8.8052  -13.5888   18.0126 C   0  0  0  0  0  0  0  0  0  0  0  0
    8.6051  -12.8884   16.9032 N   0  0  0  0  0  0  0  0  0  0  0  0
    7.4178  -13.2776   16.3993 C   0  0  0  0  0  0  0  0  0  0  0  0
    6.8761  -14.2128   17.1826 N   0  0  0  0  0  0  0  0  0  0  0  0
    8.5305  -16.1095   21.5313 C   0  0  0  0  0  0  0  0  0  0  0  0
    7.5059  -16.1639   22.2491 O   0  0  0  0  0  0  0  0  0  0  0  0
    9.6331  -16.9285   21.8962 N   0  0  0  0  0  0  0  0  0  0  0  0
    9.5120  -17.9033   23.0040 C   0  0  1  0  0  0  0  0  0  0  0  0
   10.5005  -19.0016   22.7858 C   0  0  0  0  0  0  0  0  0  0  0  0
   10.3716  -20.0732   23.8186 C   0  0  0  0  0  0  0  0  0  0  0  0
   11.3742  -21.2011   23.5932 C   0  0  0  0  0  0  0  0  0  0  0  0
   11.2489  -22.2955   24.6105 C   0  0  0  0  0  0  0  0  0  0  0  0
   12.2438  -23.3386   24.4124 N   0  0  0  0  0  0  0  0  0  0  0  0
    9.8403  -17.1592   24.2294 C   0  0  0  0  0  0  0  0  0  0  0  0
   10.6842  -16.2011   24.1306 O   0  0  0  0  0  0  0  0  0  0  0  0
    9.3204  -17.3775   25.5152 N   0  0  0  0  0  0  0  0  0  0  0  0
    9.7015  -16.5202   26.6527 C   0  0  1  0  0  0  0  0  0  0  0  0
    8.4475  -16.2135   27.3914 C   0  0  0  0  0  0  0  0  0  0  0  0
    7.4754  -15.4083   26.6538 C   0  0  0  0  0  0  0  0  0  0  0  0
    6.3293  -15.8632   25.9805 C   0  0  0  0  0  0  0  0  0  0  0  0
    5.7198  -14.8137   25.4074 N   0  0  0  0  0  0  0  0  0  0  0  0
    6.3928  -13.6879   25.6607 C   0  0  0  0  0  0  0  0  0  0  0  0
    6.1360  -12.3873   25.2930 C   0  0  0  0  0  0  0  0  0  0  0  0
    7.0021  -11.4014   25.7139 C   0  0  0  0  0  0  0  0  0  0  0  0
    8.1153  -11.6917   26.4923 C   0  0  0  0  0  0  0  0  0  0  0  0
    8.3172  -13.0058   26.8252 C   0  0  0  0  0  0  0  0  0  0  0  0
    7.4735  -14.0275   26.4237 C   0  0  0  0  0  0  0  0  0  0  0  0
   10.8277  -17.0404   27.4019 C   0  0  0  0  0  0  0  0  0  0  0  0
   11.3420  -18.1877   27.1930 O   0  0  0  0  0  0  0  0  0  0  0  0
   11.3965  -16.2542   28.4148 O   0  0  0  0  0  0  0  0  0  0  0  0
  2  1  1  6
  2  3  1  0
  3  4  1  0
  4  5  2  0
  4  8  1  0
  5  6  1  0
  6  7  1  0
  8  7  2  0
  9  2  1  0
  9 10  2  0
 11  9  1  0
 12 11  1  0
 12 13  1  6
 13 14  1  0
 14 15  1  0
 16 15  1  0
 17 16  1  0
 18 12  1  0
 19 18  2  0
 20 18  1  0
 21 20  1  0
 21 22  1  1
 22 23  1  0
 23 31  1  0
 24 23  2  0
 24 25  1  0
 25 26  1  0
 26 27  1  0
 27 28  2  0
 29 28  1  0
 30 29  2  0
 31 26  2  0
 31 30  1  0
 32 21  1  0
 32 34  1  0
 33 32  2  0
M  END
$$$$
