HKW.pdb
     RDKit          3D

 34 36  0  0  1  0  0  0  0  0999 V2000
    9.0460  -16.3972   19.7706 N   0  0  0  0  0  0  0  0  0  0  0  0
    8.8219  -15.4737   20.8592 C   0  0  1  0  0  0  0  0  0  0  0  0
    7.6297  -14.6024   20.5985 C   0  0  0  0  0  0  0  0  0  0  0  0
    7.7224  -13.9735   19.2358 C   0  0  0  0  0  0  0  0  0  0  0  0
    8.4035  -12.8088   18.9198 C   0  0  0  0  0  0  0  0  0  0  0  0
    8.2565  -12.5714   17.6223 N   0  0  0  0  0  0  0  0  0  0  0  0
    7.4968  -13.5655   17.1226 C   0  0  0  0  0  0  0  0  0  0  0  0
    7.1690  -14.4196   18.0945 N   0  0  0  0  0  0  0  0  0  0  0  0
    8.7875  -16.1949   22.1455 C   0  0  0  0  0  0  0  0  0  0  0  0
    7.7479  -16.6833   22.6443 O   0  0  0  0  0  0  0  0  0  0  0  0
   10.0001  -16.3505   22.8702 N   0  0  0  0  0  0  0  0  0  0  0  0
   10.0789  -17.2896   24.0120 C   0  0  1  0  0  0  0  0  0  0  0  0
   11.1894  -18.2566   23.7611 C   0  0  0  0  0  0  0  0  0  0  0  0
   11.5542  -18.3143   22.3137 C   0  0  0  0  0  0  0  0  0  0  0  0
   12.6115  -19.3793   22.0378 C   0  0  0  0  0  0  0  0  0  0  0  0
   13.0447  -19.4031   20.6025 C   0  0  0  0  0  0  0  0  0  0  0  0
   14.0530  -20.4229   20.3557 N   0  0  0  0  0  0  0  0  0  0  0  0
   10.3807  -16.4626   25.1902 C   0  0  0  0  0  0  0  0  0  0  0  0
   11.2348  -15.5193   25.0468 O   0  0  0  0  0  0  0  0  0  0  0  0
    9.8249  -16.5859   26.4736 N   0  0  0  0  0  0  0  0  0  0  0  0
   10.4709  -15.9776   27.6512 C   0  0  1  0  0  0  0  0  0  0  0  0
    9.4832  -15.0315   28.2354 C   0  0  0  0  0  0  0  0  0  0  0  0
    8.2490  -14.8726   27.4679 C   0  0  0  0  0  0  0  0  0  0  0  0
    7.3727  -15.8863   27.0456 C   0  0  0  0  0  0  0  0  0  0  0  0
    6.3735  -15.3291   26.3438 N   0  0  0  0  0  0  0  0  0  0  0  0
    6.5337  -14.0046   26.2753 C   0  0  0  0  0  0  0  0  0  0  0  0
    5.7588  -13.0370   25.6786 C   0  0  0  0  0  0  0  0  0  0  0  0
    6.1564  -11.7213   25.7788 C   0  0  0  0  0  0  0  0  0  0  0  0
    7.3098  -11.3576   26.4621 C   0  0  0  0  0  0  0  0  0  0  0  0
    8.0393  -12.3671   27.0343 C   0  0  0  0  0  0  0  0  0  0  0  0
    7.6772  -13.7011   26.9577 C   0  0  0  0  0  0  0  0  0  0  0  0
   11.0851  -16.9543   28.5282 C   0  0  0  0  0  0  0  0  0  0  0  0
   11.7867  -16.6433   29.5458 O   0  0  0  0  0  0  0  0  0  0  0  0
   10.9093  -18.3198   28.2600 O   0  0  0  0  0  0  0  0  0  0  0  0
  2  1  1  6
  2  3  1  0
  3  4  1  0
  4  5  2  0
  4  8  1  0
  5  6  1  0
  6  7  1  0
  8  7  2  0
  9  2  1  0
  9 10  2  0
 11  9  1  0
 12 11  1  0
 12 13  1  6
 13 14  1  0
 14 15  1  0
 16 15  1  0
 17 16  1  0
 18 12  1  0
 19 18  2  0
 20 18  1  0
 21 20  1  0
 21 22  1  1
 22 23  1  0
 23 31  1  0
 24 23  2  0
 24 25  1  0
 25 26  1  0
 26 27  1  0
 27 28  2  0
 29 28  1  0
 30 29  2  0
 31 26  2  0
 31 30  1  0
 32 21  1  0
 32 34  1  0
 33 32  2  0
M  END
$$$$
