HKW.pdb
     RDKit          3D

 34 36  0  0  1  0  0  0  0  0999 V2000
    8.3153  -16.7908   19.7186 N   0  0  0  0  0  0  0  0  0  0  0  0
    8.7743  -15.9338   20.7878 C   0  0  1  0  0  0  0  0  0  0  0  0
    7.9770  -14.6653   20.8501 C   0  0  0  0  0  0  0  0  0  0  0  0
    8.0106  -13.9542   19.5257 C   0  0  0  0  0  0  0  0  0  0  0  0
    6.9261  -13.7301   18.6927 C   0  0  0  0  0  0  0  0  0  0  0  0
    7.3464  -13.0749   17.6177 N   0  0  0  0  0  0  0  0  0  0  0  0
    8.6724  -12.8859   17.7639 C   0  0  0  0  0  0  0  0  0  0  0  0
    9.0826  -13.4160   18.9181 N   0  0  0  0  0  0  0  0  0  0  0  0
    8.8370  -16.6842   22.0562 C   0  0  0  0  0  0  0  0  0  0  0  0
    7.8878  -17.3601   22.5150 O   0  0  0  0  0  0  0  0  0  0  0  0
   10.0408  -16.6447   22.8104 N   0  0  0  0  0  0  0  0  0  0  0  0
   10.2288  -17.5397   23.9748 C   0  0  1  0  0  0  0  0  0  0  0  0
   11.4864  -18.3216   23.7799 C   0  0  0  0  0  0  0  0  0  0  0  0
   11.3577  -19.3039   22.6618 C   0  0  0  0  0  0  0  0  0  0  0  0
   12.4917  -19.1634   21.6507 C   0  0  0  0  0  0  0  0  0  0  0  0
   13.2287  -20.4503   21.4288 C   0  0  0  0  0  0  0  0  0  0  0  0
   12.8974  -21.0526   20.1463 N   0  0  0  0  0  0  0  0  0  0  0  0
   10.3553  -16.6552   25.1430 C   0  0  0  0  0  0  0  0  0  0  0  0
   11.0371  -15.5807   24.9994 O   0  0  0  0  0  0  0  0  0  0  0  0
    9.7989  -16.8531   26.4168 N   0  0  0  0  0  0  0  0  0  0  0  0
   10.2030  -16.0250   27.5679 C   0  0  1  0  0  0  0  0  0  0  0  0
    8.9487  -15.5292   28.1948 C   0  0  0  0  0  0  0  0  0  0  0  0
    7.9422  -15.0331   27.2576 C   0  0  0  0  0  0  0  0  0  0  0  0
    7.0367  -15.7940   26.4995 C   0  0  0  0  0  0  0  0  0  0  0  0
    6.3014  -14.9637   25.7435 N   0  0  0  0  0  0  0  0  0  0  0  0
    6.6645  -13.6956   25.9551 C   0  0  0  0  0  0  0  0  0  0  0  0
    6.1837  -12.5235   25.4186 C   0  0  0  0  0  0  0  0  0  0  0  0
    6.7391  -11.3329   25.8349 C   0  0  0  0  0  0  0  0  0  0  0  0
    7.7621  -11.2938   26.7738 C   0  0  0  0  0  0  0  0  0  0  0  0
    8.1980  -12.4945   27.2705 C   0  0  0  0  0  0  0  0  0  0  0  0
    7.6692  -13.7130   26.8801 C   0  0  0  0  0  0  0  0  0  0  0  0
   11.1826  -16.6737   28.4164 C   0  0  0  0  0  0  0  0  0  0  0  0
   11.5382  -17.8897   28.2778 O   0  0  0  0  0  0  0  0  0  0  0  0
   11.7832  -15.9408   29.4506 O   0  0  0  0  0  0  0  0  0  0  0  0
  2  1  1  6
  2  3  1  0
  3  4  1  0
  4  5  2  0
  4  8  1  0
  5  6  1  0
  6  7  1  0
  8  7  2  0
  9  2  1  0
  9 10  2  0
 11  9  1  0
 12 11  1  0
 12 13  1  6
 13 14  1  0
 14 15  1  0
 16 15  1  0
 17 16  1  0
 18 12  1  0
 19 18  2  0
 20 18  1  0
 21 20  1  0
 21 22  1  1
 22 23  1  0
 23 31  1  0
 24 23  2  0
 24 25  1  0
 25 26  1  0
 26 27  1  0
 27 28  2  0
 29 28  1  0
 30 29  2  0
 31 26  2  0
 31 30  1  0
 32 21  1  0
 32 34  1  0
 33 32  2  0
M  END
$$$$
