HKW.pdb
     RDKit          3D

 34 36  0  0  1  0  0  0  0  0999 V2000
    9.5099  -15.9422   19.0515 N   0  0  0  0  0  0  0  0  0  0  0  0
    8.6013  -15.2439   19.9319 C   0  0  1  0  0  0  0  0  0  0  0  0
    7.3659  -14.8049   19.2039 C   0  0  0  0  0  0  0  0  0  0  0  0
    7.7184  -14.2503   17.8514 C   0  0  0  0  0  0  0  0  0  0  0  0
    8.2971  -13.0163   17.6017 C   0  0  0  0  0  0  0  0  0  0  0  0
    8.4551  -12.8804   16.2909 N   0  0  0  0  0  0  0  0  0  0  0  0
    7.9861  -14.0061   15.7180 C   0  0  0  0  0  0  0  0  0  0  0  0
    7.5378  -14.8415   16.6574 N   0  0  0  0  0  0  0  0  0  0  0  0
    8.3489  -16.0415   21.1468 C   0  0  0  0  0  0  0  0  0  0  0  0
    7.4876  -15.7489   22.0075 O   0  0  0  0  0  0  0  0  0  0  0  0
    9.1232  -17.2132   21.3636 N   0  0  0  0  0  0  0  0  0  0  0  0
    8.9406  -18.0191   22.5921 C   0  0  1  0  0  0  0  0  0  0  0  0
    9.5913  -19.3489   22.3938 C   0  0  0  0  0  0  0  0  0  0  0  0
    9.4863  -20.2022   23.6155 C   0  0  0  0  0  0  0  0  0  0  0  0
   10.2080  -21.5349   23.4396 C   0  0  0  0  0  0  0  0  0  0  0  0
   10.1156  -22.4055   24.6570 C   0  0  0  0  0  0  0  0  0  0  0  0
   10.7299  -23.7071   24.4427 N   0  0  0  0  0  0  0  0  0  0  0  0
    9.6199  -17.2749   23.6635 C   0  0  0  0  0  0  0  0  0  0  0  0
   10.5999  -16.5213   23.3296 O   0  0  0  0  0  0  0  0  0  0  0  0
    9.3071  -17.2901   25.0321 N   0  0  0  0  0  0  0  0  0  0  0  0
    9.9692  -16.3759   25.9808 C   0  0  1  0  0  0  0  0  0  0  0  0
    9.6382  -14.9946   25.5398 C   0  0  0  0  0  0  0  0  0  0  0  0
    8.2573  -14.5809   25.7836 C   0  0  0  0  0  0  0  0  0  0  0  0
    7.0984  -15.3642   25.6531 C   0  0  0  0  0  0  0  0  0  0  0  0
    6.0294  -14.6057   25.9419 N   0  0  0  0  0  0  0  0  0  0  0  0
    6.4096  -13.3645   26.2573 C   0  0  0  0  0  0  0  0  0  0  0  0
    5.6687  -12.2668   26.6298 C   0  0  0  0  0  0  0  0  0  0  0  0
    6.3311  -11.0940   26.9211 C   0  0  0  0  0  0  0  0  0  0  0  0
    7.7150  -10.9998   26.8469 C   0  0  0  0  0  0  0  0  0  0  0  0
    8.3968  -12.1273   26.4694 C   0  0  0  0  0  0  0  0  0  0  0  0
    7.7719  -13.3253   26.1675 C   0  0  0  0  0  0  0  0  0  0  0  0
    9.7314  -16.7278   27.3664 C   0  0  0  0  0  0  0  0  0  0  0  0
   10.2881  -16.1355   28.3481 O   0  0  0  0  0  0  0  0  0  0  0  0
    8.8442  -17.7728   27.6636 O   0  0  0  0  0  0  0  0  0  0  0  0
  2  1  1  6
  2  3  1  0
  3  4  1  0
  4  5  2  0
  4  8  1  0
  5  6  1  0
  6  7  1  0
  8  7  2  0
  9  2  1  0
  9 10  2  0
 11  9  1  0
 12 11  1  0
 12 13  1  6
 13 14  1  0
 14 15  1  0
 16 15  1  0
 17 16  1  0
 18 12  1  0
 19 18  2  0
 20 18  1  0
 21 20  1  0
 21 22  1  1
 22 23  1  0
 23 31  1  0
 24 23  2  0
 24 25  1  0
 25 26  1  0
 26 27  1  0
 27 28  2  0
 29 28  1  0
 30 29  2  0
 31 26  2  0
 31 30  1  0
 32 21  1  0
 32 34  1  0
 33 32  2  0
M  END
$$$$
