HKW.pdb
     RDKit          3D

 34 36  0  0  1  0  0  0  0  0999 V2000
    8.7494  -16.5969   19.0468 N   0  0  0  0  0  0  0  0  0  0  0  0
    8.5484  -15.7274   20.1834 C   0  0  1  0  0  0  0  0  0  0  0  0
    7.4215  -14.7677   19.9433 C   0  0  0  0  0  0  0  0  0  0  0  0
    7.6935  -13.9268   18.7268 C   0  0  0  0  0  0  0  0  0  0  0  0
    8.2560  -12.6604   18.7200 C   0  0  0  0  0  0  0  0  0  0  0  0
    8.3365  -12.2398   17.4637 N   0  0  0  0  0  0  0  0  0  0  0  0
    7.8352  -13.2195   16.6865 C   0  0  0  0  0  0  0  0  0  0  0  0
    7.4433  -14.2457   17.4448 N   0  0  0  0  0  0  0  0  0  0  0  0
    8.4281  -16.5204   21.4214 C   0  0  0  0  0  0  0  0  0  0  0  0
    7.3806  -17.1092   21.7741 O   0  0  0  0  0  0  0  0  0  0  0  0
    9.5615  -16.6293   22.2717 N   0  0  0  0  0  0  0  0  0  0  0  0
    9.6081  -17.6581   23.3353 C   0  0  1  0  0  0  0  0  0  0  0  0
   10.6313  -18.6821   22.9669 C   0  0  0  0  0  0  0  0  0  0  0  0
   10.7504  -19.7436   24.0112 C   0  0  0  0  0  0  0  0  0  0  0  0
   11.8423  -20.7535   23.6706 C   0  0  0  0  0  0  0  0  0  0  0  0
   11.9028  -21.8886   24.6485 C   0  0  0  0  0  0  0  0  0  0  0  0
   12.3069  -21.4439   25.9737 N   0  0  0  0  0  0  0  0  0  0  0  0
   10.0141  -16.9505   24.5590 C   0  0  0  0  0  0  0  0  0  0  0  0
   11.0551  -16.2075   24.4940 O   0  0  0  0  0  0  0  0  0  0  0  0
    9.3763  -16.9906   25.8092 N   0  0  0  0  0  0  0  0  0  0  0  0
    9.9853  -16.3729   27.0015 C   0  0  1  0  0  0  0  0  0  0  0  0
    8.8815  -15.7111   27.7469 C   0  0  0  0  0  0  0  0  0  0  0  0
    7.8408  -15.1142   26.9114 C   0  0  0  0  0  0  0  0  0  0  0  0
    6.7797  -15.7758   26.2710 C   0  0  0  0  0  0  0  0  0  0  0  0
    6.0638  -14.8755   25.5792 N   0  0  0  0  0  0  0  0  0  0  0  0
    6.5862  -13.6544   25.7226 C   0  0  0  0  0  0  0  0  0  0  0  0
    6.1834  -12.4411   25.2143 C   0  0  0  0  0  0  0  0  0  0  0  0
    6.9094  -11.3166   25.5425 C   0  0  0  0  0  0  0  0  0  0  0  0
    8.0259  -11.3836   26.3662 C   0  0  0  0  0  0  0  0  0  0  0  0
    8.3769  -12.6207   26.8404 C   0  0  0  0  0  0  0  0  0  0  0  0
    7.6769  -13.7757   26.5357 C   0  0  0  0  0  0  0  0  0  0  0  0
   10.8552  -17.2774   27.7265 C   0  0  0  0  0  0  0  0  0  0  0  0
   10.9433  -18.5233   27.4727 O   0  0  0  0  0  0  0  0  0  0  0  0
   11.6509  -16.7739   28.7661 O   0  0  0  0  0  0  0  0  0  0  0  0
  2  1  1  6
  2  3  1  0
  3  4  1  0
  4  5  2  0
  4  8  1  0
  5  6  1  0
  6  7  1  0
  8  7  2  0
  9  2  1  0
  9 10  2  0
 11  9  1  0
 12 11  1  0
 12 13  1  6
 13 14  1  0
 14 15  1  0
 16 15  1  0
 17 16  1  0
 18 12  1  0
 19 18  2  0
 20 18  1  0
 21 20  1  0
 21 22  1  1
 22 23  1  0
 23 31  1  0
 24 23  2  0
 24 25  1  0
 25 26  1  0
 26 27  1  0
 27 28  2  0
 29 28  1  0
 30 29  2  0
 31 26  2  0
 31 30  1  0
 32 21  1  0
 32 34  1  0
 33 32  2  0
M  END
$$$$
