HKW.pdb
     RDKit          3D

 34 36  0  0  1  0  0  0  0  0999 V2000
    9.0837  -16.3305   19.8498 N   0  0  0  0  0  0  0  0  0  0  0  0
    7.9651  -15.4699   20.1601 C   0  0  1  0  0  0  0  0  0  0  0  0
    7.0137  -15.3744   19.0050 C   0  0  0  0  0  0  0  0  0  0  0  0
    7.5044  -14.3717   17.9976 C   0  0  0  0  0  0  0  0  0  0  0  0
    8.7036  -13.6797   18.0533 C   0  0  0  0  0  0  0  0  0  0  0  0
    8.7846  -12.8873   16.9916 N   0  0  0  0  0  0  0  0  0  0  0  0
    7.6590  -13.0717   16.2745 C   0  0  0  0  0  0  0  0  0  0  0  0
    6.8778  -13.9702   16.8777 N   0  0  0  0  0  0  0  0  0  0  0  0
    7.3452  -15.8738   21.4362 C   0  0  0  0  0  0  0  0  0  0  0  0
    6.5791  -15.1409   22.1028 O   0  0  0  0  0  0  0  0  0  0  0  0
    7.6271  -17.1688   21.9490 N   0  0  0  0  0  0  0  0  0  0  0  0
    7.0282  -17.6192   23.2259 C   0  0  1  0  0  0  0  0  0  0  0  0
    7.1946  -19.0994   23.3373 C   0  0  0  0  0  0  0  0  0  0  0  0
    6.4834  -19.8188   22.2381 C   0  0  0  0  0  0  0  0  0  0  0  0
    6.7831  -21.3148   22.2532 C   0  0  0  0  0  0  0  0  0  0  0  0
    6.1641  -22.0383   21.0948 C   0  0  0  0  0  0  0  0  0  0  0  0
    6.5203  -23.4491   21.0818 N   0  0  0  0  0  0  0  0  0  0  0  0
    7.7888  -16.9404   24.2860 C   0  0  0  0  0  0  0  0  0  0  0  0
    7.3527  -15.8073   24.6929 O   0  0  0  0  0  0  0  0  0  0  0  0
    8.9534  -17.4035   24.9190 N   0  0  0  0  0  0  0  0  0  0  0  0
    9.6417  -16.5977   25.9442 C   0  0  1  0  0  0  0  0  0  0  0  0
    8.6326  -16.2955   26.9942 C   0  0  0  0  0  0  0  0  0  0  0  0
    7.6366  -15.2909   26.6250 C   0  0  0  0  0  0  0  0  0  0  0  0
    6.3377  -15.5179   26.1403 C   0  0  0  0  0  0  0  0  0  0  0  0
    5.7549  -14.3340   25.8950 N   0  0  0  0  0  0  0  0  0  0  0  0
    6.5898  -13.3334   26.1888 C   0  0  0  0  0  0  0  0  0  0  0  0
    6.4193  -11.9705   26.1099 C   0  0  0  0  0  0  0  0  0  0  0  0
    7.4583  -11.1538   26.5007 C   0  0  0  0  0  0  0  0  0  0  0  0
    8.6592  -11.6734   26.9670 C   0  0  0  0  0  0  0  0  0  0  0  0
    8.7679  -13.0386   27.0216 C   0  0  0  0  0  0  0  0  0  0  0  0
    7.7503  -13.8957   26.6387 C   0  0  0  0  0  0  0  0  0  0  0  0
   10.9089  -17.1675   26.3562 C   0  0  0  0  0  0  0  0  0  0  0  0
   11.3328  -18.3017   25.9583 O   0  0  0  0  0  0  0  0  0  0  0  0
   11.7272  -16.4475   27.2391 O   0  0  0  0  0  0  0  0  0  0  0  0
  2  1  1  6
  2  3  1  0
  3  4  1  0
  4  5  2  0
  4  8  1  0
  5  6  1  0
  6  7  1  0
  8  7  2  0
  9  2  1  0
  9 10  2  0
 11  9  1  0
 12 11  1  0
 12 13  1  1
 13 14  1  0
 14 15  1  0
 16 15  1  0
 17 16  1  0
 18 12  1  0
 19 18  2  0
 20 18  1  0
 21 20  1  0
 21 22  1  1
 22 23  1  0
 23 31  1  0
 24 23  2  0
 24 25  1  0
 25 26  1  0
 26 27  1  0
 27 28  2  0
 29 28  1  0
 30 29  2  0
 31 26  2  0
 31 30  1  0
 32 21  1  0
 32 34  1  0
 33 32  2  0
M  END
$$$$
