HKW.pdb
     RDKit          3D

 34 36  0  0  1  0  0  0  0  0999 V2000
   10.9981  -18.6746   18.8756 N   0  0  0  0  0  0  0  0  0  0  0  0
   10.4590  -17.3389   18.7592 C   0  0  1  0  0  0  0  0  0  0  0  0
    9.9415  -17.0784   17.3761 C   0  0  0  0  0  0  0  0  0  0  0  0
   11.0036  -17.3663   16.3514 C   0  0  0  0  0  0  0  0  0  0  0  0
   11.9064  -16.4515   15.8335 C   0  0  0  0  0  0  0  0  0  0  0  0
   12.6838  -17.0743   14.9563 N   0  0  0  0  0  0  0  0  0  0  0  0
   12.2834  -18.3601   14.9170 C   0  0  0  0  0  0  0  0  0  0  0  0
   11.2652  -18.5451   15.7600 N   0  0  0  0  0  0  0  0  0  0  0  0
    9.4870  -17.0817   19.8385 C   0  0  0  0  0  0  0  0  0  0  0  0
    8.8299  -16.0213   19.9480 O   0  0  0  0  0  0  0  0  0  0  0  0
    9.2759  -18.0900   20.8175 N   0  0  0  0  0  0  0  0  0  0  0  0
    8.3685  -17.8488   21.9623 C   0  0  1  0  0  0  0  0  0  0  0  0
    7.5909  -19.0961   22.2283 C   0  0  0  0  0  0  0  0  0  0  0  0
    7.6586  -20.0446   21.0763 C   0  0  0  0  0  0  0  0  0  0  0  0
    6.3312  -20.7640   20.8558 C   0  0  0  0  0  0  0  0  0  0  0  0
    6.3930  -21.7567   19.7337 C   0  0  0  0  0  0  0  0  0  0  0  0
    5.1158  -22.4221   19.5253 N   0  0  0  0  0  0  0  0  0  0  0  0
    9.2403  -17.5391   23.1056 C   0  0  0  0  0  0  0  0  0  0  0  0
    9.6696  -18.5224   23.8046 O   0  0  0  0  0  0  0  0  0  0  0  0
    9.6693  -16.2684   23.5210 N   0  0  0  0  0  0  0  0  0  0  0  0
   10.2781  -16.0598   24.8476 C   0  0  1  0  0  0  0  0  0  0  0  0
    9.8624  -14.7042   25.2967 C   0  0  0  0  0  0  0  0  0  0  0  0
    8.4326  -14.5508   25.5608 C   0  0  0  0  0  0  0  0  0  0  0  0
    7.4561  -15.5608   25.5732 C   0  0  0  0  0  0  0  0  0  0  0  0
    6.2619  -15.0042   25.8290 N   0  0  0  0  0  0  0  0  0  0  0  0
    6.3872  -13.6837   25.9880 C   0  0  0  0  0  0  0  0  0  0  0  0
    5.4464  -12.7214   26.2740 C   0  0  0  0  0  0  0  0  0  0  0  0
    5.8613  -11.4136   26.4028 C   0  0  0  0  0  0  0  0  0  0  0  0
    7.1941  -11.0525   26.2514 C   0  0  0  0  0  0  0  0  0  0  0  0
    8.0829  -12.0563   25.9667 C   0  0  0  0  0  0  0  0  0  0  0  0
    7.7097  -13.3823   25.8282 C   0  0  0  0  0  0  0  0  0  0  0  0
   10.0672  -17.1744   25.7495 C   0  0  0  0  0  0  0  0  0  0  0  0
   10.5386  -17.2209   26.9327 O   0  0  0  0  0  0  0  0  0  0  0  0
    9.3060  -18.2698   25.3158 O   0  0  0  0  0  0  0  0  0  0  0  0
  2  1  1  6
  2  3  1  0
  3  4  1  0
  4  5  2  0
  4  8  1  0
  5  6  1  0
  6  7  1  0
  8  7  2  0
  9  2  1  0
  9 10  2  0
 11  9  1  0
 12 11  1  0
 12 13  1  1
 13 14  1  0
 14 15  1  0
 16 15  1  0
 17 16  1  0
 18 12  1  0
 19 18  2  0
 20 18  1  0
 21 20  1  0
 21 22  1  1
 22 23  1  0
 23 31  1  0
 24 23  2  0
 24 25  1  0
 25 26  1  0
 26 27  1  0
 27 28  2  0
 29 28  1  0
 30 29  2  0
 31 26  2  0
 31 30  1  0
 32 21  1  0
 32 34  1  0
 33 32  2  0
M  END
$$$$
