HKW.pdb
     RDKit          3D

 34 36  0  0  1  0  0  0  0  0999 V2000
    9.3314  -17.5767   18.2429 N   0  0  0  0  0  0  0  0  0  0  0  0
    8.9269  -16.3295   18.8505 C   0  0  1  0  0  0  0  0  0  0  0  0
    8.0876  -15.5134   17.9134 C   0  0  0  0  0  0  0  0  0  0  0  0
    8.5689  -15.6725   16.4977 C   0  0  0  0  0  0  0  0  0  0  0  0
    7.8460  -16.2135   15.4466 C   0  0  0  0  0  0  0  0  0  0  0  0
    8.6014  -16.1869   14.3556 N   0  0  0  0  0  0  0  0  0  0  0  0
    9.7817  -15.6398   14.7058 C   0  0  0  0  0  0  0  0  0  0  0  0
    9.7699  -15.3252   16.0029 N   0  0  0  0  0  0  0  0  0  0  0  0
    8.3141  -16.5760   20.1694 C   0  0  0  0  0  0  0  0  0  0  0  0
    7.7687  -15.6871   20.8627 O   0  0  0  0  0  0  0  0  0  0  0  0
    8.3385  -17.8964   20.6941 N   0  0  0  0  0  0  0  0  0  0  0  0
    7.7454  -18.1909   22.0184 C   0  0  1  0  0  0  0  0  0  0  0  0
    7.5803  -19.6694   22.1512 C   0  0  0  0  0  0  0  0  0  0  0  0
    7.0264  -20.0449   23.4868 C   0  0  0  0  0  0  0  0  0  0  0  0
    6.7965  -21.5488   23.6024 C   0  0  0  0  0  0  0  0  0  0  0  0
    6.1265  -21.9323   24.8879 C   0  0  0  0  0  0  0  0  0  0  0  0
    5.8373  -23.3572   24.9465 N   0  0  0  0  0  0  0  0  0  0  0  0
    8.7129  -17.6958   23.0092 C   0  0  0  0  0  0  0  0  0  0  0  0
    9.9541  -17.9175   22.7849 O   0  0  0  0  0  0  0  0  0  0  0  0
    8.4278  -16.9895   24.1887 N   0  0  0  0  0  0  0  0  0  0  0  0
    9.4918  -16.6305   25.1443 C   0  0  1  0  0  0  0  0  0  0  0  0
    9.4970  -15.1460   25.2352 C   0  0  0  0  0  0  0  0  0  0  0  0
    8.2202  -14.5445   25.6166 C   0  0  0  0  0  0  0  0  0  0  0  0
    7.0133  -15.2100   25.8889 C   0  0  0  0  0  0  0  0  0  0  0  0
    6.0714  -14.2974   26.1742 N   0  0  0  0  0  0  0  0  0  0  0  0
    6.5814  -13.0644   26.1082 C   0  0  0  0  0  0  0  0  0  0  0  0
    5.9976  -11.8391   26.3327 C   0  0  0  0  0  0  0  0  0  0  0  0
    6.7746  -10.7076   26.2094 C   0  0  0  0  0  0  0  0  0  0  0  0
    8.1189  -10.7794   25.8671 C   0  0  0  0  0  0  0  0  0  0  0  0
    8.6421  -12.0284   25.6556 C   0  0  0  0  0  0  0  0  0  0  0  0
    7.8981  -13.1906   25.7681 C   0  0  0  0  0  0  0  0  0  0  0  0
    9.4276  -17.3916   26.3760 C   0  0  0  0  0  0  0  0  0  0  0  0
    8.4330  -18.1186   26.7027 O   0  0  0  0  0  0  0  0  0  0  0  0
   10.5080  -17.3390   27.2690 O   0  0  0  0  0  0  0  0  0  0  0  0
  2  1  1  6
  2  3  1  0
  3  4  1  0
  4  5  2  0
  4  8  1  0
  5  6  1  0
  6  7  1  0
  8  7  2  0
  9  2  1  0
  9 10  2  0
 11  9  1  0
 12 11  1  0
 12 13  1  1
 13 14  1  0
 14 15  1  0
 16 15  1  0
 17 16  1  0
 18 12  1  0
 19 18  2  0
 20 18  1  0
 21 20  1  0
 21 22  1  1
 22 23  1  0
 23 31  1  0
 24 23  2  0
 24 25  1  0
 25 26  1  0
 26 27  1  0
 27 28  2  0
 29 28  1  0
 30 29  2  0
 31 26  2  0
 31 30  1  0
 32 21  1  0
 32 34  1  0
 33 32  2  0
M  END
$$$$
