HKW.pdb
     RDKit          3D

 34 36  0  0  1  0  0  0  0  0999 V2000
   11.4305  -18.2493   18.4069 N   0  0  0  0  0  0  0  0  0  0  0  0
   10.4384  -18.2814   19.4572 C   0  0  1  0  0  0  0  0  0  0  0  0
   10.5019  -19.5661   20.2281 C   0  0  0  0  0  0  0  0  0  0  0  0
   10.1700  -20.7328   19.3395 C   0  0  0  0  0  0  0  0  0  0  0  0
    9.8103  -20.6635   18.0031 C   0  0  0  0  0  0  0  0  0  0  0  0
    9.5936  -21.8953   17.5588 N   0  0  0  0  0  0  0  0  0  0  0  0
    9.8113  -22.7318   18.5923 C   0  0  0  0  0  0  0  0  0  0  0  0
   10.1612  -22.0347   19.6754 N   0  0  0  0  0  0  0  0  0  0  0  0
   10.5261  -17.0628   20.2837 C   0  0  0  0  0  0  0  0  0  0  0  0
   11.6019  -16.4882   20.5681 O   0  0  0  0  0  0  0  0  0  0  0  0
    9.3251  -16.4990   20.7929 N   0  0  0  0  0  0  0  0  0  0  0  0
    9.3600  -15.2609   21.6040 C   0  0  1  0  0  0  0  0  0  0  0  0
    8.2201  -14.3871   21.1937 C   0  0  0  0  0  0  0  0  0  0  0  0
    8.4162  -13.8330   19.8204 C   0  0  0  0  0  0  0  0  0  0  0  0
    7.1989  -13.0431   19.3489 C   0  0  0  0  0  0  0  0  0  0  0  0
    7.3446  -12.5451   17.9420 C   0  0  0  0  0  0  0  0  0  0  0  0
    7.4986  -13.6364   16.9920 N   0  0  0  0  0  0  0  0  0  0  0  0
    9.1936  -15.6923   23.0001 C   0  0  0  0  0  0  0  0  0  0  0  0
    8.4522  -16.7134   23.2185 O   0  0  0  0  0  0  0  0  0  0  0  0
    9.7700  -15.1081   24.1393 N   0  0  0  0  0  0  0  0  0  0  0  0
    9.9221  -15.8644   25.3959 C   0  0  1  0  0  0  0  0  0  0  0  0
    8.5944  -16.4656   25.6925 C   0  0  0  0  0  0  0  0  0  0  0  0
    7.5177  -15.5045   25.9258 C   0  0  0  0  0  0  0  0  0  0  0  0
    6.1430  -15.6973   25.7096 C   0  0  0  0  0  0  0  0  0  0  0  0
    5.4937  -14.5644   26.0201 N   0  0  0  0  0  0  0  0  0  0  0  0
    6.3558  -13.6301   26.4306 C   0  0  0  0  0  0  0  0  0  0  0  0
    6.1439  -12.3394   26.8571 C   0  0  0  0  0  0  0  0  0  0  0  0
    7.2317  -11.5883   27.2467 C   0  0  0  0  0  0  0  0  0  0  0  0
    8.5217  -12.1027   27.2175 C   0  0  0  0  0  0  0  0  0  0  0  0
    8.6677  -13.3942   26.7824 C   0  0  0  0  0  0  0  0  0  0  0  0
    7.6034  -14.1837   26.3815 C   0  0  0  0  0  0  0  0  0  0  0  0
   11.0826  -16.7325   25.3978 C   0  0  0  0  0  0  0  0  0  0  0  0
   11.8578  -16.8727   24.3959 O   0  0  0  0  0  0  0  0  0  0  0  0
   11.3860  -17.4653   26.5547 O   0  0  0  0  0  0  0  0  0  0  0  0
  2  1  1  6
  2  3  1  0
  3  4  1  0
  4  5  2  0
  4  8  1  0
  5  6  1  0
  6  7  1  0
  8  7  2  0
  9  2  1  0
  9 10  2  0
 11  9  1  0
 12 11  1  0
 12 13  1  6
 13 14  1  0
 14 15  1  0
 16 15  1  0
 17 16  1  0
 18 12  1  0
 19 18  2  0
 20 18  1  0
 21 20  1  0
 21 22  1  6
 22 23  1  0
 23 31  1  0
 24 23  2  0
 24 25  1  0
 25 26  1  0
 26 27  1  0
 27 28  2  0
 29 28  1  0
 30 29  2  0
 31 26  2  0
 31 30  1  0
 32 21  1  0
 32 34  1  0
 33 32  2  0
M  END
$$$$
