HKW.pdb
     RDKit          3D

 34 36  0  0  1  0  0  0  0  0999 V2000
    6.2755  -15.9233   20.2261 N   0  0  0  0  0  0  0  0  0  0  0  0
    7.6448  -15.7868   20.6675 C   0  0  1  0  0  0  0  0  0  0  0  0
    8.0298  -14.3448   20.8123 C   0  0  0  0  0  0  0  0  0  0  0  0
    8.0965  -13.6778   19.4663 C   0  0  0  0  0  0  0  0  0  0  0  0
    8.0111  -14.3116   18.2371 C   0  0  0  0  0  0  0  0  0  0  0  0
    8.1117  -13.3963   17.2811 N   0  0  0  0  0  0  0  0  0  0  0  0
    8.2581  -12.2036   17.8904 C   0  0  0  0  0  0  0  0  0  0  0  0
    8.2498  -12.3658   19.2152 N   0  0  0  0  0  0  0  0  0  0  0  0
    7.8816  -16.6105   21.8680 C   0  0  0  0  0  0  0  0  0  0  0  0
    7.0485  -16.7535   22.7920 O   0  0  0  0  0  0  0  0  0  0  0  0
    9.1255  -17.2861   21.9942 N   0  0  0  0  0  0  0  0  0  0  0  0
    9.3787  -18.1887   23.1402 C   0  0  1  0  0  0  0  0  0  0  0  0
   10.4838  -19.1257   22.7771 C   0  0  0  0  0  0  0  0  0  0  0  0
   10.7950  -20.0701   23.8918 C   0  0  0  0  0  0  0  0  0  0  0  0
   11.9601  -20.9921   23.5447 C   0  0  0  0  0  0  0  0  0  0  0  0
   12.2647  -21.9725   24.6377 C   0  0  0  0  0  0  0  0  0  0  0  0
   13.3996  -22.8209   24.3065 N   0  0  0  0  0  0  0  0  0  0  0  0
    9.7937  -17.3184   24.2509 C   0  0  0  0  0  0  0  0  0  0  0  0
   10.6087  -16.3675   23.9836 O   0  0  0  0  0  0  0  0  0  0  0  0
    9.3861  -17.4073   25.5915 N   0  0  0  0  0  0  0  0  0  0  0  0
    9.9533  -16.5230   26.6261 C   0  0  1  0  0  0  0  0  0  0  0  0
    8.8071  -16.0231   27.4315 C   0  0  0  0  0  0  0  0  0  0  0  0
    7.7948  -15.2860   26.6770 C   0  0  0  0  0  0  0  0  0  0  0  0
    6.6695  -15.8136   26.0220 C   0  0  0  0  0  0  0  0  0  0  0  0
    6.0081  -14.8107   25.4235 N   0  0  0  0  0  0  0  0  0  0  0  0
    6.6272  -13.6474   25.6427 C   0  0  0  0  0  0  0  0  0  0  0  0
    6.3068  -12.3712   25.2410 C   0  0  0  0  0  0  0  0  0  0  0  0
    7.1260  -11.3337   25.6306 C   0  0  0  0  0  0  0  0  0  0  0  0
    8.2547  -11.5488   26.4112 C   0  0  0  0  0  0  0  0  0  0  0  0
    8.5208  -12.8421   26.7787 C   0  0  0  0  0  0  0  0  0  0  0  0
    7.7257  -13.9137   26.4094 C   0  0  0  0  0  0  0  0  0  0  0  0
   11.0748  -17.1166   27.3262 C   0  0  0  0  0  0  0  0  0  0  0  0
   11.7539  -16.5041   28.2139 O   0  0  0  0  0  0  0  0  0  0  0  0
   11.4480  -18.4348   27.0253 O   0  0  0  0  0  0  0  0  0  0  0  0
  2  1  1  1
  2  3  1  0
  3  4  1  0
  4  5  2  0
  4  8  1  0
  5  6  1  0
  6  7  1  0
  8  7  2  0
  9  2  1  0
  9 10  2  0
 11  9  1  0
 12 11  1  0
 12 13  1  6
 13 14  1  0
 14 15  1  0
 16 15  1  0
 17 16  1  0
 18 12  1  0
 19 18  2  0
 20 18  1  0
 21 20  1  0
 21 22  1  1
 22 23  1  0
 23 31  1  0
 24 23  2  0
 24 25  1  0
 25 26  1  0
 26 27  1  0
 27 28  2  0
 29 28  1  0
 30 29  2  0
 31 26  2  0
 31 30  1  0
 32 21  1  0
 32 34  1  0
 33 32  2  0
M  END
$$$$
