HKW.pdb
     RDKit          3D

 34 36  0  0  1  0  0  0  0  0999 V2000
    7.8703  -16.8220   19.6738 N   0  0  0  0  0  0  0  0  0  0  0  0
    8.4864  -16.0580   20.7344 C   0  0  1  0  0  0  0  0  0  0  0  0
    7.7639  -14.7644   20.9653 C   0  0  0  0  0  0  0  0  0  0  0  0
    7.8829  -13.8705   19.7621 C   0  0  0  0  0  0  0  0  0  0  0  0
    8.5304  -14.1803   18.5769 C   0  0  0  0  0  0  0  0  0  0  0  0
    8.4243  -13.1447   17.7535 N   0  0  0  0  0  0  0  0  0  0  0  0
    7.7230  -12.1948   18.4022 C   0  0  0  0  0  0  0  0  0  0  0  0
    7.3910  -12.6272   19.6205 N   0  0  0  0  0  0  0  0  0  0  0  0
    8.6530  -16.8933   21.9387 C   0  0  0  0  0  0  0  0  0  0  0  0
    7.7729  -17.6683   22.3778 O   0  0  0  0  0  0  0  0  0  0  0  0
    9.8808  -16.8221   22.6508 N   0  0  0  0  0  0  0  0  0  0  0  0
   10.1668  -17.7674   23.7538 C   0  0  1  0  0  0  0  0  0  0  0  0
   11.4297  -18.5009   23.4407 C   0  0  0  0  0  0  0  0  0  0  0  0
   11.7260  -19.5503   24.4618 C   0  0  0  0  0  0  0  0  0  0  0  0
   13.0355  -20.2753   24.1658 C   0  0  0  0  0  0  0  0  0  0  0  0
   13.3584  -21.3227   25.1891 C   0  0  0  0  0  0  0  0  0  0  0  0
   13.0818  -22.6648   24.6995 N   0  0  0  0  0  0  0  0  0  0  0  0
   10.3444  -16.9383   24.9554 C   0  0  0  0  0  0  0  0  0  0  0  0
   11.0793  -15.8949   24.8499 O   0  0  0  0  0  0  0  0  0  0  0  0
    9.7853  -17.1589   26.2243 N   0  0  0  0  0  0  0  0  0  0  0  0
   10.2163  -16.3789   27.3990 C   0  0  1  0  0  0  0  0  0  0  0  0
    8.9771  -15.9400   28.0946 C   0  0  0  0  0  0  0  0  0  0  0  0
    7.9647  -15.3329   27.2320 C   0  0  0  0  0  0  0  0  0  0  0  0
    6.8971  -15.9795   26.5872 C   0  0  0  0  0  0  0  0  0  0  0  0
    6.2148  -15.0747   25.8680 N   0  0  0  0  0  0  0  0  0  0  0  0
    6.7658  -13.8646   25.9973 C   0  0  0  0  0  0  0  0  0  0  0  0
    6.4016  -12.6513   25.4607 C   0  0  0  0  0  0  0  0  0  0  0  0
    7.1507  -11.5394   25.7797 C   0  0  0  0  0  0  0  0  0  0  0  0
    8.2525  -11.6189   26.6220 C   0  0  0  0  0  0  0  0  0  0  0  0
    8.5648  -12.8554   27.1241 C   0  0  0  0  0  0  0  0  0  0  0  0
    7.8405  -13.9980   26.8295 C   0  0  0  0  0  0  0  0  0  0  0  0
   11.2391  -17.0471   28.1786 C   0  0  0  0  0  0  0  0  0  0  0  0
   11.6056  -18.2505   27.9740 O   0  0  0  0  0  0  0  0  0  0  0  0
   11.8715  -16.3488   29.2178 O   0  0  0  0  0  0  0  0  0  0  0  0
  2  1  1  6
  2  3  1  0
  3  4  1  0
  4  5  2  0
  4  8  1  0
  5  6  1  0
  6  7  1  0
  8  7  2  0
  9  2  1  0
  9 10  2  0
 11  9  1  0
 12 11  1  0
 12 13  1  6
 13 14  1  0
 14 15  1  0
 16 15  1  0
 17 16  1  0
 18 12  1  0
 19 18  2  0
 20 18  1  0
 21 20  1  0
 21 22  1  1
 22 23  1  0
 23 31  1  0
 24 23  2  0
 24 25  1  0
 25 26  1  0
 26 27  1  0
 27 28  2  0
 29 28  1  0
 30 29  2  0
 31 26  2  0
 31 30  1  0
 32 21  1  0
 32 34  1  0
 33 32  2  0
M  END
$$$$
