HKW.pdb
     RDKit          3D

 34 36  0  0  1  0  0  0  0  0999 V2000
    8.3217  -18.9743   20.5374 N   0  0  0  0  0  0  0  0  0  0  0  0
    9.6865  -18.7306   20.1296 C   0  0  1  0  0  0  0  0  0  0  0  0
    9.8535  -18.9088   18.6500 C   0  0  0  0  0  0  0  0  0  0  0  0
    9.6552  -20.3488   18.2653 C   0  0  0  0  0  0  0  0  0  0  0  0
    9.1276  -20.8080   17.0691 C   0  0  0  0  0  0  0  0  0  0  0  0
    9.1088  -22.1348   17.0965 N   0  0  0  0  0  0  0  0  0  0  0  0
    9.6145  -22.5123   18.2868 C   0  0  0  0  0  0  0  0  0  0  0  0
    9.9481  -21.4353   19.0011 N   0  0  0  0  0  0  0  0  0  0  0  0
   10.1535  -17.4317   20.6496 C   0  0  0  0  0  0  0  0  0  0  0  0
   11.2655  -16.9274   20.3713 O   0  0  0  0  0  0  0  0  0  0  0  0
    9.2993  -16.7007   21.5188 N   0  0  0  0  0  0  0  0  0  0  0  0
    9.6572  -15.3295   21.9475 C   0  0  1  0  0  0  0  0  0  0  0  0
    8.4662  -14.4458   21.7699 C   0  0  0  0  0  0  0  0  0  0  0  0
    7.8144  -14.6585   20.4427 C   0  0  0  0  0  0  0  0  0  0  0  0
    8.1930  -13.5686   19.4443 C   0  0  0  0  0  0  0  0  0  0  0  0
    7.5260  -13.7492   18.1135 C   0  0  0  0  0  0  0  0  0  0  0  0
    7.8871  -12.6958   17.1768 N   0  0  0  0  0  0  0  0  0  0  0  0
   10.0054  -15.4339   23.3726 C   0  0  0  0  0  0  0  0  0  0  0  0
   10.7232  -14.5001   23.8753 O   0  0  0  0  0  0  0  0  0  0  0  0
    9.6286  -16.4530   24.2619 N   0  0  0  0  0  0  0  0  0  0  0  0
   10.1176  -16.4773   25.6527 C   0  0  1  0  0  0  0  0  0  0  0  0
    9.6933  -15.1944   26.2740 C   0  0  0  0  0  0  0  0  0  0  0  0
    8.2774  -14.8673   26.1138 C   0  0  0  0  0  0  0  0  0  0  0  0
    7.2236  -15.7563   25.8440 C   0  0  0  0  0  0  0  0  0  0  0  0
    6.0827  -15.0565   25.7437 N   0  0  0  0  0  0  0  0  0  0  0  0
    6.3161  -13.7546   25.9316 C   0  0  0  0  0  0  0  0  0  0  0  0
    5.4565  -12.6804   25.9332 C   0  0  0  0  0  0  0  0  0  0  0  0
    5.9722  -11.4256   26.1758 C   0  0  0  0  0  0  0  0  0  0  0  0
    7.3259  -11.2269   26.4157 C   0  0  0  0  0  0  0  0  0  0  0  0
    8.1307  -12.3362   26.4004 C   0  0  0  0  0  0  0  0  0  0  0  0
    7.6551  -13.6142   26.1605 C   0  0  0  0  0  0  0  0  0  0  0  0
    9.7995  -17.7109   26.3437 C   0  0  0  0  0  0  0  0  0  0  0  0
   10.1264  -17.9442   27.5532 O   0  0  0  0  0  0  0  0  0  0  0  0
    9.0941  -18.7136   25.6621 O   0  0  0  0  0  0  0  0  0  0  0  0
  2  1  1  6
  2  3  1  0
  3  4  1  0
  4  5  2  0
  4  8  1  0
  5  6  1  0
  6  7  1  0
  8  7  2  0
  9  2  1  0
  9 10  2  0
 11  9  1  0
 12 11  1  0
 12 13  1  1
 13 14  1  0
 14 15  1  0
 16 15  1  0
 17 16  1  0
 18 12  1  0
 19 18  2  0
 20 18  1  0
 21 20  1  0
 21 22  1  1
 22 23  1  0
 23 31  1  0
 24 23  2  0
 24 25  1  0
 25 26  1  0
 26 27  1  0
 27 28  2  0
 29 28  1  0
 30 29  2  0
 31 26  2  0
 31 30  1  0
 32 21  1  0
 32 34  1  0
 33 32  2  0
M  END
$$$$
