ATW.pdb
     RDKit          3D

 27 28  0  0  1  0  0  0  0  0999 V2000
   27.4029  -22.2324  -18.8796 C   0  0  0  0  0  0  0  0  0  0  0  0
   28.3189  -21.0824  -18.5718 C   0  0  2  0  0  0  0  0  0  0  0  0
   29.6246  -21.3690  -19.1306 N   0  0  0  0  0  0  0  0  0  0  0  0
   28.4350  -20.8086  -17.1140 C   0  0  0  0  0  0  0  0  0  0  0  0
   29.4256  -21.1835  -16.4383 O   0  0  0  0  0  0  0  0  0  0  0  0
   28.5157  -17.6890  -15.6695 C   0  0  0  0  0  0  0  0  0  0  0  0
   27.3014  -18.2855  -14.9394 C   0  0  1  0  0  0  0  0  0  0  0  0
   26.1954  -17.8327  -15.6706 O   0  0  0  0  0  0  0  0  0  0  0  0
   27.4540  -19.7636  -15.0412 C   0  0  2  0  0  0  0  0  0  0  0  0
   27.4026  -20.1078  -16.4710 N   0  0  0  0  0  0  0  0  0  0  0  0
   26.4592  -20.5548  -14.2804 C   0  0  0  0  0  0  0  0  0  0  0  0
   25.4070  -20.9460  -14.8431 O   0  0  0  0  0  0  0  0  0  0  0  0
   26.6283  -20.9059  -12.9175 N   0  0  0  0  0  0  0  0  0  0  0  0
   25.6305  -21.7029  -12.1646 C   0  0  1  0  0  0  0  0  0  0  0  0
   26.2150  -22.1664  -10.8800 C   0  0  0  0  0  0  0  0  0  0  0  0
   26.3129  -21.2331   -9.7769 C   0  0  0  0  0  0  0  0  0  0  0  0
   25.3198  -20.3516   -9.3923 C   0  0  0  0  0  0  0  0  0  0  0  0
   25.7687  -19.6253   -8.3590 N   0  0  0  0  0  0  0  0  0  0  0  0
   27.0233  -19.9836   -8.0331 C   0  0  0  0  0  0  0  0  0  0  0  0
   27.9203  -19.5850   -7.0746 C   0  0  0  0  0  0  0  0  0  0  0  0
   29.1736  -20.1376   -6.9321 C   0  0  0  0  0  0  0  0  0  0  0  0
   29.5235  -21.1443   -7.8119 C   0  0  0  0  0  0  0  0  0  0  0  0
   28.6327  -21.5446   -8.7698 C   0  0  0  0  0  0  0  0  0  0  0  0
   27.3714  -21.0035   -8.9305 C   0  0  0  0  0  0  0  0  0  0  0  0
   24.4520  -20.8530  -12.0329 C   0  0  0  0  0  0  0  0  0  0  0  0
   24.5376  -19.4832  -12.1516 O   0  0  0  0  0  0  0  0  0  0  0  0
   23.3298  -21.3557  -11.8071 O   0  0  0  0  0  0  0  0  0  0  0  0
  2  1  1  1
  2  3  1  0
  4  2  1  0
  4  5  2  0
  7  6  1  6
  7  9  1  0
  8  7  1  0
  9 11  1  0
  9 10  1  6
 10  4  1  0
 11 13  1  0
 12 11  2  0
 13 14  1  0
 14 25  1  0
 14 15  1  1
 16 15  1  0
 16 17  2  0
 18 17  1  0
 19 18  1  0
 20 19  2  0
 21 20  1  0
 22 21  2  0
 22 23  1  0
 23 24  2  0
 24 19  1  0
 24 16  1  0
 25 27  2  0
 25 26  1  0
M  END
$$$$
