ATW.pdb
     RDKit          3D

 27 28  0  0  1  0  0  0  0  0999 V2000
   25.0076  -23.2517  -17.0750 C   0  0  0  0  0  0  0  0  0  0  0  0
   26.1071  -22.3114  -17.4786 C   0  0  2  0  0  0  0  0  0  0  0  0
   26.9000  -22.9442  -18.5132 N   0  0  0  0  0  0  0  0  0  0  0  0
   26.9767  -21.9138  -16.3386 C   0  0  0  0  0  0  0  0  0  0  0  0
   28.0999  -22.4395  -16.1370 O   0  0  0  0  0  0  0  0  0  0  0  0
   28.3804  -18.9153  -15.7809 C   0  0  0  0  0  0  0  0  0  0  0  0
   27.5937  -19.0323  -14.4654 C   0  0  1  0  0  0  0  0  0  0  0  0
   26.4179  -18.3054  -14.6941 O   0  0  0  0  0  0  0  0  0  0  0  0
   27.3114  -20.4842  -14.2904 C   0  0  2  0  0  0  0  0  0  0  0  0
   26.5272  -20.9176  -15.4577 N   0  0  0  0  0  0  0  0  0  0  0  0
   26.6150  -20.8450  -13.0337 C   0  0  0  0  0  0  0  0  0  0  0  0
   25.3989  -21.1569  -13.0586 O   0  0  0  0  0  0  0  0  0  0  0  0
   27.2566  -20.8590  -11.7698 N   0  0  0  0  0  0  0  0  0  0  0  0
   26.5346  -21.1432  -10.5066 C   0  0  1  0  0  0  0  0  0  0  0  0
   27.5011  -21.2637   -9.3849 C   0  0  0  0  0  0  0  0  0  0  0  0
   27.1535  -20.7014   -8.0964 C   0  0  0  0  0  0  0  0  0  0  0  0
   25.8846  -20.3004   -7.7214 C   0  0  0  0  0  0  0  0  0  0  0  0
   25.9427  -19.8036   -6.4778 N   0  0  0  0  0  0  0  0  0  0  0  0
   27.1993  -19.8551   -6.0015 C   0  0  0  0  0  0  0  0  0  0  0  0
   27.7951  -19.5039   -4.8166 C   0  0  0  0  0  0  0  0  0  0  0  0
   29.1367  -19.6801   -4.5607 C   0  0  0  0  0  0  0  0  0  0  0  0
   29.9024  -20.2419   -5.5647 C   0  0  0  0  0  0  0  0  0  0  0  0
   29.3130  -20.5931   -6.7482 C   0  0  0  0  0  0  0  0  0  0  0  0
   27.9698  -20.4244   -7.0257 C   0  0  0  0  0  0  0  0  0  0  0  0
   25.5489  -20.0781  -10.3574 C   0  0  0  0  0  0  0  0  0  0  0  0
   25.8027  -18.7977  -10.7974 O   0  0  0  0  0  0  0  0  0  0  0  0
   24.4430  -20.3084   -9.8214 O   0  0  0  0  0  0  0  0  0  0  0  0
  2  1  1  1
  2  3  1  0
  4  2  1  0
  4  5  2  0
  7  6  1  6
  7  9  1  0
  8  7  1  0
  9 11  1  0
  9 10  1  6
 10  4  1  0
 11 13  1  0
 12 11  2  0
 13 14  1  0
 14 25  1  0
 14 15  1  1
 16 15  1  0
 16 17  2  0
 18 17  1  0
 19 18  1  0
 20 19  2  0
 21 20  1  0
 22 21  2  0
 22 23  1  0
 23 24  2  0
 24 19  1  0
 24 16  1  0
 25 27  2  0
 25 26  1  0
M  END
$$$$
