ATW.pdb
     RDKit          3D

 27 28  0  0  1  0  0  0  0  0999 V2000
   13.1685  -15.8543    3.5137 C   0  0  0  0  0  0  0  0  0  0  0  0
   13.0026  -17.3463    3.5625 C   0  0  2  0  0  0  0  0  0  0  0  0
   11.6132  -17.6482    3.8413 N   0  0  0  0  0  0  0  0  0  0  0  0
   13.8801  -17.9937    4.5749 C   0  0  0  0  0  0  0  0  0  0  0  0
   13.5706  -18.0522    5.7911 O   0  0  0  0  0  0  0  0  0  0  0  0
   15.2043  -21.2716    4.3907 C   0  0  0  0  0  0  0  0  0  0  0  0
   16.4923  -20.4480    4.5512 C   0  0  1  0  0  0  0  0  0  0  0  0
   16.9908  -20.3191    3.2482 O   0  0  0  0  0  0  0  0  0  0  0  0
   16.0652  -19.1324    5.1038 C   0  0  2  0  0  0  0  0  0  0  0  0
   15.0956  -18.5583    4.1574 N   0  0  0  0  0  0  0  0  0  0  0  0
   17.1622  -18.1730    5.3696 C   0  0  0  0  0  0  0  0  0  0  0  0
   17.6984  -17.5550    4.4171 O   0  0  0  0  0  0  0  0  0  0  0  0
   17.6570  -17.9041    6.6703 N   0  0  0  0  0  0  0  0  0  0  0  0
   18.8276  -17.0290    6.9184 C   0  0  1  0  0  0  0  0  0  0  0  0
   18.3780  -15.7183    7.4538 C   0  0  0  0  0  0  0  0  0  0  0  0
   18.4904  -14.5426    6.6157 C   0  0  0  0  0  0  0  0  0  0  0  0
   17.5347  -14.1180    5.7113 C   0  0  0  0  0  0  0  0  0  0  0  0
   17.9884  -13.0181    5.0939 N   0  0  0  0  0  0  0  0  0  0  0  0
   19.2101  -12.6859    5.5474 C   0  0  0  0  0  0  0  0  0  0  0  0
   20.0954  -11.6735    5.2759 C   0  0  0  0  0  0  0  0  0  0  0  0
   21.3113  -11.5394    5.9085 C   0  0  0  0  0  0  0  0  0  0  0  0
   21.6344  -12.4857    6.8625 C   0  0  0  0  0  0  0  0  0  0  0  0
   20.7552  -13.4973    7.1360 C   0  0  0  0  0  0  0  0  0  0  0  0
   19.5313  -13.6508    6.5130 C   0  0  0  0  0  0  0  0  0  0  0  0
   19.7142  -17.7817    7.7992 C   0  0  0  0  0  0  0  0  0  0  0  0
   21.0084  -17.3732    8.0353 O   0  0  0  0  0  0  0  0  0  0  0  0
   19.3132  -18.8233    8.3628 O   0  0  0  0  0  0  0  0  0  0  0  0
  2  1  1  1
  2  3  1  0
  4  2  1  0
  4  5  2  0
  7  6  1  6
  7  9  1  0
  8  7  1  0
  9 11  1  0
  9 10  1  6
 10  4  1  0
 11 13  1  0
 12 11  2  0
 13 14  1  0
 14 25  1  0
 14 15  1  1
 16 15  1  0
 16 17  2  0
 18 17  1  0
 19 18  1  0
 20 19  2  0
 21 20  1  0
 22 21  2  0
 22 23  1  0
 23 24  2  0
 24 19  1  0
 24 16  1  0
 25 27  2  0
 25 26  1  0
M  END
$$$$
