ATW.pdb
     RDKit          3D

 27 28  0  0  1  0  0  0  0  0999 V2000
   31.2471  -24.0711  -20.1603 C   0  0  0  0  0  0  0  0  0  0  0  0
   30.4212  -24.5933  -21.3010 C   0  0  2  0  0  0  0  0  0  0  0  0
   29.9622  -23.4694  -22.0920 N   0  0  0  0  0  0  0  0  0  0  0  0
   29.2616  -25.4095  -20.8504 C   0  0  0  0  0  0  0  0  0  0  0  0
   28.3338  -24.9285  -20.1531 O   0  0  0  0  0  0  0  0  0  0  0  0
   27.2971  -28.2053  -22.9556 C   0  0  0  0  0  0  0  0  0  0  0  0
   28.0385  -28.7767  -21.7362 C   0  0  1  0  0  0  0  0  0  0  0  0
   29.3021  -29.1298  -22.2278 O   0  0  0  0  0  0  0  0  0  0  0  0
   28.1281  -27.6583  -20.7564 C   0  0  2  0  0  0  0  0  0  0  0  0
   29.2018  -26.7634  -21.2164 N   0  0  0  0  0  0  0  0  0  0  0  0
   28.3585  -28.0669  -19.3513 C   0  0  0  0  0  0  0  0  0  0  0  0
   29.5256  -28.2975  -18.9493 O   0  0  0  0  0  0  0  0  0  0  0  0
   27.3118  -28.2179  -18.4076 N   0  0  0  0  0  0  0  0  0  0  0  0
   27.5580  -28.5298  -16.9794 C   0  0  1  0  0  0  0  0  0  0  0  0
   27.0529  -27.4255  -16.1237 C   0  0  0  0  0  0  0  0  0  0  0  0
   27.6782  -26.1227  -16.2186 C   0  0  0  0  0  0  0  0  0  0  0  0
   27.0621  -24.9789  -16.6915 C   0  0  0  0  0  0  0  0  0  0  0  0
   27.9476  -23.9730  -16.6640 N   0  0  0  0  0  0  0  0  0  0  0  0
   29.1339  -24.3944  -16.1911 C   0  0  0  0  0  0  0  0  0  0  0  0
   30.3424  -23.7921  -15.9477 C   0  0  0  0  0  0  0  0  0  0  0  0
   31.4303  -24.4572  -15.4277 C   0  0  0  0  0  0  0  0  0  0  0  0
   31.2725  -25.8006  -15.1441 C   0  0  0  0  0  0  0  0  0  0  0  0
   30.0697  -26.4057  -15.3857 C   0  0  0  0  0  0  0  0  0  0  0  0
   28.9663  -25.7575  -15.9073 C   0  0  0  0  0  0  0  0  0  0  0  0
   26.9378  -29.8280  -16.7376 C   0  0  0  0  0  0  0  0  0  0  0  0
   27.1462  -30.5158  -15.5624 O   0  0  0  0  0  0  0  0  0  0  0  0
   26.1978  -30.3478  -17.6010 O   0  0  0  0  0  0  0  0  0  0  0  0
  2  1  1  1
  2  3  1  0
  4  2  1  0
  4  5  2  0
  7  6  1  6
  7  9  1  0
  8  7  1  0
  9 11  1  0
  9 10  1  6
 10  4  1  0
 11 13  1  0
 12 11  2  0
 13 14  1  0
 14 25  1  0
 14 15  1  1
 16 15  1  0
 16 17  2  0
 18 17  1  0
 19 18  1  0
 20 19  2  0
 21 20  1  0
 22 21  2  0
 22 23  1  0
 23 24  2  0
 24 19  1  0
 24 16  1  0
 25 27  2  0
 25 26  1  0
M  END
$$$$
