ATW.pdb
     RDKit          3D

 27 28  0  0  1  0  0  0  0  0999 V2000
   19.1413  -22.7662   -8.6395 C   0  0  0  0  0  0  0  0  0  0  0  0
   18.9137  -24.2122   -8.9759 C   0  0  2  0  0  0  0  0  0  0  0  0
   18.6189  -24.3169  -10.3907 N   0  0  0  0  0  0  0  0  0  0  0  0
   17.8186  -24.8271   -8.1781 C   0  0  0  0  0  0  0  0  0  0  0  0
   16.6192  -24.4740   -8.3020 O   0  0  0  0  0  0  0  0  0  0  0  0
   18.2548  -28.5662   -6.8938 C   0  0  0  0  0  0  0  0  0  0  0  0
   16.8962  -27.8525   -6.9843 C   0  0  1  0  0  0  0  0  0  0  0  0
   16.0458  -28.6128   -6.1709 O   0  0  0  0  0  0  0  0  0  0  0  0
   17.1158  -26.4913   -6.4209 C   0  0  2  0  0  0  0  0  0  0  0  0
   18.1358  -25.8358   -7.2548 N   0  0  0  0  0  0  0  0  0  0  0  0
   17.5100  -26.4548   -4.9935 C   0  0  0  0  0  0  0  0  0  0  0  0
   18.7252  -26.4832   -4.6782 O   0  0  0  0  0  0  0  0  0  0  0  0
   16.5719  -26.3888   -3.9329 N   0  0  0  0  0  0  0  0  0  0  0  0
   16.9720  -26.4077   -2.5056 C   0  0  1  0  0  0  0  0  0  0  0  0
   17.0295  -25.0211   -1.9756 C   0  0  0  0  0  0  0  0  0  0  0  0
   15.8104  -24.2416   -1.9171 C   0  0  0  0  0  0  0  0  0  0  0  0
   15.3236  -23.4509   -2.9415 C   0  0  0  0  0  0  0  0  0  0  0  0
   14.1969  -22.8562   -2.5249 N   0  0  0  0  0  0  0  0  0  0  0  0
   13.9063  -23.2158   -1.2620 C   0  0  0  0  0  0  0  0  0  0  0  0
   12.8919  -22.9217   -0.3864 C   0  0  0  0  0  0  0  0  0  0  0  0
   12.8089  -23.4491    0.8830 C   0  0  0  0  0  0  0  0  0  0  0  0
   13.8111  -24.3173    1.2727 C   0  0  0  0  0  0  0  0  0  0  0  0
   14.8251  -24.6130    0.4033 C   0  0  0  0  0  0  0  0  0  0  0  0
   14.9277  -24.0947   -0.8736 C   0  0  0  0  0  0  0  0  0  0  0  0
   16.0204  -27.2846   -1.8318 C   0  0  0  0  0  0  0  0  0  0  0  0
   14.9715  -27.8635   -2.5115 O   0  0  0  0  0  0  0  0  0  0  0  0
   16.1389  -27.5304   -0.6116 O   0  0  0  0  0  0  0  0  0  0  0  0
  2  1  1  1
  2  3  1  0
  4  2  1  0
  4  5  2  0
  7  6  1  1
  7  9  1  0
  8  7  1  0
  9 11  1  0
  9 10  1  6
 10  4  1  0
 11 13  1  0
 12 11  2  0
 13 14  1  0
 14 25  1  0
 14 15  1  1
 16 15  1  0
 16 17  2  0
 18 17  1  0
 19 18  1  0
 20 19  2  0
 21 20  1  0
 22 21  2  0
 22 23  1  0
 23 24  2  0
 24 19  1  0
 24 16  1  0
 25 27  2  0
 25 26  1  0
M  END
$$$$
