ATW.pdb
     RDKit          3D

 27 28  0  0  1  0  0  0  0  0999 V2000
   28.6813  -21.2912  -17.9416 C   0  0  0  0  0  0  0  0  0  0  0  0
   28.5496  -21.8007  -16.5349 C   0  0  2  0  0  0  0  0  0  0  0  0
   27.7151  -22.9851  -16.5483 N   0  0  0  0  0  0  0  0  0  0  0  0
   27.9854  -20.7876  -15.6025 C   0  0  0  0  0  0  0  0  0  0  0  0
   28.5084  -19.6561  -15.4456 O   0  0  0  0  0  0  0  0  0  0  0  0
   25.2803  -18.9368  -15.6807 C   0  0  0  0  0  0  0  0  0  0  0  0
   24.9481  -19.7227  -14.4019 C   0  0  1  0  0  0  0  0  0  0  0  0
   24.1556  -20.7908  -14.8426 O   0  0  0  0  0  0  0  0  0  0  0  0
   26.2549  -20.1979  -13.8680 C   0  0  2  0  0  0  0  0  0  0  0  0
   26.8296  -21.1067  -14.8726 N   0  0  0  0  0  0  0  0  0  0  0  0
   26.1930  -20.8595  -12.5440 C   0  0  0  0  0  0  0  0  0  0  0  0
   26.1718  -22.1128  -12.4703 O   0  0  0  0  0  0  0  0  0  0  0  0
   26.1546  -20.1428  -11.3217 N   0  0  0  0  0  0  0  0  0  0  0  0
   26.1212  -20.8126   -9.9996 C   0  0  1  0  0  0  0  0  0  0  0  0
   27.0020  -20.0939   -9.0434 C   0  0  0  0  0  0  0  0  0  0  0  0
   26.9185  -20.4171   -7.6342 C   0  0  0  0  0  0  0  0  0  0  0  0
   26.0003  -21.2842   -7.0716 C   0  0  0  0  0  0  0  0  0  0  0  0
   26.1983  -21.3165   -5.7462 N   0  0  0  0  0  0  0  0  0  0  0  0
   27.2129  -20.5066   -5.3954 C   0  0  0  0  0  0  0  0  0  0  0  0
   27.8234  -20.1864   -4.2091 C   0  0  0  0  0  0  0  0  0  0  0  0
   28.8875  -19.3175   -4.1140 C   0  0  0  0  0  0  0  0  0  0  0  0
   29.3468  -18.7510   -5.2880 C   0  0  0  0  0  0  0  0  0  0  0  0
   28.7408  -19.0665   -6.4731 C   0  0  0  0  0  0  0  0  0  0  0  0
   27.6722  -19.9348   -6.5907 C   0  0  0  0  0  0  0  0  0  0  0  0
   24.7155  -20.8737   -9.6141 C   0  0  0  0  0  0  0  0  0  0  0  0
   23.7630  -20.1062  -10.2476 O   0  0  0  0  0  0  0  0  0  0  0  0
   24.3434  -21.6312   -8.6916 O   0  0  0  0  0  0  0  0  0  0  0  0
  2  1  1  6
  2  3  1  0
  4  2  1  0
  4  5  2  0
  7  6  1  6
  7  9  1  0
  8  7  1  0
  9 11  1  0
  9 10  1  6
 10  4  1  0
 11 13  1  0
 12 11  2  0
 13 14  1  0
 14 25  1  0
 14 15  1  1
 16 15  1  0
 16 17  2  0
 18 17  1  0
 19 18  1  0
 20 19  2  0
 21 20  1  0
 22 21  2  0
 22 23  1  0
 23 24  2  0
 24 19  1  0
 24 16  1  0
 25 27  2  0
 25 26  1  0
M  END
$$$$
