ATW.pdb
     RDKit          3D

 27 28  0  0  1  0  0  0  0  0999 V2000
   28.7711  -22.1627  -15.9584 C   0  0  0  0  0  0  0  0  0  0  0  0
   27.2750  -22.0561  -15.8795 C   0  0  2  0  0  0  0  0  0  0  0  0
   26.7683  -21.6874  -17.1859 N   0  0  0  0  0  0  0  0  0  0  0  0
   26.8172  -21.0762  -14.8577 C   0  0  0  0  0  0  0  0  0  0  0  0
   27.3918  -19.9727  -14.6823 O   0  0  0  0  0  0  0  0  0  0  0  0
   23.7712  -19.5524  -14.7128 C   0  0  0  0  0  0  0  0  0  0  0  0
   23.7733  -20.2125  -13.3245 C   0  0  1  0  0  0  0  0  0  0  0  0
   23.0432  -21.3958  -13.4977 O   0  0  0  0  0  0  0  0  0  0  0  0
   25.2022  -20.4947  -13.0126 C   0  0  2  0  0  0  0  0  0  0  0  0
   25.7057  -21.3952  -14.0619 N   0  0  0  0  0  0  0  0  0  0  0  0
   25.4540  -21.0688  -11.6705 C   0  0  0  0  0  0  0  0  0  0  0  0
   25.5442  -22.3132  -11.5283 O   0  0  0  0  0  0  0  0  0  0  0  0
   25.6027  -20.2759  -10.5050 N   0  0  0  0  0  0  0  0  0  0  0  0
   25.8437  -20.8589   -9.1634 C   0  0  1  0  0  0  0  0  0  0  0  0
   26.8974  -20.0870   -8.4558 C   0  0  0  0  0  0  0  0  0  0  0  0
   27.1455  -20.3601   -7.0554 C   0  0  0  0  0  0  0  0  0  0  0  0
   26.6093  -21.4186   -6.3458 C   0  0  0  0  0  0  0  0  0  0  0  0
   27.0298  -21.3392   -5.0755 N   0  0  0  0  0  0  0  0  0  0  0  0
   27.8275  -20.2703   -4.9028 C   0  0  0  0  0  0  0  0  0  0  0  0
   28.5182  -19.7462   -3.8395 C   0  0  0  0  0  0  0  0  0  0  0  0
   29.3032  -18.6181   -3.9270 C   0  0  0  0  0  0  0  0  0  0  0  0
   29.3839  -17.9991   -5.1600 C   0  0  0  0  0  0  0  0  0  0  0  0
   28.6964  -18.5176   -6.2229 C   0  0  0  0  0  0  0  0  0  0  0  0
   27.9031  -19.6473   -6.1568 C   0  0  0  0  0  0  0  0  0  0  0  0
   24.5467  -20.8840   -8.4959 C   0  0  0  0  0  0  0  0  0  0  0  0
   24.2874  -21.7576   -7.4629 O   0  0  0  0  0  0  0  0  0  0  0  0
   23.6354  -20.1055   -8.8517 O   0  0  0  0  0  0  0  0  0  0  0  0
  2  1  1  6
  2  3  1  0
  4  2  1  0
  4  5  2  0
  7  6  1  6
  7  9  1  0
  8  7  1  0
  9 11  1  0
  9 10  1  6
 10  4  1  0
 11 13  1  0
 12 11  2  0
 13 14  1  0
 14 25  1  0
 14 15  1  1
 16 15  1  0
 16 17  2  0
 18 17  1  0
 19 18  1  0
 20 19  2  0
 21 20  1  0
 22 21  2  0
 22 23  1  0
 23 24  2  0
 24 19  1  0
 24 16  1  0
 25 27  2  0
 25 26  1  0
M  END
$$$$
