ATW.pdb
     RDKit          3D

 27 28  0  0  1  0  0  0  0  0999 V2000
   27.0926  -23.4404  -18.4971 C   0  0  0  0  0  0  0  0  0  0  0  0
   28.4188  -23.0478  -17.9115 C   0  0  2  0  0  0  0  0  0  0  0  0
   29.2054  -24.2468  -17.7032 N   0  0  0  0  0  0  0  0  0  0  0  0
   28.2882  -22.2935  -16.6356 C   0  0  0  0  0  0  0  0  0  0  0  0
   28.9375  -22.6017  -15.6051 O   0  0  0  0  0  0  0  0  0  0  0  0
   28.3374  -18.6042  -16.5542 C   0  0  0  0  0  0  0  0  0  0  0  0
   27.0506  -18.9778  -15.8007 C   0  0  1  0  0  0  0  0  0  0  0  0
   26.0365  -18.8640  -16.7608 O   0  0  0  0  0  0  0  0  0  0  0  0
   27.2324  -20.3905  -15.3649 C   0  0  2  0  0  0  0  0  0  0  0  0
   27.4093  -21.2003  -16.5808 N   0  0  0  0  0  0  0  0  0  0  0  0
   26.1389  -20.9392  -14.5298 C   0  0  0  0  0  0  0  0  0  0  0  0
   25.3382  -21.7753  -15.0163 O   0  0  0  0  0  0  0  0  0  0  0  0
   25.9362  -20.5664  -13.1774 N   0  0  0  0  0  0  0  0  0  0  0  0
   24.9492  -21.2388  -12.2990 C   0  0  1  0  0  0  0  0  0  0  0  0
   25.5609  -21.5300  -10.9769 C   0  0  0  0  0  0  0  0  0  0  0  0
   26.0048  -20.4261  -10.1512 C   0  0  0  0  0  0  0  0  0  0  0  0
   26.2698  -19.1487  -10.6089 C   0  0  0  0  0  0  0  0  0  0  0  0
   26.6863  -18.4019   -9.5766 N   0  0  0  0  0  0  0  0  0  0  0  0
   26.7114  -19.1257   -8.4435 C   0  0  0  0  0  0  0  0  0  0  0  0
   27.0333  -18.8580   -7.1369 C   0  0  0  0  0  0  0  0  0  0  0  0
   26.9563  -19.7940   -6.1297 C   0  0  0  0  0  0  0  0  0  0  0  0
   26.5299  -21.0618   -6.4774 C   0  0  0  0  0  0  0  0  0  0  0  0
   26.2086  -21.3337   -7.7789 C   0  0  0  0  0  0  0  0  0  0  0  0
   26.2794  -20.4101   -8.8044 C   0  0  0  0  0  0  0  0  0  0  0  0
   23.7835  -20.3625  -12.2576 C   0  0  0  0  0  0  0  0  0  0  0  0
   23.7617  -19.1638  -12.9359 O   0  0  0  0  0  0  0  0  0  0  0  0
   22.7710  -20.6850  -11.5988 O   0  0  0  0  0  0  0  0  0  0  0  0
  2  1  1  1
  2  3  1  0
  4  2  1  0
  4  5  2  0
  7  6  1  6
  7  9  1  0
  8  7  1  0
  9 11  1  0
  9 10  1  6
 10  4  1  0
 11 13  1  0
 12 11  2  0
 13 14  1  0
 14 25  1  0
 14 15  1  1
 16 15  1  0
 16 17  2  0
 18 17  1  0
 19 18  1  0
 20 19  2  0
 21 20  1  0
 22 21  2  0
 22 23  1  0
 23 24  2  0
 24 19  1  0
 24 16  1  0
 25 27  2  0
 25 26  1  0
M  END
$$$$
