ATW.pdb
     RDKit          3D

 27 28  0  0  1  0  0  0  0  0999 V2000
   25.4803  -16.1773  -21.3989 C   0  0  0  0  0  0  0  0  0  0  0  0
   25.7033  -16.4487  -19.9386 C   0  0  2  0  0  0  0  0  0  0  0  0
   27.0646  -16.9105  -19.7567 N   0  0  0  0  0  0  0  0  0  0  0  0
   24.7468  -17.4432  -19.3816 C   0  0  0  0  0  0  0  0  0  0  0  0
   24.0806  -18.2160  -20.1147 O   0  0  0  0  0  0  0  0  0  0  0  0
   25.7001  -19.9346  -17.2061 C   0  0  0  0  0  0  0  0  0  0  0  0
   24.5894  -19.2724  -16.3748 C   0  0  1  0  0  0  0  0  0  0  0  0
   25.2673  -18.3897  -15.5237 O   0  0  0  0  0  0  0  0  0  0  0  0
   23.7352  -18.5402  -17.3509 C   0  0  2  0  0  0  0  0  0  0  0  0
   24.5825  -17.5206  -17.9897 N   0  0  0  0  0  0  0  0  0  0  0  0
   22.5159  -17.9203  -16.7822 C   0  0  0  0  0  0  0  0  0  0  0  0
   22.4346  -16.6709  -16.6865 O   0  0  0  0  0  0  0  0  0  0  0  0
   21.4051  -18.6738  -16.3265 N   0  0  0  0  0  0  0  0  0  0  0  0
   20.2040  -18.0479  -15.7237 C   0  0  1  0  0  0  0  0  0  0  0  0
   19.5859  -17.1018  -16.6879 C   0  0  0  0  0  0  0  0  0  0  0  0
   18.9462  -17.6290  -17.8754 C   0  0  0  0  0  0  0  0  0  0  0  0
   17.9357  -18.5727  -17.8804 C   0  0  0  0  0  0  0  0  0  0  0  0
   17.6101  -18.8445  -19.1520 N   0  0  0  0  0  0  0  0  0  0  0  0
   18.3603  -18.1211  -20.0018 C   0  0  0  0  0  0  0  0  0  0  0  0
   18.4266  -18.0039  -21.3672 C   0  0  0  0  0  0  0  0  0  0  0  0
   19.2948  -17.1529  -22.0142 C   0  0  0  0  0  0  0  0  0  0  0  0
   20.1331  -16.3874  -21.2261 C   0  0  0  0  0  0  0  0  0  0  0  0
   20.0713  -16.5015  -19.8643 C   0  0  0  0  0  0  0  0  0  0  0  0
   19.2087  -17.3488  -19.1953 C   0  0  0  0  0  0  0  0  0  0  0  0
   19.3432  -19.1486  -15.3045 C   0  0  0  0  0  0  0  0  0  0  0  0
   18.1881  -18.9245  -14.5882 O   0  0  0  0  0  0  0  0  0  0  0  0
   19.6399  -20.3294  -15.5894 O   0  0  0  0  0  0  0  0  0  0  0  0
  2  1  1  6
  2  3  1  0
  4  2  1  0
  4  5  2  0
  7  6  1  6
  7  9  1  0
  8  7  1  0
  9 11  1  0
  9 10  1  1
 10  4  1  0
 11 13  1  0
 12 11  2  0
 13 14  1  0
 14 25  1  0
 14 15  1  6
 16 15  1  0
 16 17  2  0
 18 17  1  0
 19 18  1  0
 20 19  2  0
 21 20  1  0
 22 21  2  0
 22 23  1  0
 23 24  2  0
 24 19  1  0
 24 16  1  0
 25 27  2  0
 25 26  1  0
M  END
$$$$
