ATW.pdb
     RDKit          3D

 27 28  0  0  1  0  0  0  0  0999 V2000
   27.6143  -16.7672  -15.2919 C   0  0  0  0  0  0  0  0  0  0  0  0
   26.7432  -17.9318  -15.6669 C   0  0  2  0  0  0  0  0  0  0  0  0
   25.9390  -17.5577  -16.8127 N   0  0  0  0  0  0  0  0  0  0  0  0
   25.8670  -18.3825  -14.5519 C   0  0  0  0  0  0  0  0  0  0  0  0
   25.0048  -17.6314  -14.0312 O   0  0  0  0  0  0  0  0  0  0  0  0
   23.5808  -20.7600  -14.6185 C   0  0  0  0  0  0  0  0  0  0  0  0
   24.3959  -21.3333  -13.4479 C   0  0  1  0  0  0  0  0  0  0  0  0
   25.1967  -22.3245  -14.0304 O   0  0  0  0  0  0  0  0  0  0  0  0
   25.2168  -20.2018  -12.9338 C   0  0  2  0  0  0  0  0  0  0  0  0
   26.0084  -19.6912  -14.0644 N   0  0  0  0  0  0  0  0  0  0  0  0
   26.0979  -20.5300  -11.7891 C   0  0  0  0  0  0  0  0  0  0  0  0
   27.2679  -20.9365  -11.9954 O   0  0  0  0  0  0  0  0  0  0  0  0
   25.6878  -20.4101  -10.4375 N   0  0  0  0  0  0  0  0  0  0  0  0
   26.5099  -20.8957   -9.3035 C   0  0  1  0  0  0  0  0  0  0  0  0
   27.5422  -19.8858   -8.9552 C   0  0  0  0  0  0  0  0  0  0  0  0
   28.4430  -20.1551   -7.8536 C   0  0  0  0  0  0  0  0  0  0  0  0
   29.5772  -20.9422   -7.9297 C   0  0  0  0  0  0  0  0  0  0  0  0
   30.1455  -20.9924   -6.7168 N   0  0  0  0  0  0  0  0  0  0  0  0
   29.4395  -20.2704   -5.8286 C   0  0  0  0  0  0  0  0  0  0  0  0
   29.5800  -19.9799   -4.4952 C   0  0  0  0  0  0  0  0  0  0  0  0
   28.7058  -19.1762   -3.7978 C   0  0  0  0  0  0  0  0  0  0  0  0
   27.6392  -18.6463   -4.4989 C   0  0  0  0  0  0  0  0  0  0  0  0
   27.4945  -18.9338   -5.8284 C   0  0  0  0  0  0  0  0  0  0  0  0
   28.3591  -19.7377   -6.5467 C   0  0  0  0  0  0  0  0  0  0  0  0
   25.5719  -21.2113   -8.2316 C   0  0  0  0  0  0  0  0  0  0  0  0
   25.8871  -22.1205   -7.2459 O   0  0  0  0  0  0  0  0  0  0  0  0
   24.4518  -20.6576   -8.1859 O   0  0  0  0  0  0  0  0  0  0  0  0
  2  1  1  1
  2  3  1  0
  4  2  1  0
  4  5  2  0
  7  6  1  6
  7  9  1  0
  8  7  1  0
  9 11  1  0
  9 10  1  6
 10  4  1  0
 11 13  1  0
 12 11  2  0
 13 14  1  0
 14 25  1  0
 14 15  1  1
 16 15  1  0
 16 17  2  0
 18 17  1  0
 19 18  1  0
 20 19  2  0
 21 20  1  0
 22 21  2  0
 22 23  1  0
 23 24  2  0
 24 19  1  0
 24 16  1  0
 25 27  2  0
 25 26  1  0
M  END
$$$$
