ATW.pdb
     RDKit          3D

 27 28  0  0  1  0  0  0  0  0999 V2000
   25.6257  -23.7540  -17.1911 C   0  0  0  0  0  0  0  0  0  0  0  0
   26.1545  -22.3488  -17.2348 C   0  0  2  0  0  0  0  0  0  0  0  0
   26.9641  -22.1963  -18.4267 N   0  0  0  0  0  0  0  0  0  0  0  0
   26.9477  -21.9907  -16.0280 C   0  0  0  0  0  0  0  0  0  0  0  0
   28.0462  -22.5387  -15.7609 O   0  0  0  0  0  0  0  0  0  0  0  0
   28.2446  -18.9296  -15.5227 C   0  0  0  0  0  0  0  0  0  0  0  0
   27.4353  -19.0495  -14.2211 C   0  0  1  0  0  0  0  0  0  0  0  0
   26.2291  -18.3920  -14.4964 O   0  0  0  0  0  0  0  0  0  0  0  0
   27.2244  -20.5086  -14.0087 C   0  0  2  0  0  0  0  0  0  0  0  0
   26.4520  -21.0073  -15.1576 N   0  0  0  0  0  0  0  0  0  0  0  0
   26.5569  -20.8714  -12.7370 C   0  0  0  0  0  0  0  0  0  0  0  0
   25.3415  -21.1872  -12.7353 O   0  0  0  0  0  0  0  0  0  0  0  0
   27.2260  -20.8831  -11.4875 N   0  0  0  0  0  0  0  0  0  0  0  0
   26.5132  -21.0394  -10.1971 C   0  0  1  0  0  0  0  0  0  0  0  0
   27.4847  -21.0144   -9.0736 C   0  0  0  0  0  0  0  0  0  0  0  0
   26.9905  -20.8446   -7.7229 C   0  0  0  0  0  0  0  0  0  0  0  0
   25.7386  -21.2308   -7.2811 C   0  0  0  0  0  0  0  0  0  0  0  0
   25.6168  -20.8916   -5.9900 N   0  0  0  0  0  0  0  0  0  0  0  0
   26.7366  -20.2936   -5.5460 C   0  0  0  0  0  0  0  0  0  0  0  0
   27.1398  -19.7790   -4.3399 C   0  0  0  0  0  0  0  0  0  0  0  0
   28.3809  -19.2200   -4.1306 C   0  0  0  0  0  0  0  0  0  0  0  0
   29.2479  -19.1870   -5.2063 C   0  0  0  0  0  0  0  0  0  0  0  0
   28.8500  -19.6982   -6.4111 C   0  0  0  0  0  0  0  0  0  0  0  0
   27.6100  -20.2625   -6.6427 C   0  0  0  0  0  0  0  0  0  0  0  0
   25.5059  -19.9847  -10.1627 C   0  0  0  0  0  0  0  0  0  0  0  0
   24.2373  -20.2185   -9.6793 O   0  0  0  0  0  0  0  0  0  0  0  0
   25.7764  -18.8360  -10.5757 O   0  0  0  0  0  0  0  0  0  0  0  0
  2  1  1  1
  2  3  1  0
  4  2  1  0
  4  5  2  0
  7  6  1  6
  7  9  1  0
  8  7  1  0
  9 11  1  0
  9 10  1  6
 10  4  1  0
 11 13  1  0
 12 11  2  0
 13 14  1  0
 14 25  1  0
 14 15  1  1
 16 15  1  0
 16 17  2  0
 18 17  1  0
 19 18  1  0
 20 19  2  0
 21 20  1  0
 22 21  2  0
 22 23  1  0
 23 24  2  0
 24 19  1  0
 24 16  1  0
 25 27  2  0
 25 26  1  0
M  END
$$$$
