YSY.pdb
     RDKit          3D

 31 32  0  0  1  0  0  0  0  0999 V2000
    7.6280  -12.1291   16.6910 O   0  0  0  0  0  0  0  0  0  0  0  0
    7.6020  -12.8454   17.8769 C   0  0  0  0  0  0  0  0  0  0  0  0
    6.8223  -12.3564   18.9057 C   0  0  0  0  0  0  0  0  0  0  0  0
    6.7675  -13.0374   20.1023 C   0  0  0  0  0  0  0  0  0  0  0  0
    7.4806  -14.2176   20.3139 C   0  0  0  0  0  0  0  0  0  0  0  0
    7.4142  -14.9430   21.6067 C   0  0  0  0  0  0  0  0  0  0  0  0
    8.3114  -16.1644   21.5163 C   0  0  2  0  0  0  0  0  0  0  0  0
    7.7395  -17.0426   20.5162 N   0  0  0  0  0  0  0  0  0  0  0  0
    8.4283  -16.8427   22.8359 C   0  0  0  0  0  0  0  0  0  0  0  0
    7.4667  -17.4569   23.3618 O   0  0  0  0  0  0  0  0  0  0  0  0
    8.2411  -14.6553   19.2490 C   0  0  0  0  0  0  0  0  0  0  0  0
    8.3158  -14.0045   18.0538 C   0  0  0  0  0  0  0  0  0  0  0  0
   11.8079  -18.2950   23.9153 O   0  0  0  0  0  0  0  0  0  0  0  0
   10.6550  -18.6910   24.6260 C   0  0  0  0  0  0  0  0  0  0  0  0
    9.8482  -17.4266   24.8422 C   0  0  2  0  0  0  0  0  0  0  0  0
    9.6480  -16.8167   23.5525 N   0  0  0  0  0  0  0  0  0  0  0  0
   10.6106  -16.5636   25.7725 C   0  0  0  0  0  0  0  0  0  0  0  0
   11.5782  -15.8537   25.4069 O   0  0  0  0  0  0  0  0  0  0  0  0
    6.3466  -12.5299   24.9124 O   0  0  0  0  0  0  0  0  0  0  0  0
    7.2296  -13.0574   25.8500 C   0  0  0  0  0  0  0  0  0  0  0  0
    6.8178  -14.1627   26.5629 C   0  0  0  0  0  0  0  0  0  0  0  0
    7.6814  -14.7086   27.5055 C   0  0  0  0  0  0  0  0  0  0  0  0
    8.9282  -14.1846   27.7494 C   0  0  0  0  0  0  0  0  0  0  0  0
    9.8257  -14.8058   28.7747 C   0  0  0  0  0  0  0  0  0  0  0  0
   10.8671  -15.6887   28.1166 C   0  0  2  0  0  0  0  0  0  0  0  0
   10.2257  -16.5421   27.1369 N   0  0  0  0  0  0  0  0  0  0  0  0
   11.4523  -16.5270   29.2180 C   0  0  0  0  0  0  0  0  0  0  0  0
   11.2166  -17.7699   29.2242 O   0  0  0  0  0  0  0  0  0  0  0  0
    9.3180  -13.0768   27.0222 C   0  0  0  0  0  0  0  0  0  0  0  0
    8.4739  -12.5168   26.0784 C   0  0  0  0  0  0  0  0  0  0  0  0
   12.2289  -16.0026   30.2138 O   0  0  0  0  0  0  0  0  0  0  0  0
  2 12  2  0
  2  1  1  0
  3  2  1  0
  4  5  1  0
  4  3  2  0
  5 11  2  0
  6  5  1  0
  7  6  1  0
  7  8  1  6
  9  7  1  0
 10  9  2  0
 11 12  1  0
 13 14  1  0
 15 14  1  6
 15 16  1  0
 16  9  1  0
 17 15  1  0
 17 18  2  0
 20 19  1  0
 21 20  2  0
 22 21  1  0
 23 29  1  0
 23 22  2  0
 24 23  1  0
 25 26  1  0
 25 24  1  1
 26 17  1  0
 27 25  1  0
 28 27  2  0
 29 30  2  0
 30 20  1  0
 31 27  1  0
M  END
$$$$
