YSY.pdb
     RDKit          3D

 31 32  0  0  1  0  0  0  0  0999 V2000
    7.8500  -11.7529   17.2087 O   0  0  0  0  0  0  0  0  0  0  0  0
    7.6969  -12.5599   18.3247 C   0  0  0  0  0  0  0  0  0  0  0  0
    8.7092  -12.5570   19.2632 C   0  0  0  0  0  0  0  0  0  0  0  0
    8.5979  -13.3448   20.3882 C   0  0  0  0  0  0  0  0  0  0  0  0
    7.4852  -14.1551   20.6154 C   0  0  0  0  0  0  0  0  0  0  0  0
    7.3755  -14.9995   21.8305 C   0  0  0  0  0  0  0  0  0  0  0  0
    8.1400  -16.2886   21.5878 C   0  0  2  0  0  0  0  0  0  0  0  0
    7.4059  -17.0403   20.5906 N   0  0  0  0  0  0  0  0  0  0  0  0
    8.2987  -17.0635   22.8484 C   0  0  0  0  0  0  0  0  0  0  0  0
    7.6344  -18.1035   23.0844 O   0  0  0  0  0  0  0  0  0  0  0  0
    6.5079  -14.1147   19.6420 C   0  0  0  0  0  0  0  0  0  0  0  0
    6.5889  -13.3465   18.5192 C   0  0  0  0  0  0  0  0  0  0  0  0
   11.3019  -18.3557   23.9715 O   0  0  0  0  0  0  0  0  0  0  0  0
   10.1238  -18.6863   24.6742 C   0  0  0  0  0  0  0  0  0  0  0  0
    9.4868  -17.3658   25.0573 C   0  0  2  0  0  0  0  0  0  0  0  0
    9.2193  -16.6461   23.8385 N   0  0  0  0  0  0  0  0  0  0  0  0
   10.4325  -16.6550   25.9472 C   0  0  0  0  0  0  0  0  0  0  0  0
   11.6106  -16.3826   25.6130 O   0  0  0  0  0  0  0  0  0  0  0  0
    6.4198  -12.1191   25.0119 O   0  0  0  0  0  0  0  0  0  0  0  0
    7.2578  -12.7090   25.9535 C   0  0  0  0  0  0  0  0  0  0  0  0
    8.5597  -12.2616   26.0180 C   0  0  0  0  0  0  0  0  0  0  0  0
    9.4170  -12.8347   26.9503 C   0  0  0  0  0  0  0  0  0  0  0  0
    9.0108  -13.8294   27.8069 C   0  0  0  0  0  0  0  0  0  0  0  0
    9.9691  -14.4181   28.7958 C   0  0  0  0  0  0  0  0  0  0  0  0
   10.8038  -15.5087   28.1550 C   0  0  2  0  0  0  0  0  0  0  0  0
    9.9812  -16.2669   27.2341 N   0  0  0  0  0  0  0  0  0  0  0  0
   11.2587  -16.3947   29.2805 C   0  0  0  0  0  0  0  0  0  0  0  0
   12.0554  -15.9206   30.1412 O   0  0  0  0  0  0  0  0  0  0  0  0
    7.7013  -14.2609   27.7230 C   0  0  0  0  0  0  0  0  0  0  0  0
    6.8304  -13.7041   26.8020 C   0  0  0  0  0  0  0  0  0  0  0  0
   10.8474  -17.6920   29.4131 O   0  0  0  0  0  0  0  0  0  0  0  0
  2 12  2  0
  2  1  1  0
  3  2  1  0
  4  5  1  0
  4  3  2  0
  5 11  2  0
  6  5  1  0
  7  6  1  0
  7  8  1  6
  9  7  1  0
 10  9  2  0
 11 12  1  0
 13 14  1  0
 15 14  1  6
 15 16  1  0
 16  9  1  0
 17 15  1  0
 17 18  2  0
 20 19  1  0
 21 20  2  0
 22 21  1  0
 23 29  1  0
 23 22  2  0
 24 23  1  0
 25 26  1  0
 25 24  1  1
 26 17  1  0
 27 25  1  0
 28 27  2  0
 29 30  2  0
 30 20  1  0
 31 27  1  0
M  END
$$$$
