YSY.pdb
     RDKit          3D

 31 32  0  0  1  0  0  0  0  0999 V2000
    5.8527  -12.1049   18.6999 O   0  0  0  0  0  0  0  0  0  0  0  0
    7.0439  -12.7921   18.8690 C   0  0  0  0  0  0  0  0  0  0  0  0
    8.2149  -12.0613   18.8543 C   0  0  0  0  0  0  0  0  0  0  0  0
    9.4221  -12.7047   19.0189 C   0  0  0  0  0  0  0  0  0  0  0  0
    9.5044  -14.0853   19.2020 C   0  0  0  0  0  0  0  0  0  0  0  0
   10.8099  -14.7681   19.3784 C   0  0  0  0  0  0  0  0  0  0  0  0
   11.4333  -14.9693   18.0088 C   0  0  2  0  0  0  0  0  0  0  0  0
   10.4670  -15.6830   17.1993 N   0  0  0  0  0  0  0  0  0  0  0  0
   12.7182  -15.7137   18.1084 C   0  0  0  0  0  0  0  0  0  0  0  0
   12.9226  -16.7851   17.4848 O   0  0  0  0  0  0  0  0  0  0  0  0
    8.3008  -14.7601   19.2072 C   0  0  0  0  0  0  0  0  0  0  0  0
    7.0914  -14.1525   19.0471 C   0  0  0  0  0  0  0  0  0  0  0  0
   16.8954  -15.7477   17.2444 O   0  0  0  0  0  0  0  0  0  0  0  0
   15.6117  -15.1867   17.4131 C   0  0  0  0  0  0  0  0  0  0  0  0
   15.1491  -15.6195   18.7896 C   0  0  2  0  0  0  0  0  0  0  0  0
   13.7687  -15.2297   18.9232 N   0  0  0  0  0  0  0  0  0  0  0  0
   16.0289  -14.9639   19.7835 C   0  0  0  0  0  0  0  0  0  0  0  0
   16.2494  -13.7289   19.7901 O   0  0  0  0  0  0  0  0  0  0  0  0
   10.9815  -16.6810   23.4460 O   0  0  0  0  0  0  0  0  0  0  0  0
   12.3695  -16.6221   23.3637 C   0  0  0  0  0  0  0  0  0  0  0  0
   12.9664  -15.3901   23.5226 C   0  0  0  0  0  0  0  0  0  0  0  0
   14.3517  -15.3045   23.4448 C   0  0  0  0  0  0  0  0  0  0  0  0
   15.1433  -16.4041   23.2155 C   0  0  0  0  0  0  0  0  0  0  0  0
   16.6325  -16.2650   23.1395 C   0  0  0  0  0  0  0  0  0  0  0  0
   17.0274  -15.2639   22.0724 C   0  0  2  0  0  0  0  0  0  0  0  0
   16.6475  -15.7728   20.7700 N   0  0  0  0  0  0  0  0  0  0  0  0
   18.5228  -15.1410   22.1555 C   0  0  0  0  0  0  0  0  0  0  0  0
   19.2193  -15.5430   21.1789 O   0  0  0  0  0  0  0  0  0  0  0  0
   14.5218  -17.6277   23.0596 C   0  0  0  0  0  0  0  0  0  0  0  0
   13.1435  -17.7359   23.1333 C   0  0  0  0  0  0  0  0  0  0  0  0
   19.1623  -14.6129   23.2427 O   0  0  0  0  0  0  0  0  0  0  0  0
  2 12  2  0
  2  1  1  0
  3  2  1  0
  4  5  1  0
  4  3  2  0
  5 11  2  0
  6  5  1  0
  7  6  1  0
  7  8  1  6
  9  7  1  0
 10  9  2  0
 11 12  1  0
 13 14  1  0
 15 14  1  6
 15 16  1  0
 16  9  1  0
 17 15  1  0
 17 18  2  0
 20 19  1  0
 21 20  2  0
 22 21  1  0
 23 29  1  0
 23 22  2  0
 24 23  1  0
 25 26  1  0
 25 24  1  1
 26 17  1  0
 27 25  1  0
 28 27  2  0
 29 30  2  0
 30 20  1  0
 31 27  1  0
M  END
$$$$
