YSY.pdb
     RDKit          3D

 31 32  0  0  1  0  0  0  0  0999 V2000
    8.3272  -12.1912   17.2335 O   0  0  0  0  0  0  0  0  0  0  0  0
    7.9362  -12.8654   18.3793 C   0  0  0  0  0  0  0  0  0  0  0  0
    8.9149  -13.1986   19.2940 C   0  0  0  0  0  0  0  0  0  0  0  0
    8.5701  -13.8693   20.4472 C   0  0  0  0  0  0  0  0  0  0  0  0
    7.2513  -14.2281   20.7268 C   0  0  0  0  0  0  0  0  0  0  0  0
    6.8911  -14.9503   21.9720 C   0  0  0  0  0  0  0  0  0  0  0  0
    7.2167  -16.4211   21.7830 C   0  0  2  0  0  0  0  0  0  0  0  0
    6.2184  -16.9689   20.8875 N   0  0  0  0  0  0  0  0  0  0  0  0
    7.2331  -17.1386   23.0868 C   0  0  0  0  0  0  0  0  0  0  0  0
    6.2694  -17.8444   23.4761 O   0  0  0  0  0  0  0  0  0  0  0  0
    6.3194  -13.8677   19.7751 C   0  0  0  0  0  0  0  0  0  0  0  0
    6.6290  -13.2044   18.6254 C   0  0  0  0  0  0  0  0  0  0  0  0
    9.5713  -19.3214   24.5685 O   0  0  0  0  0  0  0  0  0  0  0  0
    8.4331  -18.9833   25.3309 C   0  0  0  0  0  0  0  0  0  0  0  0
    8.3640  -17.4696   25.3215 C   0  0  2  0  0  0  0  0  0  0  0  0
    8.3547  -17.0467   23.9444 N   0  0  0  0  0  0  0  0  0  0  0  0
    9.5378  -16.9640   26.0686 C   0  0  0  0  0  0  0  0  0  0  0  0
   10.6986  -16.9575   25.5928 O   0  0  0  0  0  0  0  0  0  0  0  0
    6.5616  -12.1109   24.7861 O   0  0  0  0  0  0  0  0  0  0  0  0
    7.4378  -12.7252   25.6761 C   0  0  0  0  0  0  0  0  0  0  0  0
    7.6731  -12.0934   26.8781 C   0  0  0  0  0  0  0  0  0  0  0  0
    8.5444  -12.6865   27.7845 C   0  0  0  0  0  0  0  0  0  0  0  0
    9.1769  -13.8780   27.5227 C   0  0  0  0  0  0  0  0  0  0  0  0
   10.1079  -14.4807   28.5290 C   0  0  0  0  0  0  0  0  0  0  0  0
   10.4116  -15.9254   28.1861 C   0  0  2  0  0  0  0  0  0  0  0  0
    9.3353  -16.4659   27.3805 N   0  0  0  0  0  0  0  0  0  0  0  0
   10.4822  -16.6544   29.4983 C   0  0  0  0  0  0  0  0  0  0  0  0
   11.4432  -16.4017   30.2813 O   0  0  0  0  0  0  0  0  0  0  0  0
    8.9248  -14.4918   26.3112 C   0  0  0  0  0  0  0  0  0  0  0  0
    8.0607  -13.9189   25.3937 C   0  0  0  0  0  0  0  0  0  0  0  0
    9.5511  -17.5796   29.8815 O   0  0  0  0  0  0  0  0  0  0  0  0
  2 12  2  0
  2  1  1  0
  3  2  1  0
  4  5  1  0
  4  3  2  0
  5 11  2  0
  6  5  1  0
  7  6  1  0
  7  8  1  6
  9  7  1  0
 10  9  2  0
 11 12  1  0
 13 14  1  0
 15 14  1  6
 15 16  1  0
 16  9  1  0
 17 15  1  0
 17 18  2  0
 20 19  1  0
 21 20  2  0
 22 21  1  0
 23 29  1  0
 23 22  2  0
 24 23  1  0
 25 26  1  0
 25 24  1  1
 26 17  1  0
 27 25  1  0
 28 27  2  0
 29 30  2  0
 30 20  1  0
 31 27  1  0
M  END
$$$$
