YSY.pdb
     RDKit          3D

 31 32  0  0  1  0  0  0  0  0999 V2000
    3.1024  -23.4748   26.0396 O   0  0  0  0  0  0  0  0  0  0  0  0
    4.2598  -22.8200   25.6498 C   0  0  0  0  0  0  0  0  0  0  0  0
    4.1692  -21.9225   24.6049 C   0  0  0  0  0  0  0  0  0  0  0  0
    5.2957  -21.2493   24.1850 C   0  0  0  0  0  0  0  0  0  0  0  0
    6.5397  -21.4447   24.7854 C   0  0  0  0  0  0  0  0  0  0  0  0
    7.7466  -20.7142   24.3252 C   0  0  0  0  0  0  0  0  0  0  0  0
    8.0599  -21.1542   22.9063 C   0  0  2  0  0  0  0  0  0  0  0  0
    7.7900  -22.5754   22.8294 N   0  0  0  0  0  0  0  0  0  0  0  0
    9.4713  -20.8463   22.5486 C   0  0  0  0  0  0  0  0  0  0  0  0
   10.4440  -21.3927   23.1263 O   0  0  0  0  0  0  0  0  0  0  0  0
    6.5661  -22.3534   25.8235 C   0  0  0  0  0  0  0  0  0  0  0  0
    5.4698  -23.0344   26.2616 C   0  0  0  0  0  0  0  0  0  0  0  0
   10.0150  -18.7782   19.2245 O   0  0  0  0  0  0  0  0  0  0  0  0
   11.1672  -19.4725   19.6504 C   0  0  0  0  0  0  0  0  0  0  0  0
   11.0983  -19.4981   21.1640 C   0  0  2  0  0  0  0  0  0  0  0  0
    9.7675  -19.9118   21.5284 N   0  0  0  0  0  0  0  0  0  0  0  0
   11.4296  -18.1394   21.6494 C   0  0  0  0  0  0  0  0  0  0  0  0
   10.7784  -17.1192   21.3195 O   0  0  0  0  0  0  0  0  0  0  0  0
    7.2231  -16.8226   25.7813 O   0  0  0  0  0  0  0  0  0  0  0  0
    8.5826  -16.8221   25.4832 C   0  0  0  0  0  0  0  0  0  0  0  0
    9.1463  -15.6317   25.0777 C   0  0  0  0  0  0  0  0  0  0  0  0
   10.5026  -15.6047   24.7741 C   0  0  0  0  0  0  0  0  0  0  0  0
   11.2975  -16.7220   24.8645 C   0  0  0  0  0  0  0  0  0  0  0  0
   12.7547  -16.6466   24.5273 C   0  0  0  0  0  0  0  0  0  0  0  0
   12.9651  -16.7008   23.0274 C   0  0  2  0  0  0  0  0  0  0  0  0
   12.5335  -17.9901   22.5265 N   0  0  0  0  0  0  0  0  0  0  0  0
   14.4436  -16.5391   22.8125 C   0  0  0  0  0  0  0  0  0  0  0  0
   15.1029  -17.5233   22.3686 O   0  0  0  0  0  0  0  0  0  0  0  0
   10.7093  -17.9031   25.2732 C   0  0  0  0  0  0  0  0  0  0  0  0
    9.3603  -17.9527   25.5806 C   0  0  0  0  0  0  0  0  0  0  0  0
   15.1063  -15.3725   23.0767 O   0  0  0  0  0  0  0  0  0  0  0  0
  2 12  2  0
  2  1  1  0
  3  2  1  0
  4  5  1  0
  4  3  2  0
  5 11  2  0
  6  5  1  0
  7  6  1  0
  7  8  1  1
  9  7  1  0
 10  9  2  0
 11 12  1  0
 13 14  1  0
 15 14  1  6
 15 16  1  0
 16  9  1  0
 17 15  1  0
 17 18  2  0
 20 19  1  0
 21 20  2  0
 22 21  1  0
 23 29  1  0
 23 22  2  0
 24 23  1  0
 25 26  1  0
 25 24  1  1
 26 17  1  0
 27 25  1  0
 28 27  2  0
 29 30  2  0
 30 20  1  0
 31 27  1  0
M  END
$$$$
