YSY.pdb
     RDKit          3D

 31 32  0  0  1  0  0  0  0  0999 V2000
    9.6222  -13.2713   15.5035 O   0  0  0  0  0  0  0  0  0  0  0  0
   10.0824  -14.0417   16.5594 C   0  0  0  0  0  0  0  0  0  0  0  0
   10.1780  -13.4413   17.7987 C   0  0  0  0  0  0  0  0  0  0  0  0
   10.6309  -14.1708   18.8763 C   0  0  0  0  0  0  0  0  0  0  0  0
   11.0010  -15.5107   18.7582 C   0  0  0  0  0  0  0  0  0  0  0  0
   11.4874  -16.2870   19.9255 C   0  0  0  0  0  0  0  0  0  0  0  0
   12.8856  -15.8063   20.2705 C   0  0  2  0  0  0  0  0  0  0  0  0
   12.7695  -14.4298   20.7068 N   0  0  0  0  0  0  0  0  0  0  0  0
   13.7999  -15.9338   19.1032 C   0  0  0  0  0  0  0  0  0  0  0  0
   14.0220  -17.0361   18.5426 O   0  0  0  0  0  0  0  0  0  0  0  0
   10.8834  -16.0540   17.4953 C   0  0  0  0  0  0  0  0  0  0  0  0
   10.4390  -15.3589   16.4105 C   0  0  0  0  0  0  0  0  0  0  0  0
   15.9238  -12.5875   17.8116 O   0  0  0  0  0  0  0  0  0  0  0  0
   15.3578  -13.4388   16.8390 C   0  0  0  0  0  0  0  0  0  0  0  0
   15.3575  -14.8244   17.4523 C   0  0  2  0  0  0  0  0  0  0  0  0
   14.4597  -14.7975   18.5786 N   0  0  0  0  0  0  0  0  0  0  0  0
   16.7510  -15.1430   17.8373 C   0  0  0  0  0  0  0  0  0  0  0  0
   17.1495  -15.1339   19.0268 O   0  0  0  0  0  0  0  0  0  0  0  0
   17.7637  -19.9258   21.6709 O   0  0  0  0  0  0  0  0  0  0  0  0
   18.1170  -19.2689   20.4958 C   0  0  0  0  0  0  0  0  0  0  0  0
   19.3466  -18.6478   20.4571 C   0  0  0  0  0  0  0  0  0  0  0  0
   19.7231  -17.9848   19.2948 C   0  0  0  0  0  0  0  0  0  0  0  0
   18.9126  -17.9281   18.1866 C   0  0  0  0  0  0  0  0  0  0  0  0
   19.3594  -17.2022   16.9553 C   0  0  0  0  0  0  0  0  0  0  0  0
   19.0768  -15.7177   17.0714 C   0  0  2  0  0  0  0  0  0  0  0  0
   17.6725  -15.4728   16.8115 N   0  0  0  0  0  0  0  0  0  0  0  0
   19.9143  -15.0547   16.0144 C   0  0  0  0  0  0  0  0  0  0  0  0
   19.3476  -14.6467   14.9595 O   0  0  0  0  0  0  0  0  0  0  0  0
   17.6850  -18.5583   18.2499 C   0  0  0  0  0  0  0  0  0  0  0  0
   17.2898  -19.2245   19.3974 C   0  0  0  0  0  0  0  0  0  0  0  0
   21.2634  -14.8739   16.1450 O   0  0  0  0  0  0  0  0  0  0  0  0
  2 12  2  0
  2  1  1  0
  3  2  1  0
  4  5  1  0
  4  3  2  0
  5 11  2  0
  6  5  1  0
  7  6  1  0
  7  8  1  6
  9  7  1  0
 10  9  2  0
 11 12  1  0
 13 14  1  0
 15 14  1  1
 15 16  1  0
 16  9  1  0
 17 15  1  0
 17 18  2  0
 20 19  1  0
 21 20  2  0
 22 21  1  0
 23 29  1  0
 23 22  2  0
 24 23  1  0
 25 26  1  0
 25 24  1  6
 26 17  1  0
 27 25  1  0
 28 27  2  0
 29 30  2  0
 30 20  1  0
 31 27  1  0
M  END
$$$$
