YSY.pdb
     RDKit          3D

 31 32  0  0  1  0  0  0  0  0999 V2000
    7.6945  -11.8534   17.4448 O   0  0  0  0  0  0  0  0  0  0  0  0
    7.7240  -12.6030   18.6098 C   0  0  0  0  0  0  0  0  0  0  0  0
    6.5474  -13.1952   19.0226 C   0  0  0  0  0  0  0  0  0  0  0  0
    6.5318  -13.9494   20.1756 C   0  0  0  0  0  0  0  0  0  0  0  0
    7.6766  -14.1383   20.9502 C   0  0  0  0  0  0  0  0  0  0  0  0
    7.6486  -14.9528   22.1902 C   0  0  0  0  0  0  0  0  0  0  0  0
    8.2495  -16.3127   21.8829 C   0  0  2  0  0  0  0  0  0  0  0  0
    7.3537  -16.9775   20.9586 N   0  0  0  0  0  0  0  0  0  0  0  0
    8.4401  -17.1082   23.1262 C   0  0  0  0  0  0  0  0  0  0  0  0
    7.5141  -17.7867   23.6368 O   0  0  0  0  0  0  0  0  0  0  0  0
    8.8205  -13.5218   20.4861 C   0  0  0  0  0  0  0  0  0  0  0  0
    8.8678  -12.7700   19.3502 C   0  0  0  0  0  0  0  0  0  0  0  0
   11.8963  -18.3246   24.0860 O   0  0  0  0  0  0  0  0  0  0  0  0
   10.9148  -18.7754   24.9940 C   0  0  0  0  0  0  0  0  0  0  0  0
    9.9093  -17.6476   25.1092 C   0  0  2  0  0  0  0  0  0  0  0  0
    9.6925  -17.1257   23.7842 N   0  0  0  0  0  0  0  0  0  0  0  0
   10.4718  -16.6405   26.0372 C   0  0  0  0  0  0  0  0  0  0  0  0
   11.3489  -15.8115   25.6946 O   0  0  0  0  0  0  0  0  0  0  0  0
    6.7088  -12.3177   24.6381 O   0  0  0  0  0  0  0  0  0  0  0  0
    7.4191  -12.9002   25.6836 C   0  0  0  0  0  0  0  0  0  0  0  0
    6.9019  -14.0477   26.2448 C   0  0  0  0  0  0  0  0  0  0  0  0
    7.5925  -14.6490   27.2907 C   0  0  0  0  0  0  0  0  0  0  0  0
    8.7701  -14.1389   27.7821 C   0  0  0  0  0  0  0  0  0  0  0  0
    9.4805  -14.8203   28.9107 C   0  0  0  0  0  0  0  0  0  0  0  0
   10.5572  -15.7500   28.3879 C   0  0  2  0  0  0  0  0  0  0  0  0
    9.9941  -16.6162   27.3719 N   0  0  0  0  0  0  0  0  0  0  0  0
   11.0026  -16.5690   29.5666 C   0  0  0  0  0  0  0  0  0  0  0  0
   11.5919  -15.9857   30.5220 O   0  0  0  0  0  0  0  0  0  0  0  0
    9.2682  -12.9880   27.2031 C   0  0  0  0  0  0  0  0  0  0  0  0
    8.5968  -12.3726   26.1604 C   0  0  0  0  0  0  0  0  0  0  0  0
   10.7976  -17.9184   29.6496 O   0  0  0  0  0  0  0  0  0  0  0  0
  2 12  2  0
  2  1  1  0
  3  2  1  0
  4  5  1  0
  4  3  2  0
  5 11  2  0
  6  5  1  0
  7  6  1  0
  7  8  1  6
  9  7  1  0
 10  9  2  0
 11 12  1  0
 13 14  1  0
 15 14  1  6
 15 16  1  0
 16  9  1  0
 17 15  1  0
 17 18  2  0
 20 19  1  0
 21 20  2  0
 22 21  1  0
 23 29  1  0
 23 22  2  0
 24 23  1  0
 25 26  1  0
 25 24  1  1
 26 17  1  0
 27 25  1  0
 28 27  2  0
 29 30  2  0
 30 20  1  0
 31 27  1  0
M  END
$$$$
