YSY.pdb
     RDKit          3D

 31 32  0  0  1  0  0  0  0  0999 V2000
    7.7319  -22.4280   29.3647 O   0  0  0  0  0  0  0  0  0  0  0  0
    7.7391  -21.5102   28.3265 C   0  0  0  0  0  0  0  0  0  0  0  0
    6.5440  -21.2585   27.6833 C   0  0  0  0  0  0  0  0  0  0  0  0
    6.5060  -20.3530   26.6455 C   0  0  0  0  0  0  0  0  0  0  0  0
    7.6461  -19.6732   26.2162 C   0  0  0  0  0  0  0  0  0  0  0  0
    7.5938  -18.6999   25.0974 C   0  0  0  0  0  0  0  0  0  0  0  0
    7.1421  -19.4326   23.8467 C   0  0  2  0  0  0  0  0  0  0  0  0
    7.7837  -20.7314   23.8563 N   0  0  0  0  0  0  0  0  0  0  0  0
    7.4860  -18.6627   22.6204 C   0  0  0  0  0  0  0  0  0  0  0  0
    8.3148  -19.0832   21.7749 O   0  0  0  0  0  0  0  0  0  0  0  0
    8.8092  -19.9673   26.8978 C   0  0  0  0  0  0  0  0  0  0  0  0
    8.8789  -20.8573   27.9276 C   0  0  0  0  0  0  0  0  0  0  0  0
    5.6270  -15.1892   22.3898 O   0  0  0  0  0  0  0  0  0  0  0  0
    6.3832  -15.3826   21.2143 C   0  0  0  0  0  0  0  0  0  0  0  0
    7.4817  -16.3581   21.5855 C   0  0  2  0  0  0  0  0  0  0  0  0
    6.8796  -17.4104   22.3635 N   0  0  0  0  0  0  0  0  0  0  0  0
    8.5116  -15.6063   22.3376 C   0  0  0  0  0  0  0  0  0  0  0  0
    9.1540  -14.6485   21.8439 O   0  0  0  0  0  0  0  0  0  0  0  0
    5.3481  -11.0600   26.0769 O   0  0  0  0  0  0  0  0  0  0  0  0
    6.3411  -12.0342   26.0337 C   0  0  0  0  0  0  0  0  0  0  0  0
    5.9403  -13.3514   25.9739 C   0  0  0  0  0  0  0  0  0  0  0  0
    6.9130  -14.3436   25.9298 C   0  0  0  0  0  0  0  0  0  0  0  0
    8.2566  -14.0557   25.9438 C   0  0  0  0  0  0  0  0  0  0  0  0
    9.2698  -15.1574   25.8947 C   0  0  0  0  0  0  0  0  0  0  0  0
    9.7943  -15.3458   24.4854 C   0  0  2  0  0  0  0  0  0  0  0  0
    8.7800  -15.9903   23.6758 N   0  0  0  0  0  0  0  0  0  0  0  0
   10.9941  -16.2424   24.6086 C   0  0  0  0  0  0  0  0  0  0  0  0
   10.9286  -17.4118   24.1305 O   0  0  0  0  0  0  0  0  0  0  0  0
    8.6332  -12.7281   26.0041 C   0  0  0  0  0  0  0  0  0  0  0  0
    7.6813  -11.7237   26.0487 C   0  0  0  0  0  0  0  0  0  0  0  0
   12.1538  -15.8470   25.2158 O   0  0  0  0  0  0  0  0  0  0  0  0
  2 12  2  0
  2  1  1  0
  3  2  1  0
  4  5  1  0
  4  3  2  0
  5 11  2  0
  6  5  1  0
  7  6  1  0
  7  8  1  6
  9  7  1  0
 10  9  2  0
 11 12  1  0
 13 14  1  0
 15 14  1  1
 15 16  1  0
 16  9  1  0
 17 15  1  0
 17 18  2  0
 20 19  1  0
 21 20  2  0
 22 21  1  0
 23 29  1  0
 23 22  2  0
 24 23  1  0
 25 26  1  0
 25 24  1  1
 26 17  1  0
 27 25  1  0
 28 27  2  0
 29 30  2  0
 30 20  1  0
 31 27  1  0
M  END
$$$$
