YSY.pdb
     RDKit          3D

 31 32  0  0  1  0  0  0  0  0999 V2000
    7.6840  -12.0218   17.5121 O   0  0  0  0  0  0  0  0  0  0  0  0
    7.7129  -12.7704   18.6778 C   0  0  0  0  0  0  0  0  0  0  0  0
    6.5101  -13.2282   19.1772 C   0  0  0  0  0  0  0  0  0  0  0  0
    6.4930  -13.9764   20.3341 C   0  0  0  0  0  0  0  0  0  0  0  0
    7.6619  -14.2915   21.0274 C   0  0  0  0  0  0  0  0  0  0  0  0
    7.6320  -15.0981   22.2725 C   0  0  0  0  0  0  0  0  0  0  0  0
    8.2185  -16.4656   21.9707 C   0  0  2  0  0  0  0  0  0  0  0  0
    7.2777  -17.1547   21.1114 N   0  0  0  0  0  0  0  0  0  0  0  0
    8.4737  -17.2279   23.2231 C   0  0  0  0  0  0  0  0  0  0  0  0
    7.5690  -17.8684   23.8145 O   0  0  0  0  0  0  0  0  0  0  0  0
    8.8313  -13.8058   20.4789 C   0  0  0  0  0  0  0  0  0  0  0  0
    8.8808  -13.0637   19.3369 C   0  0  0  0  0  0  0  0  0  0  0  0
   12.0958  -18.1904   24.1127 O   0  0  0  0  0  0  0  0  0  0  0  0
   11.1762  -18.7184   25.0436 C   0  0  0  0  0  0  0  0  0  0  0  0
   10.0536  -17.7048   25.1359 C   0  0  2  0  0  0  0  0  0  0  0  0
    9.7664  -17.2559   23.7976 N   0  0  0  0  0  0  0  0  0  0  0  0
   10.5111  -16.6107   26.0220 C   0  0  0  0  0  0  0  0  0  0  0  0
   11.3063  -15.7159   25.6466 O   0  0  0  0  0  0  0  0  0  0  0  0
    6.7894  -11.9406   24.6534 O   0  0  0  0  0  0  0  0  0  0  0  0
    7.4516  -12.6325   25.6632 C   0  0  0  0  0  0  0  0  0  0  0  0
    6.6821  -13.2271   26.6398 C   0  0  0  0  0  0  0  0  0  0  0  0
    7.3197  -13.9242   27.6596 C   0  0  0  0  0  0  0  0  0  0  0  0
    8.6873  -14.0399   27.7262 C   0  0  0  0  0  0  0  0  0  0  0  0
    9.3315  -14.8009   28.8436 C   0  0  0  0  0  0  0  0  0  0  0  0
   10.4994  -15.6218   28.3346 C   0  0  2  0  0  0  0  0  0  0  0  0
   10.0256  -16.5773   27.3536 N   0  0  0  0  0  0  0  0  0  0  0  0
   11.0455  -16.3481   29.5315 C   0  0  0  0  0  0  0  0  0  0  0  0
   11.5738  -15.6724   30.4615 O   0  0  0  0  0  0  0  0  0  0  0  0
    9.4368  -13.4353   26.7359 C   0  0  0  0  0  0  0  0  0  0  0  0
    8.8227  -12.7360   25.7109 C   0  0  0  0  0  0  0  0  0  0  0  0
   10.9954  -17.7087   29.6575 O   0  0  0  0  0  0  0  0  0  0  0  0
  2 12  2  0
  2  1  1  0
  3  2  1  0
  4  5  1  0
  4  3  2  0
  5 11  2  0
  6  5  1  0
  7  6  1  0
  7  8  1  6
  9  7  1  0
 10  9  2  0
 11 12  1  0
 13 14  1  0
 15 14  1  6
 15 16  1  0
 16  9  1  0
 17 15  1  0
 17 18  2  0
 20 19  1  0
 21 20  2  0
 22 21  1  0
 23 29  1  0
 23 22  2  0
 24 23  1  0
 25 26  1  0
 25 24  1  1
 26 17  1  0
 27 25  1  0
 28 27  2  0
 29 30  2  0
 30 20  1  0
 31 27  1  0
M  END
$$$$
