YSY.pdb
     RDKit          3D

 31 32  0  0  1  0  0  0  0  0999 V2000
    8.5939  -13.5368   16.9566 O   0  0  0  0  0  0  0  0  0  0  0  0
    8.2825  -13.9235   18.2503 C   0  0  0  0  0  0  0  0  0  0  0  0
    7.7531  -12.9695   19.0961 C   0  0  0  0  0  0  0  0  0  0  0  0
    7.4291  -13.3111   20.3910 C   0  0  0  0  0  0  0  0  0  0  0  0
    7.6193  -14.6023   20.8840 C   0  0  0  0  0  0  0  0  0  0  0  0
    7.2667  -14.9593   22.2804 C   0  0  0  0  0  0  0  0  0  0  0  0
    6.9923  -16.4514   22.3379 C   0  0  2  0  0  0  0  0  0  0  0  0
    5.7169  -16.6774   21.6892 N   0  0  0  0  0  0  0  0  0  0  0  0
    6.9847  -16.9416   23.7431 C   0  0  0  0  0  0  0  0  0  0  0  0
    6.0201  -16.7333   24.5208 O   0  0  0  0  0  0  0  0  0  0  0  0
    8.1513  -15.5103   19.9915 C   0  0  0  0  0  0  0  0  0  0  0  0
    8.4817  -15.2032   18.7054 C   0  0  0  0  0  0  0  0  0  0  0  0
    9.5678  -19.6866   24.8317 O   0  0  0  0  0  0  0  0  0  0  0  0
    8.6443  -19.3555   25.8458 C   0  0  0  0  0  0  0  0  0  0  0  0
    8.3353  -17.8839   25.6589 C   0  0  2  0  0  0  0  0  0  0  0  0
    8.0831  -17.6706   24.2567 N   0  0  0  0  0  0  0  0  0  0  0  0
    9.4996  -17.1161   26.1554 C   0  0  0  0  0  0  0  0  0  0  0  0
   10.4993  -16.8561   25.4436 O   0  0  0  0  0  0  0  0  0  0  0  0
    5.6707  -12.4725   25.9890 O   0  0  0  0  0  0  0  0  0  0  0  0
    6.7773  -13.0178   26.6333 C   0  0  0  0  0  0  0  0  0  0  0  0
    6.6780  -13.2461   27.9888 C   0  0  0  0  0  0  0  0  0  0  0  0
    7.7696  -13.7901   28.6557 C   0  0  0  0  0  0  0  0  0  0  0  0
    8.9408  -14.1069   28.0104 C   0  0  0  0  0  0  0  0  0  0  0  0
   10.0918  -14.6916   28.7695 C   0  0  0  0  0  0  0  0  0  0  0  0
   10.5938  -15.9551   28.0998 C   0  0  2  0  0  0  0  0  0  0  0  0
    9.4786  -16.6564   27.4964 N   0  0  0  0  0  0  0  0  0  0  0  0
   11.1907  -16.7930   29.1953 C   0  0  0  0  0  0  0  0  0  0  0  0
   12.2442  -16.3853   29.7647 O   0  0  0  0  0  0  0  0  0  0  0  0
    9.0159  -13.8688   26.6519 C   0  0  0  0  0  0  0  0  0  0  0  0
    7.9408  -13.3276   25.9677 C   0  0  0  0  0  0  0  0  0  0  0  0
   10.6426  -17.9778   29.6024 O   0  0  0  0  0  0  0  0  0  0  0  0
  2 12  2  0
  2  1  1  0
  3  2  1  0
  4  5  1  0
  4  3  2  0
  5 11  2  0
  6  5  1  0
  7  6  1  0
  7  8  1  1
  9  7  1  0
 10  9  2  0
 11 12  1  0
 13 14  1  0
 15 14  1  6
 15 16  1  0
 16  9  1  0
 17 15  1  0
 17 18  2  0
 20 19  1  0
 21 20  2  0
 22 21  1  0
 23 29  1  0
 23 22  2  0
 24 23  1  0
 25 26  1  0
 25 24  1  1
 26 17  1  0
 27 25  1  0
 28 27  2  0
 29 30  2  0
 30 20  1  0
 31 27  1  0
M  END
$$$$
