YSY.pdb
     RDKit          3D

 31 32  0  0  1  0  0  0  0  0999 V2000
   15.9680  -20.3996   23.8692 O   0  0  0  0  0  0  0  0  0  0  0  0
   14.6780  -19.9299   23.6817 C   0  0  0  0  0  0  0  0  0  0  0  0
   13.8838  -19.7697   24.7993 C   0  0  0  0  0  0  0  0  0  0  0  0
   12.5944  -19.3050   24.6583 C   0  0  0  0  0  0  0  0  0  0  0  0
   12.0561  -18.9868   23.4112 C   0  0  0  0  0  0  0  0  0  0  0  0
   10.6660  -18.4870   23.2708 C   0  0  0  0  0  0  0  0  0  0  0  0
   10.6082  -17.5665   22.0649 C   0  0  2  0  0  0  0  0  0  0  0  0
   11.9333  -17.5435   21.4800 N   0  0  0  0  0  0  0  0  0  0  0  0
   10.1589  -16.2018   22.4529 C   0  0  0  0  0  0  0  0  0  0  0  0
   10.9483  -15.3435   22.9205 O   0  0  0  0  0  0  0  0  0  0  0  0
   12.8981  -19.1679   22.3332 C   0  0  0  0  0  0  0  0  0  0  0  0
   14.1775  -19.6255   22.4402 C   0  0  0  0  0  0  0  0  0  0  0  0
    6.2270  -15.4613   22.0295 O   0  0  0  0  0  0  0  0  0  0  0  0
    7.0154  -14.2972   21.9095 C   0  0  0  0  0  0  0  0  0  0  0  0
    8.2624  -14.5561   22.7306 C   0  0  2  0  0  0  0  0  0  0  0  0
    8.8043  -15.8211   22.3049 N   0  0  0  0  0  0  0  0  0  0  0  0
    7.8669  -14.5526   24.1572 C   0  0  0  0  0  0  0  0  0  0  0  0
    7.7252  -15.6028   24.8286 O   0  0  0  0  0  0  0  0  0  0  0  0
   11.6328  -17.1361   28.5303 O   0  0  0  0  0  0  0  0  0  0  0  0
   10.8561  -16.0561   28.1214 C   0  0  0  0  0  0  0  0  0  0  0  0
    9.9136  -15.5771   29.0055 C   0  0  0  0  0  0  0  0  0  0  0  0
    9.1249  -14.4989   28.6210 C   0  0  0  0  0  0  0  0  0  0  0  0
    9.2534  -13.8966   27.3926 C   0  0  0  0  0  0  0  0  0  0  0  0
    8.3818  -12.7369   27.0207 C   0  0  0  0  0  0  0  0  0  0  0  0
    7.2137  -13.1910   26.1685 C   0  0  2  0  0  0  0  0  0  0  0  0
    7.6393  -13.3034   24.7880 N   0  0  0  0  0  0  0  0  0  0  0  0
    6.1696  -12.1175   26.2945 C   0  0  0  0  0  0  0  0  0  0  0  0
    6.0302  -11.2931   25.3451 O   0  0  0  0  0  0  0  0  0  0  0  0
   10.2049  -14.3947   26.5241 C   0  0  0  0  0  0  0  0  0  0  0  0
   11.0012  -15.4677   26.8863 C   0  0  0  0  0  0  0  0  0  0  0  0
    5.3639  -11.9944   27.3924 O   0  0  0  0  0  0  0  0  0  0  0  0
  2 12  2  0
  2  1  1  0
  3  2  1  0
  4  5  1  0
  4  3  2  0
  5 11  2  0
  6  5  1  0
  7  6  1  0
  7  8  1  1
  9  7  1  0
 10  9  2  0
 11 12  1  0
 13 14  1  0
 15 14  1  6
 15 16  1  0
 16  9  1  0
 17 15  1  0
 17 18  2  0
 20 19  1  0
 21 20  2  0
 22 21  1  0
 23 29  1  0
 23 22  2  0
 24 23  1  0
 25 26  1  0
 25 24  1  1
 26 17  1  0
 27 25  1  0
 28 27  2  0
 29 30  2  0
 30 20  1  0
 31 27  1  0
M  END
$$$$
