YSY.pdb
     RDKit          3D

 31 32  0  0  1  0  0  0  0  0999 V2000
   11.9565  -23.7308   21.3303 O   0  0  0  0  0  0  0  0  0  0  0  0
   11.8739  -22.3689   21.5722 C   0  0  0  0  0  0  0  0  0  0  0  0
   10.6172  -21.8190   21.7271 C   0  0  0  0  0  0  0  0  0  0  0  0
   10.4893  -20.4686   21.9692 C   0  0  0  0  0  0  0  0  0  0  0  0
   11.5977  -19.6269   22.0645 C   0  0  0  0  0  0  0  0  0  0  0  0
   11.4484  -18.1739   22.3256 C   0  0  0  0  0  0  0  0  0  0  0  0
   10.5524  -17.5845   21.2510 C   0  0  2  0  0  0  0  0  0  0  0  0
   11.3173  -17.5616   20.0210 N   0  0  0  0  0  0  0  0  0  0  0  0
   10.0858  -16.2228   21.6292 C   0  0  0  0  0  0  0  0  0  0  0  0
   10.8376  -15.2176   21.5764 O   0  0  0  0  0  0  0  0  0  0  0  0
   12.8255  -20.2351   21.9008 C   0  0  0  0  0  0  0  0  0  0  0  0
   12.9846  -21.5672   21.6605 C   0  0  0  0  0  0  0  0  0  0  0  0
    6.1628  -15.6214   21.8868 O   0  0  0  0  0  0  0  0  0  0  0  0
    6.9698  -14.4753   21.7246 C   0  0  0  0  0  0  0  0  0  0  0  0
    8.2357  -14.7464   22.5121 C   0  0  2  0  0  0  0  0  0  0  0  0
    8.7570  -16.0138   22.0680 N   0  0  0  0  0  0  0  0  0  0  0  0
    7.8773  -14.7454   23.9485 C   0  0  0  0  0  0  0  0  0  0  0  0
    7.5824  -15.7891   24.5790 O   0  0  0  0  0  0  0  0  0  0  0  0
   11.4937  -17.0135   29.4511 O   0  0  0  0  0  0  0  0  0  0  0  0
   10.7962  -15.9744   28.8421 C   0  0  0  0  0  0  0  0  0  0  0  0
   10.8323  -15.9021   27.4662 C   0  0  0  0  0  0  0  0  0  0  0  0
   10.1437  -14.8735   26.8337 C   0  0  0  0  0  0  0  0  0  0  0  0
    9.4305  -13.9292   27.5324 C   0  0  0  0  0  0  0  0  0  0  0  0
    8.7034  -12.8381   26.8089 C   0  0  0  0  0  0  0  0  0  0  0  0
    7.5217  -13.3945   26.0401 C   0  0  2  0  0  0  0  0  0  0  0  0
    7.8687  -13.5064   24.6377 N   0  0  0  0  0  0  0  0  0  0  0  0
    6.4111  -12.3970   26.2126 C   0  0  0  0  0  0  0  0  0  0  0  0
    5.8239  -12.3309   27.3312 O   0  0  0  0  0  0  0  0  0  0  0  0
    9.4095  -14.0229   28.9103 C   0  0  0  0  0  0  0  0  0  0  0  0
   10.0882  -15.0392   29.5609 C   0  0  0  0  0  0  0  0  0  0  0  0
    6.0085  -11.5576   25.2110 O   0  0  0  0  0  0  0  0  0  0  0  0
  2 12  2  0
  2  1  1  0
  3  2  1  0
  4  5  1  0
  4  3  2  0
  5 11  2  0
  6  5  1  0
  7  6  1  0
  7  8  1  6
  9  7  1  0
 10  9  2  0
 11 12  1  0
 13 14  1  0
 15 14  1  6
 15 16  1  0
 16  9  1  0
 17 15  1  0
 17 18  2  0
 20 19  1  0
 21 20  2  0
 22 21  1  0
 23 29  1  0
 23 22  2  0
 24 23  1  0
 25 26  1  0
 25 24  1  1
 26 17  1  0
 27 25  1  0
 28 27  2  0
 29 30  2  0
 30 20  1  0
 31 27  1  0
M  END
$$$$
