FWA.pdb
     RDKit          3D

 31 33  0  0  1  0  0  0  0  0999 V2000
   31.3849  -23.8053  -17.4614 N   0  0  0  0  0  0  0  0  0  0  0  0
   30.2030  -24.5563  -17.7487 C   0  0  1  0  0  0  0  0  0  0  0  0
   29.9569  -25.6058  -16.6834 C   0  0  0  0  0  0  0  0  0  0  0  0
   30.9571  -26.7140  -16.7874 C   0  0  0  0  0  0  0  0  0  0  0  0
   30.6862  -27.7768  -17.6134 C   0  0  0  0  0  0  0  0  0  0  0  0
   31.6043  -28.8010  -17.7138 C   0  0  0  0  0  0  0  0  0  0  0  0
   32.7770  -28.7702  -17.0027 C   0  0  0  0  0  0  0  0  0  0  0  0
   33.0287  -27.6942  -16.1797 C   0  0  0  0  0  0  0  0  0  0  0  0
   32.1305  -26.6571  -16.0595 C   0  0  0  0  0  0  0  0  0  0  0  0
   29.0075  -23.6791  -17.8276 C   0  0  0  0  0  0  0  0  0  0  0  0
   28.8989  -22.6529  -17.1191 O   0  0  0  0  0  0  0  0  0  0  0  0
   27.9587  -24.0077  -18.7274 N   0  0  0  0  0  0  0  0  0  0  0  0
   26.8036  -23.1866  -18.9794 C   0  0  1  0  0  0  0  0  0  0  0  0
   26.4959  -23.0737  -20.4563 C   0  0  0  0  0  0  0  0  0  0  0  0
   25.4161  -22.1049  -20.7188 C   0  0  0  0  0  0  0  0  0  0  0  0
   25.3105  -20.7828  -20.3412 C   0  0  0  0  0  0  0  0  0  0  0  0
   24.1450  -20.2828  -20.8018 N   0  0  0  0  0  0  0  0  0  0  0  0
   23.4604  -21.2123  -21.4742 C   0  0  0  0  0  0  0  0  0  0  0  0
   22.2492  -21.2043  -22.1209 C   0  0  0  0  0  0  0  0  0  0  0  0
   21.8180  -22.3553  -22.7302 C   0  0  0  0  0  0  0  0  0  0  0  0
   22.5837  -23.4979  -22.6951 C   0  0  0  0  0  0  0  0  0  0  0  0
   23.8011  -23.5069  -22.0453 C   0  0  0  0  0  0  0  0  0  0  0  0
   24.2553  -22.3631  -21.4260 C   0  0  0  0  0  0  0  0  0  0  0  0
   25.6022  -23.7169  -18.3119 C   0  0  0  0  0  0  0  0  0  0  0  0
   25.3560  -24.9361  -18.3598 O   0  0  0  0  0  0  0  0  0  0  0  0
   23.0778  -22.2868  -15.9861 C   0  0  0  0  0  0  0  0  0  0  0  0
   23.5394  -23.3212  -16.9617 C   0  0  2  0  0  0  0  0  0  0  0  0
   24.7414  -22.8419  -17.6251 N   0  0  0  0  0  0  0  0  0  0  0  0
   22.5134  -23.6378  -17.9886 C   0  0  0  0  0  0  0  0  0  0  0  0
   22.4478  -22.9670  -19.0501 O   0  0  0  0  0  0  0  0  0  0  0  0
   21.5988  -24.6669  -17.8280 O   0  0  0  0  0  0  0  0  0  0  0  0
  2  1  1  1
  2  3  1  0
  2 10  1  0
  3  4  1  0
  4  5  2  0
  4  9  1  0
  5  6  1  0
  6  7  2  0
  8  7  1  0
  9  8  2  0
 10 11  2  0
 12 10  1  0
 12 13  1  0
 13 14  1  6
 14 15  1  0
 15 16  2  0
 16 17  1  0
 18 17  1  0
 19 18  2  0
 20 19  1  0
 21 22  1  0
 21 20  2  0
 22 23  2  0
 23 15  1  0
 23 18  1  0
 24 13  1  0
 24 25  2  0
 27 26  1  1
 27 29  1  0
 27 28  1  0
 28 24  1  0
 29 31  1  0
 30 29  2  0
M  END
$$$$
