FWA.pdb
     RDKit          3D

 31 33  0  0  1  0  0  0  0  0999 V2000
   26.0065  -21.6665  -14.1324 N   0  0  0  0  0  0  0  0  0  0  0  0
   25.4233  -20.6673  -13.2929 C   0  0  1  0  0  0  0  0  0  0  0  0
   24.0536  -20.2652  -13.8022 C   0  0  0  0  0  0  0  0  0  0  0  0
   24.1576  -19.5983  -15.1378 C   0  0  0  0  0  0  0  0  0  0  0  0
   24.5500  -18.2836  -15.1940 C   0  0  0  0  0  0  0  0  0  0  0  0
   24.6480  -17.6636  -16.4219 C   0  0  0  0  0  0  0  0  0  0  0  0
   24.3599  -18.3405  -17.5798 C   0  0  0  0  0  0  0  0  0  0  0  0
   23.9679  -19.6590  -17.5003 C   0  0  0  0  0  0  0  0  0  0  0  0
   23.8612  -20.3042  -16.2883 C   0  0  0  0  0  0  0  0  0  0  0  0
   25.2813  -21.1473  -11.8950 C   0  0  0  0  0  0  0  0  0  0  0  0
   24.8194  -22.2812  -11.6344 O   0  0  0  0  0  0  0  0  0  0  0  0
   25.6777  -20.3034  -10.8234 N   0  0  0  0  0  0  0  0  0  0  0  0
   25.6408  -20.6687   -9.4316 C   0  0  1  0  0  0  0  0  0  0  0  0
   26.5697  -19.8175   -8.5942 C   0  0  0  0  0  0  0  0  0  0  0  0
   26.6525  -20.3013   -7.2040 C   0  0  0  0  0  0  0  0  0  0  0  0
   25.9184  -21.2809   -6.5691 C   0  0  0  0  0  0  0  0  0  0  0  0
   26.3359  -21.3879   -5.2905 N   0  0  0  0  0  0  0  0  0  0  0  0
   27.3207  -20.5215   -5.0367 C   0  0  0  0  0  0  0  0  0  0  0  0
   28.0638  -20.2441   -3.9159 C   0  0  0  0  0  0  0  0  0  0  0  0
   29.0260  -19.2689   -3.9860 C   0  0  0  0  0  0  0  0  0  0  0  0
   29.2441  -18.5801   -5.1570 C   0  0  0  0  0  0  0  0  0  0  0  0
   28.4976  -18.8582   -6.2838 C   0  0  0  0  0  0  0  0  0  0  0  0
   27.5255  -19.8334   -6.2379 C   0  0  0  0  0  0  0  0  0  0  0  0
   24.2855  -20.5368   -8.8695 C   0  0  0  0  0  0  0  0  0  0  0  0
   23.7582  -19.4124   -8.7853 O   0  0  0  0  0  0  0  0  0  0  0  0
   21.4749  -22.7998   -8.3248 C   0  0  0  0  0  0  0  0  0  0  0  0
   22.2510  -21.5995   -7.8867 C   0  0  2  0  0  0  0  0  0  0  0  0
   23.5966  -21.6822   -8.4317 N   0  0  0  0  0  0  0  0  0  0  0  0
   22.3341  -21.4802   -6.4080 C   0  0  0  0  0  0  0  0  0  0  0  0
   23.4404  -21.5967   -5.8218 O   0  0  0  0  0  0  0  0  0  0  0  0
   21.2186  -21.2396   -5.6213 O   0  0  0  0  0  0  0  0  0  0  0  0
  2  1  1  6
  2  3  1  0
  2 10  1  0
  3  4  1  0
  4  5  2  0
  4  9  1  0
  5  6  1  0
  6  7  2  0
  8  7  1  0
  9  8  2  0
 10 11  2  0
 12 10  1  0
 12 13  1  0
 13 14  1  1
 14 15  1  0
 15 16  2  0
 16 17  1  0
 18 17  1  0
 19 18  2  0
 20 19  1  0
 21 22  1  0
 21 20  2  0
 22 23  2  0
 23 15  1  0
 23 18  1  0
 24 13  1  0
 24 25  2  0
 27 26  1  1
 27 29  1  0
 27 28  1  0
 28 24  1  0
 29 31  1  0
 30 29  2  0
M  END
$$$$
