FWA.pdb
     RDKit          3D

 31 33  0  0  1  0  0  0  0  0999 V2000
   16.9081  -18.9596    2.3755 N   0  0  0  0  0  0  0  0  0  0  0  0
   16.8264  -19.1542    3.7893 C   0  0  1  0  0  0  0  0  0  0  0  0
   16.8981  -20.6276    4.1374 C   0  0  0  0  0  0  0  0  0  0  0  0
   15.6992  -21.3561    3.6164 C   0  0  0  0  0  0  0  0  0  0  0  0
   14.4954  -21.1962    4.2574 C   0  0  0  0  0  0  0  0  0  0  0  0
   13.3869  -21.8646    3.7819 C   0  0  0  0  0  0  0  0  0  0  0  0
   13.4724  -22.6817    2.6834 C   0  0  0  0  0  0  0  0  0  0  0  0
   14.6901  -22.8279    2.0554 C   0  0  0  0  0  0  0  0  0  0  0  0
   15.8140  -22.1730    2.5077 C   0  0  0  0  0  0  0  0  0  0  0  0
   17.9248  -18.4510    4.4991 C   0  0  0  0  0  0  0  0  0  0  0  0
   19.0674  -18.3456    3.9988 O   0  0  0  0  0  0  0  0  0  0  0  0
   17.6784  -17.8819    5.7770 N   0  0  0  0  0  0  0  0  0  0  0  0
   18.6111  -17.0638    6.5068 C   0  0  1  0  0  0  0  0  0  0  0  0
   17.9543  -15.8311    7.0882 C   0  0  0  0  0  0  0  0  0  0  0  0
   17.9985  -14.6932    6.1518 C   0  0  0  0  0  0  0  0  0  0  0  0
   17.1081  -14.3347    5.1617 C   0  0  0  0  0  0  0  0  0  0  0  0
   17.5535  -13.2179    4.5493 N   0  0  0  0  0  0  0  0  0  0  0  0
   18.7069  -12.8086    5.0850 C   0  0  0  0  0  0  0  0  0  0  0  0
   19.5428  -11.7511    4.8230 C   0  0  0  0  0  0  0  0  0  0  0  0
   20.6814  -11.6072    5.5744 C   0  0  0  0  0  0  0  0  0  0  0  0
   20.9823  -12.5049    6.5728 C   0  0  0  0  0  0  0  0  0  0  0  0
   20.1428  -13.5679    6.8367 C   0  0  0  0  0  0  0  0  0  0  0  0
   18.9934  -13.7334    6.0954 C   0  0  0  0  0  0  0  0  0  0  0  0
   19.2328  -17.8049    7.6178 C   0  0  0  0  0  0  0  0  0  0  0  0
   18.5625  -18.6359    8.2579 O   0  0  0  0  0  0  0  0  0  0  0  0
   22.7273  -18.0823    8.8886 C   0  0  0  0  0  0  0  0  0  0  0  0
   21.2572  -18.3386    8.9786 C   0  0  2  0  0  0  0  0  0  0  0  0
   20.5795  -17.5686    7.9478 N   0  0  0  0  0  0  0  0  0  0  0  0
   20.6928  -17.9750   10.3040 C   0  0  0  0  0  0  0  0  0  0  0  0
   20.2648  -16.8118   10.5156 O   0  0  0  0  0  0  0  0  0  0  0  0
   20.6131  -18.8828   11.3484 O   0  0  0  0  0  0  0  0  0  0  0  0
  2  1  1  6
  2  3  1  0
  2 10  1  0
  3  4  1  0
  4  5  2  0
  4  9  1  0
  5  6  1  0
  6  7  2  0
  8  7  1  0
  9  8  2  0
 10 11  2  0
 12 10  1  0
 12 13  1  0
 13 14  1  1
 14 15  1  0
 15 16  2  0
 16 17  1  0
 18 17  1  0
 19 18  2  0
 20 19  1  0
 21 22  1  0
 21 20  2  0
 22 23  2  0
 23 15  1  0
 23 18  1  0
 24 13  1  0
 24 25  2  0
 27 26  1  1
 27 29  1  0
 27 28  1  0
 28 24  1  0
 29 31  1  0
 30 29  2  0
M  END
$$$$
