FWA.pdb
     RDKit          3D

 31 33  0  0  1  0  0  0  0  0999 V2000
   25.3595  -21.1976  -14.1371 N   0  0  0  0  0  0  0  0  0  0  0  0
   24.7446  -20.4345  -13.0965 C   0  0  1  0  0  0  0  0  0  0  0  0
   23.2383  -20.4085  -13.2627 C   0  0  0  0  0  0  0  0  0  0  0  0
   22.8550  -19.7102  -14.5294 C   0  0  0  0  0  0  0  0  0  0  0  0
   23.0406  -18.3527  -14.6209 C   0  0  0  0  0  0  0  0  0  0  0  0
   22.6896  -17.7035  -15.7858 C   0  0  0  0  0  0  0  0  0  0  0  0
   22.1608  -18.3935  -16.8469 C   0  0  0  0  0  0  0  0  0  0  0  0
   21.9830  -19.7551  -16.7337 C   0  0  0  0  0  0  0  0  0  0  0  0
   22.3243  -20.4302  -15.5829 C   0  0  0  0  0  0  0  0  0  0  0  0
   25.0588  -20.9909  -11.7562 C   0  0  0  0  0  0  0  0  0  0  0  0
   24.9309  -22.2108  -11.5059 O   0  0  0  0  0  0  0  0  0  0  0  0
   25.5161  -20.1225  -10.7293 N   0  0  0  0  0  0  0  0  0  0  0  0
   25.7808  -20.5214   -9.3719 C   0  0  1  0  0  0  0  0  0  0  0  0
   26.6542  -19.5230   -8.6446 C   0  0  0  0  0  0  0  0  0  0  0  0
   27.6732  -20.1895   -7.8132 C   0  0  0  0  0  0  0  0  0  0  0  0
   28.4135  -21.3240   -8.0714 C   0  0  0  0  0  0  0  0  0  0  0  0
   29.2271  -21.5692   -7.0234 N   0  0  0  0  0  0  0  0  0  0  0  0
   29.0665  -20.6478   -6.0695 C   0  0  0  0  0  0  0  0  0  0  0  0
   29.6451  -20.4570   -4.8389 C   0  0  0  0  0  0  0  0  0  0  0  0
   29.2487  -19.3839   -4.0818 C   0  0  0  0  0  0  0  0  0  0  0  0
   28.2892  -18.5135   -4.5451 C   0  0  0  0  0  0  0  0  0  0  0  0
   27.7072  -18.7044   -5.7818 C   0  0  0  0  0  0  0  0  0  0  0  0
   28.0889  -19.7750   -6.5603 C   0  0  0  0  0  0  0  0  0  0  0  0
   24.5375  -20.6753   -8.5970 C   0  0  0  0  0  0  0  0  0  0  0  0
   23.6686  -19.7850   -8.6396 O   0  0  0  0  0  0  0  0  0  0  0  0
   22.7845  -23.4798   -7.0334 C   0  0  0  0  0  0  0  0  0  0  0  0
   23.1244  -22.0240   -7.0416 C   0  0  2  0  0  0  0  0  0  0  0  0
   24.3406  -21.8271   -7.8142 N   0  0  0  0  0  0  0  0  0  0  0  0
   23.3246  -21.4752   -5.6755 C   0  0  0  0  0  0  0  0  0  0  0  0
   24.4720  -21.1375   -5.2877 O   0  0  0  0  0  0  0  0  0  0  0  0
   22.2769  -21.3128   -4.7826 O   0  0  0  0  0  0  0  0  0  0  0  0
  2  1  1  6
  2  3  1  0
  2 10  1  0
  3  4  1  0
  4  5  2  0
  4  9  1  0
  5  6  1  0
  6  7  2  0
  8  7  1  0
  9  8  2  0
 10 11  2  0
 12 10  1  0
 12 13  1  0
 13 14  1  1
 14 15  1  0
 15 16  2  0
 16 17  1  0
 18 17  1  0
 19 18  2  0
 20 19  1  0
 21 22  1  0
 21 20  2  0
 22 23  2  0
 23 15  1  0
 23 18  1  0
 24 13  1  0
 24 25  2  0
 27 26  1  1
 27 29  1  0
 27 28  1  0
 28 24  1  0
 29 31  1  0
 30 29  2  0
M  END
$$$$
