FWA.pdb
     RDKit          3D

 31 33  0  0  1  0  0  0  0  0999 V2000
   28.0202  -22.2427  -17.0255 N   0  0  0  0  0  0  0  0  0  0  0  0
   26.9814  -21.3018  -16.7447 C   0  0  1  0  0  0  0  0  0  0  0  0
   25.9938  -21.2283  -17.8921 C   0  0  0  0  0  0  0  0  0  0  0  0
   26.4918  -20.3108  -18.9643 C   0  0  0  0  0  0  0  0  0  0  0  0
   26.2537  -18.9635  -18.8479 C   0  0  0  0  0  0  0  0  0  0  0  0
   26.7103  -18.1129  -19.8327 C   0  0  0  0  0  0  0  0  0  0  0  0
   27.3949  -18.5941  -20.9197 C   0  0  0  0  0  0  0  0  0  0  0  0
   27.6228  -19.9495  -21.0166 C   0  0  0  0  0  0  0  0  0  0  0  0
   27.1787  -20.8228  -20.0487 C   0  0  0  0  0  0  0  0  0  0  0  0
   26.2397  -21.6635  -15.5103 C   0  0  0  0  0  0  0  0  0  0  0  0
   26.0663  -22.8570  -15.1750 O   0  0  0  0  0  0  0  0  0  0  0  0
   25.7119  -20.6340  -14.6860 N   0  0  0  0  0  0  0  0  0  0  0  0
   25.0664  -20.8460  -13.4171 C   0  0  1  0  0  0  0  0  0  0  0  0
   25.5703  -19.8934  -12.3553 C   0  0  0  0  0  0  0  0  0  0  0  0
   26.8960  -20.2907  -11.8469 C   0  0  0  0  0  0  0  0  0  0  0  0
   28.0720  -20.5072  -12.5338 C   0  0  0  0  0  0  0  0  0  0  0  0
   29.0371  -20.8585  -11.6588 N   0  0  0  0  0  0  0  0  0  0  0  0
   28.5612  -20.8880  -10.4109 C   0  0  0  0  0  0  0  0  0  0  0  0
   29.1281  -21.1792   -9.1946 C   0  0  0  0  0  0  0  0  0  0  0  0
   28.3462  -21.1159   -8.0693 C   0  0  0  0  0  0  0  0  0  0  0  0
   27.0180  -20.7673   -8.1554 C   0  0  0  0  0  0  0  0  0  0  0  0
   26.4474  -20.4746   -9.3774 C   0  0  0  0  0  0  0  0  0  0  0  0
   27.2126  -20.5313  -10.5217 C   0  0  0  0  0  0  0  0  0  0  0  0
   23.6063  -20.6759  -13.5134 C   0  0  0  0  0  0  0  0  0  0  0  0
   23.1369  -19.6399  -14.0192 O   0  0  0  0  0  0  0  0  0  0  0  0
   20.6822  -22.8974  -12.9518 C   0  0  0  0  0  0  0  0  0  0  0  0
   21.3059  -21.5448  -13.0800 C   0  0  2  0  0  0  0  0  0  0  0  0
   22.7525  -21.6852  -13.0332 N   0  0  0  0  0  0  0  0  0  0  0  0
   20.8752  -20.6118  -12.0069 C   0  0  0  0  0  0  0  0  0  0  0  0
   21.6369  -20.3614  -11.0384 O   0  0  0  0  0  0  0  0  0  0  0  0
   19.6384  -19.9863  -12.0228 O   0  0  0  0  0  0  0  0  0  0  0  0
  2  1  1  6
  2  3  1  0
  2 10  1  0
  3  4  1  0
  4  5  2  0
  4  9  1  0
  5  6  1  0
  6  7  2  0
  8  7  1  0
  9  8  2  0
 10 11  2  0
 12 10  1  0
 12 13  1  0
 13 14  1  1
 14 15  1  0
 15 16  2  0
 16 17  1  0
 18 17  1  0
 19 18  2  0
 20 19  1  0
 21 22  1  0
 21 20  2  0
 22 23  2  0
 23 15  1  0
 23 18  1  0
 24 13  1  0
 24 25  2  0
 27 26  1  1
 27 29  1  0
 27 28  1  0
 28 24  1  0
 29 31  1  0
 30 29  2  0
M  END
$$$$
