FWA.pdb
     RDKit          3D

 31 33  0  0  1  0  0  0  0  0999 V2000
   28.7892  -26.3757  -16.4520 N   0  0  0  0  0  0  0  0  0  0  0  0
   27.6354  -26.8457  -17.1527 C   0  0  1  0  0  0  0  0  0  0  0  0
   27.3081  -28.2725  -16.7599 C   0  0  0  0  0  0  0  0  0  0  0  0
   28.1678  -29.2411  -17.5097 C   0  0  0  0  0  0  0  0  0  0  0  0
   29.3031  -29.7247  -16.9074 C   0  0  0  0  0  0  0  0  0  0  0  0
   30.0992  -30.6178  -17.5932 C   0  0  0  0  0  0  0  0  0  0  0  0
   29.7722  -31.0258  -18.8614 C   0  0  0  0  0  0  0  0  0  0  0  0
   28.6286  -30.5280  -19.4470 C   0  0  0  0  0  0  0  0  0  0  0  0
   27.8144  -29.6350  -18.7863 C   0  0  0  0  0  0  0  0  0  0  0  0
   26.4480  -25.9988  -16.8742 C   0  0  0  0  0  0  0  0  0  0  0  0
   26.3438  -25.3438  -15.8126 O   0  0  0  0  0  0  0  0  0  0  0  0
   25.4019  -25.9263  -17.8325 N   0  0  0  0  0  0  0  0  0  0  0  0
   24.2502  -25.0691  -17.7297 C   0  0  1  0  0  0  0  0  0  0  0  0
   23.9175  -24.4016  -19.0460 C   0  0  0  0  0  0  0  0  0  0  0  0
   22.8611  -23.3846  -18.8932 C   0  0  0  0  0  0  0  0  0  0  0  0
   22.7415  -22.3746  -17.9619 C   0  0  0  0  0  0  0  0  0  0  0  0
   21.6084  -21.6827  -18.2027 N   0  0  0  0  0  0  0  0  0  0  0  0
   20.9591  -22.1838  -19.2572 C   0  0  0  0  0  0  0  0  0  0  0  0
   19.7884  -21.8443  -19.8894 C   0  0  0  0  0  0  0  0  0  0  0  0
   19.3870  -22.5794  -20.9758 C   0  0  0  0  0  0  0  0  0  0  0  0
   20.1421  -23.6381  -21.4254 C   0  0  0  0  0  0  0  0  0  0  0  0
   21.3189  -23.9799  -20.7907 C   0  0  0  0  0  0  0  0  0  0  0  0
   21.7426  -23.2565  -19.6975 C   0  0  0  0  0  0  0  0  0  0  0  0
   23.0559  -25.8114  -17.2908 C   0  0  0  0  0  0  0  0  0  0  0  0
   22.7774  -26.9028  -17.8205 O   0  0  0  0  0  0  0  0  0  0  0  0
   20.9701  -25.8169  -14.3095 C   0  0  0  0  0  0  0  0  0  0  0  0
   21.0686  -25.9962  -15.7904 C   0  0  2  0  0  0  0  0  0  0  0  0
   22.2385  -25.2819  -16.2760 N   0  0  0  0  0  0  0  0  0  0  0  0
   19.8661  -25.5000  -16.5083 C   0  0  0  0  0  0  0  0  0  0  0  0
   19.7408  -24.2764  -16.7690 O   0  0  0  0  0  0  0  0  0  0  0  0
   18.8466  -26.3458  -16.9163 O   0  0  0  0  0  0  0  0  0  0  0  0
  2  1  1  1
  2  3  1  0
  2 10  1  0
  3  4  1  0
  4  5  2  0
  4  9  1  0
  5  6  1  0
  6  7  2  0
  8  7  1  0
  9  8  2  0
 10 11  2  0
 12 10  1  0
 12 13  1  0
 13 14  1  6
 14 15  1  0
 15 16  2  0
 16 17  1  0
 18 17  1  0
 19 18  2  0
 20 19  1  0
 21 22  1  0
 21 20  2  0
 22 23  2  0
 23 15  1  0
 23 18  1  0
 24 13  1  0
 24 25  2  0
 27 26  1  1
 27 29  1  0
 27 28  1  0
 28 24  1  0
 29 31  1  0
 30 29  2  0
M  END
$$$$
