FWA.pdb
     RDKit          3D

 31 33  0  0  1  0  0  0  0  0999 V2000
   27.1391  -18.1446   -8.0800 N   0  0  0  0  0  0  0  0  0  0  0  0
   26.9967  -19.5323   -8.3916 C   0  0  1  0  0  0  0  0  0  0  0  0
   26.5450  -20.3160   -7.1754 C   0  0  0  0  0  0  0  0  0  0  0  0
   27.5486  -20.2086   -6.0706 C   0  0  0  0  0  0  0  0  0  0  0  0
   28.7851  -20.7812   -6.2396 C   0  0  0  0  0  0  0  0  0  0  0  0
   29.7144  -20.6853   -5.2252 C   0  0  0  0  0  0  0  0  0  0  0  0
   29.4196  -20.0289   -4.0573 C   0  0  0  0  0  0  0  0  0  0  0  0
   28.1728  -19.4615   -3.9087 C   0  0  0  0  0  0  0  0  0  0  0  0
   27.2248  -19.5413   -4.9045 C   0  0  0  0  0  0  0  0  0  0  0  0
   26.0099  -19.7465   -9.4802 C   0  0  0  0  0  0  0  0  0  0  0  0
   24.9059  -19.1566   -9.4902 O   0  0  0  0  0  0  0  0  0  0  0  0
   26.3211  -20.6412  -10.5386 N   0  0  0  0  0  0  0  0  0  0  0  0
   25.5562  -20.7802  -11.7500 C   0  0  1  0  0  0  0  0  0  0  0  0
   26.1621  -21.7963  -12.6930 C   0  0  0  0  0  0  0  0  0  0  0  0
   25.4132  -21.8830  -13.9600 C   0  0  0  0  0  0  0  0  0  0  0  0
   25.0841  -20.8881  -14.8563 C   0  0  0  0  0  0  0  0  0  0  0  0
   24.3886  -21.4266  -15.8794 N   0  0  0  0  0  0  0  0  0  0  0  0
   24.2349  -22.7429  -15.7104 C   0  0  0  0  0  0  0  0  0  0  0  0
   23.6186  -23.7208  -16.4517 C   0  0  0  0  0  0  0  0  0  0  0  0
   23.6398  -25.0121  -15.9894 C   0  0  0  0  0  0  0  0  0  0  0  0
   24.2664  -25.3240  -14.8048 C   0  0  0  0  0  0  0  0  0  0  0  0
   24.8860  -24.3418  -14.0592 C   0  0  0  0  0  0  0  0  0  0  0  0
   24.8781  -23.0376  -14.5031 C   0  0  0  0  0  0  0  0  0  0  0  0
   24.1704  -21.1969  -11.4745 C   0  0  0  0  0  0  0  0  0  0  0  0
   23.9495  -22.0989  -10.6456 O   0  0  0  0  0  0  0  0  0  0  0  0
   20.9084  -19.6080  -12.1222 C   0  0  0  0  0  0  0  0  0  0  0  0
   21.7216  -20.8139  -11.7768 C   0  0  2  0  0  0  0  0  0  0  0  0
   23.1062  -20.5727  -12.1500 N   0  0  0  0  0  0  0  0  0  0  0  0
   21.2427  -22.0425  -12.4613 C   0  0  0  0  0  0  0  0  0  0  0  0
   20.1066  -22.5140  -12.2006 O   0  0  0  0  0  0  0  0  0  0  0  0
   22.0104  -22.7131  -13.4005 O   0  0  0  0  0  0  0  0  0  0  0  0
  2  1  1  1
  2  3  1  0
  2 10  1  0
  3  4  1  0
  4  5  2  0
  4  9  1  0
  5  6  1  0
  6  7  2  0
  8  7  1  0
  9  8  2  0
 10 11  2  0
 12 10  1  0
 12 13  1  0
 13 14  1  6
 14 15  1  0
 15 16  2  0
 16 17  1  0
 18 17  1  0
 19 18  2  0
 20 19  1  0
 21 22  1  0
 21 20  2  0
 22 23  2  0
 23 15  1  0
 23 18  1  0
 24 13  1  0
 24 25  2  0
 27 26  1  6
 27 29  1  0
 27 28  1  0
 28 24  1  0
 29 31  1  0
 30 29  2  0
M  END
$$$$
