FWA.pdb
     RDKit          3D

 31 33  0  0  1  0  0  0  0  0999 V2000
   25.9358  -10.4173  -20.4591 N   0  0  0  0  0  0  0  0  0  0  0  0
   25.9245   -9.3514  -19.5067 C   0  0  1  0  0  0  0  0  0  0  0  0
   25.7115   -8.0163  -20.1919 C   0  0  0  0  0  0  0  0  0  0  0  0
   26.8201   -7.7302  -21.1554 C   0  0  0  0  0  0  0  0  0  0  0  0
   26.5486   -7.7415  -22.5014 C   0  0  0  0  0  0  0  0  0  0  0  0
   27.5660   -7.4783  -23.3944 C   0  0  0  0  0  0  0  0  0  0  0  0
   28.8374   -7.2072  -22.9564 C   0  0  0  0  0  0  0  0  0  0  0  0
   29.0878   -7.2010  -21.6015 C   0  0  0  0  0  0  0  0  0  0  0  0
   28.0917   -7.4602  -20.6864 C   0  0  0  0  0  0  0  0  0  0  0  0
   24.8518   -9.5363  -18.4968 C   0  0  0  0  0  0  0  0  0  0  0  0
   23.7450  -10.0366  -18.7995 O   0  0  0  0  0  0  0  0  0  0  0  0
   25.0819   -9.1377  -17.1530 N   0  0  0  0  0  0  0  0  0  0  0  0
   24.1582   -9.3350  -16.0669 C   0  0  1  0  0  0  0  0  0  0  0  0
   24.8674   -9.5608  -14.7497 C   0  0  0  0  0  0  0  0  0  0  0  0
   25.5325  -10.8758  -14.7036 C   0  0  0  0  0  0  0  0  0  0  0  0
   26.8749  -11.1791  -14.6162 C   0  0  0  0  0  0  0  0  0  0  0  0
   27.0256  -12.5199  -14.6049 N   0  0  0  0  0  0  0  0  0  0  0  0
   25.8412  -13.1332  -14.6811 C   0  0  0  0  0  0  0  0  0  0  0  0
   25.4655  -14.4538  -14.7040 C   0  0  0  0  0  0  0  0  0  0  0  0
   24.1310  -14.7595  -14.7902 C   0  0  0  0  0  0  0  0  0  0  0  0
   23.1846  -13.7627  -14.8526 C   0  0  0  0  0  0  0  0  0  0  0  0
   23.5614  -12.4353  -14.8296 C   0  0  0  0  0  0  0  0  0  0  0  0
   24.8957  -12.1035  -14.7435 C   0  0  0  0  0  0  0  0  0  0  0  0
   23.2602   -8.1795  -15.8985 C   0  0  0  0  0  0  0  0  0  0  0  0
   23.7401   -7.0427  -15.7346 O   0  0  0  0  0  0  0  0  0  0  0  0
   19.6439   -7.6027  -16.4085 C   0  0  0  0  0  0  0  0  0  0  0  0
   20.9443   -7.2567  -15.7575 C   0  0  2  0  0  0  0  0  0  0  0  0
   21.8667   -8.3685  -15.9241 N   0  0  0  0  0  0  0  0  0  0  0  0
   20.7985   -6.9618  -14.3085 C   0  0  0  0  0  0  0  0  0  0  0  0
   20.1530   -5.9525  -13.9268 O   0  0  0  0  0  0  0  0  0  0  0  0
   21.3559   -7.7692  -13.3295 O   0  0  0  0  0  0  0  0  0  0  0  0
  2  1  1  6
  2  3  1  0
  2 10  1  0
  3  4  1  0
  4  5  2  0
  4  9  1  0
  5  6  1  0
  6  7  2  0
  8  7  1  0
  9  8  2  0
 10 11  2  0
 12 10  1  0
 12 13  1  0
 13 14  1  1
 14 15  1  0
 15 16  2  0
 16 17  1  0
 18 17  1  0
 19 18  2  0
 20 19  1  0
 21 22  1  0
 21 20  2  0
 22 23  2  0
 23 15  1  0
 23 18  1  0
 24 13  1  0
 24 25  2  0
 27 26  1  1
 27 29  1  0
 27 28  1  0
 28 24  1  0
 29 31  1  0
 30 29  2  0
M  END
$$$$
