FWA.pdb
     RDKit          3D

 31 33  0  0  1  0  0  0  0  0999 V2000
   21.6574  -20.6970  -11.7349 N   0  0  0  0  0  0  0  0  0  0  0  0
   22.4661  -20.9536  -12.8853 C   0  0  1  0  0  0  0  0  0  0  0  0
   21.6469  -20.8498  -14.1563 C   0  0  0  0  0  0  0  0  0  0  0  0
   20.6416  -21.9556  -14.2328 C   0  0  0  0  0  0  0  0  0  0  0  0
   19.3168  -21.6635  -14.0204 C   0  0  0  0  0  0  0  0  0  0  0  0
   18.3855  -22.6782  -14.0898 C   0  0  0  0  0  0  0  0  0  0  0  0
   18.7648  -23.9671  -14.3666 C   0  0  0  0  0  0  0  0  0  0  0  0
   20.0993  -24.2380  -14.5765 C   0  0  0  0  0  0  0  0  0  0  0  0
   21.0517  -23.2451  -14.5135 C   0  0  0  0  0  0  0  0  0  0  0  0
   23.5982  -19.9973  -12.9780 C   0  0  0  0  0  0  0  0  0  0  0  0
   23.4485  -18.7781  -12.7369 O   0  0  0  0  0  0  0  0  0  0  0  0
   24.8846  -20.4721  -13.3487 N   0  0  0  0  0  0  0  0  0  0  0  0
   26.0537  -19.6464  -13.5012 C   0  0  1  0  0  0  0  0  0  0  0  0
   27.2629  -20.2376  -12.8105 C   0  0  0  0  0  0  0  0  0  0  0  0
   26.9127  -20.8374  -11.5101 C   0  0  0  0  0  0  0  0  0  0  0  0
   26.6988  -22.1593  -11.1809 C   0  0  0  0  0  0  0  0  0  0  0  0
   26.3991  -22.2455   -9.8682 N   0  0  0  0  0  0  0  0  0  0  0  0
   26.4019  -21.0372   -9.2985 C   0  0  0  0  0  0  0  0  0  0  0  0
   26.1651  -20.6002   -8.0184 C   0  0  0  0  0  0  0  0  0  0  0  0
   26.2497  -19.2570   -7.7527 C   0  0  0  0  0  0  0  0  0  0  0  0
   26.5657  -18.3623   -8.7491 C   0  0  0  0  0  0  0  0  0  0  0  0
   26.8037  -18.8007  -10.0358 C   0  0  0  0  0  0  0  0  0  0  0  0
   26.7247  -20.1449  -10.3270 C   0  0  0  0  0  0  0  0  0  0  0  0
   26.4008  -19.4499  -14.9193 C   0  0  0  0  0  0  0  0  0  0  0  0
   26.0536  -20.2963  -15.7634 O   0  0  0  0  0  0  0  0  0  0  0  0
   25.7291  -16.9728  -16.7383 C   0  0  0  0  0  0  0  0  0  0  0  0
   27.0019  -17.7517  -16.6483 C   0  0  2  0  0  0  0  0  0  0  0  0
   27.1221  -18.3074  -15.3099 N   0  0  0  0  0  0  0  0  0  0  0  0
   28.2012  -16.9240  -16.9383 C   0  0  0  0  0  0  0  0  0  0  0  0
   28.3382  -16.3741  -18.0607 O   0  0  0  0  0  0  0  0  0  0  0  0
   29.2051  -16.7232  -16.0038 O   0  0  0  0  0  0  0  0  0  0  0  0
  2  1  1  1
  2  3  1  0
  2 10  1  0
  3  4  1  0
  4  5  2  0
  4  9  1  0
  5  6  1  0
  6  7  2  0
  8  7  1  0
  9  8  2  0
 10 11  2  0
 12 10  1  0
 12 13  1  0
 13 14  1  1
 14 15  1  0
 15 16  2  0
 16 17  1  0
 18 17  1  0
 19 18  2  0
 20 19  1  0
 21 22  1  0
 21 20  2  0
 22 23  2  0
 23 15  1  0
 23 18  1  0
 24 13  1  0
 24 25  2  0
 27 26  1  1
 27 29  1  0
 27 28  1  0
 28 24  1  0
 29 31  1  0
 30 29  2  0
M  END
$$$$
