FWA.pdb
     RDKit          3D

 31 33  0  0  1  0  0  0  0  0999 V2000
   21.2035  -21.2257  -12.1447 N   0  0  0  0  0  0  0  0  0  0  0  0
   22.4070  -21.7763  -12.6847 C   0  0  1  0  0  0  0  0  0  0  0  0
   22.2484  -22.0783  -14.1615 C   0  0  0  0  0  0  0  0  0  0  0  0
   21.3742  -23.2750  -14.3687 C   0  0  0  0  0  0  0  0  0  0  0  0
   21.9548  -24.5178  -14.4319 C   0  0  0  0  0  0  0  0  0  0  0  0
   21.1544  -25.6245  -14.6224 C   0  0  0  0  0  0  0  0  0  0  0  0
   19.7943  -25.4990  -14.7485 C   0  0  0  0  0  0  0  0  0  0  0  0
   19.2325  -24.2426  -14.6820 C   0  0  0  0  0  0  0  0  0  0  0  0
   20.0066  -23.1194  -14.4926 C   0  0  0  0  0  0  0  0  0  0  0  0
   23.5529  -20.8471  -12.5168 C   0  0  0  0  0  0  0  0  0  0  0  0
   23.4180  -19.6092  -12.6448 O   0  0  0  0  0  0  0  0  0  0  0  0
   24.8358  -21.3702  -12.2031 N   0  0  0  0  0  0  0  0  0  0  0  0
   26.0456  -20.5937  -12.1310 C   0  0  1  0  0  0  0  0  0  0  0  0
   27.0475  -21.1881  -11.1657 C   0  0  0  0  0  0  0  0  0  0  0  0
   26.8832  -20.6482   -9.8037 C   0  0  0  0  0  0  0  0  0  0  0  0
   25.7998  -20.0121   -9.2351 C   0  0  0  0  0  0  0  0  0  0  0  0
   26.0968  -19.6872   -7.9597 N   0  0  0  0  0  0  0  0  0  0  0  0
   27.3349  -20.0774   -7.6445 C   0  0  0  0  0  0  0  0  0  0  0  0
   28.0885  -19.9827   -6.5005 C   0  0  0  0  0  0  0  0  0  0  0  0
   29.3601  -20.4973   -6.5026 C   0  0  0  0  0  0  0  0  0  0  0  0
   29.8731  -21.0977   -7.6294 C   0  0  0  0  0  0  0  0  0  0  0  0
   29.1164  -21.1933   -8.7795 C   0  0  0  0  0  0  0  0  0  0  0  0
   27.8366  -20.6838   -8.8016 C   0  0  0  0  0  0  0  0  0  0  0  0
   26.7020  -20.4843  -13.4452 C   0  0  0  0  0  0  0  0  0  0  0  0
   26.7730  -21.4825  -14.1855 O   0  0  0  0  0  0  0  0  0  0  0  0
   28.2388  -17.6500  -15.3392 C   0  0  0  0  0  0  0  0  0  0  0  0
   27.6467  -19.0185  -15.2323 C   0  0  2  0  0  0  0  0  0  0  0  0
   27.2440  -19.2527  -13.8547 N   0  0  0  0  0  0  0  0  0  0  0  0
   28.5930  -20.0857  -15.6481 C   0  0  0  0  0  0  0  0  0  0  0  0
   28.7384  -20.3681  -16.8647 O   0  0  0  0  0  0  0  0  0  0  0  0
   29.3449  -20.8055  -14.7329 O   0  0  0  0  0  0  0  0  0  0  0  0
  2  1  1  6
  2  3  1  0
  2 10  1  0
  3  4  1  0
  4  5  2  0
  4  9  1  0
  5  6  1  0
  6  7  2  0
  8  7  1  0
  9  8  2  0
 10 11  2  0
 12 10  1  0
 12 13  1  0
 13 14  1  1
 14 15  1  0
 15 16  2  0
 16 17  1  0
 18 17  1  0
 19 18  2  0
 20 19  1  0
 21 22  1  0
 21 20  2  0
 22 23  2  0
 23 15  1  0
 23 18  1  0
 24 13  1  0
 24 25  2  0
 27 26  1  1
 27 29  1  0
 27 28  1  0
 28 24  1  0
 29 31  1  0
 30 29  2  0
M  END
$$$$
