FWA.pdb
     RDKit          3D

 31 33  0  0  1  0  0  0  0  0999 V2000
   26.2933  -19.2747  -17.2631 N   0  0  0  0  0  0  0  0  0  0  0  0
   25.2858  -18.2954  -17.5259 C   0  0  1  0  0  0  0  0  0  0  0  0
   25.1619  -18.0328  -19.0135 C   0  0  0  0  0  0  0  0  0  0  0  0
   26.4535  -17.5251  -19.5733 C   0  0  0  0  0  0  0  0  0  0  0  0
   27.2231  -18.3687  -20.3359 C   0  0  0  0  0  0  0  0  0  0  0  0
   28.4143  -17.9066  -20.8549 C   0  0  0  0  0  0  0  0  0  0  0  0
   28.8362  -16.6227  -20.6196 C   0  0  0  0  0  0  0  0  0  0  0  0
   28.0485  -15.7931  -19.8517 C   0  0  0  0  0  0  0  0  0  0  0  0
   26.8542  -16.2269  -19.3204 C   0  0  0  0  0  0  0  0  0  0  0  0
   23.9607  -18.7281  -17.0143 C   0  0  0  0  0  0  0  0  0  0  0  0
   22.9011  -18.4509  -17.6205 O   0  0  0  0  0  0  0  0  0  0  0  0
   23.8879  -19.4752  -15.8084 N   0  0  0  0  0  0  0  0  0  0  0  0
   22.6683  -19.8154  -15.1239 C   0  0  1  0  0  0  0  0  0  0  0  0
   22.9073  -20.7682  -13.9733 C   0  0  0  0  0  0  0  0  0  0  0  0
   21.6635  -21.0639  -13.2391 C   0  0  0  0  0  0  0  0  0  0  0  0
   20.5346  -21.7364  -13.6575 C   0  0  0  0  0  0  0  0  0  0  0  0
   19.6393  -21.7684  -12.6486 N   0  0  0  0  0  0  0  0  0  0  0  0
   20.1172  -21.1458  -11.5675 C   0  0  0  0  0  0  0  0  0  0  0  0
   19.6066  -20.9109  -10.3147 C   0  0  0  0  0  0  0  0  0  0  0  0
   20.3718  -20.2223   -9.4079 C   0  0  0  0  0  0  0  0  0  0  0  0
   21.6281  -19.7743   -9.7456 C   0  0  0  0  0  0  0  0  0  0  0  0
   22.1420  -20.0099  -11.0045 C   0  0  0  0  0  0  0  0  0  0  0  0
   21.3924  -20.6993  -11.9322 C   0  0  0  0  0  0  0  0  0  0  0  0
   21.9957  -18.6216  -14.5831 C   0  0  0  0  0  0  0  0  0  0  0  0
   22.5818  -17.9063  -13.7500 O   0  0  0  0  0  0  0  0  0  0  0  0
   19.7968  -16.1435  -15.5702 C   0  0  0  0  0  0  0  0  0  0  0  0
   19.9823  -17.1484  -14.4791 C   0  0  2  0  0  0  0  0  0  0  0  0
   20.6958  -18.2981  -15.0119 N   0  0  0  0  0  0  0  0  0  0  0  0
   18.6940  -17.6055  -13.8968 C   0  0  0  0  0  0  0  0  0  0  0  0
   17.9751  -16.8100  -13.2401 O   0  0  0  0  0  0  0  0  0  0  0  0
   18.2336  -18.9042  -14.0473 O   0  0  0  0  0  0  0  0  0  0  0  0
  2  1  1  6
  2  3  1  0
  2 10  1  0
  3  4  1  0
  4  5  2  0
  4  9  1  0
  5  6  1  0
  6  7  2  0
  8  7  1  0
  9  8  2  0
 10 11  2  0
 12 10  1  0
 12 13  1  0
 13 14  1  1
 14 15  1  0
 15 16  2  0
 16 17  1  0
 18 17  1  0
 19 18  2  0
 20 19  1  0
 21 22  1  0
 21 20  2  0
 22 23  2  0
 23 15  1  0
 23 18  1  0
 24 13  1  0
 24 25  2  0
 27 26  1  6
 27 29  1  0
 27 28  1  0
 28 24  1  0
 29 31  1  0
 30 29  2  0
M  END
$$$$
