FWA.pdb
     RDKit          3D

 31 33  0  0  1  0  0  0  0  0999 V2000
   27.8359  -21.1631  -15.0300 N   0  0  0  0  0  0  0  0  0  0  0  0
   27.5441  -20.1593  -14.0551 C   0  0  1  0  0  0  0  0  0  0  0  0
   26.6044  -19.1132  -14.6206 C   0  0  0  0  0  0  0  0  0  0  0  0
   27.2896  -18.2940  -15.6688 C   0  0  0  0  0  0  0  0  0  0  0  0
   28.0057  -17.1876  -15.2832 C   0  0  0  0  0  0  0  0  0  0  0  0
   28.6395  -16.4289  -16.2445 C   0  0  0  0  0  0  0  0  0  0  0  0
   28.5634  -16.7643  -17.5724 C   0  0  0  0  0  0  0  0  0  0  0  0
   27.8395  -17.8785  -17.9374 C   0  0  0  0  0  0  0  0  0  0  0  0
   27.1961  -18.6551  -16.9995 C   0  0  0  0  0  0  0  0  0  0  0  0
   26.9182  -20.7450  -12.8426 C   0  0  0  0  0  0  0  0  0  0  0  0
   26.0077  -21.6003  -12.9223 O   0  0  0  0  0  0  0  0  0  0  0  0
   27.3599  -20.3284  -11.5584 N   0  0  0  0  0  0  0  0  0  0  0  0
   26.7210  -20.6755  -10.3162 C   0  0  1  0  0  0  0  0  0  0  0  0
   27.4542  -20.1086   -9.1204 C   0  0  0  0  0  0  0  0  0  0  0  0
   26.8278  -20.5163   -7.8496 C   0  0  0  0  0  0  0  0  0  0  0  0
   25.6948  -21.2711   -7.6305 C   0  0  0  0  0  0  0  0  0  0  0  0
   25.4939  -21.3922   -6.3018 N   0  0  0  0  0  0  0  0  0  0  0  0
   26.4439  -20.7507   -5.6158 C   0  0  0  0  0  0  0  0  0  0  0  0
   26.6818  -20.5784   -4.2744 C   0  0  0  0  0  0  0  0  0  0  0  0
   27.7740  -19.8449   -3.8861 C   0  0  0  0  0  0  0  0  0  0  0  0
   28.6170  -19.2910   -4.8219 C   0  0  0  0  0  0  0  0  0  0  0  0
   28.3787  -19.4636   -6.1702 C   0  0  0  0  0  0  0  0  0  0  0  0
   27.2881  -20.1963   -6.5846 C   0  0  0  0  0  0  0  0  0  0  0  0
   25.3326  -20.1863  -10.2621 C   0  0  0  0  0  0  0  0  0  0  0  0
   25.1105  -18.9788  -10.0571 O   0  0  0  0  0  0  0  0  0  0  0  0
   22.3692  -21.3475  -11.8886 C   0  0  0  0  0  0  0  0  0  0  0  0
   22.9134  -20.6229  -10.6997 C   0  0  2  0  0  0  0  0  0  0  0  0
   24.2674  -21.0868  -10.4426 N   0  0  0  0  0  0  0  0  0  0  0  0
   22.0915  -20.8278   -9.4789 C   0  0  0  0  0  0  0  0  0  0  0  0
   22.5496  -21.4793   -8.5059 O   0  0  0  0  0  0  0  0  0  0  0  0
   20.8073  -20.3207   -9.3579 O   0  0  0  0  0  0  0  0  0  0  0  0
  2  1  1  6
  2  3  1  0
  2 10  1  0
  3  4  1  0
  4  5  2  0
  4  9  1  0
  5  6  1  0
  6  7  2  0
  8  7  1  0
  9  8  2  0
 10 11  2  0
 12 10  1  0
 12 13  1  0
 13 14  1  1
 14 15  1  0
 15 16  2  0
 16 17  1  0
 18 17  1  0
 19 18  2  0
 20 19  1  0
 21 22  1  0
 21 20  2  0
 22 23  2  0
 23 15  1  0
 23 18  1  0
 24 13  1  0
 24 25  2  0
 27 26  1  6
 27 29  1  0
 27 28  1  0
 28 24  1  0
 29 31  1  0
 30 29  2  0
M  END
$$$$
