FWA.pdb
     RDKit          3D

 31 33  0  0  1  0  0  0  0  0999 V2000
   26.7772  -21.5229  -13.0895 N   0  0  0  0  0  0  0  0  0  0  0  0
   25.8860  -20.6548  -12.3857 C   0  0  1  0  0  0  0  0  0  0  0  0
   24.6673  -20.3331  -13.2275 C   0  0  0  0  0  0  0  0  0  0  0  0
   25.0410  -19.4841  -14.4017 C   0  0  0  0  0  0  0  0  0  0  0  0
   25.2361  -20.0862  -15.6203 C   0  0  0  0  0  0  0  0  0  0  0  0
   25.5804  -19.3091  -16.7063 C   0  0  0  0  0  0  0  0  0  0  0  0
   25.7290  -17.9509  -16.5840 C   0  0  0  0  0  0  0  0  0  0  0  0
   25.5285  -17.3673  -15.3520 C   0  0  0  0  0  0  0  0  0  0  0  0
   25.1840  -18.1180  -14.2499 C   0  0  0  0  0  0  0  0  0  0  0  0
   25.4280  -21.2634  -11.1112 C   0  0  0  0  0  0  0  0  0  0  0  0
   25.1032  -22.4702  -11.0399 O   0  0  0  0  0  0  0  0  0  0  0  0
   25.3549  -20.4613   -9.9411 N   0  0  0  0  0  0  0  0  0  0  0  0
   25.0062  -20.9465   -8.6316 C   0  0  1  0  0  0  0  0  0  0  0  0
   25.5364  -20.0521   -7.5327 C   0  0  0  0  0  0  0  0  0  0  0  0
   27.0044  -20.1317   -7.4216 C   0  0  0  0  0  0  0  0  0  0  0  0
   27.9382  -20.5063   -8.3646 C   0  0  0  0  0  0  0  0  0  0  0  0
   29.1708  -20.4309   -7.8210 N   0  0  0  0  0  0  0  0  0  0  0  0
   29.1072  -20.0213   -6.5510 C   0  0  0  0  0  0  0  0  0  0  0  0
   30.0588  -19.7902   -5.5884 C   0  0  0  0  0  0  0  0  0  0  0  0
   29.6546  -19.3631   -4.3490 C   0  0  0  0  0  0  0  0  0  0  0  0
   28.3206  -19.1694   -4.0733 C   0  0  0  0  0  0  0  0  0  0  0  0
   27.3636  -19.4014   -5.0402 C   0  0  0  0  0  0  0  0  0  0  0  0
   27.7451  -19.8307   -6.2924 C   0  0  0  0  0  0  0  0  0  0  0  0
   23.5468  -21.0489   -8.4593 C   0  0  0  0  0  0  0  0  0  0  0  0
   22.8069  -20.1566   -8.9127 O   0  0  0  0  0  0  0  0  0  0  0  0
   21.2575  -23.7423   -7.3292 C   0  0  0  0  0  0  0  0  0  0  0  0
   21.5634  -22.3064   -7.6107 C   0  0  2  0  0  0  0  0  0  0  0  0
   22.9993  -22.1543   -7.7835 N   0  0  0  0  0  0  0  0  0  0  0  0
   21.1081  -21.4005   -6.5246 C   0  0  0  0  0  0  0  0  0  0  0  0
   21.9455  -20.8170   -5.7902 O   0  0  0  0  0  0  0  0  0  0  0  0
   19.7659  -21.1609   -6.2750 O   0  0  0  0  0  0  0  0  0  0  0  0
  2  1  1  6
  2  3  1  0
  2 10  1  0
  3  4  1  0
  4  5  2  0
  4  9  1  0
  5  6  1  0
  6  7  2  0
  8  7  1  0
  9  8  2  0
 10 11  2  0
 12 10  1  0
 12 13  1  0
 13 14  1  1
 14 15  1  0
 15 16  2  0
 16 17  1  0
 18 17  1  0
 19 18  2  0
 20 19  1  0
 21 22  1  0
 21 20  2  0
 22 23  2  0
 23 15  1  0
 23 18  1  0
 24 13  1  0
 24 25  2  0
 27 26  1  1
 27 29  1  0
 27 28  1  0
 28 24  1  0
 29 31  1  0
 30 29  2  0
M  END
$$$$
