FWA.pdb
     RDKit          3D

 31 33  0  0  1  0  0  0  0  0999 V2000
   23.9061  -18.2442  -17.1212 N   0  0  0  0  0  0  0  0  0  0  0  0
   24.9817  -18.3276  -16.1835 C   0  0  1  0  0  0  0  0  0  0  0  0
   25.3382  -16.9559  -15.6461 C   0  0  0  0  0  0  0  0  0  0  0  0
   26.4850  -16.3682  -16.4070 C   0  0  0  0  0  0  0  0  0  0  0  0
   26.3110  -15.1642  -17.0438 C   0  0  0  0  0  0  0  0  0  0  0  0
   27.3642  -14.6173  -17.7463 C   0  0  0  0  0  0  0  0  0  0  0  0
   28.5752  -15.2580  -17.8158 C   0  0  0  0  0  0  0  0  0  0  0  0
   28.7279  -16.4652  -17.1695 C   0  0  0  0  0  0  0  0  0  0  0  0
   27.6941  -17.0354  -16.4604 C   0  0  0  0  0  0  0  0  0  0  0  0
   24.6361  -19.2050  -15.0366 C   0  0  0  0  0  0  0  0  0  0  0  0
   23.4471  -19.4679  -14.7467 O   0  0  0  0  0  0  0  0  0  0  0  0
   25.6761  -19.7625  -14.2458 N   0  0  0  0  0  0  0  0  0  0  0  0
   25.4945  -20.7880  -13.2523 C   0  0  1  0  0  0  0  0  0  0  0  0
   26.6394  -21.7769  -13.2383 C   0  0  0  0  0  0  0  0  0  0  0  0
   26.4898  -22.8035  -14.2859 C   0  0  0  0  0  0  0  0  0  0  0  0
   25.6454  -23.8927  -14.3350 C   0  0  0  0  0  0  0  0  0  0  0  0
   25.8534  -24.5621  -15.4879 N   0  0  0  0  0  0  0  0  0  0  0  0
   26.8026  -23.9700  -16.2181 C   0  0  0  0  0  0  0  0  0  0  0  0
   27.3647  -24.2537  -17.4384 C   0  0  0  0  0  0  0  0  0  0  0  0
   28.3449  -23.4252  -17.9228 C   0  0  0  0  0  0  0  0  0  0  0  0
   28.7587  -22.3295  -17.2008 C   0  0  0  0  0  0  0  0  0  0  0  0
   28.1944  -22.0437  -15.9743 C   0  0  0  0  0  0  0  0  0  0  0  0
   27.2083  -22.8612  -15.4669 C   0  0  0  0  0  0  0  0  0  0  0  0
   25.3780  -20.2203  -11.8980 C   0  0  0  0  0  0  0  0  0  0  0  0
   26.2140  -19.3868  -11.5034 O   0  0  0  0  0  0  0  0  0  0  0  0
   22.9651  -20.6724   -9.0811 C   0  0  0  0  0  0  0  0  0  0  0  0
   24.2754  -20.2419   -9.6578 C   0  0  2  0  0  0  0  0  0  0  0  0
   24.3228  -20.6237  -11.0602 N   0  0  0  0  0  0  0  0  0  0  0  0
   25.4365  -20.8438   -8.9528 C   0  0  0  0  0  0  0  0  0  0  0  0
   25.7653  -20.4392   -7.8085 O   0  0  0  0  0  0  0  0  0  0  0  0
   26.1964  -21.8592   -9.5121 O   0  0  0  0  0  0  0  0  0  0  0  0
  2  1  1  6
  2  3  1  0
  2 10  1  0
  3  4  1  0
  4  5  2  0
  4  9  1  0
  5  6  1  0
  6  7  2  0
  8  7  1  0
  9  8  2  0
 10 11  2  0
 12 10  1  0
 12 13  1  0
 13 14  1  1
 14 15  1  0
 15 16  2  0
 16 17  1  0
 18 17  1  0
 19 18  2  0
 20 19  1  0
 21 22  1  0
 21 20  2  0
 22 23  2  0
 23 15  1  0
 23 18  1  0
 24 13  1  0
 24 25  2  0
 27 26  1  1
 27 29  1  0
 27 28  1  0
 28 24  1  0
 29 31  1  0
 30 29  2  0
M  END
$$$$
