FWA.pdb
     RDKit          3D

 31 33  0  0  1  0  0  0  0  0999 V2000
   24.7321  -20.7715  -14.1032 N   0  0  0  0  0  0  0  0  0  0  0  0
   24.1236  -20.1636  -12.9615 C   0  0  1  0  0  0  0  0  0  0  0  0
   22.6136  -20.2749  -13.0301 C   0  0  0  0  0  0  0  0  0  0  0  0
   22.0700  -19.4497  -14.1538 C   0  0  0  0  0  0  0  0  0  0  0  0
   21.8887  -18.1024  -13.9602 C   0  0  0  0  0  0  0  0  0  0  0  0
   21.3884  -17.3366  -14.9921 C   0  0  0  0  0  0  0  0  0  0  0  0
   21.0719  -17.9014  -16.2015 C   0  0  0  0  0  0  0  0  0  0  0  0
   21.2615  -19.2551  -16.3742 C   0  0  0  0  0  0  0  0  0  0  0  0
   21.7595  -20.0449  -15.3618 C   0  0  0  0  0  0  0  0  0  0  0  0
   24.5833  -20.7960  -11.6992 C   0  0  0  0  0  0  0  0  0  0  0  0
   24.5271  -22.0347  -11.5276 O   0  0  0  0  0  0  0  0  0  0  0  0
   25.1007  -19.9804  -10.6577 N   0  0  0  0  0  0  0  0  0  0  0  0
   25.6341  -20.4731   -9.4149 C   0  0  1  0  0  0  0  0  0  0  0  0
   26.6554  -19.5292   -8.8191 C   0  0  0  0  0  0  0  0  0  0  0  0
   27.4513  -20.1791   -7.7619 C   0  0  0  0  0  0  0  0  0  0  0  0
   27.9560  -21.4612   -7.7043 C   0  0  0  0  0  0  0  0  0  0  0  0
   28.6236  -21.6220   -6.5429 N   0  0  0  0  0  0  0  0  0  0  0  0
   28.5902  -20.5023   -5.8150 C   0  0  0  0  0  0  0  0  0  0  0  0
   29.1060  -20.1616   -4.5889 C   0  0  0  0  0  0  0  0  0  0  0  0
   28.8883  -18.8949   -4.1094 C   0  0  0  0  0  0  0  0  0  0  0  0
   28.1664  -17.9809   -4.8420 C   0  0  0  0  0  0  0  0  0  0  0  0
   27.6476  -18.3225   -6.0743 C   0  0  0  0  0  0  0  0  0  0  0  0
   27.8531  -19.5887   -6.5769 C   0  0  0  0  0  0  0  0  0  0  0  0
   24.5759  -20.6780   -8.4109 C   0  0  0  0  0  0  0  0  0  0  0  0
   23.7207  -19.7929   -8.2250 O   0  0  0  0  0  0  0  0  0  0  0  0
   23.4411  -23.5624   -6.3650 C   0  0  0  0  0  0  0  0  0  0  0  0
   23.5421  -22.0954   -6.6340 C   0  0  2  0  0  0  0  0  0  0  0  0
   24.5389  -21.8724   -7.6691 N   0  0  0  0  0  0  0  0  0  0  0  0
   23.9166  -21.3162   -5.4256 C   0  0  0  0  0  0  0  0  0  0  0  0
   25.0655  -20.8158   -5.3224 O   0  0  0  0  0  0  0  0  0  0  0  0
   23.0348  -21.1085   -4.3766 O   0  0  0  0  0  0  0  0  0  0  0  0
  2  1  1  6
  2  3  1  0
  2 10  1  0
  3  4  1  0
  4  5  2  0
  4  9  1  0
  5  6  1  0
  6  7  2  0
  8  7  1  0
  9  8  2  0
 10 11  2  0
 12 10  1  0
 12 13  1  0
 13 14  1  1
 14 15  1  0
 15 16  2  0
 16 17  1  0
 18 17  1  0
 19 18  2  0
 20 19  1  0
 21 22  1  0
 21 20  2  0
 22 23  2  0
 23 15  1  0
 23 18  1  0
 24 13  1  0
 24 25  2  0
 27 26  1  1
 27 29  1  0
 27 28  1  0
 28 24  1  0
 29 31  1  0
 30 29  2  0
M  END
$$$$
