FWA.pdb
     RDKit          3D

 31 33  0  0  1  0  0  0  0  0999 V2000
   25.4989  -20.7327   -9.7495 N   0  0  0  0  0  0  0  0  0  0  0  0
   25.6616  -20.4575  -11.1427 C   0  0  1  0  0  0  0  0  0  0  0  0
   26.4681  -21.5483  -11.8188 C   0  0  0  0  0  0  0  0  0  0  0  0
   27.9293  -21.3763  -11.5454 C   0  0  0  0  0  0  0  0  0  0  0  0
   28.5179  -22.1487  -10.5746 C   0  0  0  0  0  0  0  0  0  0  0  0
   29.8642  -21.9950  -10.3183 C   0  0  0  0  0  0  0  0  0  0  0  0
   30.6168  -21.0857  -11.0173 C   0  0  0  0  0  0  0  0  0  0  0  0
   30.0060  -20.3210  -11.9871 C   0  0  0  0  0  0  0  0  0  0  0  0
   28.6635  -20.4526  -12.2648 C   0  0  0  0  0  0  0  0  0  0  0  0
   24.3509  -20.3482  -11.8318 C   0  0  0  0  0  0  0  0  0  0  0  0
   23.3048  -20.8182  -11.3301 O   0  0  0  0  0  0  0  0  0  0  0  0
   24.2765  -19.6953  -13.0911 N   0  0  0  0  0  0  0  0  0  0  0  0
   23.0618  -19.4668  -13.8287 C   0  0  1  0  0  0  0  0  0  0  0  0
   23.2668  -18.5088  -14.9815 C   0  0  0  0  0  0  0  0  0  0  0  0
   21.9905  -18.1376  -15.6194 C   0  0  0  0  0  0  0  0  0  0  0  0
   20.8175  -17.6939  -15.0457 C   0  0  0  0  0  0  0  0  0  0  0  0
   19.9055  -17.4759  -16.0158 N   0  0  0  0  0  0  0  0  0  0  0  0
   20.4142  -17.7539  -17.2194 C   0  0  0  0  0  0  0  0  0  0  0  0
   19.9032  -17.6972  -18.4926 C   0  0  0  0  0  0  0  0  0  0  0  0
   20.7066  -18.0600  -19.5437 C   0  0  0  0  0  0  0  0  0  0  0  0
   22.0011  -18.4735  -19.3283 C   0  0  0  0  0  0  0  0  0  0  0  0
   22.5155  -18.5308  -18.0490 C   0  0  0  0  0  0  0  0  0  0  0  0
   21.7278  -18.1714  -16.9774 C   0  0  0  0  0  0  0  0  0  0  0  0
   22.5154  -20.7188  -14.3800 C   0  0  0  0  0  0  0  0  0  0  0  0
   23.2595  -21.4939  -15.0084 O   0  0  0  0  0  0  0  0  0  0  0  0
   19.9644  -23.0265  -13.5972 C   0  0  0  0  0  0  0  0  0  0  0  0
   20.5757  -22.2537  -14.7214 C   0  0  2  0  0  0  0  0  0  0  0  0
   21.1566  -21.0299  -14.1926 N   0  0  0  0  0  0  0  0  0  0  0  0
   19.5912  -21.9049  -15.7782 C   0  0  0  0  0  0  0  0  0  0  0  0
   18.9814  -20.8059  -15.7414 O   0  0  0  0  0  0  0  0  0  0  0  0
   19.3048  -22.7573  -16.8329 O   0  0  0  0  0  0  0  0  0  0  0  0
  2  1  1  1
  2  3  1  0
  2 10  1  0
  3  4  1  0
  4  5  2  0
  4  9  1  0
  5  6  1  0
  6  7  2  0
  8  7  1  0
  9  8  2  0
 10 11  2  0
 12 10  1  0
 12 13  1  0
 13 14  1  6
 14 15  1  0
 15 16  2  0
 16 17  1  0
 18 17  1  0
 19 18  2  0
 20 19  1  0
 21 22  1  0
 21 20  2  0
 22 23  2  0
 23 15  1  0
 23 18  1  0
 24 13  1  0
 24 25  2  0
 27 26  1  1
 27 29  1  0
 27 28  1  0
 28 24  1  0
 29 31  1  0
 30 29  2  0
M  END
$$$$
