WRF.pdb
     RDKit          3D

 37 39  0  0  1  0  0  0  0  0999 V2000
    8.8026  -17.6178   20.9367 N   0  0  0  0  0  0  0  0  0  0  0  0
    8.4750  -16.9229   22.1233 C   0  0  1  0  0  0  0  0  0  0  0  0
    7.2016  -16.1164   22.0921 C   0  0  0  0  0  0  0  0  0  0  0  0
    7.2160  -15.1832   20.9498 C   0  0  0  0  0  0  0  0  0  0  0  0
    6.6178  -15.4121   19.7128 C   0  0  0  0  0  0  0  0  0  0  0  0
    6.8073  -14.3497   18.9210 N   0  0  0  0  0  0  0  0  0  0  0  0
    7.5096  -13.4208   19.5820 C   0  0  0  0  0  0  0  0  0  0  0  0
    7.9664  -12.1622   19.2103 C   0  0  0  0  0  0  0  0  0  0  0  0
    8.6802  -11.4445   20.1321 C   0  0  0  0  0  0  0  0  0  0  0  0
    8.9540  -11.9327   21.4030 C   0  0  0  0  0  0  0  0  0  0  0  0
    8.4975  -13.1781   21.7601 C   0  0  0  0  0  0  0  0  0  0  0  0
    7.7743  -13.9286   20.8566 C   0  0  0  0  0  0  0  0  0  0  0  0
    8.4649  -17.8027   23.3297 C   0  0  0  0  0  0  0  0  0  0  0  0
    7.8233  -18.9021   23.2684 O   0  0  0  0  0  0  0  0  0  0  0  0
   15.8246  -19.9117   21.9720 N   0  0  0  0  0  0  0  0  0  0  0  0
   15.9280  -19.8266   23.3784 C   0  0  0  0  0  0  0  0  0  0  0  0
   17.0895  -19.9899   23.9385 N   0  0  0  0  0  0  0  0  0  0  0  0
   14.7847  -19.5667   24.1638 N   0  0  0  0  0  0  0  0  0  0  0  0
   13.4706  -19.6290   23.5851 C   0  0  0  0  0  0  0  0  0  0  0  0
   12.4598  -19.2599   24.6291 C   0  0  0  0  0  0  0  0  0  0  0  0
   11.3719  -18.4012   24.0503 C   0  0  0  0  0  0  0  0  0  0  0  0
   10.2585  -18.1274   24.9974 C   0  0  2  0  0  0  0  0  0  0  0  0
    9.1685  -17.3660   24.4705 N   0  0  0  0  0  0  0  0  0  0  0  0
   10.7714  -17.4080   26.2243 C   0  0  0  0  0  0  0  0  0  0  0  0
   11.7193  -17.8288   26.9218 O   0  0  0  0  0  0  0  0  0  0  0  0
   17.1999  -19.9887   24.9613 N   0  0  0  0  0  0  0  0  0  0  0  0
   10.1774  -16.1783   26.6538 C   0  0  1  0  0  0  0  0  0  0  0  0
   10.4713  -15.5631   27.9319 C   0  0  0  0  0  0  0  0  0  0  0  0
    9.3261  -14.7178   28.4281 C   0  0  0  0  0  0  0  0  0  0  0  0
    8.5555  -14.0939   27.3533 C   0  0  0  0  0  0  0  0  0  0  0  0
    8.8630  -12.9355   26.7038 C   0  0  0  0  0  0  0  0  0  0  0  0
    8.0939  -12.4035   25.7011 C   0  0  0  0  0  0  0  0  0  0  0  0
    6.9364  -13.0863   25.3283 C   0  0  0  0  0  0  0  0  0  0  0  0
    6.5896  -14.2503   25.9515 C   0  0  0  0  0  0  0  0  0  0  0  0
    7.3856  -14.7443   26.9461 C   0  0  0  0  0  0  0  0  0  0  0  0
   10.9283  -16.5590   28.9317 O   0  0  0  0  0  0  0  0  0  0  0  0
   11.3151  -16.1550   30.0446 O   0  0  0  0  0  0  0  0  0  0  0  0
  2 13  1  0
  2  1  1  6
  3  2  1  0
  4  3  1  0
  4  5  2  0
  6  5  1  0
  7 12  2  0
  7  6  1  0
  8  7  1  0
  9 10  1  0
  9  8  2  0
 10 11  2  0
 11 12  1  0
 12  4  1  0
 13 14  2  0
 16 15  1  0
 16 18  1  0
 17 16  2  0
 19 18  1  0
 19 20  1  0
 21 20  1  0
 22 21  1  6
 23 22  1  0
 23 13  1  0
 24 25  2  0
 24 22  1  0
 26 24  1  0
 27 35  1  0
 27 26  1  0
 27 28  1  6
 29 28  1  0
 30 29  2  0
 31 30  1  0
 32 31  2  0
 32 33  1  0
 33 34  2  0
 34 29  1  0
 35 37  1  0
 36 35  2  0
M  END
$$$$
