WRF.pdb
     RDKit          3D

 37 39  0  0  1  0  0  0  0  0999 V2000
    6.3459  -17.4663   25.0034 N   0  0  0  0  0  0  0  0  0  0  0  0
    6.7465  -16.8948   23.7741 C   0  0  1  0  0  0  0  0  0  0  0  0
    6.8087  -15.3891   23.7294 C   0  0  0  0  0  0  0  0  0  0  0  0
    6.3778  -14.8216   25.0210 C   0  0  0  0  0  0  0  0  0  0  0  0
    5.5742  -15.4665   25.9582 C   0  0  0  0  0  0  0  0  0  0  0  0
    5.3997  -14.6712   27.0205 N   0  0  0  0  0  0  0  0  0  0  0  0
    6.0556  -13.5198   26.8279 C   0  0  0  0  0  0  0  0  0  0  0  0
    6.1840  -12.3808   27.6134 C   0  0  0  0  0  0  0  0  0  0  0  0
    6.9329  -11.3464   27.1200 C   0  0  0  0  0  0  0  0  0  0  0  0
    7.5545  -11.4053   25.8796 C   0  0  0  0  0  0  0  0  0  0  0  0
    7.4212  -12.5362   25.1112 C   0  0  0  0  0  0  0  0  0  0  0  0
    6.6744  -13.5981   25.5775 C   0  0  0  0  0  0  0  0  0  0  0  0
    8.0357  -17.4508   23.2658 C   0  0  0  0  0  0  0  0  0  0  0  0
    8.6322  -18.3297   23.9699 O   0  0  0  0  0  0  0  0  0  0  0  0
    8.2985  -13.5780   16.4969 N   0  0  0  0  0  0  0  0  0  0  0  0
    8.5088  -13.5565   17.8937 C   0  0  0  0  0  0  0  0  0  0  0  0
    8.8094  -12.4315   18.4712 N   0  0  0  0  0  0  0  0  0  0  0  0
    8.3929  -14.7415   18.6513 N   0  0  0  0  0  0  0  0  0  0  0  0
    9.0070  -15.9603   18.2007 C   0  0  0  0  0  0  0  0  0  0  0  0
    8.8890  -16.9941   19.2802 C   0  0  0  0  0  0  0  0  0  0  0  0
   10.1158  -17.0154   20.1464 C   0  0  0  0  0  0  0  0  0  0  0  0
    9.8330  -17.3097   21.5765 C   0  0  2  0  0  0  0  0  0  0  0  0
    8.5202  -16.9709   22.0321 N   0  0  0  0  0  0  0  0  0  0  0  0
   10.8266  -16.6021   22.4696 C   0  0  0  0  0  0  0  0  0  0  0  0
   11.1385  -15.3995   22.3335 O   0  0  0  0  0  0  0  0  0  0  0  0
    9.0601  -12.3871   19.4680 N   0  0  0  0  0  0  0  0  0  0  0  0
   11.4727  -17.2976   23.5412 C   0  0  1  0  0  0  0  0  0  0  0  0
   11.7732  -16.6797   24.8165 C   0  0  0  0  0  0  0  0  0  0  0  0
   10.5572  -16.0360   25.4323 C   0  0  0  0  0  0  0  0  0  0  0  0
   10.8637  -15.2157   26.6035 C   0  0  0  0  0  0  0  0  0  0  0  0
   11.1870  -13.8915   26.6023 C   0  0  0  0  0  0  0  0  0  0  0  0
   11.4644  -13.1796   27.7408 C   0  0  0  0  0  0  0  0  0  0  0  0
   11.4122  -13.8489   28.9631 C   0  0  0  0  0  0  0  0  0  0  0  0
   11.0927  -15.1752   29.0118 C   0  0  0  0  0  0  0  0  0  0  0  0
   10.8235  -15.8456   27.8521 C   0  0  0  0  0  0  0  0  0  0  0  0
   12.4566  -17.6201   25.7379 O   0  0  0  0  0  0  0  0  0  0  0  0
   12.0681  -18.8027   25.7820 O   0  0  0  0  0  0  0  0  0  0  0  0
  2 13  1  0
  2  1  1  1
  3  2  1  0
  4  3  1  0
  4  5  2  0
  6  5  1  0
  7 12  2  0
  7  6  1  0
  8  7  1  0
  9 10  1  0
  9  8  2  0
 10 11  2  0
 11 12  1  0
 12  4  1  0
 13 14  2  0
 16 15  1  0
 16 18  1  0
 17 16  2  0
 19 18  1  0
 19 20  1  0
 21 20  1  0
 22 21  1  6
 23 22  1  0
 23 13  1  0
 24 25  2  0
 24 22  1  0
 26 24  1  0
 27 35  1  0
 27 26  1  0
 27 28  1  6
 29 28  1  0
 30 29  2  0
 31 30  1  0
 32 31  2  0
 32 33  1  0
 33 34  2  0
 34 29  1  0
 35 37  1  0
 36 35  2  0
M  END
$$$$
