WRF.pdb
     RDKit          3D

 37 39  0  0  1  0  0  0  0  0999 V2000
    9.0211  -16.9135   21.1799 N   0  0  0  0  0  0  0  0  0  0  0  0
    8.1485  -16.1659   22.0033 C   0  0  1  0  0  0  0  0  0  0  0  0
    6.7897  -15.8589   21.4267 C   0  0  0  0  0  0  0  0  0  0  0  0
    6.9231  -15.0025   20.2330 C   0  0  0  0  0  0  0  0  0  0  0  0
    6.5952  -15.3751   18.9315 C   0  0  0  0  0  0  0  0  0  0  0  0
    6.8204  -14.3488   18.1024 N   0  0  0  0  0  0  0  0  0  0  0  0
    7.2865  -13.3056   18.8006 C   0  0  0  0  0  0  0  0  0  0  0  0
    7.6734  -12.0278   18.4155 C   0  0  0  0  0  0  0  0  0  0  0  0
    8.1234  -11.1766   19.3887 C   0  0  0  0  0  0  0  0  0  0  0  0
    8.2016  -11.5505   20.7239 C   0  0  0  0  0  0  0  0  0  0  0  0
    7.8163  -12.8160   21.0938 C   0  0  0  0  0  0  0  0  0  0  0  0
    7.3571  -13.6997   20.1394 C   0  0  0  0  0  0  0  0  0  0  0  0
    7.9779  -16.7602   23.3624 C   0  0  0  0  0  0  0  0  0  0  0  0
    7.0363  -16.3192   24.0991 O   0  0  0  0  0  0  0  0  0  0  0  0
   11.7449  -21.1072   21.9879 N   0  0  0  0  0  0  0  0  0  0  0  0
   12.8036  -21.3118   22.9006 C   0  0  0  0  0  0  0  0  0  0  0  0
   14.0184  -21.4106   22.4488 N   0  0  0  0  0  0  0  0  0  0  0  0
   12.5447  -21.4065   24.2846 N   0  0  0  0  0  0  0  0  0  0  0  0
   11.2021  -21.2996   24.7861 C   0  0  0  0  0  0  0  0  0  0  0  0
   10.7259  -19.8891   24.6086 C   0  0  0  0  0  0  0  0  0  0  0  0
    9.3753  -19.6904   25.2350 C   0  0  0  0  0  0  0  0  0  0  0  0
    8.8418  -18.3108   25.0809 C   0  0  2  0  0  0  0  0  0  0  0  0
    8.8704  -17.7789   23.7536 N   0  0  0  0  0  0  0  0  0  0  0  0
    9.5898  -17.3503   25.9774 C   0  0  0  0  0  0  0  0  0  0  0  0
   10.6636  -16.8000   25.6512 O   0  0  0  0  0  0  0  0  0  0  0  0
   14.8142  -21.5887   23.0759 N   0  0  0  0  0  0  0  0  0  0  0  0
    9.0874  -17.0189   27.2763 C   0  0  1  0  0  0  0  0  0  0  0  0
    9.8301  -16.2217   28.2309 C   0  0  0  0  0  0  0  0  0  0  0  0
    9.1181  -14.9365   28.5681 C   0  0  0  0  0  0  0  0  0  0  0  0
    8.7736  -14.1371   27.3931 C   0  0  0  0  0  0  0  0  0  0  0  0
    7.6234  -14.2202   26.6662 C   0  0  0  0  0  0  0  0  0  0  0  0
    7.3629  -13.4379   25.5707 C   0  0  0  0  0  0  0  0  0  0  0  0
    8.3278  -12.5090   25.1823 C   0  0  0  0  0  0  0  0  0  0  0  0
    9.4946  -12.3913   25.8810 C   0  0  0  0  0  0  0  0  0  0  0  0
    9.7126  -13.1916   26.9668 C   0  0  0  0  0  0  0  0  0  0  0  0
   10.2036  -17.0063   29.4331 O   0  0  0  0  0  0  0  0  0  0  0  0
   10.8898  -16.4576   30.3160 O   0  0  0  0  0  0  0  0  0  0  0  0
  2 13  1  0
  2  1  1  6
  3  2  1  0
  4  3  1  0
  4  5  2  0
  6  5  1  0
  7 12  2  0
  7  6  1  0
  8  7  1  0
  9 10  1  0
  9  8  2  0
 10 11  2  0
 11 12  1  0
 12  4  1  0
 13 14  2  0
 16 15  1  0
 16 18  1  0
 17 16  2  0
 19 18  1  0
 19 20  1  0
 21 20  1  0
 22 21  1  6
 23 22  1  0
 23 13  1  0
 24 25  2  0
 24 22  1  0
 26 24  1  0
 27 35  1  0
 27 26  1  0
 27 28  1  1
 29 28  1  0
 30 29  2  0
 31 30  1  0
 32 31  2  0
 32 33  1  0
 33 34  2  0
 34 29  1  0
 35 37  1  0
 36 35  2  0
M  END
$$$$
