WRF.pdb
     RDKit          3D

 37 39  0  0  1  0  0  0  0  0999 V2000
    5.4210  -16.7094   22.0048 N   0  0  0  0  0  0  0  0  0  0  0  0
    6.7595  -16.2602   22.0755 C   0  0  1  0  0  0  0  0  0  0  0  0
    6.9552  -14.7723   22.2191 C   0  0  0  0  0  0  0  0  0  0  0  0
    7.0458  -14.1384   20.8902 C   0  0  0  0  0  0  0  0  0  0  0  0
    6.0063  -13.4801   20.2373 C   0  0  0  0  0  0  0  0  0  0  0  0
    6.4431  -13.0085   19.0633 N   0  0  0  0  0  0  0  0  0  0  0  0
    7.7342  -13.3275   18.9073 C   0  0  0  0  0  0  0  0  0  0  0  0
    8.6343  -13.0817   17.8777 C   0  0  0  0  0  0  0  0  0  0  0  0
    9.9104  -13.5574   18.0183 C   0  0  0  0  0  0  0  0  0  0  0  0
   10.3193  -14.2652   19.1409 C   0  0  0  0  0  0  0  0  0  0  0  0
    9.4214  -14.5026   20.1530 C   0  0  0  0  0  0  0  0  0  0  0  0
    8.1274  -14.0371   20.0450 C   0  0  0  0  0  0  0  0  0  0  0  0
    7.5539  -16.9599   23.1286 C   0  0  0  0  0  0  0  0  0  0  0  0
    6.9694  -17.2706   24.2175 O   0  0  0  0  0  0  0  0  0  0  0  0
   15.0199  -19.8882   23.4957 N   0  0  0  0  0  0  0  0  0  0  0  0
   14.2648  -19.7489   22.3098 C   0  0  0  0  0  0  0  0  0  0  0  0
   14.8212  -19.2130   21.2645 N   0  0  0  0  0  0  0  0  0  0  0  0
   12.9242  -20.1872   22.2616 N   0  0  0  0  0  0  0  0  0  0  0  0
   12.2782  -20.6950   23.4407 C   0  0  0  0  0  0  0  0  0  0  0  0
   11.6168  -19.5592   24.1621 C   0  0  0  0  0  0  0  0  0  0  0  0
   10.9093  -18.6462   23.2019 C   0  0  0  0  0  0  0  0  0  0  0  0
    9.7021  -17.9944   23.7758 C   0  0  2  0  0  0  0  0  0  0  0  0
    8.9088  -17.2383   22.8568 N   0  0  0  0  0  0  0  0  0  0  0  0
   10.0861  -17.0773   24.9147 C   0  0  0  0  0  0  0  0  0  0  0  0
   10.9358  -16.1671   24.8078 O   0  0  0  0  0  0  0  0  0  0  0  0
   14.3079  -19.0958   20.3807 N   0  0  0  0  0  0  0  0  0  0  0  0
    9.4762  -17.2145   26.2027 C   0  0  1  0  0  0  0  0  0  0  0  0
    9.9217  -16.4812   27.3698 C   0  0  0  0  0  0  0  0  0  0  0  0
    8.7997  -15.7052   28.0111 C   0  0  0  0  0  0  0  0  0  0  0  0
    8.2779  -14.6319   27.1661 C   0  0  0  0  0  0  0  0  0  0  0  0
    7.1786  -14.6957   26.3628 C   0  0  0  0  0  0  0  0  0  0  0  0
    6.7425  -13.6483   25.5929 C   0  0  0  0  0  0  0  0  0  0  0  0
    7.4642  -12.4558   25.6365 C   0  0  0  0  0  0  0  0  0  0  0  0
    8.5716  -12.3467   26.4272 C   0  0  0  0  0  0  0  0  0  0  0  0
    8.9705  -13.4163   27.1781 C   0  0  0  0  0  0  0  0  0  0  0  0
   10.6404  -17.3548   28.3293 O   0  0  0  0  0  0  0  0  0  0  0  0
   10.6775  -18.5804   28.1102 O   0  0  0  0  0  0  0  0  0  0  0  0
  2 13  1  0
  2  1  1  1
  3  2  1  0
  4  3  1  0
  4  5  2  0
  6  5  1  0
  7 12  2  0
  7  6  1  0
  8  7  1  0
  9 10  1  0
  9  8  2  0
 10 11  2  0
 11 12  1  0
 12  4  1  0
 13 14  2  0
 16 15  1  0
 16 18  1  0
 17 16  2  0
 19 18  1  0
 19 20  1  0
 21 20  1  0
 22 21  1  6
 23 22  1  0
 23 13  1  0
 24 25  2  0
 24 22  1  0
 26 24  1  0
 27 35  1  0
 27 26  1  0
 27 28  1  1
 29 28  1  0
 30 29  2  0
 31 30  1  0
 32 31  2  0
 32 33  1  0
 33 34  2  0
 34 29  1  0
 35 37  1  0
 36 35  2  0
M  END
$$$$
