WRF.pdb
     RDKit          3D

 37 39  0  0  1  0  0  0  0  0999 V2000
    5.7189  -18.8940   22.9888 N   0  0  0  0  0  0  0  0  0  0  0  0
    6.6558  -17.8758   22.6991 C   0  0  1  0  0  0  0  0  0  0  0  0
    6.2169  -16.4641   22.9948 C   0  0  0  0  0  0  0  0  0  0  0  0
    6.6795  -15.5521   21.9316 C   0  0  0  0  0  0  0  0  0  0  0  0
    6.5979  -15.8001   20.5634 C   0  0  0  0  0  0  0  0  0  0  0  0
    7.0896  -14.7537   19.8892 N   0  0  0  0  0  0  0  0  0  0  0  0
    7.4967  -13.8169   20.7550 C   0  0  0  0  0  0  0  0  0  0  0  0
    8.0768  -12.5681   20.5684 C   0  0  0  0  0  0  0  0  0  0  0  0
    8.3920  -11.8378   21.6826 C   0  0  0  0  0  0  0  0  0  0  0  0
    8.1519  -12.3042   22.9685 C   0  0  0  0  0  0  0  0  0  0  0  0
    7.5778  -13.5401   23.1416 C   0  0  0  0  0  0  0  0  0  0  0  0
    7.2465  -14.3028   22.0410 C   0  0  0  0  0  0  0  0  0  0  0  0
    7.9883  -18.1138   23.3295 C   0  0  0  0  0  0  0  0  0  0  0  0
    8.0204  -18.6310   24.4937 O   0  0  0  0  0  0  0  0  0  0  0  0
   15.3194  -18.6393   18.5471 N   0  0  0  0  0  0  0  0  0  0  0  0
   14.8859  -19.3546   19.6857 C   0  0  0  0  0  0  0  0  0  0  0  0
   15.3659  -20.5420   19.9077 N   0  0  0  0  0  0  0  0  0  0  0  0
   13.9448  -18.7860   20.5703 N   0  0  0  0  0  0  0  0  0  0  0  0
   13.5758  -19.4664   21.7813 C   0  0  0  0  0  0  0  0  0  0  0  0
   12.8606  -18.5051   22.6825 C   0  0  0  0  0  0  0  0  0  0  0  0
   11.5326  -18.1066   22.1048 C   0  0  0  0  0  0  0  0  0  0  0  0
   10.4472  -18.0037   23.1161 C   0  0  2  0  0  0  0  0  0  0  0  0
    9.1380  -17.7524   22.5981 N   0  0  0  0  0  0  0  0  0  0  0  0
   10.7604  -16.9183   24.1209 C   0  0  0  0  0  0  0  0  0  0  0  0
   11.4648  -15.9201   23.8574 O   0  0  0  0  0  0  0  0  0  0  0  0
   16.1698  -20.9062   19.3791 N   0  0  0  0  0  0  0  0  0  0  0  0
   10.2496  -16.9876   25.4565 C   0  0  1  0  0  0  0  0  0  0  0  0
   10.6788  -16.0951   26.5137 C   0  0  0  0  0  0  0  0  0  0  0  0
   10.6927  -14.6557   26.0663 C   0  0  0  0  0  0  0  0  0  0  0  0
    9.3586  -14.1111   25.8177 C   0  0  0  0  0  0  0  0  0  0  0  0
    8.3685  -14.6967   25.0863 C   0  0  0  0  0  0  0  0  0  0  0  0
    7.1355  -14.1294   24.8914 C   0  0  0  0  0  0  0  0  0  0  0  0
    6.8844  -12.8874   25.4739 C   0  0  0  0  0  0  0  0  0  0  0  0
    7.8467  -12.2642   26.2148 C   0  0  0  0  0  0  0  0  0  0  0  0
    9.0618  -12.8662   26.3830 C   0  0  0  0  0  0  0  0  0  0  0  0
    9.9032  -16.3037   27.7609 O   0  0  0  0  0  0  0  0  0  0  0  0
    8.9623  -17.1197   27.7505 O   0  0  0  0  0  0  0  0  0  0  0  0
  2 13  1  0
  2  1  1  1
  3  2  1  0
  4  3  1  0
  4  5  2  0
  6  5  1  0
  7 12  2  0
  7  6  1  0
  8  7  1  0
  9 10  1  0
  9  8  2  0
 10 11  2  0
 11 12  1  0
 12  4  1  0
 13 14  2  0
 16 15  1  0
 16 18  1  0
 17 16  2  0
 19 18  1  0
 19 20  1  0
 21 20  1  0
 22 21  1  6
 23 22  1  0
 23 13  1  0
 24 25  2  0
 24 22  1  0
 26 24  1  0
 27 35  1  0
 27 26  1  0
 27 28  1  1
 29 28  1  0
 30 29  2  0
 31 30  1  0
 32 31  2  0
 32 33  1  0
 33 34  2  0
 34 29  1  0
 35 37  1  0
 36 35  2  0
M  END
$$$$
