WRF.pdb
     RDKit          3D

 37 39  0  0  1  0  0  0  0  0999 V2000
    6.0842  -18.2557   24.5813 N   0  0  0  0  0  0  0  0  0  0  0  0
    6.8197  -17.4523   23.6802 C   0  0  1  0  0  0  0  0  0  0  0  0
    7.7965  -16.4838   24.2974 C   0  0  0  0  0  0  0  0  0  0  0  0
    7.0784  -15.4773   25.1019 C   0  0  0  0  0  0  0  0  0  0  0  0
    6.0130  -15.7401   25.9598 C   0  0  0  0  0  0  0  0  0  0  0  0
    5.6178  -14.6024   26.5436 N   0  0  0  0  0  0  0  0  0  0  0  0
    6.3784  -13.5901   26.1078 C   0  0  0  0  0  0  0  0  0  0  0  0
    6.3714  -12.2311   26.3970 C   0  0  0  0  0  0  0  0  0  0  0  0
    7.2932  -11.4395   25.7661 C   0  0  0  0  0  0  0  0  0  0  0  0
    8.2159  -11.9501   24.8625 C   0  0  0  0  0  0  0  0  0  0  0  0
    8.2141  -13.2952   24.5839 C   0  0  0  0  0  0  0  0  0  0  0  0
    7.2997  -14.1225   25.2022 C   0  0  0  0  0  0  0  0  0  0  0  0
    7.5210  -18.2481   22.6293 C   0  0  0  0  0  0  0  0  0  0  0  0
    7.9487  -19.4084   22.9371 O   0  0  0  0  0  0  0  0  0  0  0  0
    7.2735  -16.8032   14.4246 N   0  0  0  0  0  0  0  0  0  0  0  0
    8.1409  -16.1486   15.3272 C   0  0  0  0  0  0  0  0  0  0  0  0
    9.0300  -15.3215   14.8635 N   0  0  0  0  0  0  0  0  0  0  0  0
    8.0420  -16.3895   16.7142 N   0  0  0  0  0  0  0  0  0  0  0  0
    6.8965  -17.0652   17.2589 C   0  0  0  0  0  0  0  0  0  0  0  0
    7.1003  -17.2615   18.7313 C   0  0  0  0  0  0  0  0  0  0  0  0
    8.4251  -17.9109   19.0130 C   0  0  0  0  0  0  0  0  0  0  0  0
    8.6979  -18.1090   20.4614 C   0  0  2  0  0  0  0  0  0  0  0  0
    7.6694  -17.6690   21.3526 N   0  0  0  0  0  0  0  0  0  0  0  0
    9.9797  -17.4131   20.8592 C   0  0  0  0  0  0  0  0  0  0  0  0
   11.0882  -17.6643   20.3393 O   0  0  0  0  0  0  0  0  0  0  0  0
    9.6814  -14.8251   15.4860 N   0  0  0  0  0  0  0  0  0  0  0  0
    9.9810  -16.4070   21.8777 C   0  0  1  0  0  0  0  0  0  0  0  0
   11.1415  -15.5967   22.1863 C   0  0  0  0  0  0  0  0  0  0  0  0
   10.7595  -14.2002   22.6056 C   0  0  0  0  0  0  0  0  0  0  0  0
    9.6241  -13.6591   21.8596 C   0  0  0  0  0  0  0  0  0  0  0  0
    8.3084  -13.7607   22.2014 C   0  0  0  0  0  0  0  0  0  0  0  0
    7.2896  -13.2285   21.4540 C   0  0  0  0  0  0  0  0  0  0  0  0
    7.6204  -12.5478   20.2826 C   0  0  0  0  0  0  0  0  0  0  0  0
    8.9251  -12.4216   19.9016 C   0  0  0  0  0  0  0  0  0  0  0  0
    9.9086  -12.9679   20.6769 C   0  0  0  0  0  0  0  0  0  0  0  0
   12.0387  -16.2659   23.1597 O   0  0  0  0  0  0  0  0  0  0  0  0
   11.6332  -17.2905   23.7405 O   0  0  0  0  0  0  0  0  0  0  0  0
  2 13  1  0
  2  1  1  1
  3  2  1  0
  4  3  1  0
  4  5  2  0
  6  5  1  0
  7 12  2  0
  7  6  1  0
  8  7  1  0
  9 10  1  0
  9  8  2  0
 10 11  2  0
 11 12  1  0
 12  4  1  0
 13 14  2  0
 16 15  1  0
 16 18  1  0
 17 16  2  0
 19 18  1  0
 19 20  1  0
 21 20  1  0
 22 21  1  6
 23 22  1  0
 23 13  1  0
 24 25  2  0
 24 22  1  0
 26 24  1  0
 27 35  1  0
 27 26  1  0
 27 28  1  6
 29 28  1  0
 30 29  2  0
 31 30  1  0
 32 31  2  0
 32 33  1  0
 33 34  2  0
 34 29  1  0
 35 37  1  0
 36 35  2  0
M  END
$$$$
