WRF.pdb
     RDKit          3D

 37 39  0  0  1  0  0  0  0  0999 V2000
    6.4992  -17.8022   25.1089 N   0  0  0  0  0  0  0  0  0  0  0  0
    7.2031  -17.4663   23.9299 C   0  0  1  0  0  0  0  0  0  0  0  0
    7.1389  -16.0210   23.5056 C   0  0  0  0  0  0  0  0  0  0  0  0
    6.8250  -15.1624   24.6633 C   0  0  0  0  0  0  0  0  0  0  0  0
    5.9849  -15.5069   25.7196 C   0  0  0  0  0  0  0  0  0  0  0  0
    5.9440  -14.5033   26.6042 N   0  0  0  0  0  0  0  0  0  0  0  0
    6.7243  -13.5018   26.1784 C   0  0  0  0  0  0  0  0  0  0  0  0
    7.0148  -12.2555   26.7198 C   0  0  0  0  0  0  0  0  0  0  0  0
    7.8628  -11.4383   26.0216 C   0  0  0  0  0  0  0  0  0  0  0  0
    8.4280  -11.8157   24.8105 C   0  0  0  0  0  0  0  0  0  0  0  0
    8.1342  -13.0501   24.2844 C   0  0  0  0  0  0  0  0  0  0  0  0
    7.2842  -13.8996   24.9616 C   0  0  0  0  0  0  0  0  0  0  0  0
    8.6310  -17.9022   23.9598 C   0  0  0  0  0  0  0  0  0  0  0  0
    9.0006  -18.6918   24.8892 O   0  0  0  0  0  0  0  0  0  0  0  0
    8.2231  -16.3161   19.6350 N   0  0  0  0  0  0  0  0  0  0  0  0
    8.2376  -17.3094   18.6304 C   0  0  0  0  0  0  0  0  0  0  0  0
    7.1466  -17.5556   17.9681 N   0  0  0  0  0  0  0  0  0  0  0  0
    9.4219  -18.0237   18.3499 N   0  0  0  0  0  0  0  0  0  0  0  0
   10.4939  -18.0662   19.3062 C   0  0  0  0  0  0  0  0  0  0  0  0
    9.9866  -18.6701   20.5812 C   0  0  0  0  0  0  0  0  0  0  0  0
   11.0754  -18.7527   21.6125 C   0  0  0  0  0  0  0  0  0  0  0  0
   10.8218  -17.9195   22.8179 C   0  0  2  0  0  0  0  0  0  0  0  0
    9.4906  -17.4146   22.9546 N   0  0  0  0  0  0  0  0  0  0  0  0
   11.7670  -16.7402   22.8553 C   0  0  0  0  0  0  0  0  0  0  0  0
   12.8745  -16.7282   22.2761 O   0  0  0  0  0  0  0  0  0  0  0  0
    7.1245  -18.2403   17.2007 N   0  0  0  0  0  0  0  0  0  0  0  0
   11.4261  -15.5512   23.5761 C   0  0  1  0  0  0  0  0  0  0  0  0
   11.4833  -15.4593   25.0207 C   0  0  0  0  0  0  0  0  0  0  0  0
   10.1281  -15.6504   25.6525 C   0  0  0  0  0  0  0  0  0  0  0  0
   10.1129  -15.3784   27.0892 C   0  0  0  0  0  0  0  0  0  0  0  0
    9.9364  -14.1633   27.6813 C   0  0  0  0  0  0  0  0  0  0  0  0
    9.9333  -13.9772   29.0398 C   0  0  0  0  0  0  0  0  0  0  0  0
   10.1208  -15.0923   29.8560 C   0  0  0  0  0  0  0  0  0  0  0  0
   10.3012  -16.3287   29.3064 C   0  0  0  0  0  0  0  0  0  0  0  0
   10.2972  -16.4681   27.9471 C   0  0  0  0  0  0  0  0  0  0  0  0
   12.5169  -16.3580   25.5903 O   0  0  0  0  0  0  0  0  0  0  0  0
   12.5002  -17.5633   25.2764 O   0  0  0  0  0  0  0  0  0  0  0  0
  2 13  1  0
  2  1  1  1
  3  2  1  0
  4  3  1  0
  4  5  2  0
  6  5  1  0
  7 12  2  0
  7  6  1  0
  8  7  1  0
  9 10  1  0
  9  8  2  0
 10 11  2  0
 11 12  1  0
 12  4  1  0
 13 14  2  0
 16 15  1  0
 16 18  1  0
 17 16  2  0
 19 18  1  0
 19 20  1  0
 21 20  1  0
 22 21  1  6
 23 22  1  0
 23 13  1  0
 24 25  2  0
 24 22  1  0
 26 24  1  0
 27 35  1  0
 27 26  1  0
 27 28  1  1
 29 28  1  0
 30 29  2  0
 31 30  1  0
 32 31  2  0
 32 33  1  0
 33 34  2  0
 34 29  1  0
 35 37  1  0
 36 35  2  0
M  END
$$$$
