WRF.pdb
     RDKit          3D

 37 39  0  0  1  0  0  0  0  0999 V2000
    6.5680  -17.8204   20.8956 N   0  0  0  0  0  0  0  0  0  0  0  0
    7.8551  -17.3809   21.2810 C   0  0  1  0  0  0  0  0  0  0  0  0
    7.9395  -15.9874   21.8501 C   0  0  0  0  0  0  0  0  0  0  0  0
    7.5114  -14.9978   20.8433 C   0  0  0  0  0  0  0  0  0  0  0  0
    6.2296  -14.4645   20.7299 C   0  0  0  0  0  0  0  0  0  0  0  0
    6.1999  -13.5820   19.7240 N   0  0  0  0  0  0  0  0  0  0  0  0
    7.4126  -13.5063   19.1613 C   0  0  0  0  0  0  0  0  0  0  0  0
    7.8980  -12.7569   18.0967 C   0  0  0  0  0  0  0  0  0  0  0  0
    9.2135  -12.9149   17.7522 C   0  0  0  0  0  0  0  0  0  0  0  0
   10.0578  -13.7877   18.4260 C   0  0  0  0  0  0  0  0  0  0  0  0
    9.5677  -14.5237   19.4772 C   0  0  0  0  0  0  0  0  0  0  0  0
    8.2471  -14.3890   19.8521 C   0  0  0  0  0  0  0  0  0  0  0  0
    8.5404  -18.3285   22.2094 C   0  0  0  0  0  0  0  0  0  0  0  0
    7.9303  -18.6779   23.2723 O   0  0  0  0  0  0  0  0  0  0  0  0
   16.4553  -20.2689   19.6283 N   0  0  0  0  0  0  0  0  0  0  0  0
   16.1837  -18.9139   19.9216 C   0  0  0  0  0  0  0  0  0  0  0  0
   17.0524  -18.0072   19.5854 N   0  0  0  0  0  0  0  0  0  0  0  0
   14.9843  -18.5504   20.5703 N   0  0  0  0  0  0  0  0  0  0  0  0
   14.1101  -19.5565   21.1081 C   0  0  0  0  0  0  0  0  0  0  0  0
   12.9083  -18.8892   21.7066 C   0  0  0  0  0  0  0  0  0  0  0  0
   11.9820  -19.8961   22.3264 C   0  0  0  0  0  0  0  0  0  0  0  0
   10.7184  -19.3069   22.8441 C   0  0  2  0  0  0  0  0  0  0  0  0
    9.8265  -18.7845   21.8556 N   0  0  0  0  0  0  0  0  0  0  0  0
   11.0149  -18.1981   23.8280 C   0  0  0  0  0  0  0  0  0  0  0  0
   11.5063  -17.0978   23.4962 O   0  0  0  0  0  0  0  0  0  0  0  0
   16.9542  -17.0284   19.8863 N   0  0  0  0  0  0  0  0  0  0  0  0
   10.7384  -18.3636   25.2229 C   0  0  1  0  0  0  0  0  0  0  0  0
   10.9557  -17.3173   26.2009 C   0  0  0  0  0  0  0  0  0  0  0  0
    9.6619  -16.6890   26.6522 C   0  0  0  0  0  0  0  0  0  0  0  0
    9.8426  -15.6482   27.6632 C   0  0  0  0  0  0  0  0  0  0  0  0
   10.1304  -15.8413   28.9816 C   0  0  0  0  0  0  0  0  0  0  0  0
   10.2872  -14.8170   29.8795 C   0  0  0  0  0  0  0  0  0  0  0  0
   10.1439  -13.5095   29.4161 C   0  0  0  0  0  0  0  0  0  0  0  0
    9.8558  -13.2691   28.1036 C   0  0  0  0  0  0  0  0  0  0  0  0
    9.7079  -14.3203   27.2434 C   0  0  0  0  0  0  0  0  0  0  0  0
   11.7949  -17.7843   27.3314 O   0  0  0  0  0  0  0  0  0  0  0  0
   12.7495  -17.0744   27.7007 O   0  0  0  0  0  0  0  0  0  0  0  0
  2 13  1  0
  2  1  1  1
  3  2  1  0
  4  3  1  0
  4  5  2  0
  6  5  1  0
  7 12  2  0
  7  6  1  0
  8  7  1  0
  9 10  1  0
  9  8  2  0
 10 11  2  0
 11 12  1  0
 12  4  1  0
 13 14  2  0
 16 15  1  0
 16 18  1  0
 17 16  2  0
 19 18  1  0
 19 20  1  0
 21 20  1  0
 22 21  1  6
 23 22  1  0
 23 13  1  0
 24 25  2  0
 24 22  1  0
 26 24  1  0
 27 35  1  0
 27 26  1  0
 27 28  1  1
 29 28  1  0
 30 29  2  0
 31 30  1  0
 32 31  2  0
 32 33  1  0
 33 34  2  0
 34 29  1  0
 35 37  1  0
 36 35  2  0
M  END
$$$$
