WRF.pdb
     RDKit          3D

 37 39  0  0  1  0  0  0  0  0999 V2000
    7.9999  -17.7572   20.7087 N   0  0  0  0  0  0  0  0  0  0  0  0
    8.4869  -16.8226   21.6509 C   0  0  1  0  0  0  0  0  0  0  0  0
    7.4854  -15.8274   22.1797 C   0  0  0  0  0  0  0  0  0  0  0  0
    7.0627  -14.9086   21.1059 C   0  0  0  0  0  0  0  0  0  0  0  0
    5.8041  -14.8888   20.5094 C   0  0  0  0  0  0  0  0  0  0  0  0
    5.7599  -13.9167   19.5905 N   0  0  0  0  0  0  0  0  0  0  0  0
    6.9411  -13.2872   19.5503 C   0  0  0  0  0  0  0  0  0  0  0  0
    7.4051  -12.2304   18.7767 C   0  0  0  0  0  0  0  0  0  0  0  0
    8.6944  -11.8137   18.9728 C   0  0  0  0  0  0  0  0  0  0  0  0
    9.5332  -12.4088   19.9061 C   0  0  0  0  0  0  0  0  0  0  0  0
    9.0643  -13.4528   20.6657 C   0  0  0  0  0  0  0  0  0  0  0  0
    7.7699  -13.8980   20.4951 C   0  0  0  0  0  0  0  0  0  0  0  0
    9.1876  -17.4666   22.8015 C   0  0  0  0  0  0  0  0  0  0  0  0
    8.8759  -18.6651   23.1025 O   0  0  0  0  0  0  0  0  0  0  0  0
   13.8652  -17.0286   19.3862 N   0  0  0  0  0  0  0  0  0  0  0  0
   13.8849  -15.8071   20.0956 C   0  0  0  0  0  0  0  0  0  0  0  0
   13.9634  -14.6916   19.4330 N   0  0  0  0  0  0  0  0  0  0  0  0
   13.8190  -15.7991   21.5053 N   0  0  0  0  0  0  0  0  0  0  0  0
   13.9266  -17.0242   22.2491 C   0  0  0  0  0  0  0  0  0  0  0  0
   12.5498  -17.5507   22.5236 C   0  0  0  0  0  0  0  0  0  0  0  0
   12.3345  -17.7634   23.9948 C   0  0  0  0  0  0  0  0  0  0  0  0
   10.9995  -17.3169   24.4744 C   0  0  2  0  0  0  0  0  0  0  0  0
   10.1574  -16.7102   23.4903 N   0  0  0  0  0  0  0  0  0  0  0  0
   11.1471  -16.3401   25.6188 C   0  0  0  0  0  0  0  0  0  0  0  0
   12.1186  -15.5629   25.7382 O   0  0  0  0  0  0  0  0  0  0  0  0
   13.9010  -13.7791   19.9039 N   0  0  0  0  0  0  0  0  0  0  0  0
   10.1527  -16.2595   26.6455 C   0  0  1  0  0  0  0  0  0  0  0  0
   10.4037  -15.6678   27.9437 C   0  0  0  0  0  0  0  0  0  0  0  0
    9.3802  -14.6177   28.2929 C   0  0  0  0  0  0  0  0  0  0  0  0
    8.7010  -14.0569   27.1256 C   0  0  0  0  0  0  0  0  0  0  0  0
    9.2701  -13.3040   26.1420 C   0  0  0  0  0  0  0  0  0  0  0  0
    8.5731  -12.8071   25.0708 C   0  0  0  0  0  0  0  0  0  0  0  0
    7.2099  -13.0888   24.9863 C   0  0  0  0  0  0  0  0  0  0  0  0
    6.5982  -13.8391   25.9487 C   0  0  0  0  0  0  0  0  0  0  0  0
    7.3316  -14.3140   26.9992 C   0  0  0  0  0  0  0  0  0  0  0  0
   10.5557  -16.6983   28.9998 O   0  0  0  0  0  0  0  0  0  0  0  0
   10.9213  -16.3412   30.1357 O   0  0  0  0  0  0  0  0  0  0  0  0
  2 13  1  0
  2  1  1  1
  3  2  1  0
  4  3  1  0
  4  5  2  0
  6  5  1  0
  7 12  2  0
  7  6  1  0
  8  7  1  0
  9 10  1  0
  9  8  2  0
 10 11  2  0
 11 12  1  0
 12  4  1  0
 13 14  2  0
 16 15  1  0
 16 18  1  0
 17 16  2  0
 19 18  1  0
 19 20  1  0
 21 20  1  0
 22 21  1  6
 23 22  1  0
 23 13  1  0
 24 25  2  0
 24 22  1  0
 26 24  1  0
 27 35  1  0
 27 26  1  0
 27 28  1  1
 29 28  1  0
 30 29  2  0
 31 30  1  0
 32 31  2  0
 32 33  1  0
 33 34  2  0
 34 29  1  0
 35 37  1  0
 36 35  2  0
M  END
$$$$
