WRF.pdb
     RDKit          3D

 37 39  0  0  1  0  0  0  0  0999 V2000
    6.3945  -18.4755   23.4876 N   0  0  0  0  0  0  0  0  0  0  0  0
    7.1537  -17.3143   23.7590 C   0  0  1  0  0  0  0  0  0  0  0  0
    7.2262  -16.8894   25.2037 C   0  0  0  0  0  0  0  0  0  0  0  0
    6.2995  -15.7693   25.4537 C   0  0  0  0  0  0  0  0  0  0  0  0
    5.1408  -15.8367   26.2238 C   0  0  0  0  0  0  0  0  0  0  0  0
    4.5543  -14.6340   26.2554 N   0  0  0  0  0  0  0  0  0  0  0  0
    5.2769  -13.7665   25.5355 C   0  0  0  0  0  0  0  0  0  0  0  0
    5.0981  -12.4179   25.2525 C   0  0  0  0  0  0  0  0  0  0  0  0
    6.0305  -11.8027   24.4611 C   0  0  0  0  0  0  0  0  0  0  0  0
    7.1280  -12.4788   23.9442 C   0  0  0  0  0  0  0  0  0  0  0  0
    7.2952  -13.8118   24.2303 C   0  0  0  0  0  0  0  0  0  0  0  0
    6.3754  -14.4634   25.0253 C   0  0  0  0  0  0  0  0  0  0  0  0
    8.5369  -17.3789   23.2003 C   0  0  0  0  0  0  0  0  0  0  0  0
    9.0751  -18.5249   23.0548 O   0  0  0  0  0  0  0  0  0  0  0  0
    7.4606  -14.3873   18.9519 N   0  0  0  0  0  0  0  0  0  0  0  0
    8.1668  -13.3841   18.2513 C   0  0  0  0  0  0  0  0  0  0  0  0
    7.5447  -12.6849   17.3493 N   0  0  0  0  0  0  0  0  0  0  0  0
    9.5295  -13.1443   18.5289 N   0  0  0  0  0  0  0  0  0  0  0  0
   10.0138  -13.1600   19.8819 C   0  0  0  0  0  0  0  0  0  0  0  0
    9.6908  -14.4871   20.5003 C   0  0  0  0  0  0  0  0  0  0  0  0
   10.7690  -14.9175   21.4533 C   0  0  0  0  0  0  0  0  0  0  0  0
   10.4406  -16.1564   22.2077 C   0  0  2  0  0  0  0  0  0  0  0  0
    9.1699  -16.1651   22.8639 N   0  0  0  0  0  0  0  0  0  0  0  0
   11.4986  -16.4380   23.2503 C   0  0  0  0  0  0  0  0  0  0  0  0
   12.7252  -16.3608   23.0232 O   0  0  0  0  0  0  0  0  0  0  0  0
    8.0027  -11.9030   16.8624 N   0  0  0  0  0  0  0  0  0  0  0  0
   11.1323  -16.8162   24.5815 C   0  0  1  0  0  0  0  0  0  0  0  0
   12.0904  -17.2859   25.5613 C   0  0  0  0  0  0  0  0  0  0  0  0
   11.6256  -17.0312   26.9725 C   0  0  0  0  0  0  0  0  0  0  0  0
   11.3506  -15.6219   27.2487 C   0  0  0  0  0  0  0  0  0  0  0  0
   12.2745  -14.6484   27.4873 C   0  0  0  0  0  0  0  0  0  0  0  0
   11.9475  -13.3411   27.7407 C   0  0  0  0  0  0  0  0  0  0  0  0
   10.5974  -12.9924   27.7543 C   0  0  0  0  0  0  0  0  0  0  0  0
    9.6378  -13.9347   27.5204 C   0  0  0  0  0  0  0  0  0  0  0  0
   10.0089  -15.2260   27.2722 C   0  0  0  0  0  0  0  0  0  0  0  0
   12.4718  -18.7000   25.3263 O   0  0  0  0  0  0  0  0  0  0  0  0
   13.4069  -19.1855   25.9906 O   0  0  0  0  0  0  0  0  0  0  0  0
  2 13  1  0
  2  1  1  1
  3  2  1  0
  4  3  1  0
  4  5  2  0
  6  5  1  0
  7 12  2  0
  7  6  1  0
  8  7  1  0
  9 10  1  0
  9  8  2  0
 10 11  2  0
 11 12  1  0
 12  4  1  0
 13 14  2  0
 16 15  1  0
 16 18  1  0
 17 16  2  0
 19 18  1  0
 19 20  1  0
 21 20  1  0
 22 21  1  1
 23 22  1  0
 23 13  1  0
 24 25  2  0
 24 22  1  0
 26 24  1  0
 27 35  1  0
 27 26  1  0
 27 28  1  1
 29 28  1  0
 30 29  2  0
 31 30  1  0
 32 31  2  0
 32 33  1  0
 33 34  2  0
 34 29  1  0
 35 37  1  0
 36 35  2  0
M  END
$$$$
