WRF.pdb
     RDKit          3D

 37 39  0  0  1  0  0  0  0  0999 V2000
    6.1635  -18.6477   25.3416 N   0  0  0  0  0  0  0  0  0  0  0  0
    6.9025  -17.7734   24.5121 C   0  0  1  0  0  0  0  0  0  0  0  0
    7.8362  -16.8205   25.2144 C   0  0  0  0  0  0  0  0  0  0  0  0
    7.0834  -15.6719   25.7530 C   0  0  0  0  0  0  0  0  0  0  0  0
    5.7605  -15.7061   26.1878 C   0  0  0  0  0  0  0  0  0  0  0  0
    5.4047  -14.4950   26.6329 N   0  0  0  0  0  0  0  0  0  0  0  0
    6.4392  -13.6537   26.5113 C   0  0  0  0  0  0  0  0  0  0  0  0
    6.5821  -12.3061   26.8183 C   0  0  0  0  0  0  0  0  0  0  0  0
    7.7916  -11.7179   26.5623 C   0  0  0  0  0  0  0  0  0  0  0  0
    8.8573  -12.4197   26.0144 C   0  0  0  0  0  0  0  0  0  0  0  0
    8.7053  -13.7516   25.7147 C   0  0  0  0  0  0  0  0  0  0  0  0
    7.5004  -14.3767   25.9604 C   0  0  0  0  0  0  0  0  0  0  0  0
    7.6533  -18.4867   23.4364 C   0  0  0  0  0  0  0  0  0  0  0  0
    8.3212  -19.5244   23.7542 O   0  0  0  0  0  0  0  0  0  0  0  0
    8.7832  -15.7737   15.6604 N   0  0  0  0  0  0  0  0  0  0  0  0
    8.0081  -14.9580   16.5146 C   0  0  0  0  0  0  0  0  0  0  0  0
    8.1563  -13.6676   16.4634 N   0  0  0  0  0  0  0  0  0  0  0  0
    7.0847  -15.5375   17.4107 N   0  0  0  0  0  0  0  0  0  0  0  0
    7.2299  -16.9053   17.8270 C   0  0  0  0  0  0  0  0  0  0  0  0
    7.8142  -16.9357   19.2074 C   0  0  0  0  0  0  0  0  0  0  0  0
    7.9401  -18.3449   19.7116 C   0  0  0  0  0  0  0  0  0  0  0  0
    8.4601  -18.4384   21.1018 C   0  0  2  0  0  0  0  0  0  0  0  0
    7.5792  -17.9705   22.1268 N   0  0  0  0  0  0  0  0  0  0  0  0
    9.7617  -17.6805   21.2327 C   0  0  0  0  0  0  0  0  0  0  0  0
   10.7758  -17.9324   20.5470 O   0  0  0  0  0  0  0  0  0  0  0  0
    7.7071  -13.0456   17.1487 N   0  0  0  0  0  0  0  0  0  0  0  0
    9.8943  -16.6104   22.1744 C   0  0  1  0  0  0  0  0  0  0  0  0
   11.0625  -15.7563   22.2405 C   0  0  0  0  0  0  0  0  0  0  0  0
   10.6912  -14.3008   22.3665 C   0  0  0  0  0  0  0  0  0  0  0  0
    9.6733  -13.8752   21.4068 C   0  0  0  0  0  0  0  0  0  0  0  0
    8.3327  -13.7827   21.6360 C   0  0  0  0  0  0  0  0  0  0  0  0
    7.4296  -13.3753   20.6882 C   0  0  0  0  0  0  0  0  0  0  0  0
    7.9115  -13.0383   19.4237 C   0  0  0  0  0  0  0  0  0  0  0  0
    9.2465  -13.1159   19.1495 C   0  0  0  0  0  0  0  0  0  0  0  0
   10.1110  -13.5272   20.1243 C   0  0  0  0  0  0  0  0  0  0  0  0
   12.0131  -16.2016   23.2885 O   0  0  0  0  0  0  0  0  0  0  0  0
   11.6675  -17.1166   24.0598 O   0  0  0  0  0  0  0  0  0  0  0  0
  2 13  1  0
  2  1  1  1
  3  2  1  0
  4  3  1  0
  4  5  2  0
  6  5  1  0
  7 12  2  0
  7  6  1  0
  8  7  1  0
  9 10  1  0
  9  8  2  0
 10 11  2  0
 11 12  1  0
 12  4  1  0
 13 14  2  0
 16 15  1  0
 16 18  1  0
 17 16  2  0
 19 18  1  0
 19 20  1  0
 21 20  1  0
 22 21  1  6
 23 22  1  0
 23 13  1  0
 24 25  2  0
 24 22  1  0
 26 24  1  0
 27 35  1  0
 27 26  1  0
 27 28  1  6
 29 28  1  0
 30 29  2  0
 31 30  1  0
 32 31  2  0
 32 33  1  0
 33 34  2  0
 34 29  1  0
 35 37  1  0
 36 35  2  0
M  END
$$$$
