WRF.pdb
     RDKit          3D

 37 39  0  0  1  0  0  0  0  0999 V2000
    8.2512  -17.9437   20.4694 N   0  0  0  0  0  0  0  0  0  0  0  0
    9.2667  -17.1455   21.0437 C   0  0  1  0  0  0  0  0  0  0  0  0
    8.8076  -16.0573   21.9807 C   0  0  0  0  0  0  0  0  0  0  0  0
    7.9383  -15.1025   21.2675 C   0  0  0  0  0  0  0  0  0  0  0  0
    6.5573  -15.0002   21.4181 C   0  0  0  0  0  0  0  0  0  0  0  0
    6.0939  -14.0167   20.6375 N   0  0  0  0  0  0  0  0  0  0  0  0
    7.1127  -13.4589   19.9712 C   0  0  0  0  0  0  0  0  0  0  0  0
    7.1621  -12.4230   19.0464 C   0  0  0  0  0  0  0  0  0  0  0  0
    8.3844  -12.0869   18.5293 C   0  0  0  0  0  0  0  0  0  0  0  0
    9.5521  -12.7419   18.8979 C   0  0  0  0  0  0  0  0  0  0  0  0
    9.4919  -13.7645   19.8131 C   0  0  0  0  0  0  0  0  0  0  0  0
    8.2771  -14.1292   20.3552 C   0  0  0  0  0  0  0  0  0  0  0  0
   10.3300  -17.9502   21.7156 C   0  0  0  0  0  0  0  0  0  0  0  0
    9.9717  -18.9212   22.4591 O   0  0  0  0  0  0  0  0  0  0  0  0
   15.4132  -14.4158   20.1861 N   0  0  0  0  0  0  0  0  0  0  0  0
   15.5014  -14.9641   18.8871 C   0  0  0  0  0  0  0  0  0  0  0  0
   15.5177  -14.1646   17.8624 N   0  0  0  0  0  0  0  0  0  0  0  0
   15.5719  -16.3619   18.7056 N   0  0  0  0  0  0  0  0  0  0  0  0
   15.5397  -17.2484   19.8364 C   0  0  0  0  0  0  0  0  0  0  0  0
   14.1623  -17.2338   20.4286 C   0  0  0  0  0  0  0  0  0  0  0  0
   14.0795  -18.1318   21.6297 C   0  0  0  0  0  0  0  0  0  0  0  0
   12.7309  -18.1709   22.2552 C   0  0  2  0  0  0  0  0  0  0  0  0
   11.6735  -17.5893   21.4876 N   0  0  0  0  0  0  0  0  0  0  0  0
   12.7517  -17.4855   23.6026 C   0  0  0  0  0  0  0  0  0  0  0  0
   13.6682  -16.7192   23.9700 O   0  0  0  0  0  0  0  0  0  0  0  0
   15.5154  -14.5234   16.8983 N   0  0  0  0  0  0  0  0  0  0  0  0
   11.6928  -17.6894   24.5443 C   0  0  1  0  0  0  0  0  0  0  0  0
   11.5555  -16.9125   25.7592 C   0  0  0  0  0  0  0  0  0  0  0  0
   10.1890  -16.2873   25.8779 C   0  0  0  0  0  0  0  0  0  0  0  0
   10.0317  -15.4558   27.0705 C   0  0  0  0  0  0  0  0  0  0  0  0
   10.4054  -14.1516   27.2031 C   0  0  0  0  0  0  0  0  0  0  0  0
   10.2286  -13.4274   28.3540 C   0  0  0  0  0  0  0  0  0  0  0  0
    9.6348  -14.0619   29.4447 C   0  0  0  0  0  0  0  0  0  0  0  0
    9.2447  -15.3671   29.3567 C   0  0  0  0  0  0  0  0  0  0  0  0
    9.4402  -16.0509   28.1901 C   0  0  0  0  0  0  0  0  0  0  0  0
   11.9382  -17.6943   26.9603 O   0  0  0  0  0  0  0  0  0  0  0  0
   11.5330  -18.8675   27.0644 O   0  0  0  0  0  0  0  0  0  0  0  0
  2 13  1  0
  2  1  1  1
  3  2  1  0
  4  3  1  0
  4  5  2  0
  6  5  1  0
  7 12  2  0
  7  6  1  0
  8  7  1  0
  9 10  1  0
  9  8  2  0
 10 11  2  0
 11 12  1  0
 12  4  1  0
 13 14  2  0
 16 15  1  0
 16 18  1  0
 17 16  2  0
 19 18  1  0
 19 20  1  0
 21 20  1  0
 22 21  1  6
 23 22  1  0
 23 13  1  0
 24 25  2  0
 24 22  1  0
 26 24  1  0
 27 35  1  0
 27 26  1  0
 27 28  1  1
 29 28  1  0
 30 29  2  0
 31 30  1  0
 32 31  2  0
 32 33  1  0
 33 34  2  0
 34 29  1  0
 35 37  1  0
 36 35  2  0
M  END
$$$$
