KIN.pdb
     RDKit          3D

 26 25  0  0  1  0  0  0  0  0999 V2000
    7.6294  -16.4981   21.2502 N   0  0  0  0  0  0  0  0  0  0  0  0
    7.0891  -16.6495   22.5433 C   0  0  1  0  0  0  0  0  0  0  0  0
    6.9281  -18.0702   23.0010 C   0  0  0  0  0  0  0  0  0  0  0  0
    5.7394  -18.7974   22.5124 C   0  0  0  0  0  0  0  0  0  0  0  0
    5.3864  -20.0641   23.2121 C   0  0  0  0  0  0  0  0  0  0  0  0
    4.1878  -20.7788   22.6973 C   0  0  0  0  0  0  0  0  0  0  0  0
    4.1278  -20.9525   21.2856 N   0  0  0  0  0  0  0  0  0  0  0  0
    7.8858  -15.9413   23.6107 C   0  0  0  0  0  0  0  0  0  0  0  0
    9.1392  -15.9551   23.4348 O   0  0  0  0  0  0  0  0  0  0  0  0
    5.6224  -11.7441   26.1906 C   0  0  0  0  0  0  0  0  0  0  0  0
    6.7336  -12.5047   25.4873 C   0  0  0  0  0  0  0  0  0  0  0  0
    7.3802  -13.5139   26.3912 C   0  0  2  0  0  0  0  0  0  0  0  0
    8.2038  -12.8067   27.4141 C   0  0  0  0  0  0  0  0  0  0  0  0
    8.1357  -14.5840   25.6523 C   0  0  2  0  0  0  0  0  0  0  0  0
    7.2913  -15.3070   24.7280 N   0  0  0  0  0  0  0  0  0  0  0  0
    8.7163  -15.6164   26.5652 C   0  0  0  0  0  0  0  0  0  0  0  0
    8.0129  -16.5151   27.1213 O   0  0  0  0  0  0  0  0  0  0  0  0
   13.9996  -18.4440   27.8707 N   0  0  0  0  0  0  0  0  0  0  0  0
   12.5909  -18.3063   27.7372 C   0  0  0  0  0  0  0  0  0  0  0  0
   11.8968  -19.1504   28.3471 O   0  0  0  0  0  0  0  0  0  0  0  0
   11.9598  -17.2458   26.9374 C   0  0  0  0  0  0  0  0  0  0  0  0
   10.7216  -16.7591   27.6002 C   0  0  2  0  0  0  0  0  0  0  0  0
   10.0915  -15.6691   26.8776 N   0  0  0  0  0  0  0  0  0  0  0  0
   11.0964  -16.1717   28.9249 C   0  0  0  0  0  0  0  0  0  0  0  0
   10.9033  -14.7944   29.1015 O   0  0  0  0  0  0  0  0  0  0  0  0
   11.5671  -16.8015   29.8879 O   0  0  0  0  0  0  0  0  0  0  0  0
  2  1  1  6
  3  2  1  0
  4  5  1  0
  4  3  1  0
  5  6  1  0
  6  7  1  0
  8  9  2  0
  8  2  1  0
 11 10  1  0
 11 12  1  0
 12 14  1  0
 12 13  1  1
 14 15  1  6
 15  8  1  0
 16 14  1  0
 16 17  2  0
 19 21  1  0
 19 18  1  0
 20 19  2  0
 22 23  1  0
 22 21  1  6
 23 16  1  0
 24 22  1  0
 25 24  1  0
 26 24  2  0
M  END
$$$$
