KIN.pdb
     RDKit          3D

 26 25  0  0  1  0  0  0  0  0999 V2000
    7.8159  -14.6186   20.2651 N   0  0  0  0  0  0  0  0  0  0  0  0
    7.2793  -15.2563   21.4020 C   0  0  1  0  0  0  0  0  0  0  0  0
    7.2434  -16.7555   21.3305 C   0  0  0  0  0  0  0  0  0  0  0  0
    6.6206  -17.3509   20.1313 C   0  0  0  0  0  0  0  0  0  0  0  0
    6.4632  -18.8320   20.1156 C   0  0  0  0  0  0  0  0  0  0  0  0
    5.9028  -19.4129   18.8661 C   0  0  0  0  0  0  0  0  0  0  0  0
    5.6132  -20.8061   18.9051 N   0  0  0  0  0  0  0  0  0  0  0  0
    7.9986  -14.9037   22.6803 C   0  0  0  0  0  0  0  0  0  0  0  0
    9.2449  -14.7220   22.5556 O   0  0  0  0  0  0  0  0  0  0  0  0
    5.9853  -11.4389   26.2511 C   0  0  0  0  0  0  0  0  0  0  0  0
    6.9257  -12.2350   25.3623 C   0  0  0  0  0  0  0  0  0  0  0  0
    7.3720  -13.5091   26.0190 C   0  0  2  0  0  0  0  0  0  0  0  0
    8.1196  -13.1867   27.2687 C   0  0  0  0  0  0  0  0  0  0  0  0
    8.1216  -14.4294   25.0954 C   0  0  2  0  0  0  0  0  0  0  0  0
    7.3434  -14.7828   23.9294 N   0  0  0  0  0  0  0  0  0  0  0  0
    8.4914  -15.7245   25.7452 C   0  0  0  0  0  0  0  0  0  0  0  0
    7.6298  -16.5917   26.0875 O   0  0  0  0  0  0  0  0  0  0  0  0
   12.2905  -17.1190   23.7403 N   0  0  0  0  0  0  0  0  0  0  0  0
   11.5290  -17.9470   24.6097 C   0  0  0  0  0  0  0  0  0  0  0  0
   10.8198  -18.8174   24.0569 O   0  0  0  0  0  0  0  0  0  0  0  0
   11.5539  -17.8116   26.0738 C   0  0  0  0  0  0  0  0  0  0  0  0
   10.2306  -17.3611   26.5788 C   0  0  2  0  0  0  0  0  0  0  0  0
    9.8276  -16.0803   26.0271 N   0  0  0  0  0  0  0  0  0  0  0  0
   10.3453  -17.1223   28.0520 C   0  0  0  0  0  0  0  0  0  0  0  0
   10.6230  -18.2276   28.8684 O   0  0  0  0  0  0  0  0  0  0  0  0
   10.2147  -16.0234   28.6186 O   0  0  0  0  0  0  0  0  0  0  0  0
  2  1  1  6
  3  2  1  0
  4  5  1  0
  4  3  1  0
  5  6  1  0
  6  7  1  0
  8  9  2  0
  8  2  1  0
 11 10  1  0
 11 12  1  0
 12 14  1  0
 12 13  1  1
 14 15  1  6
 15  8  1  0
 16 14  1  0
 16 17  2  0
 19 21  1  0
 19 18  1  0
 20 19  2  0
 22 23  1  0
 22 21  1  6
 23 16  1  0
 24 22  1  0
 25 24  1  0
 26 24  2  0
M  END
$$$$
