KIN.pdb
     RDKit          3D

 26 25  0  0  1  0  0  0  0  0999 V2000
    9.6084  -18.1704   16.5834 N   0  0  0  0  0  0  0  0  0  0  0  0
    8.6511  -17.8540   17.5684 C   0  0  1  0  0  0  0  0  0  0  0  0
    8.0713  -19.0349   18.2918 C   0  0  0  0  0  0  0  0  0  0  0  0
    7.6708  -20.1916   17.4660 C   0  0  0  0  0  0  0  0  0  0  0  0
    6.9286  -21.2868   18.1504 C   0  0  0  0  0  0  0  0  0  0  0  0
    6.5287  -22.4352   17.2938 C   0  0  0  0  0  0  0  0  0  0  0  0
    5.7095  -22.1180   16.1736 N   0  0  0  0  0  0  0  0  0  0  0  0
    9.1714  -16.9138   18.6273 C   0  0  0  0  0  0  0  0  0  0  0  0
   10.4329  -16.8538   18.7106 O   0  0  0  0  0  0  0  0  0  0  0  0
    6.7594  -12.1026   19.9178 C   0  0  0  0  0  0  0  0  0  0  0  0
    7.8124  -13.1526   19.6068 C   0  0  0  0  0  0  0  0  0  0  0  0
    8.0215  -14.0937   20.7575 C   0  0  2  0  0  0  0  0  0  0  0  0
    8.4613  -13.3213   21.9553 C   0  0  0  0  0  0  0  0  0  0  0  0
    8.9238  -15.2514   20.4294 C   0  0  2  0  0  0  0  0  0  0  0  0
    8.3260  -16.1525   19.4699 N   0  0  0  0  0  0  0  0  0  0  0  0
    9.2482  -16.0881   21.6256 C   0  0  0  0  0  0  0  0  0  0  0  0
    8.4212  -16.9037   22.1380 O   0  0  0  0  0  0  0  0  0  0  0  0
   11.9052  -18.7670   25.1861 N   0  0  0  0  0  0  0  0  0  0  0  0
   12.8309  -18.0493   24.3802 C   0  0  0  0  0  0  0  0  0  0  0  0
   14.0403  -18.2064   24.6614 O   0  0  0  0  0  0  0  0  0  0  0  0
   12.4207  -17.1687   23.2762 C   0  0  0  0  0  0  0  0  0  0  0  0
   10.9446  -16.9952   23.2681 C   0  0  2  0  0  0  0  0  0  0  0  0
   10.4996  -16.0338   22.2756 N   0  0  0  0  0  0  0  0  0  0  0  0
   10.5326  -16.4058   24.5809 C   0  0  0  0  0  0  0  0  0  0  0  0
   10.0772  -15.0799   24.5821 O   0  0  0  0  0  0  0  0  0  0  0  0
   10.5594  -16.9922   25.6768 O   0  0  0  0  0  0  0  0  0  0  0  0
  2  1  1  6
  3  2  1  0
  4  5  1  0
  4  3  1  0
  5  6  1  0
  6  7  1  0
  8  9  2  0
  8  2  1  0
 11 10  1  0
 11 12  1  0
 12 14  1  0
 12 13  1  1
 14 15  1  6
 15  8  1  0
 16 14  1  0
 16 17  2  0
 19 21  1  0
 19 18  1  0
 20 19  2  0
 22 23  1  0
 22 21  1  1
 23 16  1  0
 24 22  1  0
 25 24  1  0
 26 24  2  0
M  END
$$$$
