KIN.pdb
     RDKit          3D

 26 25  0  0  1  0  0  0  0  0999 V2000
    8.3386  -15.0685   20.7036 N   0  0  0  0  0  0  0  0  0  0  0  0
    7.7933  -15.6221   21.8796 C   0  0  1  0  0  0  0  0  0  0  0  0
    7.8651  -17.1191   21.9683 C   0  0  0  0  0  0  0  0  0  0  0  0
    7.1768  -17.8834   20.9088 C   0  0  0  0  0  0  0  0  0  0  0  0
    7.9974  -18.3106   19.7413 C   0  0  0  0  0  0  0  0  0  0  0  0
    7.3236  -19.2117   18.7683 C   0  0  0  0  0  0  0  0  0  0  0  0
    6.9291  -18.6129   17.5386 N   0  0  0  0  0  0  0  0  0  0  0  0
    8.4238  -15.0857   23.1408 C   0  0  0  0  0  0  0  0  0  0  0  0
    9.6715  -14.8862   23.0674 O   0  0  0  0  0  0  0  0  0  0  0  0
    5.8279  -11.5133   26.2824 C   0  0  0  0  0  0  0  0  0  0  0  0
    6.9159  -12.2353   25.5059 C   0  0  0  0  0  0  0  0  0  0  0  0
    7.4980  -13.3770   26.2878 C   0  0  2  0  0  0  0  0  0  0  0  0
    8.1646  -12.8491   27.5132 C   0  0  0  0  0  0  0  0  0  0  0  0
    8.3815  -14.2767   25.4681 C   0  0  2  0  0  0  0  0  0  0  0  0
    7.6894  -14.8222   24.3221 N   0  0  0  0  0  0  0  0  0  0  0  0
    8.8810  -15.4557   26.2406 C   0  0  0  0  0  0  0  0  0  0  0  0
    8.1090  -16.3528   26.6999 O   0  0  0  0  0  0  0  0  0  0  0  0
   13.3040  -16.4287   24.6635 N   0  0  0  0  0  0  0  0  0  0  0  0
   12.3438  -17.1899   25.3845 C   0  0  0  0  0  0  0  0  0  0  0  0
   11.6189  -17.9474   24.7012 O   0  0  0  0  0  0  0  0  0  0  0  0
   12.1895  -17.1122   26.8449 C   0  0  0  0  0  0  0  0  0  0  0  0
   10.7768  -16.8241   27.2058 C   0  0  2  0  0  0  0  0  0  0  0  0
   10.2496  -15.6598   26.5175 N   0  0  0  0  0  0  0  0  0  0  0  0
   10.7259  -16.4637   28.6577 C   0  0  0  0  0  0  0  0  0  0  0  0
   11.0467  -17.4643   29.5858 O   0  0  0  0  0  0  0  0  0  0  0  0
   10.4219  -15.3486   29.1157 O   0  0  0  0  0  0  0  0  0  0  0  0
  2  1  1  6
  3  2  1  0
  4  5  1  0
  4  3  1  0
  5  6  1  0
  6  7  1  0
  8  9  2  0
  8  2  1  0
 11 10  1  0
 11 12  1  0
 12 14  1  0
 12 13  1  1
 14 15  1  6
 15  8  1  0
 16 14  1  0
 16 17  2  0
 19 21  1  0
 19 18  1  0
 20 19  2  0
 22 23  1  0
 22 21  1  6
 23 16  1  0
 24 22  1  0
 25 24  1  0
 26 24  2  0
M  END
$$$$
