KIN.pdb
     RDKit          3D

 26 25  0  0  1  0  0  0  0  0999 V2000
    6.6545  -15.8895   21.4863 N   0  0  0  0  0  0  0  0  0  0  0  0
    7.9629  -15.3756   21.3810 C   0  0  1  0  0  0  0  0  0  0  0  0
    8.1275  -14.2576   20.3926 C   0  0  0  0  0  0  0  0  0  0  0  0
    7.7345  -14.5382   18.9972 C   0  0  0  0  0  0  0  0  0  0  0  0
    8.1732  -13.5617   17.9615 C   0  0  0  0  0  0  0  0  0  0  0  0
    7.6179  -13.7680   16.5970 C   0  0  0  0  0  0  0  0  0  0  0  0
    8.1239  -12.9049   15.5843 N   0  0  0  0  0  0  0  0  0  0  0  0
    8.5159  -14.8753   22.6924 C   0  0  0  0  0  0  0  0  0  0  0  0
    9.6511  -14.3213   22.6132 O   0  0  0  0  0  0  0  0  0  0  0  0
    5.5066  -12.2589   26.2456 C   0  0  0  0  0  0  0  0  0  0  0  0
    6.6956  -12.6976   25.4078 C   0  0  0  0  0  0  0  0  0  0  0  0
    7.4324  -13.8435   26.0384 C   0  0  2  0  0  0  0  0  0  0  0  0
    8.0103  -13.4037   27.3413 C   0  0  0  0  0  0  0  0  0  0  0  0
    8.4403  -14.4843   25.1243 C   0  0  2  0  0  0  0  0  0  0  0  0
    7.8298  -15.0091   23.9235 N   0  0  0  0  0  0  0  0  0  0  0  0
    9.1447  -15.6398   25.7606 C   0  0  0  0  0  0  0  0  0  0  0  0
    9.7990  -15.5335   26.8433 O   0  0  0  0  0  0  0  0  0  0  0  0
   13.2434  -19.5972   25.5327 N   0  0  0  0  0  0  0  0  0  0  0  0
   11.8253  -19.5009   25.5640 C   0  0  0  0  0  0  0  0  0  0  0  0
   11.2256  -20.4247   26.1581 O   0  0  0  0  0  0  0  0  0  0  0  0
   11.0817  -18.3938   24.9442 C   0  0  0  0  0  0  0  0  0  0  0  0
    9.8758  -18.0613   25.7469 C   0  0  2  0  0  0  0  0  0  0  0  0
    9.1351  -16.9368   25.2046 N   0  0  0  0  0  0  0  0  0  0  0  0
   10.3225  -17.6058   27.1010 C   0  0  0  0  0  0  0  0  0  0  0  0
    9.8010  -18.2773   28.2157 O   0  0  0  0  0  0  0  0  0  0  0  0
   11.1197  -16.6786   27.3253 O   0  0  0  0  0  0  0  0  0  0  0  0
  2  1  1  1
  3  2  1  0
  4  5  1  0
  4  3  1  0
  5  6  1  0
  6  7  1  0
  8  9  2  0
  8  2  1  0
 11 10  1  0
 11 12  1  0
 12 14  1  0
 12 13  1  1
 14 15  1  6
 15  8  1  0
 16 14  1  0
 16 17  2  0
 19 21  1  0
 19 18  1  0
 20 19  2  0
 22 23  1  0
 22 21  1  6
 23 16  1  0
 24 22  1  0
 25 24  1  0
 26 24  2  0
M  END
$$$$
