KIN.pdb
     RDKit          3D

 26 25  0  0  1  0  0  0  0  0999 V2000
    8.2417  -12.7704   19.9593 N   0  0  0  0  0  0  0  0  0  0  0  0
    7.8228  -13.8749   20.7284 C   0  0  1  0  0  0  0  0  0  0  0  0
    8.2496  -15.2139   20.2003 C   0  0  0  0  0  0  0  0  0  0  0  0
    7.8842  -15.5272   18.8043 C   0  0  0  0  0  0  0  0  0  0  0  0
    6.4311  -15.5791   18.4809 C   0  0  0  0  0  0  0  0  0  0  0  0
    6.0894  -15.9552   17.0829 C   0  0  0  0  0  0  0  0  0  0  0  0
    6.7517  -15.2164   16.0621 N   0  0  0  0  0  0  0  0  0  0  0  0
    8.2822  -13.8123   22.1639 C   0  0  0  0  0  0  0  0  0  0  0  0
    9.4992  -13.5010   22.3189 O   0  0  0  0  0  0  0  0  0  0  0  0
    5.7236  -11.3124   26.1286 C   0  0  0  0  0  0  0  0  0  0  0  0
    6.8041  -11.9126   25.2453 C   0  0  0  0  0  0  0  0  0  0  0  0
    7.0544  -13.3567   25.5700 C   0  0  2  0  0  0  0  0  0  0  0  0
    7.4951  -13.4758   26.9900 C   0  0  0  0  0  0  0  0  0  0  0  0
    7.9786  -14.0385   24.5989 C   0  0  2  0  0  0  0  0  0  0  0  0
    7.4297  -14.0794   23.2621 N   0  0  0  0  0  0  0  0  0  0  0  0
    8.2570  -15.4608   24.9678 C   0  0  0  0  0  0  0  0  0  0  0  0
    7.3463  -16.3423   25.0404 O   0  0  0  0  0  0  0  0  0  0  0  0
   12.1859  -16.3771   23.1821 N   0  0  0  0  0  0  0  0  0  0  0  0
   11.3577  -17.4227   23.6744 C   0  0  0  0  0  0  0  0  0  0  0  0
   10.7462  -18.0909   22.8108 O   0  0  0  0  0  0  0  0  0  0  0  0
   11.2098  -17.7235   25.1062 C   0  0  0  0  0  0  0  0  0  0  0  0
    9.8670  -17.3097   25.5904 C   0  0  2  0  0  0  0  0  0  0  0  0
    9.5546  -15.9304   25.2631 N   0  0  0  0  0  0  0  0  0  0  0  0
    9.8715  -17.3546   27.0865 C   0  0  0  0  0  0  0  0  0  0  0  0
   10.0141  -18.6084   27.6973 O   0  0  0  0  0  0  0  0  0  0  0  0
    9.7589  -16.3718   27.8397 O   0  0  0  0  0  0  0  0  0  0  0  0
  2  1  1  6
  3  2  1  0
  4  5  1  0
  4  3  1  0
  5  6  1  0
  6  7  1  0
  8  9  2  0
  8  2  1  0
 11 10  1  0
 11 12  1  0
 12 14  1  0
 12 13  1  1
 14 15  1  6
 15  8  1  0
 16 14  1  0
 16 17  2  0
 19 21  1  0
 19 18  1  0
 20 19  2  0
 22 23  1  0
 22 21  1  1
 23 16  1  0
 24 22  1  0
 25 24  1  0
 26 24  2  0
M  END
$$$$
