KIN.pdb
     RDKit          3D

 26 25  0  0  1  0  0  0  0  0999 V2000
   10.3067  -17.8949   16.6527 N   0  0  0  0  0  0  0  0  0  0  0  0
    9.5722  -18.1188   17.8347 C   0  0  1  0  0  0  0  0  0  0  0  0
    9.7619  -19.4739   18.4523 C   0  0  0  0  0  0  0  0  0  0  0  0
    8.8233  -20.5344   18.0340 C   0  0  0  0  0  0  0  0  0  0  0  0
    8.9668  -21.8629   18.6923 C   0  0  0  0  0  0  0  0  0  0  0  0
    8.0227  -22.9187   18.2380 C   0  0  0  0  0  0  0  0  0  0  0  0
    7.8646  -23.0452   16.8289 N   0  0  0  0  0  0  0  0  0  0  0  0
    9.8598  -17.1085   18.9175 C   0  0  0  0  0  0  0  0  0  0  0  0
   11.0661  -16.7311   18.9848 O   0  0  0  0  0  0  0  0  0  0  0  0
    6.4594  -12.9787   20.1264 C   0  0  0  0  0  0  0  0  0  0  0  0
    7.6695  -13.8484   19.8311 C   0  0  0  0  0  0  0  0  0  0  0  0
    8.0914  -14.6466   21.0304 C   0  0  2  0  0  0  0  0  0  0  0  0
    8.3524  -13.7236   22.1727 C   0  0  0  0  0  0  0  0  0  0  0  0
    9.2293  -15.5901   20.7531 C   0  0  2  0  0  0  0  0  0  0  0  0
    8.8678  -16.6129   19.7975 N   0  0  0  0  0  0  0  0  0  0  0  0
    9.6861  -16.3194   21.9761 C   0  0  0  0  0  0  0  0  0  0  0  0
    8.9677  -17.1810   22.5704 O   0  0  0  0  0  0  0  0  0  0  0  0
   13.7015  -18.2378   22.4835 N   0  0  0  0  0  0  0  0  0  0  0  0
   13.7279  -16.9151   23.0043 C   0  0  0  0  0  0  0  0  0  0  0  0
   14.5661  -16.1401   22.4915 O   0  0  0  0  0  0  0  0  0  0  0  0
   12.8359  -16.4577   24.0803 C   0  0  0  0  0  0  0  0  0  0  0  0
   11.4213  -16.7802   23.7580 C   0  0  2  0  0  0  0  0  0  0  0  0
   10.9518  -16.1044   22.5621 N   0  0  0  0  0  0  0  0  0  0  0  0
   10.5554  -16.2522   24.8588 C   0  0  0  0  0  0  0  0  0  0  0  0
   10.2863  -14.8764   24.8690 O   0  0  0  0  0  0  0  0  0  0  0  0
   10.0512  -16.9305   25.7706 O   0  0  0  0  0  0  0  0  0  0  0  0
  2  1  1  6
  3  2  1  0
  4  5  1  0
  4  3  1  0
  5  6  1  0
  6  7  1  0
  8  9  2  0
  8  2  1  0
 11 10  1  0
 11 12  1  0
 12 14  1  0
 12 13  1  1
 14 15  1  6
 15  8  1  0
 16 14  1  0
 16 17  2  0
 19 21  1  0
 19 18  1  0
 20 19  2  0
 22 23  1  0
 22 21  1  1
 23 16  1  0
 24 22  1  0
 25 24  1  0
 26 24  2  0
M  END
$$$$
