KIN.pdb
     RDKit          3D

 26 25  0  0  1  0  0  0  0  0999 V2000
    7.3853  -15.3502   20.7950 N   0  0  0  0  0  0  0  0  0  0  0  0
    7.1035  -15.9584   22.0351 C   0  0  1  0  0  0  0  0  0  0  0  0
    7.3079  -17.4452   22.0733 C   0  0  0  0  0  0  0  0  0  0  0  0
    6.4714  -18.2566   21.1665 C   0  0  0  0  0  0  0  0  0  0  0  0
    6.5432  -19.7362   21.3228 C   0  0  0  0  0  0  0  0  0  0  0  0
    5.6627  -20.5283   20.4229 C   0  0  0  0  0  0  0  0  0  0  0  0
    4.2677  -20.4542   20.6970 N   0  0  0  0  0  0  0  0  0  0  0  0
    7.9039  -15.3846   23.1778 C   0  0  0  0  0  0  0  0  0  0  0  0
    9.1240  -15.1713   22.9171 O   0  0  0  0  0  0  0  0  0  0  0  0
    5.6766  -11.7412   26.3911 C   0  0  0  0  0  0  0  0  0  0  0  0
    6.7286  -12.4501   25.5552 C   0  0  0  0  0  0  0  0  0  0  0  0
    7.4189  -13.5365   26.3278 C   0  0  2  0  0  0  0  0  0  0  0  0
    8.2466  -12.9265   27.4083 C   0  0  0  0  0  0  0  0  0  0  0  0
    8.1843  -14.4967   25.4594 C   0  0  2  0  0  0  0  0  0  0  0  0
    7.3470  -15.1024   24.4484 N   0  0  0  0  0  0  0  0  0  0  0  0
    8.7731  -15.6325   26.2337 C   0  0  0  0  0  0  0  0  0  0  0  0
    8.0638  -16.4642   26.8794 O   0  0  0  0  0  0  0  0  0  0  0  0
   12.9217  -16.4446   24.2661 N   0  0  0  0  0  0  0  0  0  0  0  0
   12.1924  -17.3581   25.0755 C   0  0  0  0  0  0  0  0  0  0  0  0
   11.5749  -18.2596   24.4655 O   0  0  0  0  0  0  0  0  0  0  0  0
   12.1486  -17.2728   26.5430 C   0  0  0  0  0  0  0  0  0  0  0  0
   10.7670  -16.9827   27.0079 C   0  0  2  0  0  0  0  0  0  0  0  0
   10.1631  -15.8654   26.3050 N   0  0  0  0  0  0  0  0  0  0  0  0
   10.8339  -16.5425   28.4369 C   0  0  0  0  0  0  0  0  0  0  0  0
   11.2539  -17.4843   29.3866 O   0  0  0  0  0  0  0  0  0  0  0  0
   10.5476  -15.4084   28.8582 O   0  0  0  0  0  0  0  0  0  0  0  0
  2  1  1  6
  3  2  1  0
  4  5  1  0
  4  3  1  0
  5  6  1  0
  6  7  1  0
  8  9  2  0
  8  2  1  0
 11 10  1  0
 11 12  1  0
 12 14  1  0
 12 13  1  1
 14 15  1  6
 15  8  1  0
 16 14  1  0
 16 17  2  0
 19 21  1  0
 19 18  1  0
 20 19  2  0
 22 23  1  0
 22 21  1  6
 23 16  1  0
 24 22  1  0
 25 24  1  0
 26 24  2  0
M  END
$$$$
