KIN.pdb
     RDKit          3D

 26 25  0  0  1  0  0  0  0  0999 V2000
    9.4938  -17.8049   16.4341 N   0  0  0  0  0  0  0  0  0  0  0  0
    8.7888  -17.9714   17.6433 C   0  0  1  0  0  0  0  0  0  0  0  0
    8.8216  -19.3611   18.2104 C   0  0  0  0  0  0  0  0  0  0  0  0
    8.3107  -20.4453   17.3479 C   0  0  0  0  0  0  0  0  0  0  0  0
    8.2740  -21.8146   17.9328 C   0  0  0  0  0  0  0  0  0  0  0  0
    7.7982  -22.8954   17.0283 C   0  0  0  0  0  0  0  0  0  0  0  0
    7.8376  -24.2141   17.5629 N   0  0  0  0  0  0  0  0  0  0  0  0
    9.2572  -17.0479   18.7403 C   0  0  0  0  0  0  0  0  0  0  0  0
   10.4999  -16.8078   18.7378 O   0  0  0  0  0  0  0  0  0  0  0  0
    6.6035  -12.5026   19.9508 C   0  0  0  0  0  0  0  0  0  0  0  0
    7.7014  -13.5221   19.6991 C   0  0  0  0  0  0  0  0  0  0  0  0
    7.9387  -14.3963   20.8961 C   0  0  2  0  0  0  0  0  0  0  0  0
    8.3108  -13.5465   22.0641 C   0  0  0  0  0  0  0  0  0  0  0  0
    8.9099  -15.5154   20.6386 C   0  0  2  0  0  0  0  0  0  0  0  0
    8.3860  -16.4868   19.7048 N   0  0  0  0  0  0  0  0  0  0  0  0
    9.2483  -16.2830   21.8766 C   0  0  0  0  0  0  0  0  0  0  0  0
    8.4262  -17.0648   22.4462 O   0  0  0  0  0  0  0  0  0  0  0  0
   11.9653  -18.8283   21.9426 N   0  0  0  0  0  0  0  0  0  0  0  0
   12.8343  -18.1129   22.8112 C   0  0  0  0  0  0  0  0  0  0  0  0
   14.0556  -18.3578   22.6891 O   0  0  0  0  0  0  0  0  0  0  0  0
   12.3551  -17.1381   23.8025 C   0  0  0  0  0  0  0  0  0  0  0  0
   10.8850  -16.9539   23.6848 C   0  0  2  0  0  0  0  0  0  0  0  0
   10.5086  -16.1957   22.5055 N   0  0  0  0  0  0  0  0  0  0  0  0
   10.4212  -16.1198   24.8379 C   0  0  0  0  0  0  0  0  0  0  0  0
   10.2148  -16.7667   26.0645 O   0  0  0  0  0  0  0  0  0  0  0  0
   10.2012  -14.8967   24.8033 O   0  0  0  0  0  0  0  0  0  0  0  0
  2  1  1  6
  3  2  1  0
  4  5  1  0
  4  3  1  0
  5  6  1  0
  6  7  1  0
  8  9  2  0
  8  2  1  0
 11 10  1  0
 11 12  1  0
 12 14  1  0
 12 13  1  1
 14 15  1  6
 15  8  1  0
 16 14  1  0
 16 17  2  0
 19 21  1  0
 19 18  1  0
 20 19  2  0
 22 23  1  0
 22 21  1  1
 23 16  1  0
 24 22  1  0
 25 24  1  0
 26 24  2  0
M  END
$$$$
