KIN.pdb
     RDKit          3D

 26 25  0  0  1  0  0  0  0  0999 V2000
    8.4383  -14.8620   20.1546 N   0  0  0  0  0  0  0  0  0  0  0  0
    7.4975  -15.0212   21.1922 C   0  0  1  0  0  0  0  0  0  0  0  0
    6.9894  -16.4216   21.3783 C   0  0  0  0  0  0  0  0  0  0  0  0
    7.0009  -17.2982   20.1901 C   0  0  0  0  0  0  0  0  0  0  0  0
    7.6097  -18.6481   20.3513 C   0  0  0  0  0  0  0  0  0  0  0  0
    7.5927  -19.5172   19.1442 C   0  0  0  0  0  0  0  0  0  0  0  0
    8.0789  -20.8426   19.3271 N   0  0  0  0  0  0  0  0  0  0  0  0
    8.0082  -14.5667   22.5370 C   0  0  0  0  0  0  0  0  0  0  0  0
    9.2671  -14.5973   22.6649 O   0  0  0  0  0  0  0  0  0  0  0  0
    6.5682  -11.0628   27.3994 C   0  0  0  0  0  0  0  0  0  0  0  0
    7.5182  -12.0314   26.7157 C   0  0  0  0  0  0  0  0  0  0  0  0
    6.9861  -12.4962   25.3911 C   0  0  2  0  0  0  0  0  0  0  0  0
    5.5209  -12.7496   25.5073 C   0  0  0  0  0  0  0  0  0  0  0  0
    7.7485  -13.6562   24.8121 C   0  0  2  0  0  0  0  0  0  0  0  0
    7.1573  -14.1375   23.5838 N   0  0  0  0  0  0  0  0  0  0  0  0
    7.7926  -14.8350   25.7313 C   0  0  0  0  0  0  0  0  0  0  0  0
    6.8615  -15.1009   26.5523 O   0  0  0  0  0  0  0  0  0  0  0  0
    6.9737  -19.8031   27.1098 N   0  0  0  0  0  0  0  0  0  0  0  0
    8.0429  -19.3418   26.2941 C   0  0  0  0  0  0  0  0  0  0  0  0
    9.0155  -20.1199   26.1725 O   0  0  0  0  0  0  0  0  0  0  0  0
    8.0335  -18.0340   25.6215 C   0  0  0  0  0  0  0  0  0  0  0  0
    8.8307  -17.0448   26.3929 C   0  0  2  0  0  0  0  0  0  0  0  0
    8.8739  -15.7415   25.7551 N   0  0  0  0  0  0  0  0  0  0  0  0
   10.2550  -17.5043   26.4174 C   0  0  0  0  0  0  0  0  0  0  0  0
   11.1687  -16.8284   25.5966 O   0  0  0  0  0  0  0  0  0  0  0  0
   10.7014  -18.4386   27.1055 O   0  0  0  0  0  0  0  0  0  0  0  0
  2  1  1  6
  3  2  1  0
  4  5  1  0
  4  3  1  0
  5  6  1  0
  6  7  1  0
  8  9  2  0
  8  2  1  0
 11 10  1  0
 11 12  1  0
 12 14  1  0
 12 13  1  1
 14 15  1  6
 15  8  1  0
 16 14  1  0
 16 17  2  0
 19 21  1  0
 19 18  1  0
 20 19  2  0
 22 23  1  0
 22 21  1  6
 23 16  1  0
 24 22  1  0
 25 24  1  0
 26 24  2  0
M  END
$$$$
