KIN.pdb
     RDKit          3D

 26 25  0  0  1  0  0  0  0  0999 V2000
    8.4803  -15.5064   20.5530 N   0  0  0  0  0  0  0  0  0  0  0  0
    7.7416  -15.9165   21.6813 C   0  0  1  0  0  0  0  0  0  0  0  0
    7.6060  -17.4027   21.8446 C   0  0  0  0  0  0  0  0  0  0  0  0
    7.0576  -18.1522   20.6966 C   0  0  0  0  0  0  0  0  0  0  0  0
    6.7957  -19.6044   20.8997 C   0  0  0  0  0  0  0  0  0  0  0  0
    6.1380  -20.3108   19.7679 C   0  0  0  0  0  0  0  0  0  0  0  0
    5.9681  -21.7151   19.9277 N   0  0  0  0  0  0  0  0  0  0  0  0
    8.2951  -15.3895   22.9819 C   0  0  0  0  0  0  0  0  0  0  0  0
    9.5505  -15.2288   22.9985 O   0  0  0  0  0  0  0  0  0  0  0  0
    5.4190  -11.7635   25.8332 C   0  0  0  0  0  0  0  0  0  0  0  0
    6.5462  -12.5005   25.1301 C   0  0  0  0  0  0  0  0  0  0  0  0
    7.1351  -13.5779   25.9938 C   0  0  2  0  0  0  0  0  0  0  0  0
    7.7188  -12.9644   27.2217 C   0  0  0  0  0  0  0  0  0  0  0  0
    8.0936  -14.4765   25.2620 C   0  0  2  0  0  0  0  0  0  0  0  0
    7.4854  -15.0941   24.1050 N   0  0  0  0  0  0  0  0  0  0  0  0
    8.5910  -15.6034   26.1100 C   0  0  0  0  0  0  0  0  0  0  0  0
    7.8623  -16.5899   26.4376 O   0  0  0  0  0  0  0  0  0  0  0  0
   13.6596  -18.1247   28.1096 N   0  0  0  0  0  0  0  0  0  0  0  0
   12.4684  -18.2688   27.3470 C   0  0  0  0  0  0  0  0  0  0  0  0
   11.9676  -19.4155   27.3231 O   0  0  0  0  0  0  0  0  0  0  0  0
   11.8404  -17.1553   26.6202 C   0  0  0  0  0  0  0  0  0  0  0  0
   10.5108  -16.8359   27.2026 C   0  0  2  0  0  0  0  0  0  0  0  0
    9.9095  -15.6548   26.6104 N   0  0  0  0  0  0  0  0  0  0  0  0
   10.7008  -16.4841   28.6450 C   0  0  0  0  0  0  0  0  0  0  0  0
   10.9072  -17.5369   29.5475 O   0  0  0  0  0  0  0  0  0  0  0  0
   10.6912  -15.3336   29.1160 O   0  0  0  0  0  0  0  0  0  0  0  0
  2  1  1  6
  3  2  1  0
  4  5  1  0
  4  3  1  0
  5  6  1  0
  6  7  1  0
  8  9  2  0
  8  2  1  0
 11 10  1  0
 11 12  1  0
 12 14  1  0
 12 13  1  1
 14 15  1  6
 15  8  1  0
 16 14  1  0
 16 17  2  0
 19 21  1  0
 19 18  1  0
 20 19  2  0
 22 23  1  0
 22 21  1  6
 23 16  1  0
 24 22  1  0
 25 24  1  0
 26 24  2  0
M  END
$$$$
