KIN.pdb
     RDKit          3D

 26 25  0  0  1  0  0  0  0  0999 V2000
    7.3559  -14.1455   20.4451 N   0  0  0  0  0  0  0  0  0  0  0  0
    7.0846  -15.0326   21.5065 C   0  0  1  0  0  0  0  0  0  0  0  0
    7.2776  -16.4859   21.1834 C   0  0  0  0  0  0  0  0  0  0  0  0
    6.6113  -16.9925   19.9669 C   0  0  0  0  0  0  0  0  0  0  0  0
    6.6944  -18.4575   19.7104 C   0  0  0  0  0  0  0  0  0  0  0  0
    6.0268  -18.9394   18.4716 C   0  0  0  0  0  0  0  0  0  0  0  0
    5.9549  -20.3525   18.3151 N   0  0  0  0  0  0  0  0  0  0  0  0
    7.9039  -14.7541   22.7423 C   0  0  0  0  0  0  0  0  0  0  0  0
    9.1082  -14.4345   22.5201 O   0  0  0  0  0  0  0  0  0  0  0  0
    6.1907  -11.6622   26.6672 C   0  0  0  0  0  0  0  0  0  0  0  0
    7.1542  -12.3505   25.7153 C   0  0  0  0  0  0  0  0  0  0  0  0
    7.5623  -13.7059   26.2152 C   0  0  2  0  0  0  0  0  0  0  0  0
    8.3563  -13.5532   27.4685 C   0  0  0  0  0  0  0  0  0  0  0  0
    8.2466  -14.5483   25.1739 C   0  0  2  0  0  0  0  0  0  0  0  0
    7.3797  -14.8406   24.0545 N   0  0  0  0  0  0  0  0  0  0  0  0
    8.6884  -15.8752   25.7033 C   0  0  0  0  0  0  0  0  0  0  0  0
    7.8774  -16.7327   26.1709 O   0  0  0  0  0  0  0  0  0  0  0  0
   11.2926  -19.0061   23.4368 N   0  0  0  0  0  0  0  0  0  0  0  0
   11.7849  -17.9250   24.2180 C   0  0  0  0  0  0  0  0  0  0  0  0
   12.1931  -16.9286   23.5804 O   0  0  0  0  0  0  0  0  0  0  0  0
   11.8238  -17.9487   25.6879 C   0  0  0  0  0  0  0  0  0  0  0  0
   10.5096  -17.5430   26.2513 C   0  0  2  0  0  0  0  0  0  0  0  0
   10.0419  -16.2744   25.7230 N   0  0  0  0  0  0  0  0  0  0  0  0
   10.6799  -17.3049   27.7192 C   0  0  0  0  0  0  0  0  0  0  0  0
   10.7643  -18.4288   28.5529 O   0  0  0  0  0  0  0  0  0  0  0  0
   10.7531  -16.1914   28.2673 O   0  0  0  0  0  0  0  0  0  0  0  0
  2  1  1  6
  3  2  1  0
  4  5  1  0
  4  3  1  0
  5  6  1  0
  6  7  1  0
  8  9  2  0
  8  2  1  0
 11 10  1  0
 11 12  1  0
 12 14  1  0
 12 13  1  1
 14 15  1  6
 15  8  1  0
 16 14  1  0
 16 17  2  0
 19 21  1  0
 19 18  1  0
 20 19  2  0
 22 23  1  0
 22 21  1  6
 23 16  1  0
 24 22  1  0
 25 24  1  0
 26 24  2  0
M  END
$$$$
