KIN.pdb
     RDKit          3D

 26 25  0  0  1  0  0  0  0  0999 V2000
    7.7515  -14.8537   20.7121 N   0  0  0  0  0  0  0  0  0  0  0  0
    7.3751  -15.4990   21.9075 C   0  0  1  0  0  0  0  0  0  0  0  0
    7.5331  -16.9919   21.8992 C   0  0  0  0  0  0  0  0  0  0  0  0
    7.4102  -17.6680   20.5923 C   0  0  0  0  0  0  0  0  0  0  0  0
    7.5019  -19.1547   20.5885 C   0  0  0  0  0  0  0  0  0  0  0  0
    7.3003  -19.8151   19.2710 C   0  0  0  0  0  0  0  0  0  0  0  0
    7.4255  -21.2331   19.2621 N   0  0  0  0  0  0  0  0  0  0  0  0
    8.1190  -14.9943   23.1190 C   0  0  0  0  0  0  0  0  0  0  0  0
    9.3680  -14.8658   22.9597 O   0  0  0  0  0  0  0  0  0  0  0  0
    5.6986  -11.5147   26.6030 C   0  0  0  0  0  0  0  0  0  0  0  0
    6.6733  -12.2048   25.6640 C   0  0  0  0  0  0  0  0  0  0  0  0
    7.4436  -13.2914   26.3564 C   0  0  2  0  0  0  0  0  0  0  0  0
    8.2306  -12.7028   27.4784 C   0  0  0  0  0  0  0  0  0  0  0  0
    8.2718  -14.1290   25.4212 C   0  0  2  0  0  0  0  0  0  0  0  0
    7.4827  -14.6854   24.3453 N   0  0  0  0  0  0  0  0  0  0  0  0
    8.9100  -15.2968   26.1033 C   0  0  0  0  0  0  0  0  0  0  0  0
    8.2399  -16.2643   26.5794 O   0  0  0  0  0  0  0  0  0  0  0  0
   13.2990  -15.6621   24.3770 N   0  0  0  0  0  0  0  0  0  0  0  0
   12.4983  -16.6249   25.0503 C   0  0  0  0  0  0  0  0  0  0  0  0
   11.8860  -17.4363   24.3203 O   0  0  0  0  0  0  0  0  0  0  0  0
   12.3784  -16.6871   26.5146 C   0  0  0  0  0  0  0  0  0  0  0  0
   10.9601  -16.5268   26.9293 C   0  0  2  0  0  0  0  0  0  0  0  0
   10.3067  -15.4112   26.2692 N   0  0  0  0  0  0  0  0  0  0  0  0
   10.9317  -16.1780   28.3846 C   0  0  0  0  0  0  0  0  0  0  0  0
   10.5986  -14.8606   28.7293 O   0  0  0  0  0  0  0  0  0  0  0  0
   11.1792  -16.9585   29.3201 O   0  0  0  0  0  0  0  0  0  0  0  0
  2  1  1  6
  3  2  1  0
  4  5  1  0
  4  3  1  0
  5  6  1  0
  6  7  1  0
  8  9  2  0
  8  2  1  0
 11 10  1  0
 11 12  1  0
 12 14  1  0
 12 13  1  1
 14 15  1  6
 15  8  1  0
 16 14  1  0
 16 17  2  0
 19 21  1  0
 19 18  1  0
 20 19  2  0
 22 23  1  0
 22 21  1  6
 23 16  1  0
 24 22  1  0
 25 24  1  0
 26 24  2  0
M  END
$$$$
