KIN.pdb
     RDKit          3D

 26 25  0  0  1  0  0  0  0  0999 V2000
    8.4611  -14.9744   20.2864 N   0  0  0  0  0  0  0  0  0  0  0  0
    7.7956  -15.5685   21.3777 C   0  0  1  0  0  0  0  0  0  0  0  0
    7.7289  -17.0679   21.3399 C   0  0  0  0  0  0  0  0  0  0  0  0
    7.5771  -17.6951   20.0118 C   0  0  0  0  0  0  0  0  0  0  0  0
    7.4115  -19.1750   19.9776 C   0  0  0  0  0  0  0  0  0  0  0  0
    7.2394  -19.7788   18.6291 C   0  0  0  0  0  0  0  0  0  0  0  0
    6.9746  -21.1773   18.6047 N   0  0  0  0  0  0  0  0  0  0  0  0
    8.3898  -15.1979   22.7138 C   0  0  0  0  0  0  0  0  0  0  0  0
    9.6550  -15.1820   22.7463 O   0  0  0  0  0  0  0  0  0  0  0  0
    5.7741  -11.6585   25.8642 C   0  0  0  0  0  0  0  0  0  0  0  0
    6.9417  -12.3316   25.1629 C   0  0  0  0  0  0  0  0  0  0  0  0
    7.4023  -13.5587   25.8949 C   0  0  2  0  0  0  0  0  0  0  0  0
    8.0325  -13.1579   27.1860 C   0  0  0  0  0  0  0  0  0  0  0  0
    8.2691  -14.4635   25.0630 C   0  0  2  0  0  0  0  0  0  0  0  0
    7.6056  -14.8902   23.8515 N   0  0  0  0  0  0  0  0  0  0  0  0
    8.6507  -15.7185   25.7812 C   0  0  0  0  0  0  0  0  0  0  0  0
    7.8061  -16.6111   26.1002 O   0  0  0  0  0  0  0  0  0  0  0  0
   13.4696  -19.0562   27.5674 N   0  0  0  0  0  0  0  0  0  0  0  0
   12.1870  -18.9034   26.9733 C   0  0  0  0  0  0  0  0  0  0  0  0
   11.4188  -19.8870   27.0657 O   0  0  0  0  0  0  0  0  0  0  0  0
   11.7617  -17.6751   26.2855 C   0  0  0  0  0  0  0  0  0  0  0  0
   10.4079  -17.2641   26.7410 C   0  0  2  0  0  0  0  0  0  0  0  0
    9.9798  -16.0051   26.1588 N   0  0  0  0  0  0  0  0  0  0  0  0
   10.4660  -17.0025   28.2137 C   0  0  0  0  0  0  0  0  0  0  0  0
   10.3045  -18.0978   29.0737 O   0  0  0  0  0  0  0  0  0  0  0  0
   10.6455  -15.8926   28.7443 O   0  0  0  0  0  0  0  0  0  0  0  0
  2  1  1  6
  3  2  1  0
  4  5  1  0
  4  3  1  0
  5  6  1  0
  6  7  1  0
  8  9  2  0
  8  2  1  0
 11 10  1  0
 11 12  1  0
 12 14  1  0
 12 13  1  1
 14 15  1  6
 15  8  1  0
 16 14  1  0
 16 17  2  0
 19 21  1  0
 19 18  1  0
 20 19  2  0
 22 23  1  0
 22 21  1  6
 23 16  1  0
 24 22  1  0
 25 24  1  0
 26 24  2  0
M  END
$$$$
