KIN.pdb
     RDKit          3D

 26 25  0  0  1  0  0  0  0  0999 V2000
    6.2260  -15.1307   21.1623 N   0  0  0  0  0  0  0  0  0  0  0  0
    7.5366  -14.6198   21.0705 C   0  0  1  0  0  0  0  0  0  0  0  0
    7.6551  -13.3012   20.3627 C   0  0  0  0  0  0  0  0  0  0  0  0
    7.2797  -13.2750   18.9348 C   0  0  0  0  0  0  0  0  0  0  0  0
    8.3832  -13.4042   17.9427 C   0  0  0  0  0  0  0  0  0  0  0  0
    7.9677  -13.5100   16.5184 C   0  0  0  0  0  0  0  0  0  0  0  0
    9.0183  -13.4505   15.5596 N   0  0  0  0  0  0  0  0  0  0  0  0
    8.2071  -14.4502   22.4112 C   0  0  0  0  0  0  0  0  0  0  0  0
    9.4411  -14.1742   22.3566 O   0  0  0  0  0  0  0  0  0  0  0  0
    6.1179  -11.7624   26.4654 C   0  0  0  0  0  0  0  0  0  0  0  0
    7.1465  -12.3658   25.5241 C   0  0  0  0  0  0  0  0  0  0  0  0
    7.5433  -13.7518   25.9428 C   0  0  2  0  0  0  0  0  0  0  0  0
    8.2835  -13.6856   27.2360 C   0  0  0  0  0  0  0  0  0  0  0  0
    8.2763  -14.5146   24.8737 C   0  0  2  0  0  0  0  0  0  0  0  0
    7.5220  -14.5871   23.6425 N   0  0  0  0  0  0  0  0  0  0  0  0
    8.5557  -15.9311   25.2633 C   0  0  0  0  0  0  0  0  0  0  0  0
    7.6356  -16.7823   25.4648 O   0  0  0  0  0  0  0  0  0  0  0  0
   13.4232  -17.3219   25.3339 N   0  0  0  0  0  0  0  0  0  0  0  0
   12.2375  -17.4639   24.5622 C   0  0  0  0  0  0  0  0  0  0  0  0
   12.1405  -16.7168   23.5629 O   0  0  0  0  0  0  0  0  0  0  0  0
   11.1729  -18.4224   24.8946 C   0  0  0  0  0  0  0  0  0  0  0  0
   10.1740  -17.7991   25.8017 C   0  0  2  0  0  0  0  0  0  0  0  0
    9.8649  -16.4286   25.4365 N   0  0  0  0  0  0  0  0  0  0  0  0
   10.7753  -17.7027   27.1690 C   0  0  0  0  0  0  0  0  0  0  0  0
   11.1115  -18.9003   27.8156 O   0  0  0  0  0  0  0  0  0  0  0  0
   11.0039  -16.6475   27.7856 O   0  0  0  0  0  0  0  0  0  0  0  0
  2  1  1  1
  3  2  1  0
  4  5  1  0
  4  3  1  0
  5  6  1  0
  6  7  1  0
  8  9  2  0
  8  2  1  0
 11 10  1  0
 11 12  1  0
 12 14  1  0
 12 13  1  1
 14 15  1  6
 15  8  1  0
 16 14  1  0
 16 17  2  0
 19 21  1  0
 19 18  1  0
 20 19  2  0
 22 23  1  0
 22 21  1  6
 23 16  1  0
 24 22  1  0
 25 24  1  0
 26 24  2  0
M  END
$$$$
