TAR.pdb
     RDKit          3D

 24 23  0  0  1  0  0  0  0  0999 V2000
   16.1433  -10.6642  -11.5073 C   0  0  0  0  0  0  0  0  0  0  0  0
   14.7135  -10.8938  -11.1529 C   0  0  1  0  0  0  0  0  0  0  0  0
   14.4635  -12.2700  -11.2556 O   0  0  0  0  0  0  0  0  0  0  0  0
   14.3404  -10.3658   -9.7925 C   0  0  2  0  0  0  0  0  0  0  0  0
   13.0189  -10.8633   -9.4616 N   0  0  0  0  0  0  0  0  0  0  0  0
   14.4118   -8.8908   -9.7197 C   0  0  0  0  0  0  0  0  0  0  0  0
   13.6864   -8.1816  -10.4589 O   0  0  0  0  0  0  0  0  0  0  0  0
   16.2508   -6.5175   -7.4826 C   0  0  0  0  0  0  0  0  0  0  0  0
   15.5613   -6.8200   -8.7984 C   0  0  2  0  0  0  0  0  0  0  0  0
   15.2918   -8.2327   -8.8228 N   0  0  0  0  0  0  0  0  0  0  0  0
   16.3181   -6.3458   -9.9577 C   0  0  0  0  0  0  0  0  0  0  0  0
   17.1001   -7.1345  -10.5376 O   0  0  0  0  0  0  0  0  0  0  0  0
   15.4649   -7.7510  -17.5889 N   0  0  0  0  0  0  0  0  0  0  0  0
   16.3338   -6.6359  -17.6062 C   0  0  0  0  0  0  0  0  0  0  0  0
   16.8907   -6.3247  -18.7432 N   0  0  0  0  0  0  0  0  0  0  0  0
   16.6235   -5.8600  -16.4729 N   0  0  0  0  0  0  0  0  0  0  0  0
   16.1017   -6.1870  -15.1707 C   0  0  0  0  0  0  0  0  0  0  0  0
   16.6892   -5.1719  -14.1817 C   0  0  0  0  0  0  0  0  0  0  0  0
   16.2578   -5.4864  -12.7812 C   0  0  0  0  0  0  0  0  0  0  0  0
   16.8564   -4.6203  -11.7192 C   0  0  2  0  0  0  0  0  0  0  0  0
   16.2070   -5.0258  -10.4589 N   0  0  0  0  0  0  0  0  0  0  0  0
   16.5265   -3.1988  -12.0149 C   0  0  0  0  0  0  0  0  0  0  0  0
   15.4286   -2.7577  -11.5900 O   0  0  0  0  0  0  0  0  0  0  0  0
   17.3199   -2.3296  -12.7130 O   0  0  0  0  0  0  0  0  0  0  0  0
  2  1  1  1
  2  3  1  0
  4  5  1  6
  4  2  1  0
  6  7  2  0
  6  4  1  0
  9  8  1  1
  9 11  1  0
  9 10  1  0
 10  6  1  0
 11 21  1  0
 12 11  2  0
 13 14  1  0
 14 15  2  0
 16 14  1  0
 16 17  1  0
 18 17  1  0
 19 18  1  0
 20 19  1  6
 21 20  1  0
 22 24  1  0
 22 20  1  0
 23 22  2  0
M  END
$$$$
