TAR.pdb
     RDKit          3D

 24 23  0  0  1  0  0  0  0  0999 V2000
   25.3481   -0.4411   -0.7548 C   0  0  0  0  0  0  0  0  0  0  0  0
   25.4096    0.3268   -2.0312 C   0  0  1  0  0  0  0  0  0  0  0  0
   24.0983    0.4679   -2.5085 O   0  0  0  0  0  0  0  0  0  0  0  0
   26.0935    1.6618   -1.8959 C   0  0  2  0  0  0  0  0  0  0  0  0
   25.3155    2.4776   -0.9835 N   0  0  0  0  0  0  0  0  0  0  0  0
   26.2957    2.3281   -3.2003 C   0  0  0  0  0  0  0  0  0  0  0  0
   25.5081    3.2268   -3.5843 O   0  0  0  0  0  0  0  0  0  0  0  0
   29.0091    2.0566   -5.7791 C   0  0  0  0  0  0  0  0  0  0  0  0
   27.6551    2.5726   -5.3335 C   0  0  2  0  0  0  0  0  0  0  0  0
   27.3736    1.9794   -4.0537 N   0  0  0  0  0  0  0  0  0  0  0  0
   26.6065    2.3475   -6.3291 C   0  0  0  0  0  0  0  0  0  0  0  0
   25.8063    1.3974   -6.1656 O   0  0  0  0  0  0  0  0  0  0  0  0
   18.9687    4.3922   -6.4524 N   0  0  0  0  0  0  0  0  0  0  0  0
   19.1920    4.0196   -7.7978 C   0  0  0  0  0  0  0  0  0  0  0  0
   18.1692    4.0417   -8.6059 N   0  0  0  0  0  0  0  0  0  0  0  0
   20.4445    3.6300   -8.2976 N   0  0  0  0  0  0  0  0  0  0  0  0
   21.6217    3.6014   -7.4679 C   0  0  0  0  0  0  0  0  0  0  0  0
   22.8058    3.2488   -8.3775 C   0  0  0  0  0  0  0  0  0  0  0  0
   24.0903    3.2667   -7.6054 C   0  0  0  0  0  0  0  0  0  0  0  0
   25.3205    2.9811   -8.4063 C   0  0  2  0  0  0  0  0  0  0  0  0
   26.4526    3.1606   -7.4786 N   0  0  0  0  0  0  0  0  0  0  0  0
   25.4180    3.9760   -9.5098 C   0  0  0  0  0  0  0  0  0  0  0  0
   26.1355    4.9898   -9.3151 O   0  0  0  0  0  0  0  0  0  0  0  0
   24.7899    3.8797  -10.7216 O   0  0  0  0  0  0  0  0  0  0  0  0
  2  1  1  1
  2  3  1  0
  4  5  1  1
  4  2  1  0
  6  7  2  0
  6  4  1  0
  9  8  1  6
  9 11  1  0
  9 10  1  0
 10  6  1  0
 11 21  1  0
 12 11  2  0
 13 14  1  0
 14 15  2  0
 16 14  1  0
 16 17  1  0
 18 17  1  0
 19 18  1  0
 20 19  1  1
 21 20  1  0
 22 24  1  0
 22 20  1  0
 23 22  2  0
M  END
$$$$
