TAR.pdb
     RDKit          3D

 24 23  0  0  1  0  0  0  0  0999 V2000
   26.3643  -14.0835  -18.4098 C   0  0  0  0  0  0  0  0  0  0  0  0
   26.2144  -12.6342  -18.0943 C   0  0  1  0  0  0  0  0  0  0  0  0
   24.9494  -12.4512  -17.5167 O   0  0  0  0  0  0  0  0  0  0  0  0
   27.3077  -12.0968  -17.2086 C   0  0  2  0  0  0  0  0  0  0  0  0
   27.3296  -12.8832  -15.9903 N   0  0  0  0  0  0  0  0  0  0  0  0
   27.1532  -10.6523  -16.9334 C   0  0  0  0  0  0  0  0  0  0  0  0
   26.4640  -10.2604  -15.9603 O   0  0  0  0  0  0  0  0  0  0  0  0
   28.3808   -7.6014  -18.7523 C   0  0  0  0  0  0  0  0  0  0  0  0
   27.5779   -8.2488  -17.6413 C   0  0  2  0  0  0  0  0  0  0  0  0
   27.7707   -9.6701  -17.7493 N   0  0  0  0  0  0  0  0  0  0  0  0
   26.1716   -7.8442  -17.6476 C   0  0  0  0  0  0  0  0  0  0  0  0
   25.3705   -8.4408  -18.4040 O   0  0  0  0  0  0  0  0  0  0  0  0
   19.2476  -10.5317  -14.9080 N   0  0  0  0  0  0  0  0  0  0  0  0
   18.9126   -9.2470  -15.3937 C   0  0  0  0  0  0  0  0  0  0  0  0
   17.6464   -8.9610  -15.5149 N   0  0  0  0  0  0  0  0  0  0  0  0
   19.8648   -8.2789  -15.7492 N   0  0  0  0  0  0  0  0  0  0  0  0
   21.2758   -8.5684  -15.7703 C   0  0  0  0  0  0  0  0  0  0  0  0
   21.9879   -7.3043  -16.2689 C   0  0  0  0  0  0  0  0  0  0  0  0
   23.4684   -7.5252  -16.3438 C   0  0  0  0  0  0  0  0  0  0  0  0
   24.2575   -6.3811  -16.8958 C   0  0  2  0  0  0  0  0  0  0  0  0
   25.6696   -6.8010  -16.8318 N   0  0  0  0  0  0  0  0  0  0  0  0
   24.0517   -5.1905  -16.0256 C   0  0  0  0  0  0  0  0  0  0  0  0
   22.9574   -4.5801  -16.1271 O   0  0  0  0  0  0  0  0  0  0  0  0
   24.9565   -4.7031  -15.1222 O   0  0  0  0  0  0  0  0  0  0  0  0
  2  1  1  1
  2  3  1  0
  4  5  1  1
  4  2  1  0
  6  7  2  0
  6  4  1  0
  9  8  1  6
  9 11  1  0
  9 10  1  0
 10  6  1  0
 11 21  1  0
 12 11  2  0
 13 14  1  0
 14 15  2  0
 16 14  1  0
 16 17  1  0
 18 17  1  0
 19 18  1  0
 20 19  1  1
 21 20  1  0
 22 24  1  0
 22 20  1  0
 23 22  2  0
M  END
$$$$
