TAR.pdb
     RDKit          3D

 24 23  0  0  1  0  0  0  0  0999 V2000
   23.5795  -21.7921  -11.9786 C   0  0  0  0  0  0  0  0  0  0  0  0
   23.7715  -21.0145  -10.7212 C   0  0  1  0  0  0  0  0  0  0  0  0
   22.9508  -21.5843   -9.7369 O   0  0  0  0  0  0  0  0  0  0  0  0
   25.2071  -20.9472  -10.2707 C   0  0  2  0  0  0  0  0  0  0  0  0
   25.2353  -20.3848   -8.9342 N   0  0  0  0  0  0  0  0  0  0  0  0
   26.0592  -20.1871  -11.2100 C   0  0  0  0  0  0  0  0  0  0  0  0
   26.0919  -18.9331  -11.1669 O   0  0  0  0  0  0  0  0  0  0  0  0
   28.6212  -21.1495  -13.7503 C   0  0  0  0  0  0  0  0  0  0  0  0
   27.5392  -20.1995  -13.2759 C   0  0  2  0  0  0  0  0  0  0  0  0
   26.8601  -20.8401  -12.1817 N   0  0  0  0  0  0  0  0  0  0  0  0
   26.6458  -19.7735  -14.3537 C   0  0  0  0  0  0  0  0  0  0  0  0
   25.6790  -20.5060  -14.6677 O   0  0  0  0  0  0  0  0  0  0  0  0
   22.2838  -12.6206  -14.8013 N   0  0  0  0  0  0  0  0  0  0  0  0
   21.8900  -13.9783  -14.8197 C   0  0  0  0  0  0  0  0  0  0  0  0
   20.7484  -14.2811  -14.2676 N   0  0  0  0  0  0  0  0  0  0  0  0
   22.6598  -15.0022  -15.3937 N   0  0  0  0  0  0  0  0  0  0  0  0
   23.9616  -14.7530  -15.9579 C   0  0  0  0  0  0  0  0  0  0  0  0
   24.4496  -16.0742  -16.5662 C   0  0  0  0  0  0  0  0  0  0  0  0
   25.3032  -16.8238  -15.5885 C   0  0  0  0  0  0  0  0  0  0  0  0
   25.8617  -18.1174  -16.0894 C   0  0  2  0  0  0  0  0  0  0  0  0
   26.8243  -18.5614  -15.0644 N   0  0  0  0  0  0  0  0  0  0  0  0
   26.5778  -17.8683  -17.3709 C   0  0  0  0  0  0  0  0  0  0  0  0
   27.8037  -17.5973  -17.3071 O   0  0  0  0  0  0  0  0  0  0  0  0
   26.0119  -17.9091  -18.6161 O   0  0  0  0  0  0  0  0  0  0  0  0
  2  1  1  6
  2  3  1  0
  4  5  1  1
  4  2  1  0
  6  7  2  0
  6  4  1  0
  9  8  1  6
  9 11  1  0
  9 10  1  0
 10  6  1  0
 11 21  1  0
 12 11  2  0
 13 14  1  0
 14 15  2  0
 16 14  1  0
 16 17  1  0
 18 17  1  0
 19 18  1  0
 20 19  1  1
 21 20  1  0
 22 24  1  0
 22 20  1  0
 23 22  2  0
M  END
$$$$
