TAR.pdb
     RDKit          3D

 24 23  0  0  1  0  0  0  0  0999 V2000
   27.2030  -17.8372  -13.8929 C   0  0  0  0  0  0  0  0  0  0  0  0
   27.6123  -18.8951  -14.8604 C   0  0  1  0  0  0  0  0  0  0  0  0
   28.6730  -18.3876  -15.6250 O   0  0  0  0  0  0  0  0  0  0  0  0
   27.9812  -20.1990  -14.2030 C   0  0  2  0  0  0  0  0  0  0  0  0
   28.5603  -21.0655  -15.2115 N   0  0  0  0  0  0  0  0  0  0  0  0
   26.8326  -20.8328  -13.5209 C   0  0  0  0  0  0  0  0  0  0  0  0
   25.9840  -21.4848  -14.1768 O   0  0  0  0  0  0  0  0  0  0  0  0
   25.6920  -20.7493   -9.9414 C   0  0  0  0  0  0  0  0  0  0  0  0
   25.4779  -21.1345  -11.3920 C   0  0  2  0  0  0  0  0  0  0  0  0
   26.6510  -20.7276  -12.1180 N   0  0  0  0  0  0  0  0  0  0  0  0
   24.2314  -20.6010  -11.9425 C   0  0  0  0  0  0  0  0  0  0  0  0
   24.1708  -19.3867  -12.2454 O   0  0  0  0  0  0  0  0  0  0  0  0
   19.3279  -24.0431  -17.9067 N   0  0  0  0  0  0  0  0  0  0  0  0
   20.2455  -22.9734  -17.7953 C   0  0  0  0  0  0  0  0  0  0  0  0
   20.9617  -22.6833  -18.8453 N   0  0  0  0  0  0  0  0  0  0  0  0
   20.4217  -22.2207  -16.6237 N   0  0  0  0  0  0  0  0  0  0  0  0
   19.6692  -22.4880  -15.4248 C   0  0  0  0  0  0  0  0  0  0  0  0
   20.0669  -21.4218  -14.3959 C   0  0  0  0  0  0  0  0  0  0  0  0
   21.3718  -21.7726  -13.7473 C   0  0  0  0  0  0  0  0  0  0  0  0
   21.8288  -20.8289  -12.6810 C   0  0  2  0  0  0  0  0  0  0  0  0
   23.0806  -21.4000  -12.1507 N   0  0  0  0  0  0  0  0  0  0  0  0
   20.8032  -20.7886  -11.6023 C   0  0  0  0  0  0  0  0  0  0  0  0
   21.0725  -21.3756  -10.5237 O   0  0  0  0  0  0  0  0  0  0  0  0
   19.5882  -20.1649  -11.6867 O   0  0  0  0  0  0  0  0  0  0  0  0
  2  1  1  1
  2  3  1  0
  4  5  1  6
  4  2  1  0
  6  7  2  0
  6  4  1  0
  9  8  1  1
  9 11  1  0
  9 10  1  0
 10  6  1  0
 11 21  1  0
 12 11  2  0
 13 14  1  0
 14 15  2  0
 16 14  1  0
 16 17  1  0
 18 17  1  0
 19 18  1  0
 20 19  1  6
 21 20  1  0
 22 24  1  0
 22 20  1  0
 23 22  2  0
M  END
$$$$
