TAR.pdb
     RDKit          3D

 24 23  0  0  1  0  0  0  0  0999 V2000
   15.7364  -12.6498  -14.1258 C   0  0  0  0  0  0  0  0  0  0  0  0
   15.8324  -13.2930  -15.4673 C   0  0  1  0  0  0  0  0  0  0  0  0
   15.0302  -14.4433  -15.4481 O   0  0  0  0  0  0  0  0  0  0  0  0
   15.4540  -12.3761  -16.6007 C   0  0  2  0  0  0  0  0  0  0  0  0
   15.3601  -13.1691  -17.8113 N   0  0  0  0  0  0  0  0  0  0  0  0
   16.3944  -11.2449  -16.7505 C   0  0  0  0  0  0  0  0  0  0  0  0
   17.5587  -11.4380  -17.1779 O   0  0  0  0  0  0  0  0  0  0  0  0
   16.0813   -7.5930  -15.9199 C   0  0  0  0  0  0  0  0  0  0  0  0
   16.9014   -8.7825  -16.3791 C   0  0  2  0  0  0  0  0  0  0  0  0
   16.0188   -9.9175  -16.4205 N   0  0  0  0  0  0  0  0  0  0  0  0
   18.0967   -8.9968  -15.5625 C   0  0  0  0  0  0  0  0  0  0  0  0
   17.9902   -9.6183  -14.4798 O   0  0  0  0  0  0  0  0  0  0  0  0
   26.2277  -11.5539  -17.5787 N   0  0  0  0  0  0  0  0  0  0  0  0
   26.1550  -11.3095  -16.1881 C   0  0  0  0  0  0  0  0  0  0  0  0
   27.1934  -11.6267  -15.4665 N   0  0  0  0  0  0  0  0  0  0  0  0
   25.0330  -10.7516  -15.5556 N   0  0  0  0  0  0  0  0  0  0  0  0
   23.8133  -10.4747  -16.2704 C   0  0  0  0  0  0  0  0  0  0  0  0
   22.8831   -9.7311  -15.3034 C   0  0  0  0  0  0  0  0  0  0  0  0
   21.5781   -9.4090  -15.9665 C   0  0  0  0  0  0  0  0  0  0  0  0
   20.5633   -8.7462  -15.0904 C   0  0  2  0  0  0  0  0  0  0  0  0
   19.3791   -8.5305  -15.9422 N   0  0  0  0  0  0  0  0  0  0  0  0
   21.1002   -7.4320  -14.6414 C   0  0  0  0  0  0  0  0  0  0  0  0
   20.8766   -6.4338  -15.3722 O   0  0  0  0  0  0  0  0  0  0  0  0
   21.8192   -7.2188  -13.4969 O   0  0  0  0  0  0  0  0  0  0  0  0
  2  1  1  1
  2  3  1  0
  4  5  1  6
  4  2  1  0
  6  7  2  0
  6  4  1  0
  9  8  1  1
  9 11  1  0
  9 10  1  0
 10  6  1  0
 11 21  1  0
 12 11  2  0
 13 14  1  0
 14 15  2  0
 16 14  1  0
 16 17  1  0
 18 17  1  0
 19 18  1  0
 20 19  1  6
 21 20  1  0
 22 24  1  0
 22 20  1  0
 23 22  2  0
M  END
$$$$
