TAR.pdb
     RDKit          3D

 24 23  0  0  1  0  0  0  0  0999 V2000
   26.5383  -19.4940   -8.3240 C   0  0  0  0  0  0  0  0  0  0  0  0
   27.8811  -19.8600   -8.8585 C   0  0  1  0  0  0  0  0  0  0  0  0
   28.7792  -19.8784   -7.7814 O   0  0  0  0  0  0  0  0  0  0  0  0
   27.8926  -21.1663   -9.6081 C   0  0  2  0  0  0  0  0  0  0  0  0
   29.2642  -21.4667   -9.9711 N   0  0  0  0  0  0  0  0  0  0  0  0
   26.9984  -21.1501  -10.7855 C   0  0  0  0  0  0  0  0  0  0  0  0
   27.3776  -20.6343  -11.8652 O   0  0  0  0  0  0  0  0  0  0  0  0
   23.5109  -22.4434  -11.3246 C   0  0  0  0  0  0  0  0  0  0  0  0
   24.7403  -21.7024  -11.8122 C   0  0  2  0  0  0  0  0  0  0  0  0
   25.6961  -21.7100  -10.7374 N   0  0  0  0  0  0  0  0  0  0  0  0
   24.4329  -20.3634  -12.3162 C   0  0  0  0  0  0  0  0  0  0  0  0
   24.4294  -19.3986  -11.5168 O   0  0  0  0  0  0  0  0  0  0  0  0
   25.7985  -14.9326  -18.9702 N   0  0  0  0  0  0  0  0  0  0  0  0
   25.7057  -16.3015  -19.3113 C   0  0  0  0  0  0  0  0  0  0  0  0
   25.8774  -16.6224  -20.5632 N   0  0  0  0  0  0  0  0  0  0  0  0
   25.4389  -17.3172  -18.3800 N   0  0  0  0  0  0  0  0  0  0  0  0
   25.3411  -17.0509  -16.9677 C   0  0  0  0  0  0  0  0  0  0  0  0
   25.1379  -18.4006  -16.2674 C   0  0  0  0  0  0  0  0  0  0  0  0
   25.0455  -18.2182  -14.7826 C   0  0  0  0  0  0  0  0  0  0  0  0
   23.7989  -18.7499  -14.1505 C   0  0  2  0  0  0  0  0  0  0  0  0
   24.1368  -20.1049  -13.6769 N   0  0  0  0  0  0  0  0  0  0  0  0
   22.7329  -18.8356  -15.1865 C   0  0  0  0  0  0  0  0  0  0  0  0
   22.4673  -19.9724  -15.6528 O   0  0  0  0  0  0  0  0  0  0  0  0
   22.0161  -17.7776  -15.6756 O   0  0  0  0  0  0  0  0  0  0  0  0
  2  1  1  1
  2  3  1  0
  4  5  1  6
  4  2  1  0
  6  7  2  0
  6  4  1  0
  9  8  1  1
  9 11  1  0
  9 10  1  0
 10  6  1  0
 11 21  1  0
 12 11  2  0
 13 14  1  0
 14 15  2  0
 16 14  1  0
 16 17  1  0
 18 17  1  0
 19 18  1  0
 20 19  1  6
 21 20  1  0
 22 24  1  0
 22 20  1  0
 23 22  2  0
M  END
$$$$
