TAR.pdb
     RDKit          3D

 24 23  0  0  1  0  0  0  0  0999 V2000
   20.2088  -15.2725  -18.9385 C   0  0  0  0  0  0  0  0  0  0  0  0
   20.1144  -14.1118  -18.0077 C   0  0  1  0  0  0  0  0  0  0  0  0
   18.8078  -14.0772  -17.4990 O   0  0  0  0  0  0  0  0  0  0  0  0
   21.1359  -14.1454  -16.9014 C   0  0  2  0  0  0  0  0  0  0  0  0
   20.9270  -15.3556  -16.1301 N   0  0  0  0  0  0  0  0  0  0  0  0
   21.0919  -12.9340  -16.0547 C   0  0  0  0  0  0  0  0  0  0  0  0
   19.9980  -12.3707  -15.8067 O   0  0  0  0  0  0  0  0  0  0  0  0
   23.7913  -10.9449  -14.3564 C   0  0  0  0  0  0  0  0  0  0  0  0
   22.3464  -11.1315  -14.7757 C   0  0  2  0  0  0  0  0  0  0  0  0
   22.2700  -12.3722  -15.4994 N   0  0  0  0  0  0  0  0  0  0  0  0
   21.8181   -9.9854  -15.5166 C   0  0  0  0  0  0  0  0  0  0  0  0
   22.0217   -9.9128  -16.7507 O   0  0  0  0  0  0  0  0  0  0  0  0
   13.9383   -7.5330  -17.2632 N   0  0  0  0  0  0  0  0  0  0  0  0
   14.7750   -6.4683  -17.6695 C   0  0  0  0  0  0  0  0  0  0  0  0
   14.2426   -5.5309  -18.4025 N   0  0  0  0  0  0  0  0  0  0  0  0
   16.1334   -6.3749  -17.3283 N   0  0  0  0  0  0  0  0  0  0  0  0
   16.7844   -7.3657  -16.5101 C   0  0  0  0  0  0  0  0  0  0  0  0
   18.2680   -6.9827  -16.4331 C   0  0  0  0  0  0  0  0  0  0  0  0
   19.0542   -8.0485  -15.7314 C   0  0  0  0  0  0  0  0  0  0  0  0
   20.5311   -7.8203  -15.6762 C   0  0  2  0  0  0  0  0  0  0  0  0
   21.0812   -8.9458  -14.8984 N   0  0  0  0  0  0  0  0  0  0  0  0
   20.7941   -6.5427  -14.9581 C   0  0  0  0  0  0  0  0  0  0  0  0
   21.0583   -6.6108  -13.7309 O   0  0  0  0  0  0  0  0  0  0  0  0
   20.7717   -5.2967  -15.5232 O   0  0  0  0  0  0  0  0  0  0  0  0
  2  1  1  6
  2  3  1  0
  4  5  1  1
  4  2  1  0
  6  7  2  0
  6  4  1  0
  9  8  1  6
  9 11  1  0
  9 10  1  0
 10  6  1  0
 11 21  1  0
 12 11  2  0
 13 14  1  0
 14 15  2  0
 16 14  1  0
 16 17  1  0
 18 17  1  0
 19 18  1  0
 20 19  1  1
 21 20  1  0
 22 24  1  0
 22 20  1  0
 23 22  2  0
M  END
$$$$
