TAR.pdb
     RDKit          3D

 24 23  0  0  1  0  0  0  0  0999 V2000
   16.6631  -22.1897  -14.5212 C   0  0  0  0  0  0  0  0  0  0  0  0
   17.7897  -21.2629  -14.2141 C   0  0  1  0  0  0  0  0  0  0  0  0
   17.4194  -20.4942  -13.1010 O   0  0  0  0  0  0  0  0  0  0  0  0
   19.1011  -21.9677  -13.9857 C   0  0  2  0  0  0  0  0  0  0  0  0
   18.9379  -22.8734  -12.8648 N   0  0  0  0  0  0  0  0  0  0  0  0
   20.2208  -21.0247  -13.7779 C   0  0  0  0  0  0  0  0  0  0  0  0
   20.4614  -20.1272  -14.6218 O   0  0  0  0  0  0  0  0  0  0  0  0
   22.4774  -20.3759  -10.8698 C   0  0  0  0  0  0  0  0  0  0  0  0
   22.1680  -20.2371  -12.3474 C   0  0  2  0  0  0  0  0  0  0  0  0
   21.0529  -21.1000  -12.6317 N   0  0  0  0  0  0  0  0  0  0  0  0
   23.3338  -20.4840  -13.1968 C   0  0  0  0  0  0  0  0  0  0  0  0
   23.6553  -21.6661  -13.4598 O   0  0  0  0  0  0  0  0  0  0  0  0
   30.6905  -21.5969  -11.1239 N   0  0  0  0  0  0  0  0  0  0  0  0
   29.4805  -21.3069  -10.4527 C   0  0  0  0  0  0  0  0  0  0  0  0
   29.5337  -21.1430   -9.1605 N   0  0  0  0  0  0  0  0  0  0  0  0
   28.2413  -21.1910  -11.1018 N   0  0  0  0  0  0  0  0  0  0  0  0
   28.1306  -21.1783  -12.5380 C   0  0  0  0  0  0  0  0  0  0  0  0
   27.0424  -20.1583  -12.8972 C   0  0  0  0  0  0  0  0  0  0  0  0
   26.1046  -20.7230  -13.9210 C   0  0  0  0  0  0  0  0  0  0  0  0
   25.2599  -19.7174  -14.6364 C   0  0  2  0  0  0  0  0  0  0  0  0
   24.1222  -19.4403  -13.7401 N   0  0  0  0  0  0  0  0  0  0  0  0
   24.7612  -20.3216  -15.9026 C   0  0  0  0  0  0  0  0  0  0  0  0
   23.6436  -20.8965  -15.8701 O   0  0  0  0  0  0  0  0  0  0  0  0
   25.4192  -20.3042  -17.1021 O   0  0  0  0  0  0  0  0  0  0  0  0
  2  1  1  1
  2  3  1  0
  4  5  1  1
  4  2  1  0
  6  7  2  0
  6  4  1  0
  9  8  1  1
  9 11  1  0
  9 10  1  0
 10  6  1  0
 11 21  1  0
 12 11  2  0
 13 14  1  0
 14 15  2  0
 16 14  1  0
 16 17  1  0
 18 17  1  0
 19 18  1  0
 20 19  1  1
 21 20  1  0
 22 24  1  0
 22 20  1  0
 23 22  2  0
M  END
$$$$
