TAR.pdb
     RDKit          3D

 24 23  0  0  1  0  0  0  0  0999 V2000
   29.9492  -19.2376  -21.0778 C   0  0  0  0  0  0  0  0  0  0  0  0
   28.8396  -19.2913  -20.0836 C   0  0  1  0  0  0  0  0  0  0  0  0
   29.3779  -19.7324  -18.8659 O   0  0  0  0  0  0  0  0  0  0  0  0
   28.1141  -17.9811  -19.9231 C   0  0  2  0  0  0  0  0  0  0  0  0
   29.1011  -16.9431  -19.6956 N   0  0  0  0  0  0  0  0  0  0  0  0
   27.0986  -18.0254  -18.8493 C   0  0  0  0  0  0  0  0  0  0  0  0
   27.4368  -18.2578  -17.6631 O   0  0  0  0  0  0  0  0  0  0  0  0
   23.4212  -17.2851  -18.8255 C   0  0  0  0  0  0  0  0  0  0  0  0
   24.6674  -17.8115  -18.1411 C   0  0  2  0  0  0  0  0  0  0  0  0
   25.7228  -17.8094  -19.1183 N   0  0  0  0  0  0  0  0  0  0  0  0
   24.4583  -19.1123  -17.5043 C   0  0  0  0  0  0  0  0  0  0  0  0
   24.7464  -20.1535  -18.1390 O   0  0  0  0  0  0  0  0  0  0  0  0
   25.4654  -20.4410   -9.1770 N   0  0  0  0  0  0  0  0  0  0  0  0
   26.2129  -20.7315  -10.3413 C   0  0  0  0  0  0  0  0  0  0  0  0
   27.5099  -20.7919  -10.2239 N   0  0  0  0  0  0  0  0  0  0  0  0
   25.6336  -20.9525  -11.6006 N   0  0  0  0  0  0  0  0  0  0  0  0
   24.2237  -21.2023  -11.7586 C   0  0  0  0  0  0  0  0  0  0  0  0
   23.9924  -21.5643  -13.2313 C   0  0  0  0  0  0  0  0  0  0  0  0
   24.0718  -20.3424  -14.0957 C   0  0  0  0  0  0  0  0  0  0  0  0
   23.8081  -20.5708  -15.5498 C   0  0  2  0  0  0  0  0  0  0  0  0
   23.9413  -19.2506  -16.1930 N   0  0  0  0  0  0  0  0  0  0  0  0
   22.4137  -21.0666  -15.7139 C   0  0  0  0  0  0  0  0  0  0  0  0
   21.4914  -20.2122  -15.7212 O   0  0  0  0  0  0  0  0  0  0  0  0
   22.0504  -22.3780  -15.8572 O   0  0  0  0  0  0  0  0  0  0  0  0
  2  1  1  6
  2  3  1  0
  4  5  1  1
  4  2  1  0
  6  7  2  0
  6  4  1  0
  9  8  1  6
  9 11  1  0
  9 10  1  0
 10  6  1  0
 11 21  1  0
 12 11  2  0
 13 14  1  0
 14 15  2  0
 16 14  1  0
 16 17  1  0
 18 17  1  0
 19 18  1  0
 20 19  1  1
 21 20  1  0
 22 24  1  0
 22 20  1  0
 23 22  2  0
M  END
$$$$
