TAR.pdb
     RDKit          3D

 24 23  0  0  1  0  0  0  0  0999 V2000
   28.5560  -20.5799   -3.6200 C   0  0  0  0  0  0  0  0  0  0  0  0
   28.2477  -20.7249   -5.0714 C   0  0  1  0  0  0  0  0  0  0  0  0
   26.8590  -20.8731   -5.2005 O   0  0  0  0  0  0  0  0  0  0  0  0
   28.7606  -19.5841   -5.9105 C   0  0  2  0  0  0  0  0  0  0  0  0
   28.2181  -18.3502   -5.3755 N   0  0  0  0  0  0  0  0  0  0  0  0
   28.4457  -19.7519   -7.3454 C   0  0  0  0  0  0  0  0  0  0  0  0
   27.3870  -19.2771   -7.8240 O   0  0  0  0  0  0  0  0  0  0  0  0
   30.3380  -21.3462  -10.1732 C   0  0  0  0  0  0  0  0  0  0  0  0
   29.1082  -20.6452   -9.6305 C   0  0  2  0  0  0  0  0  0  0  0  0
   29.3183  -20.4471   -8.2214 N   0  0  0  0  0  0  0  0  0  0  0  0
   27.8665  -21.3523   -9.9460 C   0  0  0  0  0  0  0  0  0  0  0  0
   27.1328  -21.7413   -9.0078 O   0  0  0  0  0  0  0  0  0  0  0  0
   22.4797  -19.3042  -15.7615 N   0  0  0  0  0  0  0  0  0  0  0  0
   21.7346  -19.4397  -14.5677 C   0  0  0  0  0  0  0  0  0  0  0  0
   20.4452  -19.2609  -14.6398 N   0  0  0  0  0  0  0  0  0  0  0  0
   22.3089  -19.7509  -13.3253 N   0  0  0  0  0  0  0  0  0  0  0  0
   23.7204  -19.9982  -13.1778 C   0  0  0  0  0  0  0  0  0  0  0  0
   23.9835  -20.2314  -11.6845 C   0  0  0  0  0  0  0  0  0  0  0  0
   25.4532  -20.3578  -11.4193 C   0  0  0  0  0  0  0  0  0  0  0  0
   26.0251  -21.7232  -11.6317 C   0  0  2  0  0  0  0  0  0  0  0  0
   27.4518  -21.6196  -11.2737 N   0  0  0  0  0  0  0  0  0  0  0  0
   25.8974  -22.0796  -13.0718 C   0  0  0  0  0  0  0  0  0  0  0  0
   26.6815  -21.5201  -13.8795 O   0  0  0  0  0  0  0  0  0  0  0  0
   24.9951  -22.9674  -13.5915 O   0  0  0  0  0  0  0  0  0  0  0  0
  2  1  1  1
  2  3  1  0
  4  5  1  1
  4  2  1  0
  6  7  2  0
  6  4  1  0
  9  8  1  1
  9 11  1  0
  9 10  1  0
 10  6  1  0
 11 21  1  0
 12 11  2  0
 13 14  1  0
 14 15  2  0
 16 14  1  0
 16 17  1  0
 18 17  1  0
 19 18  1  0
 20 19  1  6
 21 20  1  0
 22 24  1  0
 22 20  1  0
 23 22  2  0
M  END
$$$$
