TAR.pdb
     RDKit          3D

 24 23  0  0  1  0  0  0  0  0999 V2000
   23.3421  -23.0461  -16.8281 C   0  0  0  0  0  0  0  0  0  0  0  0
   24.4113  -22.9308  -15.7956 C   0  0  1  0  0  0  0  0  0  0  0  0
   25.6073  -23.3911  -16.3656 O   0  0  0  0  0  0  0  0  0  0  0  0
   24.5643  -21.5379  -15.2434 C   0  0  2  0  0  0  0  0  0  0  0  0
   25.7757  -21.4980  -14.4472 N   0  0  0  0  0  0  0  0  0  0  0  0
   23.3799  -21.1022  -14.4729 C   0  0  0  0  0  0  0  0  0  0  0  0
   23.0604  -21.6901  -13.4110 O   0  0  0  0  0  0  0  0  0  0  0  0
   21.1287  -18.1307  -14.7861 C   0  0  0  0  0  0  0  0  0  0  0  0
   21.4280  -19.4974  -14.2023 C   0  0  2  0  0  0  0  0  0  0  0  0
   22.5724  -20.0176  -14.9013 N   0  0  0  0  0  0  0  0  0  0  0  0
   20.2690  -20.3905  -14.2256 C   0  0  0  0  0  0  0  0  0  0  0  0
   20.0672  -21.0987  -15.2393 O   0  0  0  0  0  0  0  0  0  0  0  0
   19.0424  -25.6345   -9.5680 N   0  0  0  0  0  0  0  0  0  0  0  0
   18.6498  -24.6637   -8.6182 C   0  0  0  0  0  0  0  0  0  0  0  0
   19.1134  -24.7863   -7.4059 N   0  0  0  0  0  0  0  0  0  0  0  0
   17.7945  -23.5905   -8.9132 N   0  0  0  0  0  0  0  0  0  0  0  0
   17.2225  -23.4086  -10.2227 C   0  0  0  0  0  0  0  0  0  0  0  0
   18.2891  -22.7271  -11.0897 C   0  0  0  0  0  0  0  0  0  0  0  0
   17.7126  -21.5428  -11.8050 C   0  0  0  0  0  0  0  0  0  0  0  0
   18.1705  -21.3651  -13.2174 C   0  0  2  0  0  0  0  0  0  0  0  0
   19.3572  -20.4926  -13.1466 N   0  0  0  0  0  0  0  0  0  0  0  0
   17.0957  -20.6827  -13.9895 C   0  0  0  0  0  0  0  0  0  0  0  0
   16.4251  -21.3808  -14.7916 O   0  0  0  0  0  0  0  0  0  0  0  0
   16.7757  -19.3553  -13.8995 O   0  0  0  0  0  0  0  0  0  0  0  0
  2  1  1  6
  2  3  1  0
  4  5  1  1
  4  2  1  0
  6  7  2  0
  6  4  1  0
  9  8  1  6
  9 11  1  0
  9 10  1  0
 10  6  1  0
 11 21  1  0
 12 11  2  0
 13 14  1  0
 14 15  2  0
 16 14  1  0
 16 17  1  0
 18 17  1  0
 19 18  1  0
 20 19  1  1
 21 20  1  0
 22 24  1  0
 22 20  1  0
 23 22  2  0
M  END
$$$$
