TAR.pdb
     RDKit          3D

 24 23  0  0  1  0  0  0  0  0999 V2000
   15.9741  -10.8823  -10.8157 C   0  0  0  0  0  0  0  0  0  0  0  0
   14.4936  -10.9647  -10.6609 C   0  0  1  0  0  0  0  0  0  0  0  0
   14.1574  -12.3142  -10.4791 O   0  0  0  0  0  0  0  0  0  0  0  0
   13.9586  -10.1080   -9.5436 C   0  0  2  0  0  0  0  0  0  0  0  0
   12.5450  -10.3941   -9.3921 N   0  0  0  0  0  0  0  0  0  0  0  0
   14.2123   -8.6682   -9.7642 C   0  0  0  0  0  0  0  0  0  0  0  0
   13.6582   -8.0629  -10.7140 O   0  0  0  0  0  0  0  0  0  0  0  0
   15.4752   -5.8430   -7.8476 C   0  0  0  0  0  0  0  0  0  0  0  0
   15.5468   -6.5901   -9.1648 C   0  0  2  0  0  0  0  0  0  0  0  0
   15.0805   -7.9287   -8.9208 N   0  0  0  0  0  0  0  0  0  0  0  0
   16.8740   -6.5326   -9.7784 C   0  0  0  0  0  0  0  0  0  0  0  0
   17.7646   -7.3167   -9.3760 O   0  0  0  0  0  0  0  0  0  0  0  0
   20.0029  -11.0193  -15.5245 N   0  0  0  0  0  0  0  0  0  0  0  0
   20.8273   -9.8713  -15.5584 C   0  0  0  0  0  0  0  0  0  0  0  0
   21.7720   -9.8354  -16.4561 N   0  0  0  0  0  0  0  0  0  0  0  0
   20.6809   -8.7844  -14.6823 N   0  0  0  0  0  0  0  0  0  0  0  0
   19.5006   -8.6084  -13.8754 C   0  0  0  0  0  0  0  0  0  0  0  0
   19.6165   -7.2356  -13.2006 C   0  0  0  0  0  0  0  0  0  0  0  0
   18.4345   -6.9793  -12.3154 C   0  0  0  0  0  0  0  0  0  0  0  0
   18.4857   -5.7044  -11.5352 C   0  0  2  0  0  0  0  0  0  0  0  0
   17.2017   -5.6244  -10.8146 N   0  0  0  0  0  0  0  0  0  0  0  0
   18.5961   -4.5631  -12.4851 C   0  0  0  0  0  0  0  0  0  0  0  0
   17.5379   -4.1564  -13.0286 O   0  0  0  0  0  0  0  0  0  0  0  0
   19.7560   -3.9180  -12.8178 O   0  0  0  0  0  0  0  0  0  0  0  0
  2  1  1  1
  2  3  1  0
  4  5  1  6
  4  2  1  0
  6  7  2  0
  6  4  1  0
  9  8  1  1
  9 11  1  0
  9 10  1  0
 10  6  1  0
 11 21  1  0
 12 11  2  0
 13 14  1  0
 14 15  2  0
 16 14  1  0
 16 17  1  0
 18 17  1  0
 19 18  1  0
 20 19  1  6
 21 20  1  0
 22 24  1  0
 22 20  1  0
 23 22  2  0
M  END
$$$$
