TAR.pdb
     RDKit          3D

 24 23  0  0  1  0  0  0  0  0999 V2000
   19.8165  -14.4167  -14.7819 C   0  0  0  0  0  0  0  0  0  0  0  0
   19.2366  -14.8141  -16.0965 C   0  0  1  0  0  0  0  0  0  0  0  0
   18.9893  -16.1940  -16.0549 O   0  0  0  0  0  0  0  0  0  0  0  0
   17.9959  -14.0426  -16.4627 C   0  0  2  0  0  0  0  0  0  0  0  0
   17.4451  -14.6209  -17.6733 N   0  0  0  0  0  0  0  0  0  0  0  0
   18.2536  -12.5939  -16.6079 C   0  0  0  0  0  0  0  0  0  0  0  0
   19.0359  -12.1727  -17.4945 O   0  0  0  0  0  0  0  0  0  0  0  0
   16.9183   -9.5770  -14.8175 C   0  0  0  0  0  0  0  0  0  0  0  0
   17.9676  -10.2432  -15.6855 C   0  0  2  0  0  0  0  0  0  0  0  0
   17.6335  -11.6402  -15.7606 N   0  0  0  0  0  0  0  0  0  0  0  0
   19.3321   -9.9892  -15.2217 C   0  0  0  0  0  0  0  0  0  0  0  0
   19.9654  -10.9129  -14.6600 O   0  0  0  0  0  0  0  0  0  0  0  0
   26.3301  -12.6241  -15.5679 N   0  0  0  0  0  0  0  0  0  0  0  0
   26.6704  -11.2900  -15.8890 C   0  0  0  0  0  0  0  0  0  0  0  0
   27.9355  -11.0100  -16.0336 N   0  0  0  0  0  0  0  0  0  0  0  0
   25.7247  -10.2661  -16.0548 N   0  0  0  0  0  0  0  0  0  0  0  0
   24.3085  -10.5296  -16.0624 C   0  0  0  0  0  0  0  0  0  0  0  0
   23.6002   -9.1815  -16.2488 C   0  0  0  0  0  0  0  0  0  0  0  0
   22.1123   -9.3531  -16.1942 C   0  0  0  0  0  0  0  0  0  0  0  0
   21.4185   -8.5725  -15.1238 C   0  0  2  0  0  0  0  0  0  0  0  0
   19.9757   -8.7375  -15.3795 N   0  0  0  0  0  0  0  0  0  0  0  0
   21.7877   -7.1364  -15.2597 C   0  0  0  0  0  0  0  0  0  0  0  0
   22.7881   -6.7313  -14.6150 O   0  0  0  0  0  0  0  0  0  0  0  0
   21.1274   -6.2176  -16.0291 O   0  0  0  0  0  0  0  0  0  0  0  0
  2  1  1  1
  2  3  1  0
  4  5  1  6
  4  2  1  0
  6  7  2  0
  6  4  1  0
  9  8  1  1
  9 11  1  0
  9 10  1  0
 10  6  1  0
 11 21  1  0
 12 11  2  0
 13 14  1  0
 14 15  2  0
 16 14  1  0
 16 17  1  0
 18 17  1  0
 19 18  1  0
 20 19  1  6
 21 20  1  0
 22 24  1  0
 22 20  1  0
 23 22  2  0
M  END
$$$$
