TAR.pdb
     RDKit          3D

 24 23  0  0  1  0  0  0  0  0999 V2000
   26.8094  -17.7747  -14.4972 C   0  0  0  0  0  0  0  0  0  0  0  0
   27.6249  -18.7622  -15.2604 C   0  0  1  0  0  0  0  0  0  0  0  0
   28.6721  -18.0641  -15.8793 O   0  0  0  0  0  0  0  0  0  0  0  0
   28.1425  -19.8950  -14.4133 C   0  0  2  0  0  0  0  0  0  0  0  0
   29.0539  -20.6829  -15.2206 N   0  0  0  0  0  0  0  0  0  0  0  0
   27.0540  -20.7177  -13.8435 C   0  0  0  0  0  0  0  0  0  0  0  0
   26.4915  -21.5983  -14.5390 O   0  0  0  0  0  0  0  0  0  0  0  0
   25.4306  -20.7587  -10.4539 C   0  0  0  0  0  0  0  0  0  0  0  0
   25.5141  -21.2376  -11.8899 C   0  0  2  0  0  0  0  0  0  0  0  0
   26.6121  -20.5431  -12.5071 N   0  0  0  0  0  0  0  0  0  0  0  0
   24.2484  -21.0942  -12.6102 C   0  0  0  0  0  0  0  0  0  0  0  0
   23.9079  -19.9608  -13.0220 O   0  0  0  0  0  0  0  0  0  0  0  0
   17.0313  -25.1302  -15.0074 N   0  0  0  0  0  0  0  0  0  0  0  0
   17.7766  -24.8954  -16.1856 C   0  0  0  0  0  0  0  0  0  0  0  0
   17.1156  -24.7874  -17.3041 N   0  0  0  0  0  0  0  0  0  0  0  0
   19.1751  -24.7772  -16.2088 N   0  0  0  0  0  0  0  0  0  0  0  0
   19.9699  -24.8858  -15.0123 C   0  0  0  0  0  0  0  0  0  0  0  0
   20.2741  -23.4575  -14.5421 C   0  0  0  0  0  0  0  0  0  0  0  0
   21.6609  -23.3691  -13.9805 C   0  0  0  0  0  0  0  0  0  0  0  0
   22.0886  -22.0029  -13.5481 C   0  0  2  0  0  0  0  0  0  0  0  0
   23.3831  -22.1859  -12.8660 N   0  0  0  0  0  0  0  0  0  0  0  0
   21.0882  -21.4683  -12.5835 C   0  0  0  0  0  0  0  0  0  0  0  0
   19.9898  -21.0705  -13.0478 O   0  0  0  0  0  0  0  0  0  0  0  0
   21.2646  -21.3729  -11.2299 O   0  0  0  0  0  0  0  0  0  0  0  0
  2  1  1  1
  2  3  1  0
  4  5  1  6
  4  2  1  0
  6  7  2  0
  6  4  1  0
  9  8  1  1
  9 11  1  0
  9 10  1  0
 10  6  1  0
 11 21  1  0
 12 11  2  0
 13 14  1  0
 14 15  2  0
 16 14  1  0
 16 17  1  0
 18 17  1  0
 19 18  1  0
 20 19  1  1
 21 20  1  0
 22 24  1  0
 22 20  1  0
 23 22  2  0
M  END
$$$$
