TAR.pdb
     RDKit          3D

 24 23  0  0  1  0  0  0  0  0999 V2000
   28.3557  -21.5681  -17.3668 C   0  0  0  0  0  0  0  0  0  0  0  0
   27.2395  -20.7241  -16.8528 C   0  0  1  0  0  0  0  0  0  0  0  0
   26.0855  -21.5203  -16.8120 O   0  0  0  0  0  0  0  0  0  0  0  0
   27.5269  -20.1010  -15.5120 C   0  0  2  0  0  0  0  0  0  0  0  0
   27.8326  -21.1652  -14.5754 N   0  0  0  0  0  0  0  0  0  0  0  0
   26.4181  -19.2460  -15.0368 C   0  0  0  0  0  0  0  0  0  0  0  0
   25.5714  -19.6946  -14.2259 O   0  0  0  0  0  0  0  0  0  0  0  0
   25.4485  -15.7019  -15.8282 C   0  0  0  0  0  0  0  0  0  0  0  0
   25.1638  -17.0401  -15.1752 C   0  0  2  0  0  0  0  0  0  0  0  0
   26.2733  -17.9048  -15.4752 N   0  0  0  0  0  0  0  0  0  0  0  0
   23.8654  -17.5946  -15.5603 C   0  0  0  0  0  0  0  0  0  0  0  0
   23.8299  -18.5772  -16.3369 O   0  0  0  0  0  0  0  0  0  0  0  0
   19.9757  -23.5698  -12.2986 N   0  0  0  0  0  0  0  0  0  0  0  0
   20.3730  -23.6040  -13.6549 C   0  0  0  0  0  0  0  0  0  0  0  0
   20.4984  -24.7743  -14.2157 N   0  0  0  0  0  0  0  0  0  0  0  0
   20.6376  -22.4544  -14.4155 N   0  0  0  0  0  0  0  0  0  0  0  0
   20.7307  -21.1478  -13.8161 C   0  0  0  0  0  0  0  0  0  0  0  0
   20.9884  -20.1485  -14.9512 C   0  0  0  0  0  0  0  0  0  0  0  0
   21.1229  -18.7568  -14.4111 C   0  0  0  0  0  0  0  0  0  0  0  0
   21.3465  -17.6925  -15.4376 C   0  0  2  0  0  0  0  0  0  0  0  0
   22.6368  -17.0680  -15.0922 N   0  0  0  0  0  0  0  0  0  0  0  0
   20.2584  -16.6820  -15.3278 C   0  0  0  0  0  0  0  0  0  0  0  0
   20.4958  -15.6445  -14.6587 O   0  0  0  0  0  0  0  0  0  0  0  0
   19.0178  -16.7882  -15.8952 O   0  0  0  0  0  0  0  0  0  0  0  0
  2  1  1  1
  2  3  1  0
  4  5  1  1
  4  2  1  0
  6  7  2  0
  6  4  1  0
  9  8  1  6
  9 11  1  0
  9 10  1  0
 10  6  1  0
 11 21  1  0
 12 11  2  0
 13 14  1  0
 14 15  2  0
 16 14  1  0
 16 17  1  0
 18 17  1  0
 19 18  1  0
 20 19  1  1
 21 20  1  0
 22 24  1  0
 22 20  1  0
 23 22  2  0
M  END
$$$$
