MQW.pdb
     RDKit          3D

 32 33  0  0  1  0  0  0  0  0999 V2000
    8.8929  -11.2995   20.4851 C   0  0  0  0  0  0  0  0  0  0  0  0
    7.3496  -11.9552   19.8682 S   0  0  0  0  0  0  0  0  0  0  0  0
    7.2694  -13.7061   19.6452 C   0  0  0  0  0  0  0  0  0  0  0  0
    7.8818  -14.5207   20.7191 C   0  0  0  0  0  0  0  0  0  0  0  0
    7.8831  -15.9780   20.4777 C   0  0  2  0  0  0  0  0  0  0  0  0
    6.5231  -16.5147   20.4126 N   0  0  0  0  0  0  0  0  0  0  0  0
    8.4819  -16.6682   21.6934 C   0  0  0  0  0  0  0  0  0  0  0  0
    7.6508  -17.2196   22.4932 O   0  0  0  0  0  0  0  0  0  0  0  0
   14.8201  -19.6496   23.8183 N   0  0  0  0  0  0  0  0  0  0  0  0
   13.8641  -19.2444   22.8664 C   0  0  0  0  0  0  0  0  0  0  0  0
   14.1984  -19.1558   21.6677 O   0  0  0  0  0  0  0  0  0  0  0  0
   12.5035  -18.9328   23.2748 C   0  0  0  0  0  0  0  0  0  0  0  0
   11.7531  -17.9771   22.4380 C   0  0  0  0  0  0  0  0  0  0  0  0
   10.3681  -17.6011   22.9452 C   0  0  2  0  0  0  0  0  0  0  0  0
    9.8709  -16.6813   21.8956 N   0  0  0  0  0  0  0  0  0  0  0  0
   10.4194  -16.7927   24.1836 C   0  0  0  0  0  0  0  0  0  0  0  0
   10.9546  -15.6275   24.2211 O   0  0  0  0  0  0  0  0  0  0  0  0
    9.8915  -17.2048   25.4446 N   0  0  0  0  0  0  0  0  0  0  0  0
   10.1520  -16.4989   26.6808 C   0  0  1  0  0  0  0  0  0  0  0  0
    8.9088  -16.2826   27.5044 C   0  0  0  0  0  0  0  0  0  0  0  0
    7.8379  -15.7260   26.6900 C   0  0  0  0  0  0  0  0  0  0  0  0
    6.8618  -16.4669   26.0449 C   0  0  0  0  0  0  0  0  0  0  0  0
    6.0955  -15.6084   25.3920 N   0  0  0  0  0  0  0  0  0  0  0  0
    6.5228  -14.3576   25.5812 C   0  0  0  0  0  0  0  0  0  0  0  0
    6.0568  -13.1477   25.1297 C   0  0  0  0  0  0  0  0  0  0  0  0
    6.6907  -11.9550   25.4945 C   0  0  0  0  0  0  0  0  0  0  0  0
    7.7769  -12.0515   26.3078 C   0  0  0  0  0  0  0  0  0  0  0  0
    8.2600  -13.2527   26.7700 C   0  0  0  0  0  0  0  0  0  0  0  0
    7.6131  -14.4111   26.3917 C   0  0  0  0  0  0  0  0  0  0  0  0
   11.1980  -17.2295   27.4132 C   0  0  0  0  0  0  0  0  0  0  0  0
   11.6000  -16.7952   28.5182 O   0  0  0  0  0  0  0  0  0  0  0  0
   11.7572  -18.3873   26.9219 O   0  0  0  0  0  0  0  0  0  0  0  0
  2  1  1  0
  3  2  1  0
  4  3  1  0
  4  5  1  0
  5  7  1  0
  5  6  1  1
  7  8  2  0
 10 12  1  0
 10  9  1  0
 11 10  2  0
 14 13  1  6
 13 12  1  0
 15 14  1  0
 15  7  1  0
 16 17  2  0
 16 14  1  0
 18 16  1  0
 19 30  1  0
 19 18  1  0
 19 20  1  1
 21 29  1  0
 21 20  1  0
 22 21  2  0
 23 22  1  0
 23 24  1  0
 24 29  2  0
 25 24  1  0
 25 26  2  0
 26 27  1  0
 27 28  2  0
 29 28  1  0
 30 32  1  0
 31 30  2  0
M  END
$$$$
