MQW.pdb
     RDKit          3D

 32 33  0  0  1  0  0  0  0  0999 V2000
    8.6958  -11.9339   18.5736 C   0  0  0  0  0  0  0  0  0  0  0  0
    7.8901  -11.8807   20.1675 S   0  0  0  0  0  0  0  0  0  0  0  0
    6.8309  -13.2388   20.5615 C   0  0  0  0  0  0  0  0  0  0  0  0
    7.3936  -14.2464   21.4890 C   0  0  0  0  0  0  0  0  0  0  0  0
    7.4353  -15.6269   20.9652 C   0  0  2  0  0  0  0  0  0  0  0  0
    6.0926  -16.1940   20.8332 N   0  0  0  0  0  0  0  0  0  0  0  0
    8.0988  -16.5175   22.0042 C   0  0  0  0  0  0  0  0  0  0  0  0
    7.3112  -17.1642   22.7761 O   0  0  0  0  0  0  0  0  0  0  0  0
   13.0129  -17.9515   19.3034 N   0  0  0  0  0  0  0  0  0  0  0  0
   13.0946  -17.6925   20.6856 C   0  0  0  0  0  0  0  0  0  0  0  0
   14.1724  -17.8955   21.2803 O   0  0  0  0  0  0  0  0  0  0  0  0
   11.9371  -17.1945   21.4118 C   0  0  0  0  0  0  0  0  0  0  0  0
   11.2601  -18.1361   22.3239 C   0  0  0  0  0  0  0  0  0  0  0  0
   10.0368  -17.5906   23.0471 C   0  0  2  0  0  0  0  0  0  0  0  0
    9.4977  -16.6024   22.0839 N   0  0  0  0  0  0  0  0  0  0  0  0
   10.3937  -16.8098   24.2524 C   0  0  0  0  0  0  0  0  0  0  0  0
   11.1898  -15.8049   24.2085 O   0  0  0  0  0  0  0  0  0  0  0  0
    9.9044  -17.0768   25.5669 N   0  0  0  0  0  0  0  0  0  0  0  0
   10.5735  -16.6245   26.7678 C   0  0  1  0  0  0  0  0  0  0  0  0
    9.9370  -15.3962   27.3652 C   0  0  0  0  0  0  0  0  0  0  0  0
    8.5739  -15.2312   26.8807 C   0  0  0  0  0  0  0  0  0  0  0  0
    7.6953  -16.2667   26.6093 C   0  0  0  0  0  0  0  0  0  0  0  0
    6.5764  -15.7162   26.1673 N   0  0  0  0  0  0  0  0  0  0  0  0
    6.6852  -14.3857   26.1397 C   0  0  0  0  0  0  0  0  0  0  0  0
    5.8040  -13.3976   25.7763 C   0  0  0  0  0  0  0  0  0  0  0  0
    6.1676  -12.0490   25.8567 C   0  0  0  0  0  0  0  0  0  0  0  0
    7.4202  -11.7683   26.3068 C   0  0  0  0  0  0  0  0  0  0  0  0
    8.3178  -12.7425   26.6748 C   0  0  0  0  0  0  0  0  0  0  0  0
    7.9292  -14.0631   26.5833 C   0  0  0  0  0  0  0  0  0  0  0  0
   10.6296  -17.7511   27.7123 C   0  0  0  0  0  0  0  0  0  0  0  0
    9.9996  -18.8047   27.4590 O   0  0  0  0  0  0  0  0  0  0  0  0
   11.3586  -17.6882   28.8781 O   0  0  0  0  0  0  0  0  0  0  0  0
  2  1  1  0
  3  2  1  0
  4  3  1  0
  4  5  1  0
  5  7  1  0
  5  6  1  1
  7  8  2  0
 10 12  1  0
 10  9  1  0
 11 10  2  0
 14 13  1  6
 13 12  1  0
 15 14  1  0
 15  7  1  0
 16 17  2  0
 16 14  1  0
 18 16  1  0
 19 30  1  0
 19 18  1  0
 19 20  1  1
 21 29  1  0
 21 20  1  0
 22 21  2  0
 23 22  1  0
 23 24  1  0
 24 29  2  0
 25 24  1  0
 25 26  2  0
 26 27  1  0
 27 28  2  0
 29 28  1  0
 30 32  1  0
 31 30  2  0
M  END
$$$$
