MQW.pdb
     RDKit          3D

 32 33  0  0  1  0  0  0  0  0999 V2000
    6.9481  -12.1022   20.0304 C   0  0  0  0  0  0  0  0  0  0  0  0
    8.6291  -12.4349   19.5242 S   0  0  0  0  0  0  0  0  0  0  0  0
    8.8451  -13.6375   18.2479 C   0  0  0  0  0  0  0  0  0  0  0  0
    8.1584  -14.9319   18.4599 C   0  0  0  0  0  0  0  0  0  0  0  0
    9.0486  -16.1076   18.5451 C   0  0  2  0  0  0  0  0  0  0  0  0
    8.7929  -17.0570   17.4611 N   0  0  0  0  0  0  0  0  0  0  0  0
    8.6934  -16.8923   19.7985 C   0  0  0  0  0  0  0  0  0  0  0  0
    7.7012  -17.6923   19.6989 O   0  0  0  0  0  0  0  0  0  0  0  0
    7.0694  -20.4965   21.9529 N   0  0  0  0  0  0  0  0  0  0  0  0
    8.1409  -20.7481   22.8319 C   0  0  0  0  0  0  0  0  0  0  0  0
    7.9992  -21.5939   23.7381 O   0  0  0  0  0  0  0  0  0  0  0  0
    9.3979  -20.0312   22.6860 C   0  0  0  0  0  0  0  0  0  0  0  0
    9.4524  -18.9727   21.6595 C   0  0  0  0  0  0  0  0  0  0  0  0
    9.0396  -17.5825   22.1221 C   0  0  2  0  0  0  0  0  0  0  0  0
    9.4328  -16.7247   20.9799 N   0  0  0  0  0  0  0  0  0  0  0  0
    9.8455  -17.1050   23.2676 C   0  0  0  0  0  0  0  0  0  0  0  0
   11.1059  -16.8847   23.1758 O   0  0  0  0  0  0  0  0  0  0  0  0
    9.3263  -16.8397   24.5709 N   0  0  0  0  0  0  0  0  0  0  0  0
   10.1502  -16.4018   25.6772 C   0  0  1  0  0  0  0  0  0  0  0  0
    9.8133  -15.0086   26.1422 C   0  0  0  0  0  0  0  0  0  0  0  0
    8.3851  -14.7528   26.0205 C   0  0  0  0  0  0  0  0  0  0  0  0
    7.4231  -15.7164   25.7678 C   0  0  0  0  0  0  0  0  0  0  0  0
    6.2592  -15.0907   25.7031 N   0  0  0  0  0  0  0  0  0  0  0  0
    6.4179  -13.7797   25.9007 C   0  0  0  0  0  0  0  0  0  0  0  0
    5.5224  -12.7397   25.9387 C   0  0  0  0  0  0  0  0  0  0  0  0
    5.9542  -11.4319   26.1848 C   0  0  0  0  0  0  0  0  0  0  0  0
    7.2869  -11.2436   26.3821 C   0  0  0  0  0  0  0  0  0  0  0  0
    8.1999  -12.2708   26.3472 C   0  0  0  0  0  0  0  0  0  0  0  0
    7.7427  -13.5490   26.1015 C   0  0  0  0  0  0  0  0  0  0  0  0
   10.0416  -17.4006   26.7519 C   0  0  0  0  0  0  0  0  0  0  0  0
    9.1820  -18.3092   26.6698 O   0  0  0  0  0  0  0  0  0  0  0  0
   10.8609  -17.3724   27.8576 O   0  0  0  0  0  0  0  0  0  0  0  0
  2  1  1  0
  3  2  1  0
  4  3  1  0
  4  5  1  0
  5  7  1  0
  5  6  1  6
  7  8  2  0
 10 12  1  0
 10  9  1  0
 11 10  2  0
 14 13  1  6
 13 12  1  0
 15 14  1  0
 15  7  1  0
 16 17  2  0
 16 14  1  0
 18 16  1  0
 19 30  1  0
 19 18  1  0
 19 20  1  1
 21 29  1  0
 21 20  1  0
 22 21  2  0
 23 22  1  0
 23 24  1  0
 24 29  2  0
 25 24  1  0
 25 26  2  0
 26 27  1  0
 27 28  2  0
 29 28  1  0
 30 32  1  0
 31 30  2  0
M  END
$$$$
