MQW.pdb
     RDKit          3D

 32 33  0  0  1  0  0  0  0  0999 V2000
    8.1890  -11.1688   19.8937 C   0  0  0  0  0  0  0  0  0  0  0  0
    8.3481  -12.7882   20.6318 S   0  0  0  0  0  0  0  0  0  0  0  0
    6.8652  -13.7377   20.7775 C   0  0  0  0  0  0  0  0  0  0  0  0
    7.0040  -15.0494   21.4500 C   0  0  0  0  0  0  0  0  0  0  0  0
    7.8797  -16.0185   20.7600 C   0  0  2  0  0  0  0  0  0  0  0  0
    7.1040  -17.0035   20.0051 N   0  0  0  0  0  0  0  0  0  0  0  0
    8.5950  -16.8550   21.8094 C   0  0  0  0  0  0  0  0  0  0  0  0
    7.9157  -17.8042   22.3309 O   0  0  0  0  0  0  0  0  0  0  0  0
   14.7174  -17.8039   21.8661 N   0  0  0  0  0  0  0  0  0  0  0  0
   14.2598  -18.5867   22.9441 C   0  0  0  0  0  0  0  0  0  0  0  0
   15.0649  -19.3281   23.5429 O   0  0  0  0  0  0  0  0  0  0  0  0
   12.8657  -18.5322   23.3550 C   0  0  0  0  0  0  0  0  0  0  0  0
   11.9750  -17.6366   22.5925 C   0  0  0  0  0  0  0  0  0  0  0  0
   10.5544  -17.5090   23.1241 C   0  0  2  0  0  0  0  0  0  0  0  0
    9.9248  -16.5751   22.1616 N   0  0  0  0  0  0  0  0  0  0  0  0
   10.4999  -16.8201   24.4327 C   0  0  0  0  0  0  0  0  0  0  0  0
   10.8532  -15.5956   24.5790 O   0  0  0  0  0  0  0  0  0  0  0  0
   10.0577  -17.4223   25.6493 N   0  0  0  0  0  0  0  0  0  0  0  0
   10.0819  -16.7396   26.9251 C   0  0  1  0  0  0  0  0  0  0  0  0
    8.7373  -16.7218   27.6051 C   0  0  0  0  0  0  0  0  0  0  0  0
    7.7443  -16.0582   26.7724 C   0  0  0  0  0  0  0  0  0  0  0  0
    6.7629  -16.7029   26.0381 C   0  0  0  0  0  0  0  0  0  0  0  0
    6.0821  -15.7655   25.3989 N   0  0  0  0  0  0  0  0  0  0  0  0
    6.5694  -14.5548   25.6812 C   0  0  0  0  0  0  0  0  0  0  0  0
    6.1975  -13.2962   25.2780 C   0  0  0  0  0  0  0  0  0  0  0  0
    6.8781  -12.1655   25.7421 C   0  0  0  0  0  0  0  0  0  0  0  0
    7.9127  -12.3712   26.6011 C   0  0  0  0  0  0  0  0  0  0  0  0
    8.3016  -13.6228   27.0163 C   0  0  0  0  0  0  0  0  0  0  0  0
    7.6106  -14.7178   26.5401 C   0  0  0  0  0  0  0  0  0  0  0  0
   11.1291  -17.3564   27.7543 C   0  0  0  0  0  0  0  0  0  0  0  0
   11.7571  -18.3511   27.3217 O   0  0  0  0  0  0  0  0  0  0  0  0
   11.4475  -16.8734   29.0033 O   0  0  0  0  0  0  0  0  0  0  0  0
  2  1  1  0
  3  2  1  0
  4  3  1  0
  4  5  1  0
  5  7  1  0
  5  6  1  6
  7  8  2  0
 10 12  1  0
 10  9  1  0
 11 10  2  0
 14 13  1  6
 13 12  1  0
 15 14  1  0
 15  7  1  0
 16 17  2  0
 16 14  1  0
 18 16  1  0
 19 30  1  0
 19 18  1  0
 19 20  1  1
 21 29  1  0
 21 20  1  0
 22 21  2  0
 23 22  1  0
 23 24  1  0
 24 29  2  0
 25 24  1  0
 25 26  2  0
 26 27  1  0
 27 28  2  0
 29 28  1  0
 30 32  1  0
 31 30  2  0
M  END
$$$$
