MQW.pdb
     RDKit          3D

 32 33  0  0  1  0  0  0  0  0999 V2000
   11.1932  -17.0727   15.3821 C   0  0  0  0  0  0  0  0  0  0  0  0
    9.6559  -17.5534   16.1556 S   0  0  0  0  0  0  0  0  0  0  0  0
    9.7826  -18.4388   17.6793 C   0  0  0  0  0  0  0  0  0  0  0  0
   10.8471  -17.9833   18.6021 C   0  0  0  0  0  0  0  0  0  0  0  0
   10.5585  -18.1783   20.0376 C   0  0  2  0  0  0  0  0  0  0  0  0
    9.1626  -18.5575   20.2601 N   0  0  0  0  0  0  0  0  0  0  0  0
   10.6806  -16.8356   20.7412 C   0  0  0  0  0  0  0  0  0  0  0  0
   11.8274  -16.2734   20.6850 O   0  0  0  0  0  0  0  0  0  0  0  0
    7.3732  -12.4841   19.3145 N   0  0  0  0  0  0  0  0  0  0  0  0
    7.3359  -13.8876   19.2015 C   0  0  0  0  0  0  0  0  0  0  0  0
    6.5841  -14.4103   18.3540 O   0  0  0  0  0  0  0  0  0  0  0  0
    8.1634  -14.7186   20.0617 C   0  0  0  0  0  0  0  0  0  0  0  0
    8.9132  -14.0374   21.1344 C   0  0  0  0  0  0  0  0  0  0  0  0
    9.7895  -14.9330   21.9987 C   0  0  2  0  0  0  0  0  0  0  0  0
    9.5784  -16.2736   21.4044 N   0  0  0  0  0  0  0  0  0  0  0  0
    9.2939  -15.0374   23.3891 C   0  0  0  0  0  0  0  0  0  0  0  0
    8.7915  -14.0372   24.0157 O   0  0  0  0  0  0  0  0  0  0  0  0
    9.3155  -16.2318   24.1711 N   0  0  0  0  0  0  0  0  0  0  0  0
   10.0857  -16.3669   25.3889 C   0  0  1  0  0  0  0  0  0  0  0  0
    9.3202  -15.9429   26.6157 C   0  0  0  0  0  0  0  0  0  0  0  0
    8.0586  -15.3157   26.2482 C   0  0  0  0  0  0  0  0  0  0  0  0
    6.9843  -15.9697   25.6685 C   0  0  0  0  0  0  0  0  0  0  0  0
    6.0451  -15.0606   25.4637 N   0  0  0  0  0  0  0  0  0  0  0  0
    6.4541  -13.8594   25.8795 C   0  0  0  0  0  0  0  0  0  0  0  0
    5.8411  -12.6309   25.8890 C   0  0  0  0  0  0  0  0  0  0  0  0
    6.4960  -11.5080   26.4061 C   0  0  0  0  0  0  0  0  0  0  0  0
    7.7532  -11.6904   26.8928 C   0  0  0  0  0  0  0  0  0  0  0  0
    8.3850  -12.9114   26.8917 C   0  0  0  0  0  0  0  0  0  0  0  0
    7.7128  -13.9993   26.3742 C   0  0  0  0  0  0  0  0  0  0  0  0
   10.5692  -17.7539   25.4729 C   0  0  0  0  0  0  0  0  0  0  0  0
   10.2290  -18.5834   24.5970 O   0  0  0  0  0  0  0  0  0  0  0  0
   11.3922  -18.1776   26.4917 O   0  0  0  0  0  0  0  0  0  0  0  0
  2  1  1  0
  3  2  1  0
  4  3  1  0
  4  5  1  0
  5  7  1  0
  5  6  1  6
  7  8  2  0
 10 12  1  0
 10  9  1  0
 11 10  2  0
 14 13  1  6
 13 12  1  0
 15 14  1  0
 15  7  1  0
 16 17  2  0
 16 14  1  0
 18 16  1  0
 19 30  1  0
 19 18  1  0
 19 20  1  1
 21 29  1  0
 21 20  1  0
 22 21  2  0
 23 22  1  0
 23 24  1  0
 24 29  2  0
 25 24  1  0
 25 26  2  0
 26 27  1  0
 27 28  2  0
 29 28  1  0
 30 32  1  0
 31 30  2  0
M  END
$$$$
