MQW.pdb
     RDKit          3D

 32 33  0  0  1  0  0  0  0  0999 V2000
    8.0498  -11.5270   19.8067 C   0  0  0  0  0  0  0  0  0  0  0  0
    8.3084  -12.4115   18.2759 S   0  0  0  0  0  0  0  0  0  0  0  0
    8.0292  -14.1557   18.3160 C   0  0  0  0  0  0  0  0  0  0  0  0
    7.5037  -14.6946   19.5908 C   0  0  0  0  0  0  0  0  0  0  0  0
    8.4410  -15.5541   20.3423 C   0  0  2  0  0  0  0  0  0  0  0  0
    8.9860  -16.6210   19.5017 N   0  0  0  0  0  0  0  0  0  0  0  0
    7.6587  -16.3042   21.4092 C   0  0  0  0  0  0  0  0  0  0  0  0
    6.5725  -15.7550   21.8005 O   0  0  0  0  0  0  0  0  0  0  0  0
    8.2476  -22.3908   22.4610 N   0  0  0  0  0  0  0  0  0  0  0  0
    9.2691  -21.4826   22.8012 C   0  0  0  0  0  0  0  0  0  0  0  0
   10.4391  -21.8993   22.9208 O   0  0  0  0  0  0  0  0  0  0  0  0
    8.9651  -20.0759   23.0110 C   0  0  0  0  0  0  0  0  0  0  0  0
    7.5759  -19.6448   22.7639 C   0  0  0  0  0  0  0  0  0  0  0  0
    7.2995  -18.1613   22.9639 C   0  0  2  0  0  0  0  0  0  0  0  0
    8.1294  -17.5267   21.9134 N   0  0  0  0  0  0  0  0  0  0  0  0
    7.8348  -17.6542   24.2470 C   0  0  0  0  0  0  0  0  0  0  0  0
    7.0735  -17.3119   25.2210 O   0  0  0  0  0  0  0  0  0  0  0  0
    9.2227  -17.4940   24.5409 N   0  0  0  0  0  0  0  0  0  0  0  0
    9.7802  -16.2770   25.0910 C   0  0  1  0  0  0  0  0  0  0  0  0
    9.3151  -16.0040   26.4981 C   0  0  0  0  0  0  0  0  0  0  0  0
    7.9865  -15.4082   26.4982 C   0  0  0  0  0  0  0  0  0  0  0  0
    6.8064  -16.0956   26.2687 C   0  0  0  0  0  0  0  0  0  0  0  0
    5.8268  -15.2082   26.3251 N   0  0  0  0  0  0  0  0  0  0  0  0
    6.3097  -13.9894   26.5788 C   0  0  0  0  0  0  0  0  0  0  0  0
    5.6964  -12.7715   26.7390 C   0  0  0  0  0  0  0  0  0  0  0  0
    6.4459  -11.6241   27.0201 C   0  0  0  0  0  0  0  0  0  0  0  0
    7.7940  -11.7722   27.1257 C   0  0  0  0  0  0  0  0  0  0  0  0
    8.4275  -12.9820   26.9680 C   0  0  0  0  0  0  0  0  0  0  0  0
    7.6605  -14.0948   26.6907 C   0  0  0  0  0  0  0  0  0  0  0  0
   11.2453  -16.3551   24.9827 C   0  0  0  0  0  0  0  0  0  0  0  0
   11.9529  -15.4436   25.4723 O   0  0  0  0  0  0  0  0  0  0  0  0
   11.8740  -17.4067   24.3553 O   0  0  0  0  0  0  0  0  0  0  0  0
  2  1  1  0
  3  2  1  0
  4  3  1  0
  4  5  1  0
  5  7  1  0
  5  6  1  6
  7  8  2  0
 10 12  1  0
 10  9  1  0
 11 10  2  0
 14 13  1  1
 13 12  1  0
 15 14  1  0
 15  7  1  0
 16 17  2  0
 16 14  1  0
 18 16  1  0
 19 30  1  0
 19 18  1  0
 19 20  1  1
 21 29  1  0
 21 20  1  0
 22 21  2  0
 23 22  1  0
 23 24  1  0
 24 29  2  0
 25 24  1  0
 25 26  2  0
 26 27  1  0
 27 28  2  0
 29 28  1  0
 30 32  1  0
 31 30  2  0
M  END
$$$$
