MQW.pdb
     RDKit          3D

 32 33  0  0  1  0  0  0  0  0999 V2000
    7.5611  -15.0317   15.5099 C   0  0  0  0  0  0  0  0  0  0  0  0
    8.6658  -13.8801   16.3134 S   0  0  0  0  0  0  0  0  0  0  0  0
    8.5580  -13.7815   18.0742 C   0  0  0  0  0  0  0  0  0  0  0  0
    7.3530  -14.3913   18.6807 C   0  0  0  0  0  0  0  0  0  0  0  0
    7.2874  -14.3185   20.1546 C   0  0  2  0  0  0  0  0  0  0  0  0
    7.9146  -13.0976   20.6625 N   0  0  0  0  0  0  0  0  0  0  0  0
    8.1501  -15.4301   20.7317 C   0  0  0  0  0  0  0  0  0  0  0  0
    7.7539  -16.6244   20.5056 O   0  0  0  0  0  0  0  0  0  0  0  0
   14.2520  -15.7401   20.5502 N   0  0  0  0  0  0  0  0  0  0  0  0
   13.2068  -14.8162   20.3553 C   0  0  0  0  0  0  0  0  0  0  0  0
   13.3400  -13.9180   19.4996 O   0  0  0  0  0  0  0  0  0  0  0  0
   11.9865  -14.9070   21.1414 C   0  0  0  0  0  0  0  0  0  0  0  0
   11.3678  -16.2402   21.2700 C   0  0  0  0  0  0  0  0  0  0  0  0
   10.0461  -16.2849   22.0237 C   0  0  2  0  0  0  0  0  0  0  0  0
    9.3085  -15.1280   21.4647 N   0  0  0  0  0  0  0  0  0  0  0  0
   10.2065  -15.9892   23.4648 C   0  0  0  0  0  0  0  0  0  0  0  0
   10.8478  -14.9618   23.8875 O   0  0  0  0  0  0  0  0  0  0  0  0
    9.6783  -16.7908   24.5216 N   0  0  0  0  0  0  0  0  0  0  0  0
    9.9065  -16.5052   25.9219 C   0  0  1  0  0  0  0  0  0  0  0  0
    8.6307  -16.4365   26.7208 C   0  0  0  0  0  0  0  0  0  0  0  0
    7.6493  -15.5895   26.0580 C   0  0  0  0  0  0  0  0  0  0  0  0
    6.6578  -16.0403   25.2026 C   0  0  0  0  0  0  0  0  0  0  0  0
    5.9930  -14.9741   24.7880 N   0  0  0  0  0  0  0  0  0  0  0  0
    6.5001  -13.8635   25.3288 C   0  0  0  0  0  0  0  0  0  0  0  0
    6.1494  -12.5411   25.2143 C   0  0  0  0  0  0  0  0  0  0  0  0
    6.8484  -11.5518   25.9142 C   0  0  0  0  0  0  0  0  0  0  0  0
    7.8789  -11.9588   26.7035 C   0  0  0  0  0  0  0  0  0  0  0  0
    8.2468  -13.2773   26.8313 C   0  0  0  0  0  0  0  0  0  0  0  0
    7.5380  -14.2289   26.1274 C   0  0  0  0  0  0  0  0  0  0  0  0
   10.8505  -17.5052   26.4449 C   0  0  0  0  0  0  0  0  0  0  0  0
   11.1242  -18.5180   25.7590 O   0  0  0  0  0  0  0  0  0  0  0  0
   11.4511  -17.3658   27.6755 O   0  0  0  0  0  0  0  0  0  0  0  0
  2  1  1  0
  3  2  1  0
  4  3  1  0
  4  5  1  0
  5  7  1  0
  5  6  1  1
  7  8  2  0
 10 12  1  0
 10  9  1  0
 11 10  2  0
 14 13  1  6
 13 12  1  0
 15 14  1  0
 15  7  1  0
 16 17  2  0
 16 14  1  0
 18 16  1  0
 19 30  1  0
 19 18  1  0
 19 20  1  1
 21 29  1  0
 21 20  1  0
 22 21  2  0
 23 22  1  0
 23 24  1  0
 24 29  2  0
 25 24  1  0
 25 26  2  0
 26 27  1  0
 27 28  2  0
 29 28  1  0
 30 32  1  0
 31 30  2  0
M  END
$$$$
