MQW.pdb
     RDKit          3D

 32 33  0  0  1  0  0  0  0  0999 V2000
    9.6165  -12.5437   19.1770 C   0  0  0  0  0  0  0  0  0  0  0  0
    7.9545  -12.2552   19.7661 S   0  0  0  0  0  0  0  0  0  0  0  0
    7.0162  -13.6845   20.2114 C   0  0  0  0  0  0  0  0  0  0  0  0
    7.6361  -14.5731   21.2204 C   0  0  0  0  0  0  0  0  0  0  0  0
    7.6000  -16.0134   20.8945 C   0  0  2  0  0  0  0  0  0  0  0  0
    6.2466  -16.5584   21.0101 N   0  0  0  0  0  0  0  0  0  0  0  0
    8.3814  -16.7688   21.9583 C   0  0  0  0  0  0  0  0  0  0  0  0
    7.7319  -17.0897   23.0116 O   0  0  0  0  0  0  0  0  0  0  0  0
   12.0446  -18.5250   18.7571 N   0  0  0  0  0  0  0  0  0  0  0  0
   12.6281  -18.6778   20.0300 C   0  0  0  0  0  0  0  0  0  0  0  0
   13.8565  -18.5037   20.1615 O   0  0  0  0  0  0  0  0  0  0  0  0
   11.8095  -19.0344   21.1781 C   0  0  0  0  0  0  0  0  0  0  0  0
   11.7875  -18.0861   22.3081 C   0  0  0  0  0  0  0  0  0  0  0  0
   10.4127  -17.7758   22.8831 C   0  0  2  0  0  0  0  0  0  0  0  0
    9.7362  -17.0804   21.7634 N   0  0  0  0  0  0  0  0  0  0  0  0
   10.4693  -16.7871   23.9826 C   0  0  0  0  0  0  0  0  0  0  0  0
   11.0855  -15.6678   23.8681 O   0  0  0  0  0  0  0  0  0  0  0  0
    9.8593  -16.9597   25.2619 N   0  0  0  0  0  0  0  0  0  0  0  0
   10.4570  -16.4910   26.4937 C   0  0  1  0  0  0  0  0  0  0  0  0
    9.8703  -15.1873   26.9699 C   0  0  0  0  0  0  0  0  0  0  0  0
    8.4893  -15.0491   26.5298 C   0  0  0  0  0  0  0  0  0  0  0  0
    7.6206  -16.1014   26.2936 C   0  0  0  0  0  0  0  0  0  0  0  0
    6.4782  -15.5733   25.8857 N   0  0  0  0  0  0  0  0  0  0  0  0
    6.5625  -14.2413   25.8471 C   0  0  0  0  0  0  0  0  0  0  0  0
    5.6526  -13.2709   25.5074 C   0  0  0  0  0  0  0  0  0  0  0  0
    5.9948  -11.9158   25.5681 C   0  0  0  0  0  0  0  0  0  0  0  0
    7.2565  -11.6105   25.9749 C   0  0  0  0  0  0  0  0  0  0  0  0
    8.1827  -12.5666   26.3185 C   0  0  0  0  0  0  0  0  0  0  0  0
    7.8147  -13.8943   26.2474 C   0  0  0  0  0  0  0  0  0  0  0  0
   10.3436  -17.5636   27.4943 C   0  0  0  0  0  0  0  0  0  0  0  0
    9.6376  -18.5696   27.2479 O   0  0  0  0  0  0  0  0  0  0  0  0
   10.9936  -17.5006   28.7060 O   0  0  0  0  0  0  0  0  0  0  0  0
  2  1  1  0
  3  2  1  0
  4  3  1  0
  4  5  1  0
  5  7  1  0
  5  6  1  1
  7  8  2  0
 10 12  1  0
 10  9  1  0
 11 10  2  0
 14 13  1  6
 13 12  1  0
 15 14  1  0
 15  7  1  0
 16 17  2  0
 16 14  1  0
 18 16  1  0
 19 30  1  0
 19 18  1  0
 19 20  1  1
 21 29  1  0
 21 20  1  0
 22 21  2  0
 23 22  1  0
 23 24  1  0
 24 29  2  0
 25 24  1  0
 25 26  2  0
 26 27  1  0
 27 28  2  0
 29 28  1  0
 30 32  1  0
 31 30  2  0
M  END
$$$$
