MQW.pdb
     RDKit          3D

 32 33  0  0  1  0  0  0  0  0999 V2000
    8.1523  -11.3175   19.2415 C   0  0  0  0  0  0  0  0  0  0  0  0
    8.2482  -12.9205   20.0246 S   0  0  0  0  0  0  0  0  0  0  0  0
    6.7225  -13.6232   20.5727 C   0  0  0  0  0  0  0  0  0  0  0  0
    6.8307  -14.9031   21.3089 C   0  0  0  0  0  0  0  0  0  0  0  0
    7.6445  -15.9417   20.6449 C   0  0  2  0  0  0  0  0  0  0  0  0
    6.8064  -16.9333   19.9696 N   0  0  0  0  0  0  0  0  0  0  0  0
    8.3624  -16.7498   21.7148 C   0  0  0  0  0  0  0  0  0  0  0  0
    7.6446  -17.5832   22.3664 O   0  0  0  0  0  0  0  0  0  0  0  0
   14.3358  -18.2760   21.2508 N   0  0  0  0  0  0  0  0  0  0  0  0
   13.9738  -18.8459   22.4870 C   0  0  0  0  0  0  0  0  0  0  0  0
   14.7852  -19.5887   23.0758 O   0  0  0  0  0  0  0  0  0  0  0  0
   12.6702  -18.5727   23.0712 C   0  0  0  0  0  0  0  0  0  0  0  0
   11.7677  -17.6843   22.3142 C   0  0  0  0  0  0  0  0  0  0  0  0
   10.3681  -17.5193   22.8896 C   0  0  2  0  0  0  0  0  0  0  0  0
    9.7345  -16.5671   21.9478 N   0  0  0  0  0  0  0  0  0  0  0  0
   10.3726  -16.8315   24.1998 C   0  0  0  0  0  0  0  0  0  0  0  0
   10.8129  -15.6356   24.3457 O   0  0  0  0  0  0  0  0  0  0  0  0
    9.8983  -17.4039   25.4188 N   0  0  0  0  0  0  0  0  0  0  0  0
   10.0974  -16.7877   26.7129 C   0  0  1  0  0  0  0  0  0  0  0  0
    8.8156  -16.6293   27.4893 C   0  0  0  0  0  0  0  0  0  0  0  0
    7.8503  -15.8379   26.7399 C   0  0  0  0  0  0  0  0  0  0  0  0
    6.8257  -16.3569   25.9661 C   0  0  0  0  0  0  0  0  0  0  0  0
    6.1897  -15.3283   25.4294 N   0  0  0  0  0  0  0  0  0  0  0  0
    6.7465  -14.1775   25.8147 C   0  0  0  0  0  0  0  0  0  0  0  0
    6.4394  -12.8683   25.5375 C   0  0  0  0  0  0  0  0  0  0  0  0
    7.1872  -11.8245   26.0930 C   0  0  0  0  0  0  0  0  0  0  0  0
    8.2196  -12.1656   26.9106 C   0  0  0  0  0  0  0  0  0  0  0  0
    8.5441  -13.4697   27.2002 C   0  0  0  0  0  0  0  0  0  0  0  0
    7.7879  -14.4764   26.6361 C   0  0  0  0  0  0  0  0  0  0  0  0
   11.1091  -17.5692   27.4411 C   0  0  0  0  0  0  0  0  0  0  0  0
   11.5551  -18.6274   26.9386 O   0  0  0  0  0  0  0  0  0  0  0  0
   11.5890  -17.1743   28.6693 O   0  0  0  0  0  0  0  0  0  0  0  0
  2  1  1  0
  3  2  1  0
  4  3  1  0
  4  5  1  0
  5  7  1  0
  5  6  1  1
  7  8  2  0
 10 12  1  0
 10  9  1  0
 11 10  2  0
 14 13  1  6
 13 12  1  0
 15 14  1  0
 15  7  1  0
 16 17  2  0
 16 14  1  0
 18 16  1  0
 19 30  1  0
 19 18  1  0
 19 20  1  1
 21 29  1  0
 21 20  1  0
 22 21  2  0
 23 22  1  0
 23 24  1  0
 24 29  2  0
 25 24  1  0
 25 26  2  0
 26 27  1  0
 27 28  2  0
 29 28  1  0
 30 32  1  0
 31 30  2  0
M  END
$$$$
