MQW.pdb
     RDKit          3D

 32 33  0  0  1  0  0  0  0  0999 V2000
    7.5840  -11.1003   19.3598 C   0  0  0  0  0  0  0  0  0  0  0  0
    8.2198  -12.0791   18.0070 S   0  0  0  0  0  0  0  0  0  0  0  0
    8.6090  -13.7644   18.3674 C   0  0  0  0  0  0  0  0  0  0  0  0
    8.0522  -14.2978   19.6313 C   0  0  0  0  0  0  0  0  0  0  0  0
    8.9697  -15.1562   20.4080 C   0  0  2  0  0  0  0  0  0  0  0  0
    9.5230  -16.2345   19.5877 N   0  0  0  0  0  0  0  0  0  0  0  0
    8.1628  -15.8909   21.4672 C   0  0  0  0  0  0  0  0  0  0  0  0
    7.3113  -15.1892   22.1128 O   0  0  0  0  0  0  0  0  0  0  0  0
    8.5437  -22.0998   22.5195 N   0  0  0  0  0  0  0  0  0  0  0  0
    7.5106  -21.5486   21.7365 C   0  0  0  0  0  0  0  0  0  0  0  0
    6.8487  -22.2962   20.9884 O   0  0  0  0  0  0  0  0  0  0  0  0
    7.2179  -20.1253   21.7985 C   0  0  0  0  0  0  0  0  0  0  0  0
    7.9942  -19.3212   22.7616 C   0  0  0  0  0  0  0  0  0  0  0  0
    7.6252  -17.8464   22.8391 C   0  0  2  0  0  0  0  0  0  0  0  0
    8.3654  -17.2608   21.6972 N   0  0  0  0  0  0  0  0  0  0  0  0
    8.1769  -17.1879   24.0440 C   0  0  0  0  0  0  0  0  0  0  0  0
    7.6323  -16.1528   24.5708 O   0  0  0  0  0  0  0  0  0  0  0  0
    9.3462  -17.6186   24.7410 N   0  0  0  0  0  0  0  0  0  0  0  0
   10.0044  -16.8196   25.7523 C   0  0  1  0  0  0  0  0  0  0  0  0
    9.0935  -16.4576   26.8967 C   0  0  0  0  0  0  0  0  0  0  0  0
    8.0076  -15.6002   26.4434 C   0  0  0  0  0  0  0  0  0  0  0  0
    6.7722  -16.0461   26.0043 C   0  0  0  0  0  0  0  0  0  0  0  0
    6.0776  -14.9751   25.6565 N   0  0  0  0  0  0  0  0  0  0  0  0
    6.7957  -13.8658   25.8479 C   0  0  0  0  0  0  0  0  0  0  0  0
    6.5085  -12.5379   25.6498 C   0  0  0  0  0  0  0  0  0  0  0  0
    7.4510  -11.5489   25.9511 C   0  0  0  0  0  0  0  0  0  0  0  0
    8.6501  -11.9616   26.4434 C   0  0  0  0  0  0  0  0  0  0  0  0
    8.9579  -13.2857   26.6481 C   0  0  0  0  0  0  0  0  0  0  0  0
    8.0073  -14.2371   26.3406 C   0  0  0  0  0  0  0  0  0  0  0  0
   11.2094  -17.5402   26.1920 C   0  0  0  0  0  0  0  0  0  0  0  0
   11.5164  -18.6262   25.6465 O   0  0  0  0  0  0  0  0  0  0  0  0
   12.0213  -17.0578   27.1934 O   0  0  0  0  0  0  0  0  0  0  0  0
  2  1  1  0
  3  2  1  0
  4  3  1  0
  4  5  1  0
  5  7  1  0
  5  6  1  6
  7  8  2  0
 10 12  1  0
 10  9  1  0
 11 10  2  0
 14 13  1  1
 13 12  1  0
 15 14  1  0
 15  7  1  0
 16 17  2  0
 16 14  1  0
 18 16  1  0
 19 30  1  0
 19 18  1  0
 19 20  1  1
 21 29  1  0
 21 20  1  0
 22 21  2  0
 23 22  1  0
 23 24  1  0
 24 29  2  0
 25 24  1  0
 25 26  2  0
 26 27  1  0
 27 28  2  0
 29 28  1  0
 30 32  1  0
 31 30  2  0
M  END
$$$$
