MQW.pdb
     RDKit          3D

 32 33  0  0  1  0  0  0  0  0999 V2000
    8.9220  -11.8237   20.2586 C   0  0  0  0  0  0  0  0  0  0  0  0
    7.4306  -12.3859   19.4512 S   0  0  0  0  0  0  0  0  0  0  0  0
    7.2463  -14.1329   19.2626 C   0  0  0  0  0  0  0  0  0  0  0  0
    7.4514  -14.9381   20.4880 C   0  0  0  0  0  0  0  0  0  0  0  0
    8.8235  -15.4508   20.6792 C   0  0  2  0  0  0  0  0  0  0  0  0
    9.2402  -16.3041   19.5657 N   0  0  0  0  0  0  0  0  0  0  0  0
    8.8244  -16.3941   21.8721 C   0  0  0  0  0  0  0  0  0  0  0  0
    7.8646  -16.2496   22.7042 O   0  0  0  0  0  0  0  0  0  0  0  0
   12.5673  -21.4586   22.5548 N   0  0  0  0  0  0  0  0  0  0  0  0
   11.8911  -21.3702   23.7873 C   0  0  0  0  0  0  0  0  0  0  0  0
   12.1031  -22.2351   24.6612 O   0  0  0  0  0  0  0  0  0  0  0  0
   10.9568  -20.2845   24.0393 C   0  0  0  0  0  0  0  0  0  0  0  0
   10.8003  -19.2727   22.9769 C   0  0  0  0  0  0  0  0  0  0  0  0
    9.7716  -18.1841   23.2484 C   0  0  2  0  0  0  0  0  0  0  0  0
    9.8350  -17.3570   22.0209 N   0  0  0  0  0  0  0  0  0  0  0  0
   10.1782  -17.2836   24.3501 C   0  0  0  0  0  0  0  0  0  0  0  0
   11.2038  -16.5177   24.2675 O   0  0  0  0  0  0  0  0  0  0  0  0
    9.4928  -17.1656   25.5970 N   0  0  0  0  0  0  0  0  0  0  0  0
   10.0415  -16.4661   26.7389 C   0  0  1  0  0  0  0  0  0  0  0  0
    8.9810  -15.8354   27.6039 C   0  0  0  0  0  0  0  0  0  0  0  0
    7.8717  -15.3520   26.7941 C   0  0  0  0  0  0  0  0  0  0  0  0
    6.8998  -16.1524   26.2173 C   0  0  0  0  0  0  0  0  0  0  0  0
    6.0906  -15.3508   25.5442 N   0  0  0  0  0  0  0  0  0  0  0  0
    6.4863  -14.0805   25.6561 C   0  0  0  0  0  0  0  0  0  0  0  0
    5.9725  -12.9092   25.1570 C   0  0  0  0  0  0  0  0  0  0  0  0
    6.5813  -11.6820   25.4410 C   0  0  0  0  0  0  0  0  0  0  0  0
    7.6924  -11.7056   26.2255 C   0  0  0  0  0  0  0  0  0  0  0  0
    8.2233  -12.8672   26.7343 C   0  0  0  0  0  0  0  0  0  0  0  0
    7.6001  -14.0612   26.4355 C   0  0  0  0  0  0  0  0  0  0  0  0
   10.8965  -17.4044   27.4826 C   0  0  0  0  0  0  0  0  0  0  0  0
   10.9030  -18.6183   27.1707 O   0  0  0  0  0  0  0  0  0  0  0  0
   11.6995  -16.9908   28.5213 O   0  0  0  0  0  0  0  0  0  0  0  0
  2  1  1  0
  3  2  1  0
  4  3  1  0
  4  5  1  0
  5  7  1  0
  5  6  1  6
  7  8  2  0
 10 12  1  0
 10  9  1  0
 11 10  2  0
 14 13  1  6
 13 12  1  0
 15 14  1  0
 15  7  1  0
 16 17  2  0
 16 14  1  0
 18 16  1  0
 19 30  1  0
 19 18  1  0
 19 20  1  1
 21 29  1  0
 21 20  1  0
 22 21  2  0
 23 22  1  0
 23 24  1  0
 24 29  2  0
 25 24  1  0
 25 26  2  0
 26 27  1  0
 27 28  2  0
 29 28  1  0
 30 32  1  0
 31 30  2  0
M  END
$$$$
