MQW.pdb
     RDKit          3D

 32 33  0  0  1  0  0  0  0  0999 V2000
    8.1126  -12.8258   20.1723 C   0  0  0  0  0  0  0  0  0  0  0  0
    6.4384  -13.1500   20.7057 S   0  0  0  0  0  0  0  0  0  0  0  0
    6.0456  -14.8280   21.0952 C   0  0  0  0  0  0  0  0  0  0  0  0
    7.0924  -15.5826   21.8209 C   0  0  0  0  0  0  0  0  0  0  0  0
    7.7469  -16.6539   21.0425 C   0  0  2  0  0  0  0  0  0  0  0  0
    6.9847  -17.9021   21.0967 N   0  0  0  0  0  0  0  0  0  0  0  0
    9.0616  -17.0084   21.7198 C   0  0  0  0  0  0  0  0  0  0  0  0
    9.1762  -18.2140   22.1293 O   0  0  0  0  0  0  0  0  0  0  0  0
   14.1756  -14.2758   19.5055 N   0  0  0  0  0  0  0  0  0  0  0  0
   14.6147  -14.8141   20.7309 C   0  0  0  0  0  0  0  0  0  0  0  0
   15.7442  -14.5052   21.1616 O   0  0  0  0  0  0  0  0  0  0  0  0
   13.7627  -15.7193   21.4858 C   0  0  0  0  0  0  0  0  0  0  0  0
   12.3046  -15.5413   21.3479 C   0  0  0  0  0  0  0  0  0  0  0  0
   11.4429  -16.5634   22.0758 C   0  0  2  0  0  0  0  0  0  0  0  0
   10.0707  -16.0442   21.8701 N   0  0  0  0  0  0  0  0  0  0  0  0
   11.6554  -16.5422   23.5401 C   0  0  0  0  0  0  0  0  0  0  0  0
   12.7580  -16.9151   24.0792 O   0  0  0  0  0  0  0  0  0  0  0  0
   10.6844  -16.1137   24.4951 N   0  0  0  0  0  0  0  0  0  0  0  0
   10.9183  -16.1287   25.9232 C   0  0  1  0  0  0  0  0  0  0  0  0
   10.3398  -14.9266   26.6238 C   0  0  0  0  0  0  0  0  0  0  0  0
    8.9283  -14.7694   26.3029 C   0  0  0  0  0  0  0  0  0  0  0  0
    8.0769  -15.7977   25.9348 C   0  0  0  0  0  0  0  0  0  0  0  0
    6.8940  -15.2531   25.7013 N   0  0  0  0  0  0  0  0  0  0  0  0
    6.9360  -13.9333   25.8990 C   0  0  0  0  0  0  0  0  0  0  0  0
    5.9766  -12.9565   25.7979 C   0  0  0  0  0  0  0  0  0  0  0  0
    6.2819  -11.6209   26.0813 C   0  0  0  0  0  0  0  0  0  0  0  0
    7.5591  -11.3411   26.4572 C   0  0  0  0  0  0  0  0  0  0  0  0
    8.5346  -12.3039   26.5637 C   0  0  0  0  0  0  0  0  0  0  0  0
    8.2019  -13.6117   26.2767 C   0  0  0  0  0  0  0  0  0  0  0  0
   10.4039  -17.3992   26.4577 C   0  0  0  0  0  0  0  0  0  0  0  0
   10.5185  -17.6494   27.6806 O   0  0  0  0  0  0  0  0  0  0  0  0
    9.7935  -18.3339   25.6525 O   0  0  0  0  0  0  0  0  0  0  0  0
  2  1  1  0
  3  2  1  0
  4  3  1  0
  4  5  1  0
  5  7  1  0
  5  6  1  1
  7  8  2  0
 10 12  1  0
 10  9  1  0
 11 10  2  0
 14 13  1  6
 13 12  1  0
 15 14  1  0
 15  7  1  0
 16 17  2  0
 16 14  1  0
 18 16  1  0
 19 30  1  0
 19 18  1  0
 19 20  1  1
 21 29  1  0
 21 20  1  0
 22 21  2  0
 23 22  1  0
 23 24  1  0
 24 29  2  0
 25 24  1  0
 25 26  2  0
 26 27  1  0
 27 28  2  0
 29 28  1  0
 30 32  1  0
 31 30  2  0
M  END
$$$$
