MQW.pdb
     RDKit          3D

 32 33  0  0  1  0  0  0  0  0999 V2000
    7.6346  -11.3239   19.9578 C   0  0  0  0  0  0  0  0  0  0  0  0
    7.9344  -13.0060   20.4801 S   0  0  0  0  0  0  0  0  0  0  0  0
    6.5090  -13.9867   20.8380 C   0  0  0  0  0  0  0  0  0  0  0  0
    6.6977  -15.4526   20.7519 C   0  0  0  0  0  0  0  0  0  0  0  0
    8.0023  -15.8864   20.2117 C   0  0  2  0  0  0  0  0  0  0  0  0
    7.8466  -16.6381   18.9657 N   0  0  0  0  0  0  0  0  0  0  0  0
    8.6074  -16.9019   21.1685 C   0  0  0  0  0  0  0  0  0  0  0  0
    8.4796  -18.1306   20.8392 O   0  0  0  0  0  0  0  0  0  0  0  0
   14.0631  -19.0765   22.2082 N   0  0  0  0  0  0  0  0  0  0  0  0
   13.5175  -17.8026   21.9561 C   0  0  0  0  0  0  0  0  0  0  0  0
   14.0569  -17.0669   21.1050 O   0  0  0  0  0  0  0  0  0  0  0  0
   12.3396  -17.3491   22.6787 C   0  0  0  0  0  0  0  0  0  0  0  0
   11.0564  -17.9966   22.3456 C   0  0  0  0  0  0  0  0  0  0  0  0
    9.8578  -17.5506   23.1712 C   0  0  2  0  0  0  0  0  0  0  0  0
    9.2622  -16.4812   22.3367 N   0  0  0  0  0  0  0  0  0  0  0  0
   10.2553  -16.8884   24.4334 C   0  0  0  0  0  0  0  0  0  0  0  0
   10.9320  -15.7988   24.4534 O   0  0  0  0  0  0  0  0  0  0  0  0
    9.9380  -17.3720   25.7388 N   0  0  0  0  0  0  0  0  0  0  0  0
   10.1865  -16.6137   26.9461 C   0  0  1  0  0  0  0  0  0  0  0  0
    8.9391  -16.3824   27.7592 C   0  0  0  0  0  0  0  0  0  0  0  0
    7.9299  -15.6867   26.9734 C   0  0  0  0  0  0  0  0  0  0  0  0
    6.9005  -16.2996   26.2788 C   0  0  0  0  0  0  0  0  0  0  0  0
    6.2191  -15.3400   25.6744 N   0  0  0  0  0  0  0  0  0  0  0  0
    6.7512  -14.1448   25.9415 C   0  0  0  0  0  0  0  0  0  0  0  0
    6.3972  -12.8740   25.5613 C   0  0  0  0  0  0  0  0  0  0  0  0
    7.1281  -11.7652   26.0014 C   0  0  0  0  0  0  0  0  0  0  0  0
    8.1926  -12.0047   26.8140 C   0  0  0  0  0  0  0  0  0  0  0  0
    8.5642  -13.2689   27.2056 C   0  0  0  0  0  0  0  0  0  0  0  0
    7.8235  -14.3417   26.7540 C   0  0  0  0  0  0  0  0  0  0  0  0
   11.2417  -17.2995   27.7081 C   0  0  0  0  0  0  0  0  0  0  0  0
   11.6495  -16.8054   28.7855 O   0  0  0  0  0  0  0  0  0  0  0  0
   11.8033  -18.4790   27.2745 O   0  0  0  0  0  0  0  0  0  0  0  0
  2  1  1  0
  3  2  1  0
  4  3  1  0
  4  5  1  0
  5  7  1  0
  5  6  1  6
  7  8  2  0
 10 12  1  0
 10  9  1  0
 11 10  2  0
 14 13  1  6
 13 12  1  0
 15 14  1  0
 15  7  1  0
 16 17  2  0
 16 14  1  0
 18 16  1  0
 19 30  1  0
 19 18  1  0
 19 20  1  1
 21 29  1  0
 21 20  1  0
 22 21  2  0
 23 22  1  0
 23 24  1  0
 24 29  2  0
 25 24  1  0
 25 26  2  0
 26 27  1  0
 27 28  2  0
 29 28  1  0
 30 32  1  0
 31 30  2  0
M  END
$$$$
