MQW.pdb
     RDKit          3D

 32 33  0  0  1  0  0  0  0  0999 V2000
    7.5451  -11.3274   19.9860 C   0  0  0  0  0  0  0  0  0  0  0  0
    7.9051  -12.9900   20.5326 S   0  0  0  0  0  0  0  0  0  0  0  0
    6.5215  -13.9812   21.0070 C   0  0  0  0  0  0  0  0  0  0  0  0
    6.8463  -15.2974   21.6021 C   0  0  0  0  0  0  0  0  0  0  0  0
    7.7854  -16.1256   20.8184 C   0  0  2  0  0  0  0  0  0  0  0  0
    7.0846  -17.1575   20.0530 N   0  0  0  0  0  0  0  0  0  0  0  0
    8.6488  -16.9217   21.7846 C   0  0  0  0  0  0  0  0  0  0  0  0
    8.1190  -17.9776   22.2733 O   0  0  0  0  0  0  0  0  0  0  0  0
   14.0373  -19.3894   21.9155 N   0  0  0  0  0  0  0  0  0  0  0  0
   13.3046  -18.8498   20.8402 C   0  0  0  0  0  0  0  0  0  0  0  0
   13.5977  -19.1853   19.6747 O   0  0  0  0  0  0  0  0  0  0  0  0
   12.2195  -17.9127   21.0842 C   0  0  0  0  0  0  0  0  0  0  0  0
   12.1057  -17.3563   22.4459 C   0  0  0  0  0  0  0  0  0  0  0  0
   10.7052  -17.3514   23.0423 C   0  0  2  0  0  0  0  0  0  0  0  0
    9.9484  -16.4948   22.0997 N   0  0  0  0  0  0  0  0  0  0  0  0
   10.6471  -16.6497   24.3438 C   0  0  0  0  0  0  0  0  0  0  0  0
   11.3642  -15.6173   24.5997 O   0  0  0  0  0  0  0  0  0  0  0  0
    9.8073  -17.0296   25.4342 N   0  0  0  0  0  0  0  0  0  0  0  0
   10.1162  -16.7253   26.8149 C   0  0  1  0  0  0  0  0  0  0  0  0
    8.8915  -16.4017   27.6310 C   0  0  0  0  0  0  0  0  0  0  0  0
    7.9018  -15.7012   26.8249 C   0  0  0  0  0  0  0  0  0  0  0  0
    6.9240  -16.3121   26.0577 C   0  0  0  0  0  0  0  0  0  0  0  0
    6.2456  -15.3469   25.4589 N   0  0  0  0  0  0  0  0  0  0  0  0
    6.7310  -14.1501   25.7980 C   0  0  0  0  0  0  0  0  0  0  0  0
    6.3602  -12.8746   25.4509 C   0  0  0  0  0  0  0  0  0  0  0  0
    7.0382  -11.7659   25.9690 C   0  0  0  0  0  0  0  0  0  0  0  0
    8.0691  -12.0102   26.8223 C   0  0  0  0  0  0  0  0  0  0  0  0
    8.4568  -13.2792   27.1819 C   0  0  0  0  0  0  0  0  0  0  0  0
    7.7685  -14.3517   26.6533 C   0  0  0  0  0  0  0  0  0  0  0  0
   10.8873  -17.8488   27.3696 C   0  0  0  0  0  0  0  0  0  0  0  0
   10.9565  -18.9271   26.7343 O   0  0  0  0  0  0  0  0  0  0  0  0
   11.5435  -17.7562   28.5760 O   0  0  0  0  0  0  0  0  0  0  0  0
  2  1  1  0
  3  2  1  0
  4  3  1  0
  4  5  1  0
  5  7  1  0
  5  6  1  6
  7  8  2  0
 10 12  1  0
 10  9  1  0
 11 10  2  0
 14 13  1  6
 13 12  1  0
 15 14  1  0
 15  7  1  0
 16 17  2  0
 16 14  1  0
 18 16  1  0
 19 30  1  0
 19 18  1  0
 19 20  1  1
 21 29  1  0
 21 20  1  0
 22 21  2  0
 23 22  1  0
 23 24  1  0
 24 29  2  0
 25 24  1  0
 25 26  2  0
 26 27  1  0
 27 28  2  0
 29 28  1  0
 30 32  1  0
 31 30  2  0
M  END
$$$$
