MQW.pdb
     RDKit          3D

 32 33  0  0  1  0  0  0  0  0999 V2000
    8.8169  -12.1170   18.6752 C   0  0  0  0  0  0  0  0  0  0  0  0
    7.8614  -12.1273   20.1849 S   0  0  0  0  0  0  0  0  0  0  0  0
    7.7460  -13.6720   21.0348 C   0  0  0  0  0  0  0  0  0  0  0  0
    7.1819  -14.7961   20.2538 C   0  0  0  0  0  0  0  0  0  0  0  0
    7.0238  -16.0612   20.9998 C   0  0  2  0  0  0  0  0  0  0  0  0
    6.6043  -15.8234   22.3816 N   0  0  0  0  0  0  0  0  0  0  0  0
    8.3921  -16.7083   21.1482 C   0  0  0  0  0  0  0  0  0  0  0  0
    8.8253  -17.3477   20.1294 O   0  0  0  0  0  0  0  0  0  0  0  0
   12.8864  -15.4479   19.2874 N   0  0  0  0  0  0  0  0  0  0  0  0
   12.4544  -14.6663   20.3767 C   0  0  0  0  0  0  0  0  0  0  0  0
   12.8303  -13.4796   20.4615 O   0  0  0  0  0  0  0  0  0  0  0  0
   11.5808  -15.2346   21.3912 C   0  0  0  0  0  0  0  0  0  0  0  0
   11.1664  -16.6391   21.2106 C   0  0  0  0  0  0  0  0  0  0  0  0
   10.4298  -17.2664   22.3857 C   0  0  2  0  0  0  0  0  0  0  0  0
    9.1119  -16.5907   22.3476 N   0  0  0  0  0  0  0  0  0  0  0  0
   11.0240  -16.8950   23.6891 C   0  0  0  0  0  0  0  0  0  0  0  0
   12.2224  -17.2171   24.0139 O   0  0  0  0  0  0  0  0  0  0  0  0
   10.3505  -16.1535   24.7065 N   0  0  0  0  0  0  0  0  0  0  0  0
   10.7621  -16.1589   26.0939 C   0  0  1  0  0  0  0  0  0  0  0  0
   10.1170  -15.0613   26.9001 C   0  0  0  0  0  0  0  0  0  0  0  0
    8.7164  -14.9046   26.5345 C   0  0  0  0  0  0  0  0  0  0  0  0
    7.8582  -15.9419   26.2095 C   0  0  0  0  0  0  0  0  0  0  0  0
    6.6900  -15.3963   25.9127 N   0  0  0  0  0  0  0  0  0  0  0  0
    6.7478  -14.0674   26.0292 C   0  0  0  0  0  0  0  0  0  0  0  0
    5.8065  -13.0854   25.8434 C   0  0  0  0  0  0  0  0  0  0  0  0
    6.1256  -11.7392   26.0511 C   0  0  0  0  0  0  0  0  0  0  0  0
    7.3974  -11.4545   26.4411 C   0  0  0  0  0  0  0  0  0  0  0  0
    8.3549  -12.4224   26.6317 C   0  0  0  0  0  0  0  0  0  0  0  0
    8.0090  -13.7408   26.4181 C   0  0  0  0  0  0  0  0  0  0  0  0
   10.4982  -17.4975   26.6444 C   0  0  0  0  0  0  0  0  0  0  0  0
   10.9091  -17.7881   27.7923 O   0  0  0  0  0  0  0  0  0  0  0  0
    9.8075  -18.4534   25.9345 O   0  0  0  0  0  0  0  0  0  0  0  0
  2  1  1  0
  3  2  1  0
  4  3  1  0
  4  5  1  0
  5  7  1  0
  5  6  1  1
  7  8  2  0
 10 12  1  0
 10  9  1  0
 11 10  2  0
 14 13  1  6
 13 12  1  0
 15 14  1  0
 15  7  1  0
 16 17  2  0
 16 14  1  0
 18 16  1  0
 19 30  1  0
 19 18  1  0
 19 20  1  1
 21 29  1  0
 21 20  1  0
 22 21  2  0
 23 22  1  0
 23 24  1  0
 24 29  2  0
 25 24  1  0
 25 26  2  0
 26 27  1  0
 27 28  2  0
 29 28  1  0
 30 32  1  0
 31 30  2  0
M  END
$$$$
