MQW.pdb
     RDKit          3D

 32 33  0  0  1  0  0  0  0  0999 V2000
    8.4055  -16.7496   27.9012 C   0  0  0  0  0  0  0  0  0  0  0  0
    6.8849  -17.1490   27.0523 S   0  0  0  0  0  0  0  0  0  0  0  0
    6.8415  -18.6944   26.1970 C   0  0  0  0  0  0  0  0  0  0  0  0
    7.4590  -18.7032   24.8514 C   0  0  0  0  0  0  0  0  0  0  0  0
    6.5177  -18.5191   23.7281 C   0  0  2  0  0  0  0  0  0  0  0  0
    5.7499  -19.7366   23.4632 N   0  0  0  0  0  0  0  0  0  0  0  0
    7.3214  -18.3190   22.4526 C   0  0  0  0  0  0  0  0  0  0  0  0
    7.9108  -19.3552   21.9908 O   0  0  0  0  0  0  0  0  0  0  0  0
    6.1630  -13.0380   19.5863 N   0  0  0  0  0  0  0  0  0  0  0  0
    7.4840  -13.4359   19.3021 C   0  0  0  0  0  0  0  0  0  0  0  0
    8.0993  -12.8818   18.3688 O   0  0  0  0  0  0  0  0  0  0  0  0
    8.1242  -14.4802   20.0863 C   0  0  0  0  0  0  0  0  0  0  0  0
    7.6894  -15.8682   19.8390 C   0  0  0  0  0  0  0  0  0  0  0  0
    8.3415  -16.9301   20.7132 C   0  0  2  0  0  0  0  0  0  0  0  0
    7.3912  -17.0566   21.8427 N   0  0  0  0  0  0  0  0  0  0  0  0
    9.6097  -16.4647   21.3173 C   0  0  0  0  0  0  0  0  0  0  0  0
   10.6744  -16.2844   20.6248 O   0  0  0  0  0  0  0  0  0  0  0  0
    9.7886  -16.1689   22.7026 N   0  0  0  0  0  0  0  0  0  0  0  0
   11.0514  -15.7391   23.2637 C   0  0  1  0  0  0  0  0  0  0  0  0
   10.9692  -14.3858   23.9214 C   0  0  0  0  0  0  0  0  0  0  0  0
   10.1212  -14.4349   25.1039 C   0  0  0  0  0  0  0  0  0  0  0  0
   10.3914  -15.1692   26.2466 C   0  0  0  0  0  0  0  0  0  0  0  0
    9.3791  -14.9763   27.0764 N   0  0  0  0  0  0  0  0  0  0  0  0
    8.4739  -14.1591   26.5327 C   0  0  0  0  0  0  0  0  0  0  0  0
    7.2830  -13.6625   27.0019 C   0  0  0  0  0  0  0  0  0  0  0  0
    6.5138  -12.7916   26.2226 C   0  0  0  0  0  0  0  0  0  0  0  0
    6.9972  -12.4651   24.9936 C   0  0  0  0  0  0  0  0  0  0  0  0
    8.1864  -12.9519   24.5049 C   0  0  0  0  0  0  0  0  0  0  0  0
    8.9214  -13.8093   25.2975 C   0  0  0  0  0  0  0  0  0  0  0  0
   11.5254  -16.7877   24.1803 C   0  0  0  0  0  0  0  0  0  0  0  0
   10.7497  -17.7122   24.5193 O   0  0  0  0  0  0  0  0  0  0  0  0
   12.8062  -16.7895   24.6846 O   0  0  0  0  0  0  0  0  0  0  0  0
  2  1  1  0
  3  2  1  0
  4  3  1  0
  4  5  1  0
  5  7  1  0
  5  6  1  6
  7  8  2  0
 10 12  1  0
 10  9  1  0
 11 10  2  0
 14 13  1  6
 13 12  1  0
 15 14  1  0
 15  7  1  0
 16 17  2  0
 16 14  1  0
 18 16  1  0
 19 30  1  0
 19 18  1  0
 19 20  1  1
 21 29  1  0
 21 20  1  0
 22 21  2  0
 23 22  1  0
 23 24  1  0
 24 29  2  0
 25 24  1  0
 25 26  2  0
 26 27  1  0
 27 28  2  0
 29 28  1  0
 30 32  1  0
 31 30  2  0
M  END
$$$$
