WNS.pdb
     RDKit          3D

 29 30  0  0  1  0  0  0  0  0999 V2000
   17.8217  -19.9840   -0.2196 N   0  0  0  0  0  0  0  0  0  0  0  0
   18.8592  -19.3548    0.6221 C   0  0  1  0  0  0  0  0  0  0  0  0
   19.3917  -18.2161   -0.1554 C   0  0  0  0  0  0  0  0  0  0  0  0
   20.2893  -18.6142   -1.2498 C   0  0  0  0  0  0  0  0  0  0  0  0
   19.8667  -19.1484   -2.4632 C   0  0  0  0  0  0  0  0  0  0  0  0
   20.9746  -19.3850   -3.1704 N   0  0  0  0  0  0  0  0  0  0  0  0
   22.0792  -19.0277   -2.4718 C   0  0  0  0  0  0  0  0  0  0  0  0
   23.4301  -19.0511   -2.7395 C   0  0  0  0  0  0  0  0  0  0  0  0
   24.3374  -18.5947   -1.8078 C   0  0  0  0  0  0  0  0  0  0  0  0
   23.9440  -18.0972   -0.5735 C   0  0  0  0  0  0  0  0  0  0  0  0
   22.5943  -18.0785   -0.3171 C   0  0  0  0  0  0  0  0  0  0  0  0
   21.6708  -18.5381   -1.2573 C   0  0  0  0  0  0  0  0  0  0  0  0
   18.2967  -19.0955    1.9348 C   0  0  0  0  0  0  0  0  0  0  0  0
   18.9795  -18.3759    2.7455 O   0  0  0  0  0  0  0  0  0  0  0  0
   13.9717  -17.0185    2.2888 N   0  0  0  0  0  0  0  0  0  0  0  0
   14.9445  -17.3711    3.2810 C   0  0  0  0  0  0  0  0  0  0  0  0
   15.6563  -16.4880    3.8293 O   0  0  0  0  0  0  0  0  0  0  0  0
   15.1387  -18.7639    3.6876 C   0  0  0  0  0  0  0  0  0  0  0  0
   16.5983  -19.1758    3.8050 C   0  0  2  0  0  0  0  0  0  0  0  0
   17.0634  -19.5416    2.4460 N   0  0  0  0  0  0  0  0  0  0  0  0
   16.8218  -20.2721    4.7473 C   0  0  0  0  0  0  0  0  0  0  0  0
   16.3322  -20.1301    5.9331 O   0  0  0  0  0  0  0  0  0  0  0  0
   19.1291  -22.7767    7.5972 O   0  0  0  0  0  0  0  0  0  0  0  0
   18.8964  -21.9319    6.5343 C   0  0  0  0  0  0  0  0  0  0  0  0
   17.7467  -22.4326    5.6401 C   0  0  2  0  0  0  0  0  0  0  0  0
   17.5032  -21.4837    4.5506 N   0  0  0  0  0  0  0  0  0  0  0  0
   16.5686  -22.4850    6.4967 C   0  0  0  0  0  0  0  0  0  0  0  0
   16.0443  -23.6721    6.9315 O   0  0  0  0  0  0  0  0  0  0  0  0
   16.0166  -21.4173    6.8506 O   0  0  0  0  0  0  0  0  0  0  0  0
  2  1  1  6
  2 13  1  0
  3  2  1  0
  3  4  1  0
  4 12  1  0
  4  5  2  0
  5  6  1  0
  7  8  2  0
  7  6  1  0
  9  8  1  0
 10  9  2  0
 11 10  1  0
 11 12  2  0
 12  7  1  0
 13 20  1  0
 13 14  2  0
 15 16  1  0
 16 18  1  0
 17 16  2  0
 19 18  1  6
 19 21  1  0
 20 19  1  0
 21 26  1  0
 21 22  2  0
 25 24  1  1
 24 23  1  0
 25 27  1  0
 26 25  1  0
 27 28  1  0
 29 27  2  0
M  END
$$$$
