WNS.pdb
     RDKit          3D

 29 30  0  0  1  0  0  0  0  0999 V2000
   24.9639  -19.2683  -11.9393 N   0  0  0  0  0  0  0  0  0  0  0  0
   25.9593  -20.3501  -12.0797 C   0  0  1  0  0  0  0  0  0  0  0  0
   25.6523  -21.3377  -11.0237 C   0  0  0  0  0  0  0  0  0  0  0  0
   25.9398  -20.8592   -9.6635 C   0  0  0  0  0  0  0  0  0  0  0  0
   24.9730  -20.4602   -8.7456 C   0  0  0  0  0  0  0  0  0  0  0  0
   25.6352  -20.0883   -7.6472 N   0  0  0  0  0  0  0  0  0  0  0  0
   26.9718  -20.2314   -7.8171 C   0  0  0  0  0  0  0  0  0  0  0  0
   28.0681  -20.0092   -7.0134 C   0  0  0  0  0  0  0  0  0  0  0  0
   29.3403  -20.2693   -7.4752 C   0  0  0  0  0  0  0  0  0  0  0  0
   29.5785  -20.7595   -8.7515 C   0  0  0  0  0  0  0  0  0  0  0  0
   28.4779  -20.9774   -9.5446 C   0  0  0  0  0  0  0  0  0  0  0  0
   27.1871  -20.7171   -9.0818 C   0  0  0  0  0  0  0  0  0  0  0  0
   25.9701  -20.7934  -13.4618 C   0  0  0  0  0  0  0  0  0  0  0  0
   24.9069  -20.6157  -14.1542 O   0  0  0  0  0  0  0  0  0  0  0  0
   29.0873  -18.9144  -15.2816 N   0  0  0  0  0  0  0  0  0  0  0  0
   28.1905  -19.5875  -16.1748 C   0  0  0  0  0  0  0  0  0  0  0  0
   27.4003  -18.9356  -16.9081 O   0  0  0  0  0  0  0  0  0  0  0  0
   28.1669  -21.0485  -16.2633 C   0  0  0  0  0  0  0  0  0  0  0  0
   26.9487  -21.6874  -15.6140 C   0  0  2  0  0  0  0  0  0  0  0  0
   27.0266  -21.4074  -14.1605 N   0  0  0  0  0  0  0  0  0  0  0  0
   26.8394  -23.1244  -15.8649 C   0  0  0  0  0  0  0  0  0  0  0  0
   27.7646  -23.6619  -16.5866 O   0  0  0  0  0  0  0  0  0  0  0  0
   23.5822  -26.5448  -15.5956 O   0  0  0  0  0  0  0  0  0  0  0  0
   24.8687  -26.2726  -15.1851 C   0  0  0  0  0  0  0  0  0  0  0  0
   25.5783  -25.2833  -16.1285 C   0  0  2  0  0  0  0  0  0  0  0  0
   25.8576  -24.0275  -15.4272 N   0  0  0  0  0  0  0  0  0  0  0  0
   24.6400  -25.0232  -17.2132 C   0  0  0  0  0  0  0  0  0  0  0  0
   24.7298  -25.6697  -18.4161 O   0  0  0  0  0  0  0  0  0  0  0  0
   23.7217  -24.1873  -17.0459 O   0  0  0  0  0  0  0  0  0  0  0  0
  2  1  1  6
  2 13  1  0
  3  2  1  0
  3  4  1  0
  4 12  1  0
  4  5  2  0
  5  6  1  0
  7  8  2  0
  7  6  1  0
  9  8  1  0
 10  9  2  0
 11 10  1  0
 11 12  2  0
 12  7  1  0
 13 20  1  0
 13 14  2  0
 15 16  1  0
 16 18  1  0
 17 16  2  0
 19 18  1  6
 19 21  1  0
 20 19  1  0
 21 26  1  0
 21 22  2  0
 25 24  1  1
 24 23  1  0
 25 27  1  0
 26 25  1  0
 27 28  1  0
 29 27  2  0
M  END
$$$$
