WNS.pdb
     RDKit          3D

 29 30  0  0  1  0  0  0  0  0999 V2000
   24.4163  -17.2838  -19.0157 N   0  0  0  0  0  0  0  0  0  0  0  0
   24.0112  -18.6451  -18.6114 C   0  0  1  0  0  0  0  0  0  0  0  0
   25.1098  -19.5451  -19.0210 C   0  0  0  0  0  0  0  0  0  0  0  0
   25.1994  -19.7469  -20.4747 C   0  0  0  0  0  0  0  0  0  0  0  0
   26.2148  -19.2421  -21.2811 C   0  0  0  0  0  0  0  0  0  0  0  0
   25.9283  -19.6315  -22.5259 N   0  0  0  0  0  0  0  0  0  0  0  0
   24.7855  -20.3590  -22.5537 C   0  0  0  0  0  0  0  0  0  0  0  0
   24.0763  -20.9897  -23.5519 C   0  0  0  0  0  0  0  0  0  0  0  0
   22.9219  -21.6839  -23.2605 C   0  0  0  0  0  0  0  0  0  0  0  0
   22.4229  -21.7814  -21.9692 C   0  0  0  0  0  0  0  0  0  0  0  0
   23.1381  -21.1485  -20.9814 C   0  0  0  0  0  0  0  0  0  0  0  0
   24.3086  -20.4452  -21.2704 C   0  0  0  0  0  0  0  0  0  0  0  0
   23.6226  -18.6170  -17.2132 C   0  0  0  0  0  0  0  0  0  0  0  0
   24.3829  -17.9898  -16.3947 O   0  0  0  0  0  0  0  0  0  0  0  0
   19.3813  -19.7968  -13.0057 N   0  0  0  0  0  0  0  0  0  0  0  0
   20.2552  -18.8428  -13.6232 C   0  0  0  0  0  0  0  0  0  0  0  0
   20.6671  -17.8376  -12.9851 O   0  0  0  0  0  0  0  0  0  0  0  0
   20.6957  -19.0078  -15.0094 C   0  0  0  0  0  0  0  0  0  0  0  0
   22.2059  -19.0854  -15.1729 C   0  0  2  0  0  0  0  0  0  0  0  0
   22.4864  -19.2026  -16.6237 N   0  0  0  0  0  0  0  0  0  0  0  0
   22.8180  -20.1876  -14.4310 C   0  0  0  0  0  0  0  0  0  0  0  0
   22.4123  -21.3789  -14.7174 O   0  0  0  0  0  0  0  0  0  0  0  0
   24.9329  -21.5492  -10.2170 O   0  0  0  0  0  0  0  0  0  0  0  0
   24.9017  -20.6915  -11.2945 C   0  0  0  0  0  0  0  0  0  0  0  0
   23.8701  -21.1294  -12.3510 C   0  0  2  0  0  0  0  0  0  0  0  0
   23.8039  -20.1431  -13.4325 N   0  0  0  0  0  0  0  0  0  0  0  0
   22.5856  -21.1672  -11.6631 C   0  0  0  0  0  0  0  0  0  0  0  0
   21.9084  -22.3393  -11.4622 O   0  0  0  0  0  0  0  0  0  0  0  0
   22.0826  -20.1008  -11.2391 O   0  0  0  0  0  0  0  0  0  0  0  0
  2  1  1  1
  2 13  1  0
  3  2  1  0
  3  4  1  0
  4 12  1  0
  4  5  2  0
  5  6  1  0
  7  8  2  0
  7  6  1  0
  9  8  1  0
 10  9  2  0
 11 10  1  0
 11 12  2  0
 12  7  1  0
 13 20  1  0
 13 14  2  0
 15 16  1  0
 16 18  1  0
 17 16  2  0
 19 18  1  6
 19 21  1  0
 20 19  1  0
 21 26  1  0
 21 22  2  0
 25 24  1  1
 24 23  1  0
 25 27  1  0
 26 25  1  0
 27 28  1  0
 29 27  2  0
M  END
$$$$
