WNS.pdb
     RDKit          3D

 29 30  0  0  1  0  0  0  0  0999 V2000
   23.4775  -20.1676  -15.3892 N   0  0  0  0  0  0  0  0  0  0  0  0
   23.4806  -21.3575  -14.5146 C   0  0  1  0  0  0  0  0  0  0  0  0
   24.7064  -21.2675  -13.6937 C   0  0  0  0  0  0  0  0  0  0  0  0
   25.9488  -21.4118  -14.4667 C   0  0  0  0  0  0  0  0  0  0  0  0
   26.8796  -20.3962  -14.6626 C   0  0  0  0  0  0  0  0  0  0  0  0
   27.8466  -20.9202  -15.4201 N   0  0  0  0  0  0  0  0  0  0  0  0
   27.5811  -22.2159  -15.7145 C   0  0  0  0  0  0  0  0  0  0  0  0
   28.2414  -23.1893  -16.4312 C   0  0  0  0  0  0  0  0  0  0  0  0
   27.7116  -24.4564  -16.5457 C   0  0  0  0  0  0  0  0  0  0  0  0
   26.5066  -24.8109  -15.9556 C   0  0  0  0  0  0  0  0  0  0  0  0
   25.8565  -23.8323  -15.2433 C   0  0  0  0  0  0  0  0  0  0  0  0
   26.3889  -22.5477  -15.1228 C   0  0  0  0  0  0  0  0  0  0  0  0
   22.1983  -21.4397  -13.8394 C   0  0  0  0  0  0  0  0  0  0  0  0
   21.8242  -20.4311  -13.1434 O   0  0  0  0  0  0  0  0  0  0  0  0
   18.1349  -19.8298  -13.6822 N   0  0  0  0  0  0  0  0  0  0  0  0
   18.7951  -20.7942  -14.5124 C   0  0  0  0  0  0  0  0  0  0  0  0
   19.3025  -20.4567  -15.6150 O   0  0  0  0  0  0  0  0  0  0  0  0
   18.9009  -22.1962  -14.1048 C   0  0  0  0  0  0  0  0  0  0  0  0
   20.0099  -22.4655  -13.0993 C   0  0  2  0  0  0  0  0  0  0  0  0
   21.2858  -22.5114  -13.8524 N   0  0  0  0  0  0  0  0  0  0  0  0
   19.8134  -23.6927  -12.3277 C   0  0  0  0  0  0  0  0  0  0  0  0
   20.0934  -24.8046  -12.9204 O   0  0  0  0  0  0  0  0  0  0  0  0
   18.1534  -23.8946   -8.6132 O   0  0  0  0  0  0  0  0  0  0  0  0
   18.9558  -24.9866   -8.8607 C   0  0  0  0  0  0  0  0  0  0  0  0
   19.2519  -25.1567  -10.3626 C   0  0  2  0  0  0  0  0  0  0  0  0
   19.3570  -23.8460  -11.0090 N   0  0  0  0  0  0  0  0  0  0  0  0
   18.1075  -25.8693  -10.9167 C   0  0  0  0  0  0  0  0  0  0  0  0
   17.9177  -27.2077  -10.7029 O   0  0  0  0  0  0  0  0  0  0  0  0
   17.2689  -25.2450  -11.6073 O   0  0  0  0  0  0  0  0  0  0  0  0
  2  1  1  6
  2 13  1  0
  3  2  1  0
  3  4  1  0
  4 12  1  0
  4  5  2  0
  5  6  1  0
  7  8  2  0
  7  6  1  0
  9  8  1  0
 10  9  2  0
 11 10  1  0
 11 12  2  0
 12  7  1  0
 13 20  1  0
 13 14  2  0
 15 16  1  0
 16 18  1  0
 17 16  2  0
 19 18  1  6
 19 21  1  0
 20 19  1  0
 21 26  1  0
 21 22  2  0
 25 24  1  1
 24 23  1  0
 25 27  1  0
 26 25  1  0
 27 28  1  0
 29 27  2  0
M  END
$$$$
