WNS.pdb
     RDKit          3D

 29 30  0  0  1  0  0  0  0  0999 V2000
   28.2127  -20.7278  -10.7757 N   0  0  0  0  0  0  0  0  0  0  0  0
   26.8711  -20.9704  -10.2080 C   0  0  1  0  0  0  0  0  0  0  0  0
   26.8308  -20.2556   -8.9149 C   0  0  0  0  0  0  0  0  0  0  0  0
   28.0448  -20.4300   -8.1038 C   0  0  0  0  0  0  0  0  0  0  0  0
   29.2084  -21.0512   -8.5469 C   0  0  0  0  0  0  0  0  0  0  0  0
   30.0610  -21.0180   -7.5196 N   0  0  0  0  0  0  0  0  0  0  0  0
   29.5020  -20.4068   -6.4473 C   0  0  0  0  0  0  0  0  0  0  0  0
   29.9444  -20.1080   -5.1776 C   0  0  0  0  0  0  0  0  0  0  0  0
   29.1257  -19.4472   -4.2873 C   0  0  0  0  0  0  0  0  0  0  0  0
   27.8359  -19.0560   -4.6180 C   0  0  0  0  0  0  0  0  0  0  0  0
   27.4050  -19.3592   -5.8870 C   0  0  0  0  0  0  0  0  0  0  0  0
   28.2302  -20.0269   -6.7933 C   0  0  0  0  0  0  0  0  0  0  0  0
   25.8765  -20.6422  -11.2130 C   0  0  0  0  0  0  0  0  0  0  0  0
   25.9328  -19.4814  -11.7521 O   0  0  0  0  0  0  0  0  0  0  0  0
   26.3686  -22.8166  -14.6129 N   0  0  0  0  0  0  0  0  0  0  0  0
   25.4076  -21.7528  -14.6036 C   0  0  0  0  0  0  0  0  0  0  0  0
   25.6592  -20.6511  -15.1606 O   0  0  0  0  0  0  0  0  0  0  0  0
   24.1078  -21.9141  -13.9499 C   0  0  0  0  0  0  0  0  0  0  0  0
   23.9022  -21.0027  -12.7496 C   0  0  2  0  0  0  0  0  0  0  0  0
   24.8311  -21.4568  -11.6876 N   0  0  0  0  0  0  0  0  0  0  0  0
   22.5227  -20.9796  -12.2633 C   0  0  0  0  0  0  0  0  0  0  0  0
   22.1595  -21.9509  -11.4949 O   0  0  0  0  0  0  0  0  0  0  0  0
   19.7782  -17.9558  -12.8906 O   0  0  0  0  0  0  0  0  0  0  0  0
   19.5833  -18.7039  -11.7504 C   0  0  0  0  0  0  0  0  0  0  0  0
   20.1958  -20.1118  -11.8722 C   0  0  2  0  0  0  0  0  0  0  0  0
   21.5121  -20.0372  -12.5114 N   0  0  0  0  0  0  0  0  0  0  0  0
   19.2925  -20.8671  -12.7315 C   0  0  0  0  0  0  0  0  0  0  0  0
   18.0584  -21.2734  -12.3017 O   0  0  0  0  0  0  0  0  0  0  0  0
   19.6485  -21.1539  -13.8981 O   0  0  0  0  0  0  0  0  0  0  0  0
  2  1  1  6
  2 13  1  0
  3  2  1  0
  3  4  1  0
  4 12  1  0
  4  5  2  0
  5  6  1  0
  7  8  2  0
  7  6  1  0
  9  8  1  0
 10  9  2  0
 11 10  1  0
 11 12  2  0
 12  7  1  0
 13 20  1  0
 13 14  2  0
 15 16  1  0
 16 18  1  0
 17 16  2  0
 19 18  1  6
 19 21  1  0
 20 19  1  0
 21 26  1  0
 21 22  2  0
 25 24  1  6
 24 23  1  0
 25 27  1  0
 26 25  1  0
 27 28  1  0
 29 27  2  0
M  END
$$$$
