WNS.pdb
     RDKit          3D

 29 30  0  0  1  0  0  0  0  0999 V2000
   24.9172  -20.0341  -17.3442 N   0  0  0  0  0  0  0  0  0  0  0  0
   23.6430  -19.3957  -16.9576 C   0  0  1  0  0  0  0  0  0  0  0  0
   22.8823  -19.1936  -18.2087 C   0  0  0  0  0  0  0  0  0  0  0  0
   23.3341  -18.0372  -18.9964 C   0  0  0  0  0  0  0  0  0  0  0  0
   24.3982  -18.0593  -19.8928 C   0  0  0  0  0  0  0  0  0  0  0  0
   24.4924  -16.8224  -20.3874 N   0  0  0  0  0  0  0  0  0  0  0  0
   23.5434  -16.0153  -19.8545 C   0  0  0  0  0  0  0  0  0  0  0  0
   23.2046  -14.6917  -20.0286 C   0  0  0  0  0  0  0  0  0  0  0  0
   22.1493  -14.1409  -19.3342 C   0  0  0  0  0  0  0  0  0  0  0  0
   21.3870  -14.8781  -18.4391 C   0  0  0  0  0  0  0  0  0  0  0  0
   21.7337  -16.1973  -18.2731 C   0  0  0  0  0  0  0  0  0  0  0  0
   22.8006  -16.7608  -18.9747 C   0  0  0  0  0  0  0  0  0  0  0  0
   23.0363  -20.1776  -15.8958 C   0  0  0  0  0  0  0  0  0  0  0  0
   23.0996  -21.4542  -15.9834 O   0  0  0  0  0  0  0  0  0  0  0  0
   20.9241  -22.1389  -11.5294 N   0  0  0  0  0  0  0  0  0  0  0  0
   21.3070  -20.7747  -11.3119 C   0  0  0  0  0  0  0  0  0  0  0  0
   21.2363  -20.2598  -10.1642 O   0  0  0  0  0  0  0  0  0  0  0  0
   21.7919  -19.9410  -12.4131 C   0  0  0  0  0  0  0  0  0  0  0  0
   21.7376  -20.6203  -13.7730 C   0  0  2  0  0  0  0  0  0  0  0  0
   22.3718  -19.7029  -14.7492 N   0  0  0  0  0  0  0  0  0  0  0  0
   20.3829  -20.9771  -14.1940 C   0  0  0  0  0  0  0  0  0  0  0  0
   19.6446  -20.0224  -14.6516 O   0  0  0  0  0  0  0  0  0  0  0  0
   18.5850  -24.6248  -13.6865 O   0  0  0  0  0  0  0  0  0  0  0  0
   18.0783  -23.9411  -14.7697 C   0  0  0  0  0  0  0  0  0  0  0  0
   18.4005  -22.4364  -14.7047 C   0  0  2  0  0  0  0  0  0  0  0  0
   19.7514  -22.2308  -14.1760 N   0  0  0  0  0  0  0  0  0  0  0  0
   17.4345  -21.8611  -13.7771 C   0  0  0  0  0  0  0  0  0  0  0  0
   16.0905  -21.8733  -14.0346 O   0  0  0  0  0  0  0  0  0  0  0  0
   17.8387  -21.3412  -12.7111 O   0  0  0  0  0  0  0  0  0  0  0  0
  2  1  1  6
  2 13  1  0
  3  2  1  0
  3  4  1  0
  4 12  1  0
  4  5  2  0
  5  6  1  0
  7  8  2  0
  7  6  1  0
  9  8  1  0
 10  9  2  0
 11 10  1  0
 11 12  2  0
 12  7  1  0
 13 20  1  0
 13 14  2  0
 15 16  1  0
 16 18  1  0
 17 16  2  0
 19 18  1  1
 19 21  1  0
 20 19  1  0
 21 26  1  0
 21 22  2  0
 25 24  1  1
 24 23  1  0
 25 27  1  0
 26 25  1  0
 27 28  1  0
 29 27  2  0
M  END
$$$$
