WNS.pdb
     RDKit          3D

 29 30  0  0  1  0  0  0  0  0999 V2000
   26.2907  -22.7971  -11.8612 N   0  0  0  0  0  0  0  0  0  0  0  0
   25.7257  -21.5049  -11.4230 C   0  0  1  0  0  0  0  0  0  0  0  0
   26.7840  -20.4950  -11.6340 C   0  0  0  0  0  0  0  0  0  0  0  0
   27.8851  -20.5792  -10.6631 C   0  0  0  0  0  0  0  0  0  0  0  0
   29.2050  -20.8751  -10.9894 C   0  0  0  0  0  0  0  0  0  0  0  0
   29.8823  -20.8677   -9.8385 N   0  0  0  0  0  0  0  0  0  0  0  0
   29.0636  -20.5807   -8.7978 C   0  0  0  0  0  0  0  0  0  0  0  0
   29.2536  -20.4398   -7.4409 C   0  0  0  0  0  0  0  0  0  0  0  0
   28.1977  -20.1214   -6.6144 C   0  0  0  0  0  0  0  0  0  0  0  0
   26.9110  -19.9302   -7.0977 C   0  0  0  0  0  0  0  0  0  0  0  0
   26.7328  -20.0733   -8.4526 C   0  0  0  0  0  0  0  0  0  0  0  0
   27.7986  -20.3942   -9.2946 C   0  0  0  0  0  0  0  0  0  0  0  0
   24.4443  -21.3137  -12.0776 C   0  0  0  0  0  0  0  0  0  0  0  0
   24.2290  -21.9529  -13.1669 O   0  0  0  0  0  0  0  0  0  0  0  0
   19.1252  -21.4038  -12.3032 N   0  0  0  0  0  0  0  0  0  0  0  0
   19.6275  -20.3092  -11.5256 C   0  0  0  0  0  0  0  0  0  0  0  0
   18.8695  -19.3667  -11.1732 O   0  0  0  0  0  0  0  0  0  0  0  0
   21.0321  -20.2542  -11.1170 C   0  0  0  0  0  0  0  0  0  0  0  0
   22.0108  -20.6442  -12.2141 C   0  0  2  0  0  0  0  0  0  0  0  0
   23.3770  -20.4973  -11.6584 N   0  0  0  0  0  0  0  0  0  0  0  0
   21.8573  -19.8601  -13.4396 C   0  0  0  0  0  0  0  0  0  0  0  0
   22.1456  -18.6041  -13.3674 O   0  0  0  0  0  0  0  0  0  0  0  0
   20.6352  -21.3322  -17.0630 O   0  0  0  0  0  0  0  0  0  0  0  0
   21.3871  -20.1835  -17.1743 C   0  0  0  0  0  0  0  0  0  0  0  0
   21.4023  -19.3743  -15.8639 C   0  0  2  0  0  0  0  0  0  0  0  0
   21.4354  -20.2786  -14.7115 N   0  0  0  0  0  0  0  0  0  0  0  0
   20.1527  -18.6242  -15.8435 C   0  0  0  0  0  0  0  0  0  0  0  0
   19.9197  -17.5859  -16.7041 O   0  0  0  0  0  0  0  0  0  0  0  0
   19.2616  -18.9346  -15.0191 O   0  0  0  0  0  0  0  0  0  0  0  0
  2  1  1  6
  2 13  1  0
  3  2  1  0
  3  4  1  0
  4 12  1  0
  4  5  2  0
  5  6  1  0
  7  8  2  0
  7  6  1  0
  9  8  1  0
 10  9  2  0
 11 10  1  0
 11 12  2  0
 12  7  1  0
 13 20  1  0
 13 14  2  0
 15 16  1  0
 16 18  1  0
 17 16  2  0
 19 18  1  1
 19 21  1  0
 20 19  1  0
 21 26  1  0
 21 22  2  0
 25 24  1  6
 24 23  1  0
 25 27  1  0
 26 25  1  0
 27 28  1  0
 29 27  2  0
M  END
$$$$
