WNS.pdb
     RDKit          3D

 29 30  0  0  1  0  0  0  0  0999 V2000
   24.8006  -19.4910   -8.9143 N   0  0  0  0  0  0  0  0  0  0  0  0
   26.0571  -20.1058   -9.3877 C   0  0  1  0  0  0  0  0  0  0  0  0
   26.2970  -21.2806   -8.5234 C   0  0  0  0  0  0  0  0  0  0  0  0
   26.4363  -20.9485   -7.0978 C   0  0  0  0  0  0  0  0  0  0  0  0
   25.4420  -21.1353   -6.1425 C   0  0  0  0  0  0  0  0  0  0  0  0
   25.9521  -20.7027   -4.9866 N   0  0  0  0  0  0  0  0  0  0  0  0
   27.2188  -20.2525   -5.1558 C   0  0  0  0  0  0  0  0  0  0  0  0
   28.1696  -19.7283   -4.3083 C   0  0  0  0  0  0  0  0  0  0  0  0
   29.4098  -19.3634   -4.7859 C   0  0  0  0  0  0  0  0  0  0  0  0
   29.7586  -19.5023   -6.1219 C   0  0  0  0  0  0  0  0  0  0  0  0
   28.8027  -20.0260   -6.9584 C   0  0  0  0  0  0  0  0  0  0  0  0
   27.5456  -20.3987   -6.4800 C   0  0  0  0  0  0  0  0  0  0  0  0
   25.9624  -20.3079  -10.8219 C   0  0  0  0  0  0  0  0  0  0  0  0
   24.7938  -20.4355  -11.3312 O   0  0  0  0  0  0  0  0  0  0  0  0
   27.9053  -17.8214  -15.5138 N   0  0  0  0  0  0  0  0  0  0  0  0
   28.2274  -19.1519  -15.0881 C   0  0  0  0  0  0  0  0  0  0  0  0
   28.5357  -20.0406  -15.9262 O   0  0  0  0  0  0  0  0  0  0  0  0
   28.2096  -19.5170  -13.6706 C   0  0  0  0  0  0  0  0  0  0  0  0
   26.8469  -19.9652  -13.1649 C   0  0  2  0  0  0  0  0  0  0  0  0
   27.0164  -20.3810  -11.7522 N   0  0  0  0  0  0  0  0  0  0  0  0
   26.2539  -21.0410  -13.9593 C   0  0  0  0  0  0  0  0  0  0  0  0
   26.7089  -22.2321  -13.7589 O   0  0  0  0  0  0  0  0  0  0  0  0
   22.2497  -21.8407  -14.8839 O   0  0  0  0  0  0  0  0  0  0  0  0
   23.3850  -22.5535  -14.5664 C   0  0  0  0  0  0  0  0  0  0  0  0
   24.5786  -22.1654  -15.4590 C   0  0  2  0  0  0  0  0  0  0  0  0
   25.2401  -20.9709  -14.9279 N   0  0  0  0  0  0  0  0  0  0  0  0
   24.0146  -21.8545  -16.7666 C   0  0  0  0  0  0  0  0  0  0  0  0
   23.4857  -22.8246  -17.5741 O   0  0  0  0  0  0  0  0  0  0  0  0
   24.0085  -20.6676  -17.1681 O   0  0  0  0  0  0  0  0  0  0  0  0
  2  1  1  1
  2 13  1  0
  3  2  1  0
  3  4  1  0
  4 12  1  0
  4  5  2  0
  5  6  1  0
  7  8  2  0
  7  6  1  0
  9  8  1  0
 10  9  2  0
 11 10  1  0
 11 12  2  0
 12  7  1  0
 13 20  1  0
 13 14  2  0
 15 16  1  0
 16 18  1  0
 17 16  2  0
 19 18  1  6
 19 21  1  0
 20 19  1  0
 21 26  1  0
 21 22  2  0
 25 24  1  1
 24 23  1  0
 25 27  1  0
 26 25  1  0
 27 28  1  0
 29 27  2  0
M  END
$$$$
