WNS.pdb
     RDKit          3D

 29 30  0  0  1  0  0  0  0  0999 V2000
   15.8264   -6.9342   -8.3143 N   0  0  0  0  0  0  0  0  0  0  0  0
   15.8054   -7.5906   -9.6370 C   0  0  1  0  0  0  0  0  0  0  0  0
   14.4368   -7.4152  -10.1669 C   0  0  0  0  0  0  0  0  0  0  0  0
   13.4361   -8.2761   -9.5193 C   0  0  0  0  0  0  0  0  0  0  0  0
   12.5974   -7.8722   -8.4850 C   0  0  0  0  0  0  0  0  0  0  0  0
   11.8551   -8.9372   -8.1718 N   0  0  0  0  0  0  0  0  0  0  0  0
   12.1758   -9.9965   -8.9534 C   0  0  0  0  0  0  0  0  0  0  0  0
   11.7150  -11.2911   -9.0474 C   0  0  0  0  0  0  0  0  0  0  0  0
   12.2445  -12.1579   -9.9788 C   0  0  0  0  0  0  0  0  0  0  0  0
   13.2520  -11.7783  -10.8545 C   0  0  0  0  0  0  0  0  0  0  0  0
   13.7042  -10.4849  -10.7520 C   0  0  0  0  0  0  0  0  0  0  0  0
   13.1706   -9.6022   -9.8116 C   0  0  0  0  0  0  0  0  0  0  0  0
   16.9213   -7.0916  -10.4197 C   0  0  0  0  0  0  0  0  0  0  0  0
   17.3951   -5.9403  -10.1175 O   0  0  0  0  0  0  0  0  0  0  0  0
   18.9492   -9.5464  -14.6744 N   0  0  0  0  0  0  0  0  0  0  0  0
   18.9997   -9.3305  -13.2581 C   0  0  0  0  0  0  0  0  0  0  0  0
   18.5034  -10.1690  -12.4595 O   0  0  0  0  0  0  0  0  0  0  0  0
   19.6293   -8.1334  -12.6980 C   0  0  0  0  0  0  0  0  0  0  0  0
   18.6419   -7.0581  -12.2710 C   0  0  2  0  0  0  0  0  0  0  0  0
   17.5705   -7.7268  -11.4951 N   0  0  0  0  0  0  0  0  0  0  0  0
   18.0823   -6.3011  -13.3907 C   0  0  0  0  0  0  0  0  0  0  0  0
   17.0986   -6.8432  -14.0267 O   0  0  0  0  0  0  0  0  0  0  0  0
   19.2935   -2.5514  -14.6719 O   0  0  0  0  0  0  0  0  0  0  0  0
   17.9916   -2.8831  -14.9761 C   0  0  0  0  0  0  0  0  0  0  0  0
   17.7789   -4.4080  -15.0169 C   0  0  2  0  0  0  0  0  0  0  0  0
   18.4623   -5.0443  -13.8878 N   0  0  0  0  0  0  0  0  0  0  0  0
   18.3899   -4.8630  -16.2596 C   0  0  0  0  0  0  0  0  0  0  0  0
   17.9352   -4.4480  -17.4819 O   0  0  0  0  0  0  0  0  0  0  0  0
   19.3602   -5.6544  -16.2150 O   0  0  0  0  0  0  0  0  0  0  0  0
  2  1  1  1
  2 13  1  0
  3  2  1  0
  3  4  1  0
  4 12  1  0
  4  5  2  0
  5  6  1  0
  7  8  2  0
  7  6  1  0
  9  8  1  0
 10  9  2  0
 11 10  1  0
 11 12  2  0
 12  7  1  0
 13 20  1  0
 13 14  2  0
 15 16  1  0
 16 18  1  0
 17 16  2  0
 19 18  1  6
 19 21  1  0
 20 19  1  0
 21 26  1  0
 21 22  2  0
 25 24  1  1
 24 23  1  0
 25 27  1  0
 26 25  1  0
 27 28  1  0
 29 27  2  0
M  END
$$$$
