SRM.pdb
     RDKit          3D

 26 25  0  0  1  0  0  0  0  0999 V2000
    7.0603  -16.7610   18.2201 O   0  0  0  0  0  0  0  0  0  0  0  0
    7.5661  -15.4562   18.3422 C   0  0  0  0  0  0  0  0  0  0  0  0
    8.6853  -15.4125   19.3612 C   0  0  2  0  0  0  0  0  0  0  0  0
    9.6817  -16.3856   18.8927 N   0  0  0  0  0  0  0  0  0  0  0  0
    8.1564  -15.7910   20.6861 C   0  0  0  0  0  0  0  0  0  0  0  0
    7.2719  -15.0722   21.2104 O   0  0  0  0  0  0  0  0  0  0  0  0
    4.1043  -21.9090   23.5182 N   0  0  0  0  0  0  0  0  0  0  0  0
    5.3278  -21.8031   24.2321 C   0  0  0  0  0  0  0  0  0  0  0  0
    5.7709  -22.8516   24.8266 N   0  0  0  0  0  0  0  0  0  0  0  0
    6.0600  -20.5862   24.3024 N   0  0  0  0  0  0  0  0  0  0  0  0
    7.4902  -20.5486   24.4166 C   0  0  0  0  0  0  0  0  0  0  0  0
    8.0594  -19.1680   24.4152 C   0  0  0  0  0  0  0  0  0  0  0  0
    8.3629  -18.7622   22.9913 C   0  0  0  0  0  0  0  0  0  0  0  0
    8.0517  -17.3391   22.6713 C   0  0  2  0  0  0  0  0  0  0  0  0
    8.6003  -16.9307   21.3968 N   0  0  0  0  0  0  0  0  0  0  0  0
    8.6553  -16.5207   23.7877 C   0  0  0  0  0  0  0  0  0  0  0  0
    9.8681  -16.2154   23.6913 O   0  0  0  0  0  0  0  0  0  0  0  0
    6.7189  -22.9029   25.2565 C   0  0  0  0  0  0  0  0  0  0  0  0
    5.7839  -11.2920   26.2796 S   0  0  0  0  0  0  0  0  0  0  0  0
    7.0458  -11.6547   27.5499 C   0  0  0  0  0  0  0  0  0  0  0  0
    7.9988  -13.0983   27.2406 C   0  0  0  0  0  0  0  0  0  0  0  0
    7.6378  -14.0045   26.1600 C   0  0  1  0  0  0  0  0  0  0  0  0
    8.4229  -15.1989   25.8838 N   0  0  0  0  0  0  0  0  0  0  0  0
    7.9031  -16.1110   24.8952 C   0  0  0  0  0  0  0  0  0  0  0  0
    9.0165  -15.9627   26.9762 O   0  0  0  0  0  0  0  0  0  0  0  0
    9.8778  -15.2556   27.8567 O   0  0  0  0  0  0  0  0  0  0  0  0
  1  2  1  0
  2  3  1  0
  3  4  1  6
  5  3  1  0
  5  6  2  0
  7  8  1  0
  8 10  1  0
  9  8  2  0
 10 11  1  0
 11 12  1  0
 12 13  1  0
 14 15  1  0
 14 13  1  1
 15  5  1  0
 16 14  1  0
 17 16  2  0
 18 19  1  0
 20 21  1  0
 20 19  1  0
 22 21  1  6
 22 24  1  0
 22 23  1  0
 23 16  1  0
 24 25  1  0
 26 24  2  0
M  END
$$$$
