SRM.pdb
     RDKit          3D

 26 25  0  0  1  0  0  0  0  0999 V2000
    8.7611  -19.3201   18.3199 O   0  0  0  0  0  0  0  0  0  0  0  0
    9.5215  -19.8852   19.3570 C   0  0  0  0  0  0  0  0  0  0  0  0
    8.9630  -19.4837   20.7060 C   0  0  2  0  0  0  0  0  0  0  0  0
    7.5121  -19.6947   20.6093 N   0  0  0  0  0  0  0  0  0  0  0  0
    9.2766  -18.0647   20.9633 C   0  0  0  0  0  0  0  0  0  0  0  0
   10.4792  -17.7085   20.9939 O   0  0  0  0  0  0  0  0  0  0  0  0
    9.7782  -13.9756   17.0205 N   0  0  0  0  0  0  0  0  0  0  0  0
    8.3945  -13.6553   17.0417 C   0  0  0  0  0  0  0  0  0  0  0  0
    7.6498  -14.1403   16.1148 N   0  0  0  0  0  0  0  0  0  0  0  0
    7.8250  -12.8260   18.0466 N   0  0  0  0  0  0  0  0  0  0  0  0
    7.8763  -13.1549   19.4427 C   0  0  0  0  0  0  0  0  0  0  0  0
    7.3862  -14.5300   19.7569 C   0  0  0  0  0  0  0  0  0  0  0  0
    7.5091  -14.7684   21.2443 C   0  0  0  0  0  0  0  0  0  0  0  0
    8.5727  -15.7395   21.6318 C   0  0  2  0  0  0  0  0  0  0  0  0
    8.2821  -17.0817   21.1775 N   0  0  0  0  0  0  0  0  0  0  0  0
    8.6415  -15.7005   23.1399 C   0  0  0  0  0  0  0  0  0  0  0  0
    7.6132  -16.0355   23.7752 O   0  0  0  0  0  0  0  0  0  0  0  0
    6.6233  -13.9679   16.0623 C   0  0  0  0  0  0  0  0  0  0  0  0
   10.1370  -13.3205   29.6871 S   0  0  0  0  0  0  0  0  0  0  0  0
    8.8990  -13.3650   28.3444 C   0  0  0  0  0  0  0  0  0  0  0  0
    8.8087  -14.8952   27.4853 C   0  0  0  0  0  0  0  0  0  0  0  0
    8.7689  -14.9246   26.0304 C   0  0  2  0  0  0  0  0  0  0  0  0
    9.9145  -15.3761   25.2539 N   0  0  0  0  0  0  0  0  0  0  0  0
    9.8015  -15.3071   23.8179 C   0  0  0  0  0  0  0  0  0  0  0  0
   10.6215  -16.5985   25.6213 O   0  0  0  0  0  0  0  0  0  0  0  0
   11.9395  -16.4470   26.1284 O   0  0  0  0  0  0  0  0  0  0  0  0
  1  2  1  0
  2  3  1  0
  3  4  1  6
  5  3  1  0
  5  6  2  0
  7  8  1  0
  8 10  1  0
  9  8  2  0
 10 11  1  0
 11 12  1  0
 12 13  1  0
 14 15  1  0
 14 13  1  1
 15  5  1  0
 16 14  1  0
 17 16  2  0
 18 19  1  0
 20 21  1  0
 20 19  1  0
 22 21  1  1
 22 24  1  0
 22 23  1  0
 23 16  1  0
 24 25  1  0
 26 24  2  0
M  END
$$$$
