SRM.pdb
     RDKit          3D

 26 25  0  0  1  0  0  0  0  0999 V2000
    6.0086  -20.0173   25.7015 O   0  0  0  0  0  0  0  0  0  0  0  0
    6.5650  -19.0135   24.8915 C   0  0  0  0  0  0  0  0  0  0  0  0
    6.4975  -19.4096   23.4315 C   0  0  2  0  0  0  0  0  0  0  0  0
    7.1441  -20.7266   23.3512 N   0  0  0  0  0  0  0  0  0  0  0  0
    7.2219  -18.4126   22.6195 C   0  0  0  0  0  0  0  0  0  0  0  0
    8.4254  -18.6249   22.3359 O   0  0  0  0  0  0  0  0  0  0  0  0
    7.8936  -12.6796   17.3261 N   0  0  0  0  0  0  0  0  0  0  0  0
    8.1459  -14.0750   17.2431 C   0  0  0  0  0  0  0  0  0  0  0  0
    8.0606  -14.6348   16.0906 N   0  0  0  0  0  0  0  0  0  0  0  0
    8.4846  -14.8520   18.3847 N   0  0  0  0  0  0  0  0  0  0  0  0
    8.5632  -14.2950   19.7050 C   0  0  0  0  0  0  0  0  0  0  0  0
    7.2347  -13.9565   20.2971 C   0  0  0  0  0  0  0  0  0  0  0  0
    6.5519  -15.2316   20.7354 C   0  0  0  0  0  0  0  0  0  0  0  0
    7.3753  -16.1041   21.6215 C   0  0  2  0  0  0  0  0  0  0  0  0
    6.6220  -17.2235   22.1428 N   0  0  0  0  0  0  0  0  0  0  0  0
    7.8490  -15.2204   22.7508 C   0  0  0  0  0  0  0  0  0  0  0  0
    7.7271  -13.9804   22.6058 O   0  0  0  0  0  0  0  0  0  0  0  0
    8.2795  -15.6411   15.9303 C   0  0  0  0  0  0  0  0  0  0  0  0
    7.5143  -10.4169   28.0552 S   0  0  0  0  0  0  0  0  0  0  0  0
    6.9400  -11.5752   26.7643 C   0  0  0  0  0  0  0  0  0  0  0  0
    8.0054  -12.9446   26.4862 C   0  0  0  0  0  0  0  0  0  0  0  0
    7.8052  -13.8150   25.3366 C   0  0  1  0  0  0  0  0  0  0  0  0
    8.7006  -14.9318   25.0716 N   0  0  0  0  0  0  0  0  0  0  0  0
    8.4058  -15.7498   23.9212 C   0  0  0  0  0  0  0  0  0  0  0  0
    9.1609  -15.7854   26.1619 O   0  0  0  0  0  0  0  0  0  0  0  0
   10.2318  -15.2906   26.9528 O   0  0  0  0  0  0  0  0  0  0  0  0
  1  2  1  0
  2  3  1  0
  3  4  1  1
  5  3  1  0
  5  6  2  0
  7  8  1  0
  8 10  1  0
  9  8  2  0
 10 11  1  0
 11 12  1  0
 12 13  1  0
 14 15  1  0
 14 13  1  6
 15  5  1  0
 16 14  1  0
 17 16  2  0
 18 19  1  0
 20 21  1  0
 20 19  1  0
 22 21  1  6
 22 24  1  0
 22 23  1  0
 23 16  1  0
 24 25  1  0
 26 24  2  0
M  END
$$$$
