SRM.pdb
     RDKit          3D

 26 25  0  0  1  0  0  0  0  0999 V2000
    8.2828  -11.9108   21.1268 O   0  0  0  0  0  0  0  0  0  0  0  0
    8.5626  -12.3886   19.8358 C   0  0  0  0  0  0  0  0  0  0  0  0
    7.7566  -13.6369   19.5442 C   0  0  2  0  0  0  0  0  0  0  0  0
    6.3507  -13.2101   19.5621 N   0  0  0  0  0  0  0  0  0  0  0  0
    8.0184  -14.6444   20.5904 C   0  0  0  0  0  0  0  0  0  0  0  0
    7.1264  -14.8762   21.4415 O   0  0  0  0  0  0  0  0  0  0  0  0
   12.2192  -21.2417   21.7783 N   0  0  0  0  0  0  0  0  0  0  0  0
   11.0471  -21.5947   22.4988 C   0  0  0  0  0  0  0  0  0  0  0  0
   11.0621  -22.6859   23.1757 N   0  0  0  0  0  0  0  0  0  0  0  0
    9.8795  -20.7833   22.4888 N   0  0  0  0  0  0  0  0  0  0  0  0
    9.7750  -19.5864   21.7039 C   0  0  0  0  0  0  0  0  0  0  0  0
   10.8026  -18.5552   22.0364 C   0  0  0  0  0  0  0  0  0  0  0  0
   10.5805  -17.3402   21.1655 C   0  0  0  0  0  0  0  0  0  0  0  0
    9.4310  -16.4833   21.5763 C   0  0  2  0  0  0  0  0  0  0  0  0
    9.2322  -15.3654   20.6802 N   0  0  0  0  0  0  0  0  0  0  0  0
    9.7569  -15.9891   22.9656 C   0  0  0  0  0  0  0  0  0  0  0  0
   10.9396  -16.1174   23.3631 O   0  0  0  0  0  0  0  0  0  0  0  0
   10.2619  -22.9998   23.7651 C   0  0  0  0  0  0  0  0  0  0  0  0
    5.9349  -10.9440   26.4355 S   0  0  0  0  0  0  0  0  0  0  0  0
    6.1090  -12.7456   26.6838 C   0  0  0  0  0  0  0  0  0  0  0  0
    7.4492  -13.4760   25.8131 C   0  0  0  0  0  0  0  0  0  0  0  0
    7.7521  -14.8907   25.9750 C   0  0  2  0  0  0  0  0  0  0  0  0
    8.8310  -15.5210   25.2280 N   0  0  0  0  0  0  0  0  0  0  0  0
    8.7866  -15.4082   23.7910 C   0  0  0  0  0  0  0  0  0  0  0  0
    9.3010  -16.8540   25.5903 O   0  0  0  0  0  0  0  0  0  0  0  0
   10.2679  -16.9309   26.6277 O   0  0  0  0  0  0  0  0  0  0  0  0
  1  2  1  0
  2  3  1  0
  3  4  1  1
  5  3  1  0
  5  6  2  0
  7  8  1  0
  8 10  1  0
  9  8  2  0
 10 11  1  0
 11 12  1  0
 12 13  1  0
 14 15  1  0
 14 13  1  6
 15  5  1  0
 16 14  1  0
 17 16  2  0
 18 19  1  0
 20 21  1  0
 20 19  1  0
 22 21  1  1
 22 24  1  0
 22 23  1  0
 23 16  1  0
 24 25  1  0
 26 24  2  0
M  END
$$$$
