SRM.pdb
     RDKit          3D

 26 25  0  0  1  0  0  0  0  0999 V2000
    7.1167  -19.0656   24.2484 O   0  0  0  0  0  0  0  0  0  0  0  0
    6.3980  -19.1329   23.0433 C   0  0  0  0  0  0  0  0  0  0  0  0
    7.3438  -19.2226   21.8641 C   0  0  2  0  0  0  0  0  0  0  0  0
    8.0598  -20.4948   22.0304 N   0  0  0  0  0  0  0  0  0  0  0  0
    8.2775  -18.0801   21.8972 C   0  0  0  0  0  0  0  0  0  0  0  0
    9.4705  -18.2852   22.2267 O   0  0  0  0  0  0  0  0  0  0  0  0
    8.7605  -15.3154   16.6481 N   0  0  0  0  0  0  0  0  0  0  0  0
    8.1751  -14.0447   16.4025 C   0  0  0  0  0  0  0  0  0  0  0  0
    7.9067  -13.7303   15.1867 N   0  0  0  0  0  0  0  0  0  0  0  0
    7.8845  -13.1299   17.4515 N   0  0  0  0  0  0  0  0  0  0  0  0
    7.3990  -13.5518   18.7344 C   0  0  0  0  0  0  0  0  0  0  0  0
    8.1790  -14.6745   19.3353 C   0  0  0  0  0  0  0  0  0  0  0  0
    8.2706  -14.4660   20.8294 C   0  0  0  0  0  0  0  0  0  0  0  0
    8.8017  -15.6350   21.5883 C   0  0  2  0  0  0  0  0  0  0  0  0
    7.8907  -16.7585   21.5733 N   0  0  0  0  0  0  0  0  0  0  0  0
    9.0126  -15.1508   23.0030 C   0  0  0  0  0  0  0  0  0  0  0  0
    9.8162  -14.2035   23.1770 O   0  0  0  0  0  0  0  0  0  0  0  0
    7.4652  -12.8251   14.9183 C   0  0  0  0  0  0  0  0  0  0  0  0
    7.0150  -10.9094   28.3414 S   0  0  0  0  0  0  0  0  0  0  0  0
    7.2896  -11.7830   26.7605 C   0  0  0  0  0  0  0  0  0  0  0  0
    6.8166  -13.4753   26.7702 C   0  0  0  0  0  0  0  0  0  0  0  0
    6.9886  -14.2974   25.5812 C   0  0  2  0  0  0  0  0  0  0  0  0
    8.2125  -15.0532   25.3578 N   0  0  0  0  0  0  0  0  0  0  0  0
    8.3447  -15.7274   24.0900 C   0  0  0  0  0  0  0  0  0  0  0  0
    8.7609  -15.9009   26.4114 O   0  0  0  0  0  0  0  0  0  0  0  0
    8.8997  -15.3137   27.6971 O   0  0  0  0  0  0  0  0  0  0  0  0
  1  2  1  0
  2  3  1  0
  3  4  1  1
  5  3  1  0
  5  6  2  0
  7  8  1  0
  8 10  1  0
  9  8  2  0
 10 11  1  0
 11 12  1  0
 12 13  1  0
 14 15  1  0
 14 13  1  6
 15  5  1  0
 16 14  1  0
 17 16  2  0
 18 19  1  0
 20 21  1  0
 20 19  1  0
 22 21  1  6
 22 24  1  0
 22 23  1  0
 23 16  1  0
 24 25  1  0
 26 24  2  0
M  END
$$$$
