SRM.pdb
     RDKit          3D

 26 25  0  0  1  0  0  0  0  0999 V2000
   10.0471  -21.0173   25.0257 O   0  0  0  0  0  0  0  0  0  0  0  0
    9.0606  -21.1733   24.0379 C   0  0  0  0  0  0  0  0  0  0  0  0
    9.5828  -20.7253   22.6889 C   0  0  2  0  0  0  0  0  0  0  0  0
   10.8929  -21.3737   22.5396 N   0  0  0  0  0  0  0  0  0  0  0  0
    9.7142  -19.2553   22.6782 C   0  0  0  0  0  0  0  0  0  0  0  0
   10.8533  -18.7503   22.8238 O   0  0  0  0  0  0  0  0  0  0  0  0
    8.1721  -11.7160   19.6735 N   0  0  0  0  0  0  0  0  0  0  0  0
    8.0915  -12.8502   18.8220 C   0  0  0  0  0  0  0  0  0  0  0  0
    8.6353  -12.7717   17.6614 N   0  0  0  0  0  0  0  0  0  0  0  0
    7.4353  -14.0481   19.2172 N   0  0  0  0  0  0  0  0  0  0  0  0
    6.9328  -14.2537   20.5458 C   0  0  0  0  0  0  0  0  0  0  0  0
    7.9510  -14.7849   21.5004 C   0  0  0  0  0  0  0  0  0  0  0  0
    7.7178  -16.2654   21.6952 C   0  0  0  0  0  0  0  0  0  0  0  0
    8.7204  -16.9425   22.5674 C   0  0  2  0  0  0  0  0  0  0  0  0
    8.6125  -18.3839   22.5104 N   0  0  0  0  0  0  0  0  0  0  0  0
    8.4496  -16.4522   23.9697 C   0  0  0  0  0  0  0  0  0  0  0  0
    7.4338  -16.8999   24.5536 O   0  0  0  0  0  0  0  0  0  0  0  0
    8.5969  -13.5440   16.9626 C   0  0  0  0  0  0  0  0  0  0  0  0
    6.9463  -11.1307   27.2947 S   0  0  0  0  0  0  0  0  0  0  0  0
    6.0925  -12.5166   26.4653 C   0  0  0  0  0  0  0  0  0  0  0  0
    7.1618  -13.6585   25.6650 C   0  0  0  0  0  0  0  0  0  0  0  0
    7.8568  -14.6822   26.4320 C   0  0  2  0  0  0  0  0  0  0  0  0
    9.1486  -15.1985   26.0031 N   0  0  0  0  0  0  0  0  0  0  0  0
    9.2907  -15.5324   24.6075 C   0  0  0  0  0  0  0  0  0  0  0  0
    9.8523  -16.1916   26.8080 O   0  0  0  0  0  0  0  0  0  0  0  0
   10.0643  -15.8724   28.1756 O   0  0  0  0  0  0  0  0  0  0  0  0
  1  2  1  0
  2  3  1  0
  3  4  1  1
  5  3  1  0
  5  6  2  0
  7  8  1  0
  8 10  1  0
  9  8  2  0
 10 11  1  0
 11 12  1  0
 12 13  1  0
 14 15  1  0
 14 13  1  6
 15  5  1  0
 16 14  1  0
 17 16  2  0
 18 19  1  0
 20 21  1  0
 20 19  1  0
 22 21  1  6
 22 24  1  0
 22 23  1  0
 23 16  1  0
 24 25  1  0
 26 24  2  0
M  END
$$$$
