SRM.pdb
     RDKit          3D

 26 25  0  0  1  0  0  0  0  0999 V2000
    9.5153  -12.8879   19.8765 O   0  0  0  0  0  0  0  0  0  0  0  0
    9.4497  -14.1200   19.2051 C   0  0  0  0  0  0  0  0  0  0  0  0
    8.0103  -14.5611   19.0422 C   0  0  2  0  0  0  0  0  0  0  0  0
    7.2784  -13.3628   18.6094 N   0  0  0  0  0  0  0  0  0  0  0  0
    7.5003  -15.0558   20.3358 C   0  0  0  0  0  0  0  0  0  0  0  0
    6.8303  -14.2784   21.0573 O   0  0  0  0  0  0  0  0  0  0  0  0
    6.0551  -22.4956   25.0117 N   0  0  0  0  0  0  0  0  0  0  0  0
    5.9129  -22.2129   23.6269 C   0  0  0  0  0  0  0  0  0  0  0  0
    5.1198  -22.9528   22.9396 N   0  0  0  0  0  0  0  0  0  0  0  0
    6.6147  -21.1494   22.9957 N   0  0  0  0  0  0  0  0  0  0  0  0
    7.5252  -20.2950   23.7032 C   0  0  0  0  0  0  0  0  0  0  0  0
    7.1703  -18.8462   23.6342 C   0  0  0  0  0  0  0  0  0  0  0  0
    7.5551  -18.3093   22.2748 C   0  0  0  0  0  0  0  0  0  0  0  0
    7.1942  -16.8803   22.0465 C   0  0  2  0  0  0  0  0  0  0  0  0
    7.7312  -16.3707   20.8038 N   0  0  0  0  0  0  0  0  0  0  0  0
    7.7656  -16.1155   23.2165 C   0  0  0  0  0  0  0  0  0  0  0  0
    9.0022  -15.9053   23.2225 O   0  0  0  0  0  0  0  0  0  0  0  0
    4.9021  -22.7733   21.9363 C   0  0  0  0  0  0  0  0  0  0  0  0
    6.8140  -10.5247   28.7258 S   0  0  0  0  0  0  0  0  0  0  0  0
    6.2002  -11.4376   27.2672 C   0  0  0  0  0  0  0  0  0  0  0  0
    6.9458  -13.0100   27.0234 C   0  0  0  0  0  0  0  0  0  0  0  0
    6.5472  -13.8511   25.9041 C   0  0  1  0  0  0  0  0  0  0  0  0
    7.4713  -14.8091   25.3145 N   0  0  0  0  0  0  0  0  0  0  0  0
    6.9590  -15.6525   24.2630 C   0  0  0  0  0  0  0  0  0  0  0  0
    8.3680  -15.5890   26.1612 O   0  0  0  0  0  0  0  0  0  0  0  0
    9.2445  -14.8591   27.0073 O   0  0  0  0  0  0  0  0  0  0  0  0
  1  2  1  0
  2  3  1  0
  3  4  1  1
  5  3  1  0
  5  6  2  0
  7  8  1  0
  8 10  1  0
  9  8  2  0
 10 11  1  0
 11 12  1  0
 12 13  1  0
 14 15  1  0
 14 13  1  1
 15  5  1  0
 16 14  1  0
 17 16  2  0
 18 19  1  0
 20 21  1  0
 20 19  1  0
 22 21  1  6
 22 24  1  0
 22 23  1  0
 23 16  1  0
 24 25  1  0
 26 24  2  0
M  END
$$$$
