SRM.pdb
     RDKit          3D

 26 25  0  0  1  0  0  0  0  0999 V2000
    7.5892  -19.2758   26.3412 O   0  0  0  0  0  0  0  0  0  0  0  0
    6.2732  -19.1086   25.8792 C   0  0  0  0  0  0  0  0  0  0  0  0
    6.1878  -19.4056   24.3968 C   0  0  2  0  0  0  0  0  0  0  0  0
    6.5275  -20.8287   24.2608 N   0  0  0  0  0  0  0  0  0  0  0  0
    7.1538  -18.5580   23.6711 C   0  0  0  0  0  0  0  0  0  0  0  0
    8.2750  -19.0376   23.3763 O   0  0  0  0  0  0  0  0  0  0  0  0
    8.3398  -14.7376   17.1219 N   0  0  0  0  0  0  0  0  0  0  0  0
    7.9775  -13.6481   17.9582 C   0  0  0  0  0  0  0  0  0  0  0  0
    8.4742  -12.4940   17.6928 N   0  0  0  0  0  0  0  0  0  0  0  0
    7.0940  -13.8023   19.0616 N   0  0  0  0  0  0  0  0  0  0  0  0
    7.4152  -13.3388   20.3814 C   0  0  0  0  0  0  0  0  0  0  0  0
    8.1822  -14.3264   21.1977 C   0  0  0  0  0  0  0  0  0  0  0  0
    7.2104  -15.2612   21.8803 C   0  0  0  0  0  0  0  0  0  0  0  0
    7.8495  -16.3524   22.6709 C   0  0  2  0  0  0  0  0  0  0  0  0
    6.8753  -17.2246   23.2895 N   0  0  0  0  0  0  0  0  0  0  0  0
    8.6835  -15.6668   23.7267 C   0  0  0  0  0  0  0  0  0  0  0  0
    8.1057  -14.8451   24.4778 O   0  0  0  0  0  0  0  0  0  0  0  0
    8.3653  -11.6704   18.3220 C   0  0  0  0  0  0  0  0  0  0  0  0
   10.4696  -12.9155   28.3646 S   0  0  0  0  0  0  0  0  0  0  0  0
    9.2914  -14.0611   27.5664 C   0  0  0  0  0  0  0  0  0  0  0  0
    9.8132  -15.7387   27.5335 C   0  0  0  0  0  0  0  0  0  0  0  0
    9.8642  -16.4722   26.2771 C   0  0  2  0  0  0  0  0  0  0  0  0
   10.6844  -16.0097   25.1669 N   0  0  0  0  0  0  0  0  0  0  0  0
   10.0513  -15.9272   23.8738 C   0  0  0  0  0  0  0  0  0  0  0  0
   12.0496  -16.4979   25.0024 O   0  0  0  0  0  0  0  0  0  0  0  0
   13.0716  -15.7781   25.6765 O   0  0  0  0  0  0  0  0  0  0  0  0
  1  2  1  0
  2  3  1  0
  3  4  1  1
  5  3  1  0
  5  6  2  0
  7  8  1  0
  8 10  1  0
  9  8  2  0
 10 11  1  0
 11 12  1  0
 12 13  1  0
 14 15  1  0
 14 13  1  1
 15  5  1  0
 16 14  1  0
 17 16  2  0
 18 19  1  0
 20 21  1  0
 20 19  1  0
 22 21  1  1
 22 24  1  0
 22 23  1  0
 23 16  1  0
 24 25  1  0
 26 24  2  0
M  END
$$$$
