SRM.pdb
     RDKit          3D

 26 25  0  0  1  0  0  0  0  0999 V2000
   10.0228  -16.0910   19.3922 O   0  0  0  0  0  0  0  0  0  0  0  0
    8.9077  -15.8994   18.5597 C   0  0  0  0  0  0  0  0  0  0  0  0
    7.8776  -16.9849   18.7918 C   0  0  2  0  0  0  0  0  0  0  0  0
    6.7690  -16.6766   17.8780 N   0  0  0  0  0  0  0  0  0  0  0  0
    7.4325  -16.9450   20.1983 C   0  0  0  0  0  0  0  0  0  0  0  0
    6.6503  -16.0325   20.5580 O   0  0  0  0  0  0  0  0  0  0  0  0
    6.5278  -19.9720   27.9015 N   0  0  0  0  0  0  0  0  0  0  0  0
    7.8699  -20.2465   27.5255 C   0  0  0  0  0  0  0  0  0  0  0  0
    8.7935  -20.0341   28.3921 N   0  0  0  0  0  0  0  0  0  0  0  0
    8.2084  -20.7419   26.2365 N   0  0  0  0  0  0  0  0  0  0  0  0
    7.3001  -20.6961   25.1262 C   0  0  0  0  0  0  0  0  0  0  0  0
    7.0557  -19.3189   24.6032 C   0  0  0  0  0  0  0  0  0  0  0  0
    7.5557  -19.2371   23.1793 C   0  0  0  0  0  0  0  0  0  0  0  0
    7.3465  -17.9146   22.5225 C   0  0  2  0  0  0  0  0  0  0  0  0
    7.8468  -17.8907   21.1655 N   0  0  0  0  0  0  0  0  0  0  0  0
    8.0859  -16.9077   23.3709 C   0  0  0  0  0  0  0  0  0  0  0  0
    9.3224  -16.7965   23.1919 O   0  0  0  0  0  0  0  0  0  0  0  0
    9.7955  -20.2653   28.2226 C   0  0  0  0  0  0  0  0  0  0  0  0
    5.2282  -11.5072   26.1593 S   0  0  0  0  0  0  0  0  0  0  0  0
    6.9339  -11.5142   26.8136 C   0  0  0  0  0  0  0  0  0  0  0  0
    7.9115  -12.8765   26.2881 C   0  0  0  0  0  0  0  0  0  0  0  0
    7.3173  -13.9580   25.5158 C   0  0  1  0  0  0  0  0  0  0  0  0
    8.1118  -15.0967   25.0781 N   0  0  0  0  0  0  0  0  0  0  0  0
    7.4305  -16.1211   24.3259 C   0  0  0  0  0  0  0  0  0  0  0  0
    9.0685  -15.7231   25.9844 O   0  0  0  0  0  0  0  0  0  0  0  0
   10.3708  -15.1582   26.0296 O   0  0  0  0  0  0  0  0  0  0  0  0
  1  2  1  0
  2  3  1  0
  3  4  1  6
  5  3  1  0
  5  6  2  0
  7  8  1  0
  8 10  1  0
  9  8  2  0
 10 11  1  0
 11 12  1  0
 12 13  1  0
 14 15  1  0
 14 13  1  1
 15  5  1  0
 16 14  1  0
 17 16  2  0
 18 19  1  0
 20 21  1  0
 20 19  1  0
 22 21  1  6
 22 24  1  0
 22 23  1  0
 23 16  1  0
 24 25  1  0
 26 24  2  0
M  END
$$$$
