SRM.pdb
     RDKit          3D

 26 25  0  0  1  0  0  0  0  0999 V2000
    7.5136  -14.4709   17.5125 O   0  0  0  0  0  0  0  0  0  0  0  0
    7.4470  -13.2615   18.2240 C   0  0  0  0  0  0  0  0  0  0  0  0
    8.5306  -13.2052   19.2803 C   0  0  2  0  0  0  0  0  0  0  0  0
    9.7809  -13.5260   18.5783 N   0  0  0  0  0  0  0  0  0  0  0  0
    8.2420  -14.2002   20.3314 C   0  0  0  0  0  0  0  0  0  0  0  0
    7.1798  -14.0914   20.9900 O   0  0  0  0  0  0  0  0  0  0  0  0
    7.8961  -19.3012   18.1681 N   0  0  0  0  0  0  0  0  0  0  0  0
    8.9647  -20.2368   18.1470 C   0  0  0  0  0  0  0  0  0  0  0  0
    9.2379  -20.8139   17.0329 N   0  0  0  0  0  0  0  0  0  0  0  0
    9.7251  -20.5434   19.3088 N   0  0  0  0  0  0  0  0  0  0  0  0
   10.1366  -19.5424   20.2514 C   0  0  0  0  0  0  0  0  0  0  0  0
    9.1462  -18.4392   20.4307 C   0  0  0  0  0  0  0  0  0  0  0  0
    9.6505  -17.4934   21.4963 C   0  0  0  0  0  0  0  0  0  0  0  0
    8.8364  -16.2549   21.6632 C   0  0  2  0  0  0  0  0  0  0  0  0
    9.1092  -15.2762   20.6336 N   0  0  0  0  0  0  0  0  0  0  0  0
    9.1966  -15.7008   23.0209 C   0  0  0  0  0  0  0  0  0  0  0  0
   10.4065  -15.4565   23.2442 O   0  0  0  0  0  0  0  0  0  0  0  0
    9.9904  -21.5281   16.9326 C   0  0  0  0  0  0  0  0  0  0  0  0
    5.8271  -10.8980   26.8202 S   0  0  0  0  0  0  0  0  0  0  0  0
    7.5805  -11.3180   27.1153 C   0  0  0  0  0  0  0  0  0  0  0  0
    7.9630  -13.0234   26.9336 C   0  0  0  0  0  0  0  0  0  0  0  0
    7.7388  -13.6998   25.6642 C   0  0  1  0  0  0  0  0  0  0  0  0
    8.5485  -14.8419   25.2653 N   0  0  0  0  0  0  0  0  0  0  0  0
    8.2285  -15.4639   24.0042 C   0  0  0  0  0  0  0  0  0  0  0  0
    8.8984  -15.8750   26.2346 O   0  0  0  0  0  0  0  0  0  0  0  0
    9.5635  -15.4462   27.4139 O   0  0  0  0  0  0  0  0  0  0  0  0
  1  2  1  0
  2  3  1  0
  3  4  1  6
  5  3  1  0
  5  6  2  0
  7  8  1  0
  8 10  1  0
  9  8  2  0
 10 11  1  0
 11 12  1  0
 12 13  1  0
 14 15  1  0
 14 13  1  6
 15  5  1  0
 16 14  1  0
 17 16  2  0
 18 19  1  0
 20 21  1  0
 20 19  1  0
 22 21  1  6
 22 24  1  0
 22 23  1  0
 23 16  1  0
 24 25  1  0
 26 24  2  0
M  END
$$$$
