SRM.pdb
     RDKit          3D

 26 25  0  0  1  0  0  0  0  0999 V2000
    7.6018  -18.9223   25.9492 O   0  0  0  0  0  0  0  0  0  0  0  0
    6.4225  -19.2375   25.2540 C   0  0  0  0  0  0  0  0  0  0  0  0
    6.6939  -19.3474   23.7683 C   0  0  2  0  0  0  0  0  0  0  0  0
    7.3126  -20.6666   23.5784 N   0  0  0  0  0  0  0  0  0  0  0  0
    7.6113  -18.2671   23.3568 C   0  0  0  0  0  0  0  0  0  0  0  0
    8.8407  -18.5097   23.2967 O   0  0  0  0  0  0  0  0  0  0  0  0
    8.6509  -12.1690   18.2458 N   0  0  0  0  0  0  0  0  0  0  0  0
    8.2248  -13.4315   17.7535 C   0  0  0  0  0  0  0  0  0  0  0  0
    8.9338  -13.9928   16.8417 N   0  0  0  0  0  0  0  0  0  0  0  0
    7.0537  -14.0765   18.2376 N   0  0  0  0  0  0  0  0  0  0  0  0
    6.7437  -14.1712   19.6357 C   0  0  0  0  0  0  0  0  0  0  0  0
    7.8501  -14.7398   20.4619 C   0  0  0  0  0  0  0  0  0  0  0  0
    7.4017  -14.8103   21.9035 C   0  0  0  0  0  0  0  0  0  0  0  0
    8.0665  -15.8749   22.7093 C   0  0  2  0  0  0  0  0  0  0  0  0
    7.1694  -16.9649   23.0246 N   0  0  0  0  0  0  0  0  0  0  0  0
    8.5394  -15.2028   23.9761 C   0  0  0  0  0  0  0  0  0  0  0  0
    8.8915  -14.0014   23.8975 O   0  0  0  0  0  0  0  0  0  0  0  0
    8.7377  -14.9497   16.4784 C   0  0  0  0  0  0  0  0  0  0  0  0
    7.5504  -11.1828   25.3787 S   0  0  0  0  0  0  0  0  0  0  0  0
    7.3461  -12.0422   26.9779 C   0  0  0  0  0  0  0  0  0  0  0  0
    7.2608  -13.7933   26.8597 C   0  0  0  0  0  0  0  0  0  0  0  0
    8.3703  -14.6195   27.3133 C   0  0  2  0  0  0  0  0  0  0  0  0
    9.2253  -15.3198   26.3659 N   0  0  0  0  0  0  0  0  0  0  0  0
    8.5895  -15.8814   25.1997 C   0  0  0  0  0  0  0  0  0  0  0  0
   10.2567  -16.2375   26.8386 O   0  0  0  0  0  0  0  0  0  0  0  0
   11.0700  -15.7870   27.9122 O   0  0  0  0  0  0  0  0  0  0  0  0
  1  2  1  0
  2  3  1  0
  3  4  1  1
  5  3  1  0
  5  6  2  0
  7  8  1  0
  8 10  1  0
  9  8  2  0
 10 11  1  0
 11 12  1  0
 12 13  1  0
 14 15  1  0
 14 13  1  6
 15  5  1  0
 16 14  1  0
 17 16  2  0
 18 19  1  0
 20 21  1  0
 20 19  1  0
 22 21  1  6
 22 24  1  0
 22 23  1  0
 23 16  1  0
 24 25  1  0
 26 24  2  0
M  END
$$$$
