SRM.pdb
     RDKit          3D

 26 25  0  0  1  0  0  0  0  0999 V2000
    6.4299  -19.1885   24.9498 O   0  0  0  0  0  0  0  0  0  0  0  0
    5.4908  -19.0376   23.9161 C   0  0  0  0  0  0  0  0  0  0  0  0
    6.1258  -19.3319   22.5733 C   0  0  2  0  0  0  0  0  0  0  0  0
    6.9020  -20.5644   22.7671 N   0  0  0  0  0  0  0  0  0  0  0  0
    7.0020  -18.2081   22.1891 C   0  0  0  0  0  0  0  0  0  0  0  0
    8.2428  -18.3379   22.3216 O   0  0  0  0  0  0  0  0  0  0  0  0
    9.0149  -15.5637   16.4158 N   0  0  0  0  0  0  0  0  0  0  0  0
    8.4473  -14.3974   16.9948 C   0  0  0  0  0  0  0  0  0  0  0  0
    8.4827  -13.3089   16.3143 N   0  0  0  0  0  0  0  0  0  0  0  0
    7.8516  -14.4065   18.2859 N   0  0  0  0  0  0  0  0  0  0  0  0
    8.4147  -13.7038   19.4035 C   0  0  0  0  0  0  0  0  0  0  0  0
    7.4530  -13.4838   20.5245 C   0  0  0  0  0  0  0  0  0  0  0  0
    6.6394  -14.7410   20.7289 C   0  0  0  0  0  0  0  0  0  0  0  0
    7.3164  -15.7939   21.5398 C   0  0  2  0  0  0  0  0  0  0  0  0
    6.5083  -16.9859   21.6757 N   0  0  0  0  0  0  0  0  0  0  0  0
    7.5702  -15.1762   22.8941 C   0  0  0  0  0  0  0  0  0  0  0  0
    6.6529  -14.4831   23.3955 O   0  0  0  0  0  0  0  0  0  0  0  0
    8.1105  -12.4033   16.6715 C   0  0  0  0  0  0  0  0  0  0  0  0
    6.4761  -10.9551   26.7807 S   0  0  0  0  0  0  0  0  0  0  0  0
    6.7427  -12.5887   27.5540 C   0  0  0  0  0  0  0  0  0  0  0  0
    8.0526  -13.5245   26.8496 C   0  0  0  0  0  0  0  0  0  0  0  0
    7.9075  -14.1217   25.5300 C   0  0  1  0  0  0  0  0  0  0  0  0
    9.0300  -14.7718   24.8691 N   0  0  0  0  0  0  0  0  0  0  0  0
    8.7787  -15.3602   23.5768 C   0  0  0  0  0  0  0  0  0  0  0  0
    9.9320  -15.6364   25.6227 O   0  0  0  0  0  0  0  0  0  0  0  0
   10.4585  -15.1115   26.8328 O   0  0  0  0  0  0  0  0  0  0  0  0
  1  2  1  0
  2  3  1  0
  3  4  1  1
  5  3  1  0
  5  6  2  0
  7  8  1  0
  8 10  1  0
  9  8  2  0
 10 11  1  0
 11 12  1  0
 12 13  1  0
 14 15  1  0
 14 13  1  6
 15  5  1  0
 16 14  1  0
 17 16  2  0
 18 19  1  0
 20 21  1  0
 20 19  1  0
 22 21  1  6
 22 24  1  0
 22 23  1  0
 23 16  1  0
 24 25  1  0
 26 24  2  0
M  END
$$$$
