SRM.pdb
     RDKit          3D

 26 25  0  0  1  0  0  0  0  0999 V2000
   12.6824  -19.9069   22.9571 O   0  0  0  0  0  0  0  0  0  0  0  0
   11.6531  -20.0919   22.0193 C   0  0  0  0  0  0  0  0  0  0  0  0
   11.7217  -19.0338   20.9383 C   0  0  2  0  0  0  0  0  0  0  0  0
   13.1492  -18.8856   20.6232 N   0  0  0  0  0  0  0  0  0  0  0  0
   11.1582  -17.7706   21.4530 C   0  0  0  0  0  0  0  0  0  0  0  0
   11.9403  -16.8296   21.7299 O   0  0  0  0  0  0  0  0  0  0  0  0
    7.5038  -12.8056   17.9313 N   0  0  0  0  0  0  0  0  0  0  0  0
    8.3912  -12.7899   19.0404 C   0  0  0  0  0  0  0  0  0  0  0  0
    9.3170  -11.9000   19.0583 N   0  0  0  0  0  0  0  0  0  0  0  0
    8.2805  -13.7185   20.1114 N   0  0  0  0  0  0  0  0  0  0  0  0
    7.0958  -13.8390   20.9125 C   0  0  0  0  0  0  0  0  0  0  0  0
    7.2501  -14.7519   22.0842 C   0  0  0  0  0  0  0  0  0  0  0  0
    7.8592  -16.0538   21.6169 C   0  0  0  0  0  0  0  0  0  0  0  0
    9.2120  -16.3421   22.1748 C   0  0  2  0  0  0  0  0  0  0  0  0
    9.7720  -17.5682   21.6499 N   0  0  0  0  0  0  0  0  0  0  0  0
    9.0309  -16.4473   23.6703 C   0  0  0  0  0  0  0  0  0  0  0  0
    8.1548  -17.2391   24.0932 O   0  0  0  0  0  0  0  0  0  0  0  0
   10.0475  -11.8552   19.8002 C   0  0  0  0  0  0  0  0  0  0  0  0
    6.6238  -10.8412   26.4006 S   0  0  0  0  0  0  0  0  0  0  0  0
    7.6534  -12.0088   27.3570 C   0  0  0  0  0  0  0  0  0  0  0  0
    7.5051  -13.6879   26.8608 C   0  0  0  0  0  0  0  0  0  0  0  0
    8.2087  -14.1754   25.6833 C   0  0  1  0  0  0  0  0  0  0  0  0
    9.2645  -15.1714   25.7945 N   0  0  0  0  0  0  0  0  0  0  0  0
    9.8034  -15.6958   24.5640 C   0  0  0  0  0  0  0  0  0  0  0  0
    9.1638  -16.2498   26.7723 O   0  0  0  0  0  0  0  0  0  0  0  0
   10.3832  -16.8306   27.2115 O   0  0  0  0  0  0  0  0  0  0  0  0
  1  2  1  0
  2  3  1  0
  3  4  1  1
  5  3  1  0
  5  6  2  0
  7  8  1  0
  8 10  1  0
  9  8  2  0
 10 11  1  0
 11 12  1  0
 12 13  1  0
 14 15  1  0
 14 13  1  6
 15  5  1  0
 16 14  1  0
 17 16  2  0
 18 19  1  0
 20 21  1  0
 20 19  1  0
 22 21  1  6
 22 24  1  0
 22 23  1  0
 23 16  1  0
 24 25  1  0
 26 24  2  0
M  END
$$$$
