SPK.pdb
     RDKit          3D

 23 23  0  0  1  0  0  0  0  0999 V2000
   23.7018  -10.7806  -19.7944 O   0  0  0  0  0  0  0  0  0  0  0  0
   23.1332  -11.9829  -19.4300 C   0  0  0  0  0  0  0  0  0  0  0  0
   23.7672  -12.6184  -18.1946 C   0  0  2  0  0  0  0  0  0  0  0  0
   22.9894  -13.8557  -17.9735 N   0  0  0  0  0  0  0  0  0  0  0  0
   23.6022  -11.7572  -17.0045 C   0  0  0  0  0  0  0  0  0  0  0  0
   22.4931  -11.8478  -16.3872 O   0  0  0  0  0  0  0  0  0  0  0  0
   24.5542  -10.8564  -16.4980 N   0  0  0  0  0  0  0  0  0  0  0  0
   25.8593  -10.6168  -17.0939 C   0  0  0  0  0  0  0  0  0  0  0  0
   26.7554  -10.5795  -15.8794 C   0  0  0  0  0  0  0  0  0  0  0  0
   25.9004  -10.0531  -14.7733 C   0  0  0  0  0  0  0  0  0  0  0  0
   24.5145   -9.9996  -15.3405 C   0  0  1  0  0  0  0  0  0  0  0  0
   24.1523   -8.5850  -15.7241 C   0  0  0  0  0  0  0  0  0  0  0  0
   24.7223   -8.1169  -16.7423 O   0  0  0  0  0  0  0  0  0  0  0  0
   23.2415   -7.7857  -15.0268 N   0  0  0  0  0  0  0  0  0  0  0  0
   22.8415   -6.4449  -15.4938 C   0  0  1  0  0  0  0  0  0  0  0  0
   21.3788   -6.5432  -15.9059 C   0  0  0  0  0  0  0  0  0  0  0  0
   21.1307   -7.4815  -17.0350 C   0  0  0  0  0  0  0  0  0  0  0  0
   19.6671   -7.5995  -17.3952 C   0  0  0  0  0  0  0  0  0  0  0  0
   19.5961   -8.4859  -18.6382 C   0  0  0  0  0  0  0  0  0  0  0  0
   18.1878   -8.5534  -19.0105 N   0  0  0  0  0  0  0  0  0  0  0  0
   23.0644   -5.4429  -14.4295 C   0  0  0  0  0  0  0  0  0  0  0  0
   23.2057   -4.1001  -14.7292 O   0  0  0  0  0  0  0  0  0  0  0  0
   23.1293   -5.7963  -13.2339 O   0  0  0  0  0  0  0  0  0  0  0  0
  1  2  1  0
  2  3  1  0
  3  5  1  0
  3  4  1  1
  5  6  2  0
  7 11  1  0
  7  5  1  0
  8  7  1  0
  9  8  1  0
  9 10  1  0
 10 11  1  0
 11 12  1  6
 12 13  2  0
 12 14  1  0
 14 15  1  0
 15 21  1  0
 15 16  1  1
 17 16  1  0
 18 19  1  0
 18 17  1  0
 20 19  1  0
 21 23  2  0
 21 22  1  0
M  END
$$$$
