SPK.pdb
     RDKit          3D

 23 23  0  0  1  0  0  0  0  0999 V2000
   22.5753  -12.7679  -20.1567 O   0  0  0  0  0  0  0  0  0  0  0  0
   22.6459  -11.9153  -19.0752 C   0  0  0  0  0  0  0  0  0  0  0  0
   23.0833  -12.5943  -17.7792 C   0  0  2  0  0  0  0  0  0  0  0  0
   22.0026  -13.5579  -17.4822 N   0  0  0  0  0  0  0  0  0  0  0  0
   23.1508  -11.6267  -16.6637 C   0  0  0  0  0  0  0  0  0  0  0  0
   22.1199  -11.5414  -15.9226 O   0  0  0  0  0  0  0  0  0  0  0  0
   24.2440  -10.8011  -16.3510 N   0  0  0  0  0  0  0  0  0  0  0  0
   25.4922  -10.7706  -17.0971 C   0  0  0  0  0  0  0  0  0  0  0  0
   26.5174  -10.7283  -15.9895 C   0  0  0  0  0  0  0  0  0  0  0  0
   25.8524  -10.0076  -14.8627 C   0  0  0  0  0  0  0  0  0  0  0  0
   24.4254   -9.8442  -15.2895 C   0  0  1  0  0  0  0  0  0  0  0  0
   24.1752   -8.4375  -15.7777 C   0  0  0  0  0  0  0  0  0  0  0  0
   24.3497   -8.2310  -17.0056 O   0  0  0  0  0  0  0  0  0  0  0  0
   23.7712   -7.3776  -14.9605 N   0  0  0  0  0  0  0  0  0  0  0  0
   22.9401   -6.2644  -15.4565 C   0  0  1  0  0  0  0  0  0  0  0  0
   21.6805   -6.8865  -16.0441 C   0  0  0  0  0  0  0  0  0  0  0  0
   20.6601   -5.8921  -16.4762 C   0  0  0  0  0  0  0  0  0  0  0  0
   19.3948   -6.5326  -17.0000 C   0  0  0  0  0  0  0  0  0  0  0  0
   18.5088   -5.3942  -17.5048 C   0  0  0  0  0  0  0  0  0  0  0  0
   17.2875   -6.0177  -18.0008 N   0  0  0  0  0  0  0  0  0  0  0  0
   22.6459   -5.3157  -14.3611 C   0  0  0  0  0  0  0  0  0  0  0  0
   22.6022   -3.9521  -14.5880 O   0  0  0  0  0  0  0  0  0  0  0  0
   22.4307   -5.7343  -13.2048 O   0  0  0  0  0  0  0  0  0  0  0  0
  1  2  1  0
  2  3  1  0
  3  5  1  0
  3  4  1  1
  5  6  2  0
  7 11  1  0
  7  5  1  0
  8  7  1  0
  9  8  1  0
  9 10  1  0
 10 11  1  0
 11 12  1  6
 12 13  2  0
 12 14  1  0
 14 15  1  0
 15 21  1  0
 15 16  1  1
 17 16  1  0
 18 19  1  0
 18 17  1  0
 20 19  1  0
 21 23  2  0
 21 22  1  0
M  END
$$$$
