SPK.pdb
     RDKit          3D

 23 23  0  0  1  0  0  0  0  0999 V2000
   25.5892  -22.3087  -13.9906 O   0  0  0  0  0  0  0  0  0  0  0  0
   26.8276  -21.8167  -13.6361 C   0  0  0  0  0  0  0  0  0  0  0  0
   26.7733  -20.6745  -12.6239 C   0  0  2  0  0  0  0  0  0  0  0  0
   26.1830  -21.2807  -11.4120 N   0  0  0  0  0  0  0  0  0  0  0  0
   25.8709  -19.5964  -13.0804 C   0  0  0  0  0  0  0  0  0  0  0  0
   24.8032  -19.4270  -12.4091 O   0  0  0  0  0  0  0  0  0  0  0  0
   26.0868  -18.7483  -14.1797 N   0  0  0  0  0  0  0  0  0  0  0  0
   27.1706  -18.9022  -15.1376 C   0  0  0  0  0  0  0  0  0  0  0  0
   27.6376  -17.4771  -15.3127 C   0  0  0  0  0  0  0  0  0  0  0  0
   26.4227  -16.6342  -15.1015 C   0  0  0  0  0  0  0  0  0  0  0  0
   25.3658  -17.5824  -14.6229 C   0  0  1  0  0  0  0  0  0  0  0  0
   24.4141  -17.9259  -15.7436 C   0  0  0  0  0  0  0  0  0  0  0  0
   24.8556  -18.6893  -16.6397 O   0  0  0  0  0  0  0  0  0  0  0  0
   23.1018  -17.4532  -15.8387 N   0  0  0  0  0  0  0  0  0  0  0  0
   22.1544  -17.9397  -16.8593 C   0  0  1  0  0  0  0  0  0  0  0  0
   20.9309  -18.4527  -16.1116 C   0  0  0  0  0  0  0  0  0  0  0  0
   21.1988  -19.6438  -15.2594 C   0  0  0  0  0  0  0  0  0  0  0  0
   19.9434  -20.2387  -14.6630 C   0  0  0  0  0  0  0  0  0  0  0  0
   20.3812  -21.4674  -13.8665 C   0  0  0  0  0  0  0  0  0  0  0  0
   19.1730  -22.0079  -13.2546 N   0  0  0  0  0  0  0  0  0  0  0  0
   21.8244  -16.8572  -17.8110 C   0  0  0  0  0  0  0  0  0  0  0  0
   22.2669  -15.5632  -17.6042 O   0  0  0  0  0  0  0  0  0  0  0  0
   21.1354  -17.0963  -18.8242 O   0  0  0  0  0  0  0  0  0  0  0  0
  1  2  1  0
  2  3  1  0
  3  5  1  0
  3  4  1  1
  5  6  2  0
  7 11  1  0
  7  5  1  0
  8  7  1  0
  9  8  1  0
  9 10  1  0
 10 11  1  0
 11 12  1  6
 12 13  2  0
 12 14  1  0
 14 15  1  0
 15 21  1  0
 15 16  1  1
 17 16  1  0
 18 19  1  0
 18 17  1  0
 20 19  1  0
 21 23  2  0
 21 22  1  0
M  END
$$$$
