SPK.pdb
     RDKit          3D

 23 23  0  0  1  0  0  0  0  0999 V2000
   26.6733  -18.5872  -15.8498 O   0  0  0  0  0  0  0  0  0  0  0  0
   28.0173  -18.7246  -15.5735 C   0  0  0  0  0  0  0  0  0  0  0  0
   28.4476  -20.1624  -15.2914 C   0  0  2  0  0  0  0  0  0  0  0  0
   28.7360  -20.7315  -16.6247 N   0  0  0  0  0  0  0  0  0  0  0  0
   27.3456  -20.9434  -14.6908 C   0  0  0  0  0  0  0  0  0  0  0  0
   26.7760  -21.7951  -15.4455 O   0  0  0  0  0  0  0  0  0  0  0  0
   26.8767  -20.8307  -13.3711 N   0  0  0  0  0  0  0  0  0  0  0  0
   27.3645  -19.8596  -12.4043 C   0  0  0  0  0  0  0  0  0  0  0  0
   27.4823  -20.6962  -11.1530 C   0  0  0  0  0  0  0  0  0  0  0  0
   26.4207  -21.7401  -11.2741 C   0  0  0  0  0  0  0  0  0  0  0  0
   25.8762  -21.5866  -12.6616 C   0  0  1  0  0  0  0  0  0  0  0  0
   24.5574  -20.8520  -12.6359 C   0  0  0  0  0  0  0  0  0  0  0  0
   24.6150  -19.6001  -12.5346 O   0  0  0  0  0  0  0  0  0  0  0  0
   23.3064  -21.4710  -12.7155 N   0  0  0  0  0  0  0  0  0  0  0  0
   22.0847  -20.7450  -13.1110 C   0  0  1  0  0  0  0  0  0  0  0  0
   21.4479  -21.5429  -14.2411 C   0  0  0  0  0  0  0  0  0  0  0  0
   20.2054  -20.9310  -14.7875 C   0  0  0  0  0  0  0  0  0  0  0  0
   19.4755  -21.8366  -15.7533 C   0  0  0  0  0  0  0  0  0  0  0  0
   18.2984  -21.0296  -16.3000 C   0  0  0  0  0  0  0  0  0  0  0  0
   17.6061  -21.9042  -17.2393 N   0  0  0  0  0  0  0  0  0  0  0  0
   21.1826  -20.5874  -11.9502 C   0  0  0  0  0  0  0  0  0  0  0  0
   20.2499  -19.5673  -11.9021 O   0  0  0  0  0  0  0  0  0  0  0  0
   21.2495  -21.3791  -10.9872 O   0  0  0  0  0  0  0  0  0  0  0  0
  1  2  1  0
  2  3  1  0
  3  5  1  0
  3  4  1  6
  5  6  2  0
  7 11  1  0
  7  5  1  0
  8  7  1  0
  9  8  1  0
  9 10  1  0
 10 11  1  0
 11 12  1  1
 12 13  2  0
 12 14  1  0
 14 15  1  0
 15 21  1  0
 15 16  1  6
 17 16  1  0
 18 19  1  0
 18 17  1  0
 20 19  1  0
 21 23  2  0
 21 22  1  0
M  END
$$$$
