SPK.pdb
     RDKit          3D

 23 23  0  0  1  0  0  0  0  0999 V2000
   27.7295  -15.9185  -20.0281 O   0  0  0  0  0  0  0  0  0  0  0  0
   27.7186  -14.5556  -19.8186 C   0  0  0  0  0  0  0  0  0  0  0  0
   28.0484  -14.1470  -18.3847 C   0  0  2  0  0  0  0  0  0  0  0  0
   27.1190  -14.9379  -17.5507 N   0  0  0  0  0  0  0  0  0  0  0  0
   27.7606  -12.7153  -18.1558 C   0  0  0  0  0  0  0  0  0  0  0  0
   26.6261  -12.4375  -17.6506 O   0  0  0  0  0  0  0  0  0  0  0  0
   28.6223  -11.6432  -18.4428 N   0  0  0  0  0  0  0  0  0  0  0  0
   29.9405  -11.7841  -19.0414 C   0  0  0  0  0  0  0  0  0  0  0  0
   30.7628  -10.8234  -18.2166 C   0  0  0  0  0  0  0  0  0  0  0  0
   29.8148   -9.7453  -17.8037 C   0  0  0  0  0  0  0  0  0  0  0  0
   28.4623  -10.2268  -18.2329 C   0  0  1  0  0  0  0  0  0  0  0  0
   28.0312   -9.5348  -19.5038 C   0  0  0  0  0  0  0  0  0  0  0  0
   28.2201  -10.1635  -20.5761 O   0  0  0  0  0  0  0  0  0  0  0  0
   27.4491   -8.2647  -19.5535 N   0  0  0  0  0  0  0  0  0  0  0  0
   26.2770   -7.9607  -20.3960 C   0  0  1  0  0  0  0  0  0  0  0  0
   25.1754   -8.9255  -19.9781 C   0  0  0  0  0  0  0  0  0  0  0  0
   24.6654   -9.7777  -21.0874 C   0  0  0  0  0  0  0  0  0  0  0  0
   23.6012  -10.7545  -20.6414 C   0  0  0  0  0  0  0  0  0  0  0  0
   23.2259  -11.5793  -21.8721 C   0  0  0  0  0  0  0  0  0  0  0  0
   22.2871  -12.5954  -21.4107 N   0  0  0  0  0  0  0  0  0  0  0  0
   25.8820   -6.5450  -20.2345 C   0  0  0  0  0  0  0  0  0  0  0  0
   25.5056   -5.7786  -21.3225 O   0  0  0  0  0  0  0  0  0  0  0  0
   25.8824   -6.0150  -19.1042 O   0  0  0  0  0  0  0  0  0  0  0  0
  1  2  1  0
  2  3  1  0
  3  5  1  0
  3  4  1  1
  5  6  2  0
  7 11  1  0
  7  5  1  0
  8  7  1  0
  9  8  1  0
  9 10  1  0
 10 11  1  0
 11 12  1  6
 12 13  2  0
 12 14  1  0
 14 15  1  0
 15 21  1  0
 15 16  1  1
 17 16  1  0
 18 19  1  0
 18 17  1  0
 20 19  1  0
 21 23  2  0
 21 22  1  0
M  END
$$$$
