SPK.pdb
     RDKit          3D

 23 23  0  0  1  0  0  0  0  0999 V2000
   15.5936  -14.9082  -16.8768 O   0  0  0  0  0  0  0  0  0  0  0  0
   15.9290  -13.8983  -15.9998 C   0  0  0  0  0  0  0  0  0  0  0  0
   17.4297  -13.6302  -15.9092 C   0  0  2  0  0  0  0  0  0  0  0  0
   18.0087  -14.9122  -15.4554 N   0  0  0  0  0  0  0  0  0  0  0  0
   17.7302  -12.6065  -14.8861 C   0  0  0  0  0  0  0  0  0  0  0  0
   17.8797  -13.0226  -13.6928 O   0  0  0  0  0  0  0  0  0  0  0  0
   17.8661  -11.2265  -15.1130 N   0  0  0  0  0  0  0  0  0  0  0  0
   17.7513  -10.5915  -16.4166 C   0  0  0  0  0  0  0  0  0  0  0  0
   18.8997   -9.6117  -16.3893 C   0  0  0  0  0  0  0  0  0  0  0  0
   19.0611   -9.2318  -14.9537 C   0  0  0  0  0  0  0  0  0  0  0  0
   18.1445  -10.1470  -14.2004 C   0  0  1  0  0  0  0  0  0  0  0  0
   16.8770   -9.4254  -13.8101 C   0  0  0  0  0  0  0  0  0  0  0  0
   16.0577   -9.1916  -14.7346 O   0  0  0  0  0  0  0  0  0  0  0  0
   16.5716   -9.0117  -12.5100 N   0  0  0  0  0  0  0  0  0  0  0  0
   15.3022   -8.3433  -12.1668 C   0  0  1  0  0  0  0  0  0  0  0  0
   14.6879   -9.1333  -11.0190 C   0  0  0  0  0  0  0  0  0  0  0  0
   13.3382   -8.6554  -10.6105 C   0  0  0  0  0  0  0  0  0  0  0  0
   12.7845   -9.3980   -9.4156 C   0  0  0  0  0  0  0  0  0  0  0  0
   11.3892   -8.8296   -9.1596 C   0  0  0  0  0  0  0  0  0  0  0  0
   10.8178   -9.6239   -8.0784 N   0  0  0  0  0  0  0  0  0  0  0  0
   15.5460   -6.9282  -11.8144 C   0  0  0  0  0  0  0  0  0  0  0  0
   14.5732   -5.9644  -12.0089 O   0  0  0  0  0  0  0  0  0  0  0  0
   16.6430   -6.5782  -11.3319 O   0  0  0  0  0  0  0  0  0  0  0  0
  1  2  1  0
  2  3  1  0
  3  5  1  0
  3  4  1  1
  5  6  2  0
  7 11  1  0
  7  5  1  0
  8  7  1  0
  9  8  1  0
  9 10  1  0
 10 11  1  0
 11 12  1  6
 12 13  2  0
 12 14  1  0
 14 15  1  0
 15 21  1  0
 15 16  1  1
 17 16  1  0
 18 19  1  0
 18 17  1  0
 20 19  1  0
 21 23  2  0
 21 22  1  0
M  END
$$$$
