SPK.pdb
     RDKit          3D

 23 23  0  0  1  0  0  0  0  0999 V2000
   21.8320  -13.2448  -20.4451 O   0  0  0  0  0  0  0  0  0  0  0  0
   21.6499  -12.4835  -19.3099 C   0  0  0  0  0  0  0  0  0  0  0  0
   21.9459  -13.2290  -18.0104 C   0  0  2  0  0  0  0  0  0  0  0  0
   20.9082  -14.2792  -17.9408 N   0  0  0  0  0  0  0  0  0  0  0  0
   21.7806  -12.3459  -16.8366 C   0  0  0  0  0  0  0  0  0  0  0  0
   20.6118  -12.2762  -16.3383 O   0  0  0  0  0  0  0  0  0  0  0  0
   22.7918  -11.5847  -16.2264 N   0  0  0  0  0  0  0  0  0  0  0  0
   24.1665  -11.5145  -16.6966 C   0  0  0  0  0  0  0  0  0  0  0  0
   24.9437  -11.6087  -15.4056 C   0  0  0  0  0  0  0  0  0  0  0  0
   24.0667  -10.9845  -14.3699 C   0  0  0  0  0  0  0  0  0  0  0  0
   22.7582  -10.7418  -15.0585 C   0  0  1  0  0  0  0  0  0  0  0  0
   22.6219   -9.2878  -15.4418 C   0  0  0  0  0  0  0  0  0  0  0  0
   23.2593   -8.9142  -16.4592 O   0  0  0  0  0  0  0  0  0  0  0  0
   21.8464   -8.3563  -14.7452 N   0  0  0  0  0  0  0  0  0  0  0  0
   21.5856   -6.9979  -15.2579 C   0  0  1  0  0  0  0  0  0  0  0  0
   20.1111   -6.9482  -15.6354 C   0  0  0  0  0  0  0  0  0  0  0  0
   19.6759   -5.6418  -16.2019 C   0  0  0  0  0  0  0  0  0  0  0  0
   18.2327   -5.6439  -16.6522 C   0  0  0  0  0  0  0  0  0  0  0  0
   17.9447   -4.2438  -17.1931 C   0  0  0  0  0  0  0  0  0  0  0  0
   16.5734   -4.2724  -17.6881 N   0  0  0  0  0  0  0  0  0  0  0  0
   21.9444   -5.9873  -14.2400 C   0  0  0  0  0  0  0  0  0  0  0  0
   22.4369   -4.7475  -14.6052 O   0  0  0  0  0  0  0  0  0  0  0  0
   21.8076   -6.2394  -13.0250 O   0  0  0  0  0  0  0  0  0  0  0  0
  1  2  1  0
  2  3  1  0
  3  5  1  0
  3  4  1  1
  5  6  2  0
  7 11  1  0
  7  5  1  0
  8  7  1  0
  9  8  1  0
  9 10  1  0
 10 11  1  0
 11 12  1  6
 12 13  2  0
 12 14  1  0
 14 15  1  0
 15 21  1  0
 15 16  1  1
 17 16  1  0
 18 19  1  0
 18 17  1  0
 20 19  1  0
 21 23  2  0
 21 22  1  0
M  END
$$$$
