SPK.pdb
     RDKit          3D

 23 23  0  0  1  0  0  0  0  0999 V2000
   28.2836  -20.0304  -18.8003 O   0  0  0  0  0  0  0  0  0  0  0  0
   27.4779  -20.6251  -17.8524 C   0  0  0  0  0  0  0  0  0  0  0  0
   28.2485  -21.3670  -16.7624 C   0  0  2  0  0  0  0  0  0  0  0  0
   28.8063  -22.5535  -17.4449 N   0  0  0  0  0  0  0  0  0  0  0  0
   27.3435  -21.8393  -15.6934 C   0  0  0  0  0  0  0  0  0  0  0  0
   26.9838  -23.0586  -15.7510 O   0  0  0  0  0  0  0  0  0  0  0  0
   26.8508  -21.0679  -14.6272 N   0  0  0  0  0  0  0  0  0  0  0  0
   27.1883  -19.6721  -14.3964 C   0  0  0  0  0  0  0  0  0  0  0  0
   27.4103  -19.6469  -12.9032 C   0  0  0  0  0  0  0  0  0  0  0  0
   26.5070  -20.7008  -12.3515 C   0  0  0  0  0  0  0  0  0  0  0  0
   25.9595  -21.4148  -13.5497 C   0  0  1  0  0  0  0  0  0  0  0  0
   24.5505  -20.9578  -13.8420 C   0  0  0  0  0  0  0  0  0  0  0  0
   24.4244  -19.8042  -14.3259 O   0  0  0  0  0  0  0  0  0  0  0  0
   23.4062  -21.7265  -13.6093 N   0  0  0  0  0  0  0  0  0  0  0  0
   22.0763  -21.3466  -14.1224 C   0  0  1  0  0  0  0  0  0  0  0  0
   21.6312  -22.4651  -15.0550 C   0  0  0  0  0  0  0  0  0  0  0  0
   22.5957  -22.7583  -16.1508 C   0  0  0  0  0  0  0  0  0  0  0  0
   22.1420  -23.8837  -17.0526 C   0  0  0  0  0  0  0  0  0  0  0  0
   23.2702  -24.1170  -18.0568 C   0  0  0  0  0  0  0  0  0  0  0  0
   22.7956  -25.1500  -18.9700 N   0  0  0  0  0  0  0  0  0  0  0  0
   21.1352  -21.1346  -13.0019 C   0  0  0  0  0  0  0  0  0  0  0  0
   19.9245  -20.4947  -13.1957 O   0  0  0  0  0  0  0  0  0  0  0  0
   21.4211  -21.5330  -11.8538 O   0  0  0  0  0  0  0  0  0  0  0  0
  1  2  1  0
  2  3  1  0
  3  5  1  0
  3  4  1  6
  5  6  2  0
  7 11  1  0
  7  5  1  0
  8  7  1  0
  9  8  1  0
  9 10  1  0
 10 11  1  0
 11 12  1  6
 12 13  2  0
 12 14  1  0
 14 15  1  0
 15 21  1  0
 15 16  1  6
 17 16  1  0
 18 19  1  0
 18 17  1  0
 20 19  1  0
 21 23  2  0
 21 22  1  0
M  END
$$$$
