SPK.pdb
     RDKit          3D

 23 23  0  0  1  0  0  0  0  0999 V2000
-2293.936543431.2852 3728.1990 O   0  0  0  0  0  0  0  0  0  0  0  0
-2293.224643432.2344 3728.8762 C   0  0  0  0  0  0  0  0  0  0  0  0
-2293.449743432.2383 3730.3826 C   0  0  2  0  0  0  0  0  0  0  0  0
-2292.602843431.1289 3730.8879 N   0  0  0  0  0  0  0  0  0  0  0  0
-2294.854543431.9219 3730.7188 C   0  0  0  0  0  0  0  0  0  0  0  0
-2295.049343430.9023 3731.4243 O   0  0  0  0  0  0  0  0  0  0  0  0
-2295.982943432.6602 3730.3206 N   0  0  0  0  0  0  0  0  0  0  0  0
-2296.038143433.5117 3729.1411 C   0  0  0  0  0  0  0  0  0  0  0  0
-2296.763943434.7344 3729.6687 C   0  0  0  0  0  0  0  0  0  0  0  0
-2297.666343434.2109 3730.7429 C   0  0  0  0  0  0  0  0  0  0  0  0
-2297.285443432.7695 3730.9219 C   0  0  1  0  0  0  0  0  0  0  0  0
-2298.286143431.8867 3730.2366 C   0  0  0  0  0  0  0  0  0  0  0  0
-2298.599943432.1758 3729.0623 O   0  0  0  0  0  0  0  0  0  0  0  0
-2298.869443430.7500 3730.8328 N   0  0  0  0  0  0  0  0  0  0  0  0
-2298.716843429.4023 3730.2771 C   0  0  1  0  0  0  0  0  0  0  0  0
-2298.762943429.5469 3728.7612 C   0  0  0  0  0  0  0  0  0  0  0  0
-2298.776943428.2461 3728.0349 C   0  0  0  0  0  0  0  0  0  0  0  0
-2300.028343427.4336 3728.2915 C   0  0  0  0  0  0  0  0  0  0  0  0
-2299.715143426.4805 3729.4580 C   0  0  0  0  0  0  0  0  0  0  0  0
-2300.651643425.3750 3729.3481 N   0  0  0  0  0  0  0  0  0  0  0  0
-2297.458743428.7852 3730.7517 C   0  0  0  0  0  0  0  0  0  0  0  0
-2297.465343427.8047 3731.7327 O   0  0  0  0  0  0  0  0  0  0  0  0
-2296.359143429.1523 3730.2722 O   0  0  0  0  0  0  0  0  0  0  0  0
  1  2  1  0
  2  3  1  0
  3  5  1  0
  3  4  1  1
  5  6  2  0
  7 11  1  0
  7  5  1  0
  8  7  1  0
  9  8  1  0
  9 10  1  0
 10 11  1  0
 11 12  1  6
 12 13  2  0
 12 14  1  0
 14 15  1  0
 15 21  1  0
 15 16  1  6
 17 16  1  0
 18 19  1  0
 18 17  1  0
 20 19  1  0
 21 23  2  0
 21 22  1  0
M  END
$$$$
