SPK.pdb
     RDKit          3D

 23 23  0  0  1  0  0  0  0  0999 V2000
   25.0490  -14.6875  -19.8153 O   0  0  0  0  0  0  0  0  0  0  0  0
   24.7425  -13.8061  -18.8000 C   0  0  0  0  0  0  0  0  0  0  0  0
   25.6705  -13.9069  -17.5914 C   0  0  2  0  0  0  0  0  0  0  0  0
   25.4820  -15.2857  -17.0932 N   0  0  0  0  0  0  0  0  0  0  0  0
   25.2588  -12.9748  -16.5206 C   0  0  0  0  0  0  0  0  0  0  0  0
   24.4561  -13.4333  -15.6460 O   0  0  0  0  0  0  0  0  0  0  0  0
   25.6732  -11.6393  -16.3832 N   0  0  0  0  0  0  0  0  0  0  0  0
   26.6046  -10.9703  -17.2781 C   0  0  0  0  0  0  0  0  0  0  0  0
   27.4844  -10.2185  -16.3084 C   0  0  0  0  0  0  0  0  0  0  0  0
   26.6064   -9.9009  -15.1425 C   0  0  0  0  0  0  0  0  0  0  0  0
   25.3315  -10.6460  -15.3971 C   0  0  1  0  0  0  0  0  0  0  0  0
   24.2647   -9.7114  -15.9147 C   0  0  0  0  0  0  0  0  0  0  0  0
   24.2684   -9.4868  -17.1518 O   0  0  0  0  0  0  0  0  0  0  0  0
   23.2975   -9.0959  -15.1147 N   0  0  0  0  0  0  0  0  0  0  0  0
   22.0154   -8.6049  -15.6546 C   0  0  1  0  0  0  0  0  0  0  0  0
   21.0501   -9.7825  -15.6289 C   0  0  0  0  0  0  0  0  0  0  0  0
   19.7035   -9.4723  -16.1834 C   0  0  0  0  0  0  0  0  0  0  0  0
   18.7866  -10.6739  -16.2167 C   0  0  0  0  0  0  0  0  0  0  0  0
   17.5229  -10.2353  -16.9559 C   0  0  0  0  0  0  0  0  0  0  0  0
   16.6310  -11.3890  -16.9580 N   0  0  0  0  0  0  0  0  0  0  0  0
   21.5298   -7.4565  -14.8598 C   0  0  0  0  0  0  0  0  0  0  0  0
   20.8061   -6.4348  -15.4473 O   0  0  0  0  0  0  0  0  0  0  0  0
   21.7677   -7.3905  -13.6361 O   0  0  0  0  0  0  0  0  0  0  0  0
  1  2  1  0
  2  3  1  0
  3  5  1  0
  3  4  1  1
  5  6  2  0
  7 11  1  0
  7  5  1  0
  8  7  1  0
  9  8  1  0
  9 10  1  0
 10 11  1  0
 11 12  1  6
 12 13  2  0
 12 14  1  0
 14 15  1  0
 15 21  1  0
 15 16  1  1
 17 16  1  0
 18 19  1  0
 18 17  1  0
 20 19  1  0
 21 23  2  0
 21 22  1  0
M  END
$$$$
