SPK.pdb
     RDKit          3D

 23 23  0  0  1  0  0  0  0  0999 V2000
   28.1523  -18.8683  -15.7541 O   0  0  0  0  0  0  0  0  0  0  0  0
   27.1760  -19.8133  -15.5188 C   0  0  0  0  0  0  0  0  0  0  0  0
   27.5903  -20.8974  -14.5263 C   0  0  2  0  0  0  0  0  0  0  0  0
   28.2762  -21.9136  -15.3519 N   0  0  0  0  0  0  0  0  0  0  0  0
   26.4098  -21.5351  -13.9058 C   0  0  0  0  0  0  0  0  0  0  0  0
   26.0065  -22.6200  -14.4347 O   0  0  0  0  0  0  0  0  0  0  0  0
   25.7009  -21.0542  -12.7920 N   0  0  0  0  0  0  0  0  0  0  0  0
   26.0377  -19.8415  -12.0628 C   0  0  0  0  0  0  0  0  0  0  0  0
   25.8728  -20.2833  -10.6285 C   0  0  0  0  0  0  0  0  0  0  0  0
   24.8072  -21.3297  -10.6571 C   0  0  0  0  0  0  0  0  0  0  0  0
   24.5483  -21.5860  -12.1106 C   0  0  1  0  0  0  0  0  0  0  0  0
   23.2849  -20.8893  -12.5556 C   0  0  0  0  0  0  0  0  0  0  0  0
   23.3700  -19.6520  -12.7618 O   0  0  0  0  0  0  0  0  0  0  0  0
   22.0556  -21.5274  -12.7454 N   0  0  0  0  0  0  0  0  0  0  0  0
   20.9061  -20.8620  -13.3872 C   0  0  1  0  0  0  0  0  0  0  0  0
   20.2869  -21.8781  -14.3376 C   0  0  0  0  0  0  0  0  0  0  0  0
   21.1854  -22.2900  -15.4512 C   0  0  0  0  0  0  0  0  0  0  0  0
   20.5166  -23.2206  -16.4373 C   0  0  0  0  0  0  0  0  0  0  0  0
   21.5220  -23.4539  -17.5644 C   0  0  0  0  0  0  0  0  0  0  0  0
   20.9059  -24.4202  -18.4663 N   0  0  0  0  0  0  0  0  0  0  0  0
   19.9504  -20.3875  -12.3636 C   0  0  0  0  0  0  0  0  0  0  0  0
   18.9505  -19.4863  -12.6814 O   0  0  0  0  0  0  0  0  0  0  0  0
   20.0318  -20.7962  -11.1868 O   0  0  0  0  0  0  0  0  0  0  0  0
  1  2  1  0
  2  3  1  0
  3  5  1  0
  3  4  1  6
  5  6  2  0
  7 11  1  0
  7  5  1  0
  8  7  1  0
  9  8  1  0
  9 10  1  0
 10 11  1  0
 11 12  1  6
 12 13  2  0
 12 14  1  0
 14 15  1  0
 15 21  1  0
 15 16  1  6
 17 16  1  0
 18 19  1  0
 18 17  1  0
 20 19  1  0
 21 23  2  0
 21 22  1  0
M  END
$$$$
