SPK.pdb
     RDKit          3D

 23 23  0  0  1  0  0  0  0  0999 V2000
   18.1074   -9.0030  -17.7168 O   0  0  0  0  0  0  0  0  0  0  0  0
   18.1715   -8.9538  -16.3403 C   0  0  0  0  0  0  0  0  0  0  0  0
   19.5469   -9.2963  -15.7719 C   0  0  2  0  0  0  0  0  0  0  0  0
   19.7005  -10.7452  -16.0205 N   0  0  0  0  0  0  0  0  0  0  0  0
   19.5928   -9.0768  -14.3109 C   0  0  0  0  0  0  0  0  0  0  0  0
   19.2811  -10.0689  -13.5773 O   0  0  0  0  0  0  0  0  0  0  0  0
   19.9487   -7.8803  -13.6659 N   0  0  0  0  0  0  0  0  0  0  0  0
   20.2882   -6.6442  -14.3532 C   0  0  0  0  0  0  0  0  0  0  0  0
   21.4869   -6.1689  -13.5678 C   0  0  0  0  0  0  0  0  0  0  0  0
   21.2725   -6.6705  -12.1772 C   0  0  0  0  0  0  0  0  0  0  0  0
   20.0776   -7.5705  -12.2648 C   0  0  1  0  0  0  0  0  0  0  0  0
   18.8451   -6.8679  -11.7483 C   0  0  0  0  0  0  0  0  0  0  0  0
   18.3205   -6.0202  -12.5145 O   0  0  0  0  0  0  0  0  0  0  0  0
   18.2692   -7.1008  -10.4958 N   0  0  0  0  0  0  0  0  0  0  0  0
   16.8993   -6.6697  -10.1590 C   0  0  1  0  0  0  0  0  0  0  0  0
   16.1045   -7.9332   -9.8575 C   0  0  0  0  0  0  0  0  0  0  0  0
   14.6951   -7.6782   -9.4506 C   0  0  0  0  0  0  0  0  0  0  0  0
   13.9076   -8.9477   -9.2186 C   0  0  0  0  0  0  0  0  0  0  0  0
   12.5151   -8.5169   -8.7593 C   0  0  0  0  0  0  0  0  0  0  0  0
   11.7438   -9.7431   -8.5922 N   0  0  0  0  0  0  0  0  0  0  0  0
   16.9229   -5.7292   -9.0183 C   0  0  0  0  0  0  0  0  0  0  0  0
   16.0152   -4.6895   -8.9292 O   0  0  0  0  0  0  0  0  0  0  0  0
   17.7697   -5.8600   -8.1103 O   0  0  0  0  0  0  0  0  0  0  0  0
  1  2  1  0
  2  3  1  0
  3  5  1  0
  3  4  1  1
  5  6  2  0
  7 11  1  0
  7  5  1  0
  8  7  1  0
  9  8  1  0
  9 10  1  0
 10 11  1  0
 11 12  1  6
 12 13  2  0
 12 14  1  0
 14 15  1  0
 15 21  1  0
 15 16  1  1
 17 16  1  0
 18 19  1  0
 18 17  1  0
 20 19  1  0
 21 23  2  0
 21 22  1  0
M  END
$$$$
