SPK.pdb
     RDKit          3D

 23 23  0  0  1  0  0  0  0  0999 V2000
   28.1933  -18.8883  -16.2631 O   0  0  0  0  0  0  0  0  0  0  0  0
   27.2723  -19.9007  -16.0949 C   0  0  0  0  0  0  0  0  0  0  0  0
   27.7351  -21.0082  -15.1507 C   0  0  2  0  0  0  0  0  0  0  0  0
   28.3840  -22.0007  -16.0331 N   0  0  0  0  0  0  0  0  0  0  0  0
   26.5865  -21.6655  -14.4921 C   0  0  0  0  0  0  0  0  0  0  0  0
   26.1266  -22.7076  -15.0594 O   0  0  0  0  0  0  0  0  0  0  0  0
   25.9642  -21.2459  -13.3043 N   0  0  0  0  0  0  0  0  0  0  0  0
   26.3139  -20.0374  -12.5743 C   0  0  0  0  0  0  0  0  0  0  0  0
   26.3032  -20.5218  -11.1443 C   0  0  0  0  0  0  0  0  0  0  0  0
   25.2867  -21.6156  -11.1051 C   0  0  0  0  0  0  0  0  0  0  0  0
   24.9047  -21.8475  -12.5353 C   0  0  1  0  0  0  0  0  0  0  0  0
   23.5759  -21.1994  -12.8416 C   0  0  0  0  0  0  0  0  0  0  0  0
   23.5812  -19.9503  -12.9845 O   0  0  0  0  0  0  0  0  0  0  0  0
   22.3693  -21.8936  -12.9709 N   0  0  0  0  0  0  0  0  0  0  0  0
   21.1643  -21.2875  -13.5683 C   0  0  1  0  0  0  0  0  0  0  0  0
   20.3586  -22.4263  -14.1791 C   0  0  0  0  0  0  0  0  0  0  0  0
   19.1116  -21.9855  -14.8629 C   0  0  0  0  0  0  0  0  0  0  0  0
   18.2782  -23.1386  -15.3742 C   0  0  0  0  0  0  0  0  0  0  0  0
   17.1035  -22.5223  -16.1331 C   0  0  0  0  0  0  0  0  0  0  0  0
   16.3208  -23.6392  -16.6490 N   0  0  0  0  0  0  0  0  0  0  0  0
   20.4035  -20.5407  -12.5438 C   0  0  0  0  0  0  0  0  0  0  0  0
   19.7095  -19.3887  -12.8663 O   0  0  0  0  0  0  0  0  0  0  0  0
   20.3757  -20.9416  -11.3617 O   0  0  0  0  0  0  0  0  0  0  0  0
  1  2  1  0
  2  3  1  0
  3  5  1  0
  3  4  1  6
  5  6  2  0
  7 11  1  0
  7  5  1  0
  8  7  1  0
  9  8  1  0
  9 10  1  0
 10 11  1  0
 11 12  1  6
 12 13  2  0
 12 14  1  0
 14 15  1  0
 15 21  1  0
 15 16  1  1
 17 16  1  0
 18 19  1  0
 18 17  1  0
 20 19  1  0
 21 23  2  0
 21 22  1  0
M  END
$$$$
