MDV.pdb
     RDKit          3D

 24 23  0  0  1  0  0  0  0  0999 V2000
    7.2728  -11.2428   25.3454 C   0  0  0  0  0  0  0  0  0  0  0  0
    6.0323  -12.5435   25.2832 S   0  0  0  0  0  0  0  0  0  0  0  0
    6.5299  -14.0190   24.4351 C   0  0  0  0  0  0  0  0  0  0  0  0
    7.2363  -13.9031   23.1452 C   0  0  0  0  0  0  0  0  0  0  0  0
    7.5556  -15.1540   22.3948 C   0  0  2  0  0  0  0  0  0  0  0  0
    6.3540  -15.9909   22.3845 N   0  0  0  0  0  0  0  0  0  0  0  0
    8.5920  -15.8985   23.2084 C   0  0  0  0  0  0  0  0  0  0  0  0
    8.2295  -16.6373   24.1596 O   0  0  0  0  0  0  0  0  0  0  0  0
    9.9506  -15.7915   22.9331 N   0  0  0  0  0  0  0  0  0  0  0  0
   10.9314  -16.6495   23.6178 C   0  0  1  0  0  0  0  0  0  0  0  0
   12.1539  -16.6052   22.7416 C   0  0  0  0  0  0  0  0  0  0  0  0
   12.0493  -17.2731   21.4527 C   0  0  0  0  0  0  0  0  0  0  0  0
   12.4623  -16.8172   20.3802 O   0  0  0  0  0  0  0  0  0  0  0  0
   11.2960  -15.9876   24.9326 C   0  0  0  0  0  0  0  0  0  0  0  0
   11.9531  -14.9193   24.9218 O   0  0  0  0  0  0  0  0  0  0  0  0
   11.4323  -18.5262   21.4395 O   0  0  0  0  0  0  0  0  0  0  0  0
    8.9127  -15.1876   27.8600 C   0  0  0  0  0  0  0  0  0  0  0  0
   10.3976  -14.7594   27.8233 C   0  0  1  0  0  0  0  0  0  0  0  0
   10.6929  -14.2900   29.2384 C   0  0  0  0  0  0  0  0  0  0  0  0
   11.1594  -16.0246   27.4782 C   0  0  2  0  0  0  0  0  0  0  0  0
   10.9180  -16.5389   26.1622 N   0  0  0  0  0  0  0  0  0  0  0  0
   10.9099  -17.0304   28.5049 C   0  0  0  0  0  0  0  0  0  0  0  0
   11.4614  -16.9710   29.7586 O   0  0  0  0  0  0  0  0  0  0  0  0
   10.1511  -18.0389   28.2868 O   0  0  0  0  0  0  0  0  0  0  0  0
  2  1  1  0
  3  2  1  0
  4  3  1  0
  5  4  1  0
  5  7  1  0
  5  6  1  1
  7  8  2  0
  9 10  1  0
  9  7  1  0
 10 14  1  0
 10 11  1  6
 12 11  1  0
 13 12  2  0
 14 15  2  0
 16 12  1  0
 18 17  1  1
 18 19  1  0
 18 20  1  0
 20 22  1  0
 20 21  1  6
 21 14  1  0
 22 24  2  0
 22 23  1  0
M  END
$$$$
