MDV.pdb
     RDKit          3D

 24 23  0  0  1  0  0  0  0  0999 V2000
    8.1167  -12.0780   26.5796 C   0  0  0  0  0  0  0  0  0  0  0  0
    6.6212  -12.7664   25.8556 S   0  0  0  0  0  0  0  0  0  0  0  0
    6.8834  -14.0669   24.6792 C   0  0  0  0  0  0  0  0  0  0  0  0
    7.4249  -13.7335   23.3480 C   0  0  0  0  0  0  0  0  0  0  0  0
    7.6068  -14.8367   22.3582 C   0  0  2  0  0  0  0  0  0  0  0  0
    6.3302  -15.5431   22.2331 N   0  0  0  0  0  0  0  0  0  0  0  0
    8.5831  -15.8170   22.9717 C   0  0  0  0  0  0  0  0  0  0  0  0
    8.1567  -16.7694   23.6739 O   0  0  0  0  0  0  0  0  0  0  0  0
    9.9549  -15.6975   22.7798 N   0  0  0  0  0  0  0  0  0  0  0  0
   10.8972  -16.5854   23.4801 C   0  0  1  0  0  0  0  0  0  0  0  0
   12.1301  -16.5892   22.6175 C   0  0  0  0  0  0  0  0  0  0  0  0
   12.2736  -17.7105   21.7009 C   0  0  0  0  0  0  0  0  0  0  0  0
   11.8471  -18.8533   21.9033 O   0  0  0  0  0  0  0  0  0  0  0  0
   11.2703  -15.9292   24.7953 C   0  0  0  0  0  0  0  0  0  0  0  0
   11.9155  -14.8536   24.7847 O   0  0  0  0  0  0  0  0  0  0  0  0
   12.9476  -17.4639   20.5026 O   0  0  0  0  0  0  0  0  0  0  0  0
    8.7096  -15.2127   27.5026 C   0  0  0  0  0  0  0  0  0  0  0  0
   10.1642  -14.6939   27.5732 C   0  0  1  0  0  0  0  0  0  0  0  0
   10.3116  -14.1678   28.9915 C   0  0  0  0  0  0  0  0  0  0  0  0
   11.0264  -15.9181   27.3331 C   0  0  2  0  0  0  0  0  0  0  0  0
   10.9133  -16.4937   26.0252 N   0  0  0  0  0  0  0  0  0  0  0  0
   10.7667  -16.9009   28.3795 C   0  0  0  0  0  0  0  0  0  0  0  0
   11.2183  -16.7593   29.6661 O   0  0  0  0  0  0  0  0  0  0  0  0
   10.0932  -17.9656   28.1488 O   0  0  0  0  0  0  0  0  0  0  0  0
  2  1  1  0
  3  2  1  0
  4  3  1  0
  5  4  1  0
  5  7  1  0
  5  6  1  1
  7  8  2  0
  9 10  1  0
  9  7  1  0
 10 14  1  0
 10 11  1  6
 12 11  1  0
 13 12  2  0
 14 15  2  0
 16 12  1  0
 18 17  1  1
 18 19  1  0
 18 20  1  0
 20 22  1  0
 20 21  1  6
 21 14  1  0
 22 24  2  0
 22 23  1  0
M  END
$$$$
