MDV.pdb
     RDKit          3D

 24 23  0  0  1  0  0  0  0  0999 V2000
    8.2381  -11.8774   19.1716 C   0  0  0  0  0  0  0  0  0  0  0  0
    7.7394  -13.4125   18.3784 S   0  0  0  0  0  0  0  0  0  0  0  0
    6.6234  -14.4189   19.3196 C   0  0  0  0  0  0  0  0  0  0  0  0
    7.1308  -15.1444   20.4996 C   0  0  0  0  0  0  0  0  0  0  0  0
    7.7260  -14.3539   21.6180 C   0  0  2  0  0  0  0  0  0  0  0  0
    8.9676  -13.7499   21.1303 N   0  0  0  0  0  0  0  0  0  0  0  0
    8.1218  -15.3453   22.6908 C   0  0  0  0  0  0  0  0  0  0  0  0
    7.2417  -15.8449   23.4376 O   0  0  0  0  0  0  0  0  0  0  0  0
    9.4453  -15.7277   22.8787 N   0  0  0  0  0  0  0  0  0  0  0  0
    9.8329  -16.5792   24.0151 C   0  0  1  0  0  0  0  0  0  0  0  0
   11.0361  -17.3404   23.5281 C   0  0  0  0  0  0  0  0  0  0  0  0
   10.8064  -18.2899   22.4492 C   0  0  0  0  0  0  0  0  0  0  0  0
    9.9624  -19.1934   22.4651 O   0  0  0  0  0  0  0  0  0  0  0  0
   10.2976  -15.6756   25.1409 C   0  0  0  0  0  0  0  0  0  0  0  0
   11.3984  -15.0831   25.0393 O   0  0  0  0  0  0  0  0  0  0  0  0
   11.6082  -18.1601   21.3129 O   0  0  0  0  0  0  0  0  0  0  0  0
    9.3325  -12.5746   26.4307 C   0  0  0  0  0  0  0  0  0  0  0  0
    9.0106  -13.4642   27.6533 C   0  0  1  0  0  0  0  0  0  0  0  0
    7.5244  -13.7573   27.5292 C   0  0  0  0  0  0  0  0  0  0  0  0
    9.8499  -14.7123   27.4586 C   0  0  2  0  0  0  0  0  0  0  0  0
    9.5287  -15.4847   26.2946 N   0  0  0  0  0  0  0  0  0  0  0  0
    9.7991  -15.5193   28.6728 C   0  0  0  0  0  0  0  0  0  0  0  0
   10.2969  -15.0907   29.8760 O   0  0  0  0  0  0  0  0  0  0  0  0
    9.2793  -16.6899   28.6799 O   0  0  0  0  0  0  0  0  0  0  0  0
  2  1  1  0
  3  2  1  0
  4  3  1  0
  5  4  1  0
  5  7  1  0
  5  6  1  6
  7  8  2  0
  9 10  1  0
  9  7  1  0
 10 14  1  0
 10 11  1  6
 12 11  1  0
 13 12  2  0
 14 15  2  0
 16 12  1  0
 18 17  1  6
 18 19  1  0
 18 20  1  0
 20 22  1  0
 20 21  1  6
 21 14  1  0
 22 24  2  0
 22 23  1  0
M  END
$$$$
