MDV.pdb
     RDKit          3D

 24 23  0  0  1  0  0  0  0  0999 V2000
    8.5868  -11.6778   20.0537 C   0  0  0  0  0  0  0  0  0  0  0  0
    7.7885  -12.6557   18.7727 S   0  0  0  0  0  0  0  0  0  0  0  0
    6.6593  -13.8898   19.3608 C   0  0  0  0  0  0  0  0  0  0  0  0
    6.8890  -14.5025   20.6831 C   0  0  0  0  0  0  0  0  0  0  0  0
    7.7244  -15.7379   20.7583 C   0  0  2  0  0  0  0  0  0  0  0  0
    6.9531  -16.8381   20.1762 N   0  0  0  0  0  0  0  0  0  0  0  0
    7.8945  -16.0610   22.2271 C   0  0  0  0  0  0  0  0  0  0  0  0
    6.9104  -15.9745   23.0056 O   0  0  0  0  0  0  0  0  0  0  0  0
    9.1203  -16.4573   22.7500 N   0  0  0  0  0  0  0  0  0  0  0  0
    9.2594  -16.8032   24.1740 C   0  0  1  0  0  0  0  0  0  0  0  0
   10.4986  -17.6541   24.2402 C   0  0  0  0  0  0  0  0  0  0  0  0
   10.8571  -18.1721   25.5522 C   0  0  0  0  0  0  0  0  0  0  0  0
   10.1865  -18.0278   26.5810 O   0  0  0  0  0  0  0  0  0  0  0  0
    9.5484  -15.5269   24.9403 C   0  0  0  0  0  0  0  0  0  0  0  0
   10.5335  -14.8229   24.6131 O   0  0  0  0  0  0  0  0  0  0  0  0
   12.0542  -18.8859   25.6434 O   0  0  0  0  0  0  0  0  0  0  0  0
    7.8474  -12.3958   25.3379 C   0  0  0  0  0  0  0  0  0  0  0  0
    7.7900  -12.9467   26.7811 C   0  0  1  0  0  0  0  0  0  0  0  0
    6.4216  -13.6002   26.8843 C   0  0  0  0  0  0  0  0  0  0  0  0
    8.9094  -13.9673   26.8532 C   0  0  2  0  0  0  0  0  0  0  0  0
    8.7429  -15.1122   26.0070 N   0  0  0  0  0  0  0  0  0  0  0  0
    9.1205  -14.3508   28.2448 C   0  0  0  0  0  0  0  0  0  0  0  0
    8.9875  -15.6395   28.6929 O   0  0  0  0  0  0  0  0  0  0  0  0
    9.4457  -13.4909   29.1366 O   0  0  0  0  0  0  0  0  0  0  0  0
  2  1  1  0
  3  2  1  0
  4  3  1  0
  5  4  1  0
  5  7  1  0
  5  6  1  6
  7  8  2  0
  9 10  1  0
  9  7  1  0
 10 14  1  0
 10 11  1  6
 12 11  1  0
 13 12  2  0
 14 15  2  0
 16 12  1  0
 18 17  1  6
 18 19  1  0
 18 20  1  0
 20 22  1  0
 20 21  1  6
 21 14  1  0
 22 24  2  0
 22 23  1  0
M  END
$$$$
