MDV.pdb
     RDKit          3D

 24 23  0  0  1  0  0  0  0  0999 V2000
    7.3841  -12.2263   25.5872 C   0  0  0  0  0  0  0  0  0  0  0  0
    7.7271  -13.4441   24.3089 S   0  0  0  0  0  0  0  0  0  0  0  0
    6.4709  -13.6082   23.0683 C   0  0  0  0  0  0  0  0  0  0  0  0
    6.6047  -14.6624   22.0450 C   0  0  0  0  0  0  0  0  0  0  0  0
    7.9609  -14.9426   21.4865 C   0  0  2  0  0  0  0  0  0  0  0  0
    7.7875  -15.6830   20.2352 N   0  0  0  0  0  0  0  0  0  0  0  0
    8.6449  -15.8850   22.4532 C   0  0  0  0  0  0  0  0  0  0  0  0
    8.0306  -16.8938   22.8853 O   0  0  0  0  0  0  0  0  0  0  0  0
    9.9492  -15.6688   22.8837 N   0  0  0  0  0  0  0  0  0  0  0  0
   10.6392  -16.6539   23.7323 C   0  0  1  0  0  0  0  0  0  0  0  0
   11.9091  -16.9728   22.9909 C   0  0  0  0  0  0  0  0  0  0  0  0
   11.7726  -17.8033   21.8036 C   0  0  0  0  0  0  0  0  0  0  0  0
   10.8856  -18.6456   21.6233 O   0  0  0  0  0  0  0  0  0  0  0  0
   11.0334  -15.9651   25.0245 C   0  0  0  0  0  0  0  0  0  0  0  0
   11.9752  -15.1368   25.0173 O   0  0  0  0  0  0  0  0  0  0  0  0
   12.7241  -17.6257   20.7964 O   0  0  0  0  0  0  0  0  0  0  0  0
   10.3867  -14.1919   29.3868 C   0  0  0  0  0  0  0  0  0  0  0  0
    9.7404  -14.6761   28.0686 C   0  0  1  0  0  0  0  0  0  0  0  0
    9.7220  -13.4437   27.1792 C   0  0  0  0  0  0  0  0  0  0  0  0
   10.6837  -15.7393   27.5398 C   0  0  2  0  0  0  0  0  0  0  0  0
   10.3726  -16.2300   26.2295 N   0  0  0  0  0  0  0  0  0  0  0  0
   10.7804  -16.8221   28.5127 C   0  0  0  0  0  0  0  0  0  0  0  0
   11.6926  -16.8277   29.5360 O   0  0  0  0  0  0  0  0  0  0  0  0
   10.0070  -17.8418   28.4618 O   0  0  0  0  0  0  0  0  0  0  0  0
  2  1  1  0
  3  2  1  0
  4  3  1  0
  5  4  1  0
  5  7  1  0
  5  6  1  6
  7  8  2  0
  9 10  1  0
  9  7  1  0
 10 14  1  0
 10 11  1  6
 12 11  1  0
 13 12  2  0
 14 15  2  0
 16 12  1  0
 18 17  1  1
 18 19  1  0
 18 20  1  0
 20 22  1  0
 20 21  1  6
 21 14  1  0
 22 24  2  0
 22 23  1  0
M  END
$$$$
