MDV.pdb
     RDKit          3D

 24 23  0  0  1  0  0  0  0  0999 V2000
    7.1277  -12.2816   25.8834 C   0  0  0  0  0  0  0  0  0  0  0  0
    7.3847  -12.7242   24.1593 S   0  0  0  0  0  0  0  0  0  0  0  0
    6.3078  -13.9883   23.5375 C   0  0  0  0  0  0  0  0  0  0  0  0
    6.4864  -14.4681   22.1540 C   0  0  0  0  0  0  0  0  0  0  0  0
    7.8735  -14.5682   21.6100 C   0  0  2  0  0  0  0  0  0  0  0  0
    7.7799  -15.0244   20.2218 N   0  0  0  0  0  0  0  0  0  0  0  0
    8.5658  -15.6717   22.3803 C   0  0  0  0  0  0  0  0  0  0  0  0
    8.0289  -16.8056   22.4694 O   0  0  0  0  0  0  0  0  0  0  0  0
    9.7940  -15.4696   22.9999 N   0  0  0  0  0  0  0  0  0  0  0  0
   10.4879  -16.5736   23.6828 C   0  0  1  0  0  0  0  0  0  0  0  0
   11.6614  -16.8923   22.7967 C   0  0  0  0  0  0  0  0  0  0  0  0
   12.5024  -18.0046   23.2137 C   0  0  0  0  0  0  0  0  0  0  0  0
   12.3260  -18.6874   24.2293 O   0  0  0  0  0  0  0  0  0  0  0  0
   11.0425  -16.0414   24.9900 C   0  0  0  0  0  0  0  0  0  0  0  0
   12.1356  -15.4263   24.9892 O   0  0  0  0  0  0  0  0  0  0  0  0
   13.5902  -18.3151   22.3944 O   0  0  0  0  0  0  0  0  0  0  0  0
   10.7334  -14.1636   29.3207 C   0  0  0  0  0  0  0  0  0  0  0  0
    9.9617  -14.6097   28.0575 C   0  0  1  0  0  0  0  0  0  0  0  0
   10.0193  -13.4054   27.1320 C   0  0  0  0  0  0  0  0  0  0  0  0
   10.7548  -15.7805   27.5098 C   0  0  2  0  0  0  0  0  0  0  0  0
   10.3654  -16.2191   26.2019 N   0  0  0  0  0  0  0  0  0  0  0  0
   10.7269  -16.8732   28.4760 C   0  0  0  0  0  0  0  0  0  0  0  0
   11.5631  -16.9328   29.5607 O   0  0  0  0  0  0  0  0  0  0  0  0
    9.9078  -17.8510   28.3606 O   0  0  0  0  0  0  0  0  0  0  0  0
  2  1  1  0
  3  2  1  0
  4  3  1  0
  5  4  1  0
  5  7  1  0
  5  6  1  6
  7  8  2  0
  9 10  1  0
  9  7  1  0
 10 14  1  0
 10 11  1  6
 12 11  1  0
 13 12  2  0
 14 15  2  0
 16 12  1  0
 18 17  1  1
 18 19  1  0
 18 20  1  0
 20 22  1  0
 20 21  1  6
 21 14  1  0
 22 24  2  0
 22 23  1  0
M  END
$$$$
