MDV.pdb
     RDKit          3D

 24 23  0  0  1  0  0  0  0  0999 V2000
    7.4070  -11.4080   19.7096 C   0  0  0  0  0  0  0  0  0  0  0  0
    7.3770  -12.5549   18.3245 S   0  0  0  0  0  0  0  0  0  0  0  0
    8.1240  -14.1324   18.6365 C   0  0  0  0  0  0  0  0  0  0  0  0
    8.3708  -14.5478   20.0304 C   0  0  0  0  0  0  0  0  0  0  0  0
    9.1309  -15.8102   20.2718 C   0  0  2  0  0  0  0  0  0  0  0  0
    8.5031  -16.8709   19.4812 N   0  0  0  0  0  0  0  0  0  0  0  0
    8.9210  -16.1750   21.7255 C   0  0  0  0  0  0  0  0  0  0  0  0
    7.7937  -16.0068   22.2572 O   0  0  0  0  0  0  0  0  0  0  0  0
    9.9485  -16.6986   22.5022 N   0  0  0  0  0  0  0  0  0  0  0  0
    9.7126  -17.0994   23.8988 C   0  0  1  0  0  0  0  0  0  0  0  0
   10.8542  -18.0224   24.2285 C   0  0  0  0  0  0  0  0  0  0  0  0
   10.9542  -19.2363   23.4318 C   0  0  0  0  0  0  0  0  0  0  0  0
   10.0269  -20.0264   23.2205 O   0  0  0  0  0  0  0  0  0  0  0  0
    9.8628  -15.8683   24.7715 C   0  0  0  0  0  0  0  0  0  0  0  0
   10.9010  -15.1708   24.6773 O   0  0  0  0  0  0  0  0  0  0  0  0
   12.1999  -19.5197   22.8671 O   0  0  0  0  0  0  0  0  0  0  0  0
    7.8994  -12.3959   27.5893 C   0  0  0  0  0  0  0  0  0  0  0  0
    7.5979  -13.5708   26.6309 C   0  0  1  0  0  0  0  0  0  0  0  0
    7.3108  -12.9067   25.2942 C   0  0  0  0  0  0  0  0  0  0  0  0
    8.8787  -14.3821   26.5943 C   0  0  2  0  0  0  0  0  0  0  0  0
    8.8710  -15.4884   25.6828 N   0  0  0  0  0  0  0  0  0  0  0  0
    9.2202  -14.8014   27.9491 C   0  0  0  0  0  0  0  0  0  0  0  0
    9.8231  -13.9713   28.8585 O   0  0  0  0  0  0  0  0  0  0  0  0
    8.9721  -15.9861   28.3682 O   0  0  0  0  0  0  0  0  0  0  0  0
  2  1  1  0
  3  2  1  0
  4  3  1  0
  5  4  1  0
  5  7  1  0
  5  6  1  6
  7  8  2  0
  9 10  1  0
  9  7  1  0
 10 14  1  0
 10 11  1  1
 12 11  1  0
 13 12  2  0
 14 15  2  0
 16 12  1  0
 18 17  1  1
 18 19  1  0
 18 20  1  0
 20 22  1  0
 20 21  1  6
 21 14  1  0
 22 24  2  0
 22 23  1  0
M  END
$$$$
