MDV.pdb
     RDKit          3D

 24 23  0  0  1  0  0  0  0  0999 V2000
    8.2357  -11.0632   18.7745 C   0  0  0  0  0  0  0  0  0  0  0  0
    7.9105  -12.1401   20.1778 S   0  0  0  0  0  0  0  0  0  0  0  0
    8.3857  -13.8336   19.9537 C   0  0  0  0  0  0  0  0  0  0  0  0
    8.2576  -14.7718   21.0850 C   0  0  0  0  0  0  0  0  0  0  0  0
    8.6705  -16.1921   20.8805 C   0  0  2  0  0  0  0  0  0  0  0  0
    7.5843  -16.8792   20.1789 N   0  0  0  0  0  0  0  0  0  0  0  0
    8.7626  -16.8219   22.2535 C   0  0  0  0  0  0  0  0  0  0  0  0
    7.7215  -17.2398   22.8223 O   0  0  0  0  0  0  0  0  0  0  0  0
    9.9783  -16.9565   22.9146 N   0  0  0  0  0  0  0  0  0  0  0  0
   10.0465  -17.5501   24.2599 C   0  0  1  0  0  0  0  0  0  0  0  0
   11.1253  -18.5944   24.1615 C   0  0  0  0  0  0  0  0  0  0  0  0
   12.3638  -18.1849   23.5161 C   0  0  0  0  0  0  0  0  0  0  0  0
   13.3267  -17.6642   24.0911 O   0  0  0  0  0  0  0  0  0  0  0  0
   10.5392  -16.4832   25.2185 C   0  0  0  0  0  0  0  0  0  0  0  0
   11.4218  -15.6765   24.8398 O   0  0  0  0  0  0  0  0  0  0  0  0
   12.4600  -18.4022   22.1397 O   0  0  0  0  0  0  0  0  0  0  0  0
    9.7763  -13.4980   28.9208 C   0  0  0  0  0  0  0  0  0  0  0  0
    9.1604  -14.6193   28.0530 C   0  0  1  0  0  0  0  0  0  0  0  0
    8.4194  -13.8821   26.9495 C   0  0  0  0  0  0  0  0  0  0  0  0
   10.3488  -15.3928   27.5152 C   0  0  2  0  0  0  0  0  0  0  0  0
   10.0341  -16.3745   26.5192 N   0  0  0  0  0  0  0  0  0  0  0  0
   11.0882  -15.9736   28.6306 C   0  0  0  0  0  0  0  0  0  0  0  0
   11.9539  -15.2508   29.4101 O   0  0  0  0  0  0  0  0  0  0  0  0
   10.9671  -17.2090   28.9461 O   0  0  0  0  0  0  0  0  0  0  0  0
  2  1  1  0
  3  2  1  0
  4  3  1  0
  5  4  1  0
  5  7  1  0
  5  6  1  6
  7  8  2  0
  9 10  1  0
  9  7  1  0
 10 14  1  0
 10 11  1  6
 12 11  1  0
 13 12  2  0
 14 15  2  0
 16 12  1  0
 18 17  1  1
 18 19  1  0
 18 20  1  0
 20 22  1  0
 20 21  1  6
 21 14  1  0
 22 24  2  0
 22 23  1  0
M  END
$$$$
