MDV.pdb
     RDKit          3D

 24 23  0  0  1  0  0  0  0  0999 V2000
    9.2466  -10.7543   19.2660 C   0  0  0  0  0  0  0  0  0  0  0  0
    7.9774  -12.0184   19.4265 S   0  0  0  0  0  0  0  0  0  0  0  0
    8.5810  -13.6817   19.5405 C   0  0  0  0  0  0  0  0  0  0  0  0
    7.6225  -14.7803   19.7659 C   0  0  0  0  0  0  0  0  0  0  0  0
    8.1523  -16.1705   19.8940 C   0  0  2  0  0  0  0  0  0  0  0  0
    7.2693  -17.0595   19.1361 N   0  0  0  0  0  0  0  0  0  0  0  0
    8.0093  -16.5598   21.3494 C   0  0  0  0  0  0  0  0  0  0  0  0
    7.1026  -17.3589   21.6980 O   0  0  0  0  0  0  0  0  0  0  0  0
    8.8607  -16.0566   22.3266 N   0  0  0  0  0  0  0  0  0  0  0  0
    8.7986  -16.5504   23.7119 C   0  0  1  0  0  0  0  0  0  0  0  0
    9.9278  -17.5396   23.8149 C   0  0  0  0  0  0  0  0  0  0  0  0
   10.1562  -18.1247   25.1277 C   0  0  0  0  0  0  0  0  0  0  0  0
    9.2984  -18.2493   26.0095 O   0  0  0  0  0  0  0  0  0  0  0  0
    9.1272  -15.3945   24.6368 C   0  0  0  0  0  0  0  0  0  0  0  0
   10.2216  -14.7954   24.5075 O   0  0  0  0  0  0  0  0  0  0  0  0
   11.4492  -18.5770   25.4009 O   0  0  0  0  0  0  0  0  0  0  0  0
    6.6703  -12.5578   25.4908 C   0  0  0  0  0  0  0  0  0  0  0  0
    7.1207  -13.1201   26.8585 C   0  0  1  0  0  0  0  0  0  0  0  0
    5.9859  -14.0368   27.2849 C   0  0  0  0  0  0  0  0  0  0  0  0
    8.3905  -13.8945   26.5622 C   0  0  2  0  0  0  0  0  0  0  0  0
    8.2393  -14.9769   25.6348 N   0  0  0  0  0  0  0  0  0  0  0  0
    8.9859  -14.3387   27.8177 C   0  0  0  0  0  0  0  0  0  0  0  0
    9.5370  -13.4761   28.7297 O   0  0  0  0  0  0  0  0  0  0  0  0
    9.0272  -15.5776   28.1402 O   0  0  0  0  0  0  0  0  0  0  0  0
  2  1  1  0
  3  2  1  0
  4  3  1  0
  5  4  1  0
  5  7  1  0
  5  6  1  6
  7  8  2  0
  9 10  1  0
  9  7  1  0
 10 14  1  0
 10 11  1  6
 12 11  1  0
 13 12  2  0
 14 15  2  0
 16 12  1  0
 18 17  1  6
 18 19  1  0
 18 20  1  0
 20 22  1  0
 20 21  1  6
 21 14  1  0
 22 24  2  0
 22 23  1  0
M  END
$$$$
