MDV.pdb
     RDKit          3D

 24 23  0  0  1  0  0  0  0  0999 V2000
    8.0760  -11.3261   20.3007 C   0  0  0  0  0  0  0  0  0  0  0  0
    7.7876  -12.2403   18.7790 S   0  0  0  0  0  0  0  0  0  0  0  0
    8.0576  -13.9894   18.8883 C   0  0  0  0  0  0  0  0  0  0  0  0
    8.2124  -14.6111   20.2172 C   0  0  0  0  0  0  0  0  0  0  0  0
    8.5266  -16.0692   20.2873 C   0  0  2  0  0  0  0  0  0  0  0  0
    7.4266  -16.7970   19.6515 N   0  0  0  0  0  0  0  0  0  0  0  0
    8.5056  -16.4503   21.7519 C   0  0  0  0  0  0  0  0  0  0  0  0
    7.4065  -16.6215   22.3389 O   0  0  0  0  0  0  0  0  0  0  0  0
    9.6786  -16.6209   22.4785 N   0  0  0  0  0  0  0  0  0  0  0  0
    9.6394  -16.9765   23.9064 C   0  0  1  0  0  0  0  0  0  0  0  0
   10.9282  -17.7135   24.1511 C   0  0  0  0  0  0  0  0  0  0  0  0
   11.0273  -19.0485   23.5801 C   0  0  0  0  0  0  0  0  0  0  0  0
   10.0684  -19.7887   23.3323 O   0  0  0  0  0  0  0  0  0  0  0  0
    9.6956  -15.6923   24.7109 C   0  0  0  0  0  0  0  0  0  0  0  0
   10.7049  -14.9533   24.6199 O   0  0  0  0  0  0  0  0  0  0  0  0
   12.3111  -19.5190   23.2943 O   0  0  0  0  0  0  0  0  0  0  0  0
    7.4480  -12.2261   27.3416 C   0  0  0  0  0  0  0  0  0  0  0  0
    7.2204  -13.4946   26.4879 C   0  0  1  0  0  0  0  0  0  0  0  0
    6.7847  -12.9664   25.1310 C   0  0  0  0  0  0  0  0  0  0  0  0
    8.5774  -14.1684   26.4219 C   0  0  2  0  0  0  0  0  0  0  0  0
    8.6480  -15.3084   25.5559 N   0  0  0  0  0  0  0  0  0  0  0  0
    9.0202  -14.4897   27.7742 C   0  0  0  0  0  0  0  0  0  0  0  0
    9.5789  -13.5640   28.6171 O   0  0  0  0  0  0  0  0  0  0  0  0
    8.9098  -15.6721   28.2540 O   0  0  0  0  0  0  0  0  0  0  0  0
  2  1  1  0
  3  2  1  0
  4  3  1  0
  5  4  1  0
  5  7  1  0
  5  6  1  6
  7  8  2  0
  9 10  1  0
  9  7  1  0
 10 14  1  0
 10 11  1  1
 12 11  1  0
 13 12  2  0
 14 15  2  0
 16 12  1  0
 18 17  1  1
 18 19  1  0
 18 20  1  0
 20 22  1  0
 20 21  1  6
 21 14  1  0
 22 24  2  0
 22 23  1  0
M  END
$$$$
