MDV.pdb
     RDKit          3D

 24 23  0  0  1  0  0  0  0  0999 V2000
    8.0635  -11.8850   20.3076 C   0  0  0  0  0  0  0  0  0  0  0  0
    6.8933  -12.9651   21.1435 S   0  0  0  0  0  0  0  0  0  0  0  0
    7.3805  -14.6668   21.2475 C   0  0  0  0  0  0  0  0  0  0  0  0
    8.6227  -15.1008   20.5807 C   0  0  0  0  0  0  0  0  0  0  0  0
    8.9389  -16.5598   20.5471 C   0  0  2  0  0  0  0  0  0  0  0  0
    7.7196  -17.2751   20.1653 N   0  0  0  0  0  0  0  0  0  0  0  0
    9.2521  -16.9713   21.9695 C   0  0  0  0  0  0  0  0  0  0  0  0
    8.3170  -17.2731   22.7547 O   0  0  0  0  0  0  0  0  0  0  0  0
   10.5585  -17.0287   22.4417 N   0  0  0  0  0  0  0  0  0  0  0  0
   10.8480  -17.4729   23.8149 C   0  0  1  0  0  0  0  0  0  0  0  0
   12.2497  -18.0165   23.7521 C   0  0  0  0  0  0  0  0  0  0  0  0
   12.4397  -19.2229   22.9605 C   0  0  0  0  0  0  0  0  0  0  0  0
   11.7194  -20.2266   23.0102 O   0  0  0  0  0  0  0  0  0  0  0  0
   10.8804  -16.2470   24.7071 C   0  0  0  0  0  0  0  0  0  0  0  0
   11.6533  -15.3007   24.4239 O   0  0  0  0  0  0  0  0  0  0  0  0
   13.5237  -19.2356   22.0797 O   0  0  0  0  0  0  0  0  0  0  0  0
    9.0901  -13.0595   27.7503 C   0  0  0  0  0  0  0  0  0  0  0  0
    8.7868  -14.2293   26.7864 C   0  0  1  0  0  0  0  0  0  0  0  0
    8.5908  -13.5657   25.4331 C   0  0  0  0  0  0  0  0  0  0  0  0
   10.0337  -15.0920   26.8164 C   0  0  2  0  0  0  0  0  0  0  0  0
   10.0686  -16.1431   25.8424 N   0  0  0  0  0  0  0  0  0  0  0  0
   10.2320  -15.6025   28.1685 C   0  0  0  0  0  0  0  0  0  0  0  0
   10.8003  -14.8603   29.1713 O   0  0  0  0  0  0  0  0  0  0  0  0
    9.8811  -16.7898   28.4963 O   0  0  0  0  0  0  0  0  0  0  0  0
  2  1  1  0
  3  2  1  0
  4  3  1  0
  5  4  1  0
  5  7  1  0
  5  6  1  1
  7  8  2  0
  9 10  1  0
  9  7  1  0
 10 14  1  0
 10 11  1  6
 12 11  1  0
 13 12  2  0
 14 15  2  0
 16 12  1  0
 18 17  1  1
 18 19  1  0
 18 20  1  0
 20 22  1  0
 20 21  1  6
 21 14  1  0
 22 24  2  0
 22 23  1  0
M  END
$$$$
