MDV.pdb
     RDKit          3D

 24 23  0  0  1  0  0  0  0  0999 V2000
   13.5985  -20.6761   33.2086 C   0  0  0  0  0  0  0  0  0  0  0  0
   14.2907  -22.2253   32.6123 S   0  0  0  0  0  0  0  0  0  0  0  0
   14.8163  -22.2131   30.9189 C   0  0  0  0  0  0  0  0  0  0  0  0
   14.5509  -21.0202   30.0925 C   0  0  0  0  0  0  0  0  0  0  0  0
   13.1314  -20.6258   29.8492 C   0  0  2  0  0  0  0  0  0  0  0  0
   12.4707  -21.7317   29.1530 N   0  0  0  0  0  0  0  0  0  0  0  0
   13.1613  -19.4635   28.8803 C   0  0  0  0  0  0  0  0  0  0  0  0
   13.8070  -18.4235   29.1693 O   0  0  0  0  0  0  0  0  0  0  0  0
   12.4898  -19.5100   27.6638 N   0  0  0  0  0  0  0  0  0  0  0  0
   12.3496  -18.3049   26.8302 C   0  0  1  0  0  0  0  0  0  0  0  0
   12.2788  -18.8234   25.4195 C   0  0  0  0  0  0  0  0  0  0  0  0
   11.9470  -17.8501   24.3895 C   0  0  0  0  0  0  0  0  0  0  0  0
   12.3105  -16.6683   24.3847 O   0  0  0  0  0  0  0  0  0  0  0  0
   11.0084  -17.6709   27.1445 C   0  0  0  0  0  0  0  0  0  0  0  0
    9.9825  -18.3913   27.1866 O   0  0  0  0  0  0  0  0  0  0  0  0
   11.1559  -18.2982   23.3291 O   0  0  0  0  0  0  0  0  0  0  0  0
   10.7321  -14.4903   29.5365 C   0  0  0  0  0  0  0  0  0  0  0  0
    9.8961  -14.1907   28.2712 C   0  0  1  0  0  0  0  0  0  0  0  0
   10.7847  -13.2851   27.4342 C   0  0  0  0  0  0  0  0  0  0  0  0
    9.6876  -15.5411   27.6133 C   0  0  2  0  0  0  0  0  0  0  0  0
   10.8838  -16.2986   27.3891 N   0  0  0  0  0  0  0  0  0  0  0  0
    8.9232  -15.3632   26.3836 C   0  0  0  0  0  0  0  0  0  0  0  0
    9.4333  -15.6360   25.1407 O   0  0  0  0  0  0  0  0  0  0  0  0
    7.7161  -14.9353   26.3992 O   0  0  0  0  0  0  0  0  0  0  0  0
  2  1  1  0
  3  2  1  0
  4  3  1  0
  5  4  1  0
  5  7  1  0
  5  6  1  6
  7  8  2  0
  9 10  1  0
  9  7  1  0
 10 14  1  0
 10 11  1  6
 12 11  1  0
 13 12  2  0
 14 15  2  0
 16 12  1  0
 18 17  1  1
 18 19  1  0
 18 20  1  0
 20 22  1  0
 20 21  1  6
 21 14  1  0
 22 24  2  0
 22 23  1  0
M  END
$$$$
