MDV.pdb
     RDKit          3D

 24 23  0  0  1  0  0  0  0  0999 V2000
    8.1960  -11.5730   19.5306 C   0  0  0  0  0  0  0  0  0  0  0  0
    7.6389  -13.1402   18.8464 S   0  0  0  0  0  0  0  0  0  0  0  0
    6.4423  -14.0071   19.8265 C   0  0  0  0  0  0  0  0  0  0  0  0
    6.9060  -14.8734   20.9269 C   0  0  0  0  0  0  0  0  0  0  0  0
    8.3626  -14.8866   21.2553 C   0  0  2  0  0  0  0  0  0  0  0  0
    9.0453  -15.6892   20.2385 N   0  0  0  0  0  0  0  0  0  0  0  0
    8.5084  -15.6339   22.5633 C   0  0  0  0  0  0  0  0  0  0  0  0
    7.7423  -15.3689   23.5250 O   0  0  0  0  0  0  0  0  0  0  0  0
    9.4746  -16.6184   22.7375 N   0  0  0  0  0  0  0  0  0  0  0  0
    9.5881  -17.3506   24.0094 C   0  0  1  0  0  0  0  0  0  0  0  0
   10.5691  -18.4559   23.7267 C   0  0  0  0  0  0  0  0  0  0  0  0
   10.9249  -19.3074   24.8521 C   0  0  0  0  0  0  0  0  0  0  0  0
   10.1800  -19.5799   25.8007 O   0  0  0  0  0  0  0  0  0  0  0  0
   10.2313  -16.4272   25.0260 C   0  0  0  0  0  0  0  0  0  0  0  0
   11.2669  -15.7930   24.7119 O   0  0  0  0  0  0  0  0  0  0  0  0
   12.2106  -19.8532   24.8490 O   0  0  0  0  0  0  0  0  0  0  0  0
    9.7714  -13.3979   28.7363 C   0  0  0  0  0  0  0  0  0  0  0  0
    9.0315  -14.4125   27.8348 C   0  0  1  0  0  0  0  0  0  0  0  0
    8.4492  -13.5694   26.7122 C   0  0  0  0  0  0  0  0  0  0  0  0
   10.1135  -15.3496   27.3336 C   0  0  2  0  0  0  0  0  0  0  0  0
    9.6991  -16.2635   26.3100 N   0  0  0  0  0  0  0  0  0  0  0  0
   10.7099  -16.0451   28.4688 C   0  0  0  0  0  0  0  0  0  0  0  0
   11.6261  -15.4614   29.3050 O   0  0  0  0  0  0  0  0  0  0  0  0
   10.4057  -17.2572   28.7491 O   0  0  0  0  0  0  0  0  0  0  0  0
  2  1  1  0
  3  2  1  0
  4  3  1  0
  5  4  1  0
  5  7  1  0
  5  6  1  6
  7  8  2  0
  9 10  1  0
  9  7  1  0
 10 14  1  0
 10 11  1  6
 12 11  1  0
 13 12  2  0
 14 15  2  0
 16 12  1  0
 18 17  1  1
 18 19  1  0
 18 20  1  0
 20 22  1  0
 20 21  1  6
 21 14  1  0
 22 24  2  0
 22 23  1  0
M  END
$$$$
