KLL.pdb
     RDKit          3D

 26 25  0  0  1  0  0  0  0  0999 V2000
   28.5200  -18.4956  -16.3822 N   0  0  0  0  0  0  0  0  0  0  0  0
   27.5335  -19.5121  -16.5889 C   0  0  1  0  0  0  0  0  0  0  0  0
   27.9367  -20.3121  -17.8129 C   0  0  0  0  0  0  0  0  0  0  0  0
   27.6449  -19.4383  -19.0153 C   0  0  0  0  0  0  0  0  0  0  0  0
   27.7319  -20.1725  -20.3115 C   0  0  0  0  0  0  0  0  0  0  0  0
   27.5061  -19.2354  -21.4840 C   0  0  0  0  0  0  0  0  0  0  0  0
   27.5560  -19.9335  -22.7443 N   0  0  0  0  0  0  0  0  0  0  0  0
   27.3511  -20.3763  -15.3916 C   0  0  0  0  0  0  0  0  0  0  0  0
   26.6444  -21.3915  -15.3723 O   0  0  0  0  0  0  0  0  0  0  0  0
   31.4001  -20.5118  -11.5958 C   0  0  0  0  0  0  0  0  0  0  0  0
   30.3113  -21.0363  -12.5297 C   0  0  1  0  0  0  0  0  0  0  0  0
   30.3522  -22.5616  -12.3773 C   0  0  0  0  0  0  0  0  0  0  0  0
   29.0083  -20.5277  -12.0191 C   0  0  0  0  0  0  0  0  0  0  0  0
   27.8621  -20.7470  -12.9795 C   0  0  2  0  0  0  0  0  0  0  0  0
   28.0319  -20.0049  -14.2086 N   0  0  0  0  0  0  0  0  0  0  0  0
   26.6345  -20.2506  -12.3115 C   0  0  0  0  0  0  0  0  0  0  0  0
   26.5224  -19.0036  -12.1216 O   0  0  0  0  0  0  0  0  0  0  0  0
   21.8135  -21.6117  -13.7980 C   0  0  0  0  0  0  0  0  0  0  0  0
   22.9351  -20.6352  -13.3070 C   0  0  1  0  0  0  0  0  0  0  0  0
   22.3427  -19.2680  -13.4535 C   0  0  0  0  0  0  0  0  0  0  0  0
   23.2468  -21.0893  -11.9374 C   0  0  0  0  0  0  0  0  0  0  0  0
   24.3895  -20.5196  -11.1912 C   0  0  2  0  0  0  0  0  0  0  0  0
   25.5912  -21.0791  -11.8778 N   0  0  0  0  0  0  0  0  0  0  0  0
   24.5329  -20.9077   -9.7936 C   0  0  0  0  0  0  0  0  0  0  0  0
   23.7689  -20.3199   -8.8070 O   0  0  0  0  0  0  0  0  0  0  0  0
   25.3488  -21.7816   -9.4432 O   0  0  0  0  0  0  0  0  0  0  0  0
  2  1  1  1
  3  2  1  0
  4  5  1  0
  4  3  1  0
  5  6  1  0
  6  7  1  0
  8  2  1  0
  8 15  1  0
  9  8  2  0
 11 10  1  1
 12 11  1  0
 14 13  1  1
 13 11  1  0
 14 15  1  0
 16 14  1  0
 17 16  2  0
 19 18  1  1
 20 19  1  0
 21 19  1  0
 22 21  1  6
 22 24  1  0
 22 23  1  0
 23 16  1  0
 24 25  1  0
 26 24  2  0
M  END
$$$$
