KLL.pdb
     RDKit          3D

 26 25  0  0  1  0  0  0  0  0999 V2000
   18.8963  -14.0871  -19.8027 N   0  0  0  0  0  0  0  0  0  0  0  0
   18.3095  -13.1364  -18.9076 C   0  0  1  0  0  0  0  0  0  0  0  0
   18.1848  -13.7925  -17.5458 C   0  0  0  0  0  0  0  0  0  0  0  0
   17.2468  -14.9694  -17.7176 C   0  0  0  0  0  0  0  0  0  0  0  0
   17.0236  -15.7334  -16.4554 C   0  0  0  0  0  0  0  0  0  0  0  0
   16.1032  -16.9171  -16.6913 C   0  0  0  0  0  0  0  0  0  0  0  0
   16.0904  -17.8176  -15.5656 N   0  0  0  0  0  0  0  0  0  0  0  0
   19.0799  -11.8650  -18.8471 C   0  0  0  0  0  0  0  0  0  0  0  0
   20.3134  -11.7997  -18.9159 O   0  0  0  0  0  0  0  0  0  0  0  0
   19.6499   -6.9021  -20.3781 C   0  0  0  0  0  0  0  0  0  0  0  0
   18.7033   -6.9262  -19.1797 C   0  0  1  0  0  0  0  0  0  0  0  0
   17.6407   -5.8640  -19.4860 C   0  0  0  0  0  0  0  0  0  0  0  0
   18.0600   -8.2688  -19.1514 C   0  0  0  0  0  0  0  0  0  0  0  0
   19.0020   -9.3754  -18.7362 C   0  0  2  0  0  0  0  0  0  0  0  0
   18.3472  -10.6639  -18.7020 N   0  0  0  0  0  0  0  0  0  0  0  0
   19.4635   -9.0604  -17.3623 C   0  0  0  0  0  0  0  0  0  0  0  0
   18.6520   -9.2367  -16.4063 O   0  0  0  0  0  0  0  0  0  0  0  0
   22.0474   -9.8770  -13.1048 C   0  0  0  0  0  0  0  0  0  0  0  0
   23.0508   -9.4062  -14.2113 C   0  0  1  0  0  0  0  0  0  0  0  0
   24.1793  -10.3880  -14.1468 C   0  0  0  0  0  0  0  0  0  0  0  0
   22.2498   -9.3836  -15.4511 C   0  0  0  0  0  0  0  0  0  0  0  0
   21.1833   -8.3779  -15.6466 C   0  0  2  0  0  0  0  0  0  0  0  0
   20.7439   -8.5793  -17.0590 N   0  0  0  0  0  0  0  0  0  0  0  0
   21.5671   -6.9743  -15.5624 C   0  0  0  0  0  0  0  0  0  0  0  0
   21.3767   -6.2498  -14.4043 O   0  0  0  0  0  0  0  0  0  0  0  0
   22.0790   -6.3824  -16.5319 O   0  0  0  0  0  0  0  0  0  0  0  0
  2  1  1  6
  3  2  1  0
  4  5  1  0
  4  3  1  0
  5  6  1  0
  6  7  1  0
  8  2  1  0
  8 15  1  0
  9  8  2  0
 11 10  1  6
 12 11  1  0
 14 13  1  1
 13 11  1  0
 14 15  1  0
 16 14  1  0
 17 16  2  0
 19 18  1  1
 20 19  1  0
 21 19  1  0
 22 21  1  6
 22 24  1  0
 22 23  1  0
 23 16  1  0
 24 25  1  0
 26 24  2  0
M  END
$$$$
