KLL.pdb
     RDKit          3D

 26 25  0  0  1  0  0  0  0  0999 V2000
   43.2690   -9.8110   -6.2525 N   0  0  0  0  0  0  0  0  0  0  0  0
   43.6795   -9.8716   -7.6225 C   0  0  1  0  0  0  0  0  0  0  0  0
   44.6464  -11.0311   -7.7694 C   0  0  0  0  0  0  0  0  0  0  0  0
   45.7841  -10.7694   -6.8043 C   0  0  0  0  0  0  0  0  0  0  0  0
   46.8531  -11.8092   -6.8587 C   0  0  0  0  0  0  0  0  0  0  0  0
   47.9175  -11.5510   -5.8079 C   0  0  0  0  0  0  0  0  0  0  0  0
   48.9443  -12.5627   -5.8265 N   0  0  0  0  0  0  0  0  0  0  0  0
   42.5257   -9.9845   -8.5551 C   0  0  0  0  0  0  0  0  0  0  0  0
   42.6236   -9.9263   -9.7869 O   0  0  0  0  0  0  0  0  0  0  0  0
   38.5217  -13.1977   -6.8300 C   0  0  0  0  0  0  0  0  0  0  0  0
   39.6323  -12.4865   -7.6005 C   0  0  1  0  0  0  0  0  0  0  0  0
   40.0062  -13.4424   -8.7397 C   0  0  0  0  0  0  0  0  0  0  0  0
   39.0457  -11.2445   -8.1756 C   0  0  0  0  0  0  0  0  0  0  0  0
   40.0718  -10.3394   -8.8176 C   0  0  2  0  0  0  0  0  0  0  0  0
   41.2433  -10.1693   -7.9877 N   0  0  0  0  0  0  0  0  0  0  0  0
   39.4342   -9.0110   -8.9866 C   0  0  0  0  0  0  0  0  0  0  0  0
   38.5156   -8.8968   -9.8508 O   0  0  0  0  0  0  0  0  0  0  0  0
   36.8389   -5.4320   -5.6546 C   0  0  0  0  0  0  0  0  0  0  0  0
   37.1107   -5.7079   -7.1720 C   0  0  1  0  0  0  0  0  0  0  0  0
   36.8382   -4.4026   -7.8528 C   0  0  0  0  0  0  0  0  0  0  0  0
   38.4980   -6.2108   -7.2135 C   0  0  0  0  0  0  0  0  0  0  0  0
   39.1427   -6.5523   -8.4999 C   0  0  2  0  0  0  0  0  0  0  0  0
   39.7875   -7.8747   -8.2471 N   0  0  0  0  0  0  0  0  0  0  0  0
   40.2199   -5.6833   -8.9569 C   0  0  0  0  0  0  0  0  0  0  0  0
   39.9563   -4.5375   -9.6781 O   0  0  0  0  0  0  0  0  0  0  0  0
   41.4131   -5.9454   -8.7123 O   0  0  0  0  0  0  0  0  0  0  0  0
  2  1  1  1
  3  2  1  0
  4  5  1  0
  4  3  1  0
  5  6  1  0
  6  7  1  0
  8  2  1  0
  8 15  1  0
  9  8  2  0
 11 10  1  1
 12 11  1  0
 14 13  1  1
 13 11  1  0
 14 15  1  0
 16 14  1  0
 17 16  2  0
 19 18  1  1
 20 19  1  0
 21 19  1  0
 22 21  1  1
 22 24  1  0
 22 23  1  0
 23 16  1  0
 24 25  1  0
 26 24  2  0
M  END
$$$$
