KLL.pdb
     RDKit          3D

 26 25  0  0  1  0  0  0  0  0999 V2000
   25.9665  -23.5189  -17.7765 N   0  0  0  0  0  0  0  0  0  0  0  0
   25.9300  -23.8877  -16.3938 C   0  0  1  0  0  0  0  0  0  0  0  0
   27.2091  -24.6389  -16.0769 C   0  0  0  0  0  0  0  0  0  0  0  0
   27.2596  -25.8227  -17.0205 C   0  0  0  0  0  0  0  0  0  0  0  0
   27.1095  -27.1353  -16.3267 C   0  0  0  0  0  0  0  0  0  0  0  0
   27.1263  -28.2817  -17.3214 C   0  0  0  0  0  0  0  0  0  0  0  0
   27.0642  -29.5626  -16.6627 N   0  0  0  0  0  0  0  0  0  0  0  0
   25.7347  -22.7145  -15.4998 C   0  0  0  0  0  0  0  0  0  0  0  0
   25.6784  -22.7868  -14.2661 O   0  0  0  0  0  0  0  0  0  0  0  0
   28.0082  -18.2070  -17.3108 C   0  0  0  0  0  0  0  0  0  0  0  0
   27.4521  -19.4639  -16.6446 C   0  0  1  0  0  0  0  0  0  0  0  0
   28.5129  -19.8766  -15.6171 C   0  0  0  0  0  0  0  0  0  0  0  0
   26.2055  -19.0712  -15.9310 C   0  0  0  0  0  0  0  0  0  0  0  0
   25.4732  -20.2418  -15.3166 C   0  0  2  0  0  0  0  0  0  0  0  0
   25.6068  -21.4440  -16.1082 N   0  0  0  0  0  0  0  0  0  0  0  0
   24.0355  -19.8803  -15.2729 C   0  0  0  0  0  0  0  0  0  0  0  0
   23.6806  -18.9410  -14.5011 O   0  0  0  0  0  0  0  0  0  0  0  0
   19.4390  -20.4743  -19.0359 C   0  0  0  0  0  0  0  0  0  0  0  0
   19.6327  -20.0489  -17.5411 C   0  0  1  0  0  0  0  0  0  0  0  0
   18.6090  -20.8363  -16.7838 C   0  0  0  0  0  0  0  0  0  0  0  0
   21.0513  -20.3402  -17.2549 C   0  0  0  0  0  0  0  0  0  0  0  0
   21.6055  -20.1502  -15.8970 C   0  0  2  0  0  0  0  0  0  0  0  0
   23.0462  -20.5161  -16.0345 N   0  0  0  0  0  0  0  0  0  0  0  0
   21.0914  -21.0130  -14.8407 C   0  0  0  0  0  0  0  0  0  0  0  0
   21.5380  -22.3102  -14.6971 O   0  0  0  0  0  0  0  0  0  0  0  0
   20.2328  -20.6092  -14.0333 O   0  0  0  0  0  0  0  0  0  0  0  0
  2  1  1  6
  3  2  1  0
  4  5  1  0
  4  3  1  0
  5  6  1  0
  6  7  1  0
  8  2  1  0
  8 15  1  0
  9  8  2  0
 11 10  1  1
 12 11  1  0
 14 13  1  6
 13 11  1  0
 14 15  1  0
 16 14  1  0
 17 16  2  0
 19 18  1  6
 20 19  1  0
 21 19  1  0
 22 21  1  6
 22 24  1  0
 22 23  1  0
 23 16  1  0
 24 25  1  0
 26 24  2  0
M  END
$$$$
