KLL.pdb
     RDKit          3D

 26 25  0  0  1  0  0  0  0  0999 V2000
   25.8465  -19.4458  -16.9312 N   0  0  0  0  0  0  0  0  0  0  0  0
   26.2756  -19.0262  -15.6316 C   0  0  1  0  0  0  0  0  0  0  0  0
   25.1252  -18.2860  -14.9764 C   0  0  0  0  0  0  0  0  0  0  0  0
   24.2253  -17.8078  -16.0971 C   0  0  0  0  0  0  0  0  0  0  0  0
   22.9911  -18.6318  -16.2533 C   0  0  0  0  0  0  0  0  0  0  0  0
   22.0102  -17.9684  -17.2029 C   0  0  0  0  0  0  0  0  0  0  0  0
   20.7663  -18.6931  -17.2796 N   0  0  0  0  0  0  0  0  0  0  0  0
   26.7555  -20.1623  -14.7993 C   0  0  0  0  0  0  0  0  0  0  0  0
   26.3704  -21.3301  -14.9348 O   0  0  0  0  0  0  0  0  0  0  0  0
   30.5852  -22.5205  -12.0225 C   0  0  0  0  0  0  0  0  0  0  0  0
   29.8724  -21.4950  -11.1433 C   0  0  1  0  0  0  0  0  0  0  0  0
   30.9701  -20.8936  -10.2575 C   0  0  0  0  0  0  0  0  0  0  0  0
   29.3356  -20.4377  -12.0441 C   0  0  0  0  0  0  0  0  0  0  0  0
   28.1640  -20.9007  -12.8790 C   0  0  2  0  0  0  0  0  0  0  0  0
   27.7101  -19.8784  -13.7949 N   0  0  0  0  0  0  0  0  0  0  0  0
   27.0542  -21.2005  -11.9419 C   0  0  0  0  0  0  0  0  0  0  0  0
   26.9046  -22.3985  -11.5595 O   0  0  0  0  0  0  0  0  0  0  0  0
   26.5657  -19.1925   -7.2179 C   0  0  0  0  0  0  0  0  0  0  0  0
   26.4147  -20.3414   -8.2715 C   0  0  1  0  0  0  0  0  0  0  0  0
   25.9877  -21.5358   -7.4761 C   0  0  0  0  0  0  0  0  0  0  0  0
   25.4532  -19.8130   -9.2591 C   0  0  0  0  0  0  0  0  0  0  0  0
   25.1003  -20.5918  -10.4657 C   0  0  2  0  0  0  0  0  0  0  0  0
   26.1612  -20.2373  -11.4543 N   0  0  0  0  0  0  0  0  0  0  0  0
   23.8410  -20.2670  -11.1240 C   0  0  0  0  0  0  0  0  0  0  0  0
   23.8175  -19.6970  -12.3798 O   0  0  0  0  0  0  0  0  0  0  0  0
   22.7452  -20.4923  -10.5757 O   0  0  0  0  0  0  0  0  0  0  0  0
  2  1  1  6
  3  2  1  0
  4  5  1  0
  4  3  1  0
  5  6  1  0
  6  7  1  0
  8  2  1  0
  8 15  1  0
  9  8  2  0
 11 10  1  6
 12 11  1  0
 14 13  1  1
 13 11  1  0
 14 15  1  0
 16 14  1  0
 17 16  2  0
 19 18  1  1
 20 19  1  0
 21 19  1  0
 22 21  1  1
 22 24  1  0
 22 23  1  0
 23 16  1  0
 24 25  1  0
 26 24  2  0
M  END
$$$$
