KLL.pdb
     RDKit          3D

 26 25  0  0  1  0  0  0  0  0999 V2000
   22.8683  -20.3673  -14.8502 N   0  0  0  0  0  0  0  0  0  0  0  0
   23.3077  -21.7055  -15.1059 C   0  0  1  0  0  0  0  0  0  0  0  0
   22.9683  -22.0414  -16.5456 C   0  0  0  0  0  0  0  0  0  0  0  0
   21.6111  -22.7138  -16.5237 C   0  0  0  0  0  0  0  0  0  0  0  0
   21.4624  -23.7036  -15.4169 C   0  0  0  0  0  0  0  0  0  0  0  0
   20.1506  -24.4581  -15.5342 C   0  0  0  0  0  0  0  0  0  0  0  0
   19.0170  -23.5678  -15.5086 N   0  0  0  0  0  0  0  0  0  0  0  0
   24.7548  -21.8919  -14.8147 C   0  0  0  0  0  0  0  0  0  0  0  0
   25.3778  -22.9357  -15.0444 O   0  0  0  0  0  0  0  0  0  0  0  0
   28.1529  -17.3382  -14.2563 C   0  0  0  0  0  0  0  0  0  0  0  0
   27.0582  -18.3873  -14.0727 C   0  0  1  0  0  0  0  0  0  0  0  0
   25.9467  -17.9828  -15.0484 C   0  0  0  0  0  0  0  0  0  0  0  0
   27.6268  -19.6976  -14.4936 C   0  0  0  0  0  0  0  0  0  0  0  0
   26.8646  -20.8837  -13.9492 C   0  0  2  0  0  0  0  0  0  0  0  0
   25.4508  -20.8027  -14.2403 N   0  0  0  0  0  0  0  0  0  0  0  0
   27.0298  -20.8670  -12.4754 C   0  0  0  0  0  0  0  0  0  0  0  0
   28.1789  -21.1106  -12.0021 O   0  0  0  0  0  0  0  0  0  0  0  0
   28.3337  -20.9149   -7.8845 C   0  0  0  0  0  0  0  0  0  0  0  0
   27.1452  -19.9109   -8.0637 C   0  0  1  0  0  0  0  0  0  0  0  0
   27.6330  -18.6298   -7.4617 C   0  0  0  0  0  0  0  0  0  0  0  0
   26.8764  -19.9118   -9.5152 C   0  0  0  0  0  0  0  0  0  0  0  0
   26.0848  -20.9939  -10.1392 C   0  0  2  0  0  0  0  0  0  0  0  0
   25.9904  -20.5978  -11.5754 N   0  0  0  0  0  0  0  0  0  0  0  0
   24.7055  -21.1518   -9.6951 C   0  0  0  0  0  0  0  0  0  0  0  0
   24.4043  -21.8031   -8.5171 O   0  0  0  0  0  0  0  0  0  0  0  0
   23.7535  -20.7051  -10.3632 O   0  0  0  0  0  0  0  0  0  0  0  0
  2  1  1  6
  3  2  1  0
  4  5  1  0
  4  3  1  0
  5  6  1  0
  6  7  1  0
  8  2  1  0
  8 15  1  0
  9  8  2  0
 11 10  1  6
 12 11  1  0
 14 13  1  6
 13 11  1  0
 14 15  1  0
 16 14  1  0
 17 16  2  0
 19 18  1  6
 20 19  1  0
 21 19  1  0
 22 21  1  1
 22 24  1  0
 22 23  1  0
 23 16  1  0
 24 25  1  0
 26 24  2  0
M  END
$$$$
