KLL.pdb
     RDKit          3D

 26 25  0  0  1  0  0  0  0  0999 V2000
   25.3978  -19.0234  -15.1216 N   0  0  0  0  0  0  0  0  0  0  0  0
   24.9509  -20.3555  -15.3955 C   0  0  1  0  0  0  0  0  0  0  0  0
   25.2756  -20.6684  -16.8437 C   0  0  0  0  0  0  0  0  0  0  0  0
   24.1189  -20.1433  -17.6689 C   0  0  0  0  0  0  0  0  0  0  0  0
   23.9780  -18.6591  -17.6072 C   0  0  0  0  0  0  0  0  0  0  0  0
   22.7892  -18.1908  -18.4266 C   0  0  0  0  0  0  0  0  0  0  0  0
   22.4309  -19.1467  -19.4445 N   0  0  0  0  0  0  0  0  0  0  0  0
   25.5397  -21.3536  -14.4624 C   0  0  0  0  0  0  0  0  0  0  0  0
   25.2978  -22.5661  -14.5037 O   0  0  0  0  0  0  0  0  0  0  0  0
   28.7557  -19.6854  -13.9721 C   0  0  0  0  0  0  0  0  0  0  0  0
   29.2932  -21.0047  -13.4213 C   0  0  1  0  0  0  0  0  0  0  0  0
   30.7347  -20.7037  -12.9938 C   0  0  0  0  0  0  0  0  0  0  0  0
   28.4853  -21.3426  -12.2170 C   0  0  0  0  0  0  0  0  0  0  0  0
   27.0754  -21.7774  -12.5444 C   0  0  2  0  0  0  0  0  0  0  0  0
   26.4290  -20.8759  -13.4716 N   0  0  0  0  0  0  0  0  0  0  0  0
   26.3082  -21.7557  -11.2753 C   0  0  0  0  0  0  0  0  0  0  0  0
   26.5666  -22.6415  -10.4079 O   0  0  0  0  0  0  0  0  0  0  0  0
   26.6522  -18.7410   -7.3705 C   0  0  0  0  0  0  0  0  0  0  0  0
   26.3637  -20.0906   -8.1109 C   0  0  1  0  0  0  0  0  0  0  0  0
   26.3217  -21.1208   -7.0253 C   0  0  0  0  0  0  0  0  0  0  0  0
   25.1113  -19.8447   -8.8527 C   0  0  0  0  0  0  0  0  0  0  0  0
   24.5228  -20.8917   -9.7155 C   0  0  2  0  0  0  0  0  0  0  0  0
   25.3146  -20.8136  -10.9787 N   0  0  0  0  0  0  0  0  0  0  0  0
   23.1345  -20.7166  -10.1235 C   0  0  0  0  0  0  0  0  0  0  0  0
   22.7989  -20.5107  -11.4454 O   0  0  0  0  0  0  0  0  0  0  0  0
   22.2056  -20.7465   -9.2938 O   0  0  0  0  0  0  0  0  0  0  0  0
  2  1  1  1
  3  2  1  0
  4  5  1  0
  4  3  1  0
  5  6  1  0
  6  7  1  0
  8  2  1  0
  8 15  1  0
  9  8  2  0
 11 10  1  1
 12 11  1  0
 14 13  1  1
 13 11  1  0
 14 15  1  0
 16 14  1  0
 17 16  2  0
 19 18  1  1
 20 19  1  0
 21 19  1  0
 22 21  1  1
 22 24  1  0
 22 23  1  0
 23 16  1  0
 24 25  1  0
 26 24  2  0
M  END
$$$$
