KLL.pdb
     RDKit          3D

 26 25  0  0  1  0  0  0  0  0999 V2000
   27.7750  -31.2156  -23.4812 N   0  0  0  0  0  0  0  0  0  0  0  0
   27.0601  -30.5277  -22.4493 C   0  0  1  0  0  0  0  0  0  0  0  0
   25.6343  -30.3238  -22.9252 C   0  0  0  0  0  0  0  0  0  0  0  0
   25.6507  -29.1096  -23.8306 C   0  0  0  0  0  0  0  0  0  0  0  0
   26.2472  -29.3827  -25.1709 C   0  0  0  0  0  0  0  0  0  0  0  0
   26.0628  -28.1972  -26.1006 C   0  0  0  0  0  0  0  0  0  0  0  0
   26.6463  -28.4376  -27.3967 N   0  0  0  0  0  0  0  0  0  0  0  0
   27.1174  -31.2438  -21.1464 C   0  0  0  0  0  0  0  0  0  0  0  0
   27.1316  -32.4757  -21.0342 O   0  0  0  0  0  0  0  0  0  0  0  0
   30.9114  -30.3542  -17.7228 C   0  0  0  0  0  0  0  0  0  0  0  0
   29.7856  -31.0722  -18.4643 C   0  0  1  0  0  0  0  0  0  0  0  0
   29.9378  -32.5514  -18.0899 C   0  0  0  0  0  0  0  0  0  0  0  0
   28.4989  -30.5585  -17.9185 C   0  0  0  0  0  0  0  0  0  0  0  0
   27.2868  -31.0656  -18.6652 C   0  0  2  0  0  0  0  0  0  0  0  0
   27.1578  -30.4582  -19.9708 N   0  0  0  0  0  0  0  0  0  0  0  0
   26.0953  -30.6893  -17.8661 C   0  0  0  0  0  0  0  0  0  0  0  0
   25.8218  -29.4584  -17.7481 O   0  0  0  0  0  0  0  0  0  0  0  0
   21.0828  -30.3499  -16.9615 C   0  0  0  0  0  0  0  0  0  0  0  0
   21.5655  -31.7747  -16.5259 C   0  0  1  0  0  0  0  0  0  0  0  0
   20.5315  -32.7113  -17.0691 C   0  0  0  0  0  0  0  0  0  0  0  0
   22.9302  -31.8871  -17.0774 C   0  0  0  0  0  0  0  0  0  0  0  0
   24.0627  -31.1718  -16.4509 C   0  0  2  0  0  0  0  0  0  0  0  0
   25.2542  -31.6143  -17.2339 N   0  0  0  0  0  0  0  0  0  0  0  0
   24.3733  -31.4996  -15.0650 C   0  0  0  0  0  0  0  0  0  0  0  0
   25.4826  -32.2522  -14.7401 O   0  0  0  0  0  0  0  0  0  0  0  0
   23.6486  -31.1121  -14.1285 O   0  0  0  0  0  0  0  0  0  0  0  0
  2  1  1  6
  3  2  1  0
  4  5  1  0
  4  3  1  0
  5  6  1  0
  6  7  1  0
  8  2  1  0
  8 15  1  0
  9  8  2  0
 11 10  1  1
 12 11  1  0
 14 13  1  1
 13 11  1  0
 14 15  1  0
 16 14  1  0
 17 16  2  0
 19 18  1  6
 20 19  1  0
 21 19  1  0
 22 21  1  6
 22 24  1  0
 22 23  1  0
 23 16  1  0
 24 25  1  0
 26 24  2  0
M  END
$$$$
