KLL.pdb
     RDKit          3D

 26 25  0  0  1  0  0  0  0  0999 V2000
   22.5363  -19.6267  -14.1267 N   0  0  0  0  0  0  0  0  0  0  0  0
   22.9729  -20.9374  -14.5017 C   0  0  1  0  0  0  0  0  0  0  0  0
   22.5217  -21.1896  -15.9277 C   0  0  0  0  0  0  0  0  0  0  0  0
   21.0114  -21.2996  -15.8897 C   0  0  0  0  0  0  0  0  0  0  0  0
   20.3239  -19.9754  -15.9173 C   0  0  0  0  0  0  0  0  0  0  0  0
   18.8185  -20.1456  -16.0107 C   0  0  0  0  0  0  0  0  0  0  0  0
   18.1337  -18.8774  -15.9799 N   0  0  0  0  0  0  0  0  0  0  0  0
   24.4416  -21.1128  -14.3409 C   0  0  0  0  0  0  0  0  0  0  0  0
   25.0638  -22.1141  -14.7159 O   0  0  0  0  0  0  0  0  0  0  0  0
   27.4046  -16.6713  -14.9528 C   0  0  0  0  0  0  0  0  0  0  0  0
   26.7942  -18.0710  -14.9830 C   0  0  1  0  0  0  0  0  0  0  0  0
   27.4080  -18.7503  -16.2131 C   0  0  0  0  0  0  0  0  0  0  0  0
   27.2496  -18.7784  -13.7543 C   0  0  0  0  0  0  0  0  0  0  0  0
   26.5960  -20.1277  -13.5633 C   0  0  2  0  0  0  0  0  0  0  0  0
   25.1602  -20.0645  -13.7200 N   0  0  0  0  0  0  0  0  0  0  0  0
   26.8859  -20.5580  -12.1738 C   0  0  0  0  0  0  0  0  0  0  0  0
   27.8543  -21.3522  -11.9860 O   0  0  0  0  0  0  0  0  0  0  0  0
   28.4846  -20.9991   -7.4500 C   0  0  0  0  0  0  0  0  0  0  0  0
   27.1368  -20.2019   -7.4278 C   0  0  1  0  0  0  0  0  0  0  0  0
   27.3845  -19.0581   -6.4942 C   0  0  0  0  0  0  0  0  0  0  0  0
   26.8801  -19.8706   -8.8433 C   0  0  0  0  0  0  0  0  0  0  0  0
   26.2496  -20.8540   -9.7501 C   0  0  2  0  0  0  0  0  0  0  0  0
   26.1522  -20.1382  -11.0565 N   0  0  0  0  0  0  0  0  0  0  0  0
   24.8873  -21.2691   -9.4396 C   0  0  0  0  0  0  0  0  0  0  0  0
   23.8192  -20.8414  -10.2003 O   0  0  0  0  0  0  0  0  0  0  0  0
   24.6418  -22.0226   -8.4783 O   0  0  0  0  0  0  0  0  0  0  0  0
  2  1  1  6
  3  2  1  0
  4  5  1  0
  4  3  1  0
  5  6  1  0
  6  7  1  0
  8  2  1  0
  8 15  1  0
  9  8  2  0
 11 10  1  1
 12 11  1  0
 14 13  1  1
 13 11  1  0
 14 15  1  0
 16 14  1  0
 17 16  2  0
 19 18  1  6
 20 19  1  0
 21 19  1  0
 22 21  1  1
 22 24  1  0
 22 23  1  0
 23 16  1  0
 24 25  1  0
 26 24  2  0
M  END
$$$$
