KLL.pdb
     RDKit          3D

 26 25  0  0  1  0  0  0  0  0999 V2000
   25.7489  -34.3773    0.1283 N   0  0  0  0  0  0  0  0  0  0  0  0
   27.0609  -34.5440    0.6759 C   0  0  1  0  0  0  0  0  0  0  0  0
   26.9457  -35.4269    1.9038 C   0  0  0  0  0  0  0  0  0  0  0  0
   26.1912  -34.6242    2.9435 C   0  0  0  0  0  0  0  0  0  0  0  0
   25.9617  -35.3737    4.2133 C   0  0  0  0  0  0  0  0  0  0  0  0
   25.1491  -34.5476    5.1937 C   0  0  0  0  0  0  0  0  0  0  0  0
   24.9450  -35.2437    6.4395 N   0  0  0  0  0  0  0  0  0  0  0  0
   28.0239  -35.0913   -0.3175 C   0  0  0  0  0  0  0  0  0  0  0  0
   27.7292  -35.9311   -1.1767 O   0  0  0  0  0  0  0  0  0  0  0  0
   31.3936  -31.5256   -2.4306 C   0  0  0  0  0  0  0  0  0  0  0  0
   30.4032  -32.6578   -2.1656 C   0  0  1  0  0  0  0  0  0  0  0  0
   29.7848  -32.9782   -3.5316 C   0  0  0  0  0  0  0  0  0  0  0  0
   31.1896  -33.8319   -1.6961 C   0  0  0  0  0  0  0  0  0  0  0  0
   30.3277  -34.9967   -1.2666 C   0  0  2  0  0  0  0  0  0  0  0  0
   29.3550  -34.6151   -0.2674 N   0  0  0  0  0  0  0  0  0  0  0  0
   31.2311  -36.0064   -0.6632 C   0  0  0  0  0  0  0  0  0  0  0  0
   31.4652  -35.9295    0.5790 O   0  0  0  0  0  0  0  0  0  0  0  0
   32.6561  -40.9774    0.1052 C   0  0  0  0  0  0  0  0  0  0  0  0
   33.3633  -40.4735   -1.1982 C   0  0  1  0  0  0  0  0  0  0  0  0
   33.2688  -41.6227   -2.1532 C   0  0  0  0  0  0  0  0  0  0  0  0
   32.6383  -39.2391   -1.5584 C   0  0  0  0  0  0  0  0  0  0  0  0
   32.7429  -38.0259   -0.7192 C   0  0  2  0  0  0  0  0  0  0  0  0
   31.8410  -37.0404   -1.3855 N   0  0  0  0  0  0  0  0  0  0  0  0
   34.0432  -37.3706   -0.6542 C   0  0  0  0  0  0  0  0  0  0  0  0
   34.3216  -36.2579   -1.4203 O   0  0  0  0  0  0  0  0  0  0  0  0
   34.9458  -37.7925    0.0938 O   0  0  0  0  0  0  0  0  0  0  0  0
  2  1  1  6
  3  2  1  0
  4  5  1  0
  4  3  1  0
  5  6  1  0
  6  7  1  0
  8  2  1  0
  8 15  1  0
  9  8  2  0
 11 10  1  6
 12 11  1  0
 14 13  1  1
 13 11  1  0
 14 15  1  0
 16 14  1  0
 17 16  2  0
 19 18  1  1
 20 19  1  0
 21 19  1  0
 22 21  1  6
 22 24  1  0
 22 23  1  0
 23 16  1  0
 24 25  1  0
 26 24  2  0
M  END
$$$$
