GTP.pdb
     RDKit          3D

 19 19  0  0  1  0  0  0  0  0999 V2000
   12.2210  -17.1934   19.6413 N   0  0  0  0  0  0  0  0  0  0  0  0
   10.9720  -17.4286   20.2977 C   0  0  0  0  0  0  0  0  0  0  0  0
   10.5238  -16.2259   21.0409 C   0  0  0  0  0  0  0  0  0  0  0  0
   11.3452  -15.6014   21.7260 O   0  0  0  0  0  0  0  0  0  0  0  0
    7.3521  -13.5728   20.0982 C   0  0  0  0  0  0  0  0  0  0  0  0
    7.2512  -14.4287   21.3545 C   0  0  1  0  0  0  0  0  0  0  0  0
    6.6440  -15.6448   21.0478 O   0  0  0  0  0  0  0  0  0  0  0  0
    8.6541  -14.7620   21.8783 C   0  0  2  0  0  0  0  0  0  0  0  0
    9.1816  -15.7789   20.9833 N   0  0  0  0  0  0  0  0  0  0  0  0
    8.4961  -15.3070   23.2415 C   0  0  0  0  0  0  0  0  0  0  0  0
    9.2140  -16.2890   23.5722 O   0  0  0  0  0  0  0  0  0  0  0  0
    7.5843  -14.7843   24.1899 N   0  0  0  0  0  0  0  0  0  0  0  0
    6.6380  -13.6937   24.0516 C   0  0  0  0  0  0  0  0  0  0  0  0
    6.5706  -13.0646   25.4484 C   0  0  0  0  0  0  0  0  0  0  0  0
    7.3332  -13.9821   26.3526 C   0  0  0  0  0  0  0  0  0  0  0  0
    7.3994  -15.2512   25.5543 C   0  0  1  0  0  0  0  0  0  0  0  0
    6.1244  -15.9763   25.7191 C   0  0  0  0  0  0  0  0  0  0  0  0
    5.3001  -16.0787   24.6074 O   0  0  0  0  0  0  0  0  0  0  0  0
    5.7289  -16.5041   26.7768 O   0  0  0  0  0  0  0  0  0  0  0  0
  1  2  1  0
  2  3  1  0
  3  4  2  0
  3  9  1  0
  6  5  1  6
  6  7  1  0
  8  6  1  0
  8  9  1  6
 10 11  2  0
 10  8  1  0
 12 10  1  0
 13 12  1  0
 14 15  1  0
 14 13  1  0
 15 16  1  0
 16 12  1  0
 16 17  1  6
 18 17  1  0
 19 17  2  0
M  END
$$$$
