GTP.pdb
     RDKit          3D

 19 19  0  0  1  0  0  0  0  0999 V2000
   11.7048  -17.5917   18.2697 N   0  0  0  0  0  0  0  0  0  0  0  0
   10.4930  -17.7890   19.0036 C   0  0  0  0  0  0  0  0  0  0  0  0
   10.2727  -16.6918   19.9769 C   0  0  0  0  0  0  0  0  0  0  0  0
   11.2132  -16.3276   20.6958 O   0  0  0  0  0  0  0  0  0  0  0  0
    7.5796  -13.5237   19.6929 C   0  0  0  0  0  0  0  0  0  0  0  0
    7.3586  -14.5047   20.8374 C   0  0  1  0  0  0  0  0  0  0  0  0
    6.4981  -15.5208   20.4266 O   0  0  0  0  0  0  0  0  0  0  0  0
    8.6831  -15.1810   21.2141 C   0  0  2  0  0  0  0  0  0  0  0  0
    9.0143  -16.0548   20.1005 N   0  0  0  0  0  0  0  0  0  0  0  0
    8.4399  -15.9733   22.4362 C   0  0  0  0  0  0  0  0  0  0  0  0
    8.7049  -17.2053   22.4042 O   0  0  0  0  0  0  0  0  0  0  0  0
    7.9273  -15.4213   23.6347 N   0  0  0  0  0  0  0  0  0  0  0  0
    7.3995  -14.0933   23.8836 C   0  0  0  0  0  0  0  0  0  0  0  0
    7.7781  -13.7965   25.3395 C   0  0  0  0  0  0  0  0  0  0  0  0
    8.3189  -15.0768   25.8957 C   0  0  0  0  0  0  0  0  0  0  0  0
    7.8186  -16.0984   24.9168 C   0  0  1  0  0  0  0  0  0  0  0  0
    6.4178  -16.4218   25.2507 C   0  0  0  0  0  0  0  0  0  0  0  0
    6.1931  -17.1937   26.3818 O   0  0  0  0  0  0  0  0  0  0  0  0
    5.4204  -16.0570   24.5981 O   0  0  0  0  0  0  0  0  0  0  0  0
  1  2  1  0
  2  3  1  0
  3  4  2  0
  3  9  1  0
  6  5  1  6
  6  7  1  0
  8  6  1  0
  8  9  1  6
 10 11  2  0
 10  8  1  0
 12 10  1  0
 13 12  1  0
 14 15  1  0
 14 13  1  0
 15 16  1  0
 16 12  1  0
 16 17  1  1
 18 17  1  0
 19 17  2  0
M  END
$$$$
