GTP.pdb
     RDKit          3D

 19 19  0  0  1  0  0  0  0  0999 V2000
    8.1379  -20.5913   28.6300 N   0  0  0  0  0  0  0  0  0  0  0  0
    7.4488  -19.8591   27.6127 C   0  0  0  0  0  0  0  0  0  0  0  0
    8.0669  -18.5277   27.4005 C   0  0  0  0  0  0  0  0  0  0  0  0
    8.8157  -18.0663   28.2727 O   0  0  0  0  0  0  0  0  0  0  0  0
   10.3893  -17.1060   24.9500 C   0  0  0  0  0  0  0  0  0  0  0  0
    9.0703  -16.3666   24.7649 C   0  0  1  0  0  0  0  0  0  0  0  0
    8.2986  -17.0146   23.8024 O   0  0  0  0  0  0  0  0  0  0  0  0
    8.2606  -16.4004   26.0676 C   0  0  2  0  0  0  0  0  0  0  0  0
    7.8197  -17.7765   26.2262 N   0  0  0  0  0  0  0  0  0  0  0  0
    7.1004  -15.5050   25.8872 C   0  0  0  0  0  0  0  0  0  0  0  0
    5.9703  -16.0320   25.7025 O   0  0  0  0  0  0  0  0  0  0  0  0
    7.1936  -14.0926   25.9116 N   0  0  0  0  0  0  0  0  0  0  0  0
    8.3304  -13.2515   26.2343 C   0  0  0  0  0  0  0  0  0  0  0  0
    7.7148  -12.0080   26.8868 C   0  0  0  0  0  0  0  0  0  0  0  0
    6.2348  -12.1317   26.6987 C   0  0  0  0  0  0  0  0  0  0  0  0
    6.1262  -13.1541   25.6055 C   0  0  1  0  0  0  0  0  0  0  0  0
    6.3413  -12.4805   24.3099 C   0  0  0  0  0  0  0  0  0  0  0  0
    5.3106  -11.6889   23.8232 O   0  0  0  0  0  0  0  0  0  0  0  0
    7.3745  -12.5657   23.6180 O   0  0  0  0  0  0  0  0  0  0  0  0
  1  2  1  0
  2  3  1  0
  3  4  2  0
  3  9  1  0
  6  5  1  1
  6  7  1  0
  8  6  1  0
  8  9  1  6
 10 11  2  0
 10  8  1  0
 12 10  1  0
 13 12  1  0
 14 15  1  0
 14 13  1  0
 15 16  1  0
 16 12  1  0
 16 17  1  6
 18 17  1  0
 19 17  2  0
M  END
$$$$
