GTP.pdb
     RDKit          3D

 19 19  0  0  1  0  0  0  0  0999 V2000
   12.0095  -16.3551   17.1919 N   0  0  0  0  0  0  0  0  0  0  0  0
   10.9966  -16.8587   18.0674 C   0  0  0  0  0  0  0  0  0  0  0  0
   10.6233  -15.8504   19.0889 C   0  0  0  0  0  0  0  0  0  0  0  0
   11.5067  -15.1312   19.5752 O   0  0  0  0  0  0  0  0  0  0  0  0
    7.3450  -13.5126   19.2959 C   0  0  0  0  0  0  0  0  0  0  0  0
    7.4533  -14.4892   20.4601 C   0  0  1  0  0  0  0  0  0  0  0  0
    6.7607  -15.6600   20.1582 O   0  0  0  0  0  0  0  0  0  0  0  0
    8.9180  -14.8923   20.6745 C   0  0  2  0  0  0  0  0  0  0  0  0
    9.2831  -15.6938   19.5180 N   0  0  0  0  0  0  0  0  0  0  0  0
    8.9740  -15.7069   21.9047 C   0  0  0  0  0  0  0  0  0  0  0  0
    9.5760  -16.8133   21.8539 O   0  0  0  0  0  0  0  0  0  0  0  0
    8.3891  -15.3095   23.1310 N   0  0  0  0  0  0  0  0  0  0  0  0
    7.5652  -14.1522   23.4245 C   0  0  0  0  0  0  0  0  0  0  0  0
    7.9158  -13.7888   24.8723 C   0  0  0  0  0  0  0  0  0  0  0  0
    8.7715  -14.9057   25.3837 C   0  0  0  0  0  0  0  0  0  0  0  0
    8.4965  -16.0071   24.4021 C   0  0  1  0  0  0  0  0  0  0  0  0
    7.2295  -16.6646   24.7772 C   0  0  0  0  0  0  0  0  0  0  0  0
    6.1576  -16.5284   23.9064 O   0  0  0  0  0  0  0  0  0  0  0  0
    7.0452  -17.3324   25.8134 O   0  0  0  0  0  0  0  0  0  0  0  0
  1  2  1  0
  2  3  1  0
  3  4  2  0
  3  9  1  0
  6  5  1  6
  6  7  1  0
  8  6  1  0
  8  9  1  6
 10 11  2  0
 10  8  1  0
 12 10  1  0
 13 12  1  0
 14 15  1  0
 14 13  1  0
 15 16  1  0
 16 12  1  0
 16 17  1  1
 18 17  1  0
 19 17  2  0
M  END
$$$$
