GTP.pdb
     RDKit          3D

 19 19  0  0  1  0  0  0  0  0999 V2000
   12.1070  -17.2307   19.2092 N   0  0  0  0  0  0  0  0  0  0  0  0
   10.7825  -17.3495   19.7360 C   0  0  0  0  0  0  0  0  0  0  0  0
   10.4434  -16.1902   20.5966 C   0  0  0  0  0  0  0  0  0  0  0  0
   11.3266  -15.6885   21.3054 O   0  0  0  0  0  0  0  0  0  0  0  0
    7.4877  -13.2578   19.9771 C   0  0  0  0  0  0  0  0  0  0  0  0
    7.3295  -14.1900   21.1717 C   0  0  1  0  0  0  0  0  0  0  0  0
    6.6009  -15.3168   20.7960 O   0  0  0  0  0  0  0  0  0  0  0  0
    8.7037  -14.6932   21.6322 C   0  0  2  0  0  0  0  0  0  0  0  0
    9.1360  -15.6475   20.6243 N   0  0  0  0  0  0  0  0  0  0  0  0
    8.5118  -15.3675   22.9317 C   0  0  0  0  0  0  0  0  0  0  0  0
    9.1617  -16.4253   23.1503 O   0  0  0  0  0  0  0  0  0  0  0  0
    7.6399  -14.8877   23.9385 N   0  0  0  0  0  0  0  0  0  0  0  0
    6.7151  -13.7709   23.8983 C   0  0  0  0  0  0  0  0  0  0  0  0
    6.7024  -13.2313   25.3335 C   0  0  0  0  0  0  0  0  0  0  0  0
    7.4696  -14.2207   26.1543 C   0  0  0  0  0  0  0  0  0  0  0  0
    7.4838  -15.4371   25.2755 C   0  0  1  0  0  0  0  0  0  0  0  0
    6.1979  -16.1444   25.4325 C   0  0  0  0  0  0  0  0  0  0  0  0
    5.3562  -16.1908   24.3301 O   0  0  0  0  0  0  0  0  0  0  0  0
    5.8074  -16.7034   26.4758 O   0  0  0  0  0  0  0  0  0  0  0  0
  1  2  1  0
  2  3  1  0
  3  4  2  0
  3  9  1  0
  6  5  1  6
  6  7  1  0
  8  6  1  0
  8  9  1  6
 10 11  2  0
 10  8  1  0
 12 10  1  0
 13 12  1  0
 14 15  1  0
 14 13  1  0
 15 16  1  0
 16 12  1  0
 16 17  1  6
 18 17  1  0
 19 17  2  0
M  END
$$$$
