GTP.pdb
     RDKit          3D

 19 19  0  0  1  0  0  0  0  0999 V2000
    9.1304  -12.9448   18.1270 N   0  0  0  0  0  0  0  0  0  0  0  0
    9.6683  -13.6108   19.2730 C   0  0  0  0  0  0  0  0  0  0  0  0
    8.7620  -13.4829   20.4400 C   0  0  0  0  0  0  0  0  0  0  0  0
    7.9363  -12.5599   20.4620 O   0  0  0  0  0  0  0  0  0  0  0  0
    6.1344  -15.3020   21.3679 C   0  0  0  0  0  0  0  0  0  0  0  0
    6.9758  -15.4175   22.6326 C   0  0  1  0  0  0  0  0  0  0  0  0
    7.7260  -16.5911   22.5931 O   0  0  0  0  0  0  0  0  0  0  0  0
    7.9806  -14.2603   22.7038 C   0  0  2  0  0  0  0  0  0  0  0  0
    8.8213  -14.3905   21.5250 N   0  0  0  0  0  0  0  0  0  0  0  0
    8.7805  -14.4478   23.9307 C   0  0  0  0  0  0  0  0  0  0  0  0
    9.9376  -14.9340   23.8131 O   0  0  0  0  0  0  0  0  0  0  0  0
    8.3156  -14.1104   25.2245 N   0  0  0  0  0  0  0  0  0  0  0  0
    7.0010  -13.6601   25.6409 C   0  0  0  0  0  0  0  0  0  0  0  0
    7.2737  -12.7162   26.8181 C   0  0  0  0  0  0  0  0  0  0  0  0
    8.7303  -12.8579   27.1332 C   0  0  0  0  0  0  0  0  0  0  0  0
    9.0903  -14.1469   26.4543 C   0  0  1  0  0  0  0  0  0  0  0  0
    8.6843  -15.2661   27.3267 C   0  0  0  0  0  0  0  0  0  0  0  0
    9.4089  -15.4607   28.4941 O   0  0  0  0  0  0  0  0  0  0  0  0
    7.7427  -16.0504   27.0988 O   0  0  0  0  0  0  0  0  0  0  0  0
  1  2  1  0
  2  3  1  0
  3  4  2  0
  3  9  1  0
  6  5  1  6
  6  7  1  0
  8  6  1  0
  8  9  1  6
 10 11  2  0
 10  8  1  0
 12 10  1  0
 13 12  1  0
 14 15  1  0
 14 13  1  0
 15 16  1  0
 16 12  1  0
 16 17  1  1
 18 17  1  0
 19 17  2  0
M  END
$$$$
