GTP.pdb
     RDKit          3D

 19 19  0  0  1  0  0  0  0  0999 V2000
    8.9528  -13.2142   18.0125 N   0  0  0  0  0  0  0  0  0  0  0  0
    9.5102  -13.6901   19.2409 C   0  0  0  0  0  0  0  0  0  0  0  0
    8.5191  -13.6160   20.3418 C   0  0  0  0  0  0  0  0  0  0  0  0
    7.4292  -13.0655   20.1340 O   0  0  0  0  0  0  0  0  0  0  0  0
    6.2760  -15.4318   21.2713 C   0  0  0  0  0  0  0  0  0  0  0  0
    7.0056  -15.3919   22.6081 C   0  0  1  0  0  0  0  0  0  0  0  0
    7.9047  -16.4537   22.6854 O   0  0  0  0  0  0  0  0  0  0  0  0
    7.8378  -14.1075   22.7155 C   0  0  2  0  0  0  0  0  0  0  0  0
    8.7924  -14.1596   21.6203 N   0  0  0  0  0  0  0  0  0  0  0  0
    8.5401  -14.1463   24.0137 C   0  0  0  0  0  0  0  0  0  0  0  0
    9.7468  -14.5110   24.0221 O   0  0  0  0  0  0  0  0  0  0  0  0
    7.9296  -13.7958   25.2419 N   0  0  0  0  0  0  0  0  0  0  0  0
    6.5326  -13.5350   25.5330 C   0  0  0  0  0  0  0  0  0  0  0  0
    6.5629  -12.4770   26.6424 C   0  0  0  0  0  0  0  0  0  0  0  0
    7.9950  -12.3584   27.0621 C   0  0  0  0  0  0  0  0  0  0  0  0
    8.6030  -13.6179   26.5181 C   0  0  1  0  0  0  0  0  0  0  0  0
    8.3103  -14.7221   27.4527 C   0  0  0  0  0  0  0  0  0  0  0  0
    7.4828  -15.7397   26.9993 O   0  0  0  0  0  0  0  0  0  0  0  0
    8.7467  -14.8137   28.6167 O   0  0  0  0  0  0  0  0  0  0  0  0
  1  2  1  0
  2  3  1  0
  3  4  2  0
  3  9  1  0
  6  5  1  6
  6  7  1  0
  8  6  1  0
  8  9  1  6
 10 11  2  0
 10  8  1  0
 12 10  1  0
 13 12  1  0
 14 15  1  0
 14 13  1  0
 15 16  1  0
 16 12  1  0
 16 17  1  1
 18 17  1  0
 19 17  2  0
M  END
$$$$
