GTP.pdb
     RDKit          3D

 19 19  0  0  1  0  0  0  0  0999 V2000
   12.1568  -17.0263   20.3155 N   0  0  0  0  0  0  0  0  0  0  0  0
   11.1249  -17.3238   21.2603 C   0  0  0  0  0  0  0  0  0  0  0  0
   10.5797  -16.0840   21.8648 C   0  0  0  0  0  0  0  0  0  0  0  0
   11.3652  -15.2098   22.2560 O   0  0  0  0  0  0  0  0  0  0  0  0
    7.2424  -13.9769   20.8883 C   0  0  0  0  0  0  0  0  0  0  0  0
    7.1998  -14.5894   22.2826 C   0  0  1  0  0  0  0  0  0  0  0  0
    6.6040  -15.8478   22.2258 O   0  0  0  0  0  0  0  0  0  0  0  0
    8.6255  -14.8055   22.8063 C   0  0  2  0  0  0  0  0  0  0  0  0
    9.1855  -15.8801   22.0032 N   0  0  0  0  0  0  0  0  0  0  0  0
    8.5163  -15.2209   24.2190 C   0  0  0  0  0  0  0  0  0  0  0  0
    9.0722  -16.2989   24.5627 O   0  0  0  0  0  0  0  0  0  0  0  0
    7.8231  -14.4730   25.2009 N   0  0  0  0  0  0  0  0  0  0  0  0
    7.0549  -13.2514   25.0538 C   0  0  0  0  0  0  0  0  0  0  0  0
    7.2604  -12.5070   26.3785 C   0  0  0  0  0  0  0  0  0  0  0  0
    7.9698  -13.4639   27.2852 C   0  0  0  0  0  0  0  0  0  0  0  0
    7.7330  -14.7870   26.6176 C   0  0  1  0  0  0  0  0  0  0  0  0
    6.3877  -15.2664   26.9900 C   0  0  0  0  0  0  0  0  0  0  0  0
    6.2316  -15.8084   28.2580 O   0  0  0  0  0  0  0  0  0  0  0  0
    5.3806  -15.2235   26.2569 O   0  0  0  0  0  0  0  0  0  0  0  0
  1  2  1  0
  2  3  1  0
  3  4  2  0
  3  9  1  0
  6  5  1  6
  6  7  1  0
  8  6  1  0
  8  9  1  6
 10 11  2  0
 10  8  1  0
 12 10  1  0
 13 12  1  0
 14 15  1  0
 14 13  1  0
 15 16  1  0
 16 12  1  0
 16 17  1  6
 18 17  1  0
 19 17  2  0
M  END
$$$$
