GTP.pdb
     RDKit          3D

 19 19  0  0  1  0  0  0  0  0999 V2000
   12.5115  -16.9599   19.6418 N   0  0  0  0  0  0  0  0  0  0  0  0
   11.2609  -17.3139   20.2391 C   0  0  0  0  0  0  0  0  0  0  0  0
   10.6796  -16.1687   20.9810 C   0  0  0  0  0  0  0  0  0  0  0  0
   11.4282  -15.4431   21.6498 O   0  0  0  0  0  0  0  0  0  0  0  0
    7.3787  -13.8060   20.0254 C   0  0  0  0  0  0  0  0  0  0  0  0
    7.2615  -14.6820   21.2663 C   0  0  1  0  0  0  0  0  0  0  0  0
    6.7293  -15.9219   20.9185 O   0  0  0  0  0  0  0  0  0  0  0  0
    8.6533  -14.9540   21.8518 C   0  0  2  0  0  0  0  0  0  0  0  0
    9.2922  -15.8892   20.9405 N   0  0  0  0  0  0  0  0  0  0  0  0
    8.4586  -15.5767   23.1765 C   0  0  0  0  0  0  0  0  0  0  0  0
    9.1103  -16.6233   23.4390 O   0  0  0  0  0  0  0  0  0  0  0  0
    7.5821  -15.0596   24.1605 N   0  0  0  0  0  0  0  0  0  0  0  0
    6.6184  -13.9802   24.0578 C   0  0  0  0  0  0  0  0  0  0  0  0
    6.6034  -13.3451   25.4534 C   0  0  0  0  0  0  0  0  0  0  0  0
    7.4141  -14.2497   26.3284 C   0  0  0  0  0  0  0  0  0  0  0  0
    7.4606  -15.5218   25.5336 C   0  0  1  0  0  0  0  0  0  0  0  0
    6.2021  -16.2602   25.7557 C   0  0  0  0  0  0  0  0  0  0  0  0
    6.0344  -16.8802   26.9859 O   0  0  0  0  0  0  0  0  0  0  0  0
    5.2779  -16.3716   24.9268 O   0  0  0  0  0  0  0  0  0  0  0  0
  1  2  1  0
  2  3  1  0
  3  4  2  0
  3  9  1  0
  6  5  1  6
  6  7  1  0
  8  6  1  0
  8  9  1  6
 10 11  2  0
 10  8  1  0
 12 10  1  0
 13 12  1  0
 14 15  1  0
 14 13  1  0
 15 16  1  0
 16 12  1  0
 16 17  1  6
 18 17  1  0
 19 17  2  0
M  END
$$$$
