GTP.pdb
     RDKit          3D

 19 19  0  0  1  0  0  0  0  0999 V2000
   11.3640  -18.2426   17.6865 N   0  0  0  0  0  0  0  0  0  0  0  0
   10.1572  -18.2283   18.4542 C   0  0  0  0  0  0  0  0  0  0  0  0
   10.0918  -17.0296   19.3252 C   0  0  0  0  0  0  0  0  0  0  0  0
   11.0790  -16.7293   20.0103 O   0  0  0  0  0  0  0  0  0  0  0  0
    7.2605  -13.2708   20.9602 C   0  0  0  0  0  0  0  0  0  0  0  0
    7.4541  -14.4653   20.0346 C   0  0  1  0  0  0  0  0  0  0  0  0
    7.6791  -14.0206   18.7333 O   0  0  0  0  0  0  0  0  0  0  0  0
    8.7033  -15.2542   20.4477 C   0  0  2  0  0  0  0  0  0  0  0  0
    8.9287  -16.2248   19.3891 N   0  0  0  0  0  0  0  0  0  0  0  0
    8.3901  -15.9398   21.7174 C   0  0  0  0  0  0  0  0  0  0  0  0
    8.4375  -17.1993   21.7362 O   0  0  0  0  0  0  0  0  0  0  0  0
    8.0418  -15.2570   22.9076 N   0  0  0  0  0  0  0  0  0  0  0  0
    7.6199  -13.8809   23.0885 C   0  0  0  0  0  0  0  0  0  0  0  0
    8.1694  -13.4889   24.4652 C   0  0  0  0  0  0  0  0  0  0  0  0
    8.6937  -14.7510   25.0762 C   0  0  0  0  0  0  0  0  0  0  0  0
    8.0338  -15.8158   24.2498 C   0  0  1  0  0  0  0  0  0  0  0  0
    6.6611  -16.0172   24.7532 C   0  0  0  0  0  0  0  0  0  0  0  0
    5.6158  -15.6022   23.9403 O   0  0  0  0  0  0  0  0  0  0  0  0
    6.3655  -16.5302   25.8501 O   0  0  0  0  0  0  0  0  0  0  0  0
  1  2  1  0
  2  3  1  0
  3  4  2  0
  3  9  1  0
  6  5  1  1
  6  7  1  0
  8  6  1  0
  8  9  1  6
 10 11  2  0
 10  8  1  0
 12 10  1  0
 13 12  1  0
 14 15  1  0
 14 13  1  0
 15 16  1  0
 16 12  1  0
 16 17  1  1
 18 17  1  0
 19 17  2  0
M  END
$$$$
