TKR.pdb
     RDKit          3D

 28 27  0  0  1  0  0  0  0  0999 V2000
   29.2331  -21.8183  -18.7966 C   0  0  0  0  0  0  0  0  0  0  0  0
   28.2016  -20.9865  -18.0900 C   0  0  1  0  0  0  0  0  0  0  0  0
   27.0555  -21.7620  -17.9225 O   0  0  0  0  0  0  0  0  0  0  0  0
   28.6535  -20.5154  -16.7318 C   0  0  2  0  0  0  0  0  0  0  0  0
   28.9695  -21.7024  -15.9594 N   0  0  0  0  0  0  0  0  0  0  0  0
   27.6169  -19.7262  -16.0327 C   0  0  0  0  0  0  0  0  0  0  0  0
   26.9109  -20.1869  -15.1015 O   0  0  0  0  0  0  0  0  0  0  0  0
   27.3759  -18.3739  -16.4027 N   0  0  0  0  0  0  0  0  0  0  0  0
   26.3332  -17.5904  -15.7005 C   0  0  1  0  0  0  0  0  0  0  0  0
   26.4135  -16.1553  -16.1415 C   0  0  0  0  0  0  0  0  0  0  0  0
   25.3484  -15.3417  -15.4703 C   0  0  0  0  0  0  0  0  0  0  0  0
   25.3769  -13.9018  -15.9716 C   0  0  0  0  0  0  0  0  0  0  0  0
   24.3742  -13.1101  -15.1973 C   0  0  0  0  0  0  0  0  0  0  0  0
   24.4054  -11.7010  -15.5124 N   0  0  0  0  0  0  0  0  0  0  0  0
   24.9979  -18.1712  -16.0188 C   0  0  0  0  0  0  0  0  0  0  0  0
   24.7218  -18.5780  -17.1734 O   0  0  0  0  0  0  0  0  0  0  0  0
   18.7365  -22.1298  -11.5205 N   0  0  0  0  0  0  0  0  0  0  0  0
   18.3864  -22.4133  -12.8862 C   0  0  0  0  0  0  0  0  0  0  0  0
   17.2144  -22.8869  -13.1183 N   0  0  0  0  0  0  0  0  0  0  0  0
   19.3225  -22.1661  -13.8958 N   0  0  0  0  0  0  0  0  0  0  0  0
   20.6712  -21.6339  -13.5033 C   0  0  0  0  0  0  0  0  0  0  0  0
   21.1100  -20.6583  -14.5106 C   0  0  0  0  0  0  0  0  0  0  0  0
   22.3685  -19.9252  -14.4269 C   0  0  0  0  0  0  0  0  0  0  0  0
   22.6896  -18.9004  -15.4373 C   0  0  2  0  0  0  0  0  0  0  0  0
   24.0029  -18.2822  -15.0322 N   0  0  0  0  0  0  0  0  0  0  0  0
   21.7909  -17.7143  -15.4964 C   0  0  0  0  0  0  0  0  0  0  0  0
   20.6429  -17.5281  -16.1795 O   0  0  0  0  0  0  0  0  0  0  0  0
   22.1610  -16.6896  -14.7862 O   0  0  0  0  0  0  0  0  0  0  0  0
  2  1  1  1
  2  4  1  0
  3  2  1  0
  4  6  1  0
  4  5  1  1
  6  7  2  0
  8  6  1  0
  8  9  1  0
  9 10  1  6
 10 11  1  0
 11 12  1  0
 12 13  1  0
 13 14  1  0
 15  9  1  0
 15 25  1  0
 16 15  2  0
 17 18  1  0
 18 20  1  0
 19 18  2  0
 21 20  1  0
 21 22  1  0
 22 23  1  0
 24 25  1  0
 24 23  1  1
 26 24  1  0
 27 26  1  0
 28 26  2  0
M  END
$$$$
