TKR.pdb
     RDKit          3D

 28 27  0  0  1  0  0  0  0  0999 V2000
   26.1168  -14.9027  -16.4410 C   0  0  0  0  0  0  0  0  0  0  0  0
   26.1873  -16.1941  -15.6779 C   0  0  1  0  0  0  0  0  0  0  0  0
   24.8854  -16.6300  -15.4366 O   0  0  0  0  0  0  0  0  0  0  0  0
   26.9165  -17.2812  -16.4246 C   0  0  2  0  0  0  0  0  0  0  0  0
   26.1523  -17.5488  -17.6286 N   0  0  0  0  0  0  0  0  0  0  0  0
   27.0490  -18.5218  -15.6313 C   0  0  0  0  0  0  0  0  0  0  0  0
   26.2816  -19.5078  -15.7603 O   0  0  0  0  0  0  0  0  0  0  0  0
   28.0841  -18.6453  -14.6633 N   0  0  0  0  0  0  0  0  0  0  0  0
   28.1236  -19.8267  -13.7704 C   0  0  1  0  0  0  0  0  0  0  0  0
   29.4710  -19.8994  -13.1074 C   0  0  0  0  0  0  0  0  0  0  0  0
   29.5365  -21.0788  -12.1846 C   0  0  0  0  0  0  0  0  0  0  0  0
   30.8784  -21.1204  -11.4612 C   0  0  0  0  0  0  0  0  0  0  0  0
   30.9271  -22.3558  -10.6227 C   0  0  0  0  0  0  0  0  0  0  0  0
   32.2085  -22.5538   -9.9867 N   0  0  0  0  0  0  0  0  0  0  0  0
   27.0377  -19.7012  -12.7571 C   0  0  0  0  0  0  0  0  0  0  0  0
   26.7537  -18.5942  -12.2388 O   0  0  0  0  0  0  0  0  0  0  0  0
   19.6263  -21.3928  -14.6617 N   0  0  0  0  0  0  0  0  0  0  0  0
   20.1878  -20.0739  -14.5461 C   0  0  0  0  0  0  0  0  0  0  0  0
   19.8540  -19.2013  -15.4286 N   0  0  0  0  0  0  0  0  0  0  0  0
   21.0642  -19.7957  -13.4920 N   0  0  0  0  0  0  0  0  0  0  0  0
   21.3281  -20.8738  -12.4801 C   0  0  0  0  0  0  0  0  0  0  0  0
   22.5701  -20.5588  -11.7610 C   0  0  0  0  0  0  0  0  0  0  0  0
   23.9005  -20.7670  -12.3220 C   0  0  0  0  0  0  0  0  0  0  0  0
   25.0924  -20.5782  -11.4746 C   0  0  2  0  0  0  0  0  0  0  0  0
   26.2949  -20.8227  -12.3493 N   0  0  0  0  0  0  0  0  0  0  0  0
   25.2973  -21.5654  -10.3785 C   0  0  0  0  0  0  0  0  0  0  0  0
   24.9612  -21.4965   -9.0741 O   0  0  0  0  0  0  0  0  0  0  0  0
   25.8960  -22.6690  -10.7174 O   0  0  0  0  0  0  0  0  0  0  0  0
  2  1  1  6
  2  4  1  0
  3  2  1  0
  4  6  1  0
  4  5  1  6
  6  7  2  0
  8  6  1  0
  8  9  1  0
  9 10  1  1
 10 11  1  0
 11 12  1  0
 12 13  1  0
 13 14  1  0
 15  9  1  0
 15 25  1  0
 16 15  2  0
 17 18  1  0
 18 20  1  0
 19 18  2  0
 21 20  1  0
 21 22  1  0
 22 23  1  0
 24 25  1  0
 24 23  1  6
 26 24  1  0
 27 26  1  0
 28 26  2  0
M  END
$$$$
