TKR.pdb
     RDKit          3D

 28 27  0  0  1  0  0  0  0  0999 V2000
   23.4773  -14.7493  -14.0715 C   0  0  0  0  0  0  0  0  0  0  0  0
   23.7253  -14.3192  -15.4887 C   0  0  1  0  0  0  0  0  0  0  0  0
   23.7938  -12.9273  -15.5168 O   0  0  0  0  0  0  0  0  0  0  0  0
   25.0111  -14.8650  -16.0542 C   0  0  2  0  0  0  0  0  0  0  0  0
   25.1407  -14.3285  -17.3960 N   0  0  0  0  0  0  0  0  0  0  0  0
   25.0254  -16.3426  -16.1037 C   0  0  0  0  0  0  0  0  0  0  0  0
   24.2625  -17.0151  -16.8411 O   0  0  0  0  0  0  0  0  0  0  0  0
   25.9335  -17.0773  -15.2917 N   0  0  0  0  0  0  0  0  0  0  0  0
   25.8542  -18.5558  -15.2464 C   0  0  1  0  0  0  0  0  0  0  0  0
   27.0849  -19.0956  -14.5722 C   0  0  0  0  0  0  0  0  0  0  0  0
   27.1152  -20.5917  -14.6596 C   0  0  0  0  0  0  0  0  0  0  0  0
   27.7476  -21.0400  -15.9729 C   0  0  0  0  0  0  0  0  0  0  0  0
   27.7108  -22.5322  -16.0320 C   0  0  0  0  0  0  0  0  0  0  0  0
   28.3662  -23.0651  -17.2034 N   0  0  0  0  0  0  0  0  0  0  0  0
   24.6238  -18.9497  -14.5029 C   0  0  0  0  0  0  0  0  0  0  0  0
   24.3498  -18.4514  -13.3843 O   0  0  0  0  0  0  0  0  0  0  0  0
   16.4803  -18.6324  -16.5536 N   0  0  0  0  0  0  0  0  0  0  0  0
   17.4494  -17.6998  -16.0445 C   0  0  0  0  0  0  0  0  0  0  0  0
   17.2114  -16.4460  -16.1962 N   0  0  0  0  0  0  0  0  0  0  0  0
   18.5985  -18.1868  -15.4127 N   0  0  0  0  0  0  0  0  0  0  0  0
   18.7769  -19.6742  -15.3043 C   0  0  0  0  0  0  0  0  0  0  0  0
   19.9849  -19.9531  -14.5157 C   0  0  0  0  0  0  0  0  0  0  0  0
   21.3390  -19.7333  -15.0119 C   0  0  0  0  0  0  0  0  0  0  0  0
   22.4941  -20.2096  -14.2288 C   0  0  2  0  0  0  0  0  0  0  0  0
   23.7287  -19.8947  -15.0335 N   0  0  0  0  0  0  0  0  0  0  0  0
   22.6122  -21.6820  -14.0386 C   0  0  0  0  0  0  0  0  0  0  0  0
   21.9475  -22.5054  -13.2024 O   0  0  0  0  0  0  0  0  0  0  0  0
   23.4928  -22.2790  -14.7867 O   0  0  0  0  0  0  0  0  0  0  0  0
  2  1  1  1
  2  4  1  0
  3  2  1  0
  4  6  1  0
  4  5  1  6
  6  7  2  0
  8  6  1  0
  8  9  1  0
  9 10  1  1
 10 11  1  0
 11 12  1  0
 12 13  1  0
 13 14  1  0
 15  9  1  0
 15 25  1  0
 16 15  2  0
 17 18  1  0
 18 20  1  0
 19 18  2  0
 21 20  1  0
 21 22  1  0
 22 23  1  0
 24 25  1  0
 24 23  1  6
 26 24  1  0
 27 26  1  0
 28 26  2  0
M  END
$$$$
