TKR.pdb
     RDKit          3D

 28 27  0  0  1  0  0  0  0  0999 V2000
   26.8235  -21.3762  -10.5033 C   0  0  0  0  0  0  0  0  0  0  0  0
   25.3975  -21.3790  -10.9739 C   0  0  1  0  0  0  0  0  0  0  0  0
   24.6158  -21.9889   -9.9941 O   0  0  0  0  0  0  0  0  0  0  0  0
   24.8534  -19.9945  -11.2154 C   0  0  2  0  0  0  0  0  0  0  0  0
   24.7499  -19.3521   -9.9185 N   0  0  0  0  0  0  0  0  0  0  0  0
   23.5281  -20.0135  -11.8704 C   0  0  0  0  0  0  0  0  0  0  0  0
   22.4497  -19.8429  -11.2493 O   0  0  0  0  0  0  0  0  0  0  0  0
   23.4255  -20.2327  -13.2723 N   0  0  0  0  0  0  0  0  0  0  0  0
   22.0918  -20.3195  -13.9109 C   0  0  1  0  0  0  0  0  0  0  0  0
   22.2648  -20.4648  -15.3973 C   0  0  0  0  0  0  0  0  0  0  0  0
   21.0802  -19.8973  -16.1194 C   0  0  0  0  0  0  0  0  0  0  0  0
   20.9422  -18.4054  -15.8346 C   0  0  0  0  0  0  0  0  0  0  0  0
   19.7352  -17.8953  -16.5521 C   0  0  0  0  0  0  0  0  0  0  0  0
   19.3680  -16.5566  -16.1538 N   0  0  0  0  0  0  0  0  0  0  0  0
   21.3611  -21.4880  -13.3432 C   0  0  0  0  0  0  0  0  0  0  0  0
   21.9344  -22.5888  -13.1580 O   0  0  0  0  0  0  0  0  0  0  0  0
   17.0883  -23.9785   -7.1312 N   0  0  0  0  0  0  0  0  0  0  0  0
   18.0649  -25.0209   -7.2981 C   0  0  0  0  0  0  0  0  0  0  0  0
   18.3078  -25.7810   -6.2907 N   0  0  0  0  0  0  0  0  0  0  0  0
   18.7043  -25.1651   -8.5338 N   0  0  0  0  0  0  0  0  0  0  0  0
   18.3861  -24.1789   -9.6211 C   0  0  0  0  0  0  0  0  0  0  0  0
   19.5255  -23.2657   -9.7846 C   0  0  0  0  0  0  0  0  0  0  0  0
   19.5697  -22.2042  -10.7842 C   0  0  0  0  0  0  0  0  0  0  0  0
   19.4049  -22.5331  -12.2122 C   0  0  2  0  0  0  0  0  0  0  0  0
   20.0023  -21.3932  -12.9961 N   0  0  0  0  0  0  0  0  0  0  0  0
   18.0101  -22.5734  -12.7329 C   0  0  0  0  0  0  0  0  0  0  0  0
   17.1001  -23.5684  -12.7015 O   0  0  0  0  0  0  0  0  0  0  0  0
   17.5930  -21.4874  -13.3143 O   0  0  0  0  0  0  0  0  0  0  0  0
  2  1  1  1
  2  4  1  0
  3  2  1  0
  4  6  1  0
  4  5  1  1
  6  7  2  0
  8  6  1  0
  8  9  1  0
  9 10  1  6
 10 11  1  0
 11 12  1  0
 12 13  1  0
 13 14  1  0
 15  9  1  0
 15 25  1  0
 16 15  2  0
 17 18  1  0
 18 20  1  0
 19 18  2  0
 21 20  1  0
 21 22  1  0
 22 23  1  0
 24 25  1  0
 24 23  1  1
 26 24  1  0
 27 26  1  0
 28 26  2  0
M  END
$$$$
