TKR.pdb
     RDKit          3D

 28 27  0  0  1  0  0  0  0  0999 V2000
   22.7557  -14.4318  -14.4713 C   0  0  0  0  0  0  0  0  0  0  0  0
   23.5817  -13.8106  -15.5607 C   0  0  1  0  0  0  0  0  0  0  0  0
   23.5929  -12.4303  -15.3667 O   0  0  0  0  0  0  0  0  0  0  0  0
   25.0083  -14.2961  -15.5687 C   0  0  2  0  0  0  0  0  0  0  0  0
   25.6935  -13.5683  -16.6204 N   0  0  0  0  0  0  0  0  0  0  0  0
   25.1101  -15.7496  -15.8194 C   0  0  0  0  0  0  0  0  0  0  0  0
   24.5075  -16.3315  -16.7554 O   0  0  0  0  0  0  0  0  0  0  0  0
   25.9206  -16.5654  -14.9821 N   0  0  0  0  0  0  0  0  0  0  0  0
   26.0650  -18.0104  -15.2744 C   0  0  1  0  0  0  0  0  0  0  0  0
   27.3779  -18.4961  -14.7258 C   0  0  0  0  0  0  0  0  0  0  0  0
   27.4733  -19.9875  -14.8421 C   0  0  0  0  0  0  0  0  0  0  0  0
   28.3958  -20.3783  -15.9919 C   0  0  0  0  0  0  0  0  0  0  0  0
   28.5162  -21.8670  -16.0183 C   0  0  0  0  0  0  0  0  0  0  0  0
   29.4456  -22.3385  -17.0181 N   0  0  0  0  0  0  0  0  0  0  0  0
   24.9250  -18.7435  -14.6544 C   0  0  0  0  0  0  0  0  0  0  0  0
   24.5924  -18.5437  -13.4611 O   0  0  0  0  0  0  0  0  0  0  0  0
   18.3969  -20.1546  -11.5831 N   0  0  0  0  0  0  0  0  0  0  0  0
   18.2240  -21.3904  -12.2979 C   0  0  0  0  0  0  0  0  0  0  0  0
   17.4138  -22.2585  -11.8061 N   0  0  0  0  0  0  0  0  0  0  0  0
   18.9349  -21.5973  -13.4846 N   0  0  0  0  0  0  0  0  0  0  0  0
   20.0847  -20.6825  -13.7962 C   0  0  0  0  0  0  0  0  0  0  0  0
   20.7034  -21.1078  -15.0592 C   0  0  0  0  0  0  0  0  0  0  0  0
   21.9659  -20.5732  -15.5577 C   0  0  0  0  0  0  0  0  0  0  0  0
   23.1249  -20.4634  -14.6527 C   0  0  2  0  0  0  0  0  0  0  0  0
   24.1839  -19.6848  -15.3897 N   0  0  0  0  0  0  0  0  0  0  0  0
   23.8391  -21.7283  -14.3237 C   0  0  0  0  0  0  0  0  0  0  0  0
   23.6775  -22.5710  -13.2832 O   0  0  0  0  0  0  0  0  0  0  0  0
   24.7688  -22.0855  -15.1600 O   0  0  0  0  0  0  0  0  0  0  0  0
  2  1  1  1
  2  4  1  0
  3  2  1  0
  4  6  1  0
  4  5  1  6
  6  7  2  0
  8  6  1  0
  8  9  1  0
  9 10  1  1
 10 11  1  0
 11 12  1  0
 12 13  1  0
 13 14  1  0
 15  9  1  0
 15 25  1  0
 16 15  2  0
 17 18  1  0
 18 20  1  0
 19 18  2  0
 21 20  1  0
 21 22  1  0
 22 23  1  0
 24 25  1  0
 24 23  1  6
 26 24  1  0
 27 26  1  0
 28 26  2  0
M  END
$$$$
