TKR.pdb
     RDKit          3D

 28 27  0  0  1  0  0  0  0  0999 V2000
   24.2152  -21.4368   -7.8011 C   0  0  0  0  0  0  0  0  0  0  0  0
   24.2918  -20.9557   -9.2215 C   0  0  1  0  0  0  0  0  0  0  0  0
   23.5127  -19.8054   -9.3354 O   0  0  0  0  0  0  0  0  0  0  0  0
   25.6951  -20.6181   -9.6549 C   0  0  2  0  0  0  0  0  0  0  0  0
   26.1896  -19.6142   -8.7313 N   0  0  0  0  0  0  0  0  0  0  0  0
   25.7504  -20.0955  -11.0369 C   0  0  0  0  0  0  0  0  0  0  0  0
   25.5837  -18.8838  -11.3229 O   0  0  0  0  0  0  0  0  0  0  0  0
   26.0026  -20.9759  -12.1255 N   0  0  0  0  0  0  0  0  0  0  0  0
   26.0866  -20.4408  -13.5042 C   0  0  1  0  0  0  0  0  0  0  0  0
   27.0202  -21.2999  -14.3110 C   0  0  0  0  0  0  0  0  0  0  0  0
   27.1085  -20.7958  -15.7199 C   0  0  0  0  0  0  0  0  0  0  0  0
   27.9372  -21.7451  -16.5787 C   0  0  0  0  0  0  0  0  0  0  0  0
   28.1288  -21.1233  -17.9234 C   0  0  0  0  0  0  0  0  0  0  0  0
   29.0879  -21.8309  -18.7389 N   0  0  0  0  0  0  0  0  0  0  0  0
   24.7211  -20.4320  -14.1016 C   0  0  0  0  0  0  0  0  0  0  0  0
   23.8887  -21.3339  -13.8401 O   0  0  0  0  0  0  0  0  0  0  0  0
   19.9316  -15.8905  -18.3791 N   0  0  0  0  0  0  0  0  0  0  0  0
   18.8474  -16.0009  -17.4407 C   0  0  0  0  0  0  0  0  0  0  0  0
   17.6499  -15.8866  -17.8929 N   0  0  0  0  0  0  0  0  0  0  0  0
   19.1344  -16.2251  -16.0901 N   0  0  0  0  0  0  0  0  0  0  0  0
   20.5726  -16.2258  -15.6570 C   0  0  0  0  0  0  0  0  0  0  0  0
   21.0599  -17.6116  -15.6249 C   0  0  0  0  0  0  0  0  0  0  0  0
   22.4181  -17.9790  -15.2395 C   0  0  0  0  0  0  0  0  0  0  0  0
   22.8718  -19.3739  -15.3896 C   0  0  2  0  0  0  0  0  0  0  0  0
   24.3215  -19.4095  -14.9795 N   0  0  0  0  0  0  0  0  0  0  0  0
   22.9260  -19.9144  -16.7763 C   0  0  0  0  0  0  0  0  0  0  0  0
   21.9480  -20.4403  -17.5419 O   0  0  0  0  0  0  0  0  0  0  0  0
   24.0934  -19.8841  -17.3488 O   0  0  0  0  0  0  0  0  0  0  0  0
  2  1  1  1
  2  4  1  0
  3  2  1  0
  4  6  1  0
  4  5  1  1
  6  7  2  0
  8  6  1  0
  8  9  1  0
  9 10  1  6
 10 11  1  0
 11 12  1  0
 12 13  1  0
 13 14  1  0
 15  9  1  0
 15 25  1  0
 16 15  2  0
 17 18  1  0
 18 20  1  0
 19 18  2  0
 21 20  1  0
 21 22  1  0
 22 23  1  0
 24 25  1  0
 24 23  1  6
 26 24  1  0
 27 26  1  0
 28 26  2  0
M  END
$$$$
