TKR.pdb
     RDKit          3D

 28 27  0  0  1  0  0  0  0  0999 V2000
   18.4350  -25.2973    0.8785 C   0  0  0  0  0  0  0  0  0  0  0  0
   17.3317  -26.2744    1.1665 C   0  0  1  0  0  0  0  0  0  0  0  0
   16.1876  -25.8522    0.4912 O   0  0  0  0  0  0  0  0  0  0  0  0
   17.6531  -27.6762    0.7166 C   0  0  2  0  0  0  0  0  0  0  0  0
   18.7530  -28.1401    1.5416 N   0  0  0  0  0  0  0  0  0  0  0  0
   18.0379  -27.7387   -0.7096 C   0  0  0  0  0  0  0  0  0  0  0  0
   19.1358  -27.3126   -1.1467 O   0  0  0  0  0  0  0  0  0  0  0  0
   17.1490  -28.3019   -1.6668 N   0  0  0  0  0  0  0  0  0  0  0  0
   17.5737  -28.4376   -3.0794 C   0  0  1  0  0  0  0  0  0  0  0  0
   16.7524  -29.5092   -3.7409 C   0  0  0  0  0  0  0  0  0  0  0  0
   17.2448  -29.7599   -5.1343 C   0  0  0  0  0  0  0  0  0  0  0  0
   18.2517  -30.9052   -5.1498 C   0  0  0  0  0  0  0  0  0  0  0  0
   18.7545  -31.0757   -6.5462 C   0  0  0  0  0  0  0  0  0  0  0  0
   19.6217  -32.2208   -6.6958 N   0  0  0  0  0  0  0  0  0  0  0  0
   17.3910  -27.1271   -3.7655 C   0  0  0  0  0  0  0  0  0  0  0  0
   16.6831  -26.2208   -3.2632 O   0  0  0  0  0  0  0  0  0  0  0  0
   19.6121  -24.2917  -11.8955 N   0  0  0  0  0  0  0  0  0  0  0  0
   18.6692  -23.3468  -11.3604 C   0  0  0  0  0  0  0  0  0  0  0  0
   18.1796  -22.4697  -12.1621 N   0  0  0  0  0  0  0  0  0  0  0  0
   18.3263  -23.4177  -10.0061 N   0  0  0  0  0  0  0  0  0  0  0  0
   18.8646  -24.5599   -9.1928 C   0  0  0  0  0  0  0  0  0  0  0  0
   18.4502  -24.3858   -7.7939 C   0  0  0  0  0  0  0  0  0  0  0  0
   18.6882  -25.3804   -6.7537 C   0  0  0  0  0  0  0  0  0  0  0  0
   17.7212  -25.5356   -5.6513 C   0  0  2  0  0  0  0  0  0  0  0  0
   18.0082  -26.8643   -5.0007 N   0  0  0  0  0  0  0  0  0  0  0  0
   16.2886  -25.6775   -6.0330 C   0  0  0  0  0  0  0  0  0  0  0  0
   15.3366  -24.7363   -6.1969 O   0  0  0  0  0  0  0  0  0  0  0  0
   15.8773  -26.8938   -6.2397 O   0  0  0  0  0  0  0  0  0  0  0  0
  2  1  1  6
  2  4  1  0
  3  2  1  0
  4  6  1  0
  4  5  1  1
  6  7  2  0
  8  6  1  0
  8  9  1  0
  9 10  1  6
 10 11  1  0
 11 12  1  0
 12 13  1  0
 13 14  1  0
 15  9  1  0
 15 25  1  0
 16 15  2  0
 17 18  1  0
 18 20  1  0
 19 18  2  0
 21 20  1  0
 21 22  1  0
 22 23  1  0
 24 25  1  0
 24 23  1  6
 26 24  1  0
 27 26  1  0
 28 26  2  0
M  END
$$$$
