TKR.pdb
     RDKit          3D

 28 27  0  0  1  0  0  0  0  0999 V2000
   17.3982  -19.3298  -14.1757 C   0  0  0  0  0  0  0  0  0  0  0  0
   17.8463  -20.0595  -15.4093 C   0  0  1  0  0  0  0  0  0  0  0  0
   17.3573  -19.3769  -16.5220 O   0  0  0  0  0  0  0  0  0  0  0  0
   19.3459  -20.1453  -15.5317 C   0  0  2  0  0  0  0  0  0  0  0  0
   19.8110  -20.9634  -14.4273 N   0  0  0  0  0  0  0  0  0  0  0  0
   19.9949  -18.8180  -15.4777 C   0  0  0  0  0  0  0  0  0  0  0  0
   19.7393  -17.9609  -14.5957 O   0  0  0  0  0  0  0  0  0  0  0  0
   20.9629  -18.4543  -16.4547 N   0  0  0  0  0  0  0  0  0  0  0  0
   21.5963  -17.1162  -16.4048 C   0  0  1  0  0  0  0  0  0  0  0  0
   22.8761  -17.1463  -17.1933 C   0  0  0  0  0  0  0  0  0  0  0  0
   23.8052  -18.1857  -16.6425 C   0  0  0  0  0  0  0  0  0  0  0  0
   25.0555  -18.3009  -17.5080 C   0  0  0  0  0  0  0  0  0  0  0  0
   25.9696  -19.3074  -16.8891 C   0  0  0  0  0  0  0  0  0  0  0  0
   27.1416  -19.5707  -17.6908 N   0  0  0  0  0  0  0  0  0  0  0  0
   20.6481  -16.1131  -16.9671 C   0  0  0  0  0  0  0  0  0  0  0  0
   19.8721  -16.4052  -17.9091 O   0  0  0  0  0  0  0  0  0  0  0  0
   15.6154   -9.7210  -13.6236 N   0  0  0  0  0  0  0  0  0  0  0  0
   15.3904   -9.7031  -15.0439 C   0  0  0  0  0  0  0  0  0  0  0  0
   14.5381   -8.8588  -15.5047 N   0  0  0  0  0  0  0  0  0  0  0  0
   16.0981  -10.5937  -15.8579 N   0  0  0  0  0  0  0  0  0  0  0  0
   17.0494  -11.5552  -15.2048 C   0  0  0  0  0  0  0  0  0  0  0  0
   17.7868  -12.2794  -16.2492 C   0  0  0  0  0  0  0  0  0  0  0  0
   18.8269  -13.2624  -15.9661 C   0  0  0  0  0  0  0  0  0  0  0  0
   19.5927  -13.8608  -17.0751 C   0  0  2  0  0  0  0  0  0  0  0  0
   20.5928  -14.8041  -16.4579 N   0  0  0  0  0  0  0  0  0  0  0  0
   20.4688  -12.9431  -17.8551 C   0  0  0  0  0  0  0  0  0  0  0  0
   20.1578  -12.0711  -18.8359 O   0  0  0  0  0  0  0  0  0  0  0  0
   21.7340  -12.9811  -17.5565 O   0  0  0  0  0  0  0  0  0  0  0  0
  2  1  1  1
  2  4  1  0
  3  2  1  0
  4  6  1  0
  4  5  1  1
  6  7  2  0
  8  6  1  0
  8  9  1  0
  9 10  1  6
 10 11  1  0
 11 12  1  0
 12 13  1  0
 13 14  1  0
 15  9  1  0
 15 25  1  0
 16 15  2  0
 17 18  1  0
 18 20  1  0
 19 18  2  0
 21 20  1  0
 21 22  1  0
 22 23  1  0
 24 25  1  0
 24 23  1  1
 26 24  1  0
 27 26  1  0
 28 26  2  0
M  END
$$$$
