TKR.pdb
     RDKit          3D

 28 27  0  0  1  0  0  0  0  0999 V2000
   18.1272  -14.0462  -16.0094 C   0  0  0  0  0  0  0  0  0  0  0  0
   16.6751  -14.1671  -15.6463 C   0  0  1  0  0  0  0  0  0  0  0  0
   16.5675  -15.0350  -14.5608 O   0  0  0  0  0  0  0  0  0  0  0  0
   16.0524  -12.8505  -15.2594 C   0  0  2  0  0  0  0  0  0  0  0  0
   15.6493  -12.1987  -16.4915 N   0  0  0  0  0  0  0  0  0  0  0  0
   16.9872  -11.9789  -14.5163 C   0  0  0  0  0  0  0  0  0  0  0  0
   17.6147  -12.3537  -13.4946 O   0  0  0  0  0  0  0  0  0  0  0  0
   17.2157  -10.6425  -14.9469 N   0  0  0  0  0  0  0  0  0  0  0  0
   18.0536   -9.7356  -14.1286 C   0  0  1  0  0  0  0  0  0  0  0  0
   18.8588   -8.8512  -15.0397 C   0  0  0  0  0  0  0  0  0  0  0  0
   19.8256   -9.6691  -15.8417 C   0  0  0  0  0  0  0  0  0  0  0  0
   20.6792   -8.7715  -16.7313 C   0  0  0  0  0  0  0  0  0  0  0  0
   21.5457   -9.6372  -17.5865 C   0  0  0  0  0  0  0  0  0  0  0  0
   22.6096  -10.2742  -16.8462 N   0  0  0  0  0  0  0  0  0  0  0  0
   17.1666   -8.9247  -13.2470 C   0  0  0  0  0  0  0  0  0  0  0  0
   16.0713   -8.4733  -13.6610 O   0  0  0  0  0  0  0  0  0  0  0  0
   11.8601   -8.6534   -7.2993 N   0  0  0  0  0  0  0  0  0  0  0  0
   12.4862   -7.3953   -6.9936 C   0  0  0  0  0  0  0  0  0  0  0  0
   11.7928   -6.5202   -6.3570 N   0  0  0  0  0  0  0  0  0  0  0  0
   13.8077   -7.1754   -7.3959 N   0  0  0  0  0  0  0  0  0  0  0  0
   14.4291   -8.1418   -8.3633 C   0  0  0  0  0  0  0  0  0  0  0  0
   15.7725   -7.6636   -8.7180 C   0  0  0  0  0  0  0  0  0  0  0  0
   16.6074   -8.2905   -9.7368 C   0  0  0  0  0  0  0  0  0  0  0  0
   16.5983   -7.7693  -11.1161 C   0  0  2  0  0  0  0  0  0  0  0  0
   17.5301   -8.6395  -11.9194 N   0  0  0  0  0  0  0  0  0  0  0  0
   17.1800   -6.4140  -11.3232 C   0  0  0  0  0  0  0  0  0  0  0  0
   16.5948   -5.2002  -11.2663 O   0  0  0  0  0  0  0  0  0  0  0  0
   18.4486   -6.3817  -11.6077 O   0  0  0  0  0  0  0  0  0  0  0  0
  2  1  1  1
  2  4  1  0
  3  2  1  0
  4  6  1  0
  4  5  1  6
  6  7  2  0
  8  6  1  0
  8  9  1  0
  9 10  1  6
 10 11  1  0
 11 12  1  0
 12 13  1  0
 13 14  1  0
 15  9  1  0
 15 25  1  0
 16 15  2  0
 17 18  1  0
 18 20  1  0
 19 18  2  0
 21 20  1  0
 21 22  1  0
 22 23  1  0
 24 25  1  0
 24 23  1  1
 26 24  1  0
 27 26  1  0
 28 26  2  0
M  END
$$$$
