TKR.pdb
     RDKit          3D

 28 27  0  0  1  0  0  0  0  0999 V2000
   19.0023  -18.0864  -14.9077 C   0  0  0  0  0  0  0  0  0  0  0  0
   20.3340  -18.7537  -14.7169 C   0  0  1  0  0  0  0  0  0  0  0  0
   20.3091  -19.4383  -13.5029 O   0  0  0  0  0  0  0  0  0  0  0  0
   20.6602  -19.7414  -15.8073 C   0  0  2  0  0  0  0  0  0  0  0  0
   19.7783  -20.8785  -15.6213 N   0  0  0  0  0  0  0  0  0  0  0  0
   22.0685  -20.1893  -15.7625 C   0  0  0  0  0  0  0  0  0  0  0  0
   22.4716  -21.1240  -15.0264 O   0  0  0  0  0  0  0  0  0  0  0  0
   23.0472  -19.5564  -16.5782 N   0  0  0  0  0  0  0  0  0  0  0  0
   24.4487  -20.0357  -16.5571 C   0  0  1  0  0  0  0  0  0  0  0  0
   25.1986  -19.4187  -17.7049 C   0  0  0  0  0  0  0  0  0  0  0  0
   26.6215  -19.8902  -17.7134 C   0  0  0  0  0  0  0  0  0  0  0  0
   27.3744  -19.3030  -18.9025 C   0  0  0  0  0  0  0  0  0  0  0  0
   28.7710  -19.8328  -18.8880 C   0  0  0  0  0  0  0  0  0  0  0  0
   29.5781  -19.3209  -19.9708 N   0  0  0  0  0  0  0  0  0  0  0  0
   25.0668  -19.6599  -15.2539 C   0  0  0  0  0  0  0  0  0  0  0  0
   24.9164  -18.5131  -14.7670 O   0  0  0  0  0  0  0  0  0  0  0  0
   24.9736  -21.3612   -7.8067 N   0  0  0  0  0  0  0  0  0  0  0  0
   26.0577  -20.4210   -7.7125 C   0  0  0  0  0  0  0  0  0  0  0  0
   26.8368  -20.5052   -6.6938 N   0  0  0  0  0  0  0  0  0  0  0  0
   26.2200  -19.4638   -8.7196 N   0  0  0  0  0  0  0  0  0  0  0  0
   25.5516  -19.7010  -10.0436 C   0  0  0  0  0  0  0  0  0  0  0  0
   26.3138  -20.7132  -10.7876 C   0  0  0  0  0  0  0  0  0  0  0  0
   26.0640  -21.0417  -12.1868 C   0  0  0  0  0  0  0  0  0  0  0  0
   26.4713  -20.1001  -13.2460 C   0  0  2  0  0  0  0  0  0  0  0  0
   25.8398  -20.5815  -14.5267 N   0  0  0  0  0  0  0  0  0  0  0  0
   27.9177  -20.0764  -13.6003 C   0  0  0  0  0  0  0  0  0  0  0  0
   28.9277  -19.3510  -13.0780 O   0  0  0  0  0  0  0  0  0  0  0  0
   28.2757  -20.8719  -14.5649 O   0  0  0  0  0  0  0  0  0  0  0  0
  2  1  1  6
  2  4  1  0
  3  2  1  0
  4  6  1  0
  4  5  1  1
  6  7  2  0
  8  6  1  0
  8  9  1  0
  9 10  1  6
 10 11  1  0
 11 12  1  0
 12 13  1  0
 13 14  1  0
 15  9  1  0
 15 25  1  0
 16 15  2  0
 17 18  1  0
 18 20  1  0
 19 18  2  0
 21 20  1  0
 21 22  1  0
 22 23  1  0
 24 25  1  0
 24 23  1  1
 26 24  1  0
 27 26  1  0
 28 26  2  0
M  END
$$$$
