TKR.pdb
     RDKit          3D

 28 27  0  0  1  0  0  0  0  0999 V2000
   14.5275  -13.5118  -14.6708 C   0  0  0  0  0  0  0  0  0  0  0  0
   15.6081  -12.7039  -14.0116 C   0  0  1  0  0  0  0  0  0  0  0  0
   16.8273  -13.0496  -14.5923 O   0  0  0  0  0  0  0  0  0  0  0  0
   15.4149  -11.2181  -14.1725 C   0  0  2  0  0  0  0  0  0  0  0  0
   15.5378  -10.9298  -15.5892 N   0  0  0  0  0  0  0  0  0  0  0  0
   16.4121  -10.4324  -13.4148 C   0  0  0  0  0  0  0  0  0  0  0  0
   16.5729  -10.5365  -12.1733 O   0  0  0  0  0  0  0  0  0  0  0  0
   17.2510   -9.5012  -14.0877 N   0  0  0  0  0  0  0  0  0  0  0  0
   18.1135   -8.5848  -13.3063 C   0  0  1  0  0  0  0  0  0  0  0  0
   18.9028   -7.7232  -14.2524 C   0  0  0  0  0  0  0  0  0  0  0  0
   19.5601   -6.5986  -13.5107 C   0  0  0  0  0  0  0  0  0  0  0  0
   20.7448   -6.0540  -14.3015 C   0  0  0  0  0  0  0  0  0  0  0  0
   21.4055   -4.9868  -13.4913 C   0  0  0  0  0  0  0  0  0  0  0  0
   22.5486   -4.4039  -14.1541 N   0  0  0  0  0  0  0  0  0  0  0  0
   17.2523   -7.7514  -12.4199 C   0  0  0  0  0  0  0  0  0  0  0  0
   16.2830   -7.0991  -12.8778 O   0  0  0  0  0  0  0  0  0  0  0  0
   11.0341   -8.7899   -7.0139 N   0  0  0  0  0  0  0  0  0  0  0  0
   11.2997   -7.3768   -6.9868 C   0  0  0  0  0  0  0  0  0  0  0  0
   10.3704   -6.6008   -6.5557 N   0  0  0  0  0  0  0  0  0  0  0  0
   12.5425   -6.9078   -7.4251 N   0  0  0  0  0  0  0  0  0  0  0  0
   13.4115   -7.8331   -8.2280 C   0  0  0  0  0  0  0  0  0  0  0  0
   14.5981   -7.0964   -8.6842 C   0  0  0  0  0  0  0  0  0  0  0  0
   15.6101   -7.6667   -9.5667 C   0  0  0  0  0  0  0  0  0  0  0  0
   16.5937   -6.7851  -10.2221 C   0  0  2  0  0  0  0  0  0  0  0  0
   17.4997   -7.6702  -11.0386 N   0  0  0  0  0  0  0  0  0  0  0  0
   17.5607   -6.0836   -9.3327 C   0  0  0  0  0  0  0  0  0  0  0  0
   17.4034   -4.9727   -8.5842 O   0  0  0  0  0  0  0  0  0  0  0  0
   18.7467   -6.6121   -9.2602 O   0  0  0  0  0  0  0  0  0  0  0  0
  2  1  1  6
  2  4  1  0
  3  2  1  0
  4  6  1  0
  4  5  1  6
  6  7  2  0
  8  6  1  0
  8  9  1  0
  9 10  1  6
 10 11  1  0
 11 12  1  0
 12 13  1  0
 13 14  1  0
 15  9  1  0
 15 25  1  0
 16 15  2  0
 17 18  1  0
 18 20  1  0
 19 18  2  0
 21 20  1  0
 21 22  1  0
 22 23  1  0
 24 25  1  0
 24 23  1  1
 26 24  1  0
 27 26  1  0
 28 26  2  0
M  END
$$$$
