TKR.pdb
     RDKit          3D

 28 27  0  0  1  0  0  0  0  0999 V2000
   21.4952  -28.8284   -9.6519 C   0  0  0  0  0  0  0  0  0  0  0  0
   20.4961  -28.6890  -10.7642 C   0  0  1  0  0  0  0  0  0  0  0  0
   19.3460  -29.3917  -10.4084 O   0  0  0  0  0  0  0  0  0  0  0  0
   20.1086  -27.2577  -11.0329 C   0  0  2  0  0  0  0  0  0  0  0  0
   21.3001  -26.5834  -11.5135 N   0  0  0  0  0  0  0  0  0  0  0  0
   19.6001  -26.5729   -9.8253 C   0  0  0  0  0  0  0  0  0  0  0  0
   20.3402  -25.9554   -9.0198 O   0  0  0  0  0  0  0  0  0  0  0  0
   18.2098  -26.5902   -9.5245 N   0  0  0  0  0  0  0  0  0  0  0  0
   17.6992  -25.8503   -8.3471 C   0  0  1  0  0  0  0  0  0  0  0  0
   16.4351  -25.1303   -8.7268 C   0  0  0  0  0  0  0  0  0  0  0  0
   15.9334  -24.3124   -7.5752 C   0  0  0  0  0  0  0  0  0  0  0  0
   14.6891  -23.5273   -7.9763 C   0  0  0  0  0  0  0  0  0  0  0  0
   14.2019  -22.7694   -6.7847 C   0  0  0  0  0  0  0  0  0  0  0  0
   12.9827  -22.0394   -7.0423 N   0  0  0  0  0  0  0  0  0  0  0  0
   17.4492  -26.8180   -7.2414 C   0  0  0  0  0  0  0  0  0  0  0  0
   17.2682  -28.0384   -7.4708 O   0  0  0  0  0  0  0  0  0  0  0  0
   18.3711  -26.4541    1.6957 N   0  0  0  0  0  0  0  0  0  0  0  0
   17.8628  -27.7609    1.3761 C   0  0  0  0  0  0  0  0  0  0  0  0
   17.6588  -28.5782    2.3468 N   0  0  0  0  0  0  0  0  0  0  0  0
   17.6136  -28.0878    0.0390 N   0  0  0  0  0  0  0  0  0  0  0  0
   17.9802  -27.0877   -1.0200 C   0  0  0  0  0  0  0  0  0  0  0  0
   17.5779  -27.6136   -2.3317 C   0  0  0  0  0  0  0  0  0  0  0  0
   17.7359  -26.8737   -3.5789 C   0  0  0  0  0  0  0  0  0  0  0  0
   17.2412  -27.4507   -4.8425 C   0  0  2  0  0  0  0  0  0  0  0  0
   17.4084  -26.3925   -5.9024 N   0  0  0  0  0  0  0  0  0  0  0  0
   15.7826  -27.7421   -4.9192 C   0  0  0  0  0  0  0  0  0  0  0  0
   15.1045  -28.8660   -4.6091 O   0  0  0  0  0  0  0  0  0  0  0  0
   15.0352  -26.7713   -5.3552 O   0  0  0  0  0  0  0  0  0  0  0  0
  2  1  1  1
  2  4  1  0
  3  2  1  0
  4  6  1  0
  4  5  1  1
  6  7  2  0
  8  6  1  0
  8  9  1  0
  9 10  1  6
 10 11  1  0
 11 12  1  0
 12 13  1  0
 13 14  1  0
 15  9  1  0
 15 25  1  0
 16 15  2  0
 17 18  1  0
 18 20  1  0
 19 18  2  0
 21 20  1  0
 21 22  1  0
 22 23  1  0
 24 25  1  0
 24 23  1  1
 26 24  1  0
 27 26  1  0
 28 26  2  0
M  END
$$$$
