TKR.pdb
     RDKit          3D

 28 27  0  0  1  0  0  0  0  0999 V2000
   28.2618  -22.3126  -15.3845 C   0  0  0  0  0  0  0  0  0  0  0  0
   27.2380  -21.2956  -15.8001 C   0  0  1  0  0  0  0  0  0  0  0  0
   26.0045  -21.6787  -15.2761 O   0  0  0  0  0  0  0  0  0  0  0  0
   27.5499  -19.9076  -15.3026 C   0  0  2  0  0  0  0  0  0  0  0  0
   27.5667  -19.9752  -13.8533 N   0  0  0  0  0  0  0  0  0  0  0  0
   26.5516  -18.9105  -15.7444 C   0  0  0  0  0  0  0  0  0  0  0  0
   25.7011  -18.3987  -14.9746 O   0  0  0  0  0  0  0  0  0  0  0  0
   26.5192  -18.4825  -17.1007 N   0  0  0  0  0  0  0  0  0  0  0  0
   25.5477  -17.4483  -17.5261 C   0  0  1  0  0  0  0  0  0  0  0  0
   25.9279  -16.9458  -18.8911 C   0  0  0  0  0  0  0  0  0  0  0  0
   27.0359  -15.9414  -18.7885 C   0  0  0  0  0  0  0  0  0  0  0  0
   27.4532  -15.4592  -20.1738 C   0  0  0  0  0  0  0  0  0  0  0  0
   28.6714  -14.6062  -20.0320 C   0  0  0  0  0  0  0  0  0  0  0  0
   29.1861  -14.1454  -21.3002 N   0  0  0  0  0  0  0  0  0  0  0  0
   24.1826  -18.0465  -17.5401 C   0  0  0  0  0  0  0  0  0  0  0  0
   23.9960  -19.2383  -17.8858 O   0  0  0  0  0  0  0  0  0  0  0  0
   19.8040  -21.9563  -12.2199 N   0  0  0  0  0  0  0  0  0  0  0  0
   20.4805  -22.4138  -13.4037 C   0  0  0  0  0  0  0  0  0  0  0  0
   20.9727  -23.6009  -13.3914 N   0  0  0  0  0  0  0  0  0  0  0  0
   20.5756  -21.5603  -14.5079 N   0  0  0  0  0  0  0  0  0  0  0  0
   20.1166  -20.1386  -14.3523 C   0  0  0  0  0  0  0  0  0  0  0  0
   20.3492  -19.4220  -15.6137 C   0  0  0  0  0  0  0  0  0  0  0  0
   21.5940  -18.7298  -15.9289 C   0  0  0  0  0  0  0  0  0  0  0  0
   21.7181  -17.9817  -17.1935 C   0  0  2  0  0  0  0  0  0  0  0  0
   23.0576  -17.2919  -17.1649 N   0  0  0  0  0  0  0  0  0  0  0  0
   20.7826  -16.8395  -17.3898 C   0  0  0  0  0  0  0  0  0  0  0  0
   21.0326  -15.5166  -17.4700 O   0  0  0  0  0  0  0  0  0  0  0  0
   19.5249  -17.1522  -17.4986 O   0  0  0  0  0  0  0  0  0  0  0  0
  2  1  1  1
  2  4  1  0
  3  2  1  0
  4  6  1  0
  4  5  1  1
  6  7  2  0
  8  6  1  0
  8  9  1  0
  9 10  1  6
 10 11  1  0
 11 12  1  0
 12 13  1  0
 13 14  1  0
 15  9  1  0
 15 25  1  0
 16 15  2  0
 17 18  1  0
 18 20  1  0
 19 18  2  0
 21 20  1  0
 21 22  1  0
 22 23  1  0
 24 25  1  0
 24 23  1  1
 26 24  1  0
 27 26  1  0
 28 26  2  0
M  END
$$$$
