III.pdb
     RDKit          3D

 25 24  0  0  1  0  0  0  0  0999 V2000
   24.8218  -17.9363  -18.7233 C   0  0  0  0  0  0  0  0  0  0  0  0
   25.2772  -18.9400  -17.6647 C   0  0  0  0  0  0  0  0  0  0  0  0
   24.7929  -18.5630  -16.3076 C   0  0  2  0  0  0  0  0  0  0  0  0
   24.9816  -17.1213  -15.9704 C   0  0  0  0  0  0  0  0  0  0  0  0
   25.3704  -19.5206  -15.2832 C   0  0  2  0  0  0  0  0  0  0  0  0
   25.0862  -20.8472  -15.8365 N   0  0  0  0  0  0  0  0  0  0  0  0
   24.7636  -19.3826  -13.9381 C   0  0  0  0  0  0  0  0  0  0  0  0
   24.8875  -18.2928  -13.2714 O   0  0  0  0  0  0  0  0  0  0  0  0
   19.8062  -20.9146  -12.8965 C   0  0  0  0  0  0  0  0  0  0  0  0
   21.1351  -20.1886  -13.0037 C   0  0  0  0  0  0  0  0  0  0  0  0
   22.0359  -20.7783  -11.9320 C   0  0  2  0  0  0  0  0  0  0  0  0
   21.4003  -20.6581  -10.5606 C   0  0  0  0  0  0  0  0  0  0  0  0
   23.4163  -20.1448  -11.9530 C   0  0  2  0  0  0  0  0  0  0  0  0
   24.0157  -20.3853  -13.2746 N   0  0  0  0  0  0  0  0  0  0  0  0
   24.2202  -20.7979  -10.8927 C   0  0  0  0  0  0  0  0  0  0  0  0
   24.6302  -21.9835  -11.0741 O   0  0  0  0  0  0  0  0  0  0  0  0
   27.7489  -18.0493   -7.8314 C   0  0  0  0  0  0  0  0  0  0  0  0
   27.0759  -19.1644   -8.6287 C   0  0  0  0  0  0  0  0  0  0  0  0
   26.0908  -19.9184   -7.7782 C   0  0  2  0  0  0  0  0  0  0  0  0
   26.7311  -20.4997   -6.5450 C   0  0  0  0  0  0  0  0  0  0  0  0
   25.3252  -20.8755   -8.6057 C   0  0  2  0  0  0  0  0  0  0  0  0
   24.5704  -20.1862   -9.6717 N   0  0  0  0  0  0  0  0  0  0  0  0
   24.3371  -21.6449   -7.8521 C   0  0  0  0  0  0  0  0  0  0  0  0
   24.6677  -22.8709   -7.3091 O   0  0  0  0  0  0  0  0  0  0  0  0
   23.1774  -21.2367   -7.6708 O   0  0  0  0  0  0  0  0  0  0  0  0
  2  1  1  0
  3  2  1  0
  3  4  1  1
  5  7  1  0
  5  3  1  0
  5  6  1  6
  7  8  2  0
 10  9  1  0
 11 10  1  0
 11 13  1  0
 11 12  1  1
 13 14  1  6
 14  7  1  0
 15 16  2  0
 15 13  1  0
 17 18  1  0
 18 19  1  0
 19 21  1  0
 19 20  1  1
 21 22  1  6
 21 23  1  0
 22 15  1  0
 23 24  1  0
 25 23  2  0
M  END
$$$$
