III.pdb
     RDKit          3D

 25 24  0  0  1  0  0  0  0  0999 V2000
   19.3113  -17.3675  -17.2230 C   0  0  0  0  0  0  0  0  0  0  0  0
   18.5976  -16.3283  -18.0868 C   0  0  0  0  0  0  0  0  0  0  0  0
   19.2228  -14.9829  -17.9548 C   0  0  2  0  0  0  0  0  0  0  0  0
   19.4314  -14.5421  -16.5442 C   0  0  0  0  0  0  0  0  0  0  0  0
   18.4616  -13.9882  -18.8098 C   0  0  2  0  0  0  0  0  0  0  0  0
   18.5334  -14.5516  -20.1603 N   0  0  0  0  0  0  0  0  0  0  0  0
   19.0429  -12.6251  -18.7886 C   0  0  0  0  0  0  0  0  0  0  0  0
   20.2037  -12.3993  -19.2877 O   0  0  0  0  0  0  0  0  0  0  0  0
   16.5958   -8.2885  -20.4101 C   0  0  0  0  0  0  0  0  0  0  0  0
   17.6669   -9.3247  -20.1210 C   0  0  0  0  0  0  0  0  0  0  0  0
   18.0905   -9.1153  -18.6773 C   0  0  2  0  0  0  0  0  0  0  0  0
   18.6443   -7.7189  -18.4701 C   0  0  0  0  0  0  0  0  0  0  0  0
   19.0864  -10.1711  -18.2293 C   0  0  2  0  0  0  0  0  0  0  0  0
   18.4131  -11.4788  -18.2460 N   0  0  0  0  0  0  0  0  0  0  0  0
   19.5111   -9.8243  -16.8522 C   0  0  0  0  0  0  0  0  0  0  0  0
   18.6648   -9.8957  -15.9113 O   0  0  0  0  0  0  0  0  0  0  0  0
   23.6433  -12.0383  -14.8099 C   0  0  0  0  0  0  0  0  0  0  0  0
   22.3257  -11.3024  -15.0431 C   0  0  0  0  0  0  0  0  0  0  0  0
   22.4692   -9.8329  -14.7566 C   0  0  2  0  0  0  0  0  0  0  0  0
   22.9850   -9.5716  -13.3658 C   0  0  0  0  0  0  0  0  0  0  0  0
   21.2267   -9.1161  -15.1166 C   0  0  2  0  0  0  0  0  0  0  0  0
   20.8134   -9.4123  -16.5031 N   0  0  0  0  0  0  0  0  0  0  0  0
   21.3437   -7.6613  -15.0383 C   0  0  0  0  0  0  0  0  0  0  0  0
   20.9715   -6.9879  -13.8914 O   0  0  0  0  0  0  0  0  0  0  0  0
   21.7751   -6.9794  -15.9835 O   0  0  0  0  0  0  0  0  0  0  0  0
  2  1  1  0
  3  2  1  0
  3  4  1  1
  5  7  1  0
  5  3  1  0
  5  6  1  6
  7  8  2  0
 10  9  1  0
 11 10  1  0
 11 13  1  0
 11 12  1  6
 13 14  1  1
 14  7  1  0
 15 16  2  0
 15 13  1  0
 17 18  1  0
 18 19  1  0
 19 21  1  0
 19 20  1  1
 21 22  1  6
 21 23  1  0
 22 15  1  0
 23 24  1  0
 25 23  2  0
M  END
$$$$
