III.pdb
     RDKit          3D

 25 24  0  0  1  0  0  0  0  0999 V2000
   23.1013  -19.2583  -16.5233 C   0  0  0  0  0  0  0  0  0  0  0  0
   22.1916  -19.0643  -15.3108 C   0  0  0  0  0  0  0  0  0  0  0  0
   22.2605  -20.2267  -14.3821 C   0  0  2  0  0  0  0  0  0  0  0  0
   22.1286  -21.5533  -15.0533 C   0  0  0  0  0  0  0  0  0  0  0  0
   21.2920  -20.0125  -13.2350 C   0  0  2  0  0  0  0  0  0  0  0  0
   21.4952  -18.6122  -12.8546 N   0  0  0  0  0  0  0  0  0  0  0  0
   21.5425  -20.9025  -12.0768 C   0  0  0  0  0  0  0  0  0  0  0  0
   21.3176  -22.1637  -12.1581 O   0  0  0  0  0  0  0  0  0  0  0  0
   25.4902  -19.9423   -8.4254 C   0  0  0  0  0  0  0  0  0  0  0  0
   24.6118  -20.6754   -9.4233 C   0  0  0  0  0  0  0  0  0  0  0  0
   23.2580  -20.8520   -8.7572 C   0  0  2  0  0  0  0  0  0  0  0  0
   23.3750  -21.6953   -7.5024 C   0  0  0  0  0  0  0  0  0  0  0  0
   22.2364  -21.4373   -9.7168 C   0  0  2  0  0  0  0  0  0  0  0  0
   22.0353  -20.4825  -10.8175 N   0  0  0  0  0  0  0  0  0  0  0  0
   20.9762  -21.6289   -8.9603 C   0  0  0  0  0  0  0  0  0  0  0  0
   20.2800  -20.6138   -8.6578 O   0  0  0  0  0  0  0  0  0  0  0  0
   17.2564  -24.0200  -10.9746 C   0  0  0  0  0  0  0  0  0  0  0  0
   17.9354  -23.1011   -9.9614 C   0  0  0  0  0  0  0  0  0  0  0  0
   18.2381  -23.8349   -8.6839 C   0  0  2  0  0  0  0  0  0  0  0  0
   16.9873  -24.2869   -7.9769 C   0  0  0  0  0  0  0  0  0  0  0  0
   19.1869  -23.0574   -7.8579 C   0  0  2  0  0  0  0  0  0  0  0  0
   20.4834  -22.8822   -8.5432 N   0  0  0  0  0  0  0  0  0  0  0  0
   19.4969  -23.6823   -6.5735 C   0  0  0  0  0  0  0  0  0  0  0  0
   20.6446  -24.4345   -6.4177 O   0  0  0  0  0  0  0  0  0  0  0  0
   18.7545  -23.5660   -5.5836 O   0  0  0  0  0  0  0  0  0  0  0  0
  2  1  1  0
  3  2  1  0
  3  4  1  6
  5  7  1  0
  5  3  1  0
  5  6  1  1
  7  8  2  0
 10  9  1  0
 11 10  1  0
 11 13  1  0
 11 12  1  1
 13 14  1  6
 14  7  1  0
 15 16  2  0
 15 13  1  0
 17 18  1  0
 18 19  1  0
 19 21  1  0
 19 20  1  1
 21 22  1  6
 21 23  1  0
 22 15  1  0
 23 24  1  0
 25 23  2  0
M  END
$$$$
