III.pdb
     RDKit          3D

 25 24  0  0  1  0  0  0  0  0999 V2000
   20.3129  -21.5733  -16.3755 C   0  0  0  0  0  0  0  0  0  0  0  0
   21.1239  -20.5740  -15.5512 C   0  0  0  0  0  0  0  0  0  0  0  0
   22.0504  -21.2634  -14.6106 C   0  0  2  0  0  0  0  0  0  0  0  0
   21.4100  -22.3447  -13.8052 C   0  0  0  0  0  0  0  0  0  0  0  0
   22.7898  -20.2290  -13.7840 C   0  0  2  0  0  0  0  0  0  0  0  0
   23.3843  -19.3355  -14.7814 N   0  0  0  0  0  0  0  0  0  0  0  0
   23.8437  -20.8087  -12.9183 C   0  0  0  0  0  0  0  0  0  0  0  0
   23.5447  -21.6444  -11.9910 O   0  0  0  0  0  0  0  0  0  0  0  0
   29.1968  -21.0693  -14.3715 C   0  0  0  0  0  0  0  0  0  0  0  0
   27.8013  -21.4577  -13.9171 C   0  0  0  0  0  0  0  0  0  0  0  0
   27.5918  -20.8037  -12.5622 C   0  0  2  0  0  0  0  0  0  0  0  0
   28.6383  -21.2664  -11.5672 C   0  0  0  0  0  0  0  0  0  0  0  0
   26.1887  -21.0497  -12.0350 C   0  0  2  0  0  0  0  0  0  0  0  0
   25.2270  -20.5220  -13.0150 N   0  0  0  0  0  0  0  0  0  0  0  0
   26.0656  -20.3264  -10.7470 C   0  0  0  0  0  0  0  0  0  0  0  0
   25.7837  -19.0908  -10.7600 O   0  0  0  0  0  0  0  0  0  0  0  0
   22.9626  -21.9123   -6.8581 C   0  0  0  0  0  0  0  0  0  0  0  0
   23.8297  -21.0668   -7.7883 C   0  0  0  0  0  0  0  0  0  0  0  0
   25.2316  -20.9442   -7.2576 C   0  0  2  0  0  0  0  0  0  0  0  0
   25.2609  -20.4473   -5.8360 C   0  0  0  0  0  0  0  0  0  0  0  0
   26.0766  -20.1912   -8.2095 C   0  0  2  0  0  0  0  0  0  0  0  0
   26.2425  -20.9227   -9.4817 N   0  0  0  0  0  0  0  0  0  0  0  0
   27.4292  -19.9344   -7.7188 C   0  0  0  0  0  0  0  0  0  0  0  0
   27.6988  -18.8141   -6.9575 O   0  0  0  0  0  0  0  0  0  0  0  0
   28.3784  -20.6992   -7.9611 O   0  0  0  0  0  0  0  0  0  0  0  0
  2  1  1  0
  3  2  1  0
  3  4  1  1
  5  7  1  0
  5  3  1  0
  5  6  1  6
  7  8  2  0
 10  9  1  0
 11 10  1  0
 11 13  1  0
 11 12  1  1
 13 14  1  6
 14  7  1  0
 15 16  2  0
 15 13  1  0
 17 18  1  0
 18 19  1  0
 19 21  1  0
 19 20  1  1
 21 22  1  6
 21 23  1  0
 22 15  1  0
 23 24  1  0
 25 23  2  0
M  END
$$$$
