III.pdb
     RDKit          3D

 25 24  0  0  1  0  0  0  0  0999 V2000
   28.2926  -17.6930  -17.0586 C   0  0  0  0  0  0  0  0  0  0  0  0
   28.7218  -18.6820  -15.9754 C   0  0  0  0  0  0  0  0  0  0  0  0
   27.5548  -19.1844  -15.1982 C   0  0  2  0  0  0  0  0  0  0  0  0
   26.6756  -18.1087  -14.6527 C   0  0  0  0  0  0  0  0  0  0  0  0
   28.0330  -20.1811  -14.1600 C   0  0  2  0  0  0  0  0  0  0  0  0
   28.7250  -21.2072  -14.9442 N   0  0  0  0  0  0  0  0  0  0  0  0
   26.9332  -20.7880  -13.3738 C   0  0  0  0  0  0  0  0  0  0  0  0
   26.2283  -21.7436  -13.8612 O   0  0  0  0  0  0  0  0  0  0  0  0
   26.6424  -20.3052   -7.8865 C   0  0  0  0  0  0  0  0  0  0  0  0
   26.6234  -21.0169   -9.2273 C   0  0  0  0  0  0  0  0  0  0  0  0
   25.3768  -20.5382   -9.9515 C   0  0  2  0  0  0  0  0  0  0  0  0
   24.1216  -21.0030   -9.2389 C   0  0  0  0  0  0  0  0  0  0  0  0
   25.3742  -20.9755  -11.4061 C   0  0  2  0  0  0  0  0  0  0  0  0
   26.5590  -20.4030  -12.0635 N   0  0  0  0  0  0  0  0  0  0  0  0
   24.1338  -20.4504  -12.0249 C   0  0  0  0  0  0  0  0  0  0  0  0
   23.9597  -19.1964  -12.0851 O   0  0  0  0  0  0  0  0  0  0  0  0
   22.7535  -21.6985  -16.7588 C   0  0  0  0  0  0  0  0  0  0  0  0
   22.8674  -20.9758  -15.4183 C   0  0  0  0  0  0  0  0  0  0  0  0
   21.6803  -21.2700  -14.5429 C   0  0  2  0  0  0  0  0  0  0  0  0
   20.3795  -20.8921  -15.2014 C   0  0  0  0  0  0  0  0  0  0  0  0
   21.8904  -20.7128  -13.1891 C   0  0  2  0  0  0  0  0  0  0  0  0
   23.1115  -21.2586  -12.5628 N   0  0  0  0  0  0  0  0  0  0  0  0
   20.8016  -21.0037  -12.2584 C   0  0  0  0  0  0  0  0  0  0  0  0
   19.8938  -20.0225  -11.9115 O   0  0  0  0  0  0  0  0  0  0  0  0
   20.6485  -22.1263  -11.7477 O   0  0  0  0  0  0  0  0  0  0  0  0
  2  1  1  0
  3  2  1  0
  3  4  1  1
  5  7  1  0
  5  3  1  0
  5  6  1  6
  7  8  2  0
 10  9  1  0
 11 10  1  0
 11 13  1  0
 11 12  1  1
 13 14  1  6
 14  7  1  0
 15 16  2  0
 15 13  1  0
 17 18  1  0
 18 19  1  0
 19 21  1  0
 19 20  1  6
 21 22  1  1
 21 23  1  0
 22 15  1  0
 23 24  1  0
 25 23  2  0
M  END
$$$$
