III.pdb
     RDKit          3D

 25 24  0  0  1  0  0  0  0  0999 V2000
   17.4091  -25.2928   -8.7715 C   0  0  0  0  0  0  0  0  0  0  0  0
   18.4753  -24.6614   -7.8770 C   0  0  0  0  0  0  0  0  0  0  0  0
   19.1509  -23.5187   -8.5523 C   0  0  2  0  0  0  0  0  0  0  0  0
   19.5333  -23.7865   -9.9700 C   0  0  0  0  0  0  0  0  0  0  0  0
   20.2922  -23.0247   -7.6844 C   0  0  2  0  0  0  0  0  0  0  0  0
   19.6335  -22.5602   -6.4610 N   0  0  0  0  0  0  0  0  0  0  0  0
   21.0690  -21.9235   -8.3012 C   0  0  0  0  0  0  0  0  0  0  0  0
   20.5500  -20.7594   -8.4526 O   0  0  0  0  0  0  0  0  0  0  0  0
   26.1707  -20.5195   -7.3128 C   0  0  0  0  0  0  0  0  0  0  0  0
   24.6780  -20.5593   -7.5863 C   0  0  0  0  0  0  0  0  0  0  0  0
   24.5189  -20.8826   -9.0621 C   0  0  2  0  0  0  0  0  0  0  0  0
   25.3051  -19.9102   -9.9198 C   0  0  0  0  0  0  0  0  0  0  0  0
   23.0565  -20.9149   -9.4715 C   0  0  2  0  0  0  0  0  0  0  0  0
   22.4028  -22.0274   -8.7653 N   0  0  0  0  0  0  0  0  0  0  0  0
   23.0109  -21.1331  -10.9369 C   0  0  0  0  0  0  0  0  0  0  0  0
   23.5079  -22.1960  -11.4162 O   0  0  0  0  0  0  0  0  0  0  0  0
   18.5773  -20.1969  -13.7302 C   0  0  0  0  0  0  0  0  0  0  0  0
   19.9149  -20.7977  -13.3035 C   0  0  0  0  0  0  0  0  0  0  0  0
   21.0657  -20.0065  -13.8620 C   0  0  2  0  0  0  0  0  0  0  0  0
   21.0118  -19.9057  -15.3639 C   0  0  0  0  0  0  0  0  0  0  0  0
   22.3446  -20.4982  -13.3055 C   0  0  2  0  0  0  0  0  0  0  0  0
   22.4441  -20.2277  -11.8571 N   0  0  0  0  0  0  0  0  0  0  0  0
   23.5241  -19.8799  -13.9078 C   0  0  0  0  0  0  0  0  0  0  0  0
   24.1975  -20.5079  -14.9370 O   0  0  0  0  0  0  0  0  0  0  0  0
   23.9644  -18.7819  -13.5267 O   0  0  0  0  0  0  0  0  0  0  0  0
  2  1  1  0
  3  2  1  0
  3  4  1  6
  5  7  1  0
  5  3  1  0
  5  6  1  1
  7  8  2  0
 10  9  1  0
 11 10  1  0
 11 13  1  0
 11 12  1  6
 13 14  1  1
 14  7  1  0
 15 16  2  0
 15 13  1  0
 17 18  1  0
 18 19  1  0
 19 21  1  0
 19 20  1  6
 21 22  1  1
 21 23  1  0
 22 15  1  0
 23 24  1  0
 25 23  2  0
M  END
$$$$
