III.pdb
     RDKit          3D

 25 24  0  0  1  0  0  0  0  0999 V2000
   23.4577  -20.7714   -7.1038 C   0  0  0  0  0  0  0  0  0  0  0  0
   24.6047  -21.1893   -8.0232 C   0  0  0  0  0  0  0  0  0  0  0  0
   24.4300  -20.6463   -9.3991 C   0  0  2  0  0  0  0  0  0  0  0  0
   23.0809  -20.8949   -9.9871 C   0  0  0  0  0  0  0  0  0  0  0  0
   25.5817  -21.1068  -10.2717 C   0  0  2  0  0  0  0  0  0  0  0  0
   26.7749  -20.6363   -9.5634 N   0  0  0  0  0  0  0  0  0  0  0  0
   25.5431  -20.5477  -11.6437 C   0  0  0  0  0  0  0  0  0  0  0  0
   25.7088  -19.2908  -11.8446 O   0  0  0  0  0  0  0  0  0  0  0  0
   28.6787  -21.1218  -15.5015 C   0  0  0  0  0  0  0  0  0  0  0  0
   27.6410  -20.6466  -14.5004 C   0  0  0  0  0  0  0  0  0  0  0  0
   26.2898  -21.0814  -15.0413 C   0  0  2  0  0  0  0  0  0  0  0  0
   26.0807  -20.5738  -16.4548 C   0  0  0  0  0  0  0  0  0  0  0  0
   25.1567  -20.6436  -14.1293 C   0  0  2  0  0  0  0  0  0  0  0  0
   25.3328  -21.2999  -12.8248 N   0  0  0  0  0  0  0  0  0  0  0  0
   23.8872  -21.0765  -14.7601 C   0  0  0  0  0  0  0  0  0  0  0  0
   23.6707  -22.3152  -14.9196 O   0  0  0  0  0  0  0  0  0  0  0  0
   18.0203  -20.5312  -14.3776 C   0  0  0  0  0  0  0  0  0  0  0  0
   19.1592  -20.7764  -15.3649 C   0  0  0  0  0  0  0  0  0  0  0  0
   20.4781  -20.3407  -14.7880 C   0  0  2  0  0  0  0  0  0  0  0  0
   20.4388  -18.9212  -14.2857 C   0  0  0  0  0  0  0  0  0  0  0  0
   21.5768  -20.6498  -15.7284 C   0  0  2  0  0  0  0  0  0  0  0  0
   22.8809  -20.1951  -15.2052 N   0  0  0  0  0  0  0  0  0  0  0  0
   21.4284  -20.0129  -17.0355 C   0  0  0  0  0  0  0  0  0  0  0  0
   20.5318  -20.5102  -17.9608 O   0  0  0  0  0  0  0  0  0  0  0  0
   22.0907  -19.0143  -17.3652 O   0  0  0  0  0  0  0  0  0  0  0  0
  2  1  1  0
  3  2  1  0
  3  4  1  6
  5  7  1  0
  5  3  1  0
  5  6  1  1
  7  8  2  0
 10  9  1  0
 11 10  1  0
 11 13  1  0
 11 12  1  6
 13 14  1  1
 14  7  1  0
 15 16  2  0
 15 13  1  0
 17 18  1  0
 18 19  1  0
 19 21  1  0
 19 20  1  6
 21 22  1  1
 21 23  1  0
 22 15  1  0
 23 24  1  0
 25 23  2  0
M  END
$$$$
