III.pdb
     RDKit          3D

 25 24  0  0  1  0  0  0  0  0999 V2000
   27.9690  -29.9918  -17.6529 C   0  0  0  0  0  0  0  0  0  0  0  0
   27.7833  -28.4826  -17.8059 C   0  0  0  0  0  0  0  0  0  0  0  0
   27.0040  -27.9086  -16.6739 C   0  0  2  0  0  0  0  0  0  0  0  0
   25.7689  -28.6739  -16.3325 C   0  0  0  0  0  0  0  0  0  0  0  0
   26.7698  -26.4310  -16.9223 C   0  0  2  0  0  0  0  0  0  0  0  0
   28.0985  -25.8309  -16.7775 N   0  0  0  0  0  0  0  0  0  0  0  0
   25.8193  -25.8151  -15.9664 C   0  0  0  0  0  0  0  0  0  0  0  0
   26.2146  -25.4208  -14.8106 O   0  0  0  0  0  0  0  0  0  0  0  0
   23.8209  -21.3856  -16.6745 C   0  0  0  0  0  0  0  0  0  0  0  0
   24.3624  -22.6577  -16.0474 C   0  0  0  0  0  0  0  0  0  0  0  0
   23.1693  -23.5728  -15.8310 C   0  0  2  0  0  0  0  0  0  0  0  0
   22.1150  -22.8988  -14.9747 C   0  0  0  0  0  0  0  0  0  0  0  0
   23.5893  -24.9051  -15.2344 C   0  0  2  0  0  0  0  0  0  0  0  0
   24.4410  -25.6014  -16.2108 N   0  0  0  0  0  0  0  0  0  0  0  0
   22.3550  -25.6838  -14.9752 C   0  0  0  0  0  0  0  0  0  0  0  0
   21.7070  -26.1545  -15.9576 O   0  0  0  0  0  0  0  0  0  0  0  0
   22.0342  -29.0482  -10.7930 C   0  0  0  0  0  0  0  0  0  0  0  0
   21.8901  -28.3578  -12.1475 C   0  0  0  0  0  0  0  0  0  0  0  0
   20.6757  -27.4710  -12.1758 C   0  0  2  0  0  0  0  0  0  0  0  0
   19.4212  -28.2109  -11.7919 C   0  0  0  0  0  0  0  0  0  0  0  0
   20.6092  -26.7325  -13.4554 C   0  0  2  0  0  0  0  0  0  0  0  0
   21.8366  -25.9456  -13.6905 N   0  0  0  0  0  0  0  0  0  0  0  0
   19.5047  -25.7779  -13.5264 C   0  0  0  0  0  0  0  0  0  0  0  0
   18.3318  -26.1086  -14.1761 O   0  0  0  0  0  0  0  0  0  0  0  0
   19.5720  -24.6474  -13.0146 O   0  0  0  0  0  0  0  0  0  0  0  0
  2  1  1  0
  3  2  1  0
  3  4  1  6
  5  7  1  0
  5  3  1  0
  5  6  1  1
  7  8  2  0
 10  9  1  0
 11 10  1  0
 11 13  1  0
 11 12  1  1
 13 14  1  6
 14  7  1  0
 15 16  2  0
 15 13  1  0
 17 18  1  0
 18 19  1  0
 19 21  1  0
 19 20  1  6
 21 22  1  1
 21 23  1  0
 22 15  1  0
 23 24  1  0
 25 23  2  0
M  END
$$$$
