III.pdb
     RDKit          3D

 25 24  0  0  1  0  0  0  0  0999 V2000
   22.5843  -19.8372  -13.4821 C   0  0  0  0  0  0  0  0  0  0  0  0
   24.0209  -19.7981  -12.9621 C   0  0  0  0  0  0  0  0  0  0  0  0
   24.1107  -20.2969  -11.5616 C   0  0  2  0  0  0  0  0  0  0  0  0
   23.0517  -19.7645  -10.6545 C   0  0  0  0  0  0  0  0  0  0  0  0
   25.5240  -20.1015  -11.0475 C   0  0  2  0  0  0  0  0  0  0  0  0
   26.3615  -20.7706  -12.0462 N   0  0  0  0  0  0  0  0  0  0  0  0
   25.7512  -20.6904   -9.7066 C   0  0  0  0  0  0  0  0  0  0  0  0
   25.7142  -21.9618   -9.5339 O   0  0  0  0  0  0  0  0  0  0  0  0
   28.9852  -18.4518   -5.9349 C   0  0  0  0  0  0  0  0  0  0  0  0
   28.3345  -19.4714   -6.8524 C   0  0  0  0  0  0  0  0  0  0  0  0
   26.9433  -19.7244   -6.2973 C   0  0  2  0  0  0  0  0  0  0  0  0
   27.0131  -20.3040   -4.8978 C   0  0  0  0  0  0  0  0  0  0  0  0
   26.1287  -20.6156   -7.2189 C   0  0  2  0  0  0  0  0  0  0  0  0
   26.0232  -19.9538   -8.5283 N   0  0  0  0  0  0  0  0  0  0  0  0
   24.7870  -20.7753   -6.6094 C   0  0  0  0  0  0  0  0  0  0  0  0
   23.9294  -19.8542   -6.7600 O   0  0  0  0  0  0  0  0  0  0  0  0
   22.6117  -25.4603   -7.2582 C   0  0  0  0  0  0  0  0  0  0  0  0
   22.7608  -23.9509   -7.0811 C   0  0  0  0  0  0  0  0  0  0  0  0
   22.6047  -23.5578   -5.6378 C   0  0  2  0  0  0  0  0  0  0  0  0
   21.2571  -23.9420   -5.0855 C   0  0  0  0  0  0  0  0  0  0  0  0
   22.9873  -22.1420   -5.4472 C   0  0  2  0  0  0  0  0  0  0  0  0
   24.3847  -21.8989   -5.8588 N   0  0  0  0  0  0  0  0  0  0  0  0
   22.8967  -21.6903   -4.0601 C   0  0  0  0  0  0  0  0  0  0  0  0
   23.9262  -21.9366   -3.1731 O   0  0  0  0  0  0  0  0  0  0  0  0
   21.9071  -21.0762   -3.6264 O   0  0  0  0  0  0  0  0  0  0  0  0
  2  1  1  0
  3  2  1  0
  3  4  1  1
  5  7  1  0
  5  3  1  0
  5  6  1  6
  7  8  2  0
 10  9  1  0
 11 10  1  0
 11 13  1  0
 11 12  1  1
 13 14  1  6
 14  7  1  0
 15 16  2  0
 15 13  1  0
 17 18  1  0
 18 19  1  0
 19 21  1  0
 19 20  1  6
 21 22  1  1
 21 23  1  0
 22 15  1  0
 23 24  1  0
 25 23  2  0
M  END
$$$$
