III.pdb
     RDKit          3D

 25 24  0  0  1  0  0  0  0  0999 V2000
   17.7759  -24.9875  -16.2534 C   0  0  0  0  0  0  0  0  0  0  0  0
   17.4991  -23.9748  -15.1429 C   0  0  0  0  0  0  0  0  0  0  0  0
   18.0056  -24.4527  -13.8263 C   0  0  2  0  0  0  0  0  0  0  0  0
   17.6053  -25.8504  -13.4887 C   0  0  0  0  0  0  0  0  0  0  0  0
   17.6646  -23.4338  -12.7560 C   0  0  2  0  0  0  0  0  0  0  0  0
   18.1899  -22.1726  -13.2852 N   0  0  0  0  0  0  0  0  0  0  0  0
   18.2749  -23.7340  -11.4393 C   0  0  0  0  0  0  0  0  0  0  0  0
   18.3554  -24.9424  -11.0139 O   0  0  0  0  0  0  0  0  0  0  0  0
   21.5004  -19.9921   -8.9106 C   0  0  0  0  0  0  0  0  0  0  0  0
   21.0528  -21.2752   -9.5874 C   0  0  0  0  0  0  0  0  0  0  0  0
   20.0576  -21.9336   -8.6474 C   0  0  2  0  0  0  0  0  0  0  0  0
   20.7048  -22.2682   -7.3176 C   0  0  0  0  0  0  0  0  0  0  0  0
   19.4282  -23.1653   -9.2751 C   0  0  2  0  0  0  0  0  0  0  0  0
   18.8122  -22.7708  -10.5513 N   0  0  0  0  0  0  0  0  0  0  0  0
   18.3972  -23.6647   -8.3346 C   0  0  0  0  0  0  0  0  0  0  0  0
   17.2805  -23.0683   -8.2727 O   0  0  0  0  0  0  0  0  0  0  0  0
   15.6073  -28.6316   -6.5944 C   0  0  0  0  0  0  0  0  0  0  0  0
   16.0526  -27.2423   -6.1432 C   0  0  0  0  0  0  0  0  0  0  0  0
   17.1060  -26.6872   -7.0622 C   0  0  2  0  0  0  0  0  0  0  0  0
   18.2484  -27.6477   -7.2649 C   0  0  0  0  0  0  0  0  0  0  0  0
   17.4919  -25.3245   -6.6366 C   0  0  2  0  0  0  0  0  0  0  0  0
   18.5692  -24.7771   -7.4856 N   0  0  0  0  0  0  0  0  0  0  0  0
   17.9927  -25.2567   -5.2651 C   0  0  0  0  0  0  0  0  0  0  0  0
   19.3332  -25.0350   -5.0175 O   0  0  0  0  0  0  0  0  0  0  0  0
   17.2475  -25.3935   -4.2800 O   0  0  0  0  0  0  0  0  0  0  0  0
  2  1  1  0
  3  2  1  0
  3  4  1  1
  5  7  1  0
  5  3  1  0
  5  6  1  6
  7  8  2  0
 10  9  1  0
 11 10  1  0
 11 13  1  0
 11 12  1  1
 13 14  1  6
 14  7  1  0
 15 16  2  0
 15 13  1  0
 17 18  1  0
 18 19  1  0
 19 21  1  0
 19 20  1  1
 21 22  1  6
 21 23  1  0
 22 15  1  0
 23 24  1  0
 25 23  2  0
M  END
$$$$
