III.pdb
     RDKit          3D

 25 24  0  0  1  0  0  0  0  0999 V2000
   17.1356  -14.9010  -19.1249 C   0  0  0  0  0  0  0  0  0  0  0  0
   18.6064  -15.1236  -18.7749 C   0  0  0  0  0  0  0  0  0  0  0  0
   19.0995  -14.1057  -17.8058 C   0  0  2  0  0  0  0  0  0  0  0  0
   18.7781  -12.6977  -18.1826 C   0  0  0  0  0  0  0  0  0  0  0  0
   20.5686  -14.3520  -17.5211 C   0  0  2  0  0  0  0  0  0  0  0  0
   20.6077  -15.7276  -17.0184 N   0  0  0  0  0  0  0  0  0  0  0  0
   21.1400  -13.4210  -16.5196 C   0  0  0  0  0  0  0  0  0  0  0  0
   20.7411  -13.4443  -15.2998 O   0  0  0  0  0  0  0  0  0  0  0  0
   26.2125  -12.3615  -15.5781 C   0  0  0  0  0  0  0  0  0  0  0  0
   24.7205  -12.6203  -15.4702 C   0  0  0  0  0  0  0  0  0  0  0  0
   24.0309  -11.3054  -15.7917 C   0  0  2  0  0  0  0  0  0  0  0  0
   24.4841  -10.2086  -14.8478 C   0  0  0  0  0  0  0  0  0  0  0  0
   22.5190  -11.4503  -15.7768 C   0  0  2  0  0  0  0  0  0  0  0  0
   22.1404  -12.4541  -16.7831 N   0  0  0  0  0  0  0  0  0  0  0  0
   21.9434  -10.1285  -16.1213 C   0  0  0  0  0  0  0  0  0  0  0  0
   22.0896   -9.6819  -17.2984 O   0  0  0  0  0  0  0  0  0  0  0  0
   17.0230   -6.9964  -16.3776 C   0  0  0  0  0  0  0  0  0  0  0  0
   18.5267   -6.8565  -16.1509 C   0  0  0  0  0  0  0  0  0  0  0  0
   19.1357   -8.1684  -15.7385 C   0  0  2  0  0  0  0  0  0  0  0  0
   18.4312   -8.7759  -14.5539 C   0  0  0  0  0  0  0  0  0  0  0  0
   20.6021   -8.0334  -15.6028 C   0  0  2  0  0  0  0  0  0  0  0  0
   21.2302   -9.3136  -15.2185 N   0  0  0  0  0  0  0  0  0  0  0  0
   21.0118   -7.0677  -14.5849 C   0  0  0  0  0  0  0  0  0  0  0  0
   20.9480   -5.7116  -14.8379 O   0  0  0  0  0  0  0  0  0  0  0  0
   21.4279   -7.4188  -13.4677 O   0  0  0  0  0  0  0  0  0  0  0  0
  2  1  1  0
  3  2  1  0
  3  4  1  6
  5  7  1  0
  5  3  1  0
  5  6  1  1
  7  8  2  0
 10  9  1  0
 11 10  1  0
 11 13  1  0
 11 12  1  1
 13 14  1  6
 14  7  1  0
 15 16  2  0
 15 13  1  0
 17 18  1  0
 18 19  1  0
 19 21  1  0
 19 20  1  1
 21 22  1  1
 21 23  1  0
 22 15  1  0
 23 24  1  0
 25 23  2  0
M  END
$$$$
