III.pdb
     RDKit          3D

 25 24  0  0  1  0  0  0  0  0999 V2000
   18.3651  -17.6382  -12.1935 C   0  0  0  0  0  0  0  0  0  0  0  0
   19.4316  -18.4592  -12.9173 C   0  0  0  0  0  0  0  0  0  0  0  0
   20.3654  -19.1122  -11.9581 C   0  0  2  0  0  0  0  0  0  0  0  0
   20.8783  -18.2038  -10.8906 C   0  0  0  0  0  0  0  0  0  0  0  0
   21.4506  -19.8396  -12.7283 C   0  0  2  0  0  0  0  0  0  0  0  0
   20.7199  -20.8309  -13.5221 N   0  0  0  0  0  0  0  0  0  0  0  0
   22.4453  -20.5089  -11.8571 C   0  0  0  0  0  0  0  0  0  0  0  0
   22.1116  -21.5153  -11.1337 O   0  0  0  0  0  0  0  0  0  0  0  0
   27.0639  -23.4895  -13.0329 C   0  0  0  0  0  0  0  0  0  0  0  0
   26.4519  -22.8391  -11.8052 C   0  0  0  0  0  0  0  0  0  0  0  0
   25.4734  -21.7943  -12.3137 C   0  0  2  0  0  0  0  0  0  0  0  0
   26.1532  -20.8306  -13.2668 C   0  0  0  0  0  0  0  0  0  0  0  0
   24.8051  -21.0522  -11.1692 C   0  0  2  0  0  0  0  0  0  0  0  0
   23.8051  -20.1335  -11.7347 N   0  0  0  0  0  0  0  0  0  0  0  0
   25.8603  -20.2942  -10.4558 C   0  0  0  0  0  0  0  0  0  0  0  0
   26.1510  -19.1251  -10.8500 O   0  0  0  0  0  0  0  0  0  0  0  0
   26.8952  -19.6820   -5.1490 C   0  0  0  0  0  0  0  0  0  0  0  0
   26.8248  -19.5043   -6.6641 C   0  0  0  0  0  0  0  0  0  0  0  0
   27.9015  -20.2978   -7.3521 C   0  0  2  0  0  0  0  0  0  0  0  0
   29.2648  -20.0326   -6.7693 C   0  0  0  0  0  0  0  0  0  0  0  0
   27.7978  -20.1396   -8.8188 C   0  0  2  0  0  0  0  0  0  0  0  0
   26.5803  -20.7866   -9.3481 N   0  0  0  0  0  0  0  0  0  0  0  0
   28.9142  -20.7306   -9.5541 C   0  0  0  0  0  0  0  0  0  0  0  0
   29.9706  -19.9470   -9.9751 O   0  0  0  0  0  0  0  0  0  0  0  0
   28.9604  -21.9420   -9.8277 O   0  0  0  0  0  0  0  0  0  0  0  0
  2  1  1  0
  3  2  1  0
  3  4  1  1
  5  7  1  0
  5  3  1  0
  5  6  1  6
  7  8  2  0
 10  9  1  0
 11 10  1  0
 11 13  1  0
 11 12  1  6
 13 14  1  6
 14  7  1  0
 15 16  2  0
 15 13  1  0
 17 18  1  0
 18 19  1  0
 19 21  1  0
 19 20  1  1
 21 22  1  6
 21 23  1  0
 22 15  1  0
 23 24  1  0
 25 23  2  0
M  END
$$$$
