FVR.pdb
     RDKit          3D

 30 30  0  0  1  0  0  0  0  0999 V2000
    5.7375  -17.7112   25.3263 N   0  0  0  0  0  0  0  0  0  0  0  0
    6.0873  -16.3184   25.1330 C   0  0  1  0  0  0  0  0  0  0  0  0
    6.6154  -15.7800   26.4409 C   0  0  0  0  0  0  0  0  0  0  0  0
    6.4346  -14.2867   26.4473 C   0  0  0  0  0  0  0  0  0  0  0  0
    7.5580  -13.5003   26.4595 C   0  0  0  0  0  0  0  0  0  0  0  0
    7.4247  -12.1258   26.4645 C   0  0  0  0  0  0  0  0  0  0  0  0
    6.1979  -11.4964   26.4578 C   0  0  0  0  0  0  0  0  0  0  0  0
    5.0958  -12.3290   26.4456 C   0  0  0  0  0  0  0  0  0  0  0  0
    5.1914  -13.7017   26.4404 C   0  0  0  0  0  0  0  0  0  0  0  0
    7.0538  -16.2330   24.0401 C   0  0  0  0  0  0  0  0  0  0  0  0
    7.8113  -17.2021   23.7960 O   0  0  0  0  0  0  0  0  0  0  0  0
    6.4334  -13.7315   20.6778 C   0  0  0  0  0  0  0  0  0  0  0  0
    7.8438  -13.9333   21.1691 C   0  0  2  0  0  0  0  0  0  0  0  0
    8.8152  -13.7671   20.0200 C   0  0  0  0  0  0  0  0  0  0  0  0
    8.0604  -15.1527   21.9936 C   0  0  2  0  0  0  0  0  0  0  0  0
    7.2069  -15.0894   23.2005 N   0  0  0  0  0  0  0  0  0  0  0  0
    9.4532  -15.3767   22.4045 C   0  0  0  0  0  0  0  0  0  0  0  0
   10.0543  -14.5955   23.2212 O   0  0  0  0  0  0  0  0  0  0  0  0
   12.4056  -19.6427   27.4043 N   0  0  0  0  0  0  0  0  0  0  0  0
   12.4682  -20.6022   26.3662 C   0  0  0  0  0  0  0  0  0  0  0  0
   12.5717  -21.8535   26.5471 N   0  0  0  0  0  0  0  0  0  0  0  0
   12.4088  -20.0996   25.0322 N   0  0  0  0  0  0  0  0  0  0  0  0
   13.1982  -18.9395   24.6030 C   0  0  0  0  0  0  0  0  0  0  0  0
   13.0005  -18.7445   23.1343 C   0  0  0  0  0  0  0  0  0  0  0  0
   11.6751  -18.2631   22.6914 C   0  0  0  0  0  0  0  0  0  0  0  0
   11.4872  -16.7912   22.5131 C   0  0  2  0  0  0  0  0  0  0  0  0
   10.1994  -16.4725   21.9225 N   0  0  0  0  0  0  0  0  0  0  0  0
   12.5990  -16.3462   21.6051 C   0  0  0  0  0  0  0  0  0  0  0  0
   12.3727  -16.4353   20.3715 O   0  0  0  0  0  0  0  0  0  0  0  0
   13.8067  -15.8647   22.0233 O   0  0  0  0  0  0  0  0  0  0  0  0
  2 10  1  0
  2  1  1  1
  3  2  1  0
  4  3  1  0
  4  5  2  0
  6  5  1  0
  7  6  2  0
  8  9  2  0
  8  7  1  0
  9  4  1  0
 10 11  2  0
 13 12  1  6
 13 15  1  0
 14 13  1  0
 15 16  1  1
 16 10  1  0
 17 18  2  0
 17 15  1  0
 20 19  1  0
 21 20  2  0
 22 20  1  0
 22 23  1  0
 23 24  1  0
 24 25  1  0
 26 25  1  6
 26 28  1  0
 26 27  1  0
 27 17  1  0
 28 30  1  0
 29 28  2  0
M  END
$$$$
