FVR.pdb
     RDKit          3D

 30 30  0  0  1  0  0  0  0  0999 V2000
    5.6317  -17.7435   25.4120 N   0  0  0  0  0  0  0  0  0  0  0  0
    6.1894  -16.4115   25.2917 C   0  0  1  0  0  0  0  0  0  0  0  0
    6.7650  -16.0196   26.6312 C   0  0  0  0  0  0  0  0  0  0  0  0
    6.7614  -14.5185   26.7287 C   0  0  0  0  0  0  0  0  0  0  0  0
    7.9634  -13.8633   26.6481 C   0  0  0  0  0  0  0  0  0  0  0  0
    7.9927  -12.4854   26.7332 C   0  0  0  0  0  0  0  0  0  0  0  0
    6.8543  -11.7249   26.8978 C   0  0  0  0  0  0  0  0  0  0  0  0
    5.6680  -12.4283   26.9738 C   0  0  0  0  0  0  0  0  0  0  0  0
    5.6017  -13.8003   26.8930 C   0  0  0  0  0  0  0  0  0  0  0  0
    7.1800  -16.4217   24.2172 C   0  0  0  0  0  0  0  0  0  0  0  0
    7.8344  -17.4642   23.9776 O   0  0  0  0  0  0  0  0  0  0  0  0
    6.8846  -14.2392   20.7264 C   0  0  0  0  0  0  0  0  0  0  0  0
    8.2638  -14.2974   21.3312 C   0  0  2  0  0  0  0  0  0  0  0  0
    9.3068  -14.2158   20.2370 C   0  0  0  0  0  0  0  0  0  0  0  0
    8.4799  -15.3929   22.3144 C   0  0  2  0  0  0  0  0  0  0  0  0
    7.4700  -15.2947   23.3913 N   0  0  0  0  0  0  0  0  0  0  0  0
    9.8197  -15.4217   22.9170 C   0  0  0  0  0  0  0  0  0  0  0  0
   10.2819  -14.4375   23.5924 O   0  0  0  0  0  0  0  0  0  0  0  0
   12.8333  -20.2148   28.8428 N   0  0  0  0  0  0  0  0  0  0  0  0
   12.1750  -18.9901   28.5801 C   0  0  0  0  0  0  0  0  0  0  0  0
   12.4116  -17.9008   29.1857 N   0  0  0  0  0  0  0  0  0  0  0  0
   11.1801  -19.0101   27.5576 N   0  0  0  0  0  0  0  0  0  0  0  0
   11.5186  -19.2397   26.1484 C   0  0  0  0  0  0  0  0  0  0  0  0
   11.3541  -17.9549   25.4025 C   0  0  0  0  0  0  0  0  0  0  0  0
   12.2318  -17.7381   24.2331 C   0  0  0  0  0  0  0  0  0  0  0  0
   11.9874  -16.5306   23.3871 C   0  0  2  0  0  0  0  0  0  0  0  0
   10.6655  -16.5431   22.7862 N   0  0  0  0  0  0  0  0  0  0  0  0
   13.0437  -16.5621   22.3185 C   0  0  0  0  0  0  0  0  0  0  0  0
   14.2183  -16.3211   22.6968 O   0  0  0  0  0  0  0  0  0  0  0  0
   12.8150  -16.8282   20.9986 O   0  0  0  0  0  0  0  0  0  0  0  0
  2 10  1  0
  2  1  1  1
  3  2  1  0
  4  3  1  0
  4  5  2  0
  6  5  1  0
  7  6  2  0
  8  9  2  0
  8  7  1  0
  9  4  1  0
 10 11  2  0
 13 12  1  6
 13 15  1  0
 14 13  1  0
 15 16  1  1
 16 10  1  0
 17 18  2  0
 17 15  1  0
 20 19  1  0
 21 20  2  0
 22 20  1  0
 22 23  1  0
 23 24  1  0
 24 25  1  0
 26 25  1  1
 26 28  1  0
 26 27  1  0
 27 17  1  0
 28 30  1  0
 29 28  2  0
M  END
$$$$
