FVR.pdb
     RDKit          3D

 30 30  0  0  1  0  0  0  0  0999 V2000
    6.2809  -17.1627   25.6016 N   0  0  0  0  0  0  0  0  0  0  0  0
    6.7436  -15.8538   25.1864 C   0  0  1  0  0  0  0  0  0  0  0  0
    7.6953  -15.3359   26.2377 C   0  0  0  0  0  0  0  0  0  0  0  0
    7.2237  -13.9767   26.6768 C   0  0  0  0  0  0  0  0  0  0  0  0
    8.1291  -13.1434   27.2821 C   0  0  0  0  0  0  0  0  0  0  0  0
    7.7266  -11.8888   27.6955 C   0  0  0  0  0  0  0  0  0  0  0  0
    6.4385  -11.4265   27.5264 C   0  0  0  0  0  0  0  0  0  0  0  0
    5.5626  -12.3004   26.9125 C   0  0  0  0  0  0  0  0  0  0  0  0
    5.9290  -13.5570   26.4882 C   0  0  0  0  0  0  0  0  0  0  0  0
    7.3542  -15.9786   23.8645 C   0  0  0  0  0  0  0  0  0  0  0  0
    7.9590  -17.0311   23.5501 O   0  0  0  0  0  0  0  0  0  0  0  0
    7.9845  -14.3312   19.1865 C   0  0  0  0  0  0  0  0  0  0  0  0
    7.5593  -14.1055   20.6146 C   0  0  2  0  0  0  0  0  0  0  0  0
    7.8479  -12.6743   21.0149 C   0  0  0  0  0  0  0  0  0  0  0  0
    8.0302  -15.1290   21.5864 C   0  0  2  0  0  0  0  0  0  0  0  0
    7.3138  -14.9566   22.8694 N   0  0  0  0  0  0  0  0  0  0  0  0
    9.4772  -15.1137   21.8412 C   0  0  0  0  0  0  0  0  0  0  0  0
    9.9879  -14.4638   22.8186 O   0  0  0  0  0  0  0  0  0  0  0  0
   11.4716  -21.7124   26.4305 N   0  0  0  0  0  0  0  0  0  0  0  0
   11.2310  -20.3858   26.0009 C   0  0  0  0  0  0  0  0  0  0  0  0
   10.2301  -19.6872   26.3462 N   0  0  0  0  0  0  0  0  0  0  0  0
   12.1977  -19.8188   25.1179 N   0  0  0  0  0  0  0  0  0  0  0  0
   12.0890  -18.4396   24.6288 C   0  0  0  0  0  0  0  0  0  0  0  0
   12.1387  -18.4575   23.1351 C   0  0  0  0  0  0  0  0  0  0  0  0
   11.0922  -17.6993   22.4175 C   0  0  0  0  0  0  0  0  0  0  0  0
   11.5132  -16.5113   21.6144 C   0  0  2  0  0  0  0  0  0  0  0  0
   10.3800  -15.8232   21.0217 N   0  0  0  0  0  0  0  0  0  0  0  0
   12.4159  -17.0466   20.5386 C   0  0  0  0  0  0  0  0  0  0  0  0
   11.8452  -17.4889   19.5093 O   0  0  0  0  0  0  0  0  0  0  0  0
   13.7795  -17.0826   20.6064 O   0  0  0  0  0  0  0  0  0  0  0  0
  2 10  1  0
  2  1  1  1
  3  2  1  0
  4  3  1  0
  4  5  2  0
  6  5  1  0
  7  6  2  0
  8  9  2  0
  8  7  1  0
  9  4  1  0
 10 11  2  0
 13 12  1  6
 13 15  1  0
 14 13  1  0
 15 16  1  1
 16 10  1  0
 17 18  2  0
 17 15  1  0
 20 19  1  0
 21 20  2  0
 22 20  1  0
 22 23  1  0
 23 24  1  0
 24 25  1  0
 26 25  1  6
 26 28  1  0
 26 27  1  0
 27 17  1  0
 28 30  1  0
 29 28  2  0
M  END
$$$$
