FVR.pdb
     RDKit          3D

 30 30  0  0  1  0  0  0  0  0999 V2000
    9.6744  -13.8042   21.1231 N   0  0  0  0  0  0  0  0  0  0  0  0
    8.3818  -13.8595   21.7756 C   0  0  1  0  0  0  0  0  0  0  0  0
    7.5892  -14.9846   21.1549 C   0  0  0  0  0  0  0  0  0  0  0  0
    7.0985  -14.5323   19.8068 C   0  0  0  0  0  0  0  0  0  0  0  0
    7.1936  -15.4098   18.7572 C   0  0  0  0  0  0  0  0  0  0  0  0
    6.7506  -15.0241   17.5074 C   0  0  0  0  0  0  0  0  0  0  0  0
    6.2090  -13.7803   17.2602 C   0  0  0  0  0  0  0  0  0  0  0  0
    6.1338  -12.9313   18.3470 C   0  0  0  0  0  0  0  0  0  0  0  0
    6.5654  -13.2820   19.6056 C   0  0  0  0  0  0  0  0  0  0  0  0
    8.5967  -14.0269   23.2113 C   0  0  0  0  0  0  0  0  0  0  0  0
    9.7189  -14.3876   23.6394 O   0  0  0  0  0  0  0  0  0  0  0  0
    6.5960  -11.7336   26.0698 C   0  0  0  0  0  0  0  0  0  0  0  0
    6.8487  -13.1780   26.4178 C   0  0  2  0  0  0  0  0  0  0  0  0
    6.9697  -13.3296   27.9192 C   0  0  0  0  0  0  0  0  0  0  0  0
    7.9295  -13.8391   25.6379 C   0  0  2  0  0  0  0  0  0  0  0  0
    7.5904  -13.8039   24.1982 N   0  0  0  0  0  0  0  0  0  0  0  0
    8.2079  -15.2277   26.0295 C   0  0  0  0  0  0  0  0  0  0  0  0
    7.2989  -16.1289   26.0285 O   0  0  0  0  0  0  0  0  0  0  0  0
   13.3703  -21.9501   25.2237 N   0  0  0  0  0  0  0  0  0  0  0  0
   13.1488  -20.9783   24.2193 C   0  0  0  0  0  0  0  0  0  0  0  0
   13.2184  -21.2022   22.9726 N   0  0  0  0  0  0  0  0  0  0  0  0
   12.8265  -19.6629   24.6681 N   0  0  0  0  0  0  0  0  0  0  0  0
   12.8241  -19.3062   26.0915 C   0  0  0  0  0  0  0  0  0  0  0  0
   11.4355  -18.9166   26.4837 C   0  0  0  0  0  0  0  0  0  0  0  0
   10.9921  -17.5530   26.1252 C   0  0  0  0  0  0  0  0  0  0  0  0
    9.7446  -17.0311   26.7616 C   0  0  2  0  0  0  0  0  0  0  0  0
    9.4984  -15.6409   26.4217 N   0  0  0  0  0  0  0  0  0  0  0  0
    9.9532  -17.1742   28.2431 C   0  0  0  0  0  0  0  0  0  0  0  0
   10.0023  -18.3514   28.6819 O   0  0  0  0  0  0  0  0  0  0  0  0
   10.0887  -16.1352   29.1190 O   0  0  0  0  0  0  0  0  0  0  0  0
  2 10  1  0
  2  1  1  6
  3  2  1  0
  4  3  1  0
  4  5  2  0
  6  5  1  0
  7  6  2  0
  8  9  2  0
  8  7  1  0
  9  4  1  0
 10 11  2  0
 13 12  1  1
 13 15  1  0
 14 13  1  0
 15 16  1  6
 16 10  1  0
 17 18  2  0
 17 15  1  0
 20 19  1  0
 21 20  2  0
 22 20  1  0
 22 23  1  0
 23 24  1  0
 24 25  1  0
 26 25  1  6
 26 28  1  0
 26 27  1  0
 27 17  1  0
 28 30  1  0
 29 28  2  0
M  END
$$$$
