FVR.pdb
     RDKit          3D

 30 30  0  0  1  0  0  0  0  0999 V2000
   10.0418  -16.7174   21.1422 N   0  0  0  0  0  0  0  0  0  0  0  0
    9.2713  -15.5442   21.5023 C   0  0  1  0  0  0  0  0  0  0  0  0
    7.9331  -15.6292   20.8086 C   0  0  0  0  0  0  0  0  0  0  0  0
    7.6335  -14.2914   20.1894 C   0  0  0  0  0  0  0  0  0  0  0  0
    6.3196  -13.9247   20.0484 C   0  0  0  0  0  0  0  0  0  0  0  0
    6.0126  -12.7022   19.4845 C   0  0  0  0  0  0  0  0  0  0  0  0
    6.9780  -11.8189   19.0496 C   0  0  0  0  0  0  0  0  0  0  0  0
    8.2862  -12.2314   19.2120 C   0  0  0  0  0  0  0  0  0  0  0  0
    8.6285  -13.4419   19.7694 C   0  0  0  0  0  0  0  0  0  0  0  0
    9.1653  -15.4912   22.9589 C   0  0  0  0  0  0  0  0  0  0  0  0
   10.0144  -16.0782   23.6710 O   0  0  0  0  0  0  0  0  0  0  0  0
    7.5899  -12.1570   24.8098 C   0  0  0  0  0  0  0  0  0  0  0  0
    7.3306  -13.4641   25.5138 C   0  0  2  0  0  0  0  0  0  0  0  0
    7.2315  -13.2313   27.0063 C   0  0  0  0  0  0  0  0  0  0  0  0
    8.2242  -14.5860   25.1184 C   0  0  2  0  0  0  0  0  0  0  0  0
    8.1316  -14.7983   23.6571 N   0  0  0  0  0  0  0  0  0  0  0  0
    7.9538  -15.8572   25.8040 C   0  0  0  0  0  0  0  0  0  0  0  0
    6.9376  -16.5808   25.5171 O   0  0  0  0  0  0  0  0  0  0  0  0
   11.4420  -22.6567   25.2475 N   0  0  0  0  0  0  0  0  0  0  0  0
   11.9668  -22.1235   24.0464 C   0  0  0  0  0  0  0  0  0  0  0  0
   12.6255  -22.7887   23.1904 N   0  0  0  0  0  0  0  0  0  0  0  0
   11.7235  -20.7382   23.8066 N   0  0  0  0  0  0  0  0  0  0  0  0
   10.4517  -20.0994   24.1639 C   0  0  0  0  0  0  0  0  0  0  0  0
   10.6079  -19.4356   25.4939 C   0  0  0  0  0  0  0  0  0  0  0  0
   10.0904  -18.0572   25.6234 C   0  0  0  0  0  0  0  0  0  0  0  0
    9.2230  -17.7412   26.7987 C   0  0  2  0  0  0  0  0  0  0  0  0
    8.8079  -16.3497   26.8129 N   0  0  0  0  0  0  0  0  0  0  0  0
   10.0551  -18.0470   28.0123 C   0  0  0  0  0  0  0  0  0  0  0  0
    9.9151  -19.1967   28.5016 O   0  0  0  0  0  0  0  0  0  0  0  0
   10.9297  -17.1791   28.6015 O   0  0  0  0  0  0  0  0  0  0  0  0
  2 10  1  0
  2  1  1  1
  3  2  1  0
  4  3  1  0
  4  5  2  0
  6  5  1  0
  7  6  2  0
  8  9  2  0
  8  7  1  0
  9  4  1  0
 10 11  2  0
 13 12  1  6
 13 15  1  0
 14 13  1  0
 15 16  1  6
 16 10  1  0
 17 18  2  0
 17 15  1  0
 20 19  1  0
 21 20  2  0
 22 20  1  0
 22 23  1  0
 23 24  1  0
 24 25  1  0
 26 25  1  6
 26 28  1  0
 26 27  1  0
 27 17  1  0
 28 30  1  0
 29 28  2  0
M  END
$$$$
