FVR.pdb
     RDKit          3D

 30 30  0  0  1  0  0  0  0  0999 V2000
    8.5109  -17.9812   20.9555 N   0  0  0  0  0  0  0  0  0  0  0  0
    8.5993  -16.5375   20.8673 C   0  0  1  0  0  0  0  0  0  0  0  0
    7.3417  -16.0288   20.2050 C   0  0  0  0  0  0  0  0  0  0  0  0
    7.4666  -14.5401   20.0291 C   0  0  0  0  0  0  0  0  0  0  0  0
    8.0933  -14.0733   18.9022 C   0  0  0  0  0  0  0  0  0  0  0  0
    8.2227  -12.7117   18.7118 C   0  0  0  0  0  0  0  0  0  0  0  0
    7.7448  -11.7847   19.6139 C   0  0  0  0  0  0  0  0  0  0  0  0
    7.1216  -12.3017   20.7329 C   0  0  0  0  0  0  0  0  0  0  0  0
    6.9753  -13.6517   20.9550 C   0  0  0  0  0  0  0  0  0  0  0  0
    8.8003  -16.0047   22.2132 C   0  0  0  0  0  0  0  0  0  0  0  0
    8.9854  -14.7757   22.3798 O   0  0  0  0  0  0  0  0  0  0  0  0
    8.0376  -13.9191   24.0654 C   0  0  0  0  0  0  0  0  0  0  0  0
    7.9001  -15.1537   24.9188 C   0  0  2  0  0  0  0  0  0  0  0  0
    7.6607  -14.7563   26.3598 C   0  0  0  0  0  0  0  0  0  0  0  0
    8.9599  -16.1799   24.7257 C   0  0  2  0  0  0  0  0  0  0  0  0
    8.8030  -16.8057   23.3942 N   0  0  0  0  0  0  0  0  0  0  0  0
    8.9874  -17.2342   25.7489 C   0  0  0  0  0  0  0  0  0  0  0  0
    7.9886  -18.0079   25.9538 O   0  0  0  0  0  0  0  0  0  0  0  0
   12.3772  -18.7720   31.1970 N   0  0  0  0  0  0  0  0  0  0  0  0
   12.6052  -20.1655   31.2900 C   0  0  0  0  0  0  0  0  0  0  0  0
   12.6088  -20.8240   32.3742 N   0  0  0  0  0  0  0  0  0  0  0  0
   12.8451  -20.8532   30.0631 N   0  0  0  0  0  0  0  0  0  0  0  0
   13.4727  -20.1936   28.9124 C   0  0  0  0  0  0  0  0  0  0  0  0
   12.4932  -20.1686   27.7837 C   0  0  0  0  0  0  0  0  0  0  0  0
   11.9399  -18.8523   27.4015 C   0  0  0  0  0  0  0  0  0  0  0  0
   10.5440  -18.8060   26.8697 C   0  0  2  0  0  0  0  0  0  0  0  0
   10.1237  -17.4518   26.5561 N   0  0  0  0  0  0  0  0  0  0  0  0
    9.6764  -19.3808   27.9538 C   0  0  0  0  0  0  0  0  0  0  0  0
    9.2604  -18.5669   28.8171 O   0  0  0  0  0  0  0  0  0  0  0  0
    9.3209  -20.6954   28.0582 O   0  0  0  0  0  0  0  0  0  0  0  0
  2 10  1  0
  2  1  1  1
  3  2  1  0
  4  3  1  0
  4  5  2  0
  6  5  1  0
  7  6  2  0
  8  9  2  0
  8  7  1  0
  9  4  1  0
 10 11  2  0
 13 12  1  6
 13 15  1  0
 14 13  1  0
 15 16  1  6
 16 10  1  0
 17 18  2  0
 17 15  1  0
 20 19  1  0
 21 20  2  0
 22 20  1  0
 22 23  1  0
 23 24  1  0
 24 25  1  0
 26 25  1  1
 26 28  1  0
 26 27  1  0
 27 17  1  0
 28 30  1  0
 29 28  2  0
M  END
$$$$
