FVR.pdb
     RDKit          3D

 30 30  0  0  1  0  0  0  0  0999 V2000
    9.8754  -16.7991   21.8267 N   0  0  0  0  0  0  0  0  0  0  0  0
    9.1158  -15.6158   22.1769 C   0  0  1  0  0  0  0  0  0  0  0  0
    7.6936  -15.8147   21.7108 C   0  0  0  0  0  0  0  0  0  0  0  0
    7.3305  -14.6774   20.7958 C   0  0  0  0  0  0  0  0  0  0  0  0
    8.2527  -13.6800   20.6078 C   0  0  0  0  0  0  0  0  0  0  0  0
    7.9491  -12.6229   19.7728 C   0  0  0  0  0  0  0  0  0  0  0  0
    6.7450  -12.5203   19.1088 C   0  0  0  0  0  0  0  0  0  0  0  0
    5.8483  -13.5476   19.3289 C   0  0  0  0  0  0  0  0  0  0  0  0
    6.1172  -14.6155   20.1539 C   0  0  0  0  0  0  0  0  0  0  0  0
    9.2279  -15.4058   23.6188 C   0  0  0  0  0  0  0  0  0  0  0  0
   10.1942  -15.8955   24.2504 O   0  0  0  0  0  0  0  0  0  0  0  0
    7.5293  -12.0757   25.4305 C   0  0  0  0  0  0  0  0  0  0  0  0
    7.6032  -13.3148   26.2852 C   0  0  2  0  0  0  0  0  0  0  0  0
    7.7632  -12.9254   27.7393 C   0  0  0  0  0  0  0  0  0  0  0  0
    8.5556  -14.3558   25.8129 C   0  0  2  0  0  0  0  0  0  0  0  0
    8.2870  -14.6601   24.3901 N   0  0  0  0  0  0  0  0  0  0  0  0
    8.5287  -15.6072   26.5825 C   0  0  0  0  0  0  0  0  0  0  0  0
    7.4336  -16.2041   26.8703 O   0  0  0  0  0  0  0  0  0  0  0  0
   13.5023  -17.3063   23.3168 N   0  0  0  0  0  0  0  0  0  0  0  0
   12.4206  -18.0175   22.7454 C   0  0  0  0  0  0  0  0  0  0  0  0
   12.0553  -17.9221   21.5344 N   0  0  0  0  0  0  0  0  0  0  0  0
   11.7084  -18.8966   23.6147 N   0  0  0  0  0  0  0  0  0  0  0  0
   11.9114  -18.8853   25.0679 C   0  0  0  0  0  0  0  0  0  0  0  0
   10.5849  -18.7097   25.7339 C   0  0  0  0  0  0  0  0  0  0  0  0
   10.5888  -18.4972   27.1966 C   0  0  0  0  0  0  0  0  0  0  0  0
    9.6507  -17.4792   27.7599 C   0  0  2  0  0  0  0  0  0  0  0  0
    9.7143  -16.2200   27.0393 N   0  0  0  0  0  0  0  0  0  0  0  0
   10.0744  -17.2818   29.1883 C   0  0  0  0  0  0  0  0  0  0  0  0
   10.0547  -18.3069   29.9161 O   0  0  0  0  0  0  0  0  0  0  0  0
   10.4685  -16.0922   29.7312 O   0  0  0  0  0  0  0  0  0  0  0  0
  2 10  1  0
  2  1  1  1
  3  2  1  0
  4  3  1  0
  4  5  2  0
  6  5  1  0
  7  6  2  0
  8  9  2  0
  8  7  1  0
  9  4  1  0
 10 11  2  0
 13 12  1  6
 13 15  1  0
 14 13  1  0
 15 16  1  6
 16 10  1  0
 17 18  2  0
 17 15  1  0
 20 19  1  0
 21 20  2  0
 22 20  1  0
 22 23  1  0
 23 24  1  0
 24 25  1  0
 26 25  1  6
 26 28  1  0
 26 27  1  0
 27 17  1  0
 28 30  1  0
 29 28  2  0
M  END
$$$$
