FVR.pdb
     RDKit          3D

 30 30  0  0  1  0  0  0  0  0999 V2000
    8.5280  -14.8629   25.3282 N   0  0  0  0  0  0  0  0  0  0  0  0
    7.3980  -15.7186   25.0273 C   0  0  1  0  0  0  0  0  0  0  0  0
    6.2035  -15.2084   25.7969 C   0  0  0  0  0  0  0  0  0  0  0  0
    6.4312  -13.7568   26.1193 C   0  0  0  0  0  0  0  0  0  0  0  0
    7.6446  -13.3949   26.6460 C   0  0  0  0  0  0  0  0  0  0  0  0
    7.8842  -12.0697   26.9514 C   0  0  0  0  0  0  0  0  0  0  0  0
    6.9480  -11.0777   26.7493 C   0  0  0  0  0  0  0  0  0  0  0  0
    5.7417  -11.4897   26.2174 C   0  0  0  0  0  0  0  0  0  0  0  0
    5.4687  -12.8008   25.9015 C   0  0  0  0  0  0  0  0  0  0  0  0
    7.1949  -15.7224   23.5801 C   0  0  0  0  0  0  0  0  0  0  0  0
    6.2933  -16.4332   23.0754 O   0  0  0  0  0  0  0  0  0  0  0  0
    8.6793  -13.1620   20.3095 C   0  0  0  0  0  0  0  0  0  0  0  0
    7.8311  -14.4078   20.3087 C   0  0  2  0  0  0  0  0  0  0  0  0
    6.3657  -14.0298   20.3470 C   0  0  0  0  0  0  0  0  0  0  0  0
    8.2300  -15.4479   21.2950 C   0  0  2  0  0  0  0  0  0  0  0  0
    7.9730  -14.9520   22.6651 N   0  0  0  0  0  0  0  0  0  0  0  0
    9.6308  -15.8806   21.1983 C   0  0  0  0  0  0  0  0  0  0  0  0
   10.5791  -15.2464   21.7789 O   0  0  0  0  0  0  0  0  0  0  0  0
   10.2701  -21.7322   25.4787 N   0  0  0  0  0  0  0  0  0  0  0  0
   10.9194  -20.5867   25.9966 C   0  0  0  0  0  0  0  0  0  0  0  0
   11.0744  -20.3434   27.2319 N   0  0  0  0  0  0  0  0  0  0  0  0
   11.4255  -19.6565   25.0404 N   0  0  0  0  0  0  0  0  0  0  0  0
   10.6674  -19.2861   23.8399 C   0  0  0  0  0  0  0  0  0  0  0  0
   11.5614  -19.4225   22.6498 C   0  0  0  0  0  0  0  0  0  0  0  0
   10.9825  -19.0896   21.3311 C   0  0  0  0  0  0  0  0  0  0  0  0
   11.2354  -17.7242   20.7787 C   0  0  2  0  0  0  0  0  0  0  0  0
   10.0021  -17.0257   20.4629 N   0  0  0  0  0  0  0  0  0  0  0  0
   12.0471  -17.9340   19.5313 C   0  0  0  0  0  0  0  0  0  0  0  0
   13.0562  -18.6749   19.6481 O   0  0  0  0  0  0  0  0  0  0  0  0
   11.7662  -17.3857   18.3124 O   0  0  0  0  0  0  0  0  0  0  0  0
  2 10  1  0
  2  1  1  6
  3  2  1  0
  4  3  1  0
  4  5  2  0
  6  5  1  0
  7  6  2  0
  8  9  2  0
  8  7  1  0
  9  4  1  0
 10 11  2  0
 13 12  1  1
 13 15  1  0
 14 13  1  0
 15 16  1  1
 16 10  1  0
 17 18  2  0
 17 15  1  0
 20 19  1  0
 21 20  2  0
 22 20  1  0
 22 23  1  0
 23 24  1  0
 24 25  1  0
 26 25  1  6
 26 28  1  0
 26 27  1  0
 27 17  1  0
 28 30  1  0
 29 28  2  0
M  END
$$$$
