FVR.pdb
     RDKit          3D

 30 30  0  0  1  0  0  0  0  0999 V2000
    5.7532  -17.2880   25.4470 N   0  0  0  0  0  0  0  0  0  0  0  0
    6.3636  -16.0153   25.1192 C   0  0  1  0  0  0  0  0  0  0  0  0
    7.1780  -15.5642   26.3077 C   0  0  0  0  0  0  0  0  0  0  0  0
    6.9508  -14.0905   26.5070 C   0  0  0  0  0  0  0  0  0  0  0  0
    8.0400  -13.2581   26.4671 C   0  0  0  0  0  0  0  0  0  0  0  0
    7.8636  -11.9002   26.6456 C   0  0  0  0  0  0  0  0  0  0  0  0
    6.6264  -11.3322   26.8652 C   0  0  0  0  0  0  0  0  0  0  0  0
    5.5600  -12.2095   26.8972 C   0  0  0  0  0  0  0  0  0  0  0  0
    5.6990  -13.5674   26.7235 C   0  0  0  0  0  0  0  0  0  0  0  0
    7.1581  -16.1843   23.9043 C   0  0  0  0  0  0  0  0  0  0  0  0
    7.6533  -17.3032   23.6296 O   0  0  0  0  0  0  0  0  0  0  0  0
    6.5934  -13.9888   20.3914 C   0  0  0  0  0  0  0  0  0  0  0  0
    8.0188  -14.2726   20.7902 C   0  0  2  0  0  0  0  0  0  0  0  0
    8.8919  -14.3427   19.5555 C   0  0  0  0  0  0  0  0  0  0  0  0
    8.1987  -15.4014   21.7427 C   0  0  2  0  0  0  0  0  0  0  0  0
    7.4235  -15.1350   22.9744 N   0  0  0  0  0  0  0  0  0  0  0  0
    9.5945  -15.6803   22.1075 C   0  0  0  0  0  0  0  0  0  0  0  0
   10.2440  -14.9393   22.9245 O   0  0  0  0  0  0  0  0  0  0  0  0
   13.9434  -21.2399   26.3244 N   0  0  0  0  0  0  0  0  0  0  0  0
   14.6423  -21.5160   25.1254 C   0  0  0  0  0  0  0  0  0  0  0  0
   15.5466  -22.3975   25.0054 N   0  0  0  0  0  0  0  0  0  0  0  0
   14.2849  -20.7335   23.9871 N   0  0  0  0  0  0  0  0  0  0  0  0
   13.3052  -19.6442   24.0695 C   0  0  0  0  0  0  0  0  0  0  0  0
   13.1280  -19.0574   22.7063 C   0  0  0  0  0  0  0  0  0  0  0  0
   11.7799  -18.5625   22.3564 C   0  0  0  0  0  0  0  0  0  0  0  0
   11.6228  -17.1063   22.0590 C   0  0  2  0  0  0  0  0  0  0  0  0
   10.2900  -16.7877   21.5784 N   0  0  0  0  0  0  0  0  0  0  0  0
   12.6442  -16.7945   21.0016 C   0  0  0  0  0  0  0  0  0  0  0  0
   13.8359  -16.7106   21.3936 O   0  0  0  0  0  0  0  0  0  0  0  0
   12.3678  -16.6014   19.6781 O   0  0  0  0  0  0  0  0  0  0  0  0
  2 10  1  0
  2  1  1  1
  3  2  1  0
  4  3  1  0
  4  5  2  0
  6  5  1  0
  7  6  2  0
  8  9  2  0
  8  7  1  0
  9  4  1  0
 10 11  2  0
 13 12  1  6
 13 15  1  0
 14 13  1  0
 15 16  1  1
 16 10  1  0
 17 18  2  0
 17 15  1  0
 20 19  1  0
 21 20  2  0
 22 20  1  0
 22 23  1  0
 23 24  1  0
 24 25  1  0
 26 25  1  6
 26 28  1  0
 26 27  1  0
 27 17  1  0
 28 30  1  0
 29 28  2  0
M  END
$$$$
