FVR.pdb
     RDKit          3D

 30 30  0  0  1  0  0  0  0  0999 V2000
    5.4041  -17.7587   24.7669 N   0  0  0  0  0  0  0  0  0  0  0  0
    6.0107  -16.4430   24.7925 C   0  0  1  0  0  0  0  0  0  0  0  0
    6.5504  -16.2008   26.1815 C   0  0  0  0  0  0  0  0  0  0  0  0
    6.9370  -14.7515   26.2946 C   0  0  0  0  0  0  0  0  0  0  0  0
    5.9345  -13.8228   26.4094 C   0  0  0  0  0  0  0  0  0  0  0  0
    6.2576  -12.4845   26.5160 C   0  0  0  0  0  0  0  0  0  0  0  0
    7.5594  -12.0299   26.5124 C   0  0  0  0  0  0  0  0  0  0  0  0
    8.5343  -13.0012   26.3946 C   0  0  0  0  0  0  0  0  0  0  0  0
    8.2488  -14.3429   26.2864 C   0  0  0  0  0  0  0  0  0  0  0  0
    7.0386  -16.3888   23.7551 C   0  0  0  0  0  0  0  0  0  0  0  0
    7.8265  -17.3524   23.6022 O   0  0  0  0  0  0  0  0  0  0  0  0
    8.1005  -12.8987   21.0938 C   0  0  0  0  0  0  0  0  0  0  0  0
    7.9533  -14.3599   20.7554 C   0  0  2  0  0  0  0  0  0  0  0  0
    6.6060  -14.6030   20.1094 C   0  0  0  0  0  0  0  0  0  0  0  0
    8.2943  -15.3034   21.8541 C   0  0  2  0  0  0  0  0  0  0  0  0
    7.2207  -15.2828   22.8720 N   0  0  0  0  0  0  0  0  0  0  0  0
    9.5816  -15.0404   22.5119 C   0  0  0  0  0  0  0  0  0  0  0  0
    9.6767  -14.2849   23.5408 O   0  0  0  0  0  0  0  0  0  0  0  0
   10.7472  -19.2834   27.9685 N   0  0  0  0  0  0  0  0  0  0  0  0
   12.1046  -19.6020   27.7275 C   0  0  0  0  0  0  0  0  0  0  0  0
   12.9702  -19.7985   28.6337 N   0  0  0  0  0  0  0  0  0  0  0  0
   12.5003  -19.7030   26.3604 N   0  0  0  0  0  0  0  0  0  0  0  0
   11.6049  -19.3225   25.2620 C   0  0  0  0  0  0  0  0  0  0  0  0
   12.1010  -18.0467   24.6617 C   0  0  0  0  0  0  0  0  0  0  0  0
   11.2227  -17.3793   23.6779 C   0  0  0  0  0  0  0  0  0  0  0  0
   11.7426  -16.1602   22.9872 C   0  0  2  0  0  0  0  0  0  0  0  0
   10.7820  -15.6151   22.0443 N   0  0  0  0  0  0  0  0  0  0  0  0
   12.9855  -16.6002   22.2660 C   0  0  0  0  0  0  0  0  0  0  0  0
   12.8077  -17.3056   21.2405 O   0  0  0  0  0  0  0  0  0  0  0  0
   14.2612  -16.2912   22.6436 O   0  0  0  0  0  0  0  0  0  0  0  0
  2 10  1  0
  2  1  1  1
  3  2  1  0
  4  3  1  0
  4  5  2  0
  6  5  1  0
  7  6  2  0
  8  9  2  0
  8  7  1  0
  9  4  1  0
 10 11  2  0
 13 12  1  1
 13 15  1  0
 14 13  1  0
 15 16  1  1
 16 10  1  0
 17 18  2  0
 17 15  1  0
 20 19  1  0
 21 20  2  0
 22 20  1  0
 22 23  1  0
 23 24  1  0
 24 25  1  0
 26 25  1  6
 26 28  1  0
 26 27  1  0
 27 17  1  0
 28 30  1  0
 29 28  2  0
M  END
$$$$
