FVR.pdb
     RDKit          3D

 30 30  0  0  1  0  0  0  0  0999 V2000
    6.3516  -18.0570   25.7384 N   0  0  0  0  0  0  0  0  0  0  0  0
    6.3375  -16.6439   25.4181 C   0  0  1  0  0  0  0  0  0  0  0  0
    6.9585  -15.8938   26.5717 C   0  0  0  0  0  0  0  0  0  0  0  0
    6.6750  -14.4274   26.3922 C   0  0  0  0  0  0  0  0  0  0  0  0
    7.7108  -13.5442   26.5591 C   0  0  0  0  0  0  0  0  0  0  0  0
    7.4821  -12.1917   26.3999 C   0  0  0  0  0  0  0  0  0  0  0  0
    6.2439  -11.6785   26.0765 C   0  0  0  0  0  0  0  0  0  0  0  0
    5.2322  -12.6056   25.9186 C   0  0  0  0  0  0  0  0  0  0  0  0
    5.4240  -13.9598   26.0696 C   0  0  0  0  0  0  0  0  0  0  0  0
    7.0455  -16.4504   24.1543 C   0  0  0  0  0  0  0  0  0  0  0  0
    6.4334  -16.5766   23.0671 O   0  0  0  0  0  0  0  0  0  0  0  0
    8.8053  -13.3218   22.8730 C   0  0  0  0  0  0  0  0  0  0  0  0
    8.4445  -14.6044   22.1688 C   0  0  2  0  0  0  0  0  0  0  0  0
    6.9463  -14.6713   21.9620 C   0  0  0  0  0  0  0  0  0  0  0  0
    9.0472  -15.8364   22.7455 C   0  0  2  0  0  0  0  0  0  0  0  0
    8.4300  -16.1178   24.0604 N   0  0  0  0  0  0  0  0  0  0  0  0
   10.5073  -15.7897   22.9032 C   0  0  0  0  0  0  0  0  0  0  0  0
   11.0634  -15.2520   23.9230 O   0  0  0  0  0  0  0  0  0  0  0  0
   11.6985  -20.1412   17.9211 N   0  0  0  0  0  0  0  0  0  0  0  0
   10.3838  -20.3897   18.3815 C   0  0  0  0  0  0  0  0  0  0  0  0
    9.3723  -20.5331   17.6294 N   0  0  0  0  0  0  0  0  0  0  0  0
   10.2122  -20.4806   19.7950 N   0  0  0  0  0  0  0  0  0  0  0  0
   11.2755  -20.1023   20.7328 C   0  0  0  0  0  0  0  0  0  0  0  0
   11.7873  -18.7500   20.3540 C   0  0  0  0  0  0  0  0  0  0  0  0
   12.8369  -18.1625   21.2130 C   0  0  0  0  0  0  0  0  0  0  0  0
   12.4080  -17.2796   22.3400 C   0  0  2  0  0  0  0  0  0  0  0  0
   11.3736  -16.3434   21.9373 N   0  0  0  0  0  0  0  0  0  0  0  0
   13.6426  -16.5367   22.7673 C   0  0  0  0  0  0  0  0  0  0  0  0
   13.6683  -15.3088   22.4982 O   0  0  0  0  0  0  0  0  0  0  0  0
   14.7095  -17.0955   23.4116 O   0  0  0  0  0  0  0  0  0  0  0  0
  2 10  1  0
  2  1  1  1
  3  2  1  0
  4  3  1  0
  4  5  2  0
  6  5  1  0
  7  6  2  0
  8  9  2  0
  8  7  1  0
  9  4  1  0
 10 11  2  0
 13 12  1  1
 13 15  1  0
 14 13  1  0
 15 16  1  1
 16 10  1  0
 17 18  2  0
 17 15  1  0
 20 19  1  0
 21 20  2  0
 22 20  1  0
 22 23  1  0
 23 24  1  0
 24 25  1  0
 26 25  1  6
 26 28  1  0
 26 27  1  0
 27 17  1  0
 28 30  1  0
 29 28  2  0
M  END
$$$$
