FVR.pdb
     RDKit          3D

 30 30  0  0  1  0  0  0  0  0999 V2000
    8.0739  -16.1328   27.2256 N   0  0  0  0  0  0  0  0  0  0  0  0
    7.5023  -16.0215   25.8987 C   0  0  1  0  0  0  0  0  0  0  0  0
    7.8711  -14.6685   25.3396 C   0  0  0  0  0  0  0  0  0  0  0  0
    7.2145  -13.6109   26.1840 C   0  0  0  0  0  0  0  0  0  0  0  0
    5.8898  -13.3358   25.9598 C   0  0  0  0  0  0  0  0  0  0  0  0
    5.2587  -12.3707   26.7195 C   0  0  0  0  0  0  0  0  0  0  0  0
    5.9060  -11.6594   27.7077 C   0  0  0  0  0  0  0  0  0  0  0  0
    7.2383  -11.9708   27.8970 C   0  0  0  0  0  0  0  0  0  0  0  0
    7.8988  -12.9259   27.1588 C   0  0  0  0  0  0  0  0  0  0  0  0
    7.9939  -17.1351   25.0900 C   0  0  0  0  0  0  0  0  0  0  0  0
    9.1255  -17.6247   25.3191 O   0  0  0  0  0  0  0  0  0  0  0  0
    5.9168  -20.2455   23.5235 C   0  0  0  0  0  0  0  0  0  0  0  0
    6.8520  -19.5978   22.5350 C   0  0  2  0  0  0  0  0  0  0  0  0
    7.3755  -20.6381   21.5677 C   0  0  0  0  0  0  0  0  0  0  0  0
    7.8970  -18.7218   23.1300 C   0  0  2  0  0  0  0  0  0  0  0  0
    7.2582  -17.7280   24.0207 N   0  0  0  0  0  0  0  0  0  0  0  0
    8.7368  -18.0166   22.1520 C   0  0  0  0  0  0  0  0  0  0  0  0
    8.2771  -17.6135   21.0274 O   0  0  0  0  0  0  0  0  0  0  0  0
    8.7722  -12.4005   17.5972 N   0  0  0  0  0  0  0  0  0  0  0  0
    7.9894  -13.5707   17.7381 C   0  0  0  0  0  0  0  0  0  0  0  0
    7.5356  -14.2545   16.7708 N   0  0  0  0  0  0  0  0  0  0  0  0
    7.7055  -13.9883   19.0725 N   0  0  0  0  0  0  0  0  0  0  0  0
    8.7284  -13.9773   20.1245 C   0  0  0  0  0  0  0  0  0  0  0  0
    9.3244  -15.3443   20.2252 C   0  0  0  0  0  0  0  0  0  0  0  0
   10.3103  -15.5712   21.3029 C   0  0  0  0  0  0  0  0  0  0  0  0
   10.8670  -16.9486   21.4654 C   0  0  2  0  0  0  0  0  0  0  0  0
   10.0967  -17.7415   22.4070 N   0  0  0  0  0  0  0  0  0  0  0  0
   12.2707  -16.7631   21.9694 C   0  0  0  0  0  0  0  0  0  0  0  0
   12.4474  -16.9678   23.1973 O   0  0  0  0  0  0  0  0  0  0  0  0
   13.3374  -16.3962   21.1994 O   0  0  0  0  0  0  0  0  0  0  0  0
  2 10  1  0
  2  1  1  1
  3  2  1  0
  4  3  1  0
  4  5  2  0
  6  5  1  0
  7  6  2  0
  8  9  2  0
  8  7  1  0
  9  4  1  0
 10 11  2  0
 13 12  1  1
 13 15  1  0
 14 13  1  0
 15 16  1  1
 16 10  1  0
 17 18  2  0
 17 15  1  0
 20 19  1  0
 21 20  2  0
 22 20  1  0
 22 23  1  0
 23 24  1  0
 24 25  1  0
 26 25  1  1
 26 28  1  0
 26 27  1  0
 27 17  1  0
 28 30  1  0
 29 28  2  0
M  END
$$$$
