FVR.pdb
     RDKit          3D

 30 30  0  0  1  0  0  0  0  0999 V2000
    9.6238  -15.7332   21.4635 N   0  0  0  0  0  0  0  0  0  0  0  0
    8.5694  -14.8437   21.9073 C   0  0  1  0  0  0  0  0  0  0  0  0
    7.3049  -15.2069   21.1668 C   0  0  0  0  0  0  0  0  0  0  0  0
    7.2171  -14.3543   19.9306 C   0  0  0  0  0  0  0  0  0  0  0  0
    7.3918  -14.9616   18.7135 C   0  0  0  0  0  0  0  0  0  0  0  0
    7.3160  -14.2057   17.5604 C   0  0  0  0  0  0  0  0  0  0  0  0
    7.0694  -12.8491   17.5738 C   0  0  0  0  0  0  0  0  0  0  0  0
    6.9003  -12.2818   18.8218 C   0  0  0  0  0  0  0  0  0  0  0  0
    6.9693  -13.0042   19.9909 C   0  0  0  0  0  0  0  0  0  0  0  0
    8.4447  -14.9642   23.3584 C   0  0  0  0  0  0  0  0  0  0  0  0
    9.1904  -15.7512   23.9885 O   0  0  0  0  0  0  0  0  0  0  0  0
    6.5948  -11.8738   25.4576 C   0  0  0  0  0  0  0  0  0  0  0  0
    6.6453  -13.2056   26.1612 C   0  0  2  0  0  0  0  0  0  0  0  0
    6.7336  -12.9917   27.6572 C   0  0  0  0  0  0  0  0  0  0  0  0
    7.6313  -14.1758   25.6135 C   0  0  2  0  0  0  0  0  0  0  0  0
    7.5047  -14.2285   24.1403 N   0  0  0  0  0  0  0  0  0  0  0  0
    7.5165  -15.5381   26.1520 C   0  0  0  0  0  0  0  0  0  0  0  0
    6.4668  -16.2502   25.9800 O   0  0  0  0  0  0  0  0  0  0  0  0
    5.0814  -21.6477   23.8941 N   0  0  0  0  0  0  0  0  0  0  0  0
    5.5821  -22.3057   25.0424 C   0  0  0  0  0  0  0  0  0  0  0  0
    5.1547  -23.4172   25.4794 N   0  0  0  0  0  0  0  0  0  0  0  0
    6.6414  -21.6508   25.7386 N   0  0  0  0  0  0  0  0  0  0  0  0
    7.0668  -20.2875   25.4015 C   0  0  0  0  0  0  0  0  0  0  0  0
    8.0940  -19.8486   26.3946 C   0  0  0  0  0  0  0  0  0  0  0  0
    8.6508  -18.4892   26.2313 C   0  0  0  0  0  0  0  0  0  0  0  0
    8.4427  -17.5083   27.3395 C   0  0  2  0  0  0  0  0  0  0  0  0
    8.5646  -16.1350   26.8835 N   0  0  0  0  0  0  0  0  0  0  0  0
    9.5053  -17.8134   28.3577 C   0  0  0  0  0  0  0  0  0  0  0  0
    9.4376  -18.9440   28.9036 O   0  0  0  0  0  0  0  0  0  0  0  0
   10.5121  -16.9638   28.7179 O   0  0  0  0  0  0  0  0  0  0  0  0
  2 10  1  0
  2  1  1  6
  3  2  1  0
  4  3  1  0
  4  5  2  0
  6  5  1  0
  7  6  2  0
  8  9  2  0
  8  7  1  0
  9  4  1  0
 10 11  2  0
 13 12  1  6
 13 15  1  0
 14 13  1  0
 15 16  1  6
 16 10  1  0
 17 18  2  0
 17 15  1  0
 20 19  1  0
 21 20  2  0
 22 20  1  0
 22 23  1  0
 23 24  1  0
 24 25  1  0
 26 25  1  6
 26 28  1  0
 26 27  1  0
 27 17  1  0
 28 30  1  0
 29 28  2  0
M  END
$$$$
