FVR.pdb
     RDKit          3D

 30 30  0  0  1  0  0  0  0  0999 V2000
    6.5717  -16.6573   27.0796 N   0  0  0  0  0  0  0  0  0  0  0  0
    6.5316  -16.9981   25.6718 C   0  0  1  0  0  0  0  0  0  0  0  0
    6.2738  -15.7334   24.8887 C   0  0  0  0  0  0  0  0  0  0  0  0
    6.8974  -14.5816   25.6284 C   0  0  0  0  0  0  0  0  0  0  0  0
    6.1733  -13.9907   26.6320 C   0  0  0  0  0  0  0  0  0  0  0  0
    6.7192  -12.9316   27.3301 C   0  0  0  0  0  0  0  0  0  0  0  0
    7.9762  -12.4320   27.0627 C   0  0  0  0  0  0  0  0  0  0  0  0
    8.6673  -13.0587   26.0441 C   0  0  0  0  0  0  0  0  0  0  0  0
    8.1546  -14.1158   25.3280 C   0  0  0  0  0  0  0  0  0  0  0  0
    7.7910  -17.6501   25.3191 C   0  0  0  0  0  0  0  0  0  0  0  0
    8.7807  -17.5572   26.0837 O   0  0  0  0  0  0  0  0  0  0  0  0
   10.3097  -21.2233   23.0438 C   0  0  0  0  0  0  0  0  0  0  0  0
    9.0644  -20.4077   23.2788 C   0  0  2  0  0  0  0  0  0  0  0  0
    8.1960  -20.4297   22.0390 C   0  0  0  0  0  0  0  0  0  0  0  0
    9.2911  -19.0545   23.8540 C   0  0  2  0  0  0  0  0  0  0  0  0
    7.9873  -18.4107   24.1278 N   0  0  0  0  0  0  0  0  0  0  0  0
   10.0997  -18.1586   23.0158 C   0  0  0  0  0  0  0  0  0  0  0  0
   11.2957  -18.4514   22.6661 O   0  0  0  0  0  0  0  0  0  0  0  0
    9.2881  -14.0324   16.2555 N   0  0  0  0  0  0  0  0  0  0  0  0
    8.4154  -13.5146   17.2416 C   0  0  0  0  0  0  0  0  0  0  0  0
    7.2384  -13.0993   17.0154 N   0  0  0  0  0  0  0  0  0  0  0  0
    8.9203  -13.4676   18.5753 N   0  0  0  0  0  0  0  0  0  0  0  0
   10.2108  -14.0636   18.9391 C   0  0  0  0  0  0  0  0  0  0  0  0
   10.4206  -13.8877   20.4085 C   0  0  0  0  0  0  0  0  0  0  0  0
    9.7138  -14.8251   21.3066 C   0  0  0  0  0  0  0  0  0  0  0  0
   10.3663  -16.1358   21.6062 C   0  0  2  0  0  0  0  0  0  0  0  0
    9.5940  -16.9281   22.5467 N   0  0  0  0  0  0  0  0  0  0  0  0
   11.7085  -15.7977   22.1917 C   0  0  0  0  0  0  0  0  0  0  0  0
   11.7561  -15.7053   23.4447 O   0  0  0  0  0  0  0  0  0  0  0  0
   12.8485  -15.5898   21.4690 O   0  0  0  0  0  0  0  0  0  0  0  0
  2 10  1  0
  2  1  1  1
  3  2  1  0
  4  3  1  0
  4  5  2  0
  6  5  1  0
  7  6  2  0
  8  9  2  0
  8  7  1  0
  9  4  1  0
 10 11  2  0
 13 12  1  6
 13 15  1  0
 14 13  1  0
 15 16  1  6
 16 10  1  0
 17 18  2  0
 17 15  1  0
 20 19  1  0
 21 20  2  0
 22 20  1  0
 22 23  1  0
 23 24  1  0
 24 25  1  0
 26 25  1  1
 26 28  1  0
 26 27  1  0
 27 17  1  0
 28 30  1  0
 29 28  2  0
M  END
$$$$
