FVR.pdb
     RDKit          3D

 30 30  0  0  1  0  0  0  0  0999 V2000
    9.6736  -14.4121   21.1217 N   0  0  0  0  0  0  0  0  0  0  0  0
    8.3684  -14.1173   21.6778 C   0  0  1  0  0  0  0  0  0  0  0  0
    7.3666  -15.0563   21.0501 C   0  0  0  0  0  0  0  0  0  0  0  0
    7.1615  -14.6436   19.6182 C   0  0  0  0  0  0  0  0  0  0  0  0
    7.6850  -15.4430   18.6345 C   0  0  0  0  0  0  0  0  0  0  0  0
    7.5124  -15.0913   17.3103 C   0  0  0  0  0  0  0  0  0  0  0  0
    6.8289  -13.9579   16.9236 C   0  0  0  0  0  0  0  0  0  0  0  0
    6.3201  -13.1844   17.9486 C   0  0  0  0  0  0  0  0  0  0  0  0
    6.4730  -13.5043   19.2781 C   0  0  0  0  0  0  0  0  0  0  0  0
    8.4474  -14.2435   23.1316 C   0  0  0  0  0  0  0  0  0  0  0  0
    9.3489  -14.9427   23.6522 O   0  0  0  0  0  0  0  0  0  0  0  0
    6.7076  -11.3763   25.5985 C   0  0  0  0  0  0  0  0  0  0  0  0
    6.8228  -12.7591   26.1866 C   0  0  2  0  0  0  0  0  0  0  0  0
    7.0133  -12.6641   27.6855 C   0  0  0  0  0  0  0  0  0  0  0  0
    7.7793  -13.6652   25.4955 C   0  0  2  0  0  0  0  0  0  0  0  0
    7.5436  -13.6096   24.0359 N   0  0  0  0  0  0  0  0  0  0  0  0
    7.7251  -15.0661   25.9353 C   0  0  0  0  0  0  0  0  0  0  0  0
    6.7724  -15.8492   25.5925 O   0  0  0  0  0  0  0  0  0  0  0  0
   13.4455  -18.5720   23.4021 N   0  0  0  0  0  0  0  0  0  0  0  0
   12.1680  -19.1591   23.2422 C   0  0  0  0  0  0  0  0  0  0  0  0
   11.4292  -19.0095   22.2219 N   0  0  0  0  0  0  0  0  0  0  0  0
   11.7027  -19.9712   24.3190 N   0  0  0  0  0  0  0  0  0  0  0  0
   11.5080  -19.4332   25.6703 C   0  0  0  0  0  0  0  0  0  0  0  0
   10.0691  -19.0636   25.8343 C   0  0  0  0  0  0  0  0  0  0  0  0
    9.7327  -17.6254   25.7778 C   0  0  0  0  0  0  0  0  0  0  0  0
    8.8661  -17.0649   26.8587 C   0  0  2  0  0  0  0  0  0  0  0  0
    8.7283  -15.6230   26.7559 N   0  0  0  0  0  0  0  0  0  0  0  0
    9.5398  -17.4312   28.1513 C   0  0  0  0  0  0  0  0  0  0  0  0
   10.1198  -16.4937   28.7559 O   0  0  0  0  0  0  0  0  0  0  0  0
    9.5617  -18.6835   28.6958 O   0  0  0  0  0  0  0  0  0  0  0  0
  2 10  1  0
  2  1  1  6
  3  2  1  0
  4  3  1  0
  4  5  2  0
  6  5  1  0
  7  6  2  0
  8  9  2  0
  8  7  1  0
  9  4  1  0
 10 11  2  0
 13 12  1  6
 13 15  1  0
 14 13  1  0
 15 16  1  6
 16 10  1  0
 17 18  2  0
 17 15  1  0
 20 19  1  0
 21 20  2  0
 22 20  1  0
 22 23  1  0
 23 24  1  0
 24 25  1  0
 26 25  1  6
 26 28  1  0
 26 27  1  0
 27 17  1  0
 28 30  1  0
 29 28  2  0
M  END
$$$$
