SMH.pdb
     RDKit          3D

 25 25  0  0  1  0  0  0  0  0999 V2000
   26.4478  -19.8255  -17.3492 O   0  0  0  0  0  0  0  0  0  0  0  0
   27.6294  -19.9041  -16.6414 C   0  0  0  0  0  0  0  0  0  0  0  0
   27.8340  -21.2949  -16.0815 C   0  0  2  0  0  0  0  0  0  0  0  0
   27.8572  -22.3041  -17.1088 N   0  0  0  0  0  0  0  0  0  0  0  0
   26.8103  -21.6272  -15.0671 C   0  0  0  0  0  0  0  0  0  0  0  0
   25.9726  -22.5297  -15.2485 O   0  0  0  0  0  0  0  0  0  0  0  0
   24.3810  -20.3382   -7.6511 C   0  0  0  0  0  0  0  0  0  0  0  0
   25.6883  -20.2274   -8.8940 S   0  0  0  0  0  0  0  0  0  0  0  0
   25.0709  -20.9345  -10.4572 C   0  0  0  0  0  0  0  0  0  0  0  0
   26.1643  -20.7545  -11.4757 C   0  0  0  0  0  0  0  0  0  0  0  0
   25.8000  -21.2219  -12.8478 C   0  0  2  0  0  0  0  0  0  0  0  0
   26.7798  -20.8886  -13.8388 N   0  0  0  0  0  0  0  0  0  0  0  0
   24.4844  -20.6454  -13.3162 C   0  0  0  0  0  0  0  0  0  0  0  0
   24.3483  -19.4686  -13.6829 O   0  0  0  0  0  0  0  0  0  0  0  0
   23.3250  -21.4933  -13.3396 N   0  0  0  0  0  0  0  0  0  0  0  0
   22.0033  -21.0011  -13.6920 C   0  0  1  0  0  0  0  0  0  0  0  0
   21.0571  -22.1490  -13.9628 C   0  0  0  0  0  0  0  0  0  0  0  0
   19.7096  -21.6804  -14.4026 C   0  0  0  0  0  0  0  0  0  0  0  0
   19.3427  -20.5925  -15.1269 C   0  0  0  0  0  0  0  0  0  0  0  0
   17.9998  -20.5457  -15.2781 N   0  0  0  0  0  0  0  0  0  0  0  0
   17.5221  -21.6089  -14.6443 C   0  0  0  0  0  0  0  0  0  0  0  0
   18.5453  -22.3398  -14.0891 N   0  0  0  0  0  0  0  0  0  0  0  0
   21.4659  -20.1315  -12.6167 C   0  0  0  0  0  0  0  0  0  0  0  0
   21.6699  -20.4504  -11.4233 O   0  0  0  0  0  0  0  0  0  0  0  0
   20.7485  -18.9861  -12.8707 O   0  0  0  0  0  0  0  0  0  0  0  0
  2  1  1  0
  2  3  1  0
  3  4  1  6
  5  3  1  0
  5  6  2  0
  7  8  1  0
  8  9  1  0
  9 10  1  0
 11 10  1  1
 11 12  1  0
 11 13  1  0
 12  5  1  0
 13 15  1  0
 13 14  2  0
 15 16  1  0
 16 23  1  0
 17 18  1  0
 16 17  1  1
 18 19  2  0
 19 20  1  0
 21 20  1  0
 22 18  1  0
 22 21  2  0
 23 24  2  0
 23 25  1  0
M  END
$$$$
