SMH.pdb
     RDKit          3D

 25 25  0  0  1  0  0  0  0  0999 V2000
   21.0227  -13.4348  -18.9198 O   0  0  0  0  0  0  0  0  0  0  0  0
   22.3482  -13.0583  -18.9869 C   0  0  0  0  0  0  0  0  0  0  0  0
   22.4779  -11.5608  -19.1610 C   0  0  2  0  0  0  0  0  0  0  0  0
   23.8479  -11.1396  -19.3027 N   0  0  0  0  0  0  0  0  0  0  0  0
   21.8344  -10.8277  -18.0492 C   0  0  0  0  0  0  0  0  0  0  0  0
   20.6041  -10.8607  -17.8641 O   0  0  0  0  0  0  0  0  0  0  0  0
   21.9780   -9.3630  -10.5673 C   0  0  0  0  0  0  0  0  0  0  0  0
   22.7931  -10.0044  -12.0473 S   0  0  0  0  0  0  0  0  0  0  0  0
   22.0698   -9.1936  -13.5116 C   0  0  0  0  0  0  0  0  0  0  0  0
   22.6198   -9.9069  -14.7175 C   0  0  0  0  0  0  0  0  0  0  0  0
   22.0448   -9.4388  -16.0153 C   0  0  2  0  0  0  0  0  0  0  0  0
   22.6500  -10.0554  -17.1584 N   0  0  0  0  0  0  0  0  0  0  0  0
   22.1827   -7.9451  -16.1946 C   0  0  0  0  0  0  0  0  0  0  0  0
   23.2161   -7.4016  -16.6125 O   0  0  0  0  0  0  0  0  0  0  0  0
   21.0678   -7.1014  -15.8646 N   0  0  0  0  0  0  0  0  0  0  0  0
   21.0552   -5.6757  -16.1486 C   0  0  1  0  0  0  0  0  0  0  0  0
   21.3867   -5.4142  -17.6005 C   0  0  0  0  0  0  0  0  0  0  0  0
   21.3579   -3.9594  -17.9347 C   0  0  0  0  0  0  0  0  0  0  0  0
   22.3331   -3.0170  -17.8744 C   0  0  0  0  0  0  0  0  0  0  0  0
   21.8596   -1.8094  -18.2568 N   0  0  0  0  0  0  0  0  0  0  0  0
   20.5807   -1.9954  -18.5573 C   0  0  0  0  0  0  0  0  0  0  0  0
   20.2283   -3.3113  -18.3737 N   0  0  0  0  0  0  0  0  0  0  0  0
   19.7375   -5.0864  -15.8055 C   0  0  0  0  0  0  0  0  0  0  0  0
   18.7723   -5.8524  -15.5840 O   0  0  0  0  0  0  0  0  0  0  0  0
   19.5249   -3.7304  -15.7206 O   0  0  0  0  0  0  0  0  0  0  0  0
  2  1  1  0
  2  3  1  0
  3  4  1  1
  5  3  1  0
  5  6  2  0
  7  8  1  0
  8  9  1  0
  9 10  1  0
 11 10  1  1
 11 12  1  0
 11 13  1  0
 12  5  1  0
 13 15  1  0
 13 14  2  0
 15 16  1  0
 16 23  1  0
 17 18  1  0
 16 17  1  6
 18 19  2  0
 19 20  1  0
 21 20  1  0
 22 18  1  0
 22 21  2  0
 23 24  2  0
 23 25  1  0
M  END
$$$$
