SMH.pdb
     RDKit          3D

 25 25  0  0  1  0  0  0  0  0999 V2000
   26.9187  -18.5784  -16.0497 O   0  0  0  0  0  0  0  0  0  0  0  0
   28.0731  -18.8587  -15.3481 C   0  0  0  0  0  0  0  0  0  0  0  0
   28.2127  -20.3460  -15.1068 C   0  0  2  0  0  0  0  0  0  0  0  0
   28.2448  -21.1019  -16.3324 N   0  0  0  0  0  0  0  0  0  0  0  0
   27.1404  -20.8555  -14.2247 C   0  0  0  0  0  0  0  0  0  0  0  0
   26.3136  -21.7003  -14.6142 O   0  0  0  0  0  0  0  0  0  0  0  0
   27.1438  -19.9528   -7.9762 C   0  0  0  0  0  0  0  0  0  0  0  0
   25.3750  -20.3157   -8.0508 S   0  0  0  0  0  0  0  0  0  0  0  0
   24.9504  -20.8105   -9.7536 C   0  0  0  0  0  0  0  0  0  0  0  0
   26.1091  -20.4047  -10.6243 C   0  0  0  0  0  0  0  0  0  0  0  0
   25.9396  -20.7598  -12.0661 C   0  0  2  0  0  0  0  0  0  0  0  0
   27.0486  -20.3621  -12.8818 N   0  0  0  0  0  0  0  0  0  0  0  0
   24.7029  -20.1333  -12.6664 C   0  0  0  0  0  0  0  0  0  0  0  0
   24.7075  -19.0371  -13.2463 O   0  0  0  0  0  0  0  0  0  0  0  0
   23.4521  -20.8322  -12.5637 N   0  0  0  0  0  0  0  0  0  0  0  0
   22.2670  -20.4269  -13.3017 C   0  0  1  0  0  0  0  0  0  0  0  0
   22.4567  -20.6472  -14.7856 C   0  0  0  0  0  0  0  0  0  0  0  0
   21.2941  -20.1574  -15.5839 C   0  0  0  0  0  0  0  0  0  0  0  0
   20.1185  -19.6047  -15.1898 C   0  0  0  0  0  0  0  0  0  0  0  0
   19.3379  -19.3221  -16.2572 N   0  0  0  0  0  0  0  0  0  0  0  0
   20.0271  -19.7005  -17.3260 C   0  0  0  0  0  0  0  0  0  0  0  0
   21.2439  -20.2217  -16.9558 N   0  0  0  0  0  0  0  0  0  0  0  0
   21.0733  -21.1638  -12.8186 C   0  0  0  0  0  0  0  0  0  0  0  0
   21.2282  -22.2969  -12.3091 O   0  0  0  0  0  0  0  0  0  0  0  0
   19.7974  -20.6586  -12.9065 O   0  0  0  0  0  0  0  0  0  0  0  0
  2  1  1  0
  2  3  1  0
  3  4  1  6
  5  3  1  0
  5  6  2  0
  7  8  1  0
  8  9  1  0
  9 10  1  0
 11 10  1  1
 11 12  1  0
 11 13  1  0
 12  5  1  0
 13 15  1  0
 13 14  2  0
 15 16  1  0
 16 23  1  0
 17 18  1  0
 16 17  1  6
 18 19  2  0
 19 20  1  0
 21 20  1  0
 22 18  1  0
 22 21  2  0
 23 24  2  0
 23 25  1  0
M  END
$$$$
