SMH.pdb
     RDKit          3D

 25 25  0  0  1  0  0  0  0  0999 V2000
   18.2276  -14.6628  -17.7177 O   0  0  0  0  0  0  0  0  0  0  0  0
   19.5033  -14.9093  -18.1818 C   0  0  0  0  0  0  0  0  0  0  0  0
   20.3540  -15.5560  -17.1105 C   0  0  2  0  0  0  0  0  0  0  0  0
   19.6532  -16.5983  -16.4056 N   0  0  0  0  0  0  0  0  0  0  0  0
   20.8725  -14.5557  -16.1523 C   0  0  0  0  0  0  0  0  0  0  0  0
   20.4047  -14.4393  -15.0049 O   0  0  0  0  0  0  0  0  0  0  0  0
   27.1633  -15.3776  -15.1395 C   0  0  0  0  0  0  0  0  0  0  0  0
   26.3537  -13.7724  -15.3240 S   0  0  0  0  0  0  0  0  0  0  0  0
   24.5476  -14.0214  -15.2963 C   0  0  0  0  0  0  0  0  0  0  0  0
   23.9210  -12.6744  -15.5380 C   0  0  0  0  0  0  0  0  0  0  0  0
   22.4300  -12.7066  -15.6374 C   0  0  2  0  0  0  0  0  0  0  0  0
   21.9445  -13.6936  -16.5557 N   0  0  0  0  0  0  0  0  0  0  0  0
   21.8585  -11.3781  -16.0741 C   0  0  0  0  0  0  0  0  0  0  0  0
   21.7495  -11.0410  -17.2626 O   0  0  0  0  0  0  0  0  0  0  0  0
   21.4186  -10.4490  -15.0706 N   0  0  0  0  0  0  0  0  0  0  0  0
   21.0021   -9.0932  -15.3892 C   0  0  1  0  0  0  0  0  0  0  0  0
   19.4983   -8.9592  -15.3041 C   0  0  0  0  0  0  0  0  0  0  0  0
   18.8018   -9.6885  -16.4049 C   0  0  0  0  0  0  0  0  0  0  0  0
   18.9247   -9.5850  -17.7529 C   0  0  0  0  0  0  0  0  0  0  0  0
   18.0779  -10.4328  -18.3797 N   0  0  0  0  0  0  0  0  0  0  0  0
   17.4198  -11.0701  -17.4199 C   0  0  0  0  0  0  0  0  0  0  0  0
   17.8370  -10.6416  -16.1823 N   0  0  0  0  0  0  0  0  0  0  0  0
   21.6594   -8.1185  -14.4841 C   0  0  0  0  0  0  0  0  0  0  0  0
   22.3463   -8.5484  -13.5298 O   0  0  0  0  0  0  0  0  0  0  0  0
   21.5475   -6.7573  -14.6441 O   0  0  0  0  0  0  0  0  0  0  0  0
  2  1  1  0
  2  3  1  0
  3  4  1  1
  5  3  1  0
  5  6  2  0
  7  8  1  0
  8  9  1  0
  9 10  1  0
 11 10  1  6
 11 12  1  0
 11 13  1  0
 12  5  1  0
 13 15  1  0
 13 14  2  0
 15 16  1  0
 16 23  1  0
 17 18  1  0
 16 17  1  1
 18 19  2  0
 19 20  1  0
 21 20  1  0
 22 18  1  0
 22 21  2  0
 23 24  2  0
 23 25  1  0
M  END
$$$$
