SMH.pdb
     RDKit          3D

 25 25  0  0  1  0  0  0  0  0999 V2000
   25.2252  -11.4726  -22.0868 O   0  0  0  0  0  0  0  0  0  0  0  0
   24.5739  -11.1792  -20.9065 C   0  0  0  0  0  0  0  0  0  0  0  0
   25.1205  -12.0091  -19.7653 C   0  0  2  0  0  0  0  0  0  0  0  0
   24.5967  -13.3507  -19.7601 N   0  0  0  0  0  0  0  0  0  0  0  0
   24.8734  -11.3631  -18.4579 C   0  0  0  0  0  0  0  0  0  0  0  0
   23.8316  -11.5686  -17.8087 O   0  0  0  0  0  0  0  0  0  0  0  0
   28.5098  -13.4726  -15.2750 C   0  0  0  0  0  0  0  0  0  0  0  0
   27.9584  -12.0251  -16.2060 S   0  0  0  0  0  0  0  0  0  0  0  0
   27.2547  -10.8127  -15.0400 C   0  0  0  0  0  0  0  0  0  0  0  0
   26.8465   -9.6147  -15.8547 C   0  0  0  0  0  0  0  0  0  0  0  0
   25.6107   -9.8254  -16.6685 C   0  0  2  0  0  0  0  0  0  0  0  0
   25.8612  -10.4731  -17.9218 N   0  0  0  0  0  0  0  0  0  0  0  0
   24.9021   -8.5271  -16.9762 C   0  0  0  0  0  0  0  0  0  0  0  0
   25.2835   -7.7331  -17.8492 O   0  0  0  0  0  0  0  0  0  0  0  0
   23.7276   -8.1832  -16.2240 N   0  0  0  0  0  0  0  0  0  0  0  0
   22.9719   -6.9654  -16.4675 C   0  0  1  0  0  0  0  0  0  0  0  0
   22.5249   -6.8900  -17.9100 C   0  0  0  0  0  0  0  0  0  0  0  0
   21.5307   -7.9503  -18.2509 C   0  0  0  0  0  0  0  0  0  0  0  0
   21.6331   -9.0326  -19.0638 C   0  0  0  0  0  0  0  0  0  0  0  0
   20.4705   -9.7224  -19.0955 N   0  0  0  0  0  0  0  0  0  0  0  0
   19.6344   -9.0686  -18.2993 C   0  0  0  0  0  0  0  0  0  0  0  0
   20.2492   -7.9664  -17.7546 N   0  0  0  0  0  0  0  0  0  0  0  0
   21.8014   -6.8865  -15.5593 C   0  0  0  0  0  0  0  0  0  0  0  0
   21.5150   -7.8813  -14.8551 O   0  0  0  0  0  0  0  0  0  0  0  0
   21.0106   -5.7663  -15.4554 O   0  0  0  0  0  0  0  0  0  0  0  0
  2  1  1  0
  2  3  1  0
  3  4  1  1
  5  3  1  0
  5  6  2  0
  7  8  1  0
  8  9  1  0
  9 10  1  0
 11 10  1  6
 11 12  1  0
 11 13  1  0
 12  5  1  0
 13 15  1  0
 13 14  2  0
 15 16  1  0
 16 23  1  0
 17 18  1  0
 16 17  1  6
 18 19  2  0
 19 20  1  0
 21 20  1  0
 22 18  1  0
 22 21  2  0
 23 24  2  0
 23 25  1  0
M  END
$$$$
