SMH.pdb
     RDKit          3D

 25 25  0  0  1  0  0  0  0  0999 V2000
   29.2101   -8.8827  -17.8739 O   0  0  0  0  0  0  0  0  0  0  0  0
   27.8392   -8.8755  -17.7185 C   0  0  0  0  0  0  0  0  0  0  0  0
   27.3072  -10.2805  -17.5379 C   0  0  2  0  0  0  0  0  0  0  0  0
   27.5704  -11.1198  -18.6784 N   0  0  0  0  0  0  0  0  0  0  0  0
   25.8597  -10.2775  -17.2338 C   0  0  0  0  0  0  0  0  0  0  0  0
   24.9985  -10.3144  -18.1315 O   0  0  0  0  0  0  0  0  0  0  0  0
   22.5276  -15.3365  -14.4314 C   0  0  0  0  0  0  0  0  0  0  0  0
   22.7569  -13.6577  -13.8029 S   0  0  0  0  0  0  0  0  0  0  0  0
   23.3784  -12.6059  -15.1566 C   0  0  0  0  0  0  0  0  0  0  0  0
   23.6268  -11.2433  -14.5674 C   0  0  0  0  0  0  0  0  0  0  0  0
   24.0325  -10.2122  -15.5702 C   0  0  2  0  0  0  0  0  0  0  0  0
   25.4346  -10.2297  -15.8655 N   0  0  0  0  0  0  0  0  0  0  0  0
   23.6943   -8.8113  -15.1168 C   0  0  0  0  0  0  0  0  0  0  0  0
   24.5442   -7.9995  -14.7211 O   0  0  0  0  0  0  0  0  0  0  0  0
   22.3217   -8.3881  -15.1382 N   0  0  0  0  0  0  0  0  0  0  0  0
   21.9177   -7.0283  -14.8206 C   0  0  1  0  0  0  0  0  0  0  0  0
   22.7127   -6.0287  -15.6301 C   0  0  0  0  0  0  0  0  0  0  0  0
   22.3017   -4.6205  -15.3527 C   0  0  0  0  0  0  0  0  0  0  0  0
   22.3380   -3.8967  -14.2048 C   0  0  0  0  0  0  0  0  0  0  0  0
   21.8450   -2.6534  -14.4042 N   0  0  0  0  0  0  0  0  0  0  0  0
   21.4967   -2.5978  -15.6833 C   0  0  0  0  0  0  0  0  0  0  0  0
   21.7631   -3.7927  -16.3083 N   0  0  0  0  0  0  0  0  0  0  0  0
   20.4646   -6.8460  -15.0581 C   0  0  0  0  0  0  0  0  0  0  0  0
   19.9140   -7.5051  -15.9691 O   0  0  0  0  0  0  0  0  0  0  0  0
   19.6899   -5.9809  -14.3215 O   0  0  0  0  0  0  0  0  0  0  0  0
  2  1  1  0
  2  3  1  0
  3  4  1  6
  5  3  1  0
  5  6  2  0
  7  8  1  0
  8  9  1  0
  9 10  1  0
 11 10  1  1
 11 12  1  0
 11 13  1  0
 12  5  1  0
 13 15  1  0
 13 14  2  0
 15 16  1  0
 16 23  1  0
 17 18  1  0
 16 17  1  6
 18 19  2  0
 19 20  1  0
 21 20  1  0
 22 18  1  0
 22 21  2  0
 23 24  2  0
 23 25  1  0
M  END
$$$$
