SMH.pdb
     RDKit          3D

 25 25  0  0  1  0  0  0  0  0999 V2000
   16.9047  -12.7800  -16.7713 O   0  0  0  0  0  0  0  0  0  0  0  0
   17.8641  -12.1361  -16.0174 C   0  0  0  0  0  0  0  0  0  0  0  0
   19.2024  -12.8324  -16.1344 C   0  0  2  0  0  0  0  0  0  0  0  0
   19.1660  -14.1828  -15.6351 N   0  0  0  0  0  0  0  0  0  0  0  0
   20.2721  -12.0693  -15.4554 C   0  0  0  0  0  0  0  0  0  0  0  0
   20.8931  -12.5314  -14.4809 O   0  0  0  0  0  0  0  0  0  0  0  0
   27.2344  -10.2403  -15.4729 C   0  0  0  0  0  0  0  0  0  0  0  0
   25.7023  -11.0198  -16.0307 S   0  0  0  0  0  0  0  0  0  0  0  0
   24.2904  -10.0961  -15.3392 C   0  0  0  0  0  0  0  0  0  0  0  0
   23.0441  -10.8149  -15.7814 C   0  0  0  0  0  0  0  0  0  0  0  0
   21.7762  -10.1078  -15.4263 C   0  0  2  0  0  0  0  0  0  0  0  0
   20.6039  -10.7585  -15.9318 N   0  0  0  0  0  0  0  0  0  0  0  0
   21.7507   -8.6883  -15.9426 C   0  0  0  0  0  0  0  0  0  0  0  0
   21.6992   -8.4028  -17.1484 O   0  0  0  0  0  0  0  0  0  0  0  0
   21.7907   -7.6063  -14.9985 N   0  0  0  0  0  0  0  0  0  0  0  0
   21.6420   -6.2159  -15.3960 C   0  0  1  0  0  0  0  0  0  0  0  0
   21.2092   -5.3653  -14.2231 C   0  0  0  0  0  0  0  0  0  0  0  0
   21.0443   -3.9290  -14.5957 C   0  0  0  0  0  0  0  0  0  0  0  0
   21.1893   -3.3014  -15.7906 C   0  0  0  0  0  0  0  0  0  0  0  0
   20.9585   -1.9745  -15.6683 N   0  0  0  0  0  0  0  0  0  0  0  0
   20.6686   -1.7691  -14.3900 C   0  0  0  0  0  0  0  0  0  0  0  0
   20.7087   -2.9513  -13.6900 N   0  0  0  0  0  0  0  0  0  0  0  0
   22.9085   -5.6983  -15.9699 C   0  0  0  0  0  0  0  0  0  0  0  0
   23.9741   -5.8713  -15.3360 O   0  0  0  0  0  0  0  0  0  0  0  0
   22.9668   -5.0320  -17.1714 O   0  0  0  0  0  0  0  0  0  0  0  0
  2  1  1  0
  2  3  1  0
  3  4  1  1
  5  3  1  0
  5  6  2  0
  7  8  1  0
  8  9  1  0
  9 10  1  0
 11 10  1  6
 11 12  1  0
 11 13  1  0
 12  5  1  0
 13 15  1  0
 13 14  2  0
 15 16  1  0
 16 23  1  0
 17 18  1  0
 16 17  1  1
 18 19  2  0
 19 20  1  0
 21 20  1  0
 22 18  1  0
 22 21  2  0
 23 24  2  0
 23 25  1  0
M  END
$$$$
