SMH.pdb
     RDKit          3D

 25 25  0  0  1  0  0  0  0  0999 V2000
   13.4717  -22.1288   -3.4578 O   0  0  0  0  0  0  0  0  0  0  0  0
   14.7884  -22.1230   -3.0458 C   0  0  0  0  0  0  0  0  0  0  0  0
   15.0407  -23.2089   -2.0226 C   0  0  2  0  0  0  0  0  0  0  0  0
   14.3056  -24.4144   -2.3066 N   0  0  0  0  0  0  0  0  0  0  0  0
   14.7402  -22.7427   -0.6515 C   0  0  0  0  0  0  0  0  0  0  0  0
   13.7432  -23.1438   -0.0237 O   0  0  0  0  0  0  0  0  0  0  0  0
   16.7686  -22.0629    6.3696 C   0  0  0  0  0  0  0  0  0  0  0  0
   17.2175  -22.3647    4.6452 S   0  0  0  0  0  0  0  0  0  0  0  0
   16.4440  -21.0815    3.6060 C   0  0  0  0  0  0  0  0  0  0  0  0
   16.6443  -21.5040    2.1753 C   0  0  0  0  0  0  0  0  0  0  0  0
   15.4034  -21.4438    1.3443 C   0  0  2  0  0  0  0  0  0  0  0  0
   15.6215  -21.8005   -0.0262 N   0  0  0  0  0  0  0  0  0  0  0  0
   14.7802  -20.0676    1.3486 C   0  0  0  0  0  0  0  0  0  0  0  0
   15.3084  -19.0788    0.8182 O   0  0  0  0  0  0  0  0  0  0  0  0
   13.5131  -19.8824    1.9997 N   0  0  0  0  0  0  0  0  0  0  0  0
   12.8430  -18.5935    2.0541 C   0  0  1  0  0  0  0  0  0  0  0  0
   11.3421  -18.7700    2.1048 C   0  0  0  0  0  0  0  0  0  0  0  0
   10.6402  -17.9482    1.0749 C   0  0  0  0  0  0  0  0  0  0  0  0
   10.5631  -18.0934   -0.2727 C   0  0  0  0  0  0  0  0  0  0  0  0
    9.8290  -17.0997   -0.8224 N   0  0  0  0  0  0  0  0  0  0  0  0
    9.4449  -16.3268    0.1854 C   0  0  0  0  0  0  0  0  0  0  0  0
    9.9233  -16.8155    1.3777 N   0  0  0  0  0  0  0  0  0  0  0  0
   13.3108  -17.8105    3.2243 C   0  0  0  0  0  0  0  0  0  0  0  0
   13.6876  -18.4228    4.2492 O   0  0  0  0  0  0  0  0  0  0  0  0
   13.3483  -16.4359    3.2368 O   0  0  0  0  0  0  0  0  0  0  0  0
  2  1  1  0
  2  3  1  0
  3  4  1  6
  5  3  1  0
  5  6  2  0
  7  8  1  0
  8  9  1  0
  9 10  1  0
 11 10  1  1
 11 12  1  0
 11 13  1  0
 12  5  1  0
 13 15  1  0
 13 14  2  0
 15 16  1  0
 16 23  1  0
 17 18  1  0
 16 17  1  1
 18 19  2  0
 19 20  1  0
 21 20  1  0
 22 18  1  0
 22 21  2  0
 23 24  2  0
 23 25  1  0
M  END
$$$$
