SMH.pdb
     RDKit          3D

 25 25  0  0  1  0  0  0  0  0999 V2000
   16.1690  -11.7947  -17.5053 O   0  0  0  0  0  0  0  0  0  0  0  0
   17.0648  -11.4670  -16.5086 C   0  0  0  0  0  0  0  0  0  0  0  0
   18.4678  -11.8963  -16.8785 C   0  0  2  0  0  0  0  0  0  0  0  0
   18.6266  -13.3278  -16.8669 N   0  0  0  0  0  0  0  0  0  0  0  0
   19.4772  -11.2669  -15.9996 C   0  0  0  0  0  0  0  0  0  0  0  0
   19.6187  -11.6073  -14.8108 O   0  0  0  0  0  0  0  0  0  0  0  0
   26.7135  -10.3331  -14.6426 C   0  0  0  0  0  0  0  0  0  0  0  0
   25.2904  -10.9393  -15.5771 S   0  0  0  0  0  0  0  0  0  0  0  0
   23.8238   -9.9621  -15.1092 C   0  0  0  0  0  0  0  0  0  0  0  0
   22.6793  -10.4722  -15.9430 C   0  0  0  0  0  0  0  0  0  0  0  0
   21.3973   -9.7332  -15.7328 C   0  0  2  0  0  0  0  0  0  0  0  0
   20.3174  -10.2337  -16.5305 N   0  0  0  0  0  0  0  0  0  0  0  0
   21.5302   -8.2607  -16.0434 C   0  0  0  0  0  0  0  0  0  0  0  0
   21.7523   -7.8219  -17.1819 O   0  0  0  0  0  0  0  0  0  0  0  0
   21.3972   -7.3117  -14.9732 N   0  0  0  0  0  0  0  0  0  0  0  0
   21.4348   -5.8752  -15.1929 C   0  0  1  0  0  0  0  0  0  0  0  0
   20.0504   -5.2778  -15.0789 C   0  0  0  0  0  0  0  0  0  0  0  0
   19.1393   -5.7492  -16.1637 C   0  0  0  0  0  0  0  0  0  0  0  0
   19.0726   -5.4072  -17.4757 C   0  0  0  0  0  0  0  0  0  0  0  0
   18.0724   -6.0729  -18.0962 N   0  0  0  0  0  0  0  0  0  0  0  0
   17.5083   -6.8352  -17.1683 C   0  0  0  0  0  0  0  0  0  0  0  0
   18.1377   -6.6674  -15.9579 N   0  0  0  0  0  0  0  0  0  0  0  0
   22.3590   -5.2238  -14.2321 C   0  0  0  0  0  0  0  0  0  0  0  0
   22.9314   -5.9298  -13.3712 O   0  0  0  0  0  0  0  0  0  0  0  0
   22.6162   -3.8730  -14.2418 O   0  0  0  0  0  0  0  0  0  0  0  0
  2  1  1  0
  2  3  1  0
  3  4  1  1
  5  3  1  0
  5  6  2  0
  7  8  1  0
  8  9  1  0
  9 10  1  0
 11 10  1  6
 11 12  1  0
 11 13  1  0
 12  5  1  0
 13 15  1  0
 13 14  2  0
 15 16  1  0
 16 23  1  0
 17 18  1  0
 16 17  1  1
 18 19  2  0
 19 20  1  0
 21 20  1  0
 22 18  1  0
 22 21  2  0
 23 24  2  0
 23 25  1  0
M  END
$$$$
