YSW.pdb
     RDKit          3D

 33 35  0  0  1  0  0  0  0  0999 V2000
   27.2335  -13.7987  -24.6198 O   0  0  0  0  0  0  0  0  0  0  0  0
   26.5040  -14.4963  -23.6618 C   0  0  0  0  0  0  0  0  0  0  0  0
   25.4396  -15.2997  -23.9889 C   0  0  0  0  0  0  0  0  0  0  0  0
   24.7670  -15.9572  -22.9902 C   0  0  0  0  0  0  0  0  0  0  0  0
   25.1095  -15.8525  -21.6486 C   0  0  0  0  0  0  0  0  0  0  0  0
   24.3808  -16.5631  -20.5849 C   0  0  0  0  0  0  0  0  0  0  0  0
   25.1427  -17.7751  -20.0867 C   0  0  2  0  0  0  0  0  0  0  0  0
   25.1270  -18.7334  -21.2041 N   0  0  0  0  0  0  0  0  0  0  0  0
   24.4797  -18.4328  -18.9597 C   0  0  0  0  0  0  0  0  0  0  0  0
   23.9693  -17.6996  -18.0448 O   0  0  0  0  0  0  0  0  0  0  0  0
   26.1727  -15.0476  -21.3409 C   0  0  0  0  0  0  0  0  0  0  0  0
   26.8585  -14.3792  -22.3429 C   0  0  0  0  0  0  0  0  0  0  0  0
   24.1102  -22.6188  -18.3567 O   0  0  0  0  0  0  0  0  0  0  0  0
   23.1099  -21.7616  -17.8801 C   0  0  0  0  0  0  0  0  0  0  0  0
   23.7658  -20.4350  -17.5975 C   0  0  2  0  0  0  0  0  0  0  0  0
   24.3406  -19.8258  -18.7711 N   0  0  0  0  0  0  0  0  0  0  0  0
   24.7278  -20.4958  -16.4722 C   0  0  0  0  0  0  0  0  0  0  0  0
   25.9396  -20.7357  -16.6795 O   0  0  0  0  0  0  0  0  0  0  0  0
   24.2703  -20.2815  -15.1646 N   0  0  0  0  0  0  0  0  0  0  0  0
   25.1188  -20.3017  -13.9923 C   0  0  1  0  0  0  0  0  0  0  0  0
   24.5003  -19.4290  -12.9305 C   0  0  0  0  0  0  0  0  0  0  0  0
   25.2422  -19.3818  -11.6723 C   0  0  0  0  0  0  0  0  0  0  0  0
   26.4186  -18.6948  -11.4658 C   0  0  0  0  0  0  0  0  0  0  0  0
   26.8043  -18.8829  -10.1984 N   0  0  0  0  0  0  0  0  0  0  0  0
   25.8968  -19.6781   -9.5875 C   0  0  0  0  0  0  0  0  0  0  0  0
   25.8120  -20.1747   -8.3066 C   0  0  0  0  0  0  0  0  0  0  0  0
   24.7491  -20.9954   -7.9141 C   0  0  0  0  0  0  0  0  0  0  0  0
   23.7875  -21.2926   -8.8496 C   0  0  0  0  0  0  0  0  0  0  0  0
   23.8414  -20.8134  -10.1378 C   0  0  0  0  0  0  0  0  0  0  0  0
   24.9023  -20.0084  -10.4885 C   0  0  0  0  0  0  0  0  0  0  0  0
   25.3943  -21.6671  -13.5167 C   0  0  0  0  0  0  0  0  0  0  0  0
   26.6735  -21.9423  -13.0536 O   0  0  0  0  0  0  0  0  0  0  0  0
   24.5590  -22.6019  -13.4985 O   0  0  0  0  0  0  0  0  0  0  0  0
  2 12  2  0
  2  1  1  0
  3  2  1  0
  4  3  2  0
  5  4  1  0
  5 11  2  0
  6  5  1  0
  7  6  1  0
  7  9  1  0
  7  8  1  6
  9 10  2  0
 11 12  1  0
 13 14  1  0
 15 14  1  6
 16  9  1  0
 16 15  1  0
 17 15  1  0
 17 18  2  0
 19 17  1  0
 20 19  1  0
 20 21  1  1
 22 21  1  0
 22 30  1  0
 23 22  2  0
 24 23  1  0
 24 25  1  0
 25 26  1  0
 25 30  2  0
 26 27  2  0
 27 28  1  0
 29 28  2  0
 30 29  1  0
 31 32  1  0
 31 20  1  0
 33 31  2  0
M  END
$$$$
