YSW.pdb
     RDKit          3D

 33 35  0  0  1  0  0  0  0  0999 V2000
   30.3198  -26.0794  -26.1529 O   0  0  0  0  0  0  0  0  0  0  0  0
   29.5124  -25.2703  -25.3592 C   0  0  0  0  0  0  0  0  0  0  0  0
   28.5349  -24.4632  -25.8870 C   0  0  0  0  0  0  0  0  0  0  0  0
   27.7769  -23.6922  -25.0425 C   0  0  0  0  0  0  0  0  0  0  0  0
   27.9475  -23.6843  -23.6644 C   0  0  0  0  0  0  0  0  0  0  0  0
   27.1279  -22.8530  -22.7673 C   0  0  0  0  0  0  0  0  0  0  0  0
   27.4421  -21.3775  -22.9156 C   0  0  2  0  0  0  0  0  0  0  0  0
   28.7385  -21.1844  -22.2456 N   0  0  0  0  0  0  0  0  0  0  0  0
   26.4780  -20.5239  -22.2198 C   0  0  0  0  0  0  0  0  0  0  0  0
   26.6650  -20.2862  -20.9773 O   0  0  0  0  0  0  0  0  0  0  0  0
   28.9260  -24.4946  -23.1558 C   0  0  0  0  0  0  0  0  0  0  0  0
   29.6970  -25.2772  -24.0010 C   0  0  0  0  0  0  0  0  0  0  0  0
   25.1171  -17.6762  -23.8671 O   0  0  0  0  0  0  0  0  0  0  0  0
   24.1830  -17.7459  -22.8255 C   0  0  0  0  0  0  0  0  0  0  0  0
   24.4472  -19.0301  -22.0833 C   0  0  2  0  0  0  0  0  0  0  0  0
   25.3350  -19.9201  -22.7894 N   0  0  0  0  0  0  0  0  0  0  0  0
   23.2049  -19.7105  -21.6482 C   0  0  0  0  0  0  0  0  0  0  0  0
   22.7733  -20.7102  -22.2671 O   0  0  0  0  0  0  0  0  0  0  0  0
   22.5106  -19.2250  -20.5313 N   0  0  0  0  0  0  0  0  0  0  0  0
   21.2224  -19.7204  -20.0957 C   0  0  1  0  0  0  0  0  0  0  0  0
   20.7088  -18.8321  -18.9919 C   0  0  0  0  0  0  0  0  0  0  0  0
   19.4717  -19.2929  -18.3647 C   0  0  0  0  0  0  0  0  0  0  0  0
   19.3574  -19.7535  -17.0712 C   0  0  0  0  0  0  0  0  0  0  0  0
   18.0807  -20.0872  -16.8498 N   0  0  0  0  0  0  0  0  0  0  0  0
   17.3734  -19.8491  -17.9777 C   0  0  0  0  0  0  0  0  0  0  0  0
   16.0431  -20.0137  -18.2903 C   0  0  0  0  0  0  0  0  0  0  0  0
   15.5481  -19.6860  -19.5572 C   0  0  0  0  0  0  0  0  0  0  0  0
   16.4337  -19.1925  -20.4848 C   0  0  0  0  0  0  0  0  0  0  0  0
   17.7689  -19.0155  -20.2059 C   0  0  0  0  0  0  0  0  0  0  0  0
   18.2204  -19.3489  -18.9483 C   0  0  0  0  0  0  0  0  0  0  0  0
   20.2651  -19.8600  -21.2051 C   0  0  0  0  0  0  0  0  0  0  0  0
   19.5166  -21.0271  -21.2673 O   0  0  0  0  0  0  0  0  0  0  0  0
   20.0750  -19.0025  -22.0997 O   0  0  0  0  0  0  0  0  0  0  0  0
  2 12  2  0
  2  1  1  0
  3  2  1  0
  4  3  2  0
  5  4  1  0
  5 11  2  0
  6  5  1  0
  7  6  1  0
  7  9  1  0
  7  8  1  1
  9 10  2  0
 11 12  1  0
 13 14  1  0
 15 14  1  6
 16  9  1  0
 16 15  1  0
 17 15  1  0
 17 18  2  0
 19 17  1  0
 20 19  1  0
 20 21  1  1
 22 21  1  0
 22 30  1  0
 23 22  2  0
 24 23  1  0
 24 25  1  0
 25 26  1  0
 25 30  2  0
 26 27  2  0
 27 28  1  0
 29 28  2  0
 30 29  1  0
 31 32  1  0
 31 20  1  0
 33 31  2  0
M  END
$$$$
