YSW.pdb
     RDKit          3D

 33 35  0  0  1  0  0  0  0  0999 V2000
   28.7515  -28.4101  -18.5690 O   0  0  0  0  0  0  0  0  0  0  0  0
   28.6003  -27.2060  -17.8878 C   0  0  0  0  0  0  0  0  0  0  0  0
   27.5623  -26.9784  -17.0182 C   0  0  0  0  0  0  0  0  0  0  0  0
   27.4775  -25.7660  -16.3817 C   0  0  0  0  0  0  0  0  0  0  0  0
   28.3973  -24.7433  -16.5724 C   0  0  0  0  0  0  0  0  0  0  0  0
   28.2968  -23.4459  -15.8837 C   0  0  0  0  0  0  0  0  0  0  0  0
   27.0453  -22.6881  -16.2800 C   0  0  2  0  0  0  0  0  0  0  0  0
   27.3754  -22.0262  -17.5527 N   0  0  0  0  0  0  0  0  0  0  0  0
   26.7049  -21.6275  -15.3306 C   0  0  0  0  0  0  0  0  0  0  0  0
   27.2456  -20.4790  -15.4852 O   0  0  0  0  0  0  0  0  0  0  0  0
   29.4250  -24.9875  -17.4424 C   0  0  0  0  0  0  0  0  0  0  0  0
   29.5192  -26.2093  -18.0902 C   0  0  0  0  0  0  0  0  0  0  0  0
   23.2748  -20.6530  -13.5763 O   0  0  0  0  0  0  0  0  0  0  0  0
   24.4079  -19.8295  -13.5974 C   0  0  0  0  0  0  0  0  0  0  0  0
   25.5908  -20.7008  -13.2631 C   0  0  2  0  0  0  0  0  0  0  0  0
   25.8207  -21.7410  -14.2348 N   0  0  0  0  0  0  0  0  0  0  0  0
   25.5446  -21.2296  -11.8798 C   0  0  0  0  0  0  0  0  0  0  0  0
   24.9887  -22.3243  -11.6323 O   0  0  0  0  0  0  0  0  0  0  0  0
   26.1313  -20.4919  -10.8422 N   0  0  0  0  0  0  0  0  0  0  0  0
   25.9885  -20.8086   -9.4372 C   0  0  1  0  0  0  0  0  0  0  0  0
   26.9382  -19.9461   -8.6463 C   0  0  0  0  0  0  0  0  0  0  0  0
   26.8520  -20.1152   -7.1973 C   0  0  0  0  0  0  0  0  0  0  0  0
   25.9331  -20.9040   -6.5400 C   0  0  0  0  0  0  0  0  0  0  0  0
   26.1564  -20.8107   -5.2241 N   0  0  0  0  0  0  0  0  0  0  0  0
   27.2019  -19.9764   -5.0245 C   0  0  0  0  0  0  0  0  0  0  0  0
   27.8346  -19.5387   -3.8832 C   0  0  0  0  0  0  0  0  0  0  0  0
   28.9179  -18.6556   -3.9457 C   0  0  0  0  0  0  0  0  0  0  0  0
   29.3337  -18.2360   -5.1863 C   0  0  0  0  0  0  0  0  0  0  0  0
   28.7245  -18.6535   -6.3467 C   0  0  0  0  0  0  0  0  0  0  0  0
   27.6611  -19.5228   -6.2465 C   0  0  0  0  0  0  0  0  0  0  0  0
   24.5969  -20.6977   -8.9707 C   0  0  0  0  0  0  0  0  0  0  0  0
   24.1135  -21.7001   -8.1412 O   0  0  0  0  0  0  0  0  0  0  0  0
   23.8140  -19.7643   -9.2669 O   0  0  0  0  0  0  0  0  0  0  0  0
  2 12  2  0
  2  1  1  0
  3  2  1  0
  4  3  2  0
  5  4  1  0
  5 11  2  0
  6  5  1  0
  7  6  1  0
  7  9  1  0
  7  8  1  6
  9 10  2  0
 11 12  1  0
 13 14  1  0
 15 14  1  6
 16  9  1  0
 16 15  1  0
 17 15  1  0
 17 18  2  0
 19 17  1  0
 20 19  1  0
 20 21  1  1
 22 21  1  0
 22 30  1  0
 23 22  2  0
 24 23  1  0
 24 25  1  0
 25 26  1  0
 25 30  2  0
 26 27  2  0
 27 28  1  0
 29 28  2  0
 30 29  1  0
 31 32  1  0
 31 20  1  0
 33 31  2  0
M  END
$$$$
