YSW.pdb
     RDKit          3D

 33 35  0  0  1  0  0  0  0  0999 V2000
   22.1600  -29.3350  -17.9453 O   0  0  0  0  0  0  0  0  0  0  0  0
   23.0716  -28.4288  -17.4122 C   0  0  0  0  0  0  0  0  0  0  0  0
   22.7515  -27.5874  -16.3753 C   0  0  0  0  0  0  0  0  0  0  0  0
   23.7025  -26.7197  -15.9010 C   0  0  0  0  0  0  0  0  0  0  0  0
   24.9883  -26.6458  -16.4202 C   0  0  0  0  0  0  0  0  0  0  0  0
   26.0012  -25.7108  -15.9031 C   0  0  0  0  0  0  0  0  0  0  0  0
   25.8375  -24.3194  -16.4816 C   0  0  2  0  0  0  0  0  0  0  0  0
   26.6833  -24.2946  -17.6862 N   0  0  0  0  0  0  0  0  0  0  0  0
   26.3453  -23.2756  -15.5900 C   0  0  0  0  0  0  0  0  0  0  0  0
   27.5996  -23.0270  -15.6003 O   0  0  0  0  0  0  0  0  0  0  0  0
   25.2898  -27.4915  -17.4529 C   0  0  0  0  0  0  0  0  0  0  0  0
   24.3357  -28.3718  -17.9390 C   0  0  0  0  0  0  0  0  0  0  0  0
   24.4178  -19.9403  -14.3757 O   0  0  0  0  0  0  0  0  0  0  0  0
   25.8125  -20.0696  -14.3516 C   0  0  0  0  0  0  0  0  0  0  0  0
   26.1166  -21.4583  -13.8524 C   0  0  2  0  0  0  0  0  0  0  0  0
   25.5777  -22.4947  -14.6977 N   0  0  0  0  0  0  0  0  0  0  0  0
   25.7513  -21.6522  -12.4297 C   0  0  0  0  0  0  0  0  0  0  0  0
   24.7150  -22.2819  -12.1159 O   0  0  0  0  0  0  0  0  0  0  0  0
   26.5787  -21.1230  -11.4295 N   0  0  0  0  0  0  0  0  0  0  0  0
   26.2197  -21.0534  -10.0291 C   0  0  1  0  0  0  0  0  0  0  0  0
   27.3993  -20.5293   -9.2512 C   0  0  0  0  0  0  0  0  0  0  0  0
   27.1286  -20.2623   -7.8400 C   0  0  0  0  0  0  0  0  0  0  0  0
   25.9020  -20.3905   -7.2255 C   0  0  0  0  0  0  0  0  0  0  0  0
   26.0357  -20.0602   -5.9359 N   0  0  0  0  0  0  0  0  0  0  0  0
   27.3259  -19.7224   -5.7112 C   0  0  0  0  0  0  0  0  0  0  0  0
   27.9933  -19.3103   -4.5802 C   0  0  0  0  0  0  0  0  0  0  0  0
   29.3603  -19.0142   -4.6101 C   0  0  0  0  0  0  0  0  0  0  0  0
   30.0203  -19.1477   -5.8079 C   0  0  0  0  0  0  0  0  0  0  0  0
   29.3844  -19.5569   -6.9568 C   0  0  0  0  0  0  0  0  0  0  0  0
   28.0382  -19.8396   -6.8896 C   0  0  0  0  0  0  0  0  0  0  0  0
   24.9935  -20.2727   -9.7974 C   0  0  0  0  0  0  0  0  0  0  0  0
   24.0828  -20.7630   -8.8719 O   0  0  0  0  0  0  0  0  0  0  0  0
   24.7095  -19.1965  -10.3743 O   0  0  0  0  0  0  0  0  0  0  0  0
  2 12  2  0
  2  1  1  0
  3  2  1  0
  4  3  2  0
  5  4  1  0
  5 11  2  0
  6  5  1  0
  7  6  1  0
  7  9  1  0
  7  8  1  6
  9 10  2  0
 11 12  1  0
 13 14  1  0
 15 14  1  6
 16  9  1  0
 16 15  1  0
 17 15  1  0
 17 18  2  0
 19 17  1  0
 20 19  1  0
 20 21  1  1
 22 21  1  0
 22 30  1  0
 23 22  2  0
 24 23  1  0
 24 25  1  0
 25 26  1  0
 25 30  2  0
 26 27  2  0
 27 28  1  0
 29 28  2  0
 30 29  1  0
 31 32  1  0
 31 20  1  0
 33 31  2  0
M  END
$$$$
