YSW.pdb
     RDKit          3D

 33 35  0  0  1  0  0  0  0  0999 V2000
   30.3044  -15.7173  -18.6736 O   0  0  0  0  0  0  0  0  0  0  0  0
   29.3948  -16.0284  -17.6675 C   0  0  0  0  0  0  0  0  0  0  0  0
   28.4697  -15.1243  -17.2069 C   0  0  0  0  0  0  0  0  0  0  0  0
   27.6041  -15.5020  -16.2118 C   0  0  0  0  0  0  0  0  0  0  0  0
   27.6134  -16.7665  -15.6379 C   0  0  0  0  0  0  0  0  0  0  0  0
   26.6793  -17.1613  -14.5706 C   0  0  0  0  0  0  0  0  0  0  0  0
   25.7107  -18.2324  -15.0313 C   0  0  2  0  0  0  0  0  0  0  0  0
   24.7214  -17.5320  -15.8667 N   0  0  0  0  0  0  0  0  0  0  0  0
   24.9714  -18.8375  -13.9225 C   0  0  0  0  0  0  0  0  0  0  0  0
   23.9672  -18.2048  -13.4466 O   0  0  0  0  0  0  0  0  0  0  0  0
   28.5418  -17.6547  -16.1091 C   0  0  0  0  0  0  0  0  0  0  0  0
   29.4207  -17.2823  -17.1142 C   0  0  0  0  0  0  0  0  0  0  0  0
   24.1602  -22.6254  -13.1294 O   0  0  0  0  0  0  0  0  0  0  0  0
   23.5434  -21.5962  -12.4064 C   0  0  0  0  0  0  0  0  0  0  0  0
   24.6034  -20.5649  -12.1184 C   0  0  2  0  0  0  0  0  0  0  0  0
   25.2567  -20.0767  -13.3074 N   0  0  0  0  0  0  0  0  0  0  0  0
   25.5740  -21.0075  -11.0901 C   0  0  0  0  0  0  0  0  0  0  0  0
   26.3048  -22.0052  -11.2884 O   0  0  0  0  0  0  0  0  0  0  0  0
   25.6702  -20.2977   -9.8852 N   0  0  0  0  0  0  0  0  0  0  0  0
   26.4329  -20.7416   -8.7380 C   0  0  1  0  0  0  0  0  0  0  0  0
   27.0734  -19.5425   -8.0875 C   0  0  0  0  0  0  0  0  0  0  0  0
   28.1807  -19.8568   -7.1870 C   0  0  0  0  0  0  0  0  0  0  0  0
   29.3134  -20.5615   -7.5320 C   0  0  0  0  0  0  0  0  0  0  0  0
   30.1009  -20.6551   -6.4543 N   0  0  0  0  0  0  0  0  0  0  0  0
   29.4944  -20.0233   -5.4237 C   0  0  0  0  0  0  0  0  0  0  0  0
   29.8618  -19.8244   -4.1122 C   0  0  0  0  0  0  0  0  0  0  0  0
   29.0390  -19.1216   -3.2254 C   0  0  0  0  0  0  0  0  0  0  0  0
   27.8474  -18.6333   -3.7047 C   0  0  0  0  0  0  0  0  0  0  0  0
   27.4495  -18.8138   -5.0089 C   0  0  0  0  0  0  0  0  0  0  0  0
   28.2850  -19.5107   -5.8532 C   0  0  0  0  0  0  0  0  0  0  0  0
   25.6279  -21.5370   -7.7967 C   0  0  0  0  0  0  0  0  0  0  0  0
   26.2233  -22.6509   -7.2212 O   0  0  0  0  0  0  0  0  0  0  0  0
   24.4429  -21.2836   -7.4754 O   0  0  0  0  0  0  0  0  0  0  0  0
  2 12  2  0
  2  1  1  0
  3  2  1  0
  4  3  2  0
  5  4  1  0
  5 11  2  0
  6  5  1  0
  7  6  1  0
  7  9  1  0
  7  8  1  6
  9 10  2  0
 11 12  1  0
 13 14  1  0
 15 14  1  6
 16  9  1  0
 16 15  1  0
 17 15  1  0
 17 18  2  0
 19 17  1  0
 20 19  1  0
 20 21  1  1
 22 21  1  0
 22 30  1  0
 23 22  2  0
 24 23  1  0
 24 25  1  0
 25 26  1  0
 25 30  2  0
 26 27  2  0
 27 28  1  0
 29 28  2  0
 30 29  1  0
 31 32  1  0
 31 20  1  0
 33 31  2  0
M  END
$$$$
