YSW.pdb
     RDKit          3D

 33 35  0  0  1  0  0  0  0  0999 V2000
   24.4463  -26.2044  -20.5259 O   0  0  0  0  0  0  0  0  0  0  0  0
   25.1503  -25.5070  -19.5490 C   0  0  0  0  0  0  0  0  0  0  0  0
   24.5446  -25.0034  -18.4243 C   0  0  0  0  0  0  0  0  0  0  0  0
   25.3030  -24.3261  -17.5033 C   0  0  0  0  0  0  0  0  0  0  0  0
   26.6684  -24.1197  -17.6496 C   0  0  0  0  0  0  0  0  0  0  0  0
   27.4728  -23.3914  -16.6545 C   0  0  0  0  0  0  0  0  0  0  0  0
   27.2933  -21.8905  -16.7678 C   0  0  2  0  0  0  0  0  0  0  0  0
   28.2286  -21.4631  -17.8210 N   0  0  0  0  0  0  0  0  0  0  0  0
   27.6831  -21.1832  -15.5471 C   0  0  0  0  0  0  0  0  0  0  0  0
   28.7042  -20.4147  -15.5917 O   0  0  0  0  0  0  0  0  0  0  0  0
   27.2555  -24.6283  -18.7763 C   0  0  0  0  0  0  0  0  0  0  0  0
   26.4975  -25.3142  -19.7125 C   0  0  0  0  0  0  0  0  0  0  0  0
   25.7394  -18.6060  -13.6397 O   0  0  0  0  0  0  0  0  0  0  0  0
   27.1098  -18.8957  -13.6213 C   0  0  0  0  0  0  0  0  0  0  0  0
   27.2488  -20.3379  -13.2081 C   0  0  2  0  0  0  0  0  0  0  0  0
   27.0350  -21.2615  -14.2945 N   0  0  0  0  0  0  0  0  0  0  0  0
   26.4339  -20.6776  -12.0182 C   0  0  0  0  0  0  0  0  0  0  0  0
   25.2084  -20.9122  -12.1285 O   0  0  0  0  0  0  0  0  0  0  0  0
   27.0472  -20.7355  -10.7590 N   0  0  0  0  0  0  0  0  0  0  0  0
   26.4062  -21.2421   -9.5643 C   0  0  1  0  0  0  0  0  0  0  0  0
   27.4579  -21.4728   -8.5099 C   0  0  0  0  0  0  0  0  0  0  0  0
   27.7411  -20.3126   -7.6675 C   0  0  0  0  0  0  0  0  0  0  0  0
   27.2363  -19.0452   -7.8605 C   0  0  0  0  0  0  0  0  0  0  0  0
   27.7131  -18.2464   -6.8988 N   0  0  0  0  0  0  0  0  0  0  0  0
   28.5147  -18.9780   -6.0919 C   0  0  0  0  0  0  0  0  0  0  0  0
   29.2456  -18.6555   -4.9710 C   0  0  0  0  0  0  0  0  0  0  0  0
   30.0122  -19.6157   -4.3019 C   0  0  0  0  0  0  0  0  0  0  0  0
   30.0140  -20.8966   -4.7992 C   0  0  0  0  0  0  0  0  0  0  0  0
   29.2954  -21.2531   -5.9166 C   0  0  0  0  0  0  0  0  0  0  0  0
   28.5524  -20.2815   -6.5493 C   0  0  0  0  0  0  0  0  0  0  0  0
   25.3134  -20.3737   -9.0970 C   0  0  0  0  0  0  0  0  0  0  0  0
   24.3805  -20.9230   -8.2284 O   0  0  0  0  0  0  0  0  0  0  0  0
   25.1616  -19.1733   -9.4253 O   0  0  0  0  0  0  0  0  0  0  0  0
  2 12  2  0
  2  1  1  0
  3  2  1  0
  4  3  2  0
  5  4  1  0
  5 11  2  0
  6  5  1  0
  7  6  1  0
  7  9  1  0
  7  8  1  6
  9 10  2  0
 11 12  1  0
 13 14  1  0
 15 14  1  6
 16  9  1  0
 16 15  1  0
 17 15  1  0
 17 18  2  0
 19 17  1  0
 20 19  1  0
 20 21  1  1
 22 21  1  0
 22 30  1  0
 23 22  2  0
 24 23  1  0
 24 25  1  0
 25 26  1  0
 25 30  2  0
 26 27  2  0
 27 28  1  0
 29 28  2  0
 30 29  1  0
 31 32  1  0
 31 20  1  0
 33 31  2  0
M  END
$$$$
