YSW.pdb
     RDKit          3D

 33 35  0  0  1  0  0  0  0  0999 V2000
   24.6867  -28.4267  -18.5461 O   0  0  0  0  0  0  0  0  0  0  0  0
   25.3381  -27.3522  -17.9481 C   0  0  0  0  0  0  0  0  0  0  0  0
   25.0680  -26.9512  -16.6629 C   0  0  0  0  0  0  0  0  0  0  0  0
   25.7503  -25.8825  -16.1390 C   0  0  0  0  0  0  0  0  0  0  0  0
   26.7121  -25.1752  -16.8482 C   0  0  0  0  0  0  0  0  0  0  0  0
   27.4387  -24.0297  -16.2759 C   0  0  0  0  0  0  0  0  0  0  0  0
   26.6767  -22.7307  -16.4478 C   0  0  2  0  0  0  0  0  0  0  0  0
   27.2134  -22.1220  -17.6759 N   0  0  0  0  0  0  0  0  0  0  0  0
   26.9301  -21.7815  -15.3628 C   0  0  0  0  0  0  0  0  0  0  0  0
   27.5533  -20.6992  -15.6375 O   0  0  0  0  0  0  0  0  0  0  0  0
   26.9685  -25.5886  -18.1274 C   0  0  0  0  0  0  0  0  0  0  0  0
   26.2842  -26.6674  -18.6654 C   0  0  0  0  0  0  0  0  0  0  0  0
   24.1379  -20.4091  -13.3234 O   0  0  0  0  0  0  0  0  0  0  0  0
   25.4002  -19.8256  -13.4917 C   0  0  0  0  0  0  0  0  0  0  0  0
   26.4190  -20.8529  -13.0714 C   0  0  2  0  0  0  0  0  0  0  0  0
   26.5499  -21.9384  -14.0115 N   0  0  0  0  0  0  0  0  0  0  0  0
   26.2125  -21.3363  -11.6861 C   0  0  0  0  0  0  0  0  0  0  0  0
   25.3187  -22.1750  -11.4283 O   0  0  0  0  0  0  0  0  0  0  0  0
   27.0297  -20.8458  -10.6582 N   0  0  0  0  0  0  0  0  0  0  0  0
   26.9076  -21.2302   -9.2682 C   0  0  1  0  0  0  0  0  0  0  0  0
   28.1710  -20.8412   -8.5443 C   0  0  0  0  0  0  0  0  0  0  0  0
   27.9679  -19.9663   -7.3914 C   0  0  0  0  0  0  0  0  0  0  0  0
   27.0680  -18.9247   -7.3298 C   0  0  0  0  0  0  0  0  0  0  0  0
   27.1632  -18.3510   -6.1248 N   0  0  0  0  0  0  0  0  0  0  0  0
   28.1078  -19.0053   -5.4117 C   0  0  0  0  0  0  0  0  0  0  0  0
   28.5949  -18.8293   -4.1364 C   0  0  0  0  0  0  0  0  0  0  0  0
   29.5968  -19.6581   -3.6201 C   0  0  0  0  0  0  0  0  0  0  0  0
   30.0827  -20.6580   -4.4277 C   0  0  0  0  0  0  0  0  0  0  0  0
   29.6187  -20.8618   -5.7064 C   0  0  0  0  0  0  0  0  0  0  0  0
   28.6321  -20.0265   -6.1811 C   0  0  0  0  0  0  0  0  0  0  0  0
   25.6974  -20.6829   -8.6339 C   0  0  0  0  0  0  0  0  0  0  0  0
   25.1066  -21.4281   -7.6229 O   0  0  0  0  0  0  0  0  0  0  0  0
   25.1591  -19.5925   -8.9389 O   0  0  0  0  0  0  0  0  0  0  0  0
  2 12  2  0
  2  1  1  0
  3  2  1  0
  4  3  2  0
  5  4  1  0
  5 11  2  0
  6  5  1  0
  7  6  1  0
  7  9  1  0
  7  8  1  6
  9 10  2  0
 11 12  1  0
 13 14  1  0
 15 14  1  6
 16  9  1  0
 16 15  1  0
 17 15  1  0
 17 18  2  0
 19 17  1  0
 20 19  1  0
 20 21  1  1
 22 21  1  0
 22 30  1  0
 23 22  2  0
 24 23  1  0
 24 25  1  0
 25 26  1  0
 25 30  2  0
 26 27  2  0
 27 28  1  0
 29 28  2  0
 30 29  1  0
 31 32  1  0
 31 20  1  0
 33 31  2  0
M  END
$$$$
