YSW.pdb
     RDKit          3D

 33 35  0  0  1  0  0  0  0  0999 V2000
   24.6741  -27.7529  -20.2062 O   0  0  0  0  0  0  0  0  0  0  0  0
   25.0709  -26.9629  -19.1315 C   0  0  0  0  0  0  0  0  0  0  0  0
   24.3948  -25.8250  -18.7659 C   0  0  0  0  0  0  0  0  0  0  0  0
   24.8446  -25.0957  -17.6945 C   0  0  0  0  0  0  0  0  0  0  0  0
   25.9617  -25.4512  -16.9502 C   0  0  0  0  0  0  0  0  0  0  0  0
   26.4354  -24.6610  -15.8018 C   0  0  0  0  0  0  0  0  0  0  0  0
   27.0519  -23.3453  -16.2335 C   0  0  2  0  0  0  0  0  0  0  0  0
   28.4435  -23.6644  -16.5922 N   0  0  0  0  0  0  0  0  0  0  0  0
   27.1120  -22.3679  -15.1456 C   0  0  0  0  0  0  0  0  0  0  0  0
   28.1289  -22.3852  -14.3706 O   0  0  0  0  0  0  0  0  0  0  0  0
   26.6231  -26.5879  -17.3286 C   0  0  0  0  0  0  0  0  0  0  0  0
   26.1763  -27.3315  -18.4097 C   0  0  0  0  0  0  0  0  0  0  0  0
   24.4712  -19.1898  -14.6413 O   0  0  0  0  0  0  0  0  0  0  0  0
   25.7686  -19.0619  -14.1285 C   0  0  0  0  0  0  0  0  0  0  0  0
   26.2350  -20.4468  -13.7619 C   0  0  2  0  0  0  0  0  0  0  0  0
   26.1418  -21.3835  -14.8542 N   0  0  0  0  0  0  0  0  0  0  0  0
   25.5963  -20.9625  -12.5285 C   0  0  0  0  0  0  0  0  0  0  0  0
   24.6521  -21.7830  -12.5926 O   0  0  0  0  0  0  0  0  0  0  0  0
   26.0587  -20.5235  -11.2801 N   0  0  0  0  0  0  0  0  0  0  0  0
   25.2952  -20.6094  -10.0535 C   0  0  1  0  0  0  0  0  0  0  0  0
   25.8669  -19.6344   -9.0567 C   0  0  0  0  0  0  0  0  0  0  0  0
   26.7544  -20.2312   -8.0606 C   0  0  0  0  0  0  0  0  0  0  0  0
   27.1662  -21.5460   -8.0458 C   0  0  0  0  0  0  0  0  0  0  0  0
   27.9671  -21.7291   -6.9898 N   0  0  0  0  0  0  0  0  0  0  0  0
   28.0770  -20.5557   -6.3264 C   0  0  0  0  0  0  0  0  0  0  0  0
   28.7662  -20.1928   -5.1915 C   0  0  0  0  0  0  0  0  0  0  0  0
   28.7153  -18.8851   -4.6970 C   0  0  0  0  0  0  0  0  0  0  0  0
   27.9532  -17.9689   -5.3812 C   0  0  0  0  0  0  0  0  0  0  0  0
   27.2522  -18.2975   -6.5182 C   0  0  0  0  0  0  0  0  0  0  0  0
   27.3258  -19.5944   -6.9755 C   0  0  0  0  0  0  0  0  0  0  0  0
   23.8518  -20.4196  -10.2710 C   0  0  0  0  0  0  0  0  0  0  0  0
   22.9803  -21.2214   -9.5471 O   0  0  0  0  0  0  0  0  0  0  0  0
   23.3497  -19.5869  -11.0623 O   0  0  0  0  0  0  0  0  0  0  0  0
  2 12  2  0
  2  1  1  0
  3  2  1  0
  4  3  2  0
  5  4  1  0
  5 11  2  0
  6  5  1  0
  7  6  1  0
  7  9  1  0
  7  8  1  1
  9 10  2  0
 11 12  1  0
 13 14  1  0
 15 14  1  6
 16  9  1  0
 16 15  1  0
 17 15  1  0
 17 18  2  0
 19 17  1  0
 20 19  1  0
 20 21  1  1
 22 21  1  0
 22 30  1  0
 23 22  2  0
 24 23  1  0
 24 25  1  0
 25 26  1  0
 25 30  2  0
 26 27  2  0
 27 28  1  0
 29 28  2  0
 30 29  1  0
 31 32  1  0
 31 20  1  0
 33 31  2  0
M  END
$$$$
