YSW.pdb
     RDKit          3D

 33 35  0  0  1  0  0  0  0  0999 V2000
   32.7955  -17.4410  -18.8964 O   0  0  0  0  0  0  0  0  0  0  0  0
   31.5000  -17.2352  -18.4320 C   0  0  0  0  0  0  0  0  0  0  0  0
   30.9543  -15.9816  -18.3058 C   0  0  0  0  0  0  0  0  0  0  0  0
   29.6697  -15.8557  -17.8408 C   0  0  0  0  0  0  0  0  0  0  0  0
   28.8815  -16.9425  -17.4861 C   0  0  0  0  0  0  0  0  0  0  0  0
   27.5037  -16.7957  -16.9883 C   0  0  0  0  0  0  0  0  0  0  0  0
   26.4826  -17.3093  -17.9839 C   0  0  2  0  0  0  0  0  0  0  0  0
   26.4893  -16.3361  -19.0884 N   0  0  0  0  0  0  0  0  0  0  0  0
   25.1232  -17.3199  -17.4413 C   0  0  0  0  0  0  0  0  0  0  0  0
   24.5600  -16.1986  -17.1954 O   0  0  0  0  0  0  0  0  0  0  0  0
   29.4414  -18.1842  -17.6182 C   0  0  0  0  0  0  0  0  0  0  0  0
   30.7385  -18.3216  -18.0872 C   0  0  0  0  0  0  0  0  0  0  0  0
   22.1339  -19.8803  -18.2054 O   0  0  0  0  0  0  0  0  0  0  0  0
   21.9401  -18.6156  -17.6348 C   0  0  0  0  0  0  0  0  0  0  0  0
   23.0184  -18.4308  -16.5989 C   0  0  2  0  0  0  0  0  0  0  0  0
   24.3488  -18.4657  -17.1537 N   0  0  0  0  0  0  0  0  0  0  0  0
   22.8712  -19.3471  -15.4439 C   0  0  0  0  0  0  0  0  0  0  0  0
   23.4566  -20.4543  -15.4276 O   0  0  0  0  0  0  0  0  0  0  0  0
   22.0669  -18.9645  -14.3613 N   0  0  0  0  0  0  0  0  0  0  0  0
   21.7573  -19.8197  -13.2356 C   0  0  1  0  0  0  0  0  0  0  0  0
   21.2266  -18.9684  -12.1109 C   0  0  0  0  0  0  0  0  0  0  0  0
   19.8088  -18.6309  -12.2188 C   0  0  0  0  0  0  0  0  0  0  0  0
   19.2848  -17.6342  -13.0128 C   0  0  0  0  0  0  0  0  0  0  0  0
   17.9565  -17.6168  -12.8527 N   0  0  0  0  0  0  0  0  0  0  0  0
   17.6182  -18.5844  -11.9704 C   0  0  0  0  0  0  0  0  0  0  0  0
   16.4068  -18.9904  -11.4584 C   0  0  0  0  0  0  0  0  0  0  0  0
   16.3219  -20.0402  -10.5376 C   0  0  0  0  0  0  0  0  0  0  0  0
   17.4893  -20.6573  -10.1576 C   0  0  0  0  0  0  0  0  0  0  0  0
   18.7164  -20.2771  -10.6493 C   0  0  0  0  0  0  0  0  0  0  0  0
   18.7614  -19.2397  -11.5539 C   0  0  0  0  0  0  0  0  0  0  0  0
   20.8475  -20.9199  -13.5941 C   0  0  0  0  0  0  0  0  0  0  0  0
   20.8602  -22.0535  -12.7933 O   0  0  0  0  0  0  0  0  0  0  0  0
   20.0608  -20.9099  -14.5702 O   0  0  0  0  0  0  0  0  0  0  0  0
  2 12  2  0
  2  1  1  0
  3  2  1  0
  4  3  2  0
  5  4  1  0
  5 11  2  0
  6  5  1  0
  7  6  1  0
  7  9  1  0
  7  8  1  6
  9 10  2  0
 11 12  1  0
 13 14  1  0
 15 14  1  6
 16  9  1  0
 16 15  1  0
 17 15  1  0
 17 18  2  0
 19 17  1  0
 20 19  1  0
 20 21  1  1
 22 21  1  0
 22 30  1  0
 23 22  2  0
 24 23  1  0
 24 25  1  0
 25 26  1  0
 25 30  2  0
 26 27  2  0
 27 28  1  0
 29 28  2  0
 30 29  1  0
 31 32  1  0
 31 20  1  0
 33 31  2  0
M  END
$$$$
