YSW.pdb
     RDKit          3D

 33 35  0  0  1  0  0  0  0  0999 V2000
   15.2130  -17.1549  -11.5407 O   0  0  0  0  0  0  0  0  0  0  0  0
   16.4119  -17.8604  -11.5026 C   0  0  0  0  0  0  0  0  0  0  0  0
   17.5194  -17.4675  -12.2128 C   0  0  0  0  0  0  0  0  0  0  0  0
   18.6678  -18.2131  -12.1264 C   0  0  0  0  0  0  0  0  0  0  0  0
   18.7714  -19.3590  -11.3489 C   0  0  0  0  0  0  0  0  0  0  0  0
   20.0092  -20.1516  -11.2633 C   0  0  0  0  0  0  0  0  0  0  0  0
   20.3777  -20.7747  -12.5951 C   0  0  2  0  0  0  0  0  0  0  0  0
   19.4039  -21.8590  -12.8025 N   0  0  0  0  0  0  0  0  0  0  0  0
   21.7024  -21.3970  -12.5782 C   0  0  0  0  0  0  0  0  0  0  0  0
   21.8529  -22.4845  -11.9226 O   0  0  0  0  0  0  0  0  0  0  0  0
   17.6581  -19.7358  -10.6480 C   0  0  0  0  0  0  0  0  0  0  0  0
   16.4932  -18.9889  -10.7288 C   0  0  0  0  0  0  0  0  0  0  0  0
   24.7529  -20.8343  -15.3671 O   0  0  0  0  0  0  0  0  0  0  0  0
   24.5534  -22.0106  -14.6330 C   0  0  0  0  0  0  0  0  0  0  0  0
   24.1284  -21.5976  -13.2478 C   0  0  2  0  0  0  0  0  0  0  0  0
   22.8604  -20.9116  -13.2253 N   0  0  0  0  0  0  0  0  0  0  0  0
   25.1807  -20.8493  -12.5211 C   0  0  0  0  0  0  0  0  0  0  0  0
   25.1167  -19.6035  -12.4080 O   0  0  0  0  0  0  0  0  0  0  0  0
   26.2562  -21.5491  -11.9566 N   0  0  0  0  0  0  0  0  0  0  0  0
   27.4700  -20.9251  -11.4749 C   0  0  1  0  0  0  0  0  0  0  0  0
   27.8848  -21.5971  -10.1914 C   0  0  0  0  0  0  0  0  0  0  0  0
   27.3561  -20.9750   -8.9793 C   0  0  0  0  0  0  0  0  0  0  0  0
   26.0708  -20.5048   -8.8201 C   0  0  0  0  0  0  0  0  0  0  0  0
   25.9513  -20.0027   -7.5857 N   0  0  0  0  0  0  0  0  0  0  0  0
   27.1366  -20.1420   -6.9494 C   0  0  0  0  0  0  0  0  0  0  0  0
   27.5558  -19.7995   -5.6839 C   0  0  0  0  0  0  0  0  0  0  0  0
   28.8632  -20.0560   -5.2570 C   0  0  0  0  0  0  0  0  0  0  0  0
   29.7207  -20.6629   -6.1427 C   0  0  0  0  0  0  0  0  0  0  0  0
   29.3348  -21.0184   -7.4142 C   0  0  0  0  0  0  0  0  0  0  0  0
   28.0402  -20.7503   -7.7998 C   0  0  0  0  0  0  0  0  0  0  0  0
   28.5410  -20.9167  -12.4845 C   0  0  0  0  0  0  0  0  0  0  0  0
   29.5939  -20.0314  -12.2997 O   0  0  0  0  0  0  0  0  0  0  0  0
   28.5738  -21.6504  -13.5006 O   0  0  0  0  0  0  0  0  0  0  0  0
  2 12  2  0
  2  1  1  0
  3  2  1  0
  4  3  2  0
  5  4  1  0
  5 11  2  0
  6  5  1  0
  7  6  1  0
  7  9  1  0
  7  8  1  1
  9 10  2  0
 11 12  1  0
 13 14  1  0
 15 14  1  6
 16  9  1  0
 16 15  1  0
 17 15  1  0
 17 18  2  0
 19 17  1  0
 20 19  1  0
 20 21  1  1
 22 21  1  0
 22 30  1  0
 23 22  2  0
 24 23  1  0
 24 25  1  0
 25 26  1  0
 25 30  2  0
 26 27  2  0
 27 28  1  0
 29 28  2  0
 30 29  1  0
 31 32  1  0
 31 20  1  0
 33 31  2  0
M  END
$$$$
