YSW.pdb
     RDKit          3D

 33 35  0  0  1  0  0  0  0  0999 V2000
   23.0328  -20.8953  -22.0578 O   0  0  0  0  0  0  0  0  0  0  0  0
   23.5897  -21.0920  -20.7977 C   0  0  0  0  0  0  0  0  0  0  0  0
   24.1435  -20.0675  -20.0703 C   0  0  0  0  0  0  0  0  0  0  0  0
   24.6743  -20.3366  -18.8342 C   0  0  0  0  0  0  0  0  0  0  0  0
   24.6816  -21.6063  -18.2718 C   0  0  0  0  0  0  0  0  0  0  0  0
   25.2537  -21.8836  -16.9440 C   0  0  0  0  0  0  0  0  0  0  0  0
   26.7411  -21.5953  -16.8951 C   0  0  2  0  0  0  0  0  0  0  0  0
   27.3865  -22.7635  -17.5162 N   0  0  0  0  0  0  0  0  0  0  0  0
   27.2534  -21.5102  -15.5266 C   0  0  0  0  0  0  0  0  0  0  0  0
   27.5157  -22.5986  -14.9088 O   0  0  0  0  0  0  0  0  0  0  0  0
   24.1256  -22.6151  -19.0107 C   0  0  0  0  0  0  0  0  0  0  0  0
   23.5868  -22.3531  -20.2607 C   0  0  0  0  0  0  0  0  0  0  0  0
   27.4486  -17.9772  -13.3759 O   0  0  0  0  0  0  0  0  0  0  0  0
   28.3681  -18.9470  -12.9556 C   0  0  0  0  0  0  0  0  0  0  0  0
   27.8300  -20.2833  -13.3968 C   0  0  2  0  0  0  0  0  0  0  0  0
   27.4946  -20.3241  -14.7985 N   0  0  0  0  0  0  0  0  0  0  0  0
   26.7204  -20.7683  -12.5430 C   0  0  0  0  0  0  0  0  0  0  0  0
   25.5374  -20.7365  -12.9532 O   0  0  0  0  0  0  0  0  0  0  0  0
   27.0048  -21.2668  -11.2641 N   0  0  0  0  0  0  0  0  0  0  0  0
   25.9982  -21.6109  -10.2827 C   0  0  1  0  0  0  0  0  0  0  0  0
   26.6756  -21.8614   -8.9600 C   0  0  0  0  0  0  0  0  0  0  0  0
   26.8481  -20.6717   -8.1288 C   0  0  0  0  0  0  0  0  0  0  0  0
   26.1835  -19.4769   -8.2994 C   0  0  0  0  0  0  0  0  0  0  0  0
   26.5974  -18.6216   -7.3574 N   0  0  0  0  0  0  0  0  0  0  0  0
   27.5156  -19.2457   -6.5850 C   0  0  0  0  0  0  0  0  0  0  0  0
   28.2466  -18.8311   -5.4949 C   0  0  0  0  0  0  0  0  0  0  0  0
   29.1525  -19.6868   -4.8591 C   0  0  0  0  0  0  0  0  0  0  0  0
   29.2916  -20.9598   -5.3574 C   0  0  0  0  0  0  0  0  0  0  0  0
   28.5771  -21.4066   -6.4445 C   0  0  0  0  0  0  0  0  0  0  0  0
   27.6947  -20.5364   -7.0450 C   0  0  0  0  0  0  0  0  0  0  0  0
   24.9286  -20.6037  -10.1921 C   0  0  0  0  0  0  0  0  0  0  0  0
   23.6573  -21.0429   -9.8494 O   0  0  0  0  0  0  0  0  0  0  0  0
   25.0798  -19.3769  -10.4017 O   0  0  0  0  0  0  0  0  0  0  0  0
  2 12  2  0
  2  1  1  0
  3  2  1  0
  4  3  2  0
  5  4  1  0
  5 11  2  0
  6  5  1  0
  7  6  1  0
  7  9  1  0
  7  8  1  6
  9 10  2  0
 11 12  1  0
 13 14  1  0
 15 14  1  1
 16  9  1  0
 16 15  1  0
 17 15  1  0
 17 18  2  0
 19 17  1  0
 20 19  1  0
 20 21  1  1
 22 21  1  0
 22 30  1  0
 23 22  2  0
 24 23  1  0
 24 25  1  0
 25 26  1  0
 25 30  2  0
 26 27  2  0
 27 28  1  0
 29 28  2  0
 30 29  1  0
 31 32  1  0
 31 20  1  0
 33 31  2  0
M  END
$$$$
