VPS.pdb
     RDKit          3D

 21 21  0  0  1  0  0  0  0  0999 V2000
    7.4282  -15.3013   20.4904 C   0  0  0  0  0  0  0  0  0  0  0  0
    7.0821  -13.8502   20.7949 C   0  0  2  0  0  0  0  0  0  0  0  0
    6.7021  -13.2184   19.4748 C   0  0  0  0  0  0  0  0  0  0  0  0
    8.2988  -13.1530   21.4305 C   0  0  2  0  0  0  0  0  0  0  0  0
    9.3049  -13.1237   20.4702 N   0  0  0  0  0  0  0  0  0  0  0  0
    8.6032  -13.6889   22.7537 C   0  0  0  0  0  0  0  0  0  0  0  0
    9.6333  -14.4141   22.8441 O   0  0  0  0  0  0  0  0  0  0  0  0
    7.8338  -13.4605   23.9519 N   0  0  0  0  0  0  0  0  0  0  0  0
    6.5896  -12.7631   24.0670 C   0  0  0  0  0  0  0  0  0  0  0  0
    5.9786  -13.2436   25.3545 C   0  0  0  0  0  0  0  0  0  0  0  0
    7.2405  -13.2864   26.2328 C   0  0  0  0  0  0  0  0  0  0  0  0
    8.2237  -13.9081   25.2700 C   0  0  1  0  0  0  0  0  0  0  0  0
    8.2679  -15.3804   25.3835 C   0  0  0  0  0  0  0  0  0  0  0  0
    7.2820  -16.0281   24.9389 O   0  0  0  0  0  0  0  0  0  0  0  0
   11.4961  -17.4528   25.1173 O   0  0  0  0  0  0  0  0  0  0  0  0
   10.2718  -18.1132   25.0155 C   0  0  0  0  0  0  0  0  0  0  0  0
    9.3125  -17.5767   26.0735 C   0  0  2  0  0  0  0  0  0  0  0  0
    9.3229  -16.1394   25.9488 N   0  0  0  0  0  0  0  0  0  0  0  0
    9.8226  -18.0363   27.3861 C   0  0  0  0  0  0  0  0  0  0  0  0
   10.1611  -17.0497   28.3035 O   0  0  0  0  0  0  0  0  0  0  0  0
    9.9532  -19.2564   27.6825 O   0  0  0  0  0  0  0  0  0  0  0  0
  2  3  1  6
  2  1  1  0
  4  2  1  0
  4  5  1  6
  6  8  1  0
  6  4  1  0
  7  6  2  0
  8 12  1  0
  9 10  1  0
  9  8  1  0
 10 11  1  0
 11 12  1  0
 12 13  1  6
 13 18  1  0
 14 13  2  0
 16 15  1  0
 17 19  1  0
 17 16  1  6
 18 17  1  0
 19 20  1  0
 21 19  2  0
M  END
$$$$
