VPS.pdb
     RDKit          3D

 21 21  0  0  1  0  0  0  0  0999 V2000
    8.9696  -15.2786   25.6823 C   0  0  0  0  0  0  0  0  0  0  0  0
    7.9464  -14.3034   25.1166 C   0  0  2  0  0  0  0  0  0  0  0  0
    7.3718  -13.5572   26.2997 C   0  0  0  0  0  0  0  0  0  0  0  0
    6.8600  -15.0823   24.3528 C   0  0  2  0  0  0  0  0  0  0  0  0
    6.2750  -15.9652   25.2548 N   0  0  0  0  0  0  0  0  0  0  0  0
    7.3544  -15.5995   23.0805 C   0  0  0  0  0  0  0  0  0  0  0  0
    7.5298  -16.8483   23.0104 O   0  0  0  0  0  0  0  0  0  0  0  0
    7.6547  -14.8111   21.9108 N   0  0  0  0  0  0  0  0  0  0  0  0
    7.4963  -13.3981   21.7500 C   0  0  0  0  0  0  0  0  0  0  0  0
    8.4015  -13.0207   20.6099 C   0  0  0  0  0  0  0  0  0  0  0  0
    8.1451  -14.2162   19.6769 C   0  0  0  0  0  0  0  0  0  0  0  0
    8.1694  -15.3512   20.6726 C   0  0  1  0  0  0  0  0  0  0  0  0
    9.5162  -15.9396   20.8222 C   0  0  0  0  0  0  0  0  0  0  0  0
   10.3482  -15.3150   21.5342 O   0  0  0  0  0  0  0  0  0  0  0  0
   10.2127  -19.7040   20.5757 O   0  0  0  0  0  0  0  0  0  0  0  0
   11.3103  -18.9576   21.0042 C   0  0  0  0  0  0  0  0  0  0  0  0
   11.3295  -17.6154   20.2792 C   0  0  2  0  0  0  0  0  0  0  0  0
    9.9645  -17.1499   20.2367 N   0  0  0  0  0  0  0  0  0  0  0  0
   11.8860  -17.8661   18.9295 C   0  0  0  0  0  0  0  0  0  0  0  0
   13.2257  -18.2276   18.8649 O   0  0  0  0  0  0  0  0  0  0  0  0
   11.2002  -17.7636   17.8746 O   0  0  0  0  0  0  0  0  0  0  0  0
  2  3  1  1
  2  1  1  0
  4  2  1  0
  4  5  1  1
  6  8  1  0
  6  4  1  0
  7  6  2  0
  8 12  1  0
  9 10  1  0
  9  8  1  0
 10 11  1  0
 11 12  1  0
 12 13  1  1
 13 18  1  0
 14 13  2  0
 16 15  1  0
 17 19  1  0
 17 16  1  1
 18 17  1  0
 19 20  1  0
 21 19  2  0
M  END
$$$$
