VPS.pdb
     RDKit          3D

 21 21  0  0  1  0  0  0  0  0999 V2000
    8.1580  -13.1012   27.0111 C   0  0  0  0  0  0  0  0  0  0  0  0
    7.2309  -12.6550   25.8889 C   0  0  2  0  0  0  0  0  0  0  0  0
    6.3928  -11.5297   26.4527 C   0  0  0  0  0  0  0  0  0  0  0  0
    6.3605  -13.8419   25.4374 C   0  0  2  0  0  0  0  0  0  0  0  0
    5.6431  -14.2729   26.5486 N   0  0  0  0  0  0  0  0  0  0  0  0
    7.1282  -14.8195   24.6719 C   0  0  0  0  0  0  0  0  0  0  0  0
    7.5320  -15.8366   25.3023 O   0  0  0  0  0  0  0  0  0  0  0  0
    7.4587  -14.7204   23.2716 N   0  0  0  0  0  0  0  0  0  0  0  0
    7.1354  -13.6532   22.3748 C   0  0  0  0  0  0  0  0  0  0  0  0
    8.1119  -13.7757   21.2377 C   0  0  0  0  0  0  0  0  0  0  0  0
    8.1284  -15.3058   21.0822 C   0  0  0  0  0  0  0  0  0  0  0  0
    8.1838  -15.7280   22.5309 C   0  0  1  0  0  0  0  0  0  0  0  0
    9.5690  -15.9050   23.0128 C   0  0  0  0  0  0  0  0  0  0  0  0
   10.2247  -14.8654   23.2933 O   0  0  0  0  0  0  0  0  0  0  0  0
   10.8576  -19.2967   24.4756 O   0  0  0  0  0  0  0  0  0  0  0  0
   11.7577  -18.2460   24.6522 C   0  0  0  0  0  0  0  0  0  0  0  0
   11.6425  -17.2728   23.4830 C   0  0  2  0  0  0  0  0  0  0  0  0
   10.2355  -17.1430   23.1915 N   0  0  0  0  0  0  0  0  0  0  0  0
   12.4032  -17.8638   22.3578 C   0  0  0  0  0  0  0  0  0  0  0  0
   13.7674  -18.0394   22.5517 O   0  0  0  0  0  0  0  0  0  0  0  0
   11.8644  -18.1999   21.2668 O   0  0  0  0  0  0  0  0  0  0  0  0
  2  3  1  1
  2  1  1  0
  4  2  1  0
  4  5  1  1
  6  8  1  0
  6  4  1  0
  7  6  2  0
  8 12  1  0
  9 10  1  0
  9  8  1  0
 10 11  1  0
 11 12  1  0
 12 13  1  1
 13 18  1  0
 14 13  2  0
 16 15  1  0
 17 19  1  0
 17 16  1  1
 18 17  1  0
 19 20  1  0
 21 19  2  0
M  END
$$$$
