VPS.pdb
     RDKit          3D

 21 21  0  0  1  0  0  0  0  0999 V2000
    5.9084  -18.6448   21.3793 C   0  0  0  0  0  0  0  0  0  0  0  0
    5.1531  -17.4836   20.7474 C   0  0  2  0  0  0  0  0  0  0  0  0
    3.7417  -17.9727   20.5127 C   0  0  0  0  0  0  0  0  0  0  0  0
    5.8410  -17.0772   19.4313 C   0  0  2  0  0  0  0  0  0  0  0  0
    5.6969  -18.1403   18.5458 N   0  0  0  0  0  0  0  0  0  0  0  0
    7.1735  -16.5272   19.6611 C   0  0  0  0  0  0  0  0  0  0  0  0
    8.1395  -17.3357   19.5705 O   0  0  0  0  0  0  0  0  0  0  0  0
    7.4736  -15.1527   19.9785 N   0  0  0  0  0  0  0  0  0  0  0  0
    6.5793  -14.0363   19.9422 C   0  0  0  0  0  0  0  0  0  0  0  0
    7.2056  -12.9925   20.8254 C   0  0  0  0  0  0  0  0  0  0  0  0
    8.6786  -13.1682   20.4192 C   0  0  0  0  0  0  0  0  0  0  0  0
    8.7758  -14.6747   20.3853 C   0  0  1  0  0  0  0  0  0  0  0  0
    9.2134  -15.2395   21.6784 C   0  0  0  0  0  0  0  0  0  0  0  0
    8.3789  -15.2445   22.6233 O   0  0  0  0  0  0  0  0  0  0  0  0
   11.3540  -18.2981   21.9917 O   0  0  0  0  0  0  0  0  0  0  0  0
   10.7227  -17.8324   23.1450 C   0  0  0  0  0  0  0  0  0  0  0  0
   10.8839  -16.3183   23.2394 C   0  0  2  0  0  0  0  0  0  0  0  0
   10.4927  -15.7812   21.9588 N   0  0  0  0  0  0  0  0  0  0  0  0
   12.3080  -16.0582   23.5530 C   0  0  0  0  0  0  0  0  0  0  0  0
   12.7349  -16.3888   24.8329 O   0  0  0  0  0  0  0  0  0  0  0  0
   13.1149  -15.5622   22.7185 O   0  0  0  0  0  0  0  0  0  0  0  0
  2  3  1  6
  2  1  1  0
  4  2  1  0
  4  5  1  6
  6  8  1  0
  6  4  1  0
  7  6  2  0
  8 12  1  0
  9 10  1  0
  9  8  1  0
 10 11  1  0
 11 12  1  0
 12 13  1  1
 13 18  1  0
 14 13  2  0
 16 15  1  0
 17 19  1  0
 17 16  1  6
 18 17  1  0
 19 20  1  0
 21 19  2  0
M  END
$$$$
