VPS.pdb
     RDKit          3D

 21 21  0  0  1  0  0  0  0  0999 V2000
    6.2384  -11.9195   27.0752 C   0  0  0  0  0  0  0  0  0  0  0  0
    7.1548  -12.9671   26.4581 C   0  0  2  0  0  0  0  0  0  0  0  0
    8.1017  -12.2191   25.5469 C   0  0  0  0  0  0  0  0  0  0  0  0
    6.3120  -13.9958   25.6824 C   0  0  2  0  0  0  0  0  0  0  0  0
    5.4451  -14.5896   26.5940 N   0  0  0  0  0  0  0  0  0  0  0  0
    7.1399  -14.8511   24.8373 C   0  0  0  0  0  0  0  0  0  0  0  0
    7.5988  -15.8981   25.3742 O   0  0  0  0  0  0  0  0  0  0  0  0
    7.4721  -14.6017   23.4563 N   0  0  0  0  0  0  0  0  0  0  0  0
    7.1327  -13.4529   22.6736 C   0  0  0  0  0  0  0  0  0  0  0  0
    8.1140  -13.4403   21.5340 C   0  0  0  0  0  0  0  0  0  0  0  0
    8.1573  -14.9455   21.2208 C   0  0  0  0  0  0  0  0  0  0  0  0
    8.2163  -15.5147   22.6182 C   0  0  1  0  0  0  0  0  0  0  0  0
    9.6032  -15.7172   23.0851 C   0  0  0  0  0  0  0  0  0  0  0  0
   10.2122  -14.7166   23.5511 O   0  0  0  0  0  0  0  0  0  0  0  0
   10.9118  -19.1939   24.1577 O   0  0  0  0  0  0  0  0  0  0  0  0
   11.7907  -18.1595   24.4785 C   0  0  0  0  0  0  0  0  0  0  0  0
   11.7121  -17.0729   23.4105 C   0  0  2  0  0  0  0  0  0  0  0  0
   10.3192  -16.9401   23.0589 N   0  0  0  0  0  0  0  0  0  0  0  0
   12.5436  -17.5300   22.2730 C   0  0  0  0  0  0  0  0  0  0  0  0
   13.9117  -17.6189   22.4970 O   0  0  0  0  0  0  0  0  0  0  0  0
   12.0598  -17.8300   21.1463 O   0  0  0  0  0  0  0  0  0  0  0  0
  2  3  1  6
  2  1  1  0
  4  2  1  0
  4  5  1  1
  6  8  1  0
  6  4  1  0
  7  6  2  0
  8 12  1  0
  9 10  1  0
  9  8  1  0
 10 11  1  0
 11 12  1  0
 12 13  1  1
 13 18  1  0
 14 13  2  0
 16 15  1  0
 17 19  1  0
 17 16  1  1
 18 17  1  0
 19 20  1  0
 21 19  2  0
M  END
$$$$
