VPS.pdb
     RDKit          3D

 21 21  0  0  1  0  0  0  0  0999 V2000
    7.2398  -16.3573   22.2535 C   0  0  0  0  0  0  0  0  0  0  0  0
    6.8854  -14.8797   22.1570 C   0  0  2  0  0  0  0  0  0  0  0  0
    6.3546  -14.6609   20.7582 C   0  0  0  0  0  0  0  0  0  0  0  0
    8.1404  -14.0304   22.4289 C   0  0  2  0  0  0  0  0  0  0  0  0
    9.0540  -14.3098   21.4177 N   0  0  0  0  0  0  0  0  0  0  0  0
    8.5751  -14.1313   23.8188 C   0  0  0  0  0  0  0  0  0  0  0  0
    9.6295  -14.7929   24.0323 O   0  0  0  0  0  0  0  0  0  0  0  0
    7.9076  -13.5439   24.9543 N   0  0  0  0  0  0  0  0  0  0  0  0
    6.7072  -12.7650   24.9506 C   0  0  0  0  0  0  0  0  0  0  0  0
    6.1731  -12.8455   26.3542 C   0  0  0  0  0  0  0  0  0  0  0  0
    7.4936  -12.7310   27.1344 C   0  0  0  0  0  0  0  0  0  0  0  0
    8.3743  -13.6471   26.3186 C   0  0  1  0  0  0  0  0  0  0  0  0
    8.3621  -15.0355   26.8231 C   0  0  0  0  0  0  0  0  0  0  0  0
    7.2487  -15.6239   26.8808 O   0  0  0  0  0  0  0  0  0  0  0  0
   11.3120  -17.6732   26.5642 O   0  0  0  0  0  0  0  0  0  0  0  0
   10.0216  -18.0712   26.9134 C   0  0  0  0  0  0  0  0  0  0  0  0
    9.4243  -17.0651   27.8925 C   0  0  2  0  0  0  0  0  0  0  0  0
    9.4932  -15.7745   27.2512 N   0  0  0  0  0  0  0  0  0  0  0  0
   10.2425  -17.1305   29.1256 C   0  0  0  0  0  0  0  0  0  0  0  0
   10.8574  -15.9520   29.5289 O   0  0  0  0  0  0  0  0  0  0  0  0
   10.3905  -18.1901   29.7955 O   0  0  0  0  0  0  0  0  0  0  0  0
  2  3  1  6
  2  1  1  0
  4  2  1  0
  4  5  1  6
  6  8  1  0
  6  4  1  0
  7  6  2  0
  8 12  1  0
  9 10  1  0
  9  8  1  0
 10 11  1  0
 11 12  1  0
 12 13  1  1
 13 18  1  0
 14 13  2  0
 16 15  1  0
 17 19  1  0
 17 16  1  6
 18 17  1  0
 19 20  1  0
 21 19  2  0
M  END
$$$$
