VPS.pdb
     RDKit          3D

 21 21  0  0  1  0  0  0  0  0999 V2000
    6.3901  -11.7522   27.1566 C   0  0  0  0  0  0  0  0  0  0  0  0
    7.1914  -12.8894   26.5380 C   0  0  2  0  0  0  0  0  0  0  0  0
    8.2450  -12.2421   25.6677 C   0  0  0  0  0  0  0  0  0  0  0  0
    6.2532  -13.7940   25.7183 C   0  0  2  0  0  0  0  0  0  0  0  0
    5.2738  -14.2659   26.5862 N   0  0  0  0  0  0  0  0  0  0  0  0
    6.9952  -14.7527   24.9051 C   0  0  0  0  0  0  0  0  0  0  0  0
    7.3642  -15.8139   25.4822 O   0  0  0  0  0  0  0  0  0  0  0  0
    7.3368  -14.5897   23.5135 N   0  0  0  0  0  0  0  0  0  0  0  0
    7.0083  -13.4889   22.6603 C   0  0  0  0  0  0  0  0  0  0  0  0
    7.9963  -13.5509   21.5281 C   0  0  0  0  0  0  0  0  0  0  0  0
    8.0330  -15.0725   21.3074 C   0  0  0  0  0  0  0  0  0  0  0  0
    8.0808  -15.5559   22.7372 C   0  0  1  0  0  0  0  0  0  0  0  0
    9.4639  -15.7368   23.2239 C   0  0  0  0  0  0  0  0  0  0  0  0
   10.1331  -14.6982   23.4743 O   0  0  0  0  0  0  0  0  0  0  0  0
   10.7330  -19.3416   24.2174 O   0  0  0  0  0  0  0  0  0  0  0  0
   11.5768  -18.3512   24.7198 C   0  0  0  0  0  0  0  0  0  0  0  0
   11.4955  -17.1127   23.8327 C   0  0  2  0  0  0  0  0  0  0  0  0
   10.1142  -16.9777   23.4385 N   0  0  0  0  0  0  0  0  0  0  0  0
   12.3940  -17.3524   22.6797 C   0  0  0  0  0  0  0  0  0  0  0  0
   13.7571  -17.3770   22.9463 O   0  0  0  0  0  0  0  0  0  0  0  0
   11.9696  -17.5286   21.5040 O   0  0  0  0  0  0  0  0  0  0  0  0
  2  3  1  6
  2  1  1  0
  4  2  1  0
  4  5  1  1
  6  8  1  0
  6  4  1  0
  7  6  2  0
  8 12  1  0
  9 10  1  0
  9  8  1  0
 10 11  1  0
 11 12  1  0
 12 13  1  1
 13 18  1  0
 14 13  2  0
 16 15  1  0
 17 19  1  0
 17 16  1  1
 18 17  1  0
 19 20  1  0
 21 19  2  0
M  END
$$$$
