VPS.pdb
     RDKit          3D

 21 21  0  0  1  0  0  0  0  0999 V2000
    7.1075  -14.1075   18.7493 C   0  0  0  0  0  0  0  0  0  0  0  0
    7.7898  -14.5135   20.0484 C   0  0  2  0  0  0  0  0  0  0  0  0
    6.7784  -15.3288   20.8223 C   0  0  0  0  0  0  0  0  0  0  0  0
    8.2163  -13.2526   20.8221 C   0  0  2  0  0  0  0  0  0  0  0  0
    8.9689  -12.4704   19.9521 N   0  0  0  0  0  0  0  0  0  0  0  0
    8.7692  -13.5796   22.1329 C   0  0  0  0  0  0  0  0  0  0  0  0
    9.9680  -13.9763   22.1553 O   0  0  0  0  0  0  0  0  0  0  0  0
    8.0673  -13.4873   23.3894 N   0  0  0  0  0  0  0  0  0  0  0  0
    6.7429  -12.9931   23.6118 C   0  0  0  0  0  0  0  0  0  0  0  0
    6.3133  -13.5774   24.9292 C   0  0  0  0  0  0  0  0  0  0  0  0
    7.6299  -13.4337   25.7112 C   0  0  0  0  0  0  0  0  0  0  0  0
    8.6209  -13.8839   24.6645 C   0  0  1  0  0  0  0  0  0  0  0  0
    8.9000  -15.3326   24.7403 C   0  0  0  0  0  0  0  0  0  0  0  0
    7.9910  -16.1208   24.3641 O   0  0  0  0  0  0  0  0  0  0  0  0
   12.0174  -18.9806   24.9847 O   0  0  0  0  0  0  0  0  0  0  0  0
   11.7706  -17.6079   24.9661 C   0  0  0  0  0  0  0  0  0  0  0  0
   10.3113  -17.3466   25.3264 C   0  0  2  0  0  0  0  0  0  0  0  0
   10.1033  -15.9246   25.1991 N   0  0  0  0  0  0  0  0  0  0  0  0
   10.1208  -17.8262   26.7149 C   0  0  0  0  0  0  0  0  0  0  0  0
   10.2185  -19.1966   26.9200 O   0  0  0  0  0  0  0  0  0  0  0  0
    9.8807  -17.0509   27.6817 O   0  0  0  0  0  0  0  0  0  0  0  0
  2  3  1  1
  2  1  1  0
  4  2  1  0
  4  5  1  6
  6  8  1  0
  6  4  1  0
  7  6  2  0
  8 12  1  0
  9 10  1  0
  9  8  1  0
 10 11  1  0
 11 12  1  0
 12 13  1  6
 13 18  1  0
 14 13  2  0
 16 15  1  0
 17 19  1  0
 17 16  1  1
 18 17  1  0
 19 20  1  0
 21 19  2  0
M  END
$$$$
