VPS.pdb
     RDKit          3D

 21 21  0  0  1  0  0  0  0  0999 V2000
    6.4260  -11.6035   27.3312 C   0  0  0  0  0  0  0  0  0  0  0  0
    7.2336  -12.7223   26.6878 C   0  0  2  0  0  0  0  0  0  0  0  0
    8.2563  -12.0508   25.7991 C   0  0  0  0  0  0  0  0  0  0  0  0
    6.2940  -13.6385   25.8827 C   0  0  2  0  0  0  0  0  0  0  0  0
    5.3281  -14.1142   26.7636 N   0  0  0  0  0  0  0  0  0  0  0  0
    7.0349  -14.5949   25.0658 C   0  0  0  0  0  0  0  0  0  0  0  0
    7.3955  -15.6623   25.6366 O   0  0  0  0  0  0  0  0  0  0  0  0
    7.3840  -14.4232   23.6771 N   0  0  0  0  0  0  0  0  0  0  0  0
    7.1000  -13.2967   22.8416 C   0  0  0  0  0  0  0  0  0  0  0  0
    8.0859  -13.3795   21.7089 C   0  0  0  0  0  0  0  0  0  0  0  0
    8.0627  -14.8977   21.4637 C   0  0  0  0  0  0  0  0  0  0  0  0
    8.0900  -15.4054   22.8856 C   0  0  1  0  0  0  0  0  0  0  0  0
    9.4643  -15.6485   23.3699 C   0  0  0  0  0  0  0  0  0  0  0  0
   10.1636  -14.6422   23.6657 O   0  0  0  0  0  0  0  0  0  0  0  0
   10.5065  -19.1774   24.7383 O   0  0  0  0  0  0  0  0  0  0  0  0
   11.3794  -18.1509   25.0986 C   0  0  0  0  0  0  0  0  0  0  0  0
   11.4330  -17.1111   23.9835 C   0  0  2  0  0  0  0  0  0  0  0  0
   10.0755  -16.9166   23.5353 N   0  0  0  0  0  0  0  0  0  0  0  0
   12.3069  -17.6652   22.9235 C   0  0  0  0  0  0  0  0  0  0  0  0
   11.7071  -17.9382   21.7006 O   0  0  0  0  0  0  0  0  0  0  0  0
   13.5375  -17.8878   23.0954 O   0  0  0  0  0  0  0  0  0  0  0  0
  2  3  1  6
  2  1  1  0
  4  2  1  0
  4  5  1  1
  6  8  1  0
  6  4  1  0
  7  6  2  0
  8 12  1  0
  9 10  1  0
  9  8  1  0
 10 11  1  0
 11 12  1  0
 12 13  1  1
 13 18  1  0
 14 13  2  0
 16 15  1  0
 17 19  1  0
 17 16  1  1
 18 17  1  0
 19 20  1  0
 21 19  2  0
M  END
$$$$
