VPS.pdb
     RDKit          3D

 21 21  0  0  1  0  0  0  0  0999 V2000
    5.6027  -19.0779   22.2071 C   0  0  0  0  0  0  0  0  0  0  0  0
    4.8668  -17.9031   21.5774 C   0  0  2  0  0  0  0  0  0  0  0  0
    3.4364  -18.3532   21.3830 C   0  0  0  0  0  0  0  0  0  0  0  0
    5.5344  -17.5345   20.2400 C   0  0  2  0  0  0  0  0  0  0  0  0
    5.3541  -18.6120   19.3787 N   0  0  0  0  0  0  0  0  0  0  0  0
    6.8805  -17.0035   20.4319 C   0  0  0  0  0  0  0  0  0  0  0  0
    7.8341  -17.8165   20.2745 O   0  0  0  0  0  0  0  0  0  0  0  0
    7.2068  -15.6430   20.7817 N   0  0  0  0  0  0  0  0  0  0  0  0
    6.3090  -14.5345   20.8946 C   0  0  0  0  0  0  0  0  0  0  0  0
    7.0213  -13.5280   21.7556 C   0  0  0  0  0  0  0  0  0  0  0  0
    8.4434  -13.6703   21.1874 C   0  0  0  0  0  0  0  0  0  0  0  0
    8.5429  -15.1726   21.0706 C   0  0  1  0  0  0  0  0  0  0  0  0
    9.1181  -15.7941   22.2811 C   0  0  0  0  0  0  0  0  0  0  0  0
    8.3936  -15.8404   23.3117 O   0  0  0  0  0  0  0  0  0  0  0  0
   11.9131  -18.4909   22.0862 O   0  0  0  0  0  0  0  0  0  0  0  0
   11.2435  -18.3865   23.3052 C   0  0  0  0  0  0  0  0  0  0  0  0
   10.9546  -16.9189   23.6052 C   0  0  2  0  0  0  0  0  0  0  0  0
   10.4177  -16.3482   22.3937 N   0  0  0  0  0  0  0  0  0  0  0  0
   12.2416  -16.3017   24.0016 C   0  0  0  0  0  0  0  0  0  0  0  0
   12.7869  -16.7185   25.2093 O   0  0  0  0  0  0  0  0  0  0  0  0
   12.8345  -15.4385   23.2968 O   0  0  0  0  0  0  0  0  0  0  0  0
  2  3  1  6
  2  1  1  0
  4  2  1  0
  4  5  1  6
  6  8  1  0
  6  4  1  0
  7  6  2  0
  8 12  1  0
  9 10  1  0
  9  8  1  0
 10 11  1  0
 11 12  1  0
 12 13  1  1
 13 18  1  0
 14 13  2  0
 16 15  1  0
 17 19  1  0
 17 16  1  6
 18 17  1  0
 19 20  1  0
 21 19  2  0
M  END
$$$$
