VPS.pdb
     RDKit          3D

 21 21  0  0  1  0  0  0  0  0999 V2000
    7.1246  -16.4349   22.2242 C   0  0  0  0  0  0  0  0  0  0  0  0
    6.7705  -14.9543   22.2076 C   0  0  2  0  0  0  0  0  0  0  0  0
    6.1267  -14.6866   20.8659 C   0  0  0  0  0  0  0  0  0  0  0  0
    8.0477  -14.1171   22.4033 C   0  0  2  0  0  0  0  0  0  0  0  0
    8.8723  -14.3621   21.3100 N   0  0  0  0  0  0  0  0  0  0  0  0
    8.5964  -14.2678   23.7475 C   0  0  0  0  0  0  0  0  0  0  0  0
    9.6502  -14.9562   23.8515 O   0  0  0  0  0  0  0  0  0  0  0  0
    8.0410  -13.7014   24.9519 N   0  0  0  0  0  0  0  0  0  0  0  0
    6.8836  -12.8680   25.0679 C   0  0  0  0  0  0  0  0  0  0  0  0
    6.4468  -12.9862   26.5021 C   0  0  0  0  0  0  0  0  0  0  0  0
    7.8233  -12.9683   27.1880 C   0  0  0  0  0  0  0  0  0  0  0  0
    8.5975  -13.8870   26.2731 C   0  0  1  0  0  0  0  0  0  0  0  0
    8.5522  -15.2945   26.7195 C   0  0  0  0  0  0  0  0  0  0  0  0
    7.4245  -15.8569   26.7574 O   0  0  0  0  0  0  0  0  0  0  0  0
   11.6660  -17.7469   26.6718 O   0  0  0  0  0  0  0  0  0  0  0  0
   10.4217  -18.3276   26.9162 C   0  0  0  0  0  0  0  0  0  0  0  0
    9.5657  -17.3725   27.7423 C   0  0  2  0  0  0  0  0  0  0  0  0
    9.6657  -16.0786   27.1117 N   0  0  0  0  0  0  0  0  0  0  0  0
   10.1209  -17.3791   29.1155 C   0  0  0  0  0  0  0  0  0  0  0  0
   10.0833  -18.5888   29.7973 O   0  0  0  0  0  0  0  0  0  0  0  0
   10.6097  -16.3520   29.6630 O   0  0  0  0  0  0  0  0  0  0  0  0
  2  3  1  6
  2  1  1  0
  4  2  1  0
  4  5  1  6
  6  8  1  0
  6  4  1  0
  7  6  2  0
  8 12  1  0
  9 10  1  0
  9  8  1  0
 10 11  1  0
 11 12  1  0
 12 13  1  1
 13 18  1  0
 14 13  2  0
 16 15  1  0
 17 19  1  0
 17 16  1  6
 18 17  1  0
 19 20  1  0
 21 19  2  0
M  END
$$$$
