VPS.pdb
     RDKit          3D

 21 21  0  0  1  0  0  0  0  0999 V2000
    6.5142  -16.2584   20.9806 C   0  0  0  0  0  0  0  0  0  0  0  0
    7.3341  -16.0107   22.2393 C   0  0  2  0  0  0  0  0  0  0  0  0
    6.4771  -16.4630   23.4001 C   0  0  0  0  0  0  0  0  0  0  0  0
    7.6847  -14.5150   22.3395 C   0  0  2  0  0  0  0  0  0  0  0  0
    8.2767  -14.1490   21.1351 N   0  0  0  0  0  0  0  0  0  0  0  0
    8.3734  -14.2000   23.5875 C   0  0  0  0  0  0  0  0  0  0  0  0
    9.5865  -14.5432   23.6632 O   0  0  0  0  0  0  0  0  0  0  0  0
    7.7893  -13.5365   24.7270 N   0  0  0  0  0  0  0  0  0  0  0  0
    6.4769  -12.9754   24.8286 C   0  0  0  0  0  0  0  0  0  0  0  0
    6.1903  -12.8910   26.3026 C   0  0  0  0  0  0  0  0  0  0  0  0
    7.5691  -12.4276   26.8023 C   0  0  0  0  0  0  0  0  0  0  0  0
    8.4714  -13.3189   25.9829 C   0  0  1  0  0  0  0  0  0  0  0  0
    8.8010  -14.5791   26.6798 C   0  0  0  0  0  0  0  0  0  0  0  0
    7.8750  -15.4217   26.8274 O   0  0  0  0  0  0  0  0  0  0  0  0
   11.8245  -16.4296   26.1998 O   0  0  0  0  0  0  0  0  0  0  0  0
   11.6499  -16.6778   27.5611 C   0  0  0  0  0  0  0  0  0  0  0  0
   10.3159  -16.0964   28.0193 C   0  0  2  0  0  0  0  0  0  0  0  0
   10.0702  -14.9334   27.2016 N   0  0  0  0  0  0  0  0  0  0  0  0
   10.4658  -15.7602   29.4541 C   0  0  0  0  0  0  0  0  0  0  0  0
   10.7116  -16.8183   30.3199 O   0  0  0  0  0  0  0  0  0  0  0  0
   10.3793  -14.5806   29.8951 O   0  0  0  0  0  0  0  0  0  0  0  0
  2  3  1  1
  2  1  1  0
  4  2  1  0
  4  5  1  6
  6  8  1  0
  6  4  1  0
  7  6  2  0
  8 12  1  0
  9 10  1  0
  9  8  1  0
 10 11  1  0
 11 12  1  0
 12 13  1  1
 13 18  1  0
 14 13  2  0
 16 15  1  0
 17 19  1  0
 17 16  1  6
 18 17  1  0
 19 20  1  0
 21 19  2  0
M  END
$$$$
