ALY.pdb
     RDKit          3D

 26 26  0  0  1  0  0  0  0  0999 V2000
    6.8582  -17.1360   19.6917 C   0  0  0  0  0  0  0  0  0  0  0  0
    7.7371  -17.4468   20.8965 C   0  0  2  0  0  0  0  0  0  0  0  0
    6.9760  -18.1828   21.8823 N   0  0  0  0  0  0  0  0  0  0  0  0
    8.1427  -16.1549   21.4969 C   0  0  0  0  0  0  0  0  0  0  0  0
    8.8451  -15.3900   20.7576 O   0  0  0  0  0  0  0  0  0  0  0  0
    6.1150  -13.0054   26.3356 C   0  0  0  0  0  0  0  0  0  0  0  0
    7.2321  -13.0450   25.2718 C   0  0  2  0  0  0  0  0  0  0  0  0
    7.2757  -11.7055   24.6368 C   0  0  0  0  0  0  0  0  0  0  0  0
    7.0428  -14.1928   24.3761 C   0  0  0  0  0  0  0  0  0  0  0  0
    8.0596  -14.4670   23.3303 C   0  0  2  0  0  0  0  0  0  0  0  0
    7.7584  -15.8192   22.8130 N   0  0  0  0  0  0  0  0  0  0  0  0
    9.4516  -14.5588   23.8410 C   0  0  0  0  0  0  0  0  0  0  0  0
   10.0280  -13.5650   24.4143 O   0  0  0  0  0  0  0  0  0  0  0  0
   10.7032  -14.3969   31.0044 O   0  0  0  0  0  0  0  0  0  0  0  0
   10.4772  -14.9637   29.7533 C   0  0  0  0  0  0  0  0  0  0  0  0
   10.0376  -14.1816   28.7295 C   0  0  0  0  0  0  0  0  0  0  0  0
    9.8077  -14.7258   27.4807 C   0  0  0  0  0  0  0  0  0  0  0  0
   10.0150  -16.0484   27.2513 C   0  0  0  0  0  0  0  0  0  0  0  0
    9.7749  -16.6744   25.9368 C   0  0  0  0  0  0  0  0  0  0  0  0
   10.8469  -16.3411   24.9501 C   0  0  2  0  0  0  0  0  0  0  0  0
   10.2687  -15.7084   23.7597 N   0  0  0  0  0  0  0  0  0  0  0  0
   11.5939  -17.5293   24.4818 C   0  0  0  0  0  0  0  0  0  0  0  0
   11.4716  -18.0387   23.1868 O   0  0  0  0  0  0  0  0  0  0  0  0
   10.4653  -16.8510   28.2986 C   0  0  0  0  0  0  0  0  0  0  0  0
   10.6894  -16.3025   29.5286 C   0  0  0  0  0  0  0  0  0  0  0  0
   12.4011  -18.1679   25.2384 O   0  0  0  0  0  0  0  0  0  0  0  0
  2  3  1  0
  2  1  1  6
  4  2  1  0
  5  4  2  0
  7  6  1  1
  7  8  1  0
  9  7  1  0
 10  9  1  1
 10 11  1  0
 11  4  1  0
 12 21  1  0
 12 10  1  0
 13 12  2  0
 15 14  1  0
 16 15  2  0
 17 16  1  0
 18 17  2  0
 18 24  1  0
 19 18  1  0
 20 19  1  1
 20 22  1  0
 20 21  1  0
 22 23  1  0
 24 25  2  0
 25 15  1  0
 26 22  2  0
M  END
$$$$
