ALY.pdb
     RDKit          3D

 26 26  0  0  1  0  0  0  0  0999 V2000
    7.3306  -19.0567   22.1690 C   0  0  0  0  0  0  0  0  0  0  0  0
    7.5964  -18.2301   20.9173 C   0  0  2  0  0  0  0  0  0  0  0  0
    8.1014  -19.0832   19.8638 N   0  0  0  0  0  0  0  0  0  0  0  0
    8.6457  -17.2398   21.2522 C   0  0  0  0  0  0  0  0  0  0  0  0
    9.8390  -17.6850   21.3059 O   0  0  0  0  0  0  0  0  0  0  0  0
    8.1561  -12.1537   19.5230 C   0  0  0  0  0  0  0  0  0  0  0  0
    8.3990  -13.6102   19.9711 C   0  0  2  0  0  0  0  0  0  0  0  0
    7.1125  -14.3324   19.8188 C   0  0  0  0  0  0  0  0  0  0  0  0
    9.0161  -13.6377   21.3029 C   0  0  0  0  0  0  0  0  0  0  0  0
    9.3738  -14.9462   21.9053 C   0  0  2  0  0  0  0  0  0  0  0  0
    8.3124  -15.8893   21.4924 N   0  0  0  0  0  0  0  0  0  0  0  0
    9.3396  -14.9647   23.3904 C   0  0  0  0  0  0  0  0  0  0  0  0
    8.6064  -14.1504   24.0597 O   0  0  0  0  0  0  0  0  0  0  0  0
    5.5656  -11.3668   26.4830 O   0  0  0  0  0  0  0  0  0  0  0  0
    6.2953  -12.5469   26.3707 C   0  0  0  0  0  0  0  0  0  0  0  0
    5.6918  -13.6681   25.8893 C   0  0  0  0  0  0  0  0  0  0  0  0
    6.3994  -14.8488   25.7705 C   0  0  0  0  0  0  0  0  0  0  0  0
    7.7074  -14.9131   26.1311 C   0  0  0  0  0  0  0  0  0  0  0  0
    8.4998  -16.1537   26.0294 C   0  0  0  0  0  0  0  0  0  0  0  0
    9.9236  -15.8842   25.6635 C   0  0  2  0  0  0  0  0  0  0  0  0
   10.0801  -15.8497   24.2054 N   0  0  0  0  0  0  0  0  0  0  0  0
   10.8574  -16.9147   26.1688 C   0  0  0  0  0  0  0  0  0  0  0  0
   11.3519  -16.9130   27.4753 O   0  0  0  0  0  0  0  0  0  0  0  0
    8.3271  -13.7657   26.6243 C   0  0  0  0  0  0  0  0  0  0  0  0
    7.6182  -12.6044   26.7373 C   0  0  0  0  0  0  0  0  0  0  0  0
   11.2729  -17.8751   25.4362 O   0  0  0  0  0  0  0  0  0  0  0  0
  2  3  1  0
  2  1  1  1
  4  2  1  0
  5  4  2  0
  7  6  1  1
  7  8  1  0
  9  7  1  0
 10  9  1  6
 10 11  1  0
 11  4  1  0
 12 21  1  0
 12 10  1  0
 13 12  2  0
 15 14  1  0
 16 15  2  0
 17 16  1  0
 18 17  2  0
 18 24  1  0
 19 18  1  0
 20 19  1  6
 20 22  1  0
 20 21  1  0
 22 23  1  0
 24 25  2  0
 25 15  1  0
 26 22  2  0
M  END
$$$$
