ALY.pdb
     RDKit          3D

 26 26  0  0  1  0  0  0  0  0999 V2000
    6.0053  -15.5797   20.4028 C   0  0  0  0  0  0  0  0  0  0  0  0
    7.0684  -16.2275   21.2806 C   0  0  2  0  0  0  0  0  0  0  0  0
    6.4406  -17.0991   22.2496 N   0  0  0  0  0  0  0  0  0  0  0  0
    7.7605  -15.1434   22.0152 C   0  0  0  0  0  0  0  0  0  0  0  0
    8.4908  -14.3692   21.3136 O   0  0  0  0  0  0  0  0  0  0  0  0
    7.6789  -11.1559   24.8879 C   0  0  0  0  0  0  0  0  0  0  0  0
    6.7833  -12.3569   25.2572 C   0  0  2  0  0  0  0  0  0  0  0  0
    6.0470  -11.9875   26.4905 C   0  0  0  0  0  0  0  0  0  0  0  0
    7.5792  -13.5895   25.3094 C   0  0  0  0  0  0  0  0  0  0  0  0
    8.3888  -13.9760   24.1271 C   0  0  2  0  0  0  0  0  0  0  0  0
    7.6008  -15.0018   23.4106 N   0  0  0  0  0  0  0  0  0  0  0  0
    9.6718  -14.6478   24.4584 C   0  0  0  0  0  0  0  0  0  0  0  0
   10.6811  -13.9932   24.9074 O   0  0  0  0  0  0  0  0  0  0  0  0
   10.0456  -14.9323   30.8966 O   0  0  0  0  0  0  0  0  0  0  0  0
   10.2103  -15.5952   29.6838 C   0  0  0  0  0  0  0  0  0  0  0  0
   11.4465  -16.0320   29.3179 C   0  0  0  0  0  0  0  0  0  0  0  0
   11.6300  -16.6919   28.1181 C   0  0  0  0  0  0  0  0  0  0  0  0
   10.5829  -16.9165   27.2826 C   0  0  0  0  0  0  0  0  0  0  0  0
   10.7331  -17.6092   25.9884 C   0  0  0  0  0  0  0  0  0  0  0  0
   11.1121  -16.6712   24.8882 C   0  0  2  0  0  0  0  0  0  0  0  0
    9.9176  -16.0326   24.3252 N   0  0  0  0  0  0  0  0  0  0  0  0
   11.8059  -17.3425   23.7670 C   0  0  0  0  0  0  0  0  0  0  0  0
   13.0383  -17.9834   23.9142 O   0  0  0  0  0  0  0  0  0  0  0  0
    9.3160  -16.4699   27.6557 C   0  0  0  0  0  0  0  0  0  0  0  0
    9.1462  -15.8191   28.8438 C   0  0  0  0  0  0  0  0  0  0  0  0
   11.3182  -17.3762   22.5868 O   0  0  0  0  0  0  0  0  0  0  0  0
  2  3  1  0
  2  1  1  6
  4  2  1  0
  5  4  2  0
  7  6  1  1
  7  8  1  0
  9  7  1  0
 10  9  1  1
 10 11  1  0
 11  4  1  0
 12 21  1  0
 12 10  1  0
 13 12  2  0
 15 14  1  0
 16 15  2  0
 17 16  1  0
 18 17  2  0
 18 24  1  0
 19 18  1  0
 20 19  1  1
 20 22  1  0
 20 21  1  0
 22 23  1  0
 24 25  2  0
 25 15  1  0
 26 22  2  0
M  END
$$$$
