ALY.pdb
     RDKit          3D

 26 26  0  0  1  0  0  0  0  0999 V2000
    8.9970  -20.4487   21.8808 C   0  0  0  0  0  0  0  0  0  0  0  0
    8.7182  -19.6229   20.6315 C   0  0  2  0  0  0  0  0  0  0  0  0
    9.4405  -20.1756   19.5065 N   0  0  0  0  0  0  0  0  0  0  0  0
    9.2274  -18.2543   20.8794 C   0  0  0  0  0  0  0  0  0  0  0  0
   10.4603  -18.0601   20.6201 O   0  0  0  0  0  0  0  0  0  0  0  0
    6.4467  -12.8372   21.3987 C   0  0  0  0  0  0  0  0  0  0  0  0
    7.8244  -13.5305   21.3514 C   0  0  2  0  0  0  0  0  0  0  0  0
    8.5764  -12.9271   20.2244 C   0  0  0  0  0  0  0  0  0  0  0  0
    7.6606  -14.9892   21.3279 C   0  0  0  0  0  0  0  0  0  0  0  0
    8.8631  -15.8520   21.4396 C   0  0  2  0  0  0  0  0  0  0  0  0
    8.3729  -17.2456   21.3743 N   0  0  0  0  0  0  0  0  0  0  0  0
    9.5630  -15.7581   22.7467 C   0  0  0  0  0  0  0  0  0  0  0  0
   10.6319  -15.0618   22.8924 O   0  0  0  0  0  0  0  0  0  0  0  0
    5.9740  -11.1410   26.0166 O   0  0  0  0  0  0  0  0  0  0  0  0
    6.6682  -12.3453   26.0872 C   0  0  0  0  0  0  0  0  0  0  0  0
    5.9887  -13.5207   25.9882 C   0  0  0  0  0  0  0  0  0  0  0  0
    6.6601  -14.7262   26.0559 C   0  0  0  0  0  0  0  0  0  0  0  0
    8.0077  -14.7614   26.2224 C   0  0  0  0  0  0  0  0  0  0  0  0
    8.7652  -16.0249   26.3085 C   0  0  0  0  0  0  0  0  0  0  0  0
    9.7908  -16.1415   25.2275 C   0  0  2  0  0  0  0  0  0  0  0  0
    9.1460  -16.3980   23.9352 N   0  0  0  0  0  0  0  0  0  0  0  0
   10.7486  -17.2463   25.4535 C   0  0  0  0  0  0  0  0  0  0  0  0
   11.6237  -17.2790   26.5418 O   0  0  0  0  0  0  0  0  0  0  0  0
    8.7054  -13.5586   26.3238 C   0  0  0  0  0  0  0  0  0  0  0  0
    8.0316  -12.3732   26.2554 C   0  0  0  0  0  0  0  0  0  0  0  0
   10.8361  -18.2444   24.6611 O   0  0  0  0  0  0  0  0  0  0  0  0
  2  3  1  0
  2  1  1  1
  4  2  1  0
  5  4  2  0
  7  6  1  6
  7  8  1  0
  9  7  1  0
 10  9  1  1
 10 11  1  0
 11  4  1  0
 12 21  1  0
 12 10  1  0
 13 12  2  0
 15 14  1  0
 16 15  2  0
 17 16  1  0
 18 17  2  0
 18 24  1  0
 19 18  1  0
 20 19  1  1
 20 22  1  0
 20 21  1  0
 22 23  1  0
 24 25  2  0
 25 15  1  0
 26 22  2  0
M  END
$$$$
