ALY.pdb
     RDKit          3D

 26 26  0  0  1  0  0  0  0  0999 V2000
    8.9571  -15.6909   20.1745 C   0  0  0  0  0  0  0  0  0  0  0  0
    8.8682  -16.5319   21.4415 C   0  0  2  0  0  0  0  0  0  0  0  0
    7.5180  -17.0228   21.6110 N   0  0  0  0  0  0  0  0  0  0  0  0
    9.1848  -15.6471   22.5864 C   0  0  0  0  0  0  0  0  0  0  0  0
   10.3804  -15.2083   22.6410 O   0  0  0  0  0  0  0  0  0  0  0  0
    5.8057  -12.2886   26.3849 C   0  0  0  0  0  0  0  0  0  0  0  0
    7.2525  -12.7371   26.0903 C   0  0  2  0  0  0  0  0  0  0  0  0
    8.0735  -11.5075   25.9725 C   0  0  0  0  0  0  0  0  0  0  0  0
    7.2781  -13.6583   24.9474 C   0  0  0  0  0  0  0  0  0  0  0  0
    8.5323  -14.3891   24.6380 C   0  0  2  0  0  0  0  0  0  0  0  0
    8.1988  -15.3270   23.5445 N   0  0  0  0  0  0  0  0  0  0  0  0
    9.0234  -15.2540   25.7415 C   0  0  0  0  0  0  0  0  0  0  0  0
    8.4355  -16.3523   26.0521 O   0  0  0  0  0  0  0  0  0  0  0  0
   13.4462  -18.3688   22.3538 O   0  0  0  0  0  0  0  0  0  0  0  0
   13.1212  -17.8175   23.5898 C   0  0  0  0  0  0  0  0  0  0  0  0
   13.2123  -16.4714   23.7713 C   0  0  0  0  0  0  0  0  0  0  0  0
   12.8940  -15.9055   24.9908 C   0  0  0  0  0  0  0  0  0  0  0  0
   12.4854  -16.6797   26.0294 C   0  0  0  0  0  0  0  0  0  0  0  0
   12.1433  -16.1202   27.3513 C   0  0  0  0  0  0  0  0  0  0  0  0
   10.6695  -15.9407   27.5226 C   0  0  2  0  0  0  0  0  0  0  0  0
   10.1534  -14.9782   26.5434 N   0  0  0  0  0  0  0  0  0  0  0  0
   10.2992  -15.4287   28.8606 C   0  0  0  0  0  0  0  0  0  0  0  0
    9.6540  -14.2044   29.0508 O   0  0  0  0  0  0  0  0  0  0  0  0
   12.3913  -18.0585   25.8454 C   0  0  0  0  0  0  0  0  0  0  0  0
   12.7082  -18.6069   24.6359 C   0  0  0  0  0  0  0  0  0  0  0  0
   10.5498  -16.0783   29.9315 O   0  0  0  0  0  0  0  0  0  0  0  0
  2  3  1  0
  2  1  1  6
  4  2  1  0
  5  4  2  0
  7  6  1  6
  7  8  1  0
  9  7  1  0
 10  9  1  1
 10 11  1  0
 11  4  1  0
 12 21  1  0
 12 10  1  0
 13 12  2  0
 15 14  1  0
 16 15  2  0
 17 16  1  0
 18 17  2  0
 18 24  1  0
 19 18  1  0
 20 19  1  1
 20 22  1  0
 20 21  1  0
 22 23  1  0
 24 25  2  0
 25 15  1  0
 26 22  2  0
M  END
$$$$
