ALY.pdb
     RDKit          3D

 26 26  0  0  1  0  0  0  0  0999 V2000
    8.8142  -19.8111   21.6281 C   0  0  0  0  0  0  0  0  0  0  0  0
    8.5194  -18.8128   20.5158 C   0  0  2  0  0  0  0  0  0  0  0  0
    9.1086  -19.2707   19.2765 N   0  0  0  0  0  0  0  0  0  0  0  0
    9.1617  -17.5307   20.8863 C   0  0  0  0  0  0  0  0  0  0  0  0
   10.3857  -17.4013   20.5545 O   0  0  0  0  0  0  0  0  0  0  0  0
    8.8181  -13.4673   19.3987 C   0  0  0  0  0  0  0  0  0  0  0  0
    7.6266  -13.9226   20.2670 C   0  0  2  0  0  0  0  0  0  0  0  0
    6.5554  -12.9103   20.1009 C   0  0  0  0  0  0  0  0  0  0  0  0
    8.0702  -14.1930   21.6402 C   0  0  0  0  0  0  0  0  0  0  0  0
    9.0933  -15.2424   21.8743 C   0  0  2  0  0  0  0  0  0  0  0  0
    8.4348  -16.5301   21.5667 N   0  0  0  0  0  0  0  0  0  0  0  0
    9.5269  -15.3678   23.2897 C   0  0  0  0  0  0  0  0  0  0  0  0
   10.3711  -14.5538   23.8125 O   0  0  0  0  0  0  0  0  0  0  0  0
    6.0619  -11.0881   26.3846 O   0  0  0  0  0  0  0  0  0  0  0  0
    6.6140  -12.3656   26.4093 C   0  0  0  0  0  0  0  0  0  0  0  0
    5.8732  -13.4273   25.9885 C   0  0  0  0  0  0  0  0  0  0  0  0
    6.4036  -14.7028   26.0055 C   0  0  0  0  0  0  0  0  0  0  0  0
    7.6713  -14.9213   26.4417 C   0  0  0  0  0  0  0  0  0  0  0  0
    8.2761  -16.2666   26.4853 C   0  0  0  0  0  0  0  0  0  0  0  0
    9.4755  -16.3738   25.6002 C   0  0  2  0  0  0  0  0  0  0  0  0
    9.0742  -16.3584   24.1894 N   0  0  0  0  0  0  0  0  0  0  0  0
   10.2431  -17.6210   25.8121 C   0  0  0  0  0  0  0  0  0  0  0  0
   10.4759  -18.5489   24.7943 O   0  0  0  0  0  0  0  0  0  0  0  0
    8.4316  -13.8352   26.8730 C   0  0  0  0  0  0  0  0  0  0  0  0
    7.8972  -12.5790   26.8517 C   0  0  0  0  0  0  0  0  0  0  0  0
   10.7422  -17.9287   26.9469 O   0  0  0  0  0  0  0  0  0  0  0  0
  2  3  1  0
  2  1  1  1
  4  2  1  0
  5  4  2  0
  7  6  1  6
  7  8  1  0
  9  7  1  0
 10  9  1  1
 10 11  1  0
 11  4  1  0
 12 21  1  0
 12 10  1  0
 13 12  2  0
 15 14  1  0
 16 15  2  0
 17 16  1  0
 18 17  2  0
 18 24  1  0
 19 18  1  0
 20 19  1  1
 20 22  1  0
 20 21  1  0
 22 23  1  0
 24 25  2  0
 25 15  1  0
 26 22  2  0
M  END
$$$$
