ALY.pdb
     RDKit          3D

 26 26  0  0  1  0  0  0  0  0999 V2000
    8.7433  -19.7685   21.4199 C   0  0  0  0  0  0  0  0  0  0  0  0
    8.5546  -18.7380   20.3140 C   0  0  2  0  0  0  0  0  0  0  0  0
    9.1852  -19.2022   19.0977 N   0  0  0  0  0  0  0  0  0  0  0  0
    9.2369  -17.4951   20.7423 C   0  0  0  0  0  0  0  0  0  0  0  0
   10.4925  -17.4434   20.5282 O   0  0  0  0  0  0  0  0  0  0  0  0
    8.9154  -13.4477   19.1640 C   0  0  0  0  0  0  0  0  0  0  0  0
    7.7495  -13.8675   20.0835 C   0  0  2  0  0  0  0  0  0  0  0  0
    6.6799  -12.8531   19.9204 C   0  0  0  0  0  0  0  0  0  0  0  0
    8.2352  -14.0987   21.4495 C   0  0  0  0  0  0  0  0  0  0  0  0
    9.2111  -15.1901   21.6930 C   0  0  2  0  0  0  0  0  0  0  0  0
    8.5120  -16.4470   21.3493 N   0  0  0  0  0  0  0  0  0  0  0  0
    9.6032  -15.3525   23.1167 C   0  0  0  0  0  0  0  0  0  0  0  0
   10.4853  -14.5977   23.6651 O   0  0  0  0  0  0  0  0  0  0  0  0
    6.4474  -10.8746   26.5700 O   0  0  0  0  0  0  0  0  0  0  0  0
    6.8823  -12.1946   26.4933 C   0  0  0  0  0  0  0  0  0  0  0  0
    5.9980  -13.1767   26.1665 C   0  0  0  0  0  0  0  0  0  0  0  0
    6.4106  -14.4927   26.0854 C   0  0  0  0  0  0  0  0  0  0  0  0
    7.7032  -14.8308   26.3299 C   0  0  0  0  0  0  0  0  0  0  0  0
    8.1867  -16.2235   26.2632 C   0  0  0  0  0  0  0  0  0  0  0  0
    9.4156  -16.3533   25.4225 C   0  0  2  0  0  0  0  0  0  0  0  0
    9.0677  -16.3182   23.9979 N   0  0  0  0  0  0  0  0  0  0  0  0
   10.1447  -17.6200   25.6529 C   0  0  0  0  0  0  0  0  0  0  0  0
   10.3891  -18.5483   24.6380 O   0  0  0  0  0  0  0  0  0  0  0  0
    8.6103  -13.8264   26.6646 C   0  0  0  0  0  0  0  0  0  0  0  0
    8.1915  -12.5293   26.7417 C   0  0  0  0  0  0  0  0  0  0  0  0
   10.5974  -17.9458   26.8021 O   0  0  0  0  0  0  0  0  0  0  0  0
  2  3  1  0
  2  1  1  1
  4  2  1  0
  5  4  2  0
  7  6  1  6
  7  8  1  0
  9  7  1  0
 10  9  1  1
 10 11  1  0
 11  4  1  0
 12 21  1  0
 12 10  1  0
 13 12  2  0
 15 14  1  0
 16 15  2  0
 17 16  1  0
 18 17  2  0
 18 24  1  0
 19 18  1  0
 20 19  1  1
 20 22  1  0
 20 21  1  0
 22 23  1  0
 24 25  2  0
 25 15  1  0
 26 22  2  0
M  END
$$$$
