ALY.pdb
     RDKit          3D

 26 26  0  0  1  0  0  0  0  0999 V2000
   10.0712  -19.5535   19.0507 C   0  0  0  0  0  0  0  0  0  0  0  0
   10.1603  -19.3145   20.5525 C   0  0  2  0  0  0  0  0  0  0  0  0
    8.9660  -19.8112   21.2003 N   0  0  0  0  0  0  0  0  0  0  0  0
   10.2270  -17.8505   20.7672 C   0  0  0  0  0  0  0  0  0  0  0  0
   11.2511  -17.2606   20.2894 O   0  0  0  0  0  0  0  0  0  0  0  0
    6.3303  -13.3362   21.0502 C   0  0  0  0  0  0  0  0  0  0  0  0
    7.7751  -13.7023   21.4495 C   0  0  2  0  0  0  0  0  0  0  0  0
    8.6794  -12.8522   20.6376 C   0  0  0  0  0  0  0  0  0  0  0  0
    7.9772  -15.1536   21.3582 C   0  0  0  0  0  0  0  0  0  0  0  0
    9.3120  -15.7177   21.6790 C   0  0  2  0  0  0  0  0  0  0  0  0
    9.2009  -17.1765   21.4640 N   0  0  0  0  0  0  0  0  0  0  0  0
    9.7094  -15.5744   23.1033 C   0  0  0  0  0  0  0  0  0  0  0  0
   10.3989  -14.5726   23.5150 O   0  0  0  0  0  0  0  0  0  0  0  0
    6.3370  -10.9825   26.2261 O   0  0  0  0  0  0  0  0  0  0  0  0
    6.8909  -12.2588   26.2671 C   0  0  0  0  0  0  0  0  0  0  0  0
    6.1333  -13.3331   25.9134 C   0  0  0  0  0  0  0  0  0  0  0  0
    6.6652  -14.6076   25.9476 C   0  0  0  0  0  0  0  0  0  0  0  0
    7.9511  -14.8126   26.3341 C   0  0  0  0  0  0  0  0  0  0  0  0
    8.5586  -16.1560   26.3938 C   0  0  0  0  0  0  0  0  0  0  0  0
    9.7710  -16.2650   25.5266 C   0  0  2  0  0  0  0  0  0  0  0  0
    9.3833  -16.4887   24.1297 N   0  0  0  0  0  0  0  0  0  0  0  0
   10.6582  -17.3859   25.9082 C   0  0  0  0  0  0  0  0  0  0  0  0
   11.1839  -17.5315   27.1942 O   0  0  0  0  0  0  0  0  0  0  0  0
    8.7287  -13.7136   26.6965 C   0  0  0  0  0  0  0  0  0  0  0  0
    8.1926  -12.4585   26.6588 C   0  0  0  0  0  0  0  0  0  0  0  0
   11.0017  -18.2950   25.0792 O   0  0  0  0  0  0  0  0  0  0  0  0
  2  3  1  0
  2  1  1  6
  4  2  1  0
  5  4  2  0
  7  6  1  6
  7  8  1  0
  9  7  1  0
 10  9  1  1
 10 11  1  0
 11  4  1  0
 12 21  1  0
 12 10  1  0
 13 12  2  0
 15 14  1  0
 16 15  2  0
 17 16  1  0
 18 17  2  0
 18 24  1  0
 19 18  1  0
 20 19  1  1
 20 22  1  0
 20 21  1  0
 22 23  1  0
 24 25  2  0
 25 15  1  0
 26 22  2  0
M  END
$$$$
