ALY.pdb
     RDKit          3D

 26 26  0  0  1  0  0  0  0  0999 V2000
    8.6506  -18.1620   22.2623 C   0  0  0  0  0  0  0  0  0  0  0  0
    7.7254  -17.1654   21.5756 C   0  0  2  0  0  0  0  0  0  0  0  0
    8.0436  -17.0908   20.1664 N   0  0  0  0  0  0  0  0  0  0  0  0
    7.9784  -15.8356   22.1769 C   0  0  0  0  0  0  0  0  0  0  0  0
    8.8769  -15.1283   21.6136 O   0  0  0  0  0  0  0  0  0  0  0  0
    7.3950  -11.5691   25.0155 C   0  0  0  0  0  0  0  0  0  0  0  0
    6.1155  -12.3993   25.2496 C   0  0  2  0  0  0  0  0  0  0  0  0
    5.8148  -12.3350   26.7005 C   0  0  0  0  0  0  0  0  0  0  0  0
    6.2627  -13.7384   24.6661 C   0  0  0  0  0  0  0  0  0  0  0  0
    7.4346  -14.0235   23.8010 C   0  0  2  0  0  0  0  0  0  0  0  0
    7.2507  -15.4052   23.3072 N   0  0  0  0  0  0  0  0  0  0  0  0
    8.7336  -14.0490   24.5213 C   0  0  0  0  0  0  0  0  0  0  0  0
    9.2118  -13.0017   25.0897 O   0  0  0  0  0  0  0  0  0  0  0  0
   12.1518  -16.7061   31.8421 O   0  0  0  0  0  0  0  0  0  0  0  0
   11.4725  -16.4496   30.6546 C   0  0  0  0  0  0  0  0  0  0  0  0
   11.2932  -15.1635   30.2460 C   0  0  0  0  0  0  0  0  0  0  0  0
   10.6217  -14.8887   29.0704 C   0  0  0  0  0  0  0  0  0  0  0  0
   10.1286  -15.8943   28.3017 C   0  0  0  0  0  0  0  0  0  0  0  0
    9.3981  -15.6480   27.0435 C   0  0  0  0  0  0  0  0  0  0  0  0
   10.3218  -15.4532   25.8848 C   0  0  2  0  0  0  0  0  0  0  0  0
    9.5590  -15.1870   24.6605 N   0  0  0  0  0  0  0  0  0  0  0  0
   11.1676  -16.6362   25.6121 C   0  0  0  0  0  0  0  0  0  0  0  0
   10.7698  -17.6719   24.7634 O   0  0  0  0  0  0  0  0  0  0  0  0
   10.3114  -17.2121   28.7185 C   0  0  0  0  0  0  0  0  0  0  0  0
   10.9767  -17.4719   29.8820 C   0  0  0  0  0  0  0  0  0  0  0  0
   12.3209  -16.7851   26.1407 O   0  0  0  0  0  0  0  0  0  0  0  0
  2  3  1  0
  2  1  1  1
  4  2  1  0
  5  4  2  0
  7  6  1  1
  7  8  1  0
  9  7  1  0
 10  9  1  1
 10 11  1  0
 11  4  1  0
 12 21  1  0
 12 10  1  0
 13 12  2  0
 15 14  1  0
 16 15  2  0
 17 16  1  0
 18 17  2  0
 18 24  1  0
 19 18  1  0
 20 19  1  1
 20 22  1  0
 20 21  1  0
 22 23  1  0
 24 25  2  0
 25 15  1  0
 26 22  2  0
M  END
$$$$
