ALY.pdb
     RDKit          3D

 26 26  0  0  1  0  0  0  0  0999 V2000
    6.3077  -15.2250   20.2211 C   0  0  0  0  0  0  0  0  0  0  0  0
    7.1365  -16.0591   21.1895 C   0  0  2  0  0  0  0  0  0  0  0  0
    6.2618  -16.8199   22.0549 N   0  0  0  0  0  0  0  0  0  0  0  0
    7.9161  -15.1215   22.0304 C   0  0  0  0  0  0  0  0  0  0  0  0
    8.8184  -14.4496   21.4308 O   0  0  0  0  0  0  0  0  0  0  0  0
    7.1534  -11.3047   24.7342 C   0  0  0  0  0  0  0  0  0  0  0  0
    6.5197  -12.6425   25.1698 C   0  0  2  0  0  0  0  0  0  0  0  0
    5.6507  -12.3527   26.3362 C   0  0  0  0  0  0  0  0  0  0  0  0
    7.5596  -13.6612   25.3601 C   0  0  0  0  0  0  0  0  0  0  0  0
    8.4266  -14.0300   24.2133 C   0  0  2  0  0  0  0  0  0  0  0  0
    7.6517  -15.0014   23.4117 N   0  0  0  0  0  0  0  0  0  0  0  0
    9.6658  -14.7561   24.5932 C   0  0  0  0  0  0  0  0  0  0  0  0
   10.6377  -14.1674   25.1909 O   0  0  0  0  0  0  0  0  0  0  0  0
   11.1332  -14.6921   31.0950 O   0  0  0  0  0  0  0  0  0  0  0  0
   10.8808  -15.3893   29.9170 C   0  0  0  0  0  0  0  0  0  0  0  0
   11.4886  -16.5881   29.7010 C   0  0  0  0  0  0  0  0  0  0  0  0
   11.2507  -17.2950   28.5381 C   0  0  0  0  0  0  0  0  0  0  0  0
   10.4081  -16.8083   27.5904 C   0  0  0  0  0  0  0  0  0  0  0  0
   10.1306  -17.5242   26.3302 C   0  0  0  0  0  0  0  0  0  0  0  0
   10.8403  -16.9114   25.1663 C   0  0  2  0  0  0  0  0  0  0  0  0
    9.9060  -16.1271   24.3517 N   0  0  0  0  0  0  0  0  0  0  0  0
   11.4529  -17.9142   24.2671 C   0  0  0  0  0  0  0  0  0  0  0  0
   11.0868  -18.0526   22.9262 O   0  0  0  0  0  0  0  0  0  0  0  0
    9.7846  -15.5808   27.8099 C   0  0  0  0  0  0  0  0  0  0  0  0
   10.0269  -14.8909   28.9629 C   0  0  0  0  0  0  0  0  0  0  0  0
   12.3594  -18.7216   24.6647 O   0  0  0  0  0  0  0  0  0  0  0  0
  2  3  1  0
  2  1  1  6
  4  2  1  0
  5  4  2  0
  7  6  1  1
  7  8  1  0
  9  7  1  0
 10  9  1  1
 10 11  1  0
 11  4  1  0
 12 21  1  0
 12 10  1  0
 13 12  2  0
 15 14  1  0
 16 15  2  0
 17 16  1  0
 18 17  2  0
 18 24  1  0
 19 18  1  0
 20 19  1  1
 20 22  1  0
 20 21  1  0
 22 23  1  0
 24 25  2  0
 25 15  1  0
 26 22  2  0
M  END
$$$$
