ALY.pdb
     RDKit          3D

 26 26  0  0  1  0  0  0  0  0999 V2000
   11.6269  -17.7528   16.0617 C   0  0  0  0  0  0  0  0  0  0  0  0
   10.9032  -16.4241   15.8850 C   0  0  2  0  0  0  0  0  0  0  0  0
   11.5846  -15.6224   14.8922 N   0  0  0  0  0  0  0  0  0  0  0  0
   10.9659  -15.7072   17.1796 C   0  0  0  0  0  0  0  0  0  0  0  0
   12.0729  -15.1358   17.4500 O   0  0  0  0  0  0  0  0  0  0  0  0
    8.2038  -12.3223   18.9451 C   0  0  0  0  0  0  0  0  0  0  0  0
    7.6308  -13.7549   18.9282 C   0  0  2  0  0  0  0  0  0  0  0  0
    6.2151  -13.6623   19.3602 C   0  0  0  0  0  0  0  0  0  0  0  0
    8.4960  -14.6592   19.6958 C   0  0  0  0  0  0  0  0  0  0  0  0
    9.9038  -14.8486   19.2657 C   0  0  2  0  0  0  0  0  0  0  0  0
    9.8487  -15.6765   18.0417 N   0  0  0  0  0  0  0  0  0  0  0  0
   10.7326  -15.6337   20.2164 C   0  0  0  0  0  0  0  0  0  0  0  0
   10.6591  -16.9140   20.2792 O   0  0  0  0  0  0  0  0  0  0  0  0
   16.4224  -15.3024   17.0635 O   0  0  0  0  0  0  0  0  0  0  0  0
   15.7940  -15.3156   18.3054 C   0  0  0  0  0  0  0  0  0  0  0  0
   15.8033  -16.4536   19.0523 C   0  0  0  0  0  0  0  0  0  0  0  0
   15.1852  -16.4864   20.2874 C   0  0  0  0  0  0  0  0  0  0  0  0
   14.5576  -15.3864   20.7785 C   0  0  0  0  0  0  0  0  0  0  0  0
   13.8774  -15.3777   22.0880 C   0  0  0  0  0  0  0  0  0  0  0  0
   12.4867  -15.9187   22.0039 C   0  0  2  0  0  0  0  0  0  0  0  0
   11.6638  -15.0817   21.1241 N   0  0  0  0  0  0  0  0  0  0  0  0
   11.8014  -15.9631   23.3145 C   0  0  0  0  0  0  0  0  0  0  0  0
   10.5820  -15.3248   23.5533 O   0  0  0  0  0  0  0  0  0  0  0  0
   14.5471  -14.2200   20.0150 C   0  0  0  0  0  0  0  0  0  0  0  0
   15.1613  -14.1989   18.7959 C   0  0  0  0  0  0  0  0  0  0  0  0
   12.2866  -16.5909   24.3156 O   0  0  0  0  0  0  0  0  0  0  0  0
  2  3  1  0
  2  1  1  1
  4  2  1  0
  5  4  2  0
  7  6  1  1
  7  8  1  0
  9  7  1  0
 10  9  1  1
 10 11  1  0
 11  4  1  0
 12 21  1  0
 12 10  1  0
 13 12  2  0
 15 14  1  0
 16 15  2  0
 17 16  1  0
 18 17  2  0
 18 24  1  0
 19 18  1  0
 20 19  1  1
 20 22  1  0
 20 21  1  0
 22 23  1  0
 24 25  2  0
 25 15  1  0
 26 22  2  0
M  END
$$$$
