ALY.pdb
     RDKit          3D

 26 26  0  0  1  0  0  0  0  0999 V2000
    8.6169  -19.4648   21.7704 C   0  0  0  0  0  0  0  0  0  0  0  0
    8.3973  -18.4961   20.6155 C   0  0  2  0  0  0  0  0  0  0  0  0
    9.0723  -18.9822   19.4320 N   0  0  0  0  0  0  0  0  0  0  0  0
    9.0091  -17.2022   20.9971 C   0  0  0  0  0  0  0  0  0  0  0  0
   10.2757  -17.1245   20.8760 O   0  0  0  0  0  0  0  0  0  0  0  0
    8.9649  -13.1946   19.2412 C   0  0  0  0  0  0  0  0  0  0  0  0
    7.6660  -13.6004   19.9688 C   0  0  2  0  0  0  0  0  0  0  0  0
    6.6323  -12.6020   19.6027 C   0  0  0  0  0  0  0  0  0  0  0  0
    7.9219  -13.7883   21.4022 C   0  0  0  0  0  0  0  0  0  0  0  0
    8.8551  -14.8586   21.8342 C   0  0  2  0  0  0  0  0  0  0  0  0
    8.2099  -16.1365   21.4640 N   0  0  0  0  0  0  0  0  0  0  0  0
    9.0477  -14.9441   23.3048 C   0  0  0  0  0  0  0  0  0  0  0  0
    8.5927  -14.0441   24.0994 O   0  0  0  0  0  0  0  0  0  0  0  0
    6.1782  -11.1602   27.2973 O   0  0  0  0  0  0  0  0  0  0  0  0
    6.7010  -12.4061   26.9633 C   0  0  0  0  0  0  0  0  0  0  0  0
    8.0370  -12.6323   27.0935 C   0  0  0  0  0  0  0  0  0  0  0  0
    8.5747  -13.8624   26.7670 C   0  0  0  0  0  0  0  0  0  0  0  0
    7.7824  -14.8669   26.3107 C   0  0  0  0  0  0  0  0  0  0  0  0
    8.3137  -16.1933   25.9423 C   0  0  0  0  0  0  0  0  0  0  0  0
    9.7168  -16.1165   25.4334 C   0  0  2  0  0  0  0  0  0  0  0  0
    9.7256  -15.9885   23.9722 N   0  0  0  0  0  0  0  0  0  0  0  0
   10.5193  -17.3155   25.7618 C   0  0  0  0  0  0  0  0  0  0  0  0
   10.3083  -18.5567   25.1569 O   0  0  0  0  0  0  0  0  0  0  0  0
    6.4138  -14.6371   26.1768 C   0  0  0  0  0  0  0  0  0  0  0  0
    5.8933  -13.4177   26.5025 C   0  0  0  0  0  0  0  0  0  0  0  0
   11.4600  -17.2896   26.6256 O   0  0  0  0  0  0  0  0  0  0  0  0
  2  3  1  0
  2  1  1  1
  4  2  1  0
  5  4  2  0
  7  6  1  6
  7  8  1  0
  9  7  1  0
 10  9  1  1
 10 11  1  0
 11  4  1  0
 12 21  1  0
 12 10  1  0
 13 12  2  0
 15 14  1  0
 16 15  2  0
 17 16  1  0
 18 17  2  0
 18 24  1  0
 19 18  1  0
 20 19  1  6
 20 22  1  0
 20 21  1  0
 22 23  1  0
 24 25  2  0
 25 15  1  0
 26 22  2  0
M  END
$$$$
