ALY.pdb
     RDKit          3D

 26 26  0  0  1  0  0  0  0  0999 V2000
    7.9524  -17.3590   21.3671 C   0  0  0  0  0  0  0  0  0  0  0  0
    7.8463  -15.8494   21.1931 C   0  0  2  0  0  0  0  0  0  0  0  0
    8.7119  -15.4173   20.1175 N   0  0  0  0  0  0  0  0  0  0  0  0
    8.3211  -15.2220   22.4480 C   0  0  0  0  0  0  0  0  0  0  0  0
    9.5696  -14.9725   22.5117 O   0  0  0  0  0  0  0  0  0  0  0  0
    8.2654  -12.2379   26.6909 C   0  0  0  0  0  0  0  0  0  0  0  0
    6.8788  -12.2955   26.0165 C   0  0  2  0  0  0  0  0  0  0  0  0
    5.8729  -11.9929   27.0635 C   0  0  0  0  0  0  0  0  0  0  0  0
    6.7158  -13.5627   25.2932 C   0  0  0  0  0  0  0  0  0  0  0  0
    7.9083  -14.2060   24.6873 C   0  0  2  0  0  0  0  0  0  0  0  0
    7.4195  -14.9297   23.4940 N   0  0  0  0  0  0  0  0  0  0  0  0
    8.5341  -15.2534   25.5349 C   0  0  0  0  0  0  0  0  0  0  0  0
    7.9004  -16.3183   25.8713 O   0  0  0  0  0  0  0  0  0  0  0  0
   11.8617  -18.2890   20.9197 O   0  0  0  0  0  0  0  0  0  0  0  0
   11.8503  -17.8726   22.2479 C   0  0  0  0  0  0  0  0  0  0  0  0
   12.3275  -16.6393   22.5708 C   0  0  0  0  0  0  0  0  0  0  0  0
   12.3245  -16.2082   23.8833 C   0  0  0  0  0  0  0  0  0  0  0  0
   11.8469  -17.0051   24.8742 C   0  0  0  0  0  0  0  0  0  0  0  0
   11.8317  -16.5900   26.2902 C   0  0  0  0  0  0  0  0  0  0  0  0
   10.4468  -16.3197   26.7830 C   0  0  2  0  0  0  0  0  0  0  0  0
    9.8500  -15.2007   26.0460 N   0  0  0  0  0  0  0  0  0  0  0  0
   10.4017  -15.9587   28.2173 C   0  0  0  0  0  0  0  0  0  0  0  0
   10.6855  -16.8705   29.2368 O   0  0  0  0  0  0  0  0  0  0  0  0
   11.3577  -18.2685   24.5454 C   0  0  0  0  0  0  0  0  0  0  0  0
   11.3653  -18.6841   23.2450 C   0  0  0  0  0  0  0  0  0  0  0  0
   10.0971  -14.7834   28.6143 O   0  0  0  0  0  0  0  0  0  0  0  0
  2  3  1  0
  2  1  1  1
  4  2  1  0
  5  4  2  0
  7  6  1  1
  7  8  1  0
  9  7  1  0
 10  9  1  1
 10 11  1  0
 11  4  1  0
 12 21  1  0
 12 10  1  0
 13 12  2  0
 15 14  1  0
 16 15  2  0
 17 16  1  0
 18 17  2  0
 18 24  1  0
 19 18  1  0
 20 19  1  6
 20 22  1  0
 20 21  1  0
 22 23  1  0
 24 25  2  0
 25 15  1  0
 26 22  2  0
M  END
$$$$
