GLD.pdb
     RDKit          3D

 21 20  0  0  1  0  0  0  0  0999 V2000
    9.5987  -18.5951   16.8358 N   0  0  0  0  0  0  0  0  0  0  0  0
    8.7026  -18.0416   17.8170 C   0  0  0  0  0  0  0  0  0  0  0  0
    9.3863  -17.0865   18.7258 C   0  0  0  0  0  0  0  0  0  0  0  0
   10.6276  -16.9108   18.6601 O   0  0  0  0  0  0  0  0  0  0  0  0
    8.8873  -12.5238   19.3048 C   0  0  0  0  0  0  0  0  0  0  0  0
    7.8751  -13.3929   19.9353 C   0  0  2  0  0  0  0  0  0  0  0  0
    6.7149  -12.5409   20.4647 C   0  0  0  0  0  0  0  0  0  0  0  0
    8.2929  -14.3698   20.9664 C   0  0  0  0  0  0  0  0  0  0  0  0
    9.2263  -15.4439   20.6608 C   0  0  2  0  0  0  0  0  0  0  0  0
    8.6125  -16.3775   19.6678 N   0  0  0  0  0  0  0  0  0  0  0  0
    9.8173  -16.2940   21.6658 C   0  0  0  0  0  0  0  0  0  0  0  0
    9.1978  -17.3307   22.0476 O   0  0  0  0  0  0  0  0  0  0  0  0
   11.1056  -16.0157   22.2705 N   0  0  0  0  0  0  0  0  0  0  0  0
   11.6167  -16.9569   23.2087 C   0  0  1  0  0  0  0  0  0  0  0  0
   13.1266  -16.9233   23.3219 C   0  0  0  0  0  0  0  0  0  0  0  0
   13.8118  -16.9671   22.0286 C   0  0  0  0  0  0  0  0  0  0  0  0
   13.6022  -17.9031   21.2365 O   0  0  0  0  0  0  0  0  0  0  0  0
   11.0751  -16.6387   24.5499 C   0  0  0  0  0  0  0  0  0  0  0  0
   11.3969  -17.4298   25.6301 O   0  0  0  0  0  0  0  0  0  0  0  0
   14.6926  -15.9697   21.6839 O   0  0  0  0  0  0  0  0  0  0  0  0
   10.3293  -15.6545   24.6945 O   0  0  0  0  0  0  0  0  0  0  0  0
  1  2  1  0
  3  2  1  0
  3  4  2  0
  6  5  1  1
  6  8  1  0
  7  6  1  0
  9  8  1  1
  9 10  1  0
  9 11  1  0
 10  3  1  0
 11 12  2  0
 13 11  1  0
 13 14  1  0
 14 15  1  1
 15 16  1  0
 16 17  2  0
 18 19  1  0
 18 14  1  0
 20 16  1  0
 21 18  2  0
M  END
$$$$
