GLD.pdb
     RDKit          3D

 21 20  0  0  1  0  0  0  0  0999 V2000
    8.3537  -18.7146   16.7625 N   0  0  0  0  0  0  0  0  0  0  0  0
    7.7932  -18.2430   18.0018 C   0  0  0  0  0  0  0  0  0  0  0  0
    8.7179  -17.3338   18.7257 C   0  0  0  0  0  0  0  0  0  0  0  0
    9.9387  -17.2928   18.4365 O   0  0  0  0  0  0  0  0  0  0  0  0
    8.6610  -12.6960   19.1621 C   0  0  0  0  0  0  0  0  0  0  0  0
    7.7353  -13.4636   20.0173 C   0  0  2  0  0  0  0  0  0  0  0  0
    6.7722  -12.5070   20.7311 C   0  0  0  0  0  0  0  0  0  0  0  0
    8.2791  -14.4439   20.9844 C   0  0  0  0  0  0  0  0  0  0  0  0
    9.0610  -15.5903   20.5451 C   0  0  2  0  0  0  0  0  0  0  0  0
    8.1972  -16.5139   19.7481 N   0  0  0  0  0  0  0  0  0  0  0  0
    9.7977  -16.4430   21.4463 C   0  0  0  0  0  0  0  0  0  0  0  0
    9.1870  -17.3519   22.0829 O   0  0  0  0  0  0  0  0  0  0  0  0
   11.2252  -16.3086   21.6634 N   0  0  0  0  0  0  0  0  0  0  0  0
   11.8416  -17.1905   22.5959 C   0  0  1  0  0  0  0  0  0  0  0  0
   13.1708  -17.7321   22.1125 C   0  0  0  0  0  0  0  0  0  0  0  0
   13.0571  -18.6019   20.9401 C   0  0  0  0  0  0  0  0  0  0  0  0
   12.2320  -19.5327   20.9245 O   0  0  0  0  0  0  0  0  0  0  0  0
   12.1065  -16.4510   23.8515 C   0  0  0  0  0  0  0  0  0  0  0  0
   11.8901  -15.0925   23.9116 O   0  0  0  0  0  0  0  0  0  0  0  0
   13.8652  -18.3920   19.8482 O   0  0  0  0  0  0  0  0  0  0  0  0
   12.5248  -17.0634   24.8494 O   0  0  0  0  0  0  0  0  0  0  0  0
  1  2  1  0
  3  2  1  0
  3  4  2  0
  6  5  1  1
  6  8  1  0
  7  6  1  0
  9  8  1  1
  9 10  1  0
  9 11  1  0
 10  3  1  0
 11 12  2  0
 13 11  1  0
 13 14  1  0
 14 15  1  6
 15 16  1  0
 16 17  2  0
 18 19  1  0
 18 14  1  0
 20 16  1  0
 21 18  2  0
M  END
$$$$
