GLD.pdb
     RDKit          3D

 21 20  0  0  1  0  0  0  0  0999 V2000
    5.9863  -18.0789   22.4038 N   0  0  0  0  0  0  0  0  0  0  0  0
    5.9157  -17.5108   23.7246 C   0  0  0  0  0  0  0  0  0  0  0  0
    6.9476  -16.4651   23.9415 C   0  0  0  0  0  0  0  0  0  0  0  0
    7.8431  -16.2565   23.0868 O   0  0  0  0  0  0  0  0  0  0  0  0
    7.1213  -11.7920   24.5825 C   0  0  0  0  0  0  0  0  0  0  0  0
    6.5812  -12.6315   25.6691 C   0  0  2  0  0  0  0  0  0  0  0  0
    5.9653  -11.7423   26.7564 C   0  0  0  0  0  0  0  0  0  0  0  0
    7.4425  -13.6627   26.2910 C   0  0  0  0  0  0  0  0  0  0  0  0
    7.9952  -14.7610   25.5120 C   0  0  2  0  0  0  0  0  0  0  0  0
    6.9032  -15.7077   25.1302 N   0  0  0  0  0  0  0  0  0  0  0  0
    9.0780  -15.5964   25.9720 C   0  0  0  0  0  0  0  0  0  0  0  0
   10.2075  -15.0760   26.2123 O   0  0  0  0  0  0  0  0  0  0  0  0
    8.9353  -17.0251   26.1755 N   0  0  0  0  0  0  0  0  0  0  0  0
   10.0795  -17.7519   26.6114 C   0  0  1  0  0  0  0  0  0  0  0  0
    9.7281  -19.0308   27.3425 C   0  0  0  0  0  0  0  0  0  0  0  0
   10.8321  -19.5733   28.1369 C   0  0  0  0  0  0  0  0  0  0  0  0
   11.9545  -19.0382   28.1028 O   0  0  0  0  0  0  0  0  0  0  0  0
   10.8820  -18.1367   25.4276 C   0  0  0  0  0  0  0  0  0  0  0  0
   12.1841  -17.7055   25.3062 O   0  0  0  0  0  0  0  0  0  0  0  0
   10.6309  -20.6804   28.9264 O   0  0  0  0  0  0  0  0  0  0  0  0
   10.3737  -18.8503   24.5454 O   0  0  0  0  0  0  0  0  0  0  0  0
  1  2  1  0
  3  2  1  0
  3  4  2  0
  6  5  1  6
  6  8  1  0
  7  6  1  0
  9  8  1  1
  9 10  1  0
  9 11  1  0
 10  3  1  0
 11 12  2  0
 13 11  1  0
 13 14  1  0
 14 15  1  6
 15 16  1  0
 16 17  2  0
 18 19  1  0
 18 14  1  0
 20 16  1  0
 21 18  2  0
M  END
$$$$
