GLD.pdb
     RDKit          3D

 21 20  0  0  1  0  0  0  0  0999 V2000
    5.9454  -15.9720   20.5619 N   0  0  0  0  0  0  0  0  0  0  0  0
    5.6681  -15.9692   21.9745 C   0  0  0  0  0  0  0  0  0  0  0  0
    6.8254  -15.4902   22.7724 C   0  0  0  0  0  0  0  0  0  0  0  0
    7.9237  -15.2305   22.2227 O   0  0  0  0  0  0  0  0  0  0  0  0
    7.4745  -11.6048   25.3137 C   0  0  0  0  0  0  0  0  0  0  0  0
    6.6152  -12.6529   25.8971 C   0  0  2  0  0  0  0  0  0  0  0  0
    5.9679  -12.1362   27.1879 C   0  0  0  0  0  0  0  0  0  0  0  0
    7.1672  -14.0087   26.1192 C   0  0  0  0  0  0  0  0  0  0  0  0
    7.7525  -14.7778   25.0310 C   0  0  2  0  0  0  0  0  0  0  0  0
    6.6674  -15.3316   24.1648 N   0  0  0  0  0  0  0  0  0  0  0  0
    8.6711  -15.8718   25.2345 C   0  0  0  0  0  0  0  0  0  0  0  0
    8.2261  -16.9978   25.6068 O   0  0  0  0  0  0  0  0  0  0  0  0
   10.1012  -15.7442   25.0313 N   0  0  0  0  0  0  0  0  0  0  0  0
   10.8897  -16.9281   25.0934 C   0  0  1  0  0  0  0  0  0  0  0  0
   12.2489  -16.7717   24.4441 C   0  0  0  0  0  0  0  0  0  0  0  0
   13.0813  -17.9732   24.5316 C   0  0  0  0  0  0  0  0  0  0  0  0
   12.6452  -19.0029   25.0766 O   0  0  0  0  0  0  0  0  0  0  0  0
   11.1260  -17.2722   26.5144 C   0  0  0  0  0  0  0  0  0  0  0  0
   11.2726  -18.5886   26.8910 O   0  0  0  0  0  0  0  0  0  0  0  0
   14.3529  -17.9673   24.0097 O   0  0  0  0  0  0  0  0  0  0  0  0
   11.1912  -16.3668   27.3640 O   0  0  0  0  0  0  0  0  0  0  0  0
  1  2  1  0
  3  2  1  0
  3  4  2  0
  6  5  1  1
  6  8  1  0
  7  6  1  0
  9  8  1  1
  9 10  1  0
  9 11  1  0
 10  3  1  0
 11 12  2  0
 13 11  1  0
 13 14  1  0
 14 15  1  6
 15 16  1  0
 16 17  2  0
 18 19  1  0
 18 14  1  0
 20 16  1  0
 21 18  2  0
M  END
$$$$
