GLD.pdb
     RDKit          3D

 21 20  0  0  1  0  0  0  0  0999 V2000
    5.3585  -19.0930   24.4927 N   0  0  0  0  0  0  0  0  0  0  0  0
    5.7158  -17.9494   25.2907 C   0  0  0  0  0  0  0  0  0  0  0  0
    6.5003  -16.9509   24.5206 C   0  0  0  0  0  0  0  0  0  0  0  0
    6.8035  -17.1568   23.3200 O   0  0  0  0  0  0  0  0  0  0  0  0
    5.4012  -13.0634   26.3541 C   0  0  0  0  0  0  0  0  0  0  0  0
    6.8502  -13.3324   26.4276 C   0  0  2  0  0  0  0  0  0  0  0  0
    7.5218  -12.3145   27.3576 C   0  0  0  0  0  0  0  0  0  0  0  0
    7.6321  -13.4635   25.1772 C   0  0  0  0  0  0  0  0  0  0  0  0
    7.7583  -14.7408   24.4910 C   0  0  2  0  0  0  0  0  0  0  0  0
    6.9002  -15.7622   25.1654 N   0  0  0  0  0  0  0  0  0  0  0  0
    9.0217  -15.3988   24.2612 C   0  0  0  0  0  0  0  0  0  0  0  0
    9.4952  -15.4458   23.0874 O   0  0  0  0  0  0  0  0  0  0  0  0
    9.7883  -16.0195   25.3243 N   0  0  0  0  0  0  0  0  0  0  0  0
   10.9270  -16.7921   24.9587 C   0  0  1  0  0  0  0  0  0  0  0  0
   12.1535  -15.9482   24.6808 C   0  0  0  0  0  0  0  0  0  0  0  0
   12.7918  -16.2479   23.3974 C   0  0  0  0  0  0  0  0  0  0  0  0
   12.8353  -15.3877   22.4999 O   0  0  0  0  0  0  0  0  0  0  0  0
   11.2703  -17.6987   26.0784 C   0  0  0  0  0  0  0  0  0  0  0  0
   12.3048  -18.5979   25.9467 O   0  0  0  0  0  0  0  0  0  0  0  0
   13.3474  -17.4861   23.1793 O   0  0  0  0  0  0  0  0  0  0  0  0
   10.6197  -17.6431   27.1365 O   0  0  0  0  0  0  0  0  0  0  0  0
  1  2  1  0
  3  2  1  0
  3  4  2  0
  6  5  1  6
  6  8  1  0
  7  6  1  0
  9  8  1  1
  9 10  1  0
  9 11  1  0
 10  3  1  0
 11 12  2  0
 13 11  1  0
 13 14  1  0
 14 15  1  1
 15 16  1  0
 16 17  2  0
 18 19  1  0
 18 14  1  0
 20 16  1  0
 21 18  2  0
M  END
$$$$
