GLD.pdb
     RDKit          3D

 21 20  0  0  1  0  0  0  0  0999 V2000
    6.9698  -17.5993   20.9138 N   0  0  0  0  0  0  0  0  0  0  0  0
    6.5034  -17.2819   22.2382 C   0  0  0  0  0  0  0  0  0  0  0  0
    7.2458  -16.1434   22.8367 C   0  0  0  0  0  0  0  0  0  0  0  0
    8.3084  -15.7229   22.3172 O   0  0  0  0  0  0  0  0  0  0  0  0
    6.1505  -11.9743   27.3868 C   0  0  0  0  0  0  0  0  0  0  0  0
    7.0113  -12.5138   26.3166 C   0  0  2  0  0  0  0  0  0  0  0  0
    7.4357  -11.3834   25.3710 C   0  0  0  0  0  0  0  0  0  0  0  0
    6.5526  -13.6815   25.5305 C   0  0  0  0  0  0  0  0  0  0  0  0
    7.4823  -14.4827   24.7483 C   0  0  2  0  0  0  0  0  0  0  0  0
    6.7333  -15.5408   24.0041 N   0  0  0  0  0  0  0  0  0  0  0  0
    8.6254  -15.1555   25.3162 C   0  0  0  0  0  0  0  0  0  0  0  0
    9.6795  -14.4962   25.5582 O   0  0  0  0  0  0  0  0  0  0  0  0
    8.6278  -16.5717   25.6282 N   0  0  0  0  0  0  0  0  0  0  0  0
    9.7728  -17.1057   26.2848 C   0  0  1  0  0  0  0  0  0  0  0  0
    9.4246  -18.1067   27.3667 C   0  0  0  0  0  0  0  0  0  0  0  0
   10.5826  -18.5595   28.1401 C   0  0  0  0  0  0  0  0  0  0  0  0
   11.6804  -17.9861   28.0240 O   0  0  0  0  0  0  0  0  0  0  0  0
   10.6074  -17.8172   25.2895 C   0  0  0  0  0  0  0  0  0  0  0  0
   11.8560  -17.3357   24.9647 O   0  0  0  0  0  0  0  0  0  0  0  0
   10.4600  -19.6244   29.0005 O   0  0  0  0  0  0  0  0  0  0  0  0
   10.1746  -18.8502   24.7497 O   0  0  0  0  0  0  0  0  0  0  0  0
  1  2  1  0
  3  2  1  0
  3  4  2  0
  6  5  1  1
  6  8  1  0
  7  6  1  0
  9  8  1  1
  9 10  1  0
  9 11  1  0
 10  3  1  0
 11 12  2  0
 13 11  1  0
 13 14  1  0
 14 15  1  1
 15 16  1  0
 16 17  2  0
 18 19  1  0
 18 14  1  0
 20 16  1  0
 21 18  2  0
M  END
$$$$
