GLD.pdb
     RDKit          3D

 21 20  0  0  1  0  0  0  0  0999 V2000
    7.0097  -14.4599   19.6791 N   0  0  0  0  0  0  0  0  0  0  0  0
    6.3808  -14.7088   20.9499 C   0  0  0  0  0  0  0  0  0  0  0  0
    7.3197  -14.5259   22.0859 C   0  0  0  0  0  0  0  0  0  0  0  0
    8.5460  -14.3467   21.8859 O   0  0  0  0  0  0  0  0  0  0  0  0
    7.6473  -11.2990   25.6837 C   0  0  0  0  0  0  0  0  0  0  0  0
    6.5477  -12.2828   25.7002 C   0  0  2  0  0  0  0  0  0  0  0  0
    5.6005  -11.9848   26.8690 C   0  0  0  0  0  0  0  0  0  0  0  0
    6.8624  -13.7291   25.6641 C   0  0  0  0  0  0  0  0  0  0  0  0
    7.6658  -14.3049   24.5958 C   0  0  2  0  0  0  0  0  0  0  0  0
    6.8064  -14.5575   23.3991 N   0  0  0  0  0  0  0  0  0  0  0  0
    8.4586  -15.5002   24.7527 C   0  0  0  0  0  0  0  0  0  0  0  0
    7.8909  -16.6322   24.7262 O   0  0  0  0  0  0  0  0  0  0  0  0
    9.8959  -15.4695   24.9429 N   0  0  0  0  0  0  0  0  0  0  0  0
   10.5936  -16.7107   24.9389 C   0  0  1  0  0  0  0  0  0  0  0  0
   11.9472  -16.6295   24.2645 C   0  0  0  0  0  0  0  0  0  0  0  0
   12.7014  -17.8836   24.3125 C   0  0  0  0  0  0  0  0  0  0  0  0
   12.1555  -18.9587   24.0065 O   0  0  0  0  0  0  0  0  0  0  0  0
   10.8321  -17.1306   26.3390 C   0  0  0  0  0  0  0  0  0  0  0  0
   11.2306  -18.4195   26.6150 O   0  0  0  0  0  0  0  0  0  0  0  0
   14.0210  -17.8772   24.6976 O   0  0  0  0  0  0  0  0  0  0  0  0
   10.6708  -16.3136   27.2622 O   0  0  0  0  0  0  0  0  0  0  0  0
  1  2  1  0
  3  2  1  0
  3  4  2  0
  6  5  1  1
  6  8  1  0
  7  6  1  0
  9  8  1  1
  9 10  1  0
  9 11  1  0
 10  3  1  0
 11 12  2  0
 13 11  1  0
 13 14  1  0
 14 15  1  6
 15 16  1  0
 16 17  2  0
 18 19  1  0
 18 14  1  0
 20 16  1  0
 21 18  2  0
M  END
$$$$
