GLD.pdb
     RDKit          3D

 21 20  0  0  1  0  0  0  0  0999 V2000
    7.0710  -15.1759   19.9722 N   0  0  0  0  0  0  0  0  0  0  0  0
    6.4585  -15.2730   21.2714 C   0  0  0  0  0  0  0  0  0  0  0  0
    7.4041  -14.9316   22.3644 C   0  0  0  0  0  0  0  0  0  0  0  0
    8.6173  -14.7176   22.1233 O   0  0  0  0  0  0  0  0  0  0  0  0
    7.6330  -11.4305   25.3748 C   0  0  0  0  0  0  0  0  0  0  0  0
    6.6261  -12.4557   25.7101 C   0  0  2  0  0  0  0  0  0  0  0  0
    5.8109  -12.0053   26.9286 C   0  0  0  0  0  0  0  0  0  0  0  0
    7.0484  -13.8645   25.8805 C   0  0  0  0  0  0  0  0  0  0  0  0
    7.8024  -14.5612   24.8487 C   0  0  2  0  0  0  0  0  0  0  0  0
    6.9122  -14.8520   23.6837 N   0  0  0  0  0  0  0  0  0  0  0  0
    8.5303  -15.7845   25.0847 C   0  0  0  0  0  0  0  0  0  0  0  0
    7.9137  -16.8906   25.0616 O   0  0  0  0  0  0  0  0  0  0  0  0
    9.9553  -15.8109   25.3521 N   0  0  0  0  0  0  0  0  0  0  0  0
   10.5981  -17.0802   25.4060 C   0  0  1  0  0  0  0  0  0  0  0  0
   11.9573  -17.0871   24.7381 C   0  0  0  0  0  0  0  0  0  0  0  0
   12.6846  -18.3471   24.9035 C   0  0  0  0  0  0  0  0  0  0  0  0
   12.3624  -19.3513   24.2436 O   0  0  0  0  0  0  0  0  0  0  0  0
   10.8112  -17.4494   26.8244 C   0  0  0  0  0  0  0  0  0  0  0  0
   11.2584  -18.7103   27.1502 O   0  0  0  0  0  0  0  0  0  0  0  0
   13.7303  -18.4250   25.7922 O   0  0  0  0  0  0  0  0  0  0  0  0
   10.5841  -16.6151   27.7179 O   0  0  0  0  0  0  0  0  0  0  0  0
  1  2  1  0
  3  2  1  0
  3  4  2  0
  6  5  1  1
  6  8  1  0
  7  6  1  0
  9  8  1  1
  9 10  1  0
  9 11  1  0
 10  3  1  0
 11 12  2  0
 13 11  1  0
 13 14  1  0
 14 15  1  6
 15 16  1  0
 16 17  2  0
 18 19  1  0
 18 14  1  0
 20 16  1  0
 21 18  2  0
M  END
$$$$
