GLD.pdb
     RDKit          3D

 21 20  0  0  1  0  0  0  0  0999 V2000
    9.1444  -16.1400   19.9417 N   0  0  0  0  0  0  0  0  0  0  0  0
    8.0396  -15.8294   20.8107 C   0  0  0  0  0  0  0  0  0  0  0  0
    8.4903  -15.3727   22.1500 C   0  0  0  0  0  0  0  0  0  0  0  0
    9.6884  -15.4969   22.5035 O   0  0  0  0  0  0  0  0  0  0  0  0
    5.7704  -12.1923   26.7977 C   0  0  0  0  0  0  0  0  0  0  0  0
    6.9981  -12.7516   26.2000 C   0  0  2  0  0  0  0  0  0  0  0  0
    8.1396  -11.7330   26.3074 C   0  0  0  0  0  0  0  0  0  0  0  0
    6.9524  -13.3131   24.8309 C   0  0  0  0  0  0  0  0  0  0  0  0
    7.9094  -14.3170   24.3896 C   0  0  2  0  0  0  0  0  0  0  0  0
    7.5439  -14.7946   23.0212 N   0  0  0  0  0  0  0  0  0  0  0  0
    8.2118  -15.5117   25.1402 C   0  0  0  0  0  0  0  0  0  0  0  0
    7.4650  -16.5278   25.0213 O   0  0  0  0  0  0  0  0  0  0  0  0
    9.3459  -15.6082   26.0388 N   0  0  0  0  0  0  0  0  0  0  0  0
    9.8785  -16.9025   26.3003 C   0  0  1  0  0  0  0  0  0  0  0  0
   11.0184  -17.2741   25.3750 C   0  0  0  0  0  0  0  0  0  0  0  0
   11.5887  -18.5946   25.6496 C   0  0  0  0  0  0  0  0  0  0  0  0
   11.1129  -19.3113   26.5481 O   0  0  0  0  0  0  0  0  0  0  0  0
   10.4149  -16.9299   27.6805 C   0  0  0  0  0  0  0  0  0  0  0  0
   10.2163  -15.8566   28.5199 O   0  0  0  0  0  0  0  0  0  0  0  0
   12.6562  -19.0485   24.9122 O   0  0  0  0  0  0  0  0  0  0  0  0
   11.0447  -17.9262   28.0759 O   0  0  0  0  0  0  0  0  0  0  0  0
  1  2  1  0
  3  2  1  0
  3  4  2  0
  6  5  1  6
  6  8  1  0
  7  6  1  0
  9  8  1  1
  9 10  1  0
  9 11  1  0
 10  3  1  0
 11 12  2  0
 13 11  1  0
 13 14  1  0
 14 15  1  6
 15 16  1  0
 16 17  2  0
 18 19  1  0
 18 14  1  0
 20 16  1  0
 21 18  2  0
M  END
$$$$
