GLD.pdb
     RDKit          3D

 21 20  0  0  1  0  0  0  0  0999 V2000
    7.2125  -16.2496   19.8274 N   0  0  0  0  0  0  0  0  0  0  0  0
    6.9335  -16.7627   21.1432 C   0  0  0  0  0  0  0  0  0  0  0  0
    7.6407  -16.0010   22.2040 C   0  0  0  0  0  0  0  0  0  0  0  0
    8.8708  -15.7663   22.1174 O   0  0  0  0  0  0  0  0  0  0  0  0
    5.8200  -12.5919   27.1316 C   0  0  0  0  0  0  0  0  0  0  0  0
    6.8951  -13.1330   26.2779 C   0  0  2  0  0  0  0  0  0  0  0  0
    7.8368  -12.0015   25.8476 C   0  0  0  0  0  0  0  0  0  0  0  0
    6.5456  -13.9690   25.1070 C   0  0  0  0  0  0  0  0  0  0  0  0
    7.5398  -14.7990   24.4430 C   0  0  2  0  0  0  0  0  0  0  0  0
    6.9020  -15.5444   23.3151 N   0  0  0  0  0  0  0  0  0  0  0  0
    8.3502  -15.7741   25.1318 C   0  0  0  0  0  0  0  0  0  0  0  0
    7.8256  -16.8615   25.5147 O   0  0  0  0  0  0  0  0  0  0  0  0
    9.7578  -15.5674   25.4127 N   0  0  0  0  0  0  0  0  0  0  0  0
   10.4991  -16.6644   25.9367 C   0  0  1  0  0  0  0  0  0  0  0  0
   11.9771  -16.5910   25.6144 C   0  0  0  0  0  0  0  0  0  0  0  0
   12.3007  -17.0155   24.2509 C   0  0  0  0  0  0  0  0  0  0  0  0
   11.4887  -17.6890   23.5918 O   0  0  0  0  0  0  0  0  0  0  0  0
   10.3775  -16.6632   27.4127 C   0  0  0  0  0  0  0  0  0  0  0  0
    9.9129  -15.5439   28.0665 O   0  0  0  0  0  0  0  0  0  0  0  0
   13.5081  -16.6697   23.6922 O   0  0  0  0  0  0  0  0  0  0  0  0
   10.6970  -17.6774   28.0570 O   0  0  0  0  0  0  0  0  0  0  0  0
  1  2  1  0
  3  2  1  0
  3  4  2  0
  6  5  1  6
  6  8  1  0
  7  6  1  0
  9  8  1  1
  9 10  1  0
  9 11  1  0
 10  3  1  0
 11 12  2  0
 13 11  1  0
 13 14  1  0
 14 15  1  1
 15 16  1  0
 16 17  2  0
 18 19  1  0
 18 14  1  0
 20 16  1  0
 21 18  2  0
M  END
$$$$
