GLD.pdb
     RDKit          3D

 21 20  0  0  1  0  0  0  0  0999 V2000
    8.6769  -15.9143   19.6650 N   0  0  0  0  0  0  0  0  0  0  0  0
    7.7281  -15.8564   20.7461 C   0  0  0  0  0  0  0  0  0  0  0  0
    8.3034  -15.2323   21.9646 C   0  0  0  0  0  0  0  0  0  0  0  0
    9.5251  -14.9508   22.0289 O   0  0  0  0  0  0  0  0  0  0  0  0
    5.8880  -12.8026   27.1632 C   0  0  0  0  0  0  0  0  0  0  0  0
    7.0956  -13.1648   26.3966 C   0  0  2  0  0  0  0  0  0  0  0  0
    8.1292  -12.0357   26.4899 C   0  0  0  0  0  0  0  0  0  0  0  0
    6.9611  -13.6084   24.9904 C   0  0  0  0  0  0  0  0  0  0  0  0
    7.9634  -14.4567   24.3627 C   0  0  2  0  0  0  0  0  0  0  0  0
    7.4487  -14.9604   23.0529 N   0  0  0  0  0  0  0  0  0  0  0  0
    8.5489  -15.6069   25.0079 C   0  0  0  0  0  0  0  0  0  0  0  0
    7.8566  -16.6569   25.1574 O   0  0  0  0  0  0  0  0  0  0  0  0
    9.9122  -15.6204   25.5023 N   0  0  0  0  0  0  0  0  0  0  0  0
   10.4339  -16.8563   25.9795 C   0  0  1  0  0  0  0  0  0  0  0  0
   11.8924  -17.0614   25.6270 C   0  0  0  0  0  0  0  0  0  0  0  0
   12.1614  -17.0001   24.1890 C   0  0  0  0  0  0  0  0  0  0  0  0
   11.5113  -17.7048   23.3963 O   0  0  0  0  0  0  0  0  0  0  0  0
   10.3388  -16.8775   27.4574 C   0  0  0  0  0  0  0  0  0  0  0  0
   10.6728  -18.0171   28.1545 O   0  0  0  0  0  0  0  0  0  0  0  0
   13.1374  -16.1602   23.7080 O   0  0  0  0  0  0  0  0  0  0  0  0
    9.9560  -15.8619   28.0638 O   0  0  0  0  0  0  0  0  0  0  0  0
  1  2  1  0
  3  2  1  0
  3  4  2  0
  6  5  1  6
  6  8  1  0
  7  6  1  0
  9  8  1  1
  9 10  1  0
  9 11  1  0
 10  3  1  0
 11 12  2  0
 13 11  1  0
 13 14  1  0
 14 15  1  1
 15 16  1  0
 16 17  2  0
 18 19  1  0
 18 14  1  0
 20 16  1  0
 21 18  2  0
M  END
$$$$
