GLD.pdb
     RDKit          3D

 21 20  0  0  1  0  0  0  0  0999 V2000
    6.7978  -16.0393   20.4853 N   0  0  0  0  0  0  0  0  0  0  0  0
    6.2629  -15.8870   21.8132 C   0  0  0  0  0  0  0  0  0  0  0  0
    7.2973  -15.4584   22.7889 C   0  0  0  0  0  0  0  0  0  0  0  0
    8.4972  -15.3326   22.4423 O   0  0  0  0  0  0  0  0  0  0  0  0
    7.6410  -11.5708   25.1844 C   0  0  0  0  0  0  0  0  0  0  0  0
    6.7134  -12.5735   25.7425 C   0  0  2  0  0  0  0  0  0  0  0  0
    5.9227  -11.9605   26.9049 C   0  0  0  0  0  0  0  0  0  0  0  0
    7.2277  -13.9062   26.1317 C   0  0  0  0  0  0  0  0  0  0  0  0
    7.8836  -14.7779   25.1682 C   0  0  2  0  0  0  0  0  0  0  0  0
    6.9052  -15.1941   24.1175 N   0  0  0  0  0  0  0  0  0  0  0  0
    8.5827  -15.9856   25.5353 C   0  0  0  0  0  0  0  0  0  0  0  0
    7.9264  -17.0523   25.7244 O   0  0  0  0  0  0  0  0  0  0  0  0
   10.0222  -16.0395   25.7018 N   0  0  0  0  0  0  0  0  0  0  0  0
   10.6326  -17.3223   25.7980 C   0  0  1  0  0  0  0  0  0  0  0  0
   11.9749  -17.3956   25.1004 C   0  0  0  0  0  0  0  0  0  0  0  0
   12.6527  -18.6826   25.2688 C   0  0  0  0  0  0  0  0  0  0  0  0
   13.5109  -18.8307   26.1569 O   0  0  0  0  0  0  0  0  0  0  0  0
   10.8697  -17.6340   27.2263 C   0  0  0  0  0  0  0  0  0  0  0  0
   10.6061  -16.6888   28.1924 O   0  0  0  0  0  0  0  0  0  0  0  0
   12.3414  -19.7360   24.4424 O   0  0  0  0  0  0  0  0  0  0  0  0
   11.3074  -18.7525   27.5474 O   0  0  0  0  0  0  0  0  0  0  0  0
  1  2  1  0
  3  2  1  0
  3  4  2  0
  6  5  1  1
  6  8  1  0
  7  6  1  0
  9  8  1  1
  9 10  1  0
  9 11  1  0
 10  3  1  0
 11 12  2  0
 13 11  1  0
 13 14  1  0
 14 15  1  6
 15 16  1  0
 16 17  2  0
 18 19  1  0
 18 14  1  0
 20 16  1  0
 21 18  2  0
M  END
$$$$
