GLD.pdb
     RDKit          3D

 21 20  0  0  1  0  0  0  0  0999 V2000
    7.4316  -14.4867   20.0745 N   0  0  0  0  0  0  0  0  0  0  0  0
    6.7178  -14.7023   21.3059 C   0  0  0  0  0  0  0  0  0  0  0  0
    7.6101  -14.6331   22.4911 C   0  0  0  0  0  0  0  0  0  0  0  0
    8.8575  -14.5906   22.3568 O   0  0  0  0  0  0  0  0  0  0  0  0
    7.8491  -11.3076   25.8120 C   0  0  0  0  0  0  0  0  0  0  0  0
    6.7379  -12.2738   25.9074 C   0  0  2  0  0  0  0  0  0  0  0  0
    5.7789  -11.8546   27.0285 C   0  0  0  0  0  0  0  0  0  0  0  0
    7.0360  -13.7200   26.0153 C   0  0  0  0  0  0  0  0  0  0  0  0
    7.8386  -14.4065   25.0138 C   0  0  2  0  0  0  0  0  0  0  0  0
    7.0280  -14.6160   23.7755 N   0  0  0  0  0  0  0  0  0  0  0  0
    8.5002  -15.6665   25.2519 C   0  0  0  0  0  0  0  0  0  0  0  0
    7.8220  -16.7363   25.2504 O   0  0  0  0  0  0  0  0  0  0  0  0
    9.9256  -15.7706   25.4974 N   0  0  0  0  0  0  0  0  0  0  0  0
   10.4769  -17.0719   25.6707 C   0  0  1  0  0  0  0  0  0  0  0  0
   11.9179  -17.1723   25.2157 C   0  0  0  0  0  0  0  0  0  0  0  0
   12.1147  -16.8113   23.8103 C   0  0  0  0  0  0  0  0  0  0  0  0
   11.3079  -17.1924   22.9436 O   0  0  0  0  0  0  0  0  0  0  0  0
   10.4532  -17.4142   27.1114 C   0  0  0  0  0  0  0  0  0  0  0  0
   10.8430  -18.6667   27.5301 O   0  0  0  0  0  0  0  0  0  0  0  0
   13.1962  -16.0467   23.4426 O   0  0  0  0  0  0  0  0  0  0  0  0
   10.0797  -16.5651   27.9393 O   0  0  0  0  0  0  0  0  0  0  0  0
  1  2  1  0
  3  2  1  0
  3  4  2  0
  6  5  1  1
  6  8  1  0
  7  6  1  0
  9  8  1  1
  9 10  1  0
  9 11  1  0
 10  3  1  0
 11 12  2  0
 13 11  1  0
 13 14  1  0
 14 15  1  1
 15 16  1  0
 16 17  2  0
 18 19  1  0
 18 14  1  0
 20 16  1  0
 21 18  2  0
M  END
$$$$
