GLD.pdb
     RDKit          3D

 21 20  0  0  1  0  0  0  0  0999 V2000
    5.6010  -17.4148   20.4785 N   0  0  0  0  0  0  0  0  0  0  0  0
    5.3870  -17.3062   21.8979 C   0  0  0  0  0  0  0  0  0  0  0  0
    6.4353  -16.4907   22.5625 C   0  0  0  0  0  0  0  0  0  0  0  0
    7.5776  -16.3726   22.0556 O   0  0  0  0  0  0  0  0  0  0  0  0
    6.4925  -12.4849   27.3440 C   0  0  0  0  0  0  0  0  0  0  0  0
    7.2101  -13.1275   26.2262 C   0  0  2  0  0  0  0  0  0  0  0  0
    8.0048  -12.0743   25.4442 C   0  0  0  0  0  0  0  0  0  0  0  0
    6.4669  -13.9970   25.2861 C   0  0  0  0  0  0  0  0  0  0  0  0
    7.1336  -15.0561   24.5429 C   0  0  2  0  0  0  0  0  0  0  0  0
    6.1227  -15.8486   23.7786 N   0  0  0  0  0  0  0  0  0  0  0  0
    7.9984  -16.0350   25.1560 C   0  0  0  0  0  0  0  0  0  0  0  0
    7.4987  -16.9245   25.9067 O   0  0  0  0  0  0  0  0  0  0  0  0
    9.4341  -16.0509   24.9529 N   0  0  0  0  0  0  0  0  0  0  0  0
   10.1511  -17.2093   25.3668 C   0  0  1  0  0  0  0  0  0  0  0  0
   11.1900  -17.6567   24.3596 C   0  0  0  0  0  0  0  0  0  0  0  0
   11.9912  -16.5575   23.8174 C   0  0  0  0  0  0  0  0  0  0  0  0
   12.7627  -15.9178   24.5542 O   0  0  0  0  0  0  0  0  0  0  0  0
   10.8713  -16.9031   26.6242 C   0  0  0  0  0  0  0  0  0  0  0  0
   11.5527  -17.8976   27.2895 O   0  0  0  0  0  0  0  0  0  0  0  0
   11.8930  -16.2275   22.4867 O   0  0  0  0  0  0  0  0  0  0  0  0
   10.8568  -15.7443   27.0747 O   0  0  0  0  0  0  0  0  0  0  0  0
  1  2  1  0
  3  2  1  0
  3  4  2  0
  6  5  1  1
  6  8  1  0
  7  6  1  0
  9  8  1  1
  9 10  1  0
  9 11  1  0
 10  3  1  0
 11 12  2  0
 13 11  1  0
 13 14  1  0
 14 15  1  6
 15 16  1  0
 16 17  2  0
 18 19  1  0
 18 14  1  0
 20 16  1  0
 21 18  2  0
M  END
$$$$
