HYT.pdb
     RDKit          3D

 30 31  0  0  1  0  0  0  0  0999 V2000
   22.1562  -19.4792  -18.4215 N   0  0  0  0  0  0  0  0  0  0  0  0
   23.3086  -20.0710  -17.7387 C   0  0  1  0  0  0  0  0  0  0  0  0
   24.5315  -19.3283  -18.2119 C   0  0  0  0  0  0  0  0  0  0  0  0
   24.7511  -19.7663  -19.6287 C   0  0  0  0  0  0  0  0  0  0  0  0
   25.4458  -20.9202  -19.9976 C   0  0  0  0  0  0  0  0  0  0  0  0
   25.4371  -20.9706  -21.3354 N   0  0  0  0  0  0  0  0  0  0  0  0
   24.7704  -19.9027  -21.7974 C   0  0  0  0  0  0  0  0  0  0  0  0
   24.3518  -19.1687  -20.7687 N   0  0  0  0  0  0  0  0  0  0  0  0
   23.0905  -20.0125  -16.3040 C   0  0  0  0  0  0  0  0  0  0  0  0
   22.8686  -18.8903  -15.7714 O   0  0  0  0  0  0  0  0  0  0  0  0
   16.7137  -19.6565  -15.1011 O   0  0  0  0  0  0  0  0  0  0  0  0
   17.9172  -20.2180  -14.7580 C   0  0  0  0  0  0  0  0  0  0  0  0
   18.6453  -21.0257  -15.6261 C   0  0  0  0  0  0  0  0  0  0  0  0
   19.8433  -21.5714  -15.2535 C   0  0  0  0  0  0  0  0  0  0  0  0
   20.3969  -21.3480  -13.9862 C   0  0  0  0  0  0  0  0  0  0  0  0
   21.6924  -21.9446  -13.5718 C   0  0  0  0  0  0  0  0  0  0  0  0
   22.8654  -21.1122  -14.0218 C   0  0  2  0  0  0  0  0  0  0  0  0
   23.1011  -21.1208  -15.4192 N   0  0  0  0  0  0  0  0  0  0  0  0
   24.0851  -21.5391  -13.3038 C   0  0  0  0  0  0  0  0  0  0  0  0
   24.5147  -22.6999  -13.5335 O   0  0  0  0  0  0  0  0  0  0  0  0
   19.6562  -20.5461  -13.1500 C   0  0  0  0  0  0  0  0  0  0  0  0
   18.4416  -19.9903  -13.5232 C   0  0  0  0  0  0  0  0  0  0  0  0
   28.3609  -20.9945  -11.1388 C   0  0  0  0  0  0  0  0  0  0  0  0
   27.1974  -20.5183  -11.9666 C   0  0  1  0  0  0  0  0  0  0  0  0
   27.4996  -20.7703  -13.3070 O   0  0  0  0  0  0  0  0  0  0  0  0
   25.9012  -21.2233  -11.5794 C   0  0  2  0  0  0  0  0  0  0  0  0
   24.8039  -20.7438  -12.3849 N   0  0  0  0  0  0  0  0  0  0  0  0
   25.6113  -21.0299  -10.1175 C   0  0  0  0  0  0  0  0  0  0  0  0
   26.2046  -21.6420   -9.2100 O   0  0  0  0  0  0  0  0  0  0  0  0
   24.6224  -20.1129   -9.7529 O   0  0  0  0  0  0  0  0  0  0  0  0
  2  1  1  6
  2  3  1  0
  3  4  1  0
  4  5  2  0
  5  6  1  0
  7  6  1  0
  8  4  1  0
  8  7  2  0
  9  2  1  0
  9 18  1  0
 10  9  2  0
 12 22  2  0
 12 11  1  0
 13 12  1  0
 14 15  1  0
 14 13  2  0
 15 21  2  0
 17 16  1  6
 16 15  1  0
 17 18  1  0
 19 17  1  0
 20 19  2  0
 21 22  1  0
 24 23  1  1
 24 26  1  0
 25 24  1  0
 26 27  1  6
 26 28  1  0
 27 19  1  0
 28 30  1  0
 29 28  2  0
M  END
$$$$
