HYT.pdb
     RDKit          3D

 30 31  0  0  1  0  0  0  0  0999 V2000
   28.7097  -34.8192   -4.9402 N   0  0  0  0  0  0  0  0  0  0  0  0
   27.5538  -33.9805   -4.6161 C   0  0  1  0  0  0  0  0  0  0  0  0
   26.3561  -34.6003   -5.2887 C   0  0  0  0  0  0  0  0  0  0  0  0
   25.9106  -33.6090   -6.3213 C   0  0  0  0  0  0  0  0  0  0  0  0
   26.5611  -32.4019   -6.5864 C   0  0  0  0  0  0  0  0  0  0  0  0
   25.8719  -31.7920   -7.5587 N   0  0  0  0  0  0  0  0  0  0  0  0
   24.8338  -32.5705   -7.8975 C   0  0  0  0  0  0  0  0  0  0  0  0
   24.8512  -33.6731   -7.1518 N   0  0  0  0  0  0  0  0  0  0  0  0
   27.4390  -33.8696   -3.1725 C   0  0  0  0  0  0  0  0  0  0  0  0
   28.0628  -34.6958   -2.4510 O   0  0  0  0  0  0  0  0  0  0  0  0
   25.9107  -30.7829    5.0071 O   0  0  0  0  0  0  0  0  0  0  0  0
   26.1036  -30.9153    3.6557 C   0  0  0  0  0  0  0  0  0  0  0  0
   27.2818  -31.4151    3.1092 C   0  0  0  0  0  0  0  0  0  0  0  0
   27.4433  -31.5346    1.7560 C   0  0  0  0  0  0  0  0  0  0  0  0
   26.4382  -31.1623    0.8541 C   0  0  0  0  0  0  0  0  0  0  0  0
   26.6102  -31.2807   -0.6164 C   0  0  0  0  0  0  0  0  0  0  0  0
   26.5848  -32.7169   -1.0726 C   0  0  2  0  0  0  0  0  0  0  0  0
   26.6763  -32.8985   -2.4750 N   0  0  0  0  0  0  0  0  0  0  0  0
   25.3695  -33.3827   -0.5577 C   0  0  0  0  0  0  0  0  0  0  0  0
   24.2608  -32.9893   -1.0060 O   0  0  0  0  0  0  0  0  0  0  0  0
   25.2854  -30.6726    1.4220 C   0  0  0  0  0  0  0  0  0  0  0  0
   25.1168  -30.5499    2.7931 C   0  0  0  0  0  0  0  0  0  0  0  0
   24.0845  -36.9358   -0.7249 C   0  0  0  0  0  0  0  0  0  0  0  0
   24.2066  -36.5512    0.7252 C   0  0  1  0  0  0  0  0  0  0  0  0
   25.4197  -37.0583    1.1974 O   0  0  0  0  0  0  0  0  0  0  0  0
   24.1608  -35.0382    0.9153 C   0  0  2  0  0  0  0  0  0  0  0  0
   25.3590  -34.4259    0.3937 N   0  0  0  0  0  0  0  0  0  0  0  0
   23.9767  -34.6939    2.3666 C   0  0  0  0  0  0  0  0  0  0  0  0
   24.8620  -34.1713    3.0690 O   0  0  0  0  0  0  0  0  0  0  0  0
   22.7452  -34.9741    2.9638 O   0  0  0  0  0  0  0  0  0  0  0  0
  2  1  1  1
  2  3  1  0
  3  4  1  0
  4  5  2  0
  5  6  1  0
  7  6  1  0
  8  4  1  0
  8  7  2  0
  9  2  1  0
  9 18  1  0
 10  9  2  0
 12 22  2  0
 12 11  1  0
 13 12  1  0
 14 15  1  0
 14 13  2  0
 15 21  2  0
 17 16  1  6
 16 15  1  0
 17 18  1  0
 19 17  1  0
 20 19  2  0
 21 22  1  0
 24 23  1  6
 24 26  1  0
 25 24  1  0
 26 27  1  1
 26 28  1  0
 27 19  1  0
 28 30  1  0
 29 28  2  0
M  END
$$$$
