HYT.pdb
     RDKit          3D

 30 31  0  0  1  0  0  0  0  0999 V2000
   21.1855  -12.9938  -16.3142 N   0  0  0  0  0  0  0  0  0  0  0  0
   20.2114  -11.9995  -16.7690 C   0  0  1  0  0  0  0  0  0  0  0  0
   18.8486  -12.6332  -16.6577 C   0  0  0  0  0  0  0  0  0  0  0  0
   18.7658  -13.6209  -17.7824 C   0  0  0  0  0  0  0  0  0  0  0  0
   19.2306  -14.9359  -17.7115 C   0  0  0  0  0  0  0  0  0  0  0  0
   18.9891  -15.5003  -18.9012 N   0  0  0  0  0  0  0  0  0  0  0  0
   18.3997  -14.5915  -19.6919 C   0  0  0  0  0  0  0  0  0  0  0  0
   18.2613  -13.4505  -19.0204 N   0  0  0  0  0  0  0  0  0  0  0  0
   20.3729  -10.7861  -15.9872 C   0  0  0  0  0  0  0  0  0  0  0  0
   20.3654  -10.8724  -14.7283 O   0  0  0  0  0  0  0  0  0  0  0  0
   22.3680   -2.3876  -13.8925 O   0  0  0  0  0  0  0  0  0  0  0  0
   22.3198   -3.6618  -14.3980 C   0  0  0  0  0  0  0  0  0  0  0  0
   22.4482   -3.9378  -15.7558 C   0  0  0  0  0  0  0  0  0  0  0  0
   22.3954   -5.2205  -16.2289 C   0  0  0  0  0  0  0  0  0  0  0  0
   22.2100   -6.3171  -15.3772 C   0  0  0  0  0  0  0  0  0  0  0  0
   22.1425   -7.7113  -15.8847 C   0  0  0  0  0  0  0  0  0  0  0  0
   20.7496   -8.2788  -15.7887 C   0  0  2  0  0  0  0  0  0  0  0  0
   20.5442   -9.4799  -16.5122 N   0  0  0  0  0  0  0  0  0  0  0  0
   19.7656   -7.2610  -16.2145 C   0  0  0  0  0  0  0  0  0  0  0  0
   19.6924   -7.0070  -17.4453 O   0  0  0  0  0  0  0  0  0  0  0  0
   22.0868   -6.0147  -14.0413 C   0  0  0  0  0  0  0  0  0  0  0  0
   22.1400   -4.7162  -13.5570 C   0  0  0  0  0  0  0  0  0  0  0  0
   16.1594   -7.2400  -16.2245 C   0  0  0  0  0  0  0  0  0  0  0  0
   16.5319   -5.9901  -15.4730 C   0  0  1  0  0  0  0  0  0  0  0  0
   16.3920   -6.2581  -14.1091 O   0  0  0  0  0  0  0  0  0  0  0  0
   17.9608   -5.5512  -15.7776 C   0  0  2  0  0  0  0  0  0  0  0  0
   18.9021   -6.5570  -15.3472 N   0  0  0  0  0  0  0  0  0  0  0  0
   18.2581   -4.2309  -15.1241 C   0  0  0  0  0  0  0  0  0  0  0  0
   19.0866   -4.0871  -14.2058 O   0  0  0  0  0  0  0  0  0  0  0  0
   17.5689   -3.1002  -15.5693 O   0  0  0  0  0  0  0  0  0  0  0  0
  2  1  1  1
  2  3  1  0
  3  4  1  0
  4  5  2  0
  5  6  1  0
  7  6  1  0
  8  4  1  0
  8  7  2  0
  9  2  1  0
  9 18  1  0
 10  9  2  0
 12 22  2  0
 12 11  1  0
 13 12  1  0
 14 15  1  0
 14 13  2  0
 15 21  2  0
 17 16  1  6
 16 15  1  0
 17 18  1  0
 19 17  1  0
 20 19  2  0
 21 22  1  0
 24 23  1  6
 24 26  1  0
 25 24  1  0
 26 27  1  1
 26 28  1  0
 27 19  1  0
 28 30  1  0
 29 28  2  0
M  END
$$$$
