HYT.pdb
     RDKit          3D

 30 31  0  0  1  0  0  0  0  0999 V2000
   16.2979  -10.0862  -13.0210 N   0  0  0  0  0  0  0  0  0  0  0  0
   17.0251   -8.8654  -12.6668 C   0  0  1  0  0  0  0  0  0  0  0  0
   17.4755   -8.2297  -13.9568 C   0  0  0  0  0  0  0  0  0  0  0  0
   18.4901   -9.1667  -14.5399 C   0  0  0  0  0  0  0  0  0  0  0  0
   19.6094   -9.6420  -13.8532 C   0  0  0  0  0  0  0  0  0  0  0  0
   20.2742  -10.4421  -14.6961 N   0  0  0  0  0  0  0  0  0  0  0  0
   19.6125  -10.4761  -15.8621 C   0  0  0  0  0  0  0  0  0  0  0  0
   18.5304   -9.7057  -15.7745 N   0  0  0  0  0  0  0  0  0  0  0  0
   16.1675   -8.0229  -11.8517 C   0  0  0  0  0  0  0  0  0  0  0  0
   14.9828   -7.8165  -12.2340 O   0  0  0  0  0  0  0  0  0  0  0  0
   11.1159  -10.9594   -9.1981 O   0  0  0  0  0  0  0  0  0  0  0  0
   12.1117  -10.0323   -9.0244 C   0  0  0  0  0  0  0  0  0  0  0  0
   11.8531   -8.6834   -8.8006 C   0  0  0  0  0  0  0  0  0  0  0  0
   12.8692   -7.7831   -8.6314 C   0  0  0  0  0  0  0  0  0  0  0  0
   14.2153   -8.1684   -8.6746 C   0  0  0  0  0  0  0  0  0  0  0  0
   15.3236   -7.1950   -8.5009 C   0  0  0  0  0  0  0  0  0  0  0  0
   15.7348   -6.5704   -9.8094 C   0  0  2  0  0  0  0  0  0  0  0  0
   16.5390   -7.3938  -10.6362 N   0  0  0  0  0  0  0  0  0  0  0  0
   16.4240   -5.2875   -9.5553 C   0  0  0  0  0  0  0  0  0  0  0  0
   17.5858   -5.3409   -9.0735 O   0  0  0  0  0  0  0  0  0  0  0  0
   14.4409   -9.5067   -8.8966 C   0  0  0  0  0  0  0  0  0  0  0  0
   13.4142  -10.4232   -9.0684 C   0  0  0  0  0  0  0  0  0  0  0  0
   17.6065   -2.5680  -11.8441 C   0  0  0  0  0  0  0  0  0  0  0  0
   16.6652   -1.9446  -10.8486 C   0  0  1  0  0  0  0  0  0  0  0  0
   15.4097   -1.8506  -11.4538 O   0  0  0  0  0  0  0  0  0  0  0  0
   16.5699   -2.7676   -9.5676 C   0  0  2  0  0  0  0  0  0  0  0  0
   15.8798   -4.0107   -9.8146 N   0  0  0  0  0  0  0  0  0  0  0  0
   15.8811   -1.9833   -8.4864 C   0  0  0  0  0  0  0  0  0  0  0  0
   14.7851   -2.3064   -7.9917 O   0  0  0  0  0  0  0  0  0  0  0  0
   16.5022   -0.8273   -8.0071 O   0  0  0  0  0  0  0  0  0  0  0  0
  2  1  1  6
  2  3  1  0
  3  4  1  0
  4  5  2  0
  5  6  1  0
  7  6  1  0
  8  4  1  0
  8  7  2  0
  9  2  1  0
  9 18  1  0
 10  9  2  0
 12 22  2  0
 12 11  1  0
 13 12  1  0
 14 15  1  0
 14 13  2  0
 15 21  2  0
 17 16  1  1
 16 15  1  0
 17 18  1  0
 19 17  1  0
 20 19  2  0
 21 22  1  0
 24 23  1  6
 24 26  1  0
 25 24  1  0
 26 27  1  6
 26 28  1  0
 27 19  1  0
 28 30  1  0
 29 28  2  0
M  END
$$$$
