HYT.pdb
     RDKit          3D

 30 31  0  0  1  0  0  0  0  0999 V2000
   19.3006  -25.5172  -11.2012 N   0  0  0  0  0  0  0  0  0  0  0  0
   19.0384  -26.4740  -10.1241 C   0  0  1  0  0  0  0  0  0  0  0  0
   20.0979  -27.5419  -10.2143 C   0  0  0  0  0  0  0  0  0  0  0  0
   19.8027  -28.3031  -11.4716 C   0  0  0  0  0  0  0  0  0  0  0  0
   18.5171  -28.5677  -11.9486 C   0  0  0  0  0  0  0  0  0  0  0  0
   18.6570  -29.2682  -13.0808 N   0  0  0  0  0  0  0  0  0  0  0  0
   19.9660  -29.4421  -13.3151 C   0  0  0  0  0  0  0  0  0  0  0  0
   20.6660  -28.8598  -12.3440 N   0  0  0  0  0  0  0  0  0  0  0  0
   19.0098  -25.7647   -8.8570 C   0  0  0  0  0  0  0  0  0  0  0  0
   19.9215  -24.9274   -8.6121 O   0  0  0  0  0  0  0  0  0  0  0  0
   12.1853  -24.4584   -9.0953 O   0  0  0  0  0  0  0  0  0  0  0  0
   13.4124  -24.3394   -8.4941 C   0  0  0  0  0  0  0  0  0  0  0  0
   14.5434  -23.8972   -9.1737 C   0  0  0  0  0  0  0  0  0  0  0  0
   15.7539  -23.7896   -8.5453 C   0  0  0  0  0  0  0  0  0  0  0  0
   15.9184  -24.1171   -7.1933 C   0  0  0  0  0  0  0  0  0  0  0  0
   17.2314  -24.0115   -6.5071 C   0  0  0  0  0  0  0  0  0  0  0  0
   18.0038  -25.3043   -6.5670 C   0  0  2  0  0  0  0  0  0  0  0  0
   18.0324  -25.9230   -7.8416 N   0  0  0  0  0  0  0  0  0  0  0  0
   17.4737  -26.2494   -5.5614 C   0  0  0  0  0  0  0  0  0  0  0  0
   16.7631  -27.2005   -5.9800 O   0  0  0  0  0  0  0  0  0  0  0  0
   14.7845  -24.5504   -6.5472 C   0  0  0  0  0  0  0  0  0  0  0  0
   13.5551  -24.6608   -7.1797 C   0  0  0  0  0  0  0  0  0  0  0  0
   17.7064  -28.3396   -1.0815 C   0  0  0  0  0  0  0  0  0  0  0  0
   18.1921  -27.3182   -2.0748 C   0  0  1  0  0  0  0  0  0  0  0  0
   19.4070  -27.7744   -2.5920 O   0  0  0  0  0  0  0  0  0  0  0  0
   17.1884  -27.1045   -3.2036 C   0  0  2  0  0  0  0  0  0  0  0  0
   17.7066  -26.1674   -4.1712 N   0  0  0  0  0  0  0  0  0  0  0  0
   15.8718  -26.6296   -2.6564 C   0  0  0  0  0  0  0  0  0  0  0  0
   15.5883  -25.4292   -2.4865 O   0  0  0  0  0  0  0  0  0  0  0  0
   14.9102  -27.5852   -2.3189 O   0  0  0  0  0  0  0  0  0  0  0  0
  2  1  1  6
  2  3  1  0
  3  4  1  0
  4  5  2  0
  5  6  1  0
  7  6  1  0
  8  4  1  0
  8  7  2  0
  9  2  1  0
  9 18  1  0
 10  9  2  0
 12 22  2  0
 12 11  1  0
 13 12  1  0
 14 15  1  0
 14 13  2  0
 15 21  2  0
 17 16  1  6
 16 15  1  0
 17 18  1  0
 19 17  1  0
 20 19  2  0
 21 22  1  0
 24 23  1  1
 24 26  1  0
 25 24  1  0
 26 27  1  6
 26 28  1  0
 27 19  1  0
 28 30  1  0
 29 28  2  0
M  END
$$$$
