HYT.pdb
     RDKit          3D

 30 31  0  0  1  0  0  0  0  0999 V2000
   26.1069  -33.0229  -13.2813 N   0  0  0  0  0  0  0  0  0  0  0  0
   25.2486  -33.5147  -12.2016 C   0  0  1  0  0  0  0  0  0  0  0  0
   25.0154  -34.9816  -12.4562 C   0  0  0  0  0  0  0  0  0  0  0  0
   23.9941  -35.0474  -13.5516 C   0  0  0  0  0  0  0  0  0  0  0  0
   22.6752  -34.6056  -13.4262 C   0  0  0  0  0  0  0  0  0  0  0  0
   22.0740  -34.8318  -14.6008 N   0  0  0  0  0  0  0  0  0  0  0  0
   22.9642  -35.3899  -15.4343 C   0  0  0  0  0  0  0  0  0  0  0  0
   24.1297  -35.5233  -14.8051 N   0  0  0  0  0  0  0  0  0  0  0  0
   25.8773  -33.2212  -10.9257 C   0  0  0  0  0  0  0  0  0  0  0  0
   27.1277  -33.3565  -10.8223 O   0  0  0  0  0  0  0  0  0  0  0  0
   19.9230  -30.0047   -9.1747 O   0  0  0  0  0  0  0  0  0  0  0  0
   21.2083  -30.3348   -8.8278 C   0  0  0  0  0  0  0  0  0  0  0  0
   21.5061  -31.3411   -7.9139 C   0  0  0  0  0  0  0  0  0  0  0  0
   22.7994  -31.6464   -7.5886 C   0  0  0  0  0  0  0  0  0  0  0  0
   23.8858  -30.9664   -8.1540 C   0  0  0  0  0  0  0  0  0  0  0  0
   25.2919  -31.2862   -7.7986 C   0  0  0  0  0  0  0  0  0  0  0  0
   25.7721  -32.5437   -8.4765 C   0  0  2  0  0  0  0  0  0  0  0  0
   25.2080  -32.7847   -9.7540 N   0  0  0  0  0  0  0  0  0  0  0  0
   25.5363  -33.7070   -7.5953 C   0  0  0  0  0  0  0  0  0  0  0  0
   24.4767  -34.3627   -7.7746 O   0  0  0  0  0  0  0  0  0  0  0  0
   23.5619  -29.9780   -9.0536 C   0  0  0  0  0  0  0  0  0  0  0  0
   22.2524  -29.6651   -9.3869 C   0  0  0  0  0  0  0  0  0  0  0  0
   27.8338  -36.7329   -6.8508 C   0  0  0  0  0  0  0  0  0  0  0  0
   27.4090  -36.1136   -5.5462 C   0  0  1  0  0  0  0  0  0  0  0  0
   28.4672  -35.3257   -5.0868 O   0  0  0  0  0  0  0  0  0  0  0  0
   26.1525  -35.2633   -5.7059 C   0  0  2  0  0  0  0  0  0  0  0  0
   26.4093  -34.1384   -6.5729 N   0  0  0  0  0  0  0  0  0  0  0  0
   25.6557  -34.7987   -4.3658 C   0  0  0  0  0  0  0  0  0  0  0  0
   25.5797  -33.6004   -4.0361 O   0  0  0  0  0  0  0  0  0  0  0  0
   25.2558  -35.7619   -3.4362 O   0  0  0  0  0  0  0  0  0  0  0  0
  2  1  1  6
  2  3  1  0
  3  4  1  0
  4  5  2  0
  5  6  1  0
  7  6  1  0
  8  4  1  0
  8  7  2  0
  9  2  1  0
  9 18  1  0
 10  9  2  0
 12 22  2  0
 12 11  1  0
 13 12  1  0
 14 15  1  0
 14 13  2  0
 15 21  2  0
 17 16  1  1
 16 15  1  0
 17 18  1  0
 19 17  1  0
 20 19  2  0
 21 22  1  0
 24 23  1  6
 24 26  1  0
 25 24  1  0
 26 27  1  6
 26 28  1  0
 27 19  1  0
 28 30  1  0
 29 28  2  0
M  END
$$$$
