HYT.pdb
     RDKit          3D

 30 31  0  0  1  0  0  0  0  0999 V2000
   22.6710  -22.0184  -13.8196 N   0  0  0  0  0  0  0  0  0  0  0  0
   22.7174  -20.5566  -13.7462 C   0  0  1  0  0  0  0  0  0  0  0  0
   21.9296  -20.1503  -12.5273 C   0  0  0  0  0  0  0  0  0  0  0  0
   20.5194  -20.5855  -12.7903 C   0  0  0  0  0  0  0  0  0  0  0  0
   19.9533  -21.7626  -12.2962 C   0  0  0  0  0  0  0  0  0  0  0  0
   18.6924  -21.8078  -12.7440 N   0  0  0  0  0  0  0  0  0  0  0  0
   18.4649  -20.7146  -13.4866 C   0  0  0  0  0  0  0  0  0  0  0  0
   19.5675  -19.9694  -13.5188 N   0  0  0  0  0  0  0  0  0  0  0  0
   24.1047  -20.1268  -13.7329 C   0  0  0  0  0  0  0  0  0  0  0  0
   24.3545  -18.8899  -13.7291 O   0  0  0  0  0  0  0  0  0  0  0  0
   24.7246  -19.9590   -7.5774 O   0  0  0  0  0  0  0  0  0  0  0  0
   25.3452  -20.2639   -8.7620 C   0  0  0  0  0  0  0  0  0  0  0  0
   25.1222  -21.4567   -9.4429 C   0  0  0  0  0  0  0  0  0  0  0  0
   25.7574  -21.7314  -10.6231 C   0  0  0  0  0  0  0  0  0  0  0  0
   26.6607  -20.8326  -11.2049 C   0  0  0  0  0  0  0  0  0  0  0  0
   27.3608  -21.1281  -12.4810 C   0  0  0  0  0  0  0  0  0  0  0  0
   26.6017  -20.6061  -13.6738 C   0  0  2  0  0  0  0  0  0  0  0  0
   25.2361  -20.9818  -13.7222 N   0  0  0  0  0  0  0  0  0  0  0  0
   27.2816  -21.0216  -14.9190 C   0  0  0  0  0  0  0  0  0  0  0  0
   28.0314  -22.0311  -14.8591 O   0  0  0  0  0  0  0  0  0  0  0  0
   26.8612  -19.6625  -10.5107 C   0  0  0  0  0  0  0  0  0  0  0  0
   26.2194  -19.3794   -9.3142 C   0  0  0  0  0  0  0  0  0  0  0  0
   26.7075  -22.8965  -17.8491 C   0  0  0  0  0  0  0  0  0  0  0  0
   26.9954  -21.4987  -18.3278 C   0  0  1  0  0  0  0  0  0  0  0  0
   25.7722  -20.8395  -18.4713 O   0  0  0  0  0  0  0  0  0  0  0  0
   27.8896  -20.7394  -17.3525 C   0  0  2  0  0  0  0  0  0  0  0  0
   27.1511  -20.3750  -16.1673 N   0  0  0  0  0  0  0  0  0  0  0  0
   28.4730  -19.5208  -18.0106 C   0  0  0  0  0  0  0  0  0  0  0  0
   28.1675  -18.3550  -17.6976 O   0  0  0  0  0  0  0  0  0  0  0  0
   29.4107  -19.7022  -19.0302 O   0  0  0  0  0  0  0  0  0  0  0  0
  2  1  1  1
  2  3  1  0
  3  4  1  0
  4  5  2  0
  5  6  1  0
  7  6  1  0
  8  4  1  0
  8  7  2  0
  9  2  1  0
  9 18  1  0
 10  9  2  0
 12 22  2  0
 12 11  1  0
 13 12  1  0
 14 15  1  0
 14 13  2  0
 15 21  2  0
 17 16  1  1
 16 15  1  0
 17 18  1  0
 19 17  1  0
 20 19  2  0
 21 22  1  0
 24 23  1  1
 24 26  1  0
 25 24  1  0
 26 27  1  1
 26 28  1  0
 27 19  1  0
 28 30  1  0
 29 28  2  0
M  END
$$$$
