HYT.pdb
     RDKit          3D

 30 31  0  0  1  0  0  0  0  0999 V2000
   26.9751  -19.0160  -16.7163 N   0  0  0  0  0  0  0  0  0  0  0  0
   26.2456  -18.7186  -15.4819 C   0  0  1  0  0  0  0  0  0  0  0  0
   25.4585  -17.4571  -15.7272 C   0  0  0  0  0  0  0  0  0  0  0  0
   26.4728  -16.3583  -15.8321 C   0  0  0  0  0  0  0  0  0  0  0  0
   27.0741  -15.7343  -14.7369 C   0  0  0  0  0  0  0  0  0  0  0  0
   27.9109  -14.8100  -15.2247 N   0  0  0  0  0  0  0  0  0  0  0  0
   27.8472  -14.8423  -16.5639 C   0  0  0  0  0  0  0  0  0  0  0  0
   26.9779  -15.7782  -16.9388 N   0  0  0  0  0  0  0  0  0  0  0  0
   25.4355  -19.8690  -15.1216 C   0  0  0  0  0  0  0  0  0  0  0  0
   24.6670  -20.3639  -15.9916 O   0  0  0  0  0  0  0  0  0  0  0  0
   26.4636  -19.1017   -7.8516 O   0  0  0  0  0  0  0  0  0  0  0  0
   26.1774  -19.8945   -8.9336 C   0  0  0  0  0  0  0  0  0  0  0  0
   27.0747  -20.0944   -9.9782 C   0  0  0  0  0  0  0  0  0  0  0  0
   26.7589  -20.8916  -11.0443 C   0  0  0  0  0  0  0  0  0  0  0  0
   25.5232  -21.5443  -11.1409 C   0  0  0  0  0  0  0  0  0  0  0  0
   25.1700  -22.4037  -12.2996 C   0  0  0  0  0  0  0  0  0  0  0  0
   24.6164  -21.6004  -13.4484 C   0  0  2  0  0  0  0  0  0  0  0  0
   25.4232  -20.5091  -13.8561 N   0  0  0  0  0  0  0  0  0  0  0  0
   23.2573  -21.1238  -13.1150 C   0  0  0  0  0  0  0  0  0  0  0  0
   23.1636  -20.1650  -12.3046 O   0  0  0  0  0  0  0  0  0  0  0  0
   24.6570  -21.3291  -10.0947 C   0  0  0  0  0  0  0  0  0  0  0  0
   24.9727  -20.5222   -9.0117 C   0  0  0  0  0  0  0  0  0  0  0  0
   20.7062  -19.2555  -14.8499 C   0  0  0  0  0  0  0  0  0  0  0  0
   20.0485  -20.5538  -14.4657 C   0  0  1  0  0  0  0  0  0  0  0  0
   20.1026  -21.4008  -15.5753 O   0  0  0  0  0  0  0  0  0  0  0  0
   20.7395  -21.2071  -13.2728 C   0  0  2  0  0  0  0  0  0  0  0  0
   22.0603  -21.6595  -13.6381 N   0  0  0  0  0  0  0  0  0  0  0  0
   19.9147  -22.3468  -12.7442 C   0  0  0  0  0  0  0  0  0  0  0  0
   20.2793  -23.5368  -12.7806 O   0  0  0  0  0  0  0  0  0  0  0  0
   18.6696  -22.0588  -12.1798 O   0  0  0  0  0  0  0  0  0  0  0  0
  2  1  1  6
  2  3  1  0
  3  4  1  0
  4  5  2  0
  5  6  1  0
  7  6  1  0
  8  4  1  0
  8  7  2  0
  9  2  1  0
  9 18  1  0
 10  9  2  0
 12 22  2  0
 12 11  1  0
 13 12  1  0
 14 15  1  0
 14 13  2  0
 15 21  2  0
 17 16  1  1
 16 15  1  0
 17 18  1  0
 19 17  1  0
 20 19  2  0
 21 22  1  0
 24 23  1  6
 24 26  1  0
 25 24  1  0
 26 27  1  6
 26 28  1  0
 27 19  1  0
 28 30  1  0
 29 28  2  0
M  END
$$$$
