HYT.pdb
     RDKit          3D

 30 31  0  0  1  0  0  0  0  0999 V2000
   18.7467  -12.2403  -16.7340 N   0  0  0  0  0  0  0  0  0  0  0  0
   19.9137  -11.3728  -16.9073 C   0  0  1  0  0  0  0  0  0  0  0  0
   20.0312  -11.0798  -18.3809 C   0  0  0  0  0  0  0  0  0  0  0  0
   20.3891  -12.3839  -19.0280 C   0  0  0  0  0  0  0  0  0  0  0  0
   19.4741  -13.2229  -19.6677 C   0  0  0  0  0  0  0  0  0  0  0  0
   20.1602  -14.2838  -20.1105 N   0  0  0  0  0  0  0  0  0  0  0  0
   21.4483  -14.1299  -19.7708 C   0  0  0  0  0  0  0  0  0  0  0  0
   21.5942  -12.9808  -19.1148 N   0  0  0  0  0  0  0  0  0  0  0  0
   19.7558  -10.1941  -16.0734 C   0  0  0  0  0  0  0  0  0  0  0  0
   18.6574   -9.5738  -16.1051 O   0  0  0  0  0  0  0  0  0  0  0  0
   19.6410   -4.6457   -9.3603 O   0  0  0  0  0  0  0  0  0  0  0  0
   20.0667   -5.5961  -10.2530 C   0  0  0  0  0  0  0  0  0  0  0  0
   21.0923   -5.3661  -11.1648 C   0  0  0  0  0  0  0  0  0  0  0  0
   21.4939   -6.3353  -12.0429 C   0  0  0  0  0  0  0  0  0  0  0  0
   20.8976   -7.6026  -12.0711 C   0  0  0  0  0  0  0  0  0  0  0  0
   21.3221   -8.6564  -13.0277 C   0  0  0  0  0  0  0  0  0  0  0  0
   20.6175   -8.5300  -14.3540 C   0  0  2  0  0  0  0  0  0  0  0  0
   20.7390   -9.6580  -15.2032 N   0  0  0  0  0  0  0  0  0  0  0  0
   21.0903   -7.3185  -15.0569 C   0  0  0  0  0  0  0  0  0  0  0  0
   22.2954   -7.2942  -15.4205 O   0  0  0  0  0  0  0  0  0  0  0  0
   19.8878   -7.8017  -11.1591 C   0  0  0  0  0  0  0  0  0  0  0  0
   19.4774   -6.8225  -10.2667 C   0  0  0  0  0  0  0  0  0  0  0  0
   20.2935   -5.8122  -18.3548 C   0  0  0  0  0  0  0  0  0  0  0  0
   19.9909   -4.7690  -17.3127 C   0  0  1  0  0  0  0  0  0  0  0  0
   18.6187   -4.8139  -17.0542 O   0  0  0  0  0  0  0  0  0  0  0  0
   20.7753   -5.0094  -16.0266 C   0  0  2  0  0  0  0  0  0  0  0  0
   20.2934   -6.1912  -15.3530 N   0  0  0  0  0  0  0  0  0  0  0  0
   20.6891   -3.8109  -15.1240 C   0  0  0  0  0  0  0  0  0  0  0  0
   19.9781   -3.7665  -14.1028 O   0  0  0  0  0  0  0  0  0  0  0  0
   21.4477   -2.6826  -15.4451 O   0  0  0  0  0  0  0  0  0  0  0  0
  2  1  1  6
  2  3  1  0
  3  4  1  0
  4  5  2  0
  5  6  1  0
  7  6  1  0
  8  4  1  0
  8  7  2  0
  9  2  1  0
  9 18  1  0
 10  9  2  0
 12 22  2  0
 12 11  1  0
 13 12  1  0
 14 15  1  0
 14 13  2  0
 15 21  2  0
 17 16  1  1
 16 15  1  0
 17 18  1  0
 19 17  1  0
 20 19  2  0
 21 22  1  0
 24 23  1  6
 24 26  1  0
 25 24  1  0
 26 27  1  1
 26 28  1  0
 27 19  1  0
 28 30  1  0
 29 28  2  0
M  END
$$$$
