HYT.pdb
     RDKit          3D

 30 31  0  0  1  0  0  0  0  0999 V2000
   28.2756  -22.8070  -17.8649 N   0  0  0  0  0  0  0  0  0  0  0  0
   27.7178  -21.5105  -17.4747 C   0  0  1  0  0  0  0  0  0  0  0  0
   26.8093  -21.0664  -18.5921 C   0  0  0  0  0  0  0  0  0  0  0  0
   27.7141  -20.6798  -19.7232 C   0  0  0  0  0  0  0  0  0  0  0  0
   28.5850  -19.5884  -19.6973 C   0  0  0  0  0  0  0  0  0  0  0  0
   29.2151  -19.5633  -20.8783 N   0  0  0  0  0  0  0  0  0  0  0  0
   28.7692  -20.5872  -21.6207 C   0  0  0  0  0  0  0  0  0  0  0  0
   27.8596  -21.2680  -20.9270 N   0  0  0  0  0  0  0  0  0  0  0  0
   27.0603  -21.6460  -16.1868 C   0  0  0  0  0  0  0  0  0  0  0  0
   26.2098  -22.5658  -16.0358 O   0  0  0  0  0  0  0  0  0  0  0  0
   24.4971  -20.6385   -7.7699 O   0  0  0  0  0  0  0  0  0  0  0  0
   25.1851  -20.5157   -8.9500 C   0  0  0  0  0  0  0  0  0  0  0  0
   25.1926  -19.3423   -9.6980 C   0  0  0  0  0  0  0  0  0  0  0  0
   25.8891  -19.2518  -10.8720 C   0  0  0  0  0  0  0  0  0  0  0  0
   26.6268  -20.3286  -11.3808 C   0  0  0  0  0  0  0  0  0  0  0  0
   27.3777  -20.2403  -12.6591 C   0  0  0  0  0  0  0  0  0  0  0  0
   26.6324  -20.8909  -13.7961 C   0  0  2  0  0  0  0  0  0  0  0  0
   27.2863  -20.8263  -15.0517 N   0  0  0  0  0  0  0  0  0  0  0  0
   25.2784  -20.3076  -13.9040 C   0  0  0  0  0  0  0  0  0  0  0  0
   25.1926  -19.1138  -14.2941 O   0  0  0  0  0  0  0  0  0  0  0  0
   26.6018  -21.4744  -10.6209 C   0  0  0  0  0  0  0  0  0  0  0  0
   25.8976  -21.5710   -9.4299 C   0  0  0  0  0  0  0  0  0  0  0  0
   22.3856  -20.8508  -16.0473 C   0  0  0  0  0  0  0  0  0  0  0  0
   21.8707  -21.0446  -14.6462 C   0  0  1  0  0  0  0  0  0  0  0  0
   21.8051  -22.4191  -14.4052 O   0  0  0  0  0  0  0  0  0  0  0  0
   22.7718  -20.3735  -13.6142 C   0  0  2  0  0  0  0  0  0  0  0  0
   24.0776  -20.9880  -13.6062 N   0  0  0  0  0  0  0  0  0  0  0  0
   22.1472  -20.4350  -12.2486 C   0  0  0  0  0  0  0  0  0  0  0  0
   22.5979  -21.1241  -11.3146 O   0  0  0  0  0  0  0  0  0  0  0  0
   20.9974  -19.6782  -12.0103 O   0  0  0  0  0  0  0  0  0  0  0  0
  2  1  1  6
  2  3  1  0
  3  4  1  0
  4  5  2  0
  5  6  1  0
  7  6  1  0
  8  4  1  0
  8  7  2  0
  9  2  1  0
  9 18  1  0
 10  9  2  0
 12 22  2  0
 12 11  1  0
 13 12  1  0
 14 15  1  0
 14 13  2  0
 15 21  2  0
 17 16  1  1
 16 15  1  0
 17 18  1  0
 19 17  1  0
 20 19  2  0
 21 22  1  0
 24 23  1  6
 24 26  1  0
 25 24  1  0
 26 27  1  1
 26 28  1  0
 27 19  1  0
 28 30  1  0
 29 28  2  0
M  END
$$$$
