HYT.pdb
     RDKit          3D

 30 31  0  0  1  0  0  0  0  0999 V2000
   30.8584  -25.3772  -17.8145 N   0  0  0  0  0  0  0  0  0  0  0  0
   30.5582  -26.6028  -18.5577 C   0  0  1  0  0  0  0  0  0  0  0  0
   31.6312  -26.7586  -19.6044 C   0  0  0  0  0  0  0  0  0  0  0  0
   31.3824  -25.6724  -20.6072 C   0  0  0  0  0  0  0  0  0  0  0  0
   30.1634  -25.4635  -21.2557 C   0  0  0  0  0  0  0  0  0  0  0  0
   30.3299  -24.4159  -22.0726 N   0  0  0  0  0  0  0  0  0  0  0  0
   31.5917  -23.9779  -21.9516 C   0  0  0  0  0  0  0  0  0  0  0  0
   32.2351  -24.7346  -21.0652 N   0  0  0  0  0  0  0  0  0  0  0  0
   30.4667  -27.7121  -17.6246 C   0  0  0  0  0  0  0  0  0  0  0  0
   31.0989  -27.6395  -16.5349 O   0  0  0  0  0  0  0  0  0  0  0  0
   23.5245  -27.7749  -17.1074 O   0  0  0  0  0  0  0  0  0  0  0  0
   24.7653  -28.2531  -16.7716 C   0  0  0  0  0  0  0  0  0  0  0  0
   25.0327  -29.6102  -16.6190 C   0  0  0  0  0  0  0  0  0  0  0  0
   26.2818  -30.0556  -16.2830 C   0  0  0  0  0  0  0  0  0  0  0  0
   27.3513  -29.1750  -16.0754 C   0  0  0  0  0  0  0  0  0  0  0  0
   28.7076  -29.6508  -15.7014 C   0  0  0  0  0  0  0  0  0  0  0  0
   29.5452  -29.9730  -16.9122 C   0  0  2  0  0  0  0  0  0  0  0  0
   29.7164  -28.8994  -17.8213 N   0  0  0  0  0  0  0  0  0  0  0  0
   28.9761  -31.1417  -17.6161 C   0  0  0  0  0  0  0  0  0  0  0  0
   28.1563  -30.9148  -18.5442 O   0  0  0  0  0  0  0  0  0  0  0  0
   27.0584  -27.8407  -16.2333 C   0  0  0  0  0  0  0  0  0  0  0  0
   25.7938  -27.3843  -16.5743 C   0  0  0  0  0  0  0  0  0  0  0  0
   30.6214  -33.8223  -19.6079 C   0  0  0  0  0  0  0  0  0  0  0  0
   29.7872  -34.5277  -18.5724 C   0  0  1  0  0  0  0  0  0  0  0  0
   30.6436  -34.9439  -17.5501 O   0  0  0  0  0  0  0  0  0  0  0  0
   28.6988  -33.6199  -18.0080 C   0  0  2  0  0  0  0  0  0  0  0  0
   29.2845  -32.4892  -17.3286 N   0  0  0  0  0  0  0  0  0  0  0  0
   27.7984  -34.3881  -17.0820 C   0  0  0  0  0  0  0  0  0  0  0  0
   27.0486  -35.3091  -17.4560 O   0  0  0  0  0  0  0  0  0  0  0  0
   27.8005  -34.0533  -15.7256 O   0  0  0  0  0  0  0  0  0  0  0  0
  2  1  1  1
  2  3  1  0
  3  4  1  0
  4  5  2  0
  5  6  1  0
  7  6  1  0
  8  4  1  0
  8  7  2  0
  9  2  1  0
  9 18  1  0
 10  9  2  0
 12 22  2  0
 12 11  1  0
 13 12  1  0
 14 15  1  0
 14 13  2  0
 15 21  2  0
 17 16  1  1
 16 15  1  0
 17 18  1  0
 19 17  1  0
 20 19  2  0
 21 22  1  0
 24 23  1  6
 24 26  1  0
 25 24  1  0
 26 27  1  1
 26 28  1  0
 27 19  1  0
 28 30  1  0
 29 28  2  0
M  END
$$$$
