HYT.pdb
     RDKit          3D

 30 31  0  0  1  0  0  0  0  0999 V2000
   20.7947   -9.7965  -19.8216 N   0  0  0  0  0  0  0  0  0  0  0  0
   20.8635   -8.7372  -18.8129 C   0  0  1  0  0  0  0  0  0  0  0  0
   20.7858   -7.4231  -19.5465 C   0  0  0  0  0  0  0  0  0  0  0  0
   22.0711   -7.3060  -20.3093 C   0  0  0  0  0  0  0  0  0  0  0  0
   23.2724   -6.8497  -19.7627 C   0  0  0  0  0  0  0  0  0  0  0  0
   24.1844   -6.8814  -20.7423 N   0  0  0  0  0  0  0  0  0  0  0  0
   23.5950   -7.3352  -21.8582 C   0  0  0  0  0  0  0  0  0  0  0  0
   22.3145   -7.5946  -21.6030 N   0  0  0  0  0  0  0  0  0  0  0  0
   19.8064   -8.9419  -17.8382 C   0  0  0  0  0  0  0  0  0  0  0  0
   18.6811   -9.3453  -18.2422 O   0  0  0  0  0  0  0  0  0  0  0  0
   14.9755  -10.6711  -10.7090 O   0  0  0  0  0  0  0  0  0  0  0  0
   15.9975  -10.4898  -11.6055 C   0  0  0  0  0  0  0  0  0  0  0  0
   16.0017  -11.0718  -12.8695 C   0  0  0  0  0  0  0  0  0  0  0  0
   17.0369  -10.8715  -13.7412 C   0  0  0  0  0  0  0  0  0  0  0  0
   18.1410  -10.0756  -13.4099 C   0  0  0  0  0  0  0  0  0  0  0  0
   19.2726   -9.8614  -14.3476 C   0  0  0  0  0  0  0  0  0  0  0  0
   18.9114   -8.9082  -15.4578 C   0  0  2  0  0  0  0  0  0  0  0  0
   19.9168   -8.7292  -16.4404 N   0  0  0  0  0  0  0  0  0  0  0  0
   18.5278   -7.5996  -14.8870 C   0  0  0  0  0  0  0  0  0  0  0  0
   19.4405   -6.9058  -14.3670 O   0  0  0  0  0  0  0  0  0  0  0  0
   18.1097   -9.5131  -12.1554 C   0  0  0  0  0  0  0  0  0  0  0  0
   17.0624   -9.7128  -11.2684 C   0  0  0  0  0  0  0  0  0  0  0  0
   15.4312   -5.1675  -16.2588 C   0  0  0  0  0  0  0  0  0  0  0  0
   16.5838   -4.7660  -15.3778 C   0  0  1  0  0  0  0  0  0  0  0  0
   16.2645   -3.5364  -14.7966 O   0  0  0  0  0  0  0  0  0  0  0  0
   16.8559   -5.8041  -14.2936 C   0  0  2  0  0  0  0  0  0  0  0  0
   17.2190   -7.0698  -14.8842 N   0  0  0  0  0  0  0  0  0  0  0  0
   15.6583   -5.9593  -13.3991 C   0  0  0  0  0  0  0  0  0  0  0  0
   15.0091   -7.0166  -13.2930 O   0  0  0  0  0  0  0  0  0  0  0  0
   15.2479   -4.8587  -12.6428 O   0  0  0  0  0  0  0  0  0  0  0  0
  2  1  1  6
  2  3  1  0
  3  4  1  0
  4  5  2  0
  5  6  1  0
  7  6  1  0
  8  4  1  0
  8  7  2  0
  9  2  1  0
  9 18  1  0
 10  9  2  0
 12 22  2  0
 12 11  1  0
 13 12  1  0
 14 15  1  0
 14 13  2  0
 15 21  2  0
 17 16  1  1
 16 15  1  0
 17 18  1  0
 19 17  1  0
 20 19  2  0
 21 22  1  0
 24 23  1  1
 24 26  1  0
 25 24  1  0
 26 27  1  6
 26 28  1  0
 27 19  1  0
 28 30  1  0
 29 28  2  0
M  END
$$$$
