HYT.pdb
     RDKit          3D

 30 31  0  0  1  0  0  0  0  0999 V2000
   13.5546  -16.6661    3.5010 N   0  0  0  0  0  0  0  0  0  0  0  0
   14.8819  -16.3144    4.0100 C   0  0  1  0  0  0  0  0  0  0  0  0
   14.7589  -14.9645    4.6685 C   0  0  0  0  0  0  0  0  0  0  0  0
   16.1319  -14.3640    4.6256 C   0  0  0  0  0  0  0  0  0  0  0  0
   17.0156  -14.4952    3.5522 C   0  0  0  0  0  0  0  0  0  0  0  0
   18.1317  -13.8334    3.8820 N   0  0  0  0  0  0  0  0  0  0  0  0
   17.9687  -13.3061    5.1042 C   0  0  0  0  0  0  0  0  0  0  0  0
   16.7592  -13.6236    5.5607 N   0  0  0  0  0  0  0  0  0  0  0  0
   15.3460  -17.3707    4.8921 C   0  0  0  0  0  0  0  0  0  0  0  0
   14.5094  -17.9406    5.6456 O   0  0  0  0  0  0  0  0  0  0  0  0
   14.9121  -23.6088    2.2752 O   0  0  0  0  0  0  0  0  0  0  0  0
   15.6740  -22.6991    2.9632 C   0  0  0  0  0  0  0  0  0  0  0  0
   16.5193  -21.7934    2.3295 C   0  0  0  0  0  0  0  0  0  0  0  0
   17.2668  -20.8981    3.0446 C   0  0  0  0  0  0  0  0  0  0  0  0
   17.2220  -20.8462    4.4437 C   0  0  0  0  0  0  0  0  0  0  0  0
   18.0377  -19.8832    5.2269 C   0  0  0  0  0  0  0  0  0  0  0  0
   17.1868  -18.8229    5.8775 C   0  0  2  0  0  0  0  0  0  0  0  0
   16.6811  -17.8385    4.9924 N   0  0  0  0  0  0  0  0  0  0  0  0
   17.9444  -18.1756    6.9694 C   0  0  0  0  0  0  0  0  0  0  0  0
   18.9373  -17.4723    6.6463 O   0  0  0  0  0  0  0  0  0  0  0  0
   16.3782  -21.7519    5.0427 C   0  0  0  0  0  0  0  0  0  0  0  0
   15.6181  -22.6611    4.3222 C   0  0  0  0  0  0  0  0  0  0  0  0
   18.3303  -16.0571   11.3124 C   0  0  0  0  0  0  0  0  0  0  0  0
   17.5295  -16.7896   10.2694 C   0  0  1  0  0  0  0  0  0  0  0  0
   16.8858  -15.8331    9.4804 O   0  0  0  0  0  0  0  0  0  0  0  0
   18.4122  -17.6794    9.3997 C   0  0  2  0  0  0  0  0  0  0  0  0
   17.6369  -18.2839    8.3432 N   0  0  0  0  0  0  0  0  0  0  0  0
   19.0850  -18.7325   10.2343 C   0  0  0  0  0  0  0  0  0  0  0  0
   18.6278  -19.8790   10.3979 O   0  0  0  0  0  0  0  0  0  0  0  0
   20.2907  -18.4110   10.8627 O   0  0  0  0  0  0  0  0  0  0  0  0
  2  1  1  1
  2  3  1  0
  3  4  1  0
  4  5  2  0
  5  6  1  0
  7  6  1  0
  8  4  1  0
  8  7  2  0
  9  2  1  0
  9 18  1  0
 10  9  2  0
 12 22  2  0
 12 11  1  0
 13 12  1  0
 14 15  1  0
 14 13  2  0
 15 21  2  0
 17 16  1  6
 16 15  1  0
 17 18  1  0
 19 17  1  0
 20 19  2  0
 21 22  1  0
 24 23  1  1
 24 26  1  0
 25 24  1  0
 26 27  1  6
 26 28  1  0
 27 19  1  0
 28 30  1  0
 29 28  2  0
M  END
$$$$
