HYT.pdb
     RDKit          3D

 30 31  0  0  1  0  0  0  0  0999 V2000
   26.1192  -11.2940  -19.0303 N   0  0  0  0  0  0  0  0  0  0  0  0
   26.0960  -10.2738  -17.9801 C   0  0  1  0  0  0  0  0  0  0  0  0
   26.8303   -9.0717  -18.5157 C   0  0  0  0  0  0  0  0  0  0  0  0
   28.2698   -9.4807  -18.6057 C   0  0  0  0  0  0  0  0  0  0  0  0
   28.9888   -9.5740  -19.7992 C   0  0  0  0  0  0  0  0  0  0  0  0
   30.2271   -9.9701  -19.4793 N   0  0  0  0  0  0  0  0  0  0  0  0
   30.2951  -10.1221  -18.1487 C   0  0  0  0  0  0  0  0  0  0  0  0
   29.1128   -9.8271  -17.6129 N   0  0  0  0  0  0  0  0  0  0  0  0
   24.7178  -10.0140  -17.6024 C   0  0  0  0  0  0  0  0  0  0  0  0
   23.8317  -10.0283  -18.5007 O   0  0  0  0  0  0  0  0  0  0  0  0
   16.9977   -9.1442  -13.4561 O   0  0  0  0  0  0  0  0  0  0  0  0
   18.2821   -9.4551  -13.8233 C   0  0  0  0  0  0  0  0  0  0  0  0
   18.6151   -9.8862  -15.1038 C   0  0  0  0  0  0  0  0  0  0  0  0
   19.9066  -10.1889  -15.4389 C   0  0  0  0  0  0  0  0  0  0  0  0
   20.9557  -10.0822  -14.5167 C   0  0  0  0  0  0  0  0  0  0  0  0
   22.3584  -10.4179  -14.8708 C   0  0  0  0  0  0  0  0  0  0  0  0
   22.9294   -9.4572  -15.8820 C   0  0  2  0  0  0  0  0  0  0  0  0
   24.2569   -9.7400  -16.2895 N   0  0  0  0  0  0  0  0  0  0  0  0
   22.8471   -8.0764  -15.3604 C   0  0  0  0  0  0  0  0  0  0  0  0
   23.5322   -7.8018  -14.3406 O   0  0  0  0  0  0  0  0  0  0  0  0
   20.5975   -9.6535  -13.2601 C   0  0  0  0  0  0  0  0  0  0  0  0
   19.2899   -9.3451  -12.9157 C   0  0  0  0  0  0  0  0  0  0  0  0
   23.9787   -4.8806  -16.6181 C   0  0  0  0  0  0  0  0  0  0  0  0
   22.5075   -4.6870  -16.3658 C   0  0  1  0  0  0  0  0  0  0  0  0
   21.8480   -4.8059  -17.5915 O   0  0  0  0  0  0  0  0  0  0  0  0
   21.9634   -5.7120  -15.3756 C   0  0  2  0  0  0  0  0  0  0  0  0
   22.0626   -7.0447  -15.9205 N   0  0  0  0  0  0  0  0  0  0  0  0
   20.5409   -5.3913  -15.0120 C   0  0  0  0  0  0  0  0  0  0  0  0
   19.5704   -6.1032  -15.3307 O   0  0  0  0  0  0  0  0  0  0  0  0
   20.2899   -4.2310  -14.2754 O   0  0  0  0  0  0  0  0  0  0  0  0
  2  1  1  6
  2  3  1  0
  3  4  1  0
  4  5  2  0
  5  6  1  0
  7  6  1  0
  8  4  1  0
  8  7  2  0
  9  2  1  0
  9 18  1  0
 10  9  2  0
 12 22  2  0
 12 11  1  0
 13 12  1  0
 14 15  1  0
 14 13  2  0
 15 21  2  0
 17 16  1  1
 16 15  1  0
 17 18  1  0
 19 17  1  0
 20 19  2  0
 21 22  1  0
 24 23  1  6
 24 26  1  0
 25 24  1  0
 26 27  1  6
 26 28  1  0
 27 19  1  0
 28 30  1  0
 29 28  2  0
M  END
$$$$
