WRQ.pdb
     RDKit          3D

 35 36  0  0  1  0  0  0  0  0999 V2000
   20.5681  -16.6221  -17.6909 N   0  0  0  0  0  0  0  0  0  0  0  0
   19.8280  -15.6645  -16.8815 C   0  0  1  0  0  0  0  0  0  0  0  0
   20.2988  -15.8012  -15.4214 C   0  0  0  0  0  0  0  0  0  0  0  0
   21.5929  -16.4839  -15.3679 C   0  0  0  0  0  0  0  0  0  0  0  0
   21.8162  -17.8380  -15.5725 C   0  0  0  0  0  0  0  0  0  0  0  0
   23.1162  -18.0903  -15.4155 N   0  0  0  0  0  0  0  0  0  0  0  0
   23.7819  -16.9516  -15.1111 C   0  0  0  0  0  0  0  0  0  0  0  0
   25.0931  -16.6809  -14.8620 C   0  0  0  0  0  0  0  0  0  0  0  0
   25.4803  -15.3934  -14.5778 C   0  0  0  0  0  0  0  0  0  0  0  0
   24.5220  -14.3872  -14.5493 C   0  0  0  0  0  0  0  0  0  0  0  0
   23.2116  -14.6492  -14.7976 C   0  0  0  0  0  0  0  0  0  0  0  0
   22.8131  -15.9408  -15.0836 C   0  0  0  0  0  0  0  0  0  0  0  0
   20.1810  -14.2912  -17.3519 C   0  0  0  0  0  0  0  0  0  0  0  0
   21.3856  -14.0071  -17.4721 O   0  0  0  0  0  0  0  0  0  0  0  0
   22.7732  -12.1139  -23.9515 N   0  0  0  0  0  0  0  0  0  0  0  0
   21.4570  -11.6163  -23.6870 C   0  0  0  0  0  0  0  0  0  0  0  0
   20.6966  -11.2321  -24.6581 N   0  0  0  0  0  0  0  0  0  0  0  0
   20.9578  -11.5394  -22.3639 N   0  0  0  0  0  0  0  0  0  0  0  0
   21.7934  -11.9289  -21.2586 C   0  0  0  0  0  0  0  0  0  0  0  0
   21.1786  -11.7513  -19.9099 C   0  0  0  0  0  0  0  0  0  0  0  0
   19.7869  -12.2840  -19.7501 C   0  0  0  0  0  0  0  0  0  0  0  0
   19.3015  -12.1151  -18.3086 C   0  0  2  0  0  0  0  0  0  0  0  0
   19.1741  -13.3700  -17.6427 N   0  0  0  0  0  0  0  0  0  0  0  0
   18.1132  -11.2548  -18.2151 C   0  0  0  0  0  0  0  0  0  0  0  0
   17.0487  -11.5311  -18.8521 O   0  0  0  0  0  0  0  0  0  0  0  0
   19.7589  -10.7877  -24.5067 N   0  0  0  0  0  0  0  0  0  0  0  0
   14.9077  -12.6622  -15.2236 C   0  0  0  0  0  0  0  0  0  0  0  0
   15.3565  -11.5538  -14.4691 O   0  0  0  0  0  0  0  0  0  0  0  0
   15.3592  -11.6244  -13.1842 C   0  0  0  0  0  0  0  0  0  0  0  0
   15.8378  -10.2979  -15.0623 C   0  0  0  0  0  0  0  0  0  0  0  0
   15.8947  -10.2114  -16.5273 C   0  0  1  0  0  0  0  0  0  0  0  0
   16.9418   -9.3057  -17.1021 N   0  0  0  0  0  0  0  0  0  0  0  0
   18.1432  -10.0998  -17.4050 C   0  0  0  0  0  0  0  0  0  0  0  0
   17.2644   -8.0668  -16.4289 O   0  0  0  0  0  0  0  0  0  0  0  0
   16.2287   -7.2022  -16.0086 O   0  0  0  0  0  0  0  0  0  0  0  0
  2  1  1  6
  2  3  1  0
  4  5  2  0
  4  3  1  0
  6  5  1  0
  7 12  2  0
  7  6  1  0
  8  7  1  0
  9 10  1  0
  9  8  2  0
 10 11  2  0
 11 12  1  0
 12  4  1  0
 13  2  1  0
 14 13  2  0
 16 18  1  0
 16 15  1  0
 17 16  2  0
 19 18  1  0
 20 19  1  0
 20 21  1  0
 22 21  1  6
 22 23  1  0
 23 13  1  0
 24 22  1  0
 24 25  2  0
 26 27  1  0
 27 28  2  0
 27 29  1  0
 29 30  1  0
 31 30  1  6
 31 32  1  0
 32 24  1  0
 33 34  1  0
 33 31  1  0
 35 33  2  0
M  END
$$$$
