WRQ.pdb
     RDKit          3D

 35 36  0  0  1  0  0  0  0  0999 V2000
   21.3401  -19.8384  -17.3527 N   0  0  0  0  0  0  0  0  0  0  0  0
   22.3821  -19.0734  -16.6829 C   0  0  1  0  0  0  0  0  0  0  0  0
   21.7464  -18.3319  -15.4920 C   0  0  0  0  0  0  0  0  0  0  0  0
   20.8084  -17.3145  -15.9706 C   0  0  0  0  0  0  0  0  0  0  0  0
   19.4314  -17.3223  -15.8008 C   0  0  0  0  0  0  0  0  0  0  0  0
   18.9164  -16.2461  -16.3965 N   0  0  0  0  0  0  0  0  0  0  0  0
   19.8992  -15.5086  -16.9646 C   0  0  0  0  0  0  0  0  0  0  0  0
   19.8959  -14.3452  -17.6725 C   0  0  0  0  0  0  0  0  0  0  0  0
   21.0821  -13.8232  -18.1296 C   0  0  0  0  0  0  0  0  0  0  0  0
   22.2681  -14.4957  -17.8600 C   0  0  0  0  0  0  0  0  0  0  0  0
   22.2797  -15.6570  -17.1536 C   0  0  0  0  0  0  0  0  0  0  0  0
   21.0918  -16.1895  -16.6906 C   0  0  0  0  0  0  0  0  0  0  0  0
   23.3872  -20.0368  -16.1413 C   0  0  0  0  0  0  0  0  0  0  0  0
   22.9698  -21.0951  -15.6393 O   0  0  0  0  0  0  0  0  0  0  0  0
   30.2665  -23.6322  -15.8834 N   0  0  0  0  0  0  0  0  0  0  0  0
   30.0330  -23.0180  -17.1555 C   0  0  0  0  0  0  0  0  0  0  0  0
   30.0981  -23.7168  -18.2400 N   0  0  0  0  0  0  0  0  0  0  0  0
   29.7211  -21.6401  -17.2546 N   0  0  0  0  0  0  0  0  0  0  0  0
   29.6023  -20.8443  -16.0612 C   0  0  0  0  0  0  0  0  0  0  0  0
   28.2526  -20.8615  -15.4235 C   0  0  0  0  0  0  0  0  0  0  0  0
   27.1529  -20.2054  -16.2021 C   0  0  0  0  0  0  0  0  0  0  0  0
   25.8134  -20.3444  -15.4751 C   0  0  2  0  0  0  0  0  0  0  0  0
   24.7490  -19.7392  -16.2068 N   0  0  0  0  0  0  0  0  0  0  0  0
   25.8948  -19.9299  -14.0671 C   0  0  0  0  0  0  0  0  0  0  0  0
   25.6790  -18.7260  -13.7218 O   0  0  0  0  0  0  0  0  0  0  0  0
   29.9693  -23.3019  -19.1945 N   0  0  0  0  0  0  0  0  0  0  0  0
   21.2896  -20.5140  -11.5848 C   0  0  0  0  0  0  0  0  0  0  0  0
   22.0882  -20.3996  -10.4236 O   0  0  0  0  0  0  0  0  0  0  0  0
   21.5211  -20.2142   -9.2834 C   0  0  0  0  0  0  0  0  0  0  0  0
   23.5557  -20.4854  -10.4250 C   0  0  0  0  0  0  0  0  0  0  0  0
   24.2347  -20.5644  -11.7248 C   0  0  1  0  0  0  0  0  0  0  0  0
   25.7170  -20.7856  -11.6910 N   0  0  0  0  0  0  0  0  0  0  0  0
   26.2157  -20.8779  -13.0724 C   0  0  0  0  0  0  0  0  0  0  0  0
   26.2670  -21.8209  -10.8439 O   0  0  0  0  0  0  0  0  0  0  0  0
   26.6951  -21.5072   -9.5342 O   0  0  0  0  0  0  0  0  0  0  0  0
  2  1  1  1
  2  3  1  0
  4  5  2  0
  4  3  1  0
  6  5  1  0
  7 12  2  0
  7  6  1  0
  8  7  1  0
  9 10  1  0
  9  8  2  0
 10 11  2  0
 11 12  1  0
 12  4  1  0
 13  2  1  0
 14 13  2  0
 16 18  1  0
 16 15  1  0
 17 16  2  0
 19 18  1  0
 20 19  1  0
 20 21  1  0
 22 21  1  6
 22 23  1  0
 23 13  1  0
 24 22  1  0
 24 25  2  0
 26 27  1  0
 27 28  2  0
 27 29  1  0
 29 30  1  0
 31 30  1  6
 31 32  1  0
 32 24  1  0
 33 34  1  0
 33 31  1  0
 35 33  2  0
M  END
$$$$
