WRQ.pdb
     RDKit          3D

 35 36  0  0  1  0  0  0  0  0999 V2000
   27.4115  -22.5513  -10.9528 N   0  0  0  0  0  0  0  0  0  0  0  0
   26.4264  -21.6456  -10.3794 C   0  0  1  0  0  0  0  0  0  0  0  0
   27.0947  -20.2732  -10.1740 C   0  0  0  0  0  0  0  0  0  0  0  0
   28.1437  -20.3673   -9.1569 C   0  0  0  0  0  0  0  0  0  0  0  0
   29.4731  -20.6986   -9.3764 C   0  0  0  0  0  0  0  0  0  0  0  0
   30.1149  -20.7080   -8.2075 N   0  0  0  0  0  0  0  0  0  0  0  0
   29.2642  -20.3938   -7.2024 C   0  0  0  0  0  0  0  0  0  0  0  0
   29.4238  -20.2694   -5.8557 C   0  0  0  0  0  0  0  0  0  0  0  0
   28.3486  -19.9265   -5.0716 C   0  0  0  0  0  0  0  0  0  0  0  0
   27.1128  -19.7126   -5.6705 C   0  0  0  0  0  0  0  0  0  0  0  0
   26.9456  -19.8341   -7.0140 C   0  0  0  0  0  0  0  0  0  0  0  0
   28.0210  -20.1792   -7.8100 C   0  0  0  0  0  0  0  0  0  0  0  0
   25.3221  -21.4756  -11.3711 C   0  0  0  0  0  0  0  0  0  0  0  0
   25.6296  -21.2266  -12.5500 O   0  0  0  0  0  0  0  0  0  0  0  0
   16.7457  -21.9684  -10.6620 N   0  0  0  0  0  0  0  0  0  0  0  0
   17.5886  -22.9531  -11.2701 C   0  0  0  0  0  0  0  0  0  0  0  0
   17.1630  -23.6480  -12.2725 N   0  0  0  0  0  0  0  0  0  0  0  0
   18.9026  -23.1834  -10.7947 N   0  0  0  0  0  0  0  0  0  0  0  0
   19.5167  -22.2390   -9.8988 C   0  0  0  0  0  0  0  0  0  0  0  0
   20.7096  -21.5306  -10.4501 C   0  0  0  0  0  0  0  0  0  0  0  0
   21.6851  -22.3821  -11.2046 C   0  0  0  0  0  0  0  0  0  0  0  0
   22.8209  -21.5314  -11.7776 C   0  0  2  0  0  0  0  0  0  0  0  0
   23.9923  -21.5970  -10.9663 N   0  0  0  0  0  0  0  0  0  0  0  0
   22.3865  -20.1663  -12.1074 C   0  0  0  0  0  0  0  0  0  0  0  0
   22.2390  -19.2859  -11.2029 O   0  0  0  0  0  0  0  0  0  0  0  0
   17.7499  -24.3700  -12.7562 N   0  0  0  0  0  0  0  0  0  0  0  0
   25.0116  -16.8587  -16.4119 C   0  0  0  0  0  0  0  0  0  0  0  0
   24.0540  -17.7848  -16.8857 O   0  0  0  0  0  0  0  0  0  0  0  0
   24.1224  -18.1963  -18.1032 C   0  0  0  0  0  0  0  0  0  0  0  0
   22.9626  -18.3293  -16.0652 C   0  0  0  0  0  0  0  0  0  0  0  0
   22.8545  -17.8649  -14.6761 C   0  0  1  0  0  0  0  0  0  0  0  0
   21.7446  -18.4553  -13.8596 N   0  0  0  0  0  0  0  0  0  0  0  0
   22.1277  -19.8156  -13.4495 C   0  0  0  0  0  0  0  0  0  0  0  0
   20.3856  -18.3980  -14.3515 O   0  0  0  0  0  0  0  0  0  0  0  0
   19.7578  -17.1469  -14.5449 O   0  0  0  0  0  0  0  0  0  0  0  0
  2  1  1  6
  2  3  1  0
  4  5  2  0
  4  3  1  0
  6  5  1  0
  7 12  2  0
  7  6  1  0
  8  7  1  0
  9 10  1  0
  9  8  2  0
 10 11  2  0
 11 12  1  0
 12  4  1  0
 13  2  1  0
 14 13  2  0
 16 18  1  0
 16 15  1  0
 17 16  2  0
 19 18  1  0
 20 19  1  0
 20 21  1  0
 22 21  1  1
 22 23  1  0
 23 13  1  0
 24 22  1  0
 24 25  2  0
 26 27  1  0
 27 28  2  0
 27 29  1  0
 29 30  1  0
 31 30  1  1
 31 32  1  0
 32 24  1  0
 33 34  1  0
 33 31  1  0
 35 33  2  0
M  END
$$$$
