WRQ.pdb
     RDKit          3D

 35 36  0  0  1  0  0  0  0  0999 V2000
   28.5263  -20.2485   -9.4030 N   0  0  0  0  0  0  0  0  0  0  0  0
   27.1298  -20.6522   -9.3214 C   0  0  1  0  0  0  0  0  0  0  0  0
   26.4767  -19.8960   -8.1493 C   0  0  0  0  0  0  0  0  0  0  0  0
   27.4736  -19.6003   -7.1185 C   0  0  0  0  0  0  0  0  0  0  0  0
   28.4766  -18.6447   -7.1961 C   0  0  0  0  0  0  0  0  0  0  0  0
   29.2019  -18.6875   -6.0780 N   0  0  0  0  0  0  0  0  0  0  0  0
   28.7236  -19.6409   -5.2445 C   0  0  0  0  0  0  0  0  0  0  0  0
   29.1023  -20.0683   -4.0081 C   0  0  0  0  0  0  0  0  0  0  0  0
   28.4033  -21.0795   -3.3938 C   0  0  0  0  0  0  0  0  0  0  0  0
   27.3185  -21.6499   -4.0491 C   0  0  0  0  0  0  0  0  0  0  0  0
   26.9340  -21.2284   -5.2829 C   0  0  0  0  0  0  0  0  0  0  0  0
   27.6313  -20.2128   -5.9083 C   0  0  0  0  0  0  0  0  0  0  0  0
   26.4503  -20.2236  -10.5809 C   0  0  0  0  0  0  0  0  0  0  0  0
   26.5090  -19.0221  -10.8959 O   0  0  0  0  0  0  0  0  0  0  0  0
   30.0227  -23.3749  -15.2236 N   0  0  0  0  0  0  0  0  0  0  0  0
   28.6678  -23.5650  -15.6456 C   0  0  0  0  0  0  0  0  0  0  0  0
   28.3036  -24.6779  -16.1911 N   0  0  0  0  0  0  0  0  0  0  0  0
   27.6991  -22.5467  -15.4709 N   0  0  0  0  0  0  0  0  0  0  0  0
   28.0739  -21.2975  -14.8620 C   0  0  0  0  0  0  0  0  0  0  0  0
   27.1893  -20.8494  -13.7461 C   0  0  0  0  0  0  0  0  0  0  0  0
   25.7675  -21.3190  -13.8096 C   0  0  0  0  0  0  0  0  0  0  0  0
   25.0058  -20.9216  -12.5431 C   0  0  2  0  0  0  0  0  0  0  0  0
   25.7757  -21.1592  -11.3662 N   0  0  0  0  0  0  0  0  0  0  0  0
   23.6491  -21.4861  -12.5053 C   0  0  0  0  0  0  0  0  0  0  0  0
   23.1015  -21.8104  -11.4053 O   0  0  0  0  0  0  0  0  0  0  0  0
   27.3162  -24.8723  -16.4860 N   0  0  0  0  0  0  0  0  0  0  0  0
   20.2842  -16.9683  -13.3506 C   0  0  0  0  0  0  0  0  0  0  0  0
   19.6232  -18.1178  -12.8596 O   0  0  0  0  0  0  0  0  0  0  0  0
   18.7335  -17.9892  -11.9387 C   0  0  0  0  0  0  0  0  0  0  0  0
   19.8817  -19.4821  -13.3420 C   0  0  0  0  0  0  0  0  0  0  0  0
   21.2681  -19.9658  -13.3142 C   0  0  2  0  0  0  0  0  0  0  0  0
   21.5028  -21.3494  -13.8412 N   0  0  0  0  0  0  0  0  0  0  0  0
   22.9317  -21.6739  -13.7059 C   0  0  0  0  0  0  0  0  0  0  0  0
   20.9817  -21.7189  -15.1389 O   0  0  0  0  0  0  0  0  0  0  0  0
   19.7358  -22.3784  -15.2369 O   0  0  0  0  0  0  0  0  0  0  0  0
  2  1  1  6
  2  3  1  0
  4  5  2  0
  4  3  1  0
  6  5  1  0
  7 12  2  0
  7  6  1  0
  8  7  1  0
  9 10  1  0
  9  8  2  0
 10 11  2  0
 11 12  1  0
 12  4  1  0
 13  2  1  0
 14 13  2  0
 16 18  1  0
 16 15  1  0
 17 16  2  0
 19 18  1  0
 20 19  1  0
 20 21  1  0
 22 21  1  6
 22 23  1  0
 23 13  1  0
 24 22  1  0
 24 25  2  0
 26 27  1  0
 27 28  2  0
 27 29  1  0
 29 30  1  0
 31 30  1  1
 31 32  1  0
 32 24  1  0
 33 34  1  0
 33 31  1  0
 35 33  2  0
M  END
$$$$
