WRQ.pdb
     RDKit          3D

 35 36  0  0  1  0  0  0  0  0999 V2000
   27.9365  -21.7755  -14.2538 N   0  0  0  0  0  0  0  0  0  0  0  0
   26.7754  -21.8487  -13.3785 C   0  0  1  0  0  0  0  0  0  0  0  0
   26.7354  -20.5693  -12.5220 C   0  0  0  0  0  0  0  0  0  0  0  0
   27.7756  -20.6158  -11.4926 C   0  0  0  0  0  0  0  0  0  0  0  0
   29.1450  -20.5448  -11.7050 C   0  0  0  0  0  0  0  0  0  0  0  0
   29.7702  -20.6473  -10.5316 N   0  0  0  0  0  0  0  0  0  0  0  0
   28.8697  -20.7853   -9.5304 C   0  0  0  0  0  0  0  0  0  0  0  0
   28.9950  -20.9222   -8.1812 C   0  0  0  0  0  0  0  0  0  0  0  0
   27.8696  -21.0415   -7.4017 C   0  0  0  0  0  0  0  0  0  0  0  0
   26.6190  -21.0207   -8.0077 C   0  0  0  0  0  0  0  0  0  0  0  0
   26.4857  -20.8837   -9.3535 C   0  0  0  0  0  0  0  0  0  0  0  0
   27.6117  -20.7638  -10.1451 C   0  0  0  0  0  0  0  0  0  0  0  0
   25.5514  -21.8673  -14.2349 C   0  0  0  0  0  0  0  0  0  0  0  0
   25.3548  -20.9015  -14.9932 O   0  0  0  0  0  0  0  0  0  0  0  0
   22.6730  -28.1464  -15.5039 N   0  0  0  0  0  0  0  0  0  0  0  0
   24.0644  -28.2333  -15.8303 C   0  0  0  0  0  0  0  0  0  0  0  0
   24.7423  -29.2896  -15.5246 N   0  0  0  0  0  0  0  0  0  0  0  0
   24.7254  -27.1731  -16.4973 N   0  0  0  0  0  0  0  0  0  0  0  0
   23.9576  -26.1103  -17.0912 C   0  0  0  0  0  0  0  0  0  0  0  0
   24.1159  -24.7771  -16.4384 C   0  0  0  0  0  0  0  0  0  0  0  0
   23.1464  -24.4684  -15.3379 C   0  0  0  0  0  0  0  0  0  0  0  0
   23.3842  -23.0628  -14.7813 C   0  0  2  0  0  0  0  0  0  0  0  0
   24.6680  -22.9456  -14.1709 N   0  0  0  0  0  0  0  0  0  0  0  0
   22.2693  -22.5958  -13.9448 C   0  0  0  0  0  0  0  0  0  0  0  0
   22.1762  -22.9340  -12.7233 O   0  0  0  0  0  0  0  0  0  0  0  0
   25.7648  -29.3914  -15.7338 N   0  0  0  0  0  0  0  0  0  0  0  0
   20.2491  -16.6977  -14.3450 C   0  0  0  0  0  0  0  0  0  0  0  0
   19.4720  -17.3172  -13.3392 O   0  0  0  0  0  0  0  0  0  0  0  0
   18.7136  -16.5939  -12.5924 C   0  0  0  0  0  0  0  0  0  0  0  0
   19.4637  -18.7648  -13.0832 C   0  0  0  0  0  0  0  0  0  0  0  0
   20.3865  -19.6018  -13.8609 C   0  0  2  0  0  0  0  0  0  0  0  0
   20.2555  -21.0842  -13.6808 N   0  0  0  0  0  0  0  0  0  0  0  0
   21.2799  -21.7548  -14.4971 C   0  0  0  0  0  0  0  0  0  0  0  0
   18.9582  -21.7096  -13.8148 O   0  0  0  0  0  0  0  0  0  0  0  0
   18.0847  -21.7665  -12.7054 O   0  0  0  0  0  0  0  0  0  0  0  0
  2  1  1  6
  2  3  1  0
  4  5  2  0
  4  3  1  0
  6  5  1  0
  7 12  2  0
  7  6  1  0
  8  7  1  0
  9 10  1  0
  9  8  2  0
 10 11  2  0
 11 12  1  0
 12  4  1  0
 13  2  1  0
 14 13  2  0
 16 18  1  0
 16 15  1  0
 17 16  2  0
 19 18  1  0
 20 19  1  0
 20 21  1  0
 22 21  1  1
 22 23  1  0
 23 13  1  0
 24 22  1  0
 24 25  2  0
 26 27  1  0
 27 28  2  0
 27 29  1  0
 29 30  1  0
 31 30  1  1
 31 32  1  0
 32 24  1  0
 33 34  1  0
 33 31  1  0
 35 33  2  0
M  END
$$$$
