WRQ.pdb
     RDKit          3D

 35 36  0  0  1  0  0  0  0  0999 V2000
   25.4129  -19.1057  -12.2200 N   0  0  0  0  0  0  0  0  0  0  0  0
   26.5544  -20.0064  -12.2943 C   0  0  1  0  0  0  0  0  0  0  0  0
   26.2493  -21.2443  -11.4302 C   0  0  0  0  0  0  0  0  0  0  0  0
   26.0854  -20.8558  -10.0281 C   0  0  0  0  0  0  0  0  0  0  0  0
   24.8827  -20.7075   -9.3522 C   0  0  0  0  0  0  0  0  0  0  0  0
   25.1348  -20.3185   -8.1019 N   0  0  0  0  0  0  0  0  0  0  0  0
   26.4690  -20.1983   -7.9075 C   0  0  0  0  0  0  0  0  0  0  0  0
   27.2220  -19.8406   -6.8307 C   0  0  0  0  0  0  0  0  0  0  0  0
   28.5918  -19.8127   -6.9369 C   0  0  0  0  0  0  0  0  0  0  0  0
   29.1856  -20.1511   -8.1471 C   0  0  0  0  0  0  0  0  0  0  0  0
   28.4410  -20.5099   -9.2262 C   0  0  0  0  0  0  0  0  0  0  0  0
   27.0631  -20.5401   -9.1287 C   0  0  0  0  0  0  0  0  0  0  0  0
   26.6954  -20.4580  -13.7114 C   0  0  0  0  0  0  0  0  0  0  0  0
   25.7193  -20.3168  -14.4688 O   0  0  0  0  0  0  0  0  0  0  0  0
   30.8354  -26.5809  -16.5028 N   0  0  0  0  0  0  0  0  0  0  0  0
   31.0789  -25.9955  -17.7866 C   0  0  0  0  0  0  0  0  0  0  0  0
   31.1223  -26.7358  -18.8444 N   0  0  0  0  0  0  0  0  0  0  0  0
   31.2707  -24.5994  -17.9278 N   0  0  0  0  0  0  0  0  0  0  0  0
   31.1204  -23.7360  -16.7861 C   0  0  0  0  0  0  0  0  0  0  0  0
   29.7369  -23.2218  -16.5620 C   0  0  0  0  0  0  0  0  0  0  0  0
   29.5820  -22.2208  -15.4574 C   0  0  0  0  0  0  0  0  0  0  0  0
   28.1339  -21.7354  -15.3617 C   0  0  2  0  0  0  0  0  0  0  0  0
   27.8949  -21.0186  -14.1519 N   0  0  0  0  0  0  0  0  0  0  0  0
   27.1650  -22.8068  -15.6341 C   0  0  0  0  0  0  0  0  0  0  0  0
   27.0439  -23.7997  -14.8501 O   0  0  0  0  0  0  0  0  0  0  0  0
   31.2951  -26.3497  -19.8040 N   0  0  0  0  0  0  0  0  0  0  0  0
   22.8786  -21.8822  -13.0535 C   0  0  0  0  0  0  0  0  0  0  0  0
   22.2582  -22.6940  -14.0308 O   0  0  0  0  0  0  0  0  0  0  0  0
   21.0475  -23.0897  -13.8468 C   0  0  0  0  0  0  0  0  0  0  0  0
   22.9112  -23.1241  -15.2756 C   0  0  0  0  0  0  0  0  0  0  0  0
   24.3064  -22.7192  -15.4909 C   0  0  2  0  0  0  0  0  0  0  0  0
   24.9347  -23.1502  -16.7819 N   0  0  0  0  0  0  0  0  0  0  0  0
   26.3482  -22.7411  -16.7828 C   0  0  0  0  0  0  0  0  0  0  0  0
   24.2791  -22.8440  -18.0343 O   0  0  0  0  0  0  0  0  0  0  0  0
   23.3395  -23.7486  -18.5781 O   0  0  0  0  0  0  0  0  0  0  0  0
  2  1  1  6
  2  3  1  0
  4  5  2  0
  4  3  1  0
  6  5  1  0
  7 12  2  0
  7  6  1  0
  8  7  1  0
  9 10  1  0
  9  8  2  0
 10 11  2  0
 11 12  1  0
 12  4  1  0
 13  2  1  0
 14 13  2  0
 16 18  1  0
 16 15  1  0
 17 16  2  0
 19 18  1  0
 20 19  1  0
 20 21  1  0
 22 21  1  1
 22 23  1  0
 23 13  1  0
 24 22  1  0
 24 25  2  0
 26 27  1  0
 27 28  2  0
 27 29  1  0
 29 30  1  0
 31 30  1  1
 31 32  1  0
 32 24  1  0
 33 34  1  0
 33 31  1  0
 35 33  2  0
M  END
$$$$
