WRQ.pdb
     RDKit          3D

 35 36  0  0  1  0  0  0  0  0999 V2000
   28.6463  -20.8097  -11.8336 N   0  0  0  0  0  0  0  0  0  0  0  0
   27.4773  -21.3297  -11.1388 C   0  0  1  0  0  0  0  0  0  0  0  0
   27.1620  -20.3934   -9.9573 C   0  0  0  0  0  0  0  0  0  0  0  0
   28.2502  -20.4286   -8.9783 C   0  0  0  0  0  0  0  0  0  0  0  0
   29.5940  -20.6408   -9.2514 C   0  0  0  0  0  0  0  0  0  0  0  0
   30.2750  -20.6300   -8.1050 N   0  0  0  0  0  0  0  0  0  0  0  0
   29.4371  -20.4174   -7.0633 C   0  0  0  0  0  0  0  0  0  0  0  0
   29.6329  -20.3189   -5.7192 C   0  0  0  0  0  0  0  0  0  0  0  0
   28.5612  -20.0901   -4.8900 C   0  0  0  0  0  0  0  0  0  0  0  0
   27.2917  -19.9634   -5.4413 C   0  0  0  0  0  0  0  0  0  0  0  0
   27.0881  -20.0597   -6.7818 C   0  0  0  0  0  0  0  0  0  0  0  0
   28.1597  -20.2903   -7.6229 C   0  0  0  0  0  0  0  0  0  0  0  0
   26.3203  -21.2845  -12.0829 C   0  0  0  0  0  0  0  0  0  0  0  0
   26.1602  -20.2544  -12.7609 O   0  0  0  0  0  0  0  0  0  0  0  0
   21.6466  -24.6960  -17.3663 N   0  0  0  0  0  0  0  0  0  0  0  0
   22.8109  -25.5246  -17.2779 C   0  0  0  0  0  0  0  0  0  0  0  0
   23.4542  -25.8631  -18.3459 N   0  0  0  0  0  0  0  0  0  0  0  0
   23.2859  -25.9852  -16.0257 N   0  0  0  0  0  0  0  0  0  0  0  0
   22.6511  -25.5437  -14.8117 C   0  0  0  0  0  0  0  0  0  0  0  0
   22.9842  -24.1488  -14.3971 C   0  0  0  0  0  0  0  0  0  0  0  0
   24.1251  -24.0069  -13.4357 C   0  0  0  0  0  0  0  0  0  0  0  0
   24.3523  -22.5375  -13.0734 C   0  0  2  0  0  0  0  0  0  0  0  0
   25.4571  -22.3760  -12.1859 N   0  0  0  0  0  0  0  0  0  0  0  0
   23.1177  -21.8720  -12.6333 C   0  0  0  0  0  0  0  0  0  0  0  0
   22.4139  -22.3486  -11.6885 O   0  0  0  0  0  0  0  0  0  0  0  0
   24.3006  -26.4820  -18.3297 N   0  0  0  0  0  0  0  0  0  0  0  0
   20.4109  -17.3599  -16.4892 C   0  0  0  0  0  0  0  0  0  0  0  0
   19.4768  -17.6775  -15.4764 O   0  0  0  0  0  0  0  0  0  0  0  0
   18.2861  -17.1937  -15.5418 C   0  0  0  0  0  0  0  0  0  0  0  0
   19.7741  -18.5471  -14.3290 C   0  0  0  0  0  0  0  0  0  0  0  0
   21.0989  -19.1787  -14.2751 C   0  0  2  0  0  0  0  0  0  0  0  0
   21.3181  -20.1765  -13.1780 N   0  0  0  0  0  0  0  0  0  0  0  0
   22.6979  -20.6809  -13.2628 C   0  0  0  0  0  0  0  0  0  0  0  0
   20.3608  -21.2421  -12.9779 O   0  0  0  0  0  0  0  0  0  0  0  0
   19.4408  -21.1719  -11.9075 O   0  0  0  0  0  0  0  0  0  0  0  0
  2  1  1  6
  2  3  1  0
  4  5  2  0
  4  3  1  0
  6  5  1  0
  7 12  2  0
  7  6  1  0
  8  7  1  0
  9 10  1  0
  9  8  2  0
 10 11  2  0
 11 12  1  0
 12  4  1  0
 13  2  1  0
 14 13  2  0
 16 18  1  0
 16 15  1  0
 17 16  2  0
 19 18  1  0
 20 19  1  0
 20 21  1  0
 22 21  1  1
 22 23  1  0
 23 13  1  0
 24 22  1  0
 24 25  2  0
 26 27  1  0
 27 28  2  0
 27 29  1  0
 29 30  1  0
 31 30  1  1
 31 32  1  0
 32 24  1  0
 33 34  1  0
 33 31  1  0
 35 33  2  0
M  END
$$$$
