WRQ.pdb
     RDKit          3D

 35 36  0  0  1  0  0  0  0  0999 V2000
   27.2029  -19.6434  -13.0815 N   0  0  0  0  0  0  0  0  0  0  0  0
   27.0547  -21.0716  -12.8405 C   0  0  1  0  0  0  0  0  0  0  0  0
   26.4288  -21.2632  -11.4463 C   0  0  0  0  0  0  0  0  0  0  0  0
   27.4084  -20.9514  -10.4037 C   0  0  0  0  0  0  0  0  0  0  0  0
   28.7763  -21.1749  -10.4687 C   0  0  0  0  0  0  0  0  0  0  0  0
   29.3327  -20.7872   -9.3206 N   0  0  0  0  0  0  0  0  0  0  0  0
   28.3870  -20.3078   -8.4790 C   0  0  0  0  0  0  0  0  0  0  0  0
   28.4390  -19.7988   -7.2169 C   0  0  0  0  0  0  0  0  0  0  0  0
   27.2828  -19.3790   -6.6041 C   0  0  0  0  0  0  0  0  0  0  0  0
   26.0767  -19.4826   -7.2868 C   0  0  0  0  0  0  0  0  0  0  0  0
   26.0166  -19.9888   -8.5469 C   0  0  0  0  0  0  0  0  0  0  0  0
   27.1739  -20.4140   -9.1705 C   0  0  0  0  0  0  0  0  0  0  0  0
   26.0989  -21.6144  -13.8522 C   0  0  0  0  0  0  0  0  0  0  0  0
   25.0439  -20.9877  -14.0537 O   0  0  0  0  0  0  0  0  0  0  0  0
   24.3545  -27.1603  -19.4898 N   0  0  0  0  0  0  0  0  0  0  0  0
   25.7465  -26.8250  -19.4851 C   0  0  0  0  0  0  0  0  0  0  0  0
   26.3368  -26.4714  -20.5783 N   0  0  0  0  0  0  0  0  0  0  0  0
   26.5034  -26.8667  -18.2888 N   0  0  0  0  0  0  0  0  0  0  0  0
   25.8399  -27.0661  -17.0272 C   0  0  0  0  0  0  0  0  0  0  0  0
   25.2492  -25.8350  -16.4237 C   0  0  0  0  0  0  0  0  0  0  0  0
   26.2035  -24.9460  -15.6853 C   0  0  0  0  0  0  0  0  0  0  0  0
   25.4929  -23.6913  -15.1727 C   0  0  2  0  0  0  0  0  0  0  0  0
   26.4000  -22.7906  -14.5399 N   0  0  0  0  0  0  0  0  0  0  0  0
   24.2990  -24.0099  -14.3763 C   0  0  0  0  0  0  0  0  0  0  0  0
   24.3948  -24.3657  -13.1600 O   0  0  0  0  0  0  0  0  0  0  0  0
   27.3553  -26.2252  -20.6227 N   0  0  0  0  0  0  0  0  0  0  0  0
   22.2386  -19.1297  -12.6420 C   0  0  0  0  0  0  0  0  0  0  0  0
   21.6192  -20.2307  -12.0068 O   0  0  0  0  0  0  0  0  0  0  0  0
   21.3465  -20.1634  -10.7509 C   0  0  0  0  0  0  0  0  0  0  0  0
   21.2498  -21.4751  -12.6968 C   0  0  0  0  0  0  0  0  0  0  0  0
   22.2853  -22.1507  -13.4893 C   0  0  2  0  0  0  0  0  0  0  0  0
   21.8537  -23.3654  -14.2544 N   0  0  0  0  0  0  0  0  0  0  0  0
   23.0184  -23.9204  -14.9621 C   0  0  0  0  0  0  0  0  0  0  0  0
   20.6833  -23.2991  -15.1016 O   0  0  0  0  0  0  0  0  0  0  0  0
   19.4583  -23.8447  -14.6561 O   0  0  0  0  0  0  0  0  0  0  0  0
  2  1  1  6
  2  3  1  0
  4  5  2  0
  4  3  1  0
  6  5  1  0
  7 12  2  0
  7  6  1  0
  8  7  1  0
  9 10  1  0
  9  8  2  0
 10 11  2  0
 11 12  1  0
 12  4  1  0
 13  2  1  0
 14 13  2  0
 16 18  1  0
 16 15  1  0
 17 16  2  0
 19 18  1  0
 20 19  1  0
 20 21  1  0
 22 21  1  1
 22 23  1  0
 23 13  1  0
 24 22  1  0
 24 25  2  0
 26 27  1  0
 27 28  2  0
 27 29  1  0
 29 30  1  0
 31 30  1  1
 31 32  1  0
 32 24  1  0
 33 34  1  0
 33 31  1  0
 35 33  2  0
M  END
$$$$
