WRQ.pdb
     RDKit          3D

 35 36  0  0  1  0  0  0  0  0999 V2000
   27.0310  -22.2470  -13.2048 N   0  0  0  0  0  0  0  0  0  0  0  0
   26.0808  -21.6005  -12.3109 C   0  0  1  0  0  0  0  0  0  0  0  0
   26.6810  -20.2559  -11.8594 C   0  0  0  0  0  0  0  0  0  0  0  0
   27.7709  -20.4813  -10.9080 C   0  0  0  0  0  0  0  0  0  0  0  0
   29.1224  -20.5619  -11.2113 C   0  0  0  0  0  0  0  0  0  0  0  0
   29.8035  -20.8013  -10.0902 N   0  0  0  0  0  0  0  0  0  0  0  0
   28.9581  -20.8856   -9.0363 C   0  0  0  0  0  0  0  0  0  0  0  0
   29.1509  -21.1093   -7.7068 C   0  0  0  0  0  0  0  0  0  0  0  0
   28.0710  -21.1363   -6.8575 C   0  0  0  0  0  0  0  0  0  0  0  0
   26.7965  -20.9343   -7.3736 C   0  0  0  0  0  0  0  0  0  0  0  0
   26.5959  -20.7097   -8.6991 C   0  0  0  0  0  0  0  0  0  0  0  0
   27.6758  -20.6816   -9.5606 C   0  0  0  0  0  0  0  0  0  0  0  0
   24.8380  -21.3117  -13.0880 C   0  0  0  0  0  0  0  0  0  0  0  0
   24.9406  -21.1605  -14.3180 O   0  0  0  0  0  0  0  0  0  0  0  0
   16.0976  -21.0551  -12.7317 N   0  0  0  0  0  0  0  0  0  0  0  0
   16.5211  -22.4060  -12.9454 C   0  0  0  0  0  0  0  0  0  0  0  0
   15.7441  -23.2473  -13.5433 N   0  0  0  0  0  0  0  0  0  0  0  0
   17.7959  -22.8482  -12.5151 N   0  0  0  0  0  0  0  0  0  0  0  0
   18.7084  -21.9184  -11.9032 C   0  0  0  0  0  0  0  0  0  0  0  0
   19.8734  -21.5276  -12.7509 C   0  0  0  0  0  0  0  0  0  0  0  0
   21.2218  -21.6585  -12.1099 C   0  0  0  0  0  0  0  0  0  0  0  0
   22.3140  -21.0898  -13.0185 C   0  0  2  0  0  0  0  0  0  0  0  0
   23.6088  -21.2187  -12.4341 N   0  0  0  0  0  0  0  0  0  0  0  0
   21.9960  -19.7368  -13.4972 C   0  0  0  0  0  0  0  0  0  0  0  0
   21.7289  -18.7969  -12.6845 O   0  0  0  0  0  0  0  0  0  0  0  0
   16.0144  -24.2443  -13.7241 N   0  0  0  0  0  0  0  0  0  0  0  0
   23.5663  -19.4177  -19.0745 C   0  0  0  0  0  0  0  0  0  0  0  0
   22.1575  -19.3853  -18.9594 O   0  0  0  0  0  0  0  0  0  0  0  0
   21.4382  -19.9879  -19.8400 C   0  0  0  0  0  0  0  0  0  0  0  0
   21.4380  -18.7006  -17.8756 C   0  0  0  0  0  0  0  0  0  0  0  0
   22.2369  -18.0535  -16.8268 C   0  0  1  0  0  0  0  0  0  0  0  0
   21.6947  -18.1313  -15.4314 N   0  0  0  0  0  0  0  0  0  0  0  0
   21.9859  -19.4649  -14.8818 C   0  0  0  0  0  0  0  0  0  0  0  0
   20.3330  -17.7203  -15.1688 O   0  0  0  0  0  0  0  0  0  0  0  0
   20.0129  -16.3459  -15.0956 O   0  0  0  0  0  0  0  0  0  0  0  0
  2  1  1  6
  2  3  1  0
  4  5  2  0
  4  3  1  0
  6  5  1  0
  7 12  2  0
  7  6  1  0
  8  7  1  0
  9 10  1  0
  9  8  2  0
 10 11  2  0
 11 12  1  0
 12  4  1  0
 13  2  1  0
 14 13  2  0
 16 18  1  0
 16 15  1  0
 17 16  2  0
 19 18  1  0
 20 19  1  0
 20 21  1  0
 22 21  1  1
 22 23  1  0
 23 13  1  0
 24 22  1  0
 24 25  2  0
 26 27  1  0
 27 28  2  0
 27 29  1  0
 29 30  1  0
 31 30  1  1
 31 32  1  0
 32 24  1  0
 33 34  1  0
 33 31  1  0
 35 33  2  0
M  END
$$$$
