WRQ.pdb
     RDKit          3D

 35 36  0  0  1  0  0  0  0  0999 V2000
   27.8893  -20.6715   -9.6051 N   0  0  0  0  0  0  0  0  0  0  0  0
   26.5333  -21.1805   -9.4572 C   0  0  1  0  0  0  0  0  0  0  0  0
   25.9687  -20.6678   -8.1191 C   0  0  0  0  0  0  0  0  0  0  0  0
   26.9758  -19.8708   -7.4161 C   0  0  0  0  0  0  0  0  0  0  0  0
   27.3597  -18.5739   -7.7259 C   0  0  0  0  0  0  0  0  0  0  0  0
   28.3189  -18.1936   -6.8812 N   0  0  0  0  0  0  0  0  0  0  0  0
   28.5981  -19.1901   -6.0086 C   0  0  0  0  0  0  0  0  0  0  0  0
   29.4763  -19.2989   -4.9734 C   0  0  0  0  0  0  0  0  0  0  0  0
   29.5317  -20.4643   -4.2473 C   0  0  0  0  0  0  0  0  0  0  0  0
   28.6869  -21.5149   -4.5850 C   0  0  0  0  0  0  0  0  0  0  0  0
   27.8072  -21.4139   -5.6163 C   0  0  0  0  0  0  0  0  0  0  0  0
   27.7451  -20.2461   -6.3522 C   0  0  0  0  0  0  0  0  0  0  0  0
   25.7015  -20.6065  -10.5574 C   0  0  0  0  0  0  0  0  0  0  0  0
   25.2503  -19.4573  -10.4093 O   0  0  0  0  0  0  0  0  0  0  0  0
   26.1198  -25.7961  -15.4070 N   0  0  0  0  0  0  0  0  0  0  0  0
   25.5853  -24.9164  -16.4023 C   0  0  0  0  0  0  0  0  0  0  0  0
   24.7374  -25.3538  -17.2732 N   0  0  0  0  0  0  0  0  0  0  0  0
   25.9660  -23.5532  -16.4520 N   0  0  0  0  0  0  0  0  0  0  0  0
   26.7328  -22.9832  -15.3755 C   0  0  0  0  0  0  0  0  0  0  0  0
   25.9459  -22.6365  -14.1552 C   0  0  0  0  0  0  0  0  0  0  0  0
   25.3073  -21.2807  -14.1521 C   0  0  0  0  0  0  0  0  0  0  0  0
   24.6179  -21.0067  -12.8136 C   0  0  2  0  0  0  0  0  0  0  0  0
   25.4504  -21.3540  -11.7087 N   0  0  0  0  0  0  0  0  0  0  0  0
   23.2631  -21.5743  -12.7550 C   0  0  0  0  0  0  0  0  0  0  0  0
   23.0690  -22.7790  -12.3996 O   0  0  0  0  0  0  0  0  0  0  0  0
   24.3137  -24.7434  -18.0132 N   0  0  0  0  0  0  0  0  0  0  0  0
   20.1269  -22.9771   -8.8835 C   0  0  0  0  0  0  0  0  0  0  0  0
   19.0727  -22.7769   -9.8042 O   0  0  0  0  0  0  0  0  0  0  0  0
   17.8780  -23.1308   -9.4825 C   0  0  0  0  0  0  0  0  0  0  0  0
   19.2471  -22.1730  -11.1331 C   0  0  0  0  0  0  0  0  0  0  0  0
   20.5995  -21.7507  -11.5200 C   0  0  1  0  0  0  0  0  0  0  0  0
   20.7608  -21.2239  -12.9141 N   0  0  0  0  0  0  0  0  0  0  0  0
   22.1507  -20.7757  -13.0952 C   0  0  0  0  0  0  0  0  0  0  0  0
   19.8087  -20.2661  -13.4319 O   0  0  0  0  0  0  0  0  0  0  0  0
   18.4505  -20.6289  -13.5756 O   0  0  0  0  0  0  0  0  0  0  0  0
  2  1  1  6
  2  3  1  0
  4  5  2  0
  4  3  1  0
  6  5  1  0
  7 12  2  0
  7  6  1  0
  8  7  1  0
  9 10  1  0
  9  8  2  0
 10 11  2  0
 11 12  1  0
 12  4  1  0
 13  2  1  0
 14 13  2  0
 16 18  1  0
 16 15  1  0
 17 16  2  0
 19 18  1  0
 20 19  1  0
 20 21  1  0
 22 21  1  6
 22 23  1  0
 23 13  1  0
 24 22  1  0
 24 25  2  0
 26 27  1  0
 27 28  2  0
 27 29  1  0
 29 30  1  0
 31 30  1  6
 31 32  1  0
 32 24  1  0
 33 34  1  0
 33 31  1  0
 35 33  2  0
M  END
$$$$
