WRQ.pdb
     RDKit          3D

 35 36  0  0  1  0  0  0  0  0999 V2000
   29.1170  -20.8097  -10.4048 N   0  0  0  0  0  0  0  0  0  0  0  0
   27.7051  -20.8182  -10.0493 C   0  0  1  0  0  0  0  0  0  0  0  0
   27.3857  -19.5050   -9.3105 C   0  0  0  0  0  0  0  0  0  0  0  0
   28.1467  -19.4278   -8.0621 C   0  0  0  0  0  0  0  0  0  0  0  0
   29.3919  -18.8390   -7.8944 C   0  0  0  0  0  0  0  0  0  0  0  0
   29.7741  -18.9901   -6.6258 N   0  0  0  0  0  0  0  0  0  0  0  0
   28.8289  -19.6620   -5.9276 C   0  0  0  0  0  0  0  0  0  0  0  0
   28.7413  -20.0587   -4.6278 C   0  0  0  0  0  0  0  0  0  0  0  0
   27.6279  -20.7396   -4.1974 C   0  0  0  0  0  0  0  0  0  0  0  0
   26.6078  -21.0122   -5.1011 C   0  0  0  0  0  0  0  0  0  0  0  0
   26.6874  -20.6189   -6.3998 C   0  0  0  0  0  0  0  0  0  0  0  0
   27.8034  -19.9345   -6.8414 C   0  0  0  0  0  0  0  0  0  0  0  0
   26.9101  -20.8396  -11.3139 C   0  0  0  0  0  0  0  0  0  0  0  0
   27.3140  -20.1533  -12.2690 O   0  0  0  0  0  0  0  0  0  0  0  0
   27.0404  -25.7124  -16.0675 N   0  0  0  0  0  0  0  0  0  0  0  0
   25.7878  -25.0204  -16.0185 C   0  0  0  0  0  0  0  0  0  0  0  0
   25.4744  -24.1711  -16.9400 N   0  0  0  0  0  0  0  0  0  0  0  0
   24.8658  -25.2532  -14.9691 N   0  0  0  0  0  0  0  0  0  0  0  0
   23.6560  -24.4770  -14.8923 C   0  0  0  0  0  0  0  0  0  0  0  0
   23.7995  -23.1501  -14.2234 C   0  0  0  0  0  0  0  0  0  0  0  0
   24.7229  -23.1087  -13.0438 C   0  0  0  0  0  0  0  0  0  0  0  0
   24.8281  -21.6881  -12.4844 C   0  0  2  0  0  0  0  0  0  0  0  0
   25.7521  -21.6134  -11.4003 N   0  0  0  0  0  0  0  0  0  0  0  0
   23.5115  -21.0987  -12.2017 C   0  0  0  0  0  0  0  0  0  0  0  0
   22.6316  -21.7380  -11.5442 O   0  0  0  0  0  0  0  0  0  0  0  0
   24.5351  -23.7077  -16.9930 N   0  0  0  0  0  0  0  0  0  0  0  0
   22.2756  -17.5401  -17.2102 C   0  0  0  0  0  0  0  0  0  0  0  0
   21.0373  -17.6646  -16.5391 O   0  0  0  0  0  0  0  0  0  0  0  0
   19.9670  -17.2250  -17.1025 C   0  0  0  0  0  0  0  0  0  0  0  0
   20.8803  -18.2808  -15.2137 C   0  0  0  0  0  0  0  0  0  0  0  0
   22.0942  -18.7351  -14.5229 C   0  0  2  0  0  0  0  0  0  0  0  0
   21.8939  -19.4334  -13.2116 N   0  0  0  0  0  0  0  0  0  0  0  0
   23.2089  -19.7997  -12.6622 C   0  0  0  0  0  0  0  0  0  0  0  0
   20.9433  -20.5194  -13.1170 O   0  0  0  0  0  0  0  0  0  0  0  0
   19.7893  -20.3787  -12.3136 O   0  0  0  0  0  0  0  0  0  0  0  0
  2  1  1  6
  2  3  1  0
  4  5  2  0
  4  3  1  0
  6  5  1  0
  7 12  2  0
  7  6  1  0
  8  7  1  0
  9 10  1  0
  9  8  2  0
 10 11  2  0
 11 12  1  0
 12  4  1  0
 13  2  1  0
 14 13  2  0
 16 18  1  0
 16 15  1  0
 17 16  2  0
 19 18  1  0
 20 19  1  0
 20 21  1  0
 22 21  1  1
 22 23  1  0
 23 13  1  0
 24 22  1  0
 24 25  2  0
 26 27  1  0
 27 28  2  0
 27 29  1  0
 29 30  1  0
 31 30  1  1
 31 32  1  0
 32 24  1  0
 33 34  1  0
 33 31  1  0
 35 33  2  0
M  END
$$$$
