SEM.pdb
     RDKit          3D

 24 23  0  0  1  0  0  0  0  0999 V2000
   16.6586  -24.5694    3.5833 O   0  0  0  0  0  0  0  0  0  0  0  0
   16.3905  -23.2147    3.5594 C   0  0  0  0  0  0  0  0  0  0  0  0
   15.3035  -22.8600    2.5786 C   0  0  2  0  0  0  0  0  0  0  0  0
   15.6716  -23.1646    1.2275 N   0  0  0  0  0  0  0  0  0  0  0  0
   14.9995  -21.3966    2.7440 C   0  0  0  0  0  0  0  0  0  0  0  0
   15.2638  -20.6502    1.7764 O   0  0  0  0  0  0  0  0  0  0  0  0
   14.4460  -20.8858    3.9241 N   0  0  0  0  0  0  0  0  0  0  0  0
   14.1316  -19.4519    4.0673 C   0  0  1  0  0  0  0  0  0  0  0  0
   12.9613  -19.3644    4.9720 C   0  0  0  0  0  0  0  0  0  0  0  0
   12.4942  -18.0376    5.4182 C   0  0  0  0  0  0  0  0  0  0  0  0
   11.3055  -18.0746    6.3061 C   0  0  0  0  0  0  0  0  0  0  0  0
   11.3331  -18.6741    7.4046 O   0  0  0  0  0  0  0  0  0  0  0  0
   15.3317  -18.7040    4.4388 C   0  0  0  0  0  0  0  0  0  0  0  0
   16.2382  -19.3222    5.1183 O   0  0  0  0  0  0  0  0  0  0  0  0
   10.1083  -17.4449    5.9569 O   0  0  0  0  0  0  0  0  0  0  0  0
   20.1062  -12.2950    3.7126 C   0  0  0  0  0  0  0  0  0  0  0  0
   18.6209  -13.1757    3.3241 S   0  0  0  0  0  0  0  0  0  0  0  0
   18.2229  -14.5950    4.3264 C   0  0  0  0  0  0  0  0  0  0  0  0
   17.0399  -15.3913    3.9026 C   0  0  0  0  0  0  0  0  0  0  0  0
   16.8012  -16.6731    4.6420 C   0  0  2  0  0  0  0  0  0  0  0  0
   15.6146  -17.3591    4.1292 N   0  0  0  0  0  0  0  0  0  0  0  0
   16.7370  -16.5189    6.1016 C   0  0  0  0  0  0  0  0  0  0  0  0
   17.7661  -16.5647    6.9967 O   0  0  0  0  0  0  0  0  0  0  0  0
   15.5693  -16.3139    6.6068 O   0  0  0  0  0  0  0  0  0  0  0  0
  2  3  1  0
  2  1  1  0
  3  4  1  6
  5  6  2  0
  5  3  1  0
  7  5  1  0
  8  7  1  0
  8 13  1  0
  8  9  1  1
 10 11  1  0
 10  9  1  0
 11 15  1  0
 12 11  2  0
 13 21  1  0
 14 13  2  0
 17 16  1  0
 18 17  1  0
 20 19  1  6
 19 18  1  0
 20 22  1  0
 21 20  1  0
 22 24  2  0
 22 23  1  0
M  END
$$$$
