SEM.pdb
     RDKit          3D

 24 23  0  0  1  0  0  0  0  0999 V2000
   14.9176  -11.0533  -14.5568 O   0  0  0  0  0  0  0  0  0  0  0  0
   16.0044  -10.2886  -14.1804 C   0  0  0  0  0  0  0  0  0  0  0  0
   16.8877  -10.9938  -13.1845 C   0  0  2  0  0  0  0  0  0  0  0  0
   16.2245  -12.0993  -12.5588 N   0  0  0  0  0  0  0  0  0  0  0  0
   17.3308   -9.9779  -12.1682 C   0  0  0  0  0  0  0  0  0  0  0  0
   16.9278  -10.1368  -10.9954 O   0  0  0  0  0  0  0  0  0  0  0  0
   18.1567   -8.9009  -12.5116 N   0  0  0  0  0  0  0  0  0  0  0  0
   18.5409   -7.8802  -11.5187 C   0  0  1  0  0  0  0  0  0  0  0  0
   19.6903   -7.1429  -12.0938 C   0  0  0  0  0  0  0  0  0  0  0  0
   20.2037   -5.9502  -11.3928 C   0  0  0  0  0  0  0  0  0  0  0  0
   21.2755   -5.2267  -12.1214 C   0  0  0  0  0  0  0  0  0  0  0  0
   22.4700   -5.2919  -11.7532 O   0  0  0  0  0  0  0  0  0  0  0  0
   17.3717   -7.1015  -11.1132 C   0  0  0  0  0  0  0  0  0  0  0  0
   16.5076   -6.7980  -12.0225 O   0  0  0  0  0  0  0  0  0  0  0  0
   20.9998   -4.4442  -13.2455 O   0  0  0  0  0  0  0  0  0  0  0  0
   11.7223   -5.4562   -5.8146 C   0  0  0  0  0  0  0  0  0  0  0  0
   13.1718   -6.3029   -6.3758 S   0  0  0  0  0  0  0  0  0  0  0  0
   13.9887   -5.6594   -7.8236 C   0  0  0  0  0  0  0  0  0  0  0  0
   15.1681   -6.4241   -8.3105 C   0  0  0  0  0  0  0  0  0  0  0  0
   15.8676   -5.8722   -9.5158 C   0  0  2  0  0  0  0  0  0  0  0  0
   17.0771   -6.6396   -9.8154 N   0  0  0  0  0  0  0  0  0  0  0  0
   16.1571   -4.4343   -9.4335 C   0  0  0  0  0  0  0  0  0  0  0  0
   15.2759   -3.3948   -9.5082 O   0  0  0  0  0  0  0  0  0  0  0  0
   17.3923   -4.1054   -9.2695 O   0  0  0  0  0  0  0  0  0  0  0  0
  2  3  1  0
  2  1  1  0
  3  4  1  1
  5  6  2  0
  5  3  1  0
  7  5  1  0
  8  7  1  0
  8 13  1  0
  8  9  1  6
 10 11  1  0
 10  9  1  0
 11 15  1  0
 12 11  2  0
 13 21  1  0
 14 13  2  0
 17 16  1  0
 18 17  1  0
 20 19  1  1
 19 18  1  0
 20 22  1  0
 21 20  1  0
 22 24  2  0
 22 23  1  0
M  END
$$$$
