SEM.pdb
     RDKit          3D

 24 23  0  0  1  0  0  0  0  0999 V2000
   17.0328  -10.7591  -14.1319 O   0  0  0  0  0  0  0  0  0  0  0  0
   16.4714   -9.7623  -14.9057 C   0  0  0  0  0  0  0  0  0  0  0  0
   16.7986   -9.9153  -16.3682 C   0  0  2  0  0  0  0  0  0  0  0  0
   17.1095  -11.2704  -16.7155 N   0  0  0  0  0  0  0  0  0  0  0  0
   17.9478   -8.9960  -16.6771 C   0  0  0  0  0  0  0  0  0  0  0  0
   18.9902   -9.5225  -17.1238 O   0  0  0  0  0  0  0  0  0  0  0  0
   17.8623   -7.6131  -16.4765 N   0  0  0  0  0  0  0  0  0  0  0  0
   18.9424   -6.7060  -16.9077 C   0  0  1  0  0  0  0  0  0  0  0  0
   18.3435   -5.3546  -17.0098 C   0  0  0  0  0  0  0  0  0  0  0  0
   19.2078   -4.2083  -17.3512 C   0  0  0  0  0  0  0  0  0  0  0  0
   18.4998   -2.9052  -17.4119 C   0  0  0  0  0  0  0  0  0  0  0  0
   18.3299   -2.2094  -16.3854 O   0  0  0  0  0  0  0  0  0  0  0  0
   20.1126   -6.8645  -16.0456 C   0  0  0  0  0  0  0  0  0  0  0  0
   19.9089   -7.0442  -14.7839 O   0  0  0  0  0  0  0  0  0  0  0  0
   17.9936   -2.3998  -18.6119 O   0  0  0  0  0  0  0  0  0  0  0  0
   27.0849  -10.1770  -14.6180 C   0  0  0  0  0  0  0  0  0  0  0  0
   25.7757   -9.6815  -15.7011 S   0  0  0  0  0  0  0  0  0  0  0  0
   24.6617   -8.4183  -15.1171 C   0  0  0  0  0  0  0  0  0  0  0  0
   23.5267   -8.0730  -16.0146 C   0  0  0  0  0  0  0  0  0  0  0  0
   22.5613   -7.0474  -15.5020 C   0  0  2  0  0  0  0  0  0  0  0  0
   21.4626   -6.8451  -16.4474 N   0  0  0  0  0  0  0  0  0  0  0  0
   23.1858   -5.7703  -15.1315 C   0  0  0  0  0  0  0  0  0  0  0  0
   23.5975   -4.7659  -15.9586 O   0  0  0  0  0  0  0  0  0  0  0  0
   23.3701   -5.5647  -13.8727 O   0  0  0  0  0  0  0  0  0  0  0  0
  2  3  1  0
  2  1  1  0
  3  4  1  1
  5  6  2  0
  5  3  1  0
  7  5  1  0
  8  7  1  0
  8 13  1  0
  8  9  1  1
 10 11  1  0
 10  9  1  0
 11 15  1  0
 12 11  2  0
 13 21  1  0
 14 13  2  0
 17 16  1  0
 18 17  1  0
 20 19  1  6
 19 18  1  0
 20 22  1  0
 21 20  1  0
 22 24  2  0
 22 23  1  0
M  END
$$$$
