SEM.pdb
     RDKit          3D

 24 23  0  0  1  0  0  0  0  0999 V2000
   13.7102  -12.0731  -11.2916 O   0  0  0  0  0  0  0  0  0  0  0  0
   14.0465  -10.7430  -11.4504 C   0  0  0  0  0  0  0  0  0  0  0  0
   15.4426  -10.4407  -10.9719 C   0  0  2  0  0  0  0  0  0  0  0  0
   15.6584  -10.8719   -9.6224 N   0  0  0  0  0  0  0  0  0  0  0  0
   15.6625   -8.9599  -11.1128 C   0  0  0  0  0  0  0  0  0  0  0  0
   15.6175   -8.4880  -12.2697 O   0  0  0  0  0  0  0  0  0  0  0  0
   15.9069   -8.1404  -10.0043 N   0  0  0  0  0  0  0  0  0  0  0  0
   16.0761   -6.6824  -10.1491 C   0  0  1  0  0  0  0  0  0  0  0  0
   15.3499   -6.0586   -9.0181 C   0  0  0  0  0  0  0  0  0  0  0  0
   15.4690   -4.6038   -8.8013 C   0  0  0  0  0  0  0  0  0  0  0  0
   14.5139   -4.0534   -7.8074 C   0  0  0  0  0  0  0  0  0  0  0  0
   13.6710   -3.1853   -8.1275 O   0  0  0  0  0  0  0  0  0  0  0  0
   17.4904   -6.3494  -10.3116 C   0  0  0  0  0  0  0  0  0  0  0  0
   18.3067   -6.7294   -9.3870 O   0  0  0  0  0  0  0  0  0  0  0  0
   14.5133   -4.4780   -6.4764 O   0  0  0  0  0  0  0  0  0  0  0  0
   23.3943   -9.4933  -13.1091 C   0  0  0  0  0  0  0  0  0  0  0  0
   21.7331   -9.1592  -12.5977 S   0  0  0  0  0  0  0  0  0  0  0  0
   21.2747   -7.4527  -12.3627 C   0  0  0  0  0  0  0  0  0  0  0  0
   19.8856   -7.2011  -11.8938 C   0  0  0  0  0  0  0  0  0  0  0  0
   19.4929   -5.7654  -11.7166 C   0  0  2  0  0  0  0  0  0  0  0  0
   18.0719   -5.6491  -11.3867 N   0  0  0  0  0  0  0  0  0  0  0  0
   19.8473   -4.9036  -12.8523 C   0  0  0  0  0  0  0  0  0  0  0  0
   19.0106   -4.3379  -13.7701 O   0  0  0  0  0  0  0  0  0  0  0  0
   21.1001   -4.6442  -13.0077 O   0  0  0  0  0  0  0  0  0  0  0  0
  2  3  1  0
  2  1  1  0
  3  4  1  1
  5  6  2  0
  5  3  1  0
  7  5  1  0
  8  7  1  0
  8 13  1  0
  8  9  1  1
 10 11  1  0
 10  9  1  0
 11 15  1  0
 12 11  2  0
 13 21  1  0
 14 13  2  0
 17 16  1  0
 18 17  1  0
 20 19  1  6
 19 18  1  0
 20 22  1  0
 21 20  1  0
 22 24  2  0
 22 23  1  0
M  END
$$$$
