SEM.pdb
     RDKit          3D

 24 23  0  0  1  0  0  0  0  0999 V2000
   20.0134   -9.2890  -22.6745 O   0  0  0  0  0  0  0  0  0  0  0  0
   20.7878   -8.7165  -21.6846 C   0  0  0  0  0  0  0  0  0  0  0  0
   21.3784   -7.3963  -22.1065 C   0  0  2  0  0  0  0  0  0  0  0  0
   22.5259   -7.5602  -22.9491 N   0  0  0  0  0  0  0  0  0  0  0  0
   21.7231   -6.6312  -20.8587 C   0  0  0  0  0  0  0  0  0  0  0  0
   22.9337   -6.5590  -20.5547 O   0  0  0  0  0  0  0  0  0  0  0  0
   20.7394   -6.0246  -20.0685 N   0  0  0  0  0  0  0  0  0  0  0  0
   21.0929   -5.2302  -18.8772 C   0  0  1  0  0  0  0  0  0  0  0  0
   20.0184   -4.2243  -18.7062 C   0  0  0  0  0  0  0  0  0  0  0  0
   20.0381   -3.3446  -17.5215 C   0  0  0  0  0  0  0  0  0  0  0  0
   18.9404   -2.3463  -17.4829 C   0  0  0  0  0  0  0  0  0  0  0  0
   18.0593   -2.3144  -18.3713 O   0  0  0  0  0  0  0  0  0  0  0  0
   21.3812   -6.1115  -17.7468 C   0  0  0  0  0  0  0  0  0  0  0  0
   21.0104   -7.3445  -17.8370 O   0  0  0  0  0  0  0  0  0  0  0  0
   18.8425   -1.4020  -16.4579 O   0  0  0  0  0  0  0  0  0  0  0  0
   23.9639  -11.5572  -14.3620 C   0  0  0  0  0  0  0  0  0  0  0  0
   23.3962  -10.2396  -15.3985 S   0  0  0  0  0  0  0  0  0  0  0  0
   24.0949   -8.6225  -15.1261 C   0  0  0  0  0  0  0  0  0  0  0  0
   23.6190   -7.5378  -16.0261 C   0  0  0  0  0  0  0  0  0  0  0  0
   22.4314   -6.7546  -15.5540 C   0  0  2  0  0  0  0  0  0  0  0  0
   22.0332   -5.7582  -16.5491 N   0  0  0  0  0  0  0  0  0  0  0  0
   22.6061   -6.1429  -14.2297 C   0  0  0  0  0  0  0  0  0  0  0  0
   22.3272   -6.6877  -13.0099 O   0  0  0  0  0  0  0  0  0  0  0  0
   23.0816   -4.9453  -14.2082 O   0  0  0  0  0  0  0  0  0  0  0  0
  2  3  1  0
  2  1  1  0
  3  4  1  6
  5  6  2  0
  5  3  1  0
  7  5  1  0
  8  7  1  0
  8 13  1  0
  8  9  1  1
 10 11  1  0
 10  9  1  0
 11 15  1  0
 12 11  2  0
 13 21  1  0
 14 13  2  0
 17 16  1  0
 18 17  1  0
 20 19  1  6
 19 18  1  0
 20 22  1  0
 21 20  1  0
 22 24  2  0
 22 23  1  0
M  END
$$$$
