SEM.pdb
     RDKit          3D

 24 23  0  0  1  0  0  0  0  0999 V2000
   22.1849  -13.8153  -17.4281 O   0  0  0  0  0  0  0  0  0  0  0  0
   21.8948  -12.4875  -17.6734 C   0  0  0  0  0  0  0  0  0  0  0  0
   20.4136  -12.2295  -17.7683 C   0  0  2  0  0  0  0  0  0  0  0  0
   19.8207  -12.8830  -18.8976 N   0  0  0  0  0  0  0  0  0  0  0  0
   20.2130  -10.7407  -17.8329 C   0  0  0  0  0  0  0  0  0  0  0  0
   20.1467  -10.2267  -18.9707 O   0  0  0  0  0  0  0  0  0  0  0  0
   20.1046   -9.9589  -16.6765 N   0  0  0  0  0  0  0  0  0  0  0  0
   19.7610   -8.5263  -16.7471 C   0  0  1  0  0  0  0  0  0  0  0  0
   18.4269   -8.3805  -16.1190 C   0  0  0  0  0  0  0  0  0  0  0  0
   17.8949   -7.0276  -15.8654 C   0  0  0  0  0  0  0  0  0  0  0  0
   16.5704   -7.0070  -15.1959 C   0  0  0  0  0  0  0  0  0  0  0  0
   15.9797   -5.9297  -14.9567 O   0  0  0  0  0  0  0  0  0  0  0  0
   20.8535   -7.7155  -16.2117 C   0  0  0  0  0  0  0  0  0  0  0  0
   21.4762   -8.1586  -15.1716 O   0  0  0  0  0  0  0  0  0  0  0  0
   15.9271   -8.1837  -14.8045 O   0  0  0  0  0  0  0  0  0  0  0  0
   26.4438   -2.0830  -17.3124 C   0  0  0  0  0  0  0  0  0  0  0  0
   24.9786   -2.9412  -17.8119 S   0  0  0  0  0  0  0  0  0  0  0  0
   24.2240   -4.0357  -16.6244 C   0  0  0  0  0  0  0  0  0  0  0  0
   23.0204   -4.7793  -17.0841 C   0  0  0  0  0  0  0  0  0  0  0  0
   22.4364   -5.7635  -16.1161 C   0  0  2  0  0  0  0  0  0  0  0  0
   21.3121   -6.4828  -16.7162 N   0  0  0  0  0  0  0  0  0  0  0  0
   22.0632   -5.1793  -14.8208 C   0  0  0  0  0  0  0  0  0  0  0  0
   22.8455   -5.0232  -13.7135 O   0  0  0  0  0  0  0  0  0  0  0  0
   20.8501   -4.7591  -14.7082 O   0  0  0  0  0  0  0  0  0  0  0  0
  2  3  1  0
  2  1  1  0
  3  4  1  6
  5  6  2  0
  5  3  1  0
  7  5  1  0
  8  7  1  0
  8 13  1  0
  8  9  1  1
 10 11  1  0
 10  9  1  0
 11 15  1  0
 12 11  2  0
 13 21  1  0
 14 13  2  0
 17 16  1  0
 18 17  1  0
 20 19  1  6
 19 18  1  0
 20 22  1  0
 21 20  1  0
 22 24  2  0
 22 23  1  0
M  END
$$$$
