SEM.pdb
     RDKit          3D

 24 23  0  0  1  0  0  0  0  0999 V2000
   13.4961   -6.5629   -7.3429 O   0  0  0  0  0  0  0  0  0  0  0  0
   14.5465   -7.0163   -8.1165 C   0  0  0  0  0  0  0  0  0  0  0  0
   14.0811   -7.7111   -9.3695 C   0  0  2  0  0  0  0  0  0  0  0  0
   13.3900   -8.9342   -9.0864 N   0  0  0  0  0  0  0  0  0  0  0  0
   15.2889   -7.9545  -10.2316 C   0  0  0  0  0  0  0  0  0  0  0  0
   15.9140   -9.0207  -10.0431 O   0  0  0  0  0  0  0  0  0  0  0  0
   15.7009   -7.0342  -11.2029 N   0  0  0  0  0  0  0  0  0  0  0  0
   16.8247   -7.3279  -12.1118 C   0  0  1  0  0  0  0  0  0  0  0  0
   16.3179   -7.1251  -13.4894 C   0  0  0  0  0  0  0  0  0  0  0  0
   15.2126   -7.9703  -13.9812 C   0  0  0  0  0  0  0  0  0  0  0  0
   14.7617   -7.6472  -15.3578 C   0  0  0  0  0  0  0  0  0  0  0  0
   13.7326   -8.1682  -15.8438 O   0  0  0  0  0  0  0  0  0  0  0  0
   18.0122   -6.5756  -11.7099 C   0  0  0  0  0  0  0  0  0  0  0  0
   17.9659   -5.9329  -10.5917 O   0  0  0  0  0  0  0  0  0  0  0  0
   15.4628   -6.7513  -16.1688 O   0  0  0  0  0  0  0  0  0  0  0  0
   23.5757   -6.4574   -7.5133 C   0  0  0  0  0  0  0  0  0  0  0  0
   22.0252   -6.5742   -8.3591 S   0  0  0  0  0  0  0  0  0  0  0  0
   22.0318   -7.2998   -9.9873 C   0  0  0  0  0  0  0  0  0  0  0  0
   20.7260   -7.3356  -10.6991 C   0  0  0  0  0  0  0  0  0  0  0  0
   20.5102   -6.2853  -11.7465 C   0  0  2  0  0  0  0  0  0  0  0  0
   19.2248   -6.4750  -12.4199 N   0  0  0  0  0  0  0  0  0  0  0  0
   21.6074   -6.1736  -12.7169 C   0  0  0  0  0  0  0  0  0  0  0  0
   22.6732   -5.3218  -12.6849 O   0  0  0  0  0  0  0  0  0  0  0  0
   21.5668   -6.9758  -13.7248 O   0  0  0  0  0  0  0  0  0  0  0  0
  2  3  1  0
  2  1  1  0
  3  4  1  1
  5  6  2  0
  5  3  1  0
  7  5  1  0
  8  7  1  0
  8 13  1  0
  8  9  1  6
 10 11  1  0
 10  9  1  0
 11 15  1  0
 12 11  2  0
 13 21  1  0
 14 13  2  0
 17 16  1  0
 18 17  1  0
 20 19  1  1
 19 18  1  0
 20 22  1  0
 21 20  1  0
 22 24  2  0
 22 23  1  0
M  END
$$$$
