SEM.pdb
     RDKit          3D

 24 23  0  0  1  0  0  0  0  0999 V2000
   21.0432  -18.8087  -13.1464 O   0  0  0  0  0  0  0  0  0  0  0  0
   22.2245  -18.3755  -13.7159 C   0  0  0  0  0  0  0  0  0  0  0  0
   22.7015  -19.2870  -14.8164 C   0  0  2  0  0  0  0  0  0  0  0  0
   21.6218  -19.7755  -15.6222 N   0  0  0  0  0  0  0  0  0  0  0  0
   23.4588  -20.4175  -14.1764 C   0  0  0  0  0  0  0  0  0  0  0  0
   22.9160  -21.5437  -14.1924 O   0  0  0  0  0  0  0  0  0  0  0  0
   24.7144  -20.2258  -13.5875 N   0  0  0  0  0  0  0  0  0  0  0  0
   25.4065  -21.3198  -12.8808 C   0  0  1  0  0  0  0  0  0  0  0  0
   26.3749  -21.8975  -13.8420 C   0  0  0  0  0  0  0  0  0  0  0  0
   27.2907  -20.9977  -14.5696 C   0  0  0  0  0  0  0  0  0  0  0  0
   28.0358  -21.6480  -15.6763 C   0  0  0  0  0  0  0  0  0  0  0  0
   27.9139  -22.8714  -15.9112 O   0  0  0  0  0  0  0  0  0  0  0  0
   25.9258  -20.8470  -11.5984 C   0  0  0  0  0  0  0  0  0  0  0  0
   26.2509  -19.6015  -11.5048 O   0  0  0  0  0  0  0  0  0  0  0  0
   28.9024  -20.9268  -16.5013 O   0  0  0  0  0  0  0  0  0  0  0  0
   29.2271  -20.1236   -6.4121 C   0  0  0  0  0  0  0  0  0  0  0  0
   27.4642  -19.9659   -6.4010 S   0  0  0  0  0  0  0  0  0  0  0  0
   26.7169  -19.0207   -7.7147 C   0  0  0  0  0  0  0  0  0  0  0  0
   26.6543  -19.6783   -9.0476 C   0  0  0  0  0  0  0  0  0  0  0  0
   26.0135  -21.0326   -9.0919 C   0  0  2  0  0  0  0  0  0  0  0  0
   26.1114  -21.6138  -10.4314 N   0  0  0  0  0  0  0  0  0  0  0  0
   24.6285  -21.0555   -8.6024 C   0  0  0  0  0  0  0  0  0  0  0  0
   24.1369  -21.6984   -7.5035 O   0  0  0  0  0  0  0  0  0  0  0  0
   23.7655  -20.3883   -9.2887 O   0  0  0  0  0  0  0  0  0  0  0  0
  2  3  1  0
  2  1  1  0
  3  4  1  1
  5  6  2  0
  5  3  1  0
  7  5  1  0
  8  7  1  0
  8 13  1  0
  8  9  1  6
 10 11  1  0
 10  9  1  0
 11 15  1  0
 12 11  2  0
 13 21  1  0
 14 13  2  0
 17 16  1  0
 18 17  1  0
 20 19  1  6
 19 18  1  0
 20 22  1  0
 21 20  1  0
 22 24  2  0
 22 23  1  0
M  END
$$$$
