SEM.pdb
     RDKit          3D

 24 23  0  0  1  0  0  0  0  0999 V2000
   14.1124  -12.7685  -14.7514 O   0  0  0  0  0  0  0  0  0  0  0  0
   14.7099  -11.7714  -14.0055 C   0  0  0  0  0  0  0  0  0  0  0  0
   15.8357  -11.0958  -14.7440 C   0  0  2  0  0  0  0  0  0  0  0  0
   16.9272  -11.9878  -15.0024 N   0  0  0  0  0  0  0  0  0  0  0  0
   16.2781   -9.9170  -13.9218 C   0  0  0  0  0  0  0  0  0  0  0  0
   16.9740  -10.1599  -12.9119 O   0  0  0  0  0  0  0  0  0  0  0  0
   15.9309   -8.6049  -14.2648 N   0  0  0  0  0  0  0  0  0  0  0  0
   16.4641   -7.4492  -13.5195 C   0  0  1  0  0  0  0  0  0  0  0  0
   16.7259   -6.3867  -14.5185 C   0  0  0  0  0  0  0  0  0  0  0  0
   18.0876   -6.2337  -15.0664 C   0  0  0  0  0  0  0  0  0  0  0  0
   19.0398   -5.5500  -14.1559 C   0  0  0  0  0  0  0  0  0  0  0  0
   19.3014   -4.3327  -14.2841 O   0  0  0  0  0  0  0  0  0  0  0  0
   15.5872   -7.1213  -12.3965 C   0  0  0  0  0  0  0  0  0  0  0  0
   14.3573   -6.8317  -12.6598 O   0  0  0  0  0  0  0  0  0  0  0  0
   19.6835   -6.2317  -13.1202 O   0  0  0  0  0  0  0  0  0  0  0  0
   11.6532   -8.1673   -5.8836 C   0  0  0  0  0  0  0  0  0  0  0  0
   12.8780   -8.5930   -7.0883 S   0  0  0  0  0  0  0  0  0  0  0  0
   13.5314   -7.2749   -8.0950 C   0  0  0  0  0  0  0  0  0  0  0  0
   14.4962   -7.6709   -9.1557 C   0  0  0  0  0  0  0  0  0  0  0  0
   15.0423   -6.5635  -10.0055 C   0  0  2  0  0  0  0  0  0  0  0  0
   15.9418   -7.0884  -11.0336 N   0  0  0  0  0  0  0  0  0  0  0  0
   15.6806   -5.4826   -9.2421 C   0  0  0  0  0  0  0  0  0  0  0  0
   16.9966   -5.1210   -9.2387 O   0  0  0  0  0  0  0  0  0  0  0  0
   14.9102   -4.7847   -8.4805 O   0  0  0  0  0  0  0  0  0  0  0  0
  2  3  1  0
  2  1  1  0
  3  4  1  1
  5  6  2  0
  5  3  1  0
  7  5  1  0
  8  7  1  0
  8 13  1  0
  8  9  1  6
 10 11  1  0
 10  9  1  0
 11 15  1  0
 12 11  2  0
 13 21  1  0
 14 13  2  0
 17 16  1  0
 18 17  1  0
 20 19  1  1
 19 18  1  0
 20 22  1  0
 21 20  1  0
 22 24  2  0
 22 23  1  0
M  END
$$$$
