SEM.pdb
     RDKit          3D

 24 23  0  0  1  0  0  0  0  0999 V2000
   14.4877   -8.4911  -15.2287 O   0  0  0  0  0  0  0  0  0  0  0  0
   15.1926   -9.4337  -15.9512 C   0  0  0  0  0  0  0  0  0  0  0  0
   15.7986  -10.4974  -15.0731 C   0  0  2  0  0  0  0  0  0  0  0  0
   15.2472  -10.4876  -13.7504 N   0  0  0  0  0  0  0  0  0  0  0  0
   17.2853  -10.2737  -15.0455 C   0  0  0  0  0  0  0  0  0  0  0  0
   17.7859   -9.9267  -13.9536 O   0  0  0  0  0  0  0  0  0  0  0  0
   18.0794  -10.4440  -16.1859 N   0  0  0  0  0  0  0  0  0  0  0  0
   19.5508  -10.3692  -16.1157 C   0  0  1  0  0  0  0  0  0  0  0  0
   20.0703  -11.2636  -17.1767 C   0  0  0  0  0  0  0  0  0  0  0  0
   20.0899  -12.7207  -16.9438 C   0  0  0  0  0  0  0  0  0  0  0  0
   20.6504  -13.5120  -18.0674 C   0  0  0  0  0  0  0  0  0  0  0  0
   21.5181  -13.0320  -18.8312 O   0  0  0  0  0  0  0  0  0  0  0  0
   19.9892   -8.9745  -16.1314 C   0  0  0  0  0  0  0  0  0  0  0  0
   19.2796   -8.1295  -16.8009 O   0  0  0  0  0  0  0  0  0  0  0  0
   20.2361  -14.8218  -18.3215 O   0  0  0  0  0  0  0  0  0  0  0  0
   22.1846   -2.3400  -13.6586 C   0  0  0  0  0  0  0  0  0  0  0  0
   21.7528   -4.0547  -13.5786 S   0  0  0  0  0  0  0  0  0  0  0  0
   22.8234   -5.2099  -14.4134 C   0  0  0  0  0  0  0  0  0  0  0  0
   22.3746   -6.6280  -14.4357 C   0  0  0  0  0  0  0  0  0  0  0  0
   21.4677   -7.0212  -15.5625 C   0  0  2  0  0  0  0  0  0  0  0  0
   21.1197   -8.4404  -15.4825 N   0  0  0  0  0  0  0  0  0  0  0  0
   21.9827   -6.6743  -16.8939 C   0  0  0  0  0  0  0  0  0  0  0  0
   21.7387   -5.5452  -17.6205 O   0  0  0  0  0  0  0  0  0  0  0  0
   22.7624   -7.5362  -17.4509 O   0  0  0  0  0  0  0  0  0  0  0  0
  2  3  1  0
  2  1  1  0
  3  4  1  1
  5  6  2  0
  5  3  1  0
  7  5  1  0
  8  7  1  0
  8 13  1  0
  8  9  1  6
 10 11  1  0
 10  9  1  0
 11 15  1  0
 12 11  2  0
 13 21  1  0
 14 13  2  0
 17 16  1  0
 18 17  1  0
 20 19  1  1
 19 18  1  0
 20 22  1  0
 21 20  1  0
 22 24  2  0
 22 23  1  0
M  END
$$$$
