SEM.pdb
     RDKit          3D

 24 23  0  0  1  0  0  0  0  0999 V2000
   12.5943   -8.9773   -9.4827 O   0  0  0  0  0  0  0  0  0  0  0  0
   13.0395   -9.7547  -10.5339 C   0  0  0  0  0  0  0  0  0  0  0  0
   14.3121  -10.4917  -10.2066 C   0  0  2  0  0  0  0  0  0  0  0  0
   14.2159  -11.2198   -8.9760 N   0  0  0  0  0  0  0  0  0  0  0  0
   15.4244   -9.4810  -10.1565 C   0  0  0  0  0  0  0  0  0  0  0  0
   16.0254   -9.3536   -9.0676 O   0  0  0  0  0  0  0  0  0  0  0  0
   15.7769   -8.7143  -11.2736 N   0  0  0  0  0  0  0  0  0  0  0  0
   16.9166   -7.7789  -11.2347 C   0  0  1  0  0  0  0  0  0  0  0  0
   17.8795   -8.2434  -12.2607 C   0  0  0  0  0  0  0  0  0  0  0  0
   19.0813   -7.4336  -12.5388 C   0  0  0  0  0  0  0  0  0  0  0  0
   19.9828   -8.0102  -13.5673 C   0  0  0  0  0  0  0  0  0  0  0  0
   21.2162   -8.0997  -13.3741 O   0  0  0  0  0  0  0  0  0  0  0  0
   16.4435   -6.3986  -11.3261 C   0  0  0  0  0  0  0  0  0  0  0  0
   15.2258   -6.2053  -11.7078 O   0  0  0  0  0  0  0  0  0  0  0  0
   19.4968   -8.4765  -14.7913 O   0  0  0  0  0  0  0  0  0  0  0  0
   13.3057   -1.2772   -7.1124 C   0  0  0  0  0  0  0  0  0  0  0  0
   14.1041   -2.7730   -7.6201 S   0  0  0  0  0  0  0  0  0  0  0  0
   15.0981   -2.7111   -9.0985 C   0  0  0  0  0  0  0  0  0  0  0  0
   15.7052   -3.9955   -9.5397 C   0  0  0  0  0  0  0  0  0  0  0  0
   16.5390   -3.9445  -10.7843 C   0  0  2  0  0  0  0  0  0  0  0  0
   17.1822   -5.2348  -11.0358 N   0  0  0  0  0  0  0  0  0  0  0  0
   17.5184   -2.8496  -10.8039 C   0  0  0  0  0  0  0  0  0  0  0  0
   17.2831   -1.5157  -10.9709 O   0  0  0  0  0  0  0  0  0  0  0  0
   18.7535   -3.1805  -10.6432 O   0  0  0  0  0  0  0  0  0  0  0  0
  2  3  1  0
  2  1  1  0
  3  4  1  1
  5  6  2  0
  5  3  1  0
  7  5  1  0
  8  7  1  0
  8 13  1  0
  8  9  1  6
 10 11  1  0
 10  9  1  0
 11 15  1  0
 12 11  2  0
 13 21  1  0
 14 13  2  0
 17 16  1  0
 18 17  1  0
 20 19  1  1
 19 18  1  0
 20 22  1  0
 21 20  1  0
 22 24  2  0
 22 23  1  0
M  END
$$$$
