FEL.pdb
     RDKit          3D

 29 29  0  0  1  0  0  0  0  0999 V2000
    5.8183  -17.0371   25.0781 N   0  0  0  0  0  0  0  0  0  0  0  0
    6.5828  -16.8057   23.8424 C   0  0  1  0  0  0  0  0  0  0  0  0
    6.3536  -15.3239   23.5208 C   0  0  0  0  0  0  0  0  0  0  0  0
    6.9478  -14.4652   24.5738 C   0  0  0  0  0  0  0  0  0  0  0  0
    8.0925  -13.7103   24.3447 C   0  0  0  0  0  0  0  0  0  0  0  0
    8.6332  -12.9168   25.3280 C   0  0  0  0  0  0  0  0  0  0  0  0
    8.0267  -12.8670   26.5730 C   0  0  0  0  0  0  0  0  0  0  0  0
    6.8859  -13.6026   26.8430 C   0  0  0  0  0  0  0  0  0  0  0  0
    6.3736  -14.3868   25.8305 C   0  0  0  0  0  0  0  0  0  0  0  0
    8.0189  -17.0257   24.2002 C   0  0  0  0  0  0  0  0  0  0  0  0
    8.3480  -17.4993   25.3171 O   0  0  0  0  0  0  0  0  0  0  0  0
    9.0650  -16.7048   23.2862 N   0  0  0  0  0  0  0  0  0  0  0  0
   10.4353  -17.2795   23.4632 C   0  0  1  0  0  0  0  0  0  0  0  0
   11.0068  -17.4292   22.1225 C   0  0  0  0  0  0  0  0  0  0  0  0
   12.3545  -17.9529   21.8824 C   0  0  0  0  0  0  0  0  0  0  0  0
   13.1998  -17.1797   20.9563 C   0  0  0  0  0  0  0  0  0  0  0  0
   14.2695  -16.6862   21.3354 O   0  0  0  0  0  0  0  0  0  0  0  0
   11.1217  -16.5960   24.5467 C   0  0  0  0  0  0  0  0  0  0  0  0
   11.5161  -15.3682   24.4155 O   0  0  0  0  0  0  0  0  0  0  0  0
   12.7580  -17.0132   19.6232 O   0  0  0  0  0  0  0  0  0  0  0  0
   11.1289  -13.4951   28.3008 C   0  0  0  0  0  0  0  0  0  0  0  0
    9.9583  -14.3507   27.8527 C   0  0  2  0  0  0  0  0  0  0  0  0
    9.1110  -14.7369   28.9987 C   0  0  0  0  0  0  0  0  0  0  0  0
   10.2834  -15.3556   26.8315 C   0  0  0  0  0  0  0  0  0  0  0  0
   11.4409  -16.2739   27.0414 C   0  0  2  0  0  0  0  0  0  0  0  0
   11.4286  -17.1326   25.8318 N   0  0  0  0  0  0  0  0  0  0  0  0
   11.2970  -17.0641   28.2653 C   0  0  0  0  0  0  0  0  0  0  0  0
   10.5594  -18.2274   28.2442 O   0  0  0  0  0  0  0  0  0  0  0  0
   11.8231  -16.7192   29.3406 O   0  0  0  0  0  0  0  0  0  0  0  0
  2 10  1  0
  2  1  1  1
  3  2  1  0
  3  4  1  0
  4  5  2  0
  4  9  1  0
  5  6  1  0
  6  7  2  0
  8  7  1  0
  9  8  2  0
 10 11  2  0
 12 13  1  0
 12 10  1  0
 13 14  1  6
 14 15  1  0
 16 15  1  0
 16 17  2  0
 18 13  1  0
 18 19  2  0
 20 16  1  0
 22 21  1  1
 22 23  1  0
 22 24  1  0
 25 24  1  6
 25 27  1  0
 25 26  1  0
 26 18  1  0
 27 28  1  0
 29 27  2  0
M  END
$$$$
