FEL.pdb
     RDKit          3D

 29 29  0  0  1  0  0  0  0  0999 V2000
    9.8259  -15.3836   20.7754 N   0  0  0  0  0  0  0  0  0  0  0  0
    9.1267  -14.9054   21.9785 C   0  0  1  0  0  0  0  0  0  0  0  0
    7.6388  -14.9909   21.6175 C   0  0  0  0  0  0  0  0  0  0  0  0
    7.3179  -14.0589   20.5095 C   0  0  0  0  0  0  0  0  0  0  0  0
    6.8070  -14.5092   19.2976 C   0  0  0  0  0  0  0  0  0  0  0  0
    6.5119  -13.6356   18.2784 C   0  0  0  0  0  0  0  0  0  0  0  0
    6.7272  -12.2789   18.4608 C   0  0  0  0  0  0  0  0  0  0  0  0
    7.2343  -11.7887   19.6516 C   0  0  0  0  0  0  0  0  0  0  0  0
    7.5179  -12.6968   20.6503 C   0  0  0  0  0  0  0  0  0  0  0  0
    9.4397  -15.8950   23.0563 C   0  0  0  0  0  0  0  0  0  0  0  0
    8.6157  -16.1452   23.9719 O   0  0  0  0  0  0  0  0  0  0  0  0
   10.6850  -16.5886   23.0826 N   0  0  0  0  0  0  0  0  0  0  0  0
   11.0623  -17.4341   24.2583 C   0  0  1  0  0  0  0  0  0  0  0  0
   12.1949  -18.2624   23.8366 C   0  0  0  0  0  0  0  0  0  0  0  0
   12.2061  -19.0222   22.5833 C   0  0  0  0  0  0  0  0  0  0  0  0
   13.5308  -19.3145   22.0091 C   0  0  0  0  0  0  0  0  0  0  0  0
   13.6375  -19.9315   20.9416 O   0  0  0  0  0  0  0  0  0  0  0  0
   11.0774  -16.6243   25.4650 C   0  0  0  0  0  0  0  0  0  0  0  0
   12.0681  -15.8284   25.7205 O   0  0  0  0  0  0  0  0  0  0  0  0
   14.6784  -18.8747   22.7087 O   0  0  0  0  0  0  0  0  0  0  0  0
    9.5485  -12.7810   27.4790 C   0  0  0  0  0  0  0  0  0  0  0  0
    8.6725  -13.9947   27.2287 C   0  0  2  0  0  0  0  0  0  0  0  0
    7.2540  -13.6088   27.0904 C   0  0  0  0  0  0  0  0  0  0  0  0
    9.0179  -15.1800   28.0250 C   0  0  0  0  0  0  0  0  0  0  0  0
   10.3024  -15.8946   27.7664 C   0  0  2  0  0  0  0  0  0  0  0  0
   10.0671  -16.5768   26.4702 N   0  0  0  0  0  0  0  0  0  0  0  0
   10.6199  -16.8501   28.8290 C   0  0  0  0  0  0  0  0  0  0  0  0
   10.3902  -18.1938   28.6301 O   0  0  0  0  0  0  0  0  0  0  0  0
   11.0961  -16.4890   29.9222 O   0  0  0  0  0  0  0  0  0  0  0  0
  2 10  1  0
  2  1  1  6
  3  2  1  0
  3  4  1  0
  4  5  2  0
  4  9  1  0
  5  6  1  0
  6  7  2  0
  8  7  1  0
  9  8  2  0
 10 11  2  0
 12 13  1  0
 12 10  1  0
 13 14  1  6
 14 15  1  0
 16 15  1  0
 16 17  2  0
 18 13  1  0
 18 19  2  0
 20 16  1  0
 22 21  1  1
 22 23  1  0
 22 24  1  0
 25 24  1  1
 25 27  1  0
 25 26  1  0
 26 18  1  0
 27 28  1  0
 29 27  2  0
M  END
$$$$
