FEL.pdb
     RDKit          3D

 29 29  0  0  1  0  0  0  0  0999 V2000
    5.6045  -18.1104   24.0654 N   0  0  0  0  0  0  0  0  0  0  0  0
    6.3350  -16.8427   24.2210 C   0  0  1  0  0  0  0  0  0  0  0  0
    6.1945  -16.4986   25.7087 C   0  0  0  0  0  0  0  0  0  0  0  0
    6.7914  -15.1714   25.9943 C   0  0  0  0  0  0  0  0  0  0  0  0
    8.1031  -15.0369   26.4348 C   0  0  0  0  0  0  0  0  0  0  0  0
    8.6459  -13.8013   26.6946 C   0  0  0  0  0  0  0  0  0  0  0  0
    7.8720  -12.6661   26.5144 C   0  0  0  0  0  0  0  0  0  0  0  0
    6.5619  -12.7553   26.0773 C   0  0  0  0  0  0  0  0  0  0  0  0
    6.0532  -14.0128   25.8273 C   0  0  0  0  0  0  0  0  0  0  0  0
    7.7656  -17.1518   23.9099 C   0  0  0  0  0  0  0  0  0  0  0  0
    8.2919  -18.2356   24.2681 O   0  0  0  0  0  0  0  0  0  0  0  0
    8.5824  -16.2265   23.1963 N   0  0  0  0  0  0  0  0  0  0  0  0
   10.0357  -16.5060   22.9739 C   0  0  1  0  0  0  0  0  0  0  0  0
   10.4443  -15.7154   21.8100 C   0  0  0  0  0  0  0  0  0  0  0  0
   11.7928  -15.7731   21.2385 C   0  0  0  0  0  0  0  0  0  0  0  0
   12.1960  -17.0599   20.6456 C   0  0  0  0  0  0  0  0  0  0  0  0
   11.6972  -17.4531   19.5835 O   0  0  0  0  0  0  0  0  0  0  0  0
   10.7446  -16.4758   24.2422 C   0  0  0  0  0  0  0  0  0  0  0  0
   12.0048  -16.7722   24.3079 O   0  0  0  0  0  0  0  0  0  0  0  0
   13.1657  -17.8365   21.3212 O   0  0  0  0  0  0  0  0  0  0  0  0
    9.3732  -13.7474   29.3472 C   0  0  0  0  0  0  0  0  0  0  0  0
   10.3765  -14.2166   28.3099 C   0  0  2  0  0  0  0  0  0  0  0  0
   10.7224  -13.1291   27.3728 C   0  0  0  0  0  0  0  0  0  0  0  0
   10.1338  -15.5662   27.7826 C   0  0  0  0  0  0  0  0  0  0  0  0
   11.0398  -16.1240   26.7359 C   0  0  2  0  0  0  0  0  0  0  0  0
   10.2003  -16.1250   25.5127 N   0  0  0  0  0  0  0  0  0  0  0  0
   11.5019  -17.4712   27.0742 C   0  0  0  0  0  0  0  0  0  0  0  0
   10.7135  -18.5595   26.7716 O   0  0  0  0  0  0  0  0  0  0  0  0
   12.5963  -17.6736   27.6340 O   0  0  0  0  0  0  0  0  0  0  0  0
  2 10  1  0
  2  1  1  1
  3  2  1  0
  3  4  1  0
  4  5  2  0
  4  9  1  0
  5  6  1  0
  6  7  2  0
  8  7  1  0
  9  8  2  0
 10 11  2  0
 12 13  1  0
 12 10  1  0
 13 14  1  6
 14 15  1  0
 16 15  1  0
 16 17  2  0
 18 13  1  0
 18 19  2  0
 20 16  1  0
 22 21  1  6
 22 23  1  0
 22 24  1  0
 25 24  1  1
 25 27  1  0
 25 26  1  0
 26 18  1  0
 27 28  1  0
 29 27  2  0
M  END
$$$$
