FEL.pdb
     RDKit          3D

 29 29  0  0  1  0  0  0  0  0999 V2000
    6.0660  -18.5274   23.6354 N   0  0  0  0  0  0  0  0  0  0  0  0
    6.5571  -17.1439   23.7343 C   0  0  1  0  0  0  0  0  0  0  0  0
    5.8432  -16.5700   24.9642 C   0  0  0  0  0  0  0  0  0  0  0  0
    5.9811  -15.0940   25.0040 C   0  0  0  0  0  0  0  0  0  0  0  0
    6.4870  -14.3756   23.9267 C   0  0  0  0  0  0  0  0  0  0  0  0
    6.6086  -13.0074   23.9747 C   0  0  0  0  0  0  0  0  0  0  0  0
    6.2197  -12.3291   25.1188 C   0  0  0  0  0  0  0  0  0  0  0  0
    5.7111  -13.0057   26.2137 C   0  0  0  0  0  0  0  0  0  0  0  0
    5.6046  -14.3782   26.1270 C   0  0  0  0  0  0  0  0  0  0  0  0
    8.0245  -17.2472   24.0080 C   0  0  0  0  0  0  0  0  0  0  0  0
    8.4733  -18.0468   24.8678 O   0  0  0  0  0  0  0  0  0  0  0  0
    8.9655  -16.4409   23.3030 N   0  0  0  0  0  0  0  0  0  0  0  0
   10.4362  -16.6499   23.4848 C   0  0  1  0  0  0  0  0  0  0  0  0
   11.0929  -16.0763   22.3073 C   0  0  0  0  0  0  0  0  0  0  0  0
   12.5362  -16.1726   22.0712 C   0  0  0  0  0  0  0  0  0  0  0  0
   12.9990  -17.3605   21.3332 C   0  0  0  0  0  0  0  0  0  0  0  0
   13.6180  -18.2641   21.9092 O   0  0  0  0  0  0  0  0  0  0  0  0
   10.8179  -16.3174   24.8471 C   0  0  0  0  0  0  0  0  0  0  0  0
   11.3258  -15.1594   25.1325 O   0  0  0  0  0  0  0  0  0  0  0  0
   12.7205  -17.4423   19.9491 O   0  0  0  0  0  0  0  0  0  0  0  0
   10.5973  -13.2061   28.6647 C   0  0  0  0  0  0  0  0  0  0  0  0
   11.4152  -14.3828   28.1654 C   0  0  2  0  0  0  0  0  0  0  0  0
   12.5889  -13.9270   27.3940 C   0  0  0  0  0  0  0  0  0  0  0  0
   10.6251  -15.5157   27.6647 C   0  0  0  0  0  0  0  0  0  0  0  0
   11.3119  -16.7864   27.2895 C   0  0  2  0  0  0  0  0  0  0  0  0
   10.6855  -17.1524   25.9954 N   0  0  0  0  0  0  0  0  0  0  0  0
   11.1182  -17.8307   28.2970 C   0  0  0  0  0  0  0  0  0  0  0  0
   10.0653  -18.7106   28.1746 O   0  0  0  0  0  0  0  0  0  0  0  0
   11.8797  -17.9551   29.2750 O   0  0  0  0  0  0  0  0  0  0  0  0
  2 10  1  0
  2  1  1  1
  3  2  1  0
  3  4  1  0
  4  5  2  0
  4  9  1  0
  5  6  1  0
  6  7  2  0
  8  7  1  0
  9  8  2  0
 10 11  2  0
 12 13  1  0
 12 10  1  0
 13 14  1  6
 14 15  1  0
 16 15  1  0
 16 17  2  0
 18 13  1  0
 18 19  2  0
 20 16  1  0
 22 21  1  6
 22 23  1  0
 22 24  1  0
 25 24  1  1
 25 27  1  0
 25 26  1  0
 26 18  1  0
 27 28  1  0
 29 27  2  0
M  END
$$$$
