FEL.pdb
     RDKit          3D

 29 29  0  0  1  0  0  0  0  0999 V2000
    6.0416  -18.7900   23.3988 N   0  0  0  0  0  0  0  0  0  0  0  0
    6.6941  -17.4751   23.4998 C   0  0  1  0  0  0  0  0  0  0  0  0
    6.1057  -16.8509   24.7709 C   0  0  0  0  0  0  0  0  0  0  0  0
    6.5614  -15.4476   24.9203 C   0  0  0  0  0  0  0  0  0  0  0  0
    7.1626  -14.7568   23.8744 C   0  0  0  0  0  0  0  0  0  0  0  0
    7.5793  -13.4557   24.0243 C   0  0  0  0  0  0  0  0  0  0  0  0
    7.3974  -12.8184   25.2413 C   0  0  0  0  0  0  0  0  0  0  0  0
    6.8033  -13.4696   26.3082 C   0  0  0  0  0  0  0  0  0  0  0  0
    6.3985  -14.7746   26.1185 C   0  0  0  0  0  0  0  0  0  0  0  0
    8.1500  -17.7534   23.7045 C   0  0  0  0  0  0  0  0  0  0  0  0
    8.5426  -18.5621   24.5831 O   0  0  0  0  0  0  0  0  0  0  0  0
    9.1435  -17.1098   22.9099 N   0  0  0  0  0  0  0  0  0  0  0  0
   10.5934  -17.4311   23.0942 C   0  0  1  0  0  0  0  0  0  0  0  0
   11.2656  -17.0839   21.8396 C   0  0  0  0  0  0  0  0  0  0  0  0
   12.7109  -17.2262   21.6415 C   0  0  0  0  0  0  0  0  0  0  0  0
   13.2351  -16.8031   20.3316 C   0  0  0  0  0  0  0  0  0  0  0  0
   14.4399  -16.9037   20.0676 O   0  0  0  0  0  0  0  0  0  0  0  0
   11.0432  -16.9583   24.3927 C   0  0  0  0  0  0  0  0  0  0  0  0
   12.2853  -17.0668   24.7473 O   0  0  0  0  0  0  0  0  0  0  0  0
   12.3278  -16.2766   19.3830 O   0  0  0  0  0  0  0  0  0  0  0  0
   11.1454  -14.5854   29.2153 C   0  0  0  0  0  0  0  0  0  0  0  0
   10.5947  -13.7505   28.0739 C   0  0  2  0  0  0  0  0  0  0  0  0
    9.6197  -12.7555   28.5634 C   0  0  0  0  0  0  0  0  0  0  0  0
   10.2965  -14.5021   26.8473 C   0  0  0  0  0  0  0  0  0  0  0  0
   10.8315  -15.8854   26.6804 C   0  0  2  0  0  0  0  0  0  0  0  0
   10.2432  -16.3340   25.3946 N   0  0  0  0  0  0  0  0  0  0  0  0
   10.4401  -16.7601   27.7870 C   0  0  0  0  0  0  0  0  0  0  0  0
   11.4018  -17.2510   28.6424 O   0  0  0  0  0  0  0  0  0  0  0  0
    9.2534  -17.0827   27.9869 O   0  0  0  0  0  0  0  0  0  0  0  0
  2 10  1  0
  2  1  1  1
  3  2  1  0
  3  4  1  0
  4  5  2  0
  4  9  1  0
  5  6  1  0
  6  7  2  0
  8  7  1  0
  9  8  2  0
 10 11  2  0
 12 13  1  0
 12 10  1  0
 13 14  1  6
 14 15  1  0
 16 15  1  0
 16 17  2  0
 18 13  1  0
 18 19  2  0
 20 16  1  0
 22 21  1  1
 22 23  1  0
 22 24  1  0
 25 24  1  1
 25 27  1  0
 25 26  1  0
 26 18  1  0
 27 28  1  0
 29 27  2  0
M  END
$$$$
