FEL.pdb
     RDKit          3D

 29 29  0  0  1  0  0  0  0  0999 V2000
    5.5506  -17.6863   24.2890 N   0  0  0  0  0  0  0  0  0  0  0  0
    6.5604  -16.6167   24.3246 C   0  0  1  0  0  0  0  0  0  0  0  0
    6.4162  -15.9986   25.7206 C   0  0  0  0  0  0  0  0  0  0  0  0
    6.6879  -14.5415   25.6750 C   0  0  0  0  0  0  0  0  0  0  0  0
    7.7952  -14.0226   25.0137 C   0  0  0  0  0  0  0  0  0  0  0  0
    8.0358  -12.6699   24.9768 C   0  0  0  0  0  0  0  0  0  0  0  0
    7.1583  -11.8048   25.6107 C   0  0  0  0  0  0  0  0  0  0  0  0
    6.0440  -12.2796   26.2802 C   0  0  0  0  0  0  0  0  0  0  0  0
    5.8369  -13.6433   26.2948 C   0  0  0  0  0  0  0  0  0  0  0  0
    7.8869  -17.2999   24.2125 C   0  0  0  0  0  0  0  0  0  0  0  0
    8.1046  -18.3997   24.7807 O   0  0  0  0  0  0  0  0  0  0  0  0
    8.9512  -16.7262   23.4570 N   0  0  0  0  0  0  0  0  0  0  0  0
   10.3178  -17.3355   23.4803 C   0  0  1  0  0  0  0  0  0  0  0  0
   10.9289  -17.0519   22.1793 C   0  0  0  0  0  0  0  0  0  0  0  0
   11.8029  -15.8996   21.9413 C   0  0  0  0  0  0  0  0  0  0  0  0
   13.1212  -16.1910   21.3522 C   0  0  0  0  0  0  0  0  0  0  0  0
   14.1538  -15.7149   21.8408 O   0  0  0  0  0  0  0  0  0  0  0  0
   10.9698  -17.0387   24.7448 C   0  0  0  0  0  0  0  0  0  0  0  0
   12.2479  -16.8305   24.8023 O   0  0  0  0  0  0  0  0  0  0  0  0
   13.1782  -17.0268   20.2128 O   0  0  0  0  0  0  0  0  0  0  0  0
    9.3096  -13.8845   29.1048 C   0  0  0  0  0  0  0  0  0  0  0  0
   10.1832  -14.5646   28.0669 C   0  0  2  0  0  0  0  0  0  0  0  0
   10.0057  -13.9504   26.7359 C   0  0  0  0  0  0  0  0  0  0  0  0
   10.2476  -16.0281   28.1775 C   0  0  0  0  0  0  0  0  0  0  0  0
   11.1405  -16.7991   27.2633 C   0  0  2  0  0  0  0  0  0  0  0  0
   10.3414  -16.9252   26.0199 N   0  0  0  0  0  0  0  0  0  0  0  0
   11.4888  -18.1092   27.8159 C   0  0  0  0  0  0  0  0  0  0  0  0
   12.5198  -18.2153   28.7235 O   0  0  0  0  0  0  0  0  0  0  0  0
   10.8802  -19.1466   27.4914 O   0  0  0  0  0  0  0  0  0  0  0  0
  2 10  1  0
  2  1  1  1
  3  2  1  0
  3  4  1  0
  4  5  2  0
  4  9  1  0
  5  6  1  0
  6  7  2  0
  8  7  1  0
  9  8  2  0
 10 11  2  0
 12 13  1  0
 12 10  1  0
 13 14  1  6
 14 15  1  0
 16 15  1  0
 16 17  2  0
 18 13  1  0
 18 19  2  0
 20 16  1  0
 22 21  1  1
 22 23  1  0
 22 24  1  0
 25 24  1  1
 25 27  1  0
 25 26  1  0
 26 18  1  0
 27 28  1  0
 29 27  2  0
M  END
$$$$
