FEL.pdb
     RDKit          3D

 29 29  0  0  1  0  0  0  0  0999 V2000
    5.9387  -18.4299   22.9709 N   0  0  0  0  0  0  0  0  0  0  0  0
    6.6597  -17.1654   23.1858 C   0  0  1  0  0  0  0  0  0  0  0  0
    5.8988  -16.4784   24.3263 C   0  0  0  0  0  0  0  0  0  0  0  0
    6.5549  -15.2001   24.6933 C   0  0  0  0  0  0  0  0  0  0  0  0
    6.5859  -14.7424   26.0056 C   0  0  0  0  0  0  0  0  0  0  0  0
    7.1984  -13.5567   26.3339 C   0  0  0  0  0  0  0  0  0  0  0  0
    7.7974  -12.8013   25.3385 C   0  0  0  0  0  0  0  0  0  0  0  0
    7.7894  -13.2204   24.0196 C   0  0  0  0  0  0  0  0  0  0  0  0
    7.1647  -14.4157   23.7300 C   0  0  0  0  0  0  0  0  0  0  0  0
    8.0286  -17.5474   23.6539 C   0  0  0  0  0  0  0  0  0  0  0  0
    8.1935  -18.4029   24.5599 O   0  0  0  0  0  0  0  0  0  0  0  0
    9.1947  -16.9531   23.0884 N   0  0  0  0  0  0  0  0  0  0  0  0
   10.5568  -17.3237   23.5851 C   0  0  1  0  0  0  0  0  0  0  0  0
   11.4752  -17.1691   22.4540 C   0  0  0  0  0  0  0  0  0  0  0  0
   12.9313  -17.2705   22.5875 C   0  0  0  0  0  0  0  0  0  0  0  0
   13.7146  -17.0799   21.3547 C   0  0  0  0  0  0  0  0  0  0  0  0
   13.1537  -16.8519   20.2754 O   0  0  0  0  0  0  0  0  0  0  0  0
   10.7904  -16.7181   24.8854 C   0  0  0  0  0  0  0  0  0  0  0  0
   10.7988  -15.4297   25.0281 O   0  0  0  0  0  0  0  0  0  0  0  0
   15.1240  -17.1659   21.4340 O   0  0  0  0  0  0  0  0  0  0  0  0
    9.1671  -13.4574   28.1699 C   0  0  0  0  0  0  0  0  0  0  0  0
   10.3628  -14.3918   28.1620 C   0  0  2  0  0  0  0  0  0  0  0  0
   11.6269  -13.6389   28.0375 C   0  0  0  0  0  0  0  0  0  0  0  0
   10.1808  -15.6206   27.3776 C   0  0  0  0  0  0  0  0  0  0  0  0
   11.2495  -16.6623   27.3785 C   0  0  2  0  0  0  0  0  0  0  0  0
   11.0145  -17.4040   26.1153 N   0  0  0  0  0  0  0  0  0  0  0  0
   11.1554  -17.5411   28.5455 C   0  0  0  0  0  0  0  0  0  0  0  0
   10.2473  -18.5770   28.5487 O   0  0  0  0  0  0  0  0  0  0  0  0
   11.8750  -17.3849   29.5504 O   0  0  0  0  0  0  0  0  0  0  0  0
  2 10  1  0
  2  1  1  1
  3  2  1  0
  3  4  1  0
  4  5  2  0
  4  9  1  0
  5  6  1  0
  6  7  2  0
  8  7  1  0
  9  8  2  0
 10 11  2  0
 12 13  1  0
 12 10  1  0
 13 14  1  6
 14 15  1  0
 16 15  1  0
 16 17  2  0
 18 13  1  0
 18 19  2  0
 20 16  1  0
 22 21  1  6
 22 23  1  0
 22 24  1  0
 25 24  1  1
 25 27  1  0
 25 26  1  0
 26 18  1  0
 27 28  1  0
 29 27  2  0
M  END
$$$$
