FEL.pdb
     RDKit          3D

 29 29  0  0  1  0  0  0  0  0999 V2000
    6.0855  -18.3910   22.9943 N   0  0  0  0  0  0  0  0  0  0  0  0
    6.6570  -17.0590   23.2478 C   0  0  1  0  0  0  0  0  0  0  0  0
    6.0904  -16.6515   24.6133 C   0  0  0  0  0  0  0  0  0  0  0  0
    6.5316  -15.2819   24.9718 C   0  0  0  0  0  0  0  0  0  0  0  0
    7.2482  -14.4867   24.0847 C   0  0  0  0  0  0  0  0  0  0  0  0
    7.6503  -13.2181   24.4278 C   0  0  0  0  0  0  0  0  0  0  0  0
    7.3361  -12.7200   25.6821 C   0  0  0  0  0  0  0  0  0  0  0  0
    6.6244  -13.4783   26.5953 C   0  0  0  0  0  0  0  0  0  0  0  0
    6.2386  -14.7465   26.2139 C   0  0  0  0  0  0  0  0  0  0  0  0
    8.1356  -17.2603   23.3574 C   0  0  0  0  0  0  0  0  0  0  0  0
    8.6175  -18.2013   24.0373 O   0  0  0  0  0  0  0  0  0  0  0  0
    9.0502  -16.3904   22.6944 N   0  0  0  0  0  0  0  0  0  0  0  0
   10.5255  -16.6252   22.7817 C   0  0  1  0  0  0  0  0  0  0  0  0
   11.1226  -16.0052   21.5960 C   0  0  0  0  0  0  0  0  0  0  0  0
   10.9186  -16.5177   20.2380 C   0  0  0  0  0  0  0  0  0  0  0  0
   11.8829  -17.5281   19.7700 C   0  0  0  0  0  0  0  0  0  0  0  0
   13.1010  -17.3165   19.8257 O   0  0  0  0  0  0  0  0  0  0  0  0
   10.9889  -16.3612   24.1336 C   0  0  0  0  0  0  0  0  0  0  0  0
   12.2391  -16.4982   24.4477 O   0  0  0  0  0  0  0  0  0  0  0  0
   11.3826  -18.7457   19.2531 O   0  0  0  0  0  0  0  0  0  0  0  0
   11.5298  -13.2412   28.5266 C   0  0  0  0  0  0  0  0  0  0  0  0
   10.1910  -13.9455   28.4067 C   0  0  2  0  0  0  0  0  0  0  0  0
    9.8963  -14.7397   29.6162 C   0  0  0  0  0  0  0  0  0  0  0  0
    9.9141  -14.5241   27.0850 C   0  0  0  0  0  0  0  0  0  0  0  0
   10.8106  -15.5860   26.5412 C   0  0  2  0  0  0  0  0  0  0  0  0
   10.1946  -15.9276   25.2356 N   0  0  0  0  0  0  0  0  0  0  0  0
   10.8789  -16.7500   27.4264 C   0  0  0  0  0  0  0  0  0  0  0  0
    9.8239  -17.6345   27.4739 O   0  0  0  0  0  0  0  0  0  0  0  0
   11.8686  -16.9737   28.1492 O   0  0  0  0  0  0  0  0  0  0  0  0
  2 10  1  0
  2  1  1  1
  3  2  1  0
  3  4  1  0
  4  5  2  0
  4  9  1  0
  5  6  1  0
  6  7  2  0
  8  7  1  0
  9  8  2  0
 10 11  2  0
 12 13  1  0
 12 10  1  0
 13 14  1  6
 14 15  1  0
 16 15  1  0
 16 17  2  0
 18 13  1  0
 18 19  2  0
 20 16  1  0
 22 21  1  6
 22 23  1  0
 22 24  1  0
 25 24  1  1
 25 27  1  0
 25 26  1  0
 26 18  1  0
 27 28  1  0
 29 27  2  0
M  END
$$$$
