FEL.pdb
     RDKit          3D

 29 29  0  0  1  0  0  0  0  0999 V2000
    6.4026  -18.6819   23.8805 N   0  0  0  0  0  0  0  0  0  0  0  0
    6.9112  -17.3013   23.8689 C   0  0  1  0  0  0  0  0  0  0  0  0
    6.2394  -16.6343   25.0754 C   0  0  0  0  0  0  0  0  0  0  0  0
    6.3687  -15.1593   24.9931 C   0  0  0  0  0  0  0  0  0  0  0  0
    5.8600  -14.3227   25.9800 C   0  0  0  0  0  0  0  0  0  0  0  0
    5.9874  -12.9569   25.8936 C   0  0  0  0  0  0  0  0  0  0  0  0
    6.6353  -12.4012   24.8020 C   0  0  0  0  0  0  0  0  0  0  0  0
    7.1563  -13.1979   23.7974 C   0  0  0  0  0  0  0  0  0  0  0  0
    7.0084  -14.5638   23.9201 C   0  0  0  0  0  0  0  0  0  0  0  0
    8.3847  -17.4041   24.1080 C   0  0  0  0  0  0  0  0  0  0  0  0
    8.8601  -18.2628   24.8932 O   0  0  0  0  0  0  0  0  0  0  0  0
    9.3016  -16.5303   23.4533 N   0  0  0  0  0  0  0  0  0  0  0  0
   10.7753  -16.7805   23.5227 C   0  0  1  0  0  0  0  0  0  0  0  0
   11.3765  -16.0804   22.3846 C   0  0  0  0  0  0  0  0  0  0  0  0
   12.8099  -16.1298   22.0828 C   0  0  0  0  0  0  0  0  0  0  0  0
   13.2374  -17.1503   21.1104 C   0  0  0  0  0  0  0  0  0  0  0  0
   13.9182  -18.1204   21.4667 O   0  0  0  0  0  0  0  0  0  0  0  0
   11.2404  -16.6179   24.8899 C   0  0  0  0  0  0  0  0  0  0  0  0
   12.4564  -16.9222   25.2203 O   0  0  0  0  0  0  0  0  0  0  0  0
   12.8527  -16.9933   19.7586 O   0  0  0  0  0  0  0  0  0  0  0  0
   11.8525  -13.2996   27.5399 C   0  0  0  0  0  0  0  0  0  0  0  0
   10.4128  -13.7507   27.7026 C   0  0  2  0  0  0  0  0  0  0  0  0
    9.5994  -12.7099   28.3624 C   0  0  0  0  0  0  0  0  0  0  0  0
   10.2473  -15.1531   28.1081 C   0  0  0  0  0  0  0  0  0  0  0  0
   10.9911  -16.2243   27.3824 C   0  0  2  0  0  0  0  0  0  0  0  0
   10.4849  -16.1194   25.9919 N   0  0  0  0  0  0  0  0  0  0  0  0
   10.7355  -17.5487   27.9511 C   0  0  0  0  0  0  0  0  0  0  0  0
   11.3045  -17.8954   29.1568 O   0  0  0  0  0  0  0  0  0  0  0  0
   10.0134  -18.3864   27.3775 O   0  0  0  0  0  0  0  0  0  0  0  0
  2 10  1  0
  2  1  1  1
  3  2  1  0
  3  4  1  0
  4  5  2  0
  4  9  1  0
  5  6  1  0
  6  7  2  0
  8  7  1  0
  9  8  2  0
 10 11  2  0
 12 13  1  0
 12 10  1  0
 13 14  1  6
 14 15  1  0
 16 15  1  0
 16 17  2  0
 18 13  1  0
 18 19  2  0
 20 16  1  0
 22 21  1  1
 22 23  1  0
 22 24  1  0
 25 24  1  1
 25 27  1  0
 25 26  1  0
 26 18  1  0
 27 28  1  0
 29 27  2  0
M  END
$$$$
