FEL.pdb
     RDKit          3D

 29 29  0  0  1  0  0  0  0  0999 V2000
    6.0692  -16.6670   23.0407 N   0  0  0  0  0  0  0  0  0  0  0  0
    7.2589  -16.1441   22.3507 C   0  0  1  0  0  0  0  0  0  0  0  0
    7.0579  -14.6239   22.3372 C   0  0  0  0  0  0  0  0  0  0  0  0
    6.9637  -14.0993   23.7211 C   0  0  0  0  0  0  0  0  0  0  0  0
    6.1948  -14.7291   24.6930 C   0  0  0  0  0  0  0  0  0  0  0  0
    6.1166  -14.2343   25.9729 C   0  0  0  0  0  0  0  0  0  0  0  0
    6.8174  -13.0853   26.3027 C   0  0  0  0  0  0  0  0  0  0  0  0
    7.5947  -12.4275   25.3655 C   0  0  0  0  0  0  0  0  0  0  0  0
    7.6477  -12.9549   24.0920 C   0  0  0  0  0  0  0  0  0  0  0  0
    8.4247  -16.4888   23.2231 C   0  0  0  0  0  0  0  0  0  0  0  0
    8.2606  -16.9990   24.3601 O   0  0  0  0  0  0  0  0  0  0  0  0
    9.7634  -16.2495   22.7949 N   0  0  0  0  0  0  0  0  0  0  0  0
   10.9124  -16.9346   23.4654 C   0  0  1  0  0  0  0  0  0  0  0  0
   11.9764  -17.0515   22.4649 C   0  0  0  0  0  0  0  0  0  0  0  0
   13.2130  -17.8031   22.6978 C   0  0  0  0  0  0  0  0  0  0  0  0
   14.0936  -17.9884   21.5316 C   0  0  0  0  0  0  0  0  0  0  0  0
   14.4391  -17.0237   20.8377 O   0  0  0  0  0  0  0  0  0  0  0  0
   11.1242  -16.3665   24.7862 C   0  0  0  0  0  0  0  0  0  0  0  0
   11.8699  -15.3187   24.9487 O   0  0  0  0  0  0  0  0  0  0  0  0
   14.5331  -19.2966   21.2227 O   0  0  0  0  0  0  0  0  0  0  0  0
   12.1371  -13.6646   27.8231 C   0  0  0  0  0  0  0  0  0  0  0  0
   10.6751  -13.9972   27.5889 C   0  0  2  0  0  0  0  0  0  0  0  0
    9.7965  -12.9246   28.0967 C   0  0  0  0  0  0  0  0  0  0  0  0
   10.3130  -15.3987   27.8401 C   0  0  0  0  0  0  0  0  0  0  0  0
   11.1850  -16.4916   27.3180 C   0  0  2  0  0  0  0  0  0  0  0  0
   10.5691  -16.8358   26.0131 N   0  0  0  0  0  0  0  0  0  0  0  0
   11.2166  -17.6439   28.2203 C   0  0  0  0  0  0  0  0  0  0  0  0
   10.2503  -18.6202   28.1151 O   0  0  0  0  0  0  0  0  0  0  0  0
   12.0961  -17.7767   29.0926 O   0  0  0  0  0  0  0  0  0  0  0  0
  2 10  1  0
  2  1  1  1
  3  2  1  0
  3  4  1  0
  4  5  2  0
  4  9  1  0
  5  6  1  0
  6  7  2  0
  8  7  1  0
  9  8  2  0
 10 11  2  0
 12 13  1  0
 12 10  1  0
 13 14  1  6
 14 15  1  0
 16 15  1  0
 16 17  2  0
 18 13  1  0
 18 19  2  0
 20 16  1  0
 22 21  1  1
 22 23  1  0
 22 24  1  0
 25 24  1  1
 25 27  1  0
 25 26  1  0
 26 18  1  0
 27 28  1  0
 29 27  2  0
M  END
$$$$
