FEL.pdb
     RDKit          3D

 29 29  0  0  1  0  0  0  0  0999 V2000
    6.3133  -18.0450   20.1237 N   0  0  0  0  0  0  0  0  0  0  0  0
    7.1098  -16.8361   20.3867 C   0  0  1  0  0  0  0  0  0  0  0  0
    6.0707  -15.7222   20.5623 C   0  0  0  0  0  0  0  0  0  0  0  0
    6.7370  -14.4320   20.8636 C   0  0  0  0  0  0  0  0  0  0  0  0
    7.3246  -13.6603   19.8676 C   0  0  0  0  0  0  0  0  0  0  0  0
    7.9379  -12.4653   20.1588 C   0  0  0  0  0  0  0  0  0  0  0  0
    7.9722  -12.0194   21.4704 C   0  0  0  0  0  0  0  0  0  0  0  0
    7.3994  -12.7567   22.4920 C   0  0  0  0  0  0  0  0  0  0  0  0
    6.7934  -13.9505   22.1598 C   0  0  0  0  0  0  0  0  0  0  0  0
    7.8095  -17.0797   21.6867 C   0  0  0  0  0  0  0  0  0  0  0  0
    7.1904  -17.5182   22.6889 O   0  0  0  0  0  0  0  0  0  0  0  0
    9.2040  -16.8220   21.8341 N   0  0  0  0  0  0  0  0  0  0  0  0
    9.9317  -17.2480   23.0704 C   0  0  1  0  0  0  0  0  0  0  0  0
   11.1683  -17.8985   22.6295 C   0  0  0  0  0  0  0  0  0  0  0  0
   12.2333  -17.1891   21.9148 C   0  0  0  0  0  0  0  0  0  0  0  0
   13.4287  -17.9792   21.5732 C   0  0  0  0  0  0  0  0  0  0  0  0
   13.5847  -18.4330   20.4325 O   0  0  0  0  0  0  0  0  0  0  0  0
    9.9050  -16.1777   24.0532 C   0  0  0  0  0  0  0  0  0  0  0  0
   10.6953  -15.1557   23.9464 O   0  0  0  0  0  0  0  0  0  0  0  0
   14.3932  -18.2085   22.5817 O   0  0  0  0  0  0  0  0  0  0  0  0
    8.8306  -12.3725   26.0399 C   0  0  0  0  0  0  0  0  0  0  0  0
    7.7938  -13.4747   26.1550 C   0  0  2  0  0  0  0  0  0  0  0  0
    6.4575  -12.9206   26.4512 C   0  0  0  0  0  0  0  0  0  0  0  0
    8.2461  -14.6753   26.8707 C   0  0  0  0  0  0  0  0  0  0  0  0
    9.4831  -15.3799   26.4228 C   0  0  2  0  0  0  0  0  0  0  0  0
    9.0536  -16.0912   25.1938 N   0  0  0  0  0  0  0  0  0  0  0  0
    9.9808  -16.3097   27.4381 C   0  0  0  0  0  0  0  0  0  0  0  0
   10.7367  -15.8344   28.4872 O   0  0  0  0  0  0  0  0  0  0  0  0
    9.7440  -17.5317   27.3883 O   0  0  0  0  0  0  0  0  0  0  0  0
  2 10  1  0
  2  1  1  1
  3  2  1  0
  3  4  1  0
  4  5  2  0
  4  9  1  0
  5  6  1  0
  6  7  2  0
  8  7  1  0
  9  8  2  0
 10 11  2  0
 12 13  1  0
 12 10  1  0
 13 14  1  6
 14 15  1  0
 16 15  1  0
 16 17  2  0
 18 13  1  0
 18 19  2  0
 20 16  1  0
 22 21  1  1
 22 23  1  0
 22 24  1  0
 25 24  1  1
 25 27  1  0
 25 26  1  0
 26 18  1  0
 27 28  1  0
 29 27  2  0
M  END
$$$$
