FEL.pdb
     RDKit          3D

 29 29  0  0  1  0  0  0  0  0999 V2000
    6.1134  -18.3229   21.2627 N   0  0  0  0  0  0  0  0  0  0  0  0
    7.0331  -17.1750   21.2236 C   0  0  1  0  0  0  0  0  0  0  0  0
    6.1586  -15.9696   21.5894 C   0  0  0  0  0  0  0  0  0  0  0  0
    6.9471  -14.7155   21.5223 C   0  0  0  0  0  0  0  0  0  0  0  0
    7.3414  -14.1614   20.3098 C   0  0  0  0  0  0  0  0  0  0  0  0
    8.0707  -12.9975   20.2602 C   0  0  0  0  0  0  0  0  0  0  0  0
    8.4207  -12.3625   21.4411 C   0  0  0  0  0  0  0  0  0  0  0  0
    8.0485  -12.8802   22.6694 C   0  0  0  0  0  0  0  0  0  0  0  0
    7.3173  -14.0498   22.6778 C   0  0  0  0  0  0  0  0  0  0  0  0
    8.0362  -17.4151   22.3076 C   0  0  0  0  0  0  0  0  0  0  0  0
    7.7188  -18.0038   23.3719 O   0  0  0  0  0  0  0  0  0  0  0  0
    9.3882  -16.9834   22.1711 N   0  0  0  0  0  0  0  0  0  0  0  0
   10.3984  -17.2935   23.2306 C   0  0  1  0  0  0  0  0  0  0  0  0
   11.6644  -17.5583   22.5424 C   0  0  0  0  0  0  0  0  0  0  0  0
   11.9154  -17.1664   21.1525 C   0  0  0  0  0  0  0  0  0  0  0  0
   13.2567  -17.4652   20.6221 C   0  0  0  0  0  0  0  0  0  0  0  0
   14.1292  -17.9615   21.3460 O   0  0  0  0  0  0  0  0  0  0  0  0
   10.2734  -16.3458   24.3253 C   0  0  0  0  0  0  0  0  0  0  0  0
   11.0453  -15.3070   24.3982 O   0  0  0  0  0  0  0  0  0  0  0  0
   13.5242  -17.1689   19.2654 O   0  0  0  0  0  0  0  0  0  0  0  0
    8.7215  -12.6295   26.7157 C   0  0  0  0  0  0  0  0  0  0  0  0
    7.8080  -13.7934   26.3785 C   0  0  2  0  0  0  0  0  0  0  0  0
    6.3887  -13.3896   26.4308 C   0  0  0  0  0  0  0  0  0  0  0  0
    8.2081  -15.0812   26.9614 C   0  0  0  0  0  0  0  0  0  0  0  0
    9.5557  -15.6441   26.6539 C   0  0  2  0  0  0  0  0  0  0  0  0
    9.3375  -16.4057   25.3996 N   0  0  0  0  0  0  0  0  0  0  0  0
   10.0466  -16.5065   27.7301 C   0  0  0  0  0  0  0  0  0  0  0  0
   10.0668  -17.8728   27.5548 O   0  0  0  0  0  0  0  0  0  0  0  0
   10.4517  -16.0453   28.8141 O   0  0  0  0  0  0  0  0  0  0  0  0
  2 10  1  0
  2  1  1  1
  3  2  1  0
  3  4  1  0
  4  5  2  0
  4  9  1  0
  5  6  1  0
  6  7  2  0
  8  7  1  0
  9  8  2  0
 10 11  2  0
 12 13  1  0
 12 10  1  0
 13 14  1  6
 14 15  1  0
 16 15  1  0
 16 17  2  0
 18 13  1  0
 18 19  2  0
 20 16  1  0
 22 21  1  1
 22 23  1  0
 22 24  1  0
 25 24  1  1
 25 27  1  0
 25 26  1  0
 26 18  1  0
 27 28  1  0
 29 27  2  0
M  END
$$$$
