FEL.pdb
     RDKit          3D

 29 29  0  0  1  0  0  0  0  0999 V2000
    6.7956  -18.2332   20.1024 N   0  0  0  0  0  0  0  0  0  0  0  0
    7.5250  -17.0083   20.4665 C   0  0  1  0  0  0  0  0  0  0  0  0
    6.4307  -15.9498   20.6498 C   0  0  0  0  0  0  0  0  0  0  0  0
    7.0280  -14.5962   20.7508 C   0  0  0  0  0  0  0  0  0  0  0  0
    8.4041  -14.3991   20.7362 C   0  0  0  0  0  0  0  0  0  0  0  0
    8.9460  -13.1395   20.8287 C   0  0  0  0  0  0  0  0  0  0  0  0
    8.1057  -12.0432   20.9388 C   0  0  0  0  0  0  0  0  0  0  0  0
    6.7302  -12.1950   20.9571 C   0  0  0  0  0  0  0  0  0  0  0  0
    6.2246  -13.4748   20.8621 C   0  0  0  0  0  0  0  0  0  0  0  0
    8.1741  -17.2929   21.7843 C   0  0  0  0  0  0  0  0  0  0  0  0
    7.5499  -17.8750   22.7071 O   0  0  0  0  0  0  0  0  0  0  0  0
    9.5243  -16.9128   22.0396 N   0  0  0  0  0  0  0  0  0  0  0  0
   10.2479  -17.4306   23.2427 C   0  0  1  0  0  0  0  0  0  0  0  0
   11.4576  -18.0970   22.7536 C   0  0  0  0  0  0  0  0  0  0  0  0
   11.8787  -19.4246   23.2103 C   0  0  0  0  0  0  0  0  0  0  0  0
   13.1812  -19.4968   23.8944 C   0  0  0  0  0  0  0  0  0  0  0  0
   14.2345  -19.5637   23.2483 O   0  0  0  0  0  0  0  0  0  0  0  0
   10.2664  -16.4160   24.2830 C   0  0  0  0  0  0  0  0  0  0  0  0
   11.2917  -15.6377   24.4360 O   0  0  0  0  0  0  0  0  0  0  0  0
   13.1987  -19.4900   25.3085 O   0  0  0  0  0  0  0  0  0  0  0  0
    9.2206  -12.2758   25.7190 C   0  0  0  0  0  0  0  0  0  0  0  0
    8.0537  -13.2434   25.6507 C   0  0  2  0  0  0  0  0  0  0  0  0
    6.7640  -12.5244   25.6545 C   0  0  0  0  0  0  0  0  0  0  0  0
    8.2033  -14.4501   26.4752 C   0  0  0  0  0  0  0  0  0  0  0  0
    9.4576  -15.2541   26.3867 C   0  0  2  0  0  0  0  0  0  0  0  0
    9.2251  -16.1351   25.2159 N   0  0  0  0  0  0  0  0  0  0  0  0
    9.6976  -16.0288   27.6054 C   0  0  0  0  0  0  0  0  0  0  0  0
    9.5250  -17.3954   27.5909 O   0  0  0  0  0  0  0  0  0  0  0  0
   10.0563  -15.4912   28.6705 O   0  0  0  0  0  0  0  0  0  0  0  0
  2 10  1  0
  2  1  1  1
  3  2  1  0
  3  4  1  0
  4  5  2  0
  4  9  1  0
  5  6  1  0
  6  7  2  0
  8  7  1  0
  9  8  2  0
 10 11  2  0
 12 13  1  0
 12 10  1  0
 13 14  1  6
 14 15  1  0
 16 15  1  0
 16 17  2  0
 18 13  1  0
 18 19  2  0
 20 16  1  0
 22 21  1  1
 22 23  1  0
 22 24  1  0
 25 24  1  1
 25 27  1  0
 25 26  1  0
 26 18  1  0
 27 28  1  0
 29 27  2  0
M  END
$$$$
