KMS.pdb
     RDKit          3D

 24 23  0  0  1  0  0  0  0  0999 V2000
    7.0707  -15.4903   20.5030 N   0  0  0  0  0  0  0  0  0  0  0  0
    8.2427  -14.6597   20.5414 C   0  0  1  0  0  0  0  0  0  0  0  0
    8.1720  -13.3942   19.7807 C   0  0  0  0  0  0  0  0  0  0  0  0
    7.7418  -13.4937   18.3482 C   0  0  0  0  0  0  0  0  0  0  0  0
    8.7931  -13.1557   17.3424 C   0  0  0  0  0  0  0  0  0  0  0  0
    8.1860  -13.3755   15.9424 C   0  0  0  0  0  0  0  0  0  0  0  0
    9.1845  -13.1231   14.9230 N   0  0  0  0  0  0  0  0  0  0  0  0
    8.6520  -14.4763   21.9645 C   0  0  0  0  0  0  0  0  0  0  0  0
    9.7388  -13.9115   22.1677 O   0  0  0  0  0  0  0  0  0  0  0  0
    6.8851  -11.0695   26.6326 C   0  0  0  0  0  0  0  0  0  0  0  0
    6.6676  -12.6333   27.4979 S   0  0  0  0  0  0  0  0  0  0  0  0
    7.6473  -13.9728   26.7100 C   0  0  0  0  0  0  0  0  0  0  0  0
    7.2909  -13.9625   25.2556 C   0  0  0  0  0  0  0  0  0  0  0  0
    8.1925  -14.8601   24.4242 C   0  0  2  0  0  0  0  0  0  0  0  0
    7.8651  -14.9119   23.0425 N   0  0  0  0  0  0  0  0  0  0  0  0
    8.4465  -16.1722   25.0380 C   0  0  0  0  0  0  0  0  0  0  0  0
    7.4639  -16.9068   25.3800 O   0  0  0  0  0  0  0  0  0  0  0  0
   12.2083  -17.7457   24.9346 O   0  0  0  0  0  0  0  0  0  0  0  0
   11.1541  -18.6528   25.0338 C   0  0  0  0  0  0  0  0  0  0  0  0
   10.0283  -17.9825   25.7925 C   0  0  2  0  0  0  0  0  0  0  0  0
    9.7336  -16.6688   25.2721 N   0  0  0  0  0  0  0  0  0  0  0  0
   10.4395  -17.8405   27.2083 C   0  0  0  0  0  0  0  0  0  0  0  0
   10.6979  -18.9875   27.9824 O   0  0  0  0  0  0  0  0  0  0  0  0
   10.5821  -16.7400   27.7976 O   0  0  0  0  0  0  0  0  0  0  0  0
  2  1  1  1
  2  3  1  0
  4  5  1  0
  4  3  1  0
  5  6  1  0
  6  7  1  0
  8  2  1  0
  8  9  2  0
 10 11  1  0
 11 12  1  0
 13 12  1  0
 14 13  1  1
 14 15  1  0
 15  8  1  0
 16 14  1  0
 17 16  2  0
 19 18  1  0
 20 19  1  6
 20 21  1  0
 20 22  1  0
 21 16  1  0
 22 23  1  0
 24 22  2  0
M  END
$$$$
