KMS.pdb
     RDKit          3D

 24 23  0  0  1  0  0  0  0  0999 V2000
    4.3149  -19.7932   22.9856 N   0  0  0  0  0  0  0  0  0  0  0  0
    5.4718  -19.7821   23.8380 C   0  0  1  0  0  0  0  0  0  0  0  0
    6.3657  -20.9554   23.7417 C   0  0  0  0  0  0  0  0  0  0  0  0
    6.6253  -21.7090   25.0112 C   0  0  0  0  0  0  0  0  0  0  0  0
    5.7978  -22.9377   25.2032 C   0  0  0  0  0  0  0  0  0  0  0  0
    6.2724  -23.6206   26.5015 C   0  0  0  0  0  0  0  0  0  0  0  0
    7.7051  -23.8325   26.4559 N   0  0  0  0  0  0  0  0  0  0  0  0
    6.1791  -18.4796   23.6663 C   0  0  0  0  0  0  0  0  0  0  0  0
    6.5662  -18.1977   22.5208 O   0  0  0  0  0  0  0  0  0  0  0  0
    7.5251  -11.2202   26.5420 C   0  0  0  0  0  0  0  0  0  0  0  0
    6.6174  -12.7751   26.5317 S   0  0  0  0  0  0  0  0  0  0  0  0
    7.4821  -14.0450   25.5245 C   0  0  0  0  0  0  0  0  0  0  0  0
    6.6371  -15.2801   25.5790 C   0  0  0  0  0  0  0  0  0  0  0  0
    7.1808  -16.4018   24.7094 C   0  0  2  0  0  0  0  0  0  0  0  0
    6.4099  -17.5951   24.7320 N   0  0  0  0  0  0  0  0  0  0  0  0
    8.6292  -16.6111   24.8542 C   0  0  0  0  0  0  0  0  0  0  0  0
    9.0988  -17.0045   25.9708 O   0  0  0  0  0  0  0  0  0  0  0  0
   11.2275  -15.4858   21.8935 O   0  0  0  0  0  0  0  0  0  0  0  0
   11.5719  -16.7043   22.4770 C   0  0  0  0  0  0  0  0  0  0  0  0
   10.9346  -16.7642   23.8491 C   0  0  2  0  0  0  0  0  0  0  0  0
    9.5388  -16.3980   23.8125 N   0  0  0  0  0  0  0  0  0  0  0  0
   11.6427  -15.8111   24.7344 C   0  0  0  0  0  0  0  0  0  0  0  0
   13.0319  -15.9315   24.9269 O   0  0  0  0  0  0  0  0  0  0  0  0
   11.0852  -14.8688   25.3509 O   0  0  0  0  0  0  0  0  0  0  0  0
  2  1  1  6
  2  3  1  0
  4  5  1  0
  4  3  1  0
  5  6  1  0
  6  7  1  0
  8  2  1  0
  8  9  2  0
 10 11  1  0
 11 12  1  0
 13 12  1  0
 14 13  1  1
 14 15  1  0
 15  8  1  0
 16 14  1  0
 17 16  2  0
 19 18  1  0
 20 19  1  6
 20 21  1  0
 20 22  1  0
 21 16  1  0
 22 23  1  0
 24 22  2  0
M  END
$$$$
