KMS.pdb
     RDKit          3D

 24 23  0  0  1  0  0  0  0  0999 V2000
    8.6255  -14.9237   19.6665 N   0  0  0  0  0  0  0  0  0  0  0  0
    7.7837  -15.5136   20.6707 C   0  0  1  0  0  0  0  0  0  0  0  0
    7.4315  -16.9358   20.4750 C   0  0  0  0  0  0  0  0  0  0  0  0
    6.9427  -17.3264   19.1128 C   0  0  0  0  0  0  0  0  0  0  0  0
    6.6407  -18.7785   18.9365 C   0  0  0  0  0  0  0  0  0  0  0  0
    6.1300  -18.9764   17.4953 C   0  0  0  0  0  0  0  0  0  0  0  0
    5.7524  -20.3599   17.2879 N   0  0  0  0  0  0  0  0  0  0  0  0
    8.3670  -15.2244   22.0132 C   0  0  0  0  0  0  0  0  0  0  0  0
    9.6049  -15.1627   22.0860 O   0  0  0  0  0  0  0  0  0  0  0  0
    6.6436  -10.4656   26.7414 C   0  0  0  0  0  0  0  0  0  0  0  0
    6.9793  -12.2292   26.8776 S   0  0  0  0  0  0  0  0  0  0  0  0
    6.6935  -13.0875   25.2787 C   0  0  0  0  0  0  0  0  0  0  0  0
    6.9948  -14.5356   25.5125 C   0  0  0  0  0  0  0  0  0  0  0  0
    7.9943  -15.0956   24.5138 C   0  0  2  0  0  0  0  0  0  0  0  0
    7.5774  -15.0272   23.1572 N   0  0  0  0  0  0  0  0  0  0  0  0
    8.5605  -16.3936   24.9108 C   0  0  0  0  0  0  0  0  0  0  0  0
    7.8156  -17.4265   24.9243 O   0  0  0  0  0  0  0  0  0  0  0  0
   12.5720  -16.8983   24.8439 O   0  0  0  0  0  0  0  0  0  0  0  0
   11.7740  -18.0340   24.7119 C   0  0  0  0  0  0  0  0  0  0  0  0
   10.5284  -17.8319   25.5487 C   0  0  2  0  0  0  0  0  0  0  0  0
    9.8993  -16.5605   25.2821 N   0  0  0  0  0  0  0  0  0  0  0  0
   10.9154  -17.8689   26.9778 C   0  0  0  0  0  0  0  0  0  0  0  0
   11.5855  -18.9940   27.4946 O   0  0  0  0  0  0  0  0  0  0  0  0
   10.6867  -16.9449   27.7979 O   0  0  0  0  0  0  0  0  0  0  0  0
  2  1  1  6
  2  3  1  0
  4  5  1  0
  4  3  1  0
  5  6  1  0
  6  7  1  0
  8  2  1  0
  8  9  2  0
 10 11  1  0
 11 12  1  0
 13 12  1  0
 14 13  1  1
 14 15  1  0
 15  8  1  0
 16 14  1  0
 17 16  2  0
 19 18  1  0
 20 19  1  6
 20 21  1  0
 20 22  1  0
 21 16  1  0
 22 23  1  0
 24 22  2  0
M  END
$$$$
