KMS.pdb
     RDKit          3D

 24 23  0  0  1  0  0  0  0  0999 V2000
    6.4423  -17.1748   21.7123 N   0  0  0  0  0  0  0  0  0  0  0  0
    7.7092  -16.6514   21.2812 C   0  0  1  0  0  0  0  0  0  0  0  0
    7.6840  -15.7790   20.0881 C   0  0  0  0  0  0  0  0  0  0  0  0
    8.0101  -16.4252   18.7755 C   0  0  0  0  0  0  0  0  0  0  0  0
    6.8312  -16.8810   17.9795 C   0  0  0  0  0  0  0  0  0  0  0  0
    7.3620  -17.4753   16.6596 C   0  0  0  0  0  0  0  0  0  0  0  0
    6.2552  -17.8876   15.8202 N   0  0  0  0  0  0  0  0  0  0  0  0
    8.3958  -16.0356   22.4540 C   0  0  0  0  0  0  0  0  0  0  0  0
    9.5420  -15.5968   22.2668 O   0  0  0  0  0  0  0  0  0  0  0  0
    6.0967  -10.6294   25.8152 C   0  0  0  0  0  0  0  0  0  0  0  0
    6.3722  -12.3095   26.4008 S   0  0  0  0  0  0  0  0  0  0  0  0
    7.3880  -13.2720   25.2106 C   0  0  0  0  0  0  0  0  0  0  0  0
    7.5703  -14.6326   25.8088 C   0  0  0  0  0  0  0  0  0  0  0  0
    8.4153  -15.5479   24.9381 C   0  0  2  0  0  0  0  0  0  0  0  0
    7.7979  -15.9434   23.7210 N   0  0  0  0  0  0  0  0  0  0  0  0
    9.0524  -16.6457   25.6809 C   0  0  0  0  0  0  0  0  0  0  0  0
    8.3499  -17.6370   26.0626 O   0  0  0  0  0  0  0  0  0  0  0  0
   13.1460  -16.6811   26.1991 O   0  0  0  0  0  0  0  0  0  0  0  0
   12.5148  -17.9219   26.1221 C   0  0  0  0  0  0  0  0  0  0  0  0
   11.0998  -17.7612   26.6362 C   0  0  2  0  0  0  0  0  0  0  0  0
   10.4152  -16.6622   25.9983 N   0  0  0  0  0  0  0  0  0  0  0  0
   11.1599  -17.4904   28.0910 C   0  0  0  0  0  0  0  0  0  0  0  0
   11.7616  -18.4252   28.9546 O   0  0  0  0  0  0  0  0  0  0  0  0
   10.7013  -16.4567   28.6388 O   0  0  0  0  0  0  0  0  0  0  0  0
  2  1  1  1
  2  3  1  0
  4  5  1  0
  4  3  1  0
  5  6  1  0
  6  7  1  0
  8  2  1  0
  8  9  2  0
 10 11  1  0
 11 12  1  0
 13 12  1  0
 14 13  1  1
 14 15  1  0
 15  8  1  0
 16 14  1  0
 17 16  2  0
 19 18  1  0
 20 19  1  6
 20 21  1  0
 20 22  1  0
 21 16  1  0
 22 23  1  0
 24 22  2  0
M  END
$$$$
