KMS.pdb
     RDKit          3D

 24 23  0  0  1  0  0  0  0  0999 V2000
    9.0818  -16.3216   19.4306 N   0  0  0  0  0  0  0  0  0  0  0  0
    7.9591  -16.0903   20.2971 C   0  0  1  0  0  0  0  0  0  0  0  0
    6.9356  -17.1560   20.3392 C   0  0  0  0  0  0  0  0  0  0  0  0
    7.2254  -18.3982   19.5518 C   0  0  0  0  0  0  0  0  0  0  0  0
    6.0427  -19.0191   18.8833 C   0  0  0  0  0  0  0  0  0  0  0  0
    6.5378  -20.2679   18.1268 C   0  0  0  0  0  0  0  0  0  0  0  0
    5.4242  -20.9274   17.4748 N   0  0  0  0  0  0  0  0  0  0  0  0
    8.4679  -15.7007   21.6445 C   0  0  0  0  0  0  0  0  0  0  0  0
    9.5616  -16.1756   21.9905 O   0  0  0  0  0  0  0  0  0  0  0  0
    6.9251  -11.2444   28.1048 C   0  0  0  0  0  0  0  0  0  0  0  0
    6.4891  -11.7904   26.4454 S   0  0  0  0  0  0  0  0  0  0  0  0
    7.5237  -13.2142   25.9190 C   0  0  0  0  0  0  0  0  0  0  0  0
    7.1599  -13.5020   24.4952 C   0  0  0  0  0  0  0  0  0  0  0  0
    8.0385  -14.5731   23.8700 C   0  0  2  0  0  0  0  0  0  0  0  0
    7.7643  -14.8396   22.5016 N   0  0  0  0  0  0  0  0  0  0  0  0
    8.1882  -15.7744   24.7050 C   0  0  0  0  0  0  0  0  0  0  0  0
    7.1881  -16.5416   24.8873 O   0  0  0  0  0  0  0  0  0  0  0  0
   11.5830  -17.6967   24.8937 O   0  0  0  0  0  0  0  0  0  0  0  0
   10.4430  -18.3438   25.3688 C   0  0  0  0  0  0  0  0  0  0  0  0
    9.5974  -17.3254   26.1039 C   0  0  2  0  0  0  0  0  0  0  0  0
    9.3926  -16.1289   25.3228 N   0  0  0  0  0  0  0  0  0  0  0  0
   10.2992  -16.9510   27.3532 C   0  0  0  0  0  0  0  0  0  0  0  0
   10.6600  -17.9464   28.2809 O   0  0  0  0  0  0  0  0  0  0  0  0
   10.6109  -15.7744   27.6654 O   0  0  0  0  0  0  0  0  0  0  0  0
  2  1  1  6
  2  3  1  0
  4  5  1  0
  4  3  1  0
  5  6  1  0
  6  7  1  0
  8  2  1  0
  8  9  2  0
 10 11  1  0
 11 12  1  0
 13 12  1  0
 14 13  1  1
 14 15  1  0
 15  8  1  0
 16 14  1  0
 17 16  2  0
 19 18  1  0
 20 19  1  6
 20 21  1  0
 20 22  1  0
 21 16  1  0
 22 23  1  0
 24 22  2  0
M  END
$$$$
