KMS.pdb
     RDKit          3D

 24 23  0  0  1  0  0  0  0  0999 V2000
    4.7068  -18.5679   22.5956 N   0  0  0  0  0  0  0  0  0  0  0  0
    5.8715  -18.8433   23.3910 C   0  0  1  0  0  0  0  0  0  0  0  0
    6.5699  -20.1151   23.1085 C   0  0  0  0  0  0  0  0  0  0  0  0
    6.1050  -21.3208   23.8682 C   0  0  0  0  0  0  0  0  0  0  0  0
    6.5457  -21.3844   25.2940 C   0  0  0  0  0  0  0  0  0  0  0  0
    5.9827  -22.6865   25.8978 C   0  0  0  0  0  0  0  0  0  0  0  0
    6.4433  -22.8404   27.2631 N   0  0  0  0  0  0  0  0  0  0  0  0
    6.7681  -17.6513   23.3541 C   0  0  0  0  0  0  0  0  0  0  0  0
    7.3658  -17.4313   22.2884 O   0  0  0  0  0  0  0  0  0  0  0  0
    7.2175  -11.7230   26.9086 C   0  0  0  0  0  0  0  0  0  0  0  0
    5.8406  -12.8588   26.6726 S   0  0  0  0  0  0  0  0  0  0  0  0
    6.1744  -14.0351   25.3016 C   0  0  0  0  0  0  0  0  0  0  0  0
    7.4944  -14.6755   25.6014 C   0  0  0  0  0  0  0  0  0  0  0  0
    7.8775  -15.7353   24.5816 C   0  0  2  0  0  0  0  0  0  0  0  0
    6.9464  -16.8013   24.4572 N   0  0  0  0  0  0  0  0  0  0  0  0
    9.2816  -16.1626   24.6742 C   0  0  0  0  0  0  0  0  0  0  0  0
    9.6551  -16.8862   25.6535 O   0  0  0  0  0  0  0  0  0  0  0  0
   11.7994  -15.3239   21.5419 O   0  0  0  0  0  0  0  0  0  0  0  0
   11.9742  -16.5639   22.1549 C   0  0  0  0  0  0  0  0  0  0  0  0
   11.5448  -16.4371   23.6012 C   0  0  2  0  0  0  0  0  0  0  0  0
   10.2501  -15.8115   23.7272 N   0  0  0  0  0  0  0  0  0  0  0  0
   12.5379  -15.5981   24.3109 C   0  0  0  0  0  0  0  0  0  0  0  0
   13.8875  -15.9958   24.3572 O   0  0  0  0  0  0  0  0  0  0  0  0
   12.2654  -14.5206   24.8968 O   0  0  0  0  0  0  0  0  0  0  0  0
  2  1  1  6
  2  3  1  0
  4  5  1  0
  4  3  1  0
  5  6  1  0
  6  7  1  0
  8  2  1  0
  8  9  2  0
 10 11  1  0
 11 12  1  0
 13 12  1  0
 14 13  1  1
 14 15  1  0
 15  8  1  0
 16 14  1  0
 17 16  2  0
 19 18  1  0
 20 19  1  6
 20 21  1  0
 20 22  1  0
 21 16  1  0
 22 23  1  0
 24 22  2  0
M  END
$$$$
