KMS.pdb
     RDKit          3D

 24 23  0  0  1  0  0  0  0  0999 V2000
    8.9184  -16.0524   19.4246 N   0  0  0  0  0  0  0  0  0  0  0  0
    7.9832  -16.3588   20.4718 C   0  0  1  0  0  0  0  0  0  0  0  0
    7.5560  -17.7702   20.5739 C   0  0  0  0  0  0  0  0  0  0  0  0
    7.2120  -18.4633   19.2900 C   0  0  0  0  0  0  0  0  0  0  0  0
    6.6862  -19.8536   19.4377 C   0  0  0  0  0  0  0  0  0  0  0  0
    6.4178  -20.4028   18.0223 C   0  0  0  0  0  0  0  0  0  0  0  0
    7.1339  -21.6476   17.8287 N   0  0  0  0  0  0  0  0  0  0  0  0
    8.5021  -15.8001   21.7542 C   0  0  0  0  0  0  0  0  0  0  0  0
    9.7208  -15.9126   21.9633 O   0  0  0  0  0  0  0  0  0  0  0  0
    6.7002  -11.3156   28.1156 C   0  0  0  0  0  0  0  0  0  0  0  0
    6.2728  -12.0000   26.5061 S   0  0  0  0  0  0  0  0  0  0  0  0
    7.5244  -13.2238   25.9485 C   0  0  0  0  0  0  0  0  0  0  0  0
    7.1091  -13.6643   24.5789 C   0  0  0  0  0  0  0  0  0  0  0  0
    8.0373  -14.7163   23.9943 C   0  0  2  0  0  0  0  0  0  0  0  0
    7.6745  -15.1716   22.6982 N   0  0  0  0  0  0  0  0  0  0  0  0
    8.3839  -15.7880   24.9399 C   0  0  0  0  0  0  0  0  0  0  0  0
    7.4771  -16.5841   25.3473 O   0  0  0  0  0  0  0  0  0  0  0  0
   12.2920  -16.8383   25.4137 O   0  0  0  0  0  0  0  0  0  0  0  0
   11.3117  -17.8041   25.6374 C   0  0  0  0  0  0  0  0  0  0  0  0
   10.0985  -17.1141   26.2244 C   0  0  2  0  0  0  0  0  0  0  0  0
    9.6806  -15.9858   25.4270 N   0  0  0  0  0  0  0  0  0  0  0  0
   10.4497  -16.6234   27.5769 C   0  0  0  0  0  0  0  0  0  0  0  0
   10.9032  -17.5278   28.5558 O   0  0  0  0  0  0  0  0  0  0  0  0
   10.3736  -15.4219   27.9365 O   0  0  0  0  0  0  0  0  0  0  0  0
  2  1  1  6
  2  3  1  0
  4  5  1  0
  4  3  1  0
  5  6  1  0
  6  7  1  0
  8  2  1  0
  8  9  2  0
 10 11  1  0
 11 12  1  0
 13 12  1  0
 14 13  1  1
 14 15  1  0
 15  8  1  0
 16 14  1  0
 17 16  2  0
 19 18  1  0
 20 19  1  6
 20 21  1  0
 20 22  1  0
 21 16  1  0
 22 23  1  0
 24 22  2  0
M  END
$$$$
