KMS.pdb
     RDKit          3D

 24 23  0  0  1  0  0  0  0  0999 V2000
    7.1475  -15.4600   20.7167 N   0  0  0  0  0  0  0  0  0  0  0  0
    8.4250  -14.8149   20.8463 C   0  0  1  0  0  0  0  0  0  0  0  0
    8.5770  -13.5202   20.1494 C   0  0  0  0  0  0  0  0  0  0  0  0
    7.8177  -13.3531   18.8677 C   0  0  0  0  0  0  0  0  0  0  0  0
    8.5467  -13.7787   17.6354 C   0  0  0  0  0  0  0  0  0  0  0  0
    7.6067  -13.5483   16.4353 C   0  0  0  0  0  0  0  0  0  0  0  0
    8.2427  -13.9972   15.2131 N   0  0  0  0  0  0  0  0  0  0  0  0
    8.7870  -14.7581   22.2927 C   0  0  0  0  0  0  0  0  0  0  0  0
    9.9287  -14.3568   22.5702 O   0  0  0  0  0  0  0  0  0  0  0  0
    7.3924  -11.4159   27.6326 C   0  0  0  0  0  0  0  0  0  0  0  0
    6.1796  -12.0936   26.4874 S   0  0  0  0  0  0  0  0  0  0  0  0
    6.9948  -12.9910   25.1073 C   0  0  0  0  0  0  0  0  0  0  0  0
    7.1700  -14.4064   25.5638 C   0  0  0  0  0  0  0  0  0  0  0  0
    8.1597  -15.1805   24.7086 C   0  0  2  0  0  0  0  0  0  0  0  0
    7.8987  -15.1345   23.3127 N   0  0  0  0  0  0  0  0  0  0  0  0
    8.4623  -16.5233   25.2263 C   0  0  0  0  0  0  0  0  0  0  0  0
    7.5342  -17.3923   25.3002 O   0  0  0  0  0  0  0  0  0  0  0  0
   11.9812  -18.1219   24.8090 O   0  0  0  0  0  0  0  0  0  0  0  0
   10.9825  -18.9840   25.2600 C   0  0  0  0  0  0  0  0  0  0  0  0
   10.0737  -18.2051   26.1872 C   0  0  2  0  0  0  0  0  0  0  0  0
    9.7391  -16.9075   25.6508 N   0  0  0  0  0  0  0  0  0  0  0  0
   10.7787  -18.0085   27.4748 C   0  0  0  0  0  0  0  0  0  0  0  0
   11.2324  -19.1240   28.2040 O   0  0  0  0  0  0  0  0  0  0  0  0
   11.0142  -16.8867   27.9895 O   0  0  0  0  0  0  0  0  0  0  0  0
  2  1  1  1
  2  3  1  0
  4  5  1  0
  4  3  1  0
  5  6  1  0
  6  7  1  0
  8  2  1  0
  8  9  2  0
 10 11  1  0
 11 12  1  0
 13 12  1  0
 14 13  1  1
 14 15  1  0
 15  8  1  0
 16 14  1  0
 17 16  2  0
 19 18  1  0
 20 19  1  6
 20 21  1  0
 20 22  1  0
 21 16  1  0
 22 23  1  0
 24 22  2  0
M  END
$$$$
