KMS.pdb
     RDKit          3D

 24 23  0  0  1  0  0  0  0  0999 V2000
    7.3865  -15.7482   20.4034 N   0  0  0  0  0  0  0  0  0  0  0  0
    8.6007  -14.9798   20.4046 C   0  0  1  0  0  0  0  0  0  0  0  0
    8.6413  -13.8206   19.4882 C   0  0  0  0  0  0  0  0  0  0  0  0
    7.7641  -13.8916   18.2748 C   0  0  0  0  0  0  0  0  0  0  0  0
    8.4772  -13.7895   16.9663 C   0  0  0  0  0  0  0  0  0  0  0  0
    7.4095  -13.7690   15.8543 C   0  0  0  0  0  0  0  0  0  0  0  0
    8.0389  -13.5636   14.5653 N   0  0  0  0  0  0  0  0  0  0  0  0
    8.9471  -14.6359   21.8145 C   0  0  0  0  0  0  0  0  0  0  0  0
   10.0421  -14.0824   22.0046 O   0  0  0  0  0  0  0  0  0  0  0  0
    6.8007  -10.9621   27.7496 C   0  0  0  0  0  0  0  0  0  0  0  0
    6.0908  -12.3671   26.8758 S   0  0  0  0  0  0  0  0  0  0  0  0
    7.3905  -13.5617   26.3674 C   0  0  0  0  0  0  0  0  0  0  0  0
    7.1231  -13.8973   24.9327 C   0  0  0  0  0  0  0  0  0  0  0  0
    8.3008  -14.5849   24.2616 C   0  0  2  0  0  0  0  0  0  0  0  0
    8.0943  -14.9134   22.8948 N   0  0  0  0  0  0  0  0  0  0  0  0
    8.8872  -15.6682   25.0650 C   0  0  0  0  0  0  0  0  0  0  0  0
    9.0050  -15.5233   26.3249 O   0  0  0  0  0  0  0  0  0  0  0  0
   10.2472  -19.0633   23.2148 O   0  0  0  0  0  0  0  0  0  0  0  0
    9.7289  -19.2931   24.4886 C   0  0  0  0  0  0  0  0  0  0  0  0
    9.8182  -18.0003   25.2717 C   0  0  2  0  0  0  0  0  0  0  0  0
    9.3320  -16.8738   24.5114 N   0  0  0  0  0  0  0  0  0  0  0  0
   11.2397  -17.7559   25.6081 C   0  0  0  0  0  0  0  0  0  0  0  0
   11.8897  -16.6079   25.1170 O   0  0  0  0  0  0  0  0  0  0  0  0
   11.9397  -18.5168   26.3221 O   0  0  0  0  0  0  0  0  0  0  0  0
  2  1  1  1
  2  3  1  0
  4  5  1  0
  4  3  1  0
  5  6  1  0
  6  7  1  0
  8  2  1  0
  8  9  2  0
 10 11  1  0
 11 12  1  0
 13 12  1  0
 14 13  1  1
 14 15  1  0
 15  8  1  0
 16 14  1  0
 17 16  2  0
 19 18  1  0
 20 19  1  6
 20 21  1  0
 20 22  1  0
 21 16  1  0
 22 23  1  0
 24 22  2  0
M  END
$$$$
