KMS.pdb
     RDKit          3D

 24 23  0  0  1  0  0  0  0  0999 V2000
    7.3395  -16.2077   20.7529 N   0  0  0  0  0  0  0  0  0  0  0  0
    8.6646  -15.6527   20.7223 C   0  0  1  0  0  0  0  0  0  0  0  0
    8.9093  -14.6009   19.7129 C   0  0  0  0  0  0  0  0  0  0  0  0
    9.2493  -15.0637   18.3282 C   0  0  0  0  0  0  0  0  0  0  0  0
    8.3424  -14.5675   17.2500 C   0  0  0  0  0  0  0  0  0  0  0  0
    8.7733  -15.2416   15.9321 C   0  0  0  0  0  0  0  0  0  0  0  0
    7.9405  -14.7766   14.8412 N   0  0  0  0  0  0  0  0  0  0  0  0
    9.0453  -15.2483   22.1071 C   0  0  0  0  0  0  0  0  0  0  0  0
   10.2425  -14.9863   22.3063 O   0  0  0  0  0  0  0  0  0  0  0  0
    6.3665  -11.0443   26.5622 C   0  0  0  0  0  0  0  0  0  0  0  0
    6.2912  -12.6900   27.2884 S   0  0  0  0  0  0  0  0  0  0  0  0
    7.6376  -13.7633   26.6480 C   0  0  0  0  0  0  0  0  0  0  0  0
    7.3057  -14.0556   25.2173 C   0  0  0  0  0  0  0  0  0  0  0  0
    8.3806  -14.8738   24.5209 C   0  0  2  0  0  0  0  0  0  0  0  0
    8.1149  -15.1599   23.1548 N   0  0  0  0  0  0  0  0  0  0  0  0
    8.8430  -16.0289   25.3049 C   0  0  0  0  0  0  0  0  0  0  0  0
    8.0762  -17.0348   25.4541 O   0  0  0  0  0  0  0  0  0  0  0  0
   12.7972  -16.4652   26.0764 O   0  0  0  0  0  0  0  0  0  0  0  0
   12.0104  -17.6161   26.0977 C   0  0  0  0  0  0  0  0  0  0  0  0
   10.6348  -17.2347   26.6026 C   0  0  2  0  0  0  0  0  0  0  0  0
   10.1043  -16.0858   25.9083 N   0  0  0  0  0  0  0  0  0  0  0  0
   10.7421  -16.9002   28.0414 C   0  0  0  0  0  0  0  0  0  0  0  0
   11.2918  -17.8342   28.9399 O   0  0  0  0  0  0  0  0  0  0  0  0
   10.3693  -15.8113   28.5453 O   0  0  0  0  0  0  0  0  0  0  0  0
  2  1  1  1
  2  3  1  0
  4  5  1  0
  4  3  1  0
  5  6  1  0
  6  7  1  0
  8  2  1  0
  8  9  2  0
 10 11  1  0
 11 12  1  0
 13 12  1  0
 14 13  1  1
 14 15  1  0
 15  8  1  0
 16 14  1  0
 17 16  2  0
 19 18  1  0
 20 19  1  6
 20 21  1  0
 20 22  1  0
 21 16  1  0
 22 23  1  0
 24 22  2  0
M  END
$$$$
