KMS.pdb
     RDKit          3D

 24 23  0  0  1  0  0  0  0  0999 V2000
    8.5493  -16.4555   19.5974 N   0  0  0  0  0  0  0  0  0  0  0  0
    7.5545  -15.9189   20.4847 C   0  0  1  0  0  0  0  0  0  0  0  0
    6.2534  -16.6200   20.5083 C   0  0  0  0  0  0  0  0  0  0  0  0
    6.2971  -18.1168   20.5768 C   0  0  0  0  0  0  0  0  0  0  0  0
    5.6732  -18.7172   21.7939 C   0  0  0  0  0  0  0  0  0  0  0  0
    5.7480  -20.2502   21.6475 C   0  0  0  0  0  0  0  0  0  0  0  0
    5.1200  -20.8890   22.7865 N   0  0  0  0  0  0  0  0  0  0  0  0
    8.1625  -15.7476   21.8365 C   0  0  0  0  0  0  0  0  0  0  0  0
    9.2588  -16.2963   22.0325 O   0  0  0  0  0  0  0  0  0  0  0  0
    5.3225  -11.9795   26.7641 C   0  0  0  0  0  0  0  0  0  0  0  0
    7.1107  -11.7924   26.8582 S   0  0  0  0  0  0  0  0  0  0  0  0
    7.9715  -13.2783   26.2058 C   0  0  0  0  0  0  0  0  0  0  0  0
    7.4173  -13.5252   24.8368 C   0  0  0  0  0  0  0  0  0  0  0  0
    8.0726  -14.7081   24.1430 C   0  0  2  0  0  0  0  0  0  0  0  0
    7.5464  -15.0064   22.8574 N   0  0  0  0  0  0  0  0  0  0  0  0
    8.2482  -15.8797   25.0145 C   0  0  0  0  0  0  0  0  0  0  0  0
    7.2365  -16.5867   25.3284 O   0  0  0  0  0  0  0  0  0  0  0  0
   10.9699  -19.5360   26.1726 O   0  0  0  0  0  0  0  0  0  0  0  0
   10.7917  -18.3457   25.4688 C   0  0  0  0  0  0  0  0  0  0  0  0
    9.7499  -17.5221   26.1959 C   0  0  2  0  0  0  0  0  0  0  0  0
    9.4901  -16.2689   25.5285 N   0  0  0  0  0  0  0  0  0  0  0  0
   10.2542  -17.2285   27.5572 C   0  0  0  0  0  0  0  0  0  0  0  0
   10.5345  -18.2847   28.4447 O   0  0  0  0  0  0  0  0  0  0  0  0
   10.4602  -16.0716   28.0021 O   0  0  0  0  0  0  0  0  0  0  0  0
  2  1  1  6
  2  3  1  0
  4  5  1  0
  4  3  1  0
  5  6  1  0
  6  7  1  0
  8  2  1  0
  8  9  2  0
 10 11  1  0
 11 12  1  0
 13 12  1  0
 14 13  1  1
 14 15  1  0
 15  8  1  0
 16 14  1  0
 17 16  2  0
 19 18  1  0
 20 19  1  6
 20 21  1  0
 20 22  1  0
 21 16  1  0
 22 23  1  0
 24 22  2  0
M  END
$$$$
