KMS.pdb
     RDKit          3D

 24 23  0  0  1  0  0  0  0  0999 V2000
    6.8177  -17.5434   20.3669 N   0  0  0  0  0  0  0  0  0  0  0  0
    8.1251  -17.0504   20.0316 C   0  0  1  0  0  0  0  0  0  0  0  0
    8.2471  -16.3511   18.7350 C   0  0  0  0  0  0  0  0  0  0  0  0
    7.8421  -17.1215   17.5146 C   0  0  0  0  0  0  0  0  0  0  0  0
    6.4160  -16.9573   17.1018 C   0  0  0  0  0  0  0  0  0  0  0  0
    6.1845  -17.8457   15.8632 C   0  0  0  0  0  0  0  0  0  0  0  0
    5.4167  -19.0187   16.2300 N   0  0  0  0  0  0  0  0  0  0  0  0
    8.6484  -16.2613   21.1847 C   0  0  0  0  0  0  0  0  0  0  0  0
    9.8050  -15.8211   21.0850 O   0  0  0  0  0  0  0  0  0  0  0  0
    6.8573  -11.5533   27.2590 C   0  0  0  0  0  0  0  0  0  0  0  0
    6.3825  -12.5418   25.8310 S   0  0  0  0  0  0  0  0  0  0  0  0
    7.7567  -13.6345   25.2902 C   0  0  0  0  0  0  0  0  0  0  0  0
    7.2510  -14.4016   24.1077 C   0  0  0  0  0  0  0  0  0  0  0  0
    8.3048  -15.3186   23.5090 C   0  0  2  0  0  0  0  0  0  0  0  0
    7.8908  -16.0127   22.3403 N   0  0  0  0  0  0  0  0  0  0  0  0
    8.9901  -16.1578   24.5034 C   0  0  0  0  0  0  0  0  0  0  0  0
    8.3029  -16.8462   25.3255 O   0  0  0  0  0  0  0  0  0  0  0  0
   13.0721  -16.0066   25.0030 O   0  0  0  0  0  0  0  0  0  0  0  0
   12.5608  -17.3035   24.9829 C   0  0  0  0  0  0  0  0  0  0  0  0
   11.0974  -17.2369   25.3656 C   0  0  2  0  0  0  0  0  0  0  0  0
   10.3835  -16.2441   24.5987 N   0  0  0  0  0  0  0  0  0  0  0  0
   11.0060  -16.8725   26.7982 C   0  0  0  0  0  0  0  0  0  0  0  0
   11.6386  -17.6733   27.7678 O   0  0  0  0  0  0  0  0  0  0  0  0
   10.3873  -15.8704   27.2362 O   0  0  0  0  0  0  0  0  0  0  0  0
  2  1  1  1
  2  3  1  0
  4  5  1  0
  4  3  1  0
  5  6  1  0
  6  7  1  0
  8  2  1  0
  8  9  2  0
 10 11  1  0
 11 12  1  0
 13 12  1  0
 14 13  1  1
 14 15  1  0
 15  8  1  0
 16 14  1  0
 17 16  2  0
 19 18  1  0
 20 19  1  6
 20 21  1  0
 20 22  1  0
 21 16  1  0
 22 23  1  0
 24 22  2  0
M  END
$$$$
