KMS.pdb
     RDKit          3D

 24 23  0  0  1  0  0  0  0  0999 V2000
    9.5640  -16.2489   19.5301 N   0  0  0  0  0  0  0  0  0  0  0  0
    8.5707  -16.5191   20.5328 C   0  0  1  0  0  0  0  0  0  0  0  0
    8.1512  -17.9295   20.6735 C   0  0  0  0  0  0  0  0  0  0  0  0
    7.8355  -18.6668   19.4071 C   0  0  0  0  0  0  0  0  0  0  0  0
    8.7586  -19.7945   19.0794 C   0  0  0  0  0  0  0  0  0  0  0  0
    8.1990  -20.5069   17.8319 C   0  0  0  0  0  0  0  0  0  0  0  0
    9.1241  -21.5300   17.3877 N   0  0  0  0  0  0  0  0  0  0  0  0
    9.0068  -15.8972   21.8170 C   0  0  0  0  0  0  0  0  0  0  0  0
   10.2283  -15.8603   22.0366 O   0  0  0  0  0  0  0  0  0  0  0  0
    6.7338  -11.4378   28.0271 C   0  0  0  0  0  0  0  0  0  0  0  0
    6.4218  -12.1510   26.4037 S   0  0  0  0  0  0  0  0  0  0  0  0
    7.7303  -13.3549   25.9420 C   0  0  0  0  0  0  0  0  0  0  0  0
    7.3938  -13.8436   24.5671 C   0  0  0  0  0  0  0  0  0  0  0  0
    8.3960  -14.8594   24.0438 C   0  0  2  0  0  0  0  0  0  0  0  0
    8.1008  -15.3709   22.7515 N   0  0  0  0  0  0  0  0  0  0  0  0
    8.7690  -15.8828   25.0318 C   0  0  0  0  0  0  0  0  0  0  0  0
    7.9067  -16.7449   25.3997 O   0  0  0  0  0  0  0  0  0  0  0  0
   11.9417  -17.5801   24.7207 O   0  0  0  0  0  0  0  0  0  0  0  0
   11.8627  -17.5276   26.1117 C   0  0  0  0  0  0  0  0  0  0  0  0
   10.4870  -17.0169   26.4846 C   0  0  2  0  0  0  0  0  0  0  0  0
   10.0443  -15.9642   25.6018 N   0  0  0  0  0  0  0  0  0  0  0  0
   10.5481  -16.4745   27.8614 C   0  0  0  0  0  0  0  0  0  0  0  0
   10.1042  -15.1638   28.1198 O   0  0  0  0  0  0  0  0  0  0  0  0
   10.9795  -17.1111   28.8552 O   0  0  0  0  0  0  0  0  0  0  0  0
  2  1  1  6
  2  3  1  0
  4  5  1  0
  4  3  1  0
  5  6  1  0
  6  7  1  0
  8  2  1  0
  8  9  2  0
 10 11  1  0
 11 12  1  0
 13 12  1  0
 14 13  1  1
 14 15  1  0
 15  8  1  0
 16 14  1  0
 17 16  2  0
 19 18  1  0
 20 19  1  6
 20 21  1  0
 20 22  1  0
 21 16  1  0
 22 23  1  0
 24 22  2  0
M  END
$$$$
