KMS.pdb
     RDKit          3D

 24 23  0  0  1  0  0  0  0  0999 V2000
    8.2698  -15.0776   19.6907 N   0  0  0  0  0  0  0  0  0  0  0  0
    7.4963  -15.5891   20.7884 C   0  0  1  0  0  0  0  0  0  0  0  0
    7.0879  -17.0067   20.6956 C   0  0  0  0  0  0  0  0  0  0  0  0
    6.5210  -17.4587   19.3836 C   0  0  0  0  0  0  0  0  0  0  0  0
    5.9656  -18.8453   19.3735 C   0  0  0  0  0  0  0  0  0  0  0  0
    5.4545  -19.1318   17.9474 C   0  0  0  0  0  0  0  0  0  0  0  0
    4.9047  -20.4706   17.8767 N   0  0  0  0  0  0  0  0  0  0  0  0
    8.1958  -15.2537   22.0629 C   0  0  0  0  0  0  0  0  0  0  0  0
    9.4358  -15.3163   22.0559 O   0  0  0  0  0  0  0  0  0  0  0  0
    6.5271  -12.1049   27.7244 C   0  0  0  0  0  0  0  0  0  0  0  0
    6.3761  -11.3322   26.1053 S   0  0  0  0  0  0  0  0  0  0  0  0
    6.9406  -12.4629   24.7719 C   0  0  0  0  0  0  0  0  0  0  0  0
    7.2565  -13.7713   25.4281 C   0  0  0  0  0  0  0  0  0  0  0  0
    8.0557  -14.7006   24.5293 C   0  0  2  0  0  0  0  0  0  0  0  0
    7.5099  -14.8819   23.2301 N   0  0  0  0  0  0  0  0  0  0  0  0
    8.4749  -15.9450   25.1914 C   0  0  0  0  0  0  0  0  0  0  0  0
    7.6116  -16.8495   25.4339 O   0  0  0  0  0  0  0  0  0  0  0  0
   12.3304  -17.0123   25.0759 O   0  0  0  0  0  0  0  0  0  0  0  0
   11.4062  -18.0271   25.3208 C   0  0  0  0  0  0  0  0  0  0  0  0
   10.2703  -17.4414   26.1326 C   0  0  2  0  0  0  0  0  0  0  0  0
    9.7961  -16.1961   25.5777 N   0  0  0  0  0  0  0  0  0  0  0  0
   10.7633  -17.1815   27.5049 C   0  0  0  0  0  0  0  0  0  0  0  0
   11.2811  -18.2389   28.2766 O   0  0  0  0  0  0  0  0  0  0  0  0
   10.7574  -16.0533   28.0579 O   0  0  0  0  0  0  0  0  0  0  0  0
  2  1  1  6
  2  3  1  0
  4  5  1  0
  4  3  1  0
  5  6  1  0
  6  7  1  0
  8  2  1  0
  8  9  2  0
 10 11  1  0
 11 12  1  0
 13 12  1  0
 14 13  1  1
 14 15  1  0
 15  8  1  0
 16 14  1  0
 17 16  2  0
 19 18  1  0
 20 19  1  6
 20 21  1  0
 20 22  1  0
 21 16  1  0
 22 23  1  0
 24 22  2  0
M  END
$$$$
