KMS.pdb
     RDKit          3D

 24 23  0  0  1  0  0  0  0  0999 V2000
   -0.8199  -26.2971   29.8801 N   0  0  0  0  0  0  0  0  0  0  0  0
   -2.1189  -26.8764   30.0843 C   0  0  1  0  0  0  0  0  0  0  0  0
   -2.4352  -27.3015   31.4643 C   0  0  0  0  0  0  0  0  0  0  0  0
   -1.5152  -28.3090   32.0852 C   0  0  0  0  0  0  0  0  0  0  0  0
   -1.8439  -28.6903   33.4915 C   0  0  0  0  0  0  0  0  0  0  0  0
   -0.7783  -29.7007   33.9613 C   0  0  0  0  0  0  0  0  0  0  0  0
    0.4944  -29.0319   34.1421 N   0  0  0  0  0  0  0  0  0  0  0  0
   -3.1449  -25.9700   29.4912 C   0  0  0  0  0  0  0  0  0  0  0  0
   -3.1286  -24.7851   29.8616 O   0  0  0  0  0  0  0  0  0  0  0  0
   -8.5801  -25.2348   23.6896 C   0  0  0  0  0  0  0  0  0  0  0  0
   -7.2831  -26.1696   24.5175 S   0  0  0  0  0  0  0  0  0  0  0  0
   -6.7318  -25.3275   26.0543 C   0  0  0  0  0  0  0  0  0  0  0  0
   -5.6677  -26.1924   26.6560 C   0  0  0  0  0  0  0  0  0  0  0  0
   -5.1491  -25.6506   27.9779 C   0  0  2  0  0  0  0  0  0  0  0  0
   -4.0960  -26.4090   28.5564 N   0  0  0  0  0  0  0  0  0  0  0  0
   -6.2142  -25.2731   28.9191 C   0  0  0  0  0  0  0  0  0  0  0  0
   -6.9088  -26.1817   29.4794 O   0  0  0  0  0  0  0  0  0  0  0  0
   -6.0091  -22.0618   31.2358 O   0  0  0  0  0  0  0  0  0  0  0  0
   -6.9144  -23.0882   31.5021 C   0  0  0  0  0  0  0  0  0  0  0  0
   -7.5208  -23.5318   30.1876 C   0  0  2  0  0  0  0  0  0  0  0  0
   -6.5130  -23.9443   29.2401 N   0  0  0  0  0  0  0  0  0  0  0  0
   -8.2647  -22.3898   29.6080 C   0  0  0  0  0  0  0  0  0  0  0  0
   -9.3338  -21.8144   30.3205 O   0  0  0  0  0  0  0  0  0  0  0  0
   -8.0111  -21.8726   28.4913 O   0  0  0  0  0  0  0  0  0  0  0  0
  2  1  1  1
  2  3  1  0
  4  5  1  0
  4  3  1  0
  5  6  1  0
  6  7  1  0
  8  2  1  0
  8  9  2  0
 10 11  1  0
 11 12  1  0
 13 12  1  0
 14 13  1  6
 14 15  1  0
 15  8  1  0
 16 14  1  0
 17 16  2  0
 19 18  1  0
 20 19  1  1
 20 21  1  0
 20 22  1  0
 21 16  1  0
 22 23  1  0
 24 22  2  0
M  END
$$$$
