EDI.pdb
     RDKit          3D

 26 25  0  0  1  0  0  0  0  0999 V2000
   27.8802  -18.8281  -17.1757 N   0  0  0  0  0  0  0  0  0  0  0  0
   26.9754  -17.8614  -17.7646 C   0  0  1  0  0  0  0  0  0  0  0  0
   27.2958  -17.7054  -19.2139 C   0  0  0  0  0  0  0  0  0  0  0  0
   26.9177  -18.8836  -20.0563 C   0  0  0  0  0  0  0  0  0  0  0  0
   26.6013  -18.3752  -21.4396 C   0  0  0  0  0  0  0  0  0  0  0  0
   27.4727  -17.7593  -22.1028 O   0  0  0  0  0  0  0  0  0  0  0  0
   25.5975  -18.2597  -17.4649 C   0  0  0  0  0  0  0  0  0  0  0  0
   24.5869  -17.5796  -17.8158 O   0  0  0  0  0  0  0  0  0  0  0  0
   25.3565  -18.5708  -22.0104 O   0  0  0  0  0  0  0  0  0  0  0  0
   25.2762  -19.4639  -16.7425 N   0  0  0  0  0  0  0  0  0  0  0  0
   23.9557  -19.8717  -16.4134 C   0  0  1  0  0  0  0  0  0  0  0  0
   23.1682  -20.4653  -17.5455 C   0  0  0  0  0  0  0  0  0  0  0  0
   21.7172  -20.5590  -17.2330 C   0  0  0  0  0  0  0  0  0  0  0  0
   21.2861  -20.1422  -16.1497 O   0  0  0  0  0  0  0  0  0  0  0  0
   23.8768  -20.6924  -15.1773 C   0  0  0  0  0  0  0  0  0  0  0  0
   24.6258  -21.7175  -15.0055 O   0  0  0  0  0  0  0  0  0  0  0  0
   20.8382  -21.1132  -18.1516 O   0  0  0  0  0  0  0  0  0  0  0  0
   25.7900  -21.3389  -10.1838 C   0  0  0  0  0  0  0  0  0  0  0  0
   24.5334  -21.7521  -10.9064 C   0  0  0  0  0  0  0  0  0  0  0  0
   24.3824  -21.0447  -12.1995 C   0  0  2  0  0  0  0  0  0  0  0  0
   24.7943  -19.5839  -12.0421 C   0  0  0  0  0  0  0  0  0  0  0  0
   23.0322  -21.0633  -12.8263 C   0  0  2  0  0  0  0  0  0  0  0  0
   22.9893  -20.4133  -14.1171 N   0  0  0  0  0  0  0  0  0  0  0  0
   21.9189  -20.6535  -11.9503 C   0  0  0  0  0  0  0  0  0  0  0  0
   21.0332  -19.6533  -12.4004 O   0  0  0  0  0  0  0  0  0  0  0  0
   21.6889  -21.1234  -10.8271 O   0  0  0  0  0  0  0  0  0  0  0  0
  2  1  1  6
  2  3  1  0
  4  3  1  0
  5  6  2  0
  5  4  1  0
  7  8  2  0
  7  2  1  0
  9  5  1  0
 10  7  1  0
 11 10  1  0
 11 12  1  6
 13 14  2  0
 13 12  1  0
 15 16  2  0
 15 11  1  0
 17 13  1  0
 18 19  1  0
 19 20  1  0
 20 21  1  1
 22 20  1  0
 22 23  1  6
 23 15  1  0
 24 22  1  0
 25 24  1  0
 26 24  2  0
M  END
$$$$
