EDI.pdb
     RDKit          3D

 26 25  0  0  1  0  0  0  0  0999 V2000
   27.8506  -20.7103  -17.9922 N   0  0  0  0  0  0  0  0  0  0  0  0
   27.7345  -21.4658  -16.7611 C   0  0  1  0  0  0  0  0  0  0  0  0
   29.0988  -21.7565  -16.2305 C   0  0  0  0  0  0  0  0  0  0  0  0
   29.5206  -23.1858  -16.3722 C   0  0  0  0  0  0  0  0  0  0  0  0
   29.5040  -23.5249  -17.8408 C   0  0  0  0  0  0  0  0  0  0  0  0
   30.3911  -23.0709  -18.6060 O   0  0  0  0  0  0  0  0  0  0  0  0
   26.8446  -20.7456  -15.8465 C   0  0  0  0  0  0  0  0  0  0  0  0
   26.9559  -19.5067  -15.6025 O   0  0  0  0  0  0  0  0  0  0  0  0
   28.5223  -24.3367  -18.3802 O   0  0  0  0  0  0  0  0  0  0  0  0
   25.7639  -21.3903  -15.1452 N   0  0  0  0  0  0  0  0  0  0  0  0
   24.8970  -20.7323  -14.2321 C   0  0  1  0  0  0  0  0  0  0  0  0
   23.4817  -20.5613  -14.7030 C   0  0  0  0  0  0  0  0  0  0  0  0
   22.6298  -19.8830  -13.6901 C   0  0  0  0  0  0  0  0  0  0  0  0
   23.1509  -19.2780  -12.7439 O   0  0  0  0  0  0  0  0  0  0  0  0
   24.9725  -21.2680  -12.8482 C   0  0  0  0  0  0  0  0  0  0  0  0
   24.7535  -22.5049  -12.5964 O   0  0  0  0  0  0  0  0  0  0  0  0
   21.2477  -19.9235  -13.7983 O   0  0  0  0  0  0  0  0  0  0  0  0
   27.4848  -20.1002   -7.3354 C   0  0  0  0  0  0  0  0  0  0  0  0
   26.4003  -20.8118   -8.1030 C   0  0  0  0  0  0  0  0  0  0  0  0
   26.2930  -20.3156   -9.4950 C   0  0  2  0  0  0  0  0  0  0  0  0
   26.0311  -18.8124   -9.4905 C   0  0  0  0  0  0  0  0  0  0  0  0
   25.2586  -20.9469  -10.3597 C   0  0  2  0  0  0  0  0  0  0  0  0
   25.2848  -20.4733  -11.7256 N   0  0  0  0  0  0  0  0  0  0  0  0
   23.8949  -20.9793   -9.7992 C   0  0  0  0  0  0  0  0  0  0  0  0
   23.6648  -21.7072   -8.6140 O   0  0  0  0  0  0  0  0  0  0  0  0
   22.9112  -20.4085  -10.2908 O   0  0  0  0  0  0  0  0  0  0  0  0
  2  1  1  6
  2  3  1  0
  4  3  1  0
  5  6  2  0
  5  4  1  0
  7  8  2  0
  7  2  1  0
  9  5  1  0
 10  7  1  0
 11 10  1  0
 11 12  1  6
 13 14  2  0
 13 12  1  0
 15 16  2  0
 15 11  1  0
 17 13  1  0
 18 19  1  0
 19 20  1  0
 20 21  1  1
 22 20  1  0
 22 23  1  6
 23 15  1  0
 24 22  1  0
 25 24  1  0
 26 24  2  0
M  END
$$$$
