EDI.pdb
     RDKit          3D

 26 25  0  0  1  0  0  0  0  0999 V2000
   23.1745  -34.8666   -7.0794 N   0  0  0  0  0  0  0  0  0  0  0  0
   24.4104  -34.2565   -6.6317 C   0  0  1  0  0  0  0  0  0  0  0  0
   24.3616  -32.7894   -6.9007 C   0  0  0  0  0  0  0  0  0  0  0  0
   24.5805  -32.4209   -8.3350 C   0  0  0  0  0  0  0  0  0  0  0  0
   26.0549  -32.5488   -8.6211 C   0  0  0  0  0  0  0  0  0  0  0  0
   26.8468  -32.9119   -7.7157 O   0  0  0  0  0  0  0  0  0  0  0  0
   24.6441  -34.6320   -5.2347 C   0  0  0  0  0  0  0  0  0  0  0  0
   23.7345  -34.6207   -4.3519 O   0  0  0  0  0  0  0  0  0  0  0  0
   26.5708  -32.2730   -9.8746 O   0  0  0  0  0  0  0  0  0  0  0  0
   25.9345  -35.0470   -4.7470 N   0  0  0  0  0  0  0  0  0  0  0  0
   26.2091  -35.3816   -3.3939 C   0  0  1  0  0  0  0  0  0  0  0  0
   27.3006  -36.3926   -3.1932 C   0  0  0  0  0  0  0  0  0  0  0  0
   27.4530  -36.7801   -1.7654 C   0  0  0  0  0  0  0  0  0  0  0  0
   28.4584  -36.4343   -1.1311 O   0  0  0  0  0  0  0  0  0  0  0  0
   26.3628  -34.1988   -2.5077 C   0  0  0  0  0  0  0  0  0  0  0  0
   27.1860  -33.2573   -2.7849 O   0  0  0  0  0  0  0  0  0  0  0  0
   26.4711  -37.5304   -1.1357 O   0  0  0  0  0  0  0  0  0  0  0  0
   22.5746  -30.8588   -1.0646 C   0  0  0  0  0  0  0  0  0  0  0  0
   23.8379  -31.6024   -1.4149 C   0  0  0  0  0  0  0  0  0  0  0  0
   24.5150  -32.1380   -0.2106 C   0  0  2  0  0  0  0  0  0  0  0  0
   24.8198  -31.0016    0.7609 C   0  0  0  0  0  0  0  0  0  0  0  0
   25.7796  -32.8933   -0.4260 C   0  0  2  0  0  0  0  0  0  0  0  0
   25.6294  -34.0231   -1.3157 N   0  0  0  0  0  0  0  0  0  0  0  0
   26.5334  -33.2325    0.7953 C   0  0  0  0  0  0  0  0  0  0  0  0
   27.3156  -32.2337    1.4101 O   0  0  0  0  0  0  0  0  0  0  0  0
   26.5385  -34.3450    1.3408 O   0  0  0  0  0  0  0  0  0  0  0  0
  2  1  1  1
  2  3  1  0
  4  3  1  0
  5  6  2  0
  5  4  1  0
  7  8  2  0
  7  2  1  0
  9  5  1  0
 10  7  1  0
 11 10  1  0
 11 12  1  6
 13 14  2  0
 13 12  1  0
 15 16  2  0
 15 11  1  0
 17 13  1  0
 18 19  1  0
 19 20  1  0
 20 21  1  1
 22 20  1  0
 22 23  1  1
 23 15  1  0
 24 22  1  0
 25 24  1  0
 26 24  2  0
M  END
$$$$
