EDI.pdb
     RDKit          3D

 26 25  0  0  1  0  0  0  0  0999 V2000
   21.8775  -21.4684  -15.5459 N   0  0  0  0  0  0  0  0  0  0  0  0
   22.0681  -20.8320  -14.2580 C   0  0  1  0  0  0  0  0  0  0  0  0
   22.5031  -19.4195  -14.4656 C   0  0  0  0  0  0  0  0  0  0  0  0
   22.7790  -19.0661  -15.8939 C   0  0  0  0  0  0  0  0  0  0  0  0
   21.4662  -18.6975  -16.5365 C   0  0  0  0  0  0  0  0  0  0  0  0
   21.0113  -17.5317  -16.4246 O   0  0  0  0  0  0  0  0  0  0  0  0
   20.8508  -21.0041  -13.4608 C   0  0  0  0  0  0  0  0  0  0  0  0
   20.6836  -20.4663  -12.3251 O   0  0  0  0  0  0  0  0  0  0  0  0
   20.7346  -19.6227  -17.2592 O   0  0  0  0  0  0  0  0  0  0  0  0
   19.7376  -21.8034  -13.9047 N   0  0  0  0  0  0  0  0  0  0  0  0
   18.5314  -21.9723  -13.1733 C   0  0  1  0  0  0  0  0  0  0  0  0
   17.2704  -21.8050  -13.9708 C   0  0  0  0  0  0  0  0  0  0  0  0
   17.0912  -20.4099  -14.4538 C   0  0  0  0  0  0  0  0  0  0  0  0
   17.2448  -19.4582  -13.6768 O   0  0  0  0  0  0  0  0  0  0  0  0
   18.5116  -23.1975  -12.3329 C   0  0  0  0  0  0  0  0  0  0  0  0
   19.1150  -24.2678  -12.6955 O   0  0  0  0  0  0  0  0  0  0  0  0
   16.7512  -20.1657  -15.7760 O   0  0  0  0  0  0  0  0  0  0  0  0
   18.7030  -24.8000   -6.4904 C   0  0  0  0  0  0  0  0  0  0  0  0
   18.3848  -25.2577   -7.8907 C   0  0  0  0  0  0  0  0  0  0  0  0
   18.2619  -24.1179   -8.8294 C   0  0  2  0  0  0  0  0  0  0  0  0
   17.2585  -23.1050   -8.2858 C   0  0  0  0  0  0  0  0  0  0  0  0
   17.8640  -24.4345  -10.2285 C   0  0  2  0  0  0  0  0  0  0  0  0
   17.8405  -23.2771  -11.0948 N   0  0  0  0  0  0  0  0  0  0  0  0
   16.6590  -25.2724  -10.3726 C   0  0  0  0  0  0  0  0  0  0  0  0
   16.7308  -26.6332  -10.0114 O   0  0  0  0  0  0  0  0  0  0  0  0
   15.5635  -24.8747  -10.7931 O   0  0  0  0  0  0  0  0  0  0  0  0
  2  1  1  6
  2  3  1  0
  4  3  1  0
  5  6  2  0
  5  4  1  0
  7  8  2  0
  7  2  1  0
  9  5  1  0
 10  7  1  0
 11 10  1  0
 11 12  1  6
 13 14  2  0
 13 12  1  0
 15 16  2  0
 15 11  1  0
 17 13  1  0
 18 19  1  0
 19 20  1  0
 20 21  1  1
 22 20  1  0
 22 23  1  6
 23 15  1  0
 24 22  1  0
 25 24  1  0
 26 24  2  0
M  END
$$$$
