EDI.pdb
     RDKit          3D

 26 25  0  0  1  0  0  0  0  0999 V2000
   20.1814  -15.7733  -16.9369 N   0  0  0  0  0  0  0  0  0  0  0  0
   20.7484  -15.4857  -18.2392 C   0  0  1  0  0  0  0  0  0  0  0  0
   19.9784  -16.2206  -19.2853 C   0  0  0  0  0  0  0  0  0  0  0  0
   18.5045  -16.2841  -19.0312 C   0  0  0  0  0  0  0  0  0  0  0  0
   17.8784  -17.0647  -20.1585 C   0  0  0  0  0  0  0  0  0  0  0  0
   17.0857  -16.5024  -20.9548 O   0  0  0  0  0  0  0  0  0  0  0  0
   20.8177  -14.0326  -18.4143 C   0  0  0  0  0  0  0  0  0  0  0  0
   21.2679  -13.4810  -19.4631 O   0  0  0  0  0  0  0  0  0  0  0  0
   18.1567  -18.4069  -20.3452 O   0  0  0  0  0  0  0  0  0  0  0  0
   20.3774  -13.1060  -17.4029 N   0  0  0  0  0  0  0  0  0  0  0  0
   20.4373  -11.6925  -17.5317 C   0  0  1  0  0  0  0  0  0  0  0  0
   19.1479  -11.0300  -17.9221 C   0  0  0  0  0  0  0  0  0  0  0  0
   19.2940   -9.5573  -18.0691 C   0  0  0  0  0  0  0  0  0  0  0  0
   20.0328   -9.0901  -18.9459 O   0  0  0  0  0  0  0  0  0  0  0  0
   21.0958  -11.0175  -16.3834 C   0  0  0  0  0  0  0  0  0  0  0  0
   20.7512  -11.2647  -15.1745 O   0  0  0  0  0  0  0  0  0  0  0  0
   18.6047   -8.6984  -17.2261 O   0  0  0  0  0  0  0  0  0  0  0  0
   26.2318  -11.2035  -15.5338 C   0  0  0  0  0  0  0  0  0  0  0  0
   24.7290  -11.0901  -15.5129 C   0  0  0  0  0  0  0  0  0  0  0  0
   24.2831   -9.6801  -15.4207 C   0  0  2  0  0  0  0  0  0  0  0  0
   24.8493   -9.0393  -14.1569 C   0  0  0  0  0  0  0  0  0  0  0  0
   22.8150   -9.4337  -15.4276 C   0  0  2  0  0  0  0  0  0  0  0  0
   22.1309  -10.0708  -16.5307 N   0  0  0  0  0  0  0  0  0  0  0  0
   22.4053   -8.0288  -15.2447 C   0  0  0  0  0  0  0  0  0  0  0  0
   22.4458   -7.4726  -13.9499 O   0  0  0  0  0  0  0  0  0  0  0  0
   22.0200   -7.2775  -16.1514 O   0  0  0  0  0  0  0  0  0  0  0  0
  2  1  1  1
  2  3  1  0
  4  3  1  0
  5  6  2  0
  5  4  1  0
  7  8  2  0
  7  2  1  0
  9  5  1  0
 10  7  1  0
 11 10  1  0
 11 12  1  1
 13 14  2  0
 13 12  1  0
 15 16  2  0
 15 11  1  0
 17 13  1  0
 18 19  1  0
 19 20  1  0
 20 21  1  1
 22 20  1  0
 22 23  1  6
 23 15  1  0
 24 22  1  0
 25 24  1  0
 26 24  2  0
M  END
$$$$
