EDI.pdb
     RDKit          3D

 26 25  0  0  1  0  0  0  0  0999 V2000
   19.0305  -14.6423  -18.5620 N   0  0  0  0  0  0  0  0  0  0  0  0
   18.2576  -13.5249  -18.0579 C   0  0  1  0  0  0  0  0  0  0  0  0
   17.6426  -13.9006  -16.7510 C   0  0  0  0  0  0  0  0  0  0  0  0
   16.6222  -14.9919  -16.8441 C   0  0  0  0  0  0  0  0  0  0  0  0
   16.8843  -15.9614  -15.7200 C   0  0  0  0  0  0  0  0  0  0  0  0
   17.0409  -15.5427  -14.5458 O   0  0  0  0  0  0  0  0  0  0  0  0
   19.1102  -12.3336  -18.0320 C   0  0  0  0  0  0  0  0  0  0  0  0
   20.3654  -12.3824  -17.8610 O   0  0  0  0  0  0  0  0  0  0  0  0
   16.9586  -17.3237  -15.9482 O   0  0  0  0  0  0  0  0  0  0  0  0
   18.5891  -11.0010  -18.1996 N   0  0  0  0  0  0  0  0  0  0  0  0
   19.3800   -9.8216  -18.1613 C   0  0  1  0  0  0  0  0  0  0  0  0
   18.8424   -8.6643  -18.9524 C   0  0  0  0  0  0  0  0  0  0  0  0
   19.7404   -7.4801  -18.8980 C   0  0  0  0  0  0  0  0  0  0  0  0
   19.4592   -6.5193  -18.1695 O   0  0  0  0  0  0  0  0  0  0  0  0
   19.7937   -9.4266  -16.7899 C   0  0  0  0  0  0  0  0  0  0  0  0
   18.9657   -9.4355  -15.8124 O   0  0  0  0  0  0  0  0  0  0  0  0
   20.8974   -7.4439  -19.6619 O   0  0  0  0  0  0  0  0  0  0  0  0
   24.9203  -10.4794  -14.6780 C   0  0  0  0  0  0  0  0  0  0  0  0
   23.9147   -9.5560  -15.3166 C   0  0  0  0  0  0  0  0  0  0  0  0
   22.6109   -9.5887  -14.6135 C   0  0  2  0  0  0  0  0  0  0  0  0
   22.0533  -11.0090  -14.6218 C   0  0  0  0  0  0  0  0  0  0  0  0
   21.5437   -8.6864  -15.1263 C   0  0  2  0  0  0  0  0  0  0  0  0
   21.1038   -9.0190  -16.4630 N   0  0  0  0  0  0  0  0  0  0  0  0
   21.7958   -7.2432  -14.9574 C   0  0  0  0  0  0  0  0  0  0  0  0
   21.7382   -6.4065  -16.0906 O   0  0  0  0  0  0  0  0  0  0  0  0
   22.0596   -6.6895  -13.8809 O   0  0  0  0  0  0  0  0  0  0  0  0
  2  1  1  1
  2  3  1  0
  4  3  1  0
  5  6  2  0
  5  4  1  0
  7  8  2  0
  7  2  1  0
  9  5  1  0
 10  7  1  0
 11 10  1  0
 11 12  1  1
 13 14  2  0
 13 12  1  0
 15 16  2  0
 15 11  1  0
 17 13  1  0
 18 19  1  0
 19 20  1  0
 20 21  1  6
 22 20  1  0
 22 23  1  6
 23 15  1  0
 24 22  1  0
 25 24  1  0
 26 24  2  0
M  END
$$$$
