EDI.pdb
     RDKit          3D

 26 25  0  0  1  0  0  0  0  0999 V2000
   16.1989  -12.8785  -15.4220 N   0  0  0  0  0  0  0  0  0  0  0  0
   15.4420  -12.1286  -14.4397 C   0  0  1  0  0  0  0  0  0  0  0  0
   14.7895  -13.0777  -13.4906 C   0  0  0  0  0  0  0  0  0  0  0  0
   13.7937  -13.9957  -14.1282 C   0  0  0  0  0  0  0  0  0  0  0  0
   13.1564  -14.8122  -13.0331 C   0  0  0  0  0  0  0  0  0  0  0  0
   12.0769  -14.4380  -12.5103 O   0  0  0  0  0  0  0  0  0  0  0  0
   16.3222  -11.1310  -13.8255 C   0  0  0  0  0  0  0  0  0  0  0  0
   17.5800  -11.1251  -13.9828 O   0  0  0  0  0  0  0  0  0  0  0  0
   13.7364  -15.9830  -12.5789 O   0  0  0  0  0  0  0  0  0  0  0  0
   15.8274  -10.0689  -12.9874 N   0  0  0  0  0  0  0  0  0  0  0  0
   16.6260   -9.0056  -12.4876 C   0  0  1  0  0  0  0  0  0  0  0  0
   17.5269   -8.3530  -13.4958 C   0  0  0  0  0  0  0  0  0  0  0  0
   18.3516   -7.2705  -12.8960 C   0  0  0  0  0  0  0  0  0  0  0  0
   19.0072   -7.4853  -11.8679 O   0  0  0  0  0  0  0  0  0  0  0  0
   15.8634   -8.0150  -11.6845 C   0  0  0  0  0  0  0  0  0  0  0  0
   14.9034   -7.3369  -12.1943 O   0  0  0  0  0  0  0  0  0  0  0  0
   18.3917   -6.0147  -13.4833 O   0  0  0  0  0  0  0  0  0  0  0  0
   12.6304   -8.8431   -7.8212 C   0  0  0  0  0  0  0  0  0  0  0  0
   13.3201   -8.1114   -8.9440 C   0  0  0  0  0  0  0  0  0  0  0  0
   14.5468   -7.4211   -8.4814 C   0  0  2  0  0  0  0  0  0  0  0  0
   14.1817   -6.3370   -7.4716 C   0  0  0  0  0  0  0  0  0  0  0  0
   15.4017   -6.7907   -9.5245 C   0  0  2  0  0  0  0  0  0  0  0  0
   16.1307   -7.7486  -10.3255 N   0  0  0  0  0  0  0  0  0  0  0  0
   16.2516   -5.6776   -9.0625 C   0  0  0  0  0  0  0  0  0  0  0  0
   17.6458   -5.8732   -8.9880 O   0  0  0  0  0  0  0  0  0  0  0  0
   15.8370   -4.5593   -8.7268 O   0  0  0  0  0  0  0  0  0  0  0  0
  2  1  1  6
  2  3  1  0
  4  3  1  0
  5  6  2  0
  5  4  1  0
  7  8  2  0
  7  2  1  0
  9  5  1  0
 10  7  1  0
 11 10  1  0
 11 12  1  6
 13 14  2  0
 13 12  1  0
 15 16  2  0
 15 11  1  0
 17 13  1  0
 18 19  1  0
 19 20  1  0
 20 21  1  1
 22 20  1  0
 22 23  1  1
 23 15  1  0
 24 22  1  0
 25 24  1  0
 26 24  2  0
M  END
$$$$
