EDI.pdb
     RDKit          3D

 26 25  0  0  1  0  0  0  0  0999 V2000
   24.2807  -17.8251  -15.0386 N   0  0  0  0  0  0  0  0  0  0  0  0
   23.4308  -18.9393  -14.6696 C   0  0  1  0  0  0  0  0  0  0  0  0
   22.5744  -19.3127  -15.8335 C   0  0  0  0  0  0  0  0  0  0  0  0
   23.2543  -19.1862  -17.1612 C   0  0  0  0  0  0  0  0  0  0  0  0
   22.5948  -18.0548  -17.9077 C   0  0  0  0  0  0  0  0  0  0  0  0
   21.7252  -17.3451  -17.3431 O   0  0  0  0  0  0  0  0  0  0  0  0
   24.2684  -20.0160  -14.1346 C   0  0  0  0  0  0  0  0  0  0  0  0
   23.7957  -21.0941  -13.6643 O   0  0  0  0  0  0  0  0  0  0  0  0
   22.9255  -17.7702  -19.2204 O   0  0  0  0  0  0  0  0  0  0  0  0
   25.7064  -19.9371  -14.0986 N   0  0  0  0  0  0  0  0  0  0  0  0
   26.5538  -20.9788  -13.6349 C   0  0  1  0  0  0  0  0  0  0  0  0
   27.8284  -21.1590  -14.4076 C   0  0  0  0  0  0  0  0  0  0  0  0
   27.6037  -21.1327  -15.8775 C   0  0  0  0  0  0  0  0  0  0  0  0
   26.8659  -21.9731  -16.4089 O   0  0  0  0  0  0  0  0  0  0  0  0
   26.7805  -20.9526  -12.1667 C   0  0  0  0  0  0  0  0  0  0  0  0
   27.8744  -20.5121  -11.6661 O   0  0  0  0  0  0  0  0  0  0  0  0
   28.2183  -20.1680  -16.6619 O   0  0  0  0  0  0  0  0  0  0  0  0
   27.3226  -18.6648   -7.4142 C   0  0  0  0  0  0  0  0  0  0  0  0
   26.8634  -20.0394   -7.8277 C   0  0  0  0  0  0  0  0  0  0  0  0
   26.5455  -20.1034   -9.2735 C   0  0  2  0  0  0  0  0  0  0  0  0
   25.5202  -19.0299   -9.6265 C   0  0  0  0  0  0  0  0  0  0  0  0
   26.0333  -21.3998   -9.7961 C   0  0  2  0  0  0  0  0  0  0  0  0
   25.8287  -21.4014  -11.2274 N   0  0  0  0  0  0  0  0  0  0  0  0
   24.8909  -21.9746   -9.0616 C   0  0  0  0  0  0  0  0  0  0  0  0
   23.6442  -22.0711   -9.7126 O   0  0  0  0  0  0  0  0  0  0  0  0
   24.9330  -22.3900   -7.8951 O   0  0  0  0  0  0  0  0  0  0  0  0
  2  1  1  6
  2  3  1  0
  4  3  1  0
  5  6  2  0
  5  4  1  0
  7  8  2  0
  7  2  1  0
  9  5  1  0
 10  7  1  0
 11 10  1  0
 11 12  1  6
 13 14  2  0
 13 12  1  0
 15 16  2  0
 15 11  1  0
 17 13  1  0
 18 19  1  0
 19 20  1  0
 20 21  1  1
 22 20  1  0
 22 23  1  6
 23 15  1  0
 24 22  1  0
 25 24  1  0
 26 24  2  0
M  END
$$$$
