EDI.pdb
     RDKit          3D

 26 25  0  0  1  0  0  0  0  0999 V2000
   16.8575  -11.2682  -18.2165 N   0  0  0  0  0  0  0  0  0  0  0  0
   16.9784  -10.9607  -16.8055 C   0  0  1  0  0  0  0  0  0  0  0  0
   17.6575  -12.0934  -16.1105 C   0  0  0  0  0  0  0  0  0  0  0  0
   16.8120  -13.3203  -15.9663 C   0  0  0  0  0  0  0  0  0  0  0  0
   15.9296  -13.1294  -14.7592 C   0  0  0  0  0  0  0  0  0  0  0  0
   16.1941  -12.2365  -13.9159 O   0  0  0  0  0  0  0  0  0  0  0  0
   17.6266   -9.6547  -16.6600 C   0  0  0  0  0  0  0  0  0  0  0  0
   18.7598   -9.3832  -17.1590 O   0  0  0  0  0  0  0  0  0  0  0  0
   14.8164  -13.9235  -14.5495 O   0  0  0  0  0  0  0  0  0  0  0  0
   17.0257   -8.5655  -15.9333 N   0  0  0  0  0  0  0  0  0  0  0  0
   17.6583   -7.3156  -15.6970 C   0  0  1  0  0  0  0  0  0  0  0  0
   16.7317   -6.1815  -15.3664 C   0  0  0  0  0  0  0  0  0  0  0  0
   15.8465   -5.8272  -16.5078 C   0  0  0  0  0  0  0  0  0  0  0  0
   16.2379   -5.9876  -17.6714 O   0  0  0  0  0  0  0  0  0  0  0  0
   18.8087   -7.3983  -14.7602 C   0  0  0  0  0  0  0  0  0  0  0  0
   18.7473   -8.0911  -13.6843 O   0  0  0  0  0  0  0  0  0  0  0  0
   14.5784   -5.3153  -16.2769 O   0  0  0  0  0  0  0  0  0  0  0  0
   23.8469   -9.5586  -13.6624 C   0  0  0  0  0  0  0  0  0  0  0  0
   23.1757   -8.2289  -13.4323 C   0  0  0  0  0  0  0  0  0  0  0  0
   21.9944   -8.0481  -14.3082 C   0  0  2  0  0  0  0  0  0  0  0  0
   22.4275   -8.0605  -15.7713 C   0  0  0  0  0  0  0  0  0  0  0  0
   21.1760   -6.8231  -14.0948 C   0  0  2  0  0  0  0  0  0  0  0  0
   20.0340   -6.7343  -14.9772 N   0  0  0  0  0  0  0  0  0  0  0  0
   21.9315   -5.5588  -14.0200 C   0  0  0  0  0  0  0  0  0  0  0  0
   21.6760   -4.5571  -14.9786 O   0  0  0  0  0  0  0  0  0  0  0  0
   22.7910   -5.2943  -13.1676 O   0  0  0  0  0  0  0  0  0  0  0  0
  2  1  1  6
  2  3  1  0
  4  3  1  0
  5  6  2  0
  5  4  1  0
  7  8  2  0
  7  2  1  0
  9  5  1  0
 10  7  1  0
 11 10  1  0
 11 12  1  1
 13 14  2  0
 13 12  1  0
 15 16  2  0
 15 11  1  0
 17 13  1  0
 18 19  1  0
 19 20  1  0
 20 21  1  6
 22 20  1  0
 22 23  1  6
 23 15  1  0
 24 22  1  0
 25 24  1  0
 26 24  2  0
M  END
$$$$
