EDI.pdb
     RDKit          3D

 26 25  0  0  1  0  0  0  0  0999 V2000
   15.4528  -11.5478  -15.6555 N   0  0  0  0  0  0  0  0  0  0  0  0
   15.5537  -10.1036  -15.7215 C   0  0  1  0  0  0  0  0  0  0  0  0
   14.7238   -9.5014  -14.6371 C   0  0  0  0  0  0  0  0  0  0  0  0
   13.2546   -9.7517  -14.7780 C   0  0  0  0  0  0  0  0  0  0  0  0
   12.5565   -9.0265  -13.6560 C   0  0  0  0  0  0  0  0  0  0  0  0
   11.5456   -9.5319  -13.1072 O   0  0  0  0  0  0  0  0  0  0  0  0
   16.9699   -9.7276  -15.7114 C   0  0  0  0  0  0  0  0  0  0  0  0
   17.8148  -10.2281  -14.9098 O   0  0  0  0  0  0  0  0  0  0  0  0
   13.0052   -7.7982  -13.2049 O   0  0  0  0  0  0  0  0  0  0  0  0
   17.5216   -8.7524  -16.6169 N   0  0  0  0  0  0  0  0  0  0  0  0
   18.8810   -8.3400  -16.6180 C   0  0  1  0  0  0  0  0  0  0  0  0
   19.3734   -7.7613  -17.9129 C   0  0  0  0  0  0  0  0  0  0  0  0
   19.1260   -8.6688  -19.0648 C   0  0  0  0  0  0  0  0  0  0  0  0
   19.5276   -9.8395  -19.0318 O   0  0  0  0  0  0  0  0  0  0  0  0
   19.2501   -7.5031  -15.4471 C   0  0  0  0  0  0  0  0  0  0  0  0
   18.4134   -6.6934  -14.9127 O   0  0  0  0  0  0  0  0  0  0  0  0
   18.4446   -8.2105  -20.1826 O   0  0  0  0  0  0  0  0  0  0  0  0
   20.5513   -6.7364  -10.3313 C   0  0  0  0  0  0  0  0  0  0  0  0
   21.7083   -6.8595  -11.2891 C   0  0  0  0  0  0  0  0  0  0  0  0
   21.3265   -7.5803  -12.5261 C   0  0  2  0  0  0  0  0  0  0  0  0
   22.4847   -8.4567  -12.9936 C   0  0  0  0  0  0  0  0  0  0  0  0
   20.8966   -6.7517  -13.6857 C   0  0  2  0  0  0  0  0  0  0  0  0
   20.5247   -7.5335  -14.8438 N   0  0  0  0  0  0  0  0  0  0  0  0
   21.7854   -5.6253  -14.0265 C   0  0  0  0  0  0  0  0  0  0  0  0
   21.8521   -4.5234  -13.1496 O   0  0  0  0  0  0  0  0  0  0  0  0
   22.4955   -5.5622  -15.0399 O   0  0  0  0  0  0  0  0  0  0  0  0
  2  1  1  1
  2  3  1  0
  4  3  1  0
  5  6  2  0
  5  4  1  0
  7  8  2  0
  7  2  1  0
  9  5  1  0
 10  7  1  0
 11 10  1  0
 11 12  1  6
 13 14  2  0
 13 12  1  0
 15 16  2  0
 15 11  1  0
 17 13  1  0
 18 19  1  0
 19 20  1  0
 20 21  1  6
 22 20  1  0
 22 23  1  6
 23 15  1  0
 24 22  1  0
 25 24  1  0
 26 24  2  0
M  END
$$$$
