EDI.pdb
     RDKit          3D

 26 25  0  0  1  0  0  0  0  0999 V2000
   13.2136   -9.9705  -12.0607 N   0  0  0  0  0  0  0  0  0  0  0  0
   14.6616   -9.9833  -12.0047 C   0  0  1  0  0  0  0  0  0  0  0  0
   15.1987  -10.5637  -13.2704 C   0  0  0  0  0  0  0  0  0  0  0  0
   14.9112  -12.0221  -13.4473 C   0  0  0  0  0  0  0  0  0  0  0  0
   15.5284  -12.4558  -14.7523 C   0  0  0  0  0  0  0  0  0  0  0  0
   16.4344  -13.3262  -14.7663 O   0  0  0  0  0  0  0  0  0  0  0  0
   15.1343   -8.6346  -11.6814 C   0  0  0  0  0  0  0  0  0  0  0  0
   14.6173   -7.5836  -12.1661 O   0  0  0  0  0  0  0  0  0  0  0  0
   15.1185  -11.9134  -15.9570 O   0  0  0  0  0  0  0  0  0  0  0  0
   16.2321   -8.3909  -10.7809 N   0  0  0  0  0  0  0  0  0  0  0  0
   16.8425   -7.1227  -10.5879 C   0  0  1  0  0  0  0  0  0  0  0  0
   16.3957   -6.3768   -9.3640 C   0  0  0  0  0  0  0  0  0  0  0  0
   17.1035   -5.0782   -9.2069 C   0  0  0  0  0  0  0  0  0  0  0  0
   17.8472   -4.8889   -8.2354 O   0  0  0  0  0  0  0  0  0  0  0  0
   18.3216   -7.1465  -10.7280 C   0  0  0  0  0  0  0  0  0  0  0  0
   19.0680   -7.7083   -9.8514 O   0  0  0  0  0  0  0  0  0  0  0  0
   16.9354   -4.0719  -10.1464 O   0  0  0  0  0  0  0  0  0  0  0  0
   22.6589   -9.4698  -13.3753 C   0  0  0  0  0  0  0  0  0  0  0  0
   22.3346   -8.0964  -12.8460 C   0  0  0  0  0  0  0  0  0  0  0  0
   20.8765   -7.9044  -12.6660 C   0  0  2  0  0  0  0  0  0  0  0  0
   20.1719   -7.9902  -14.0168 C   0  0  0  0  0  0  0  0  0  0  0  0
   20.4368   -6.6414  -12.0120 C   0  0  2  0  0  0  0  0  0  0  0  0
   19.0064   -6.5644  -11.8150 N   0  0  0  0  0  0  0  0  0  0  0  0
   20.9958   -5.4018  -12.5828 C   0  0  0  0  0  0  0  0  0  0  0  0
   22.3959   -5.2397  -12.6143 O   0  0  0  0  0  0  0  0  0  0  0  0
   20.3261   -4.4692  -13.0484 O   0  0  0  0  0  0  0  0  0  0  0  0
  2  1  1  6
  2  3  1  0
  4  3  1  0
  5  6  2  0
  5  4  1  0
  7  8  2  0
  7  2  1  0
  9  5  1  0
 10  7  1  0
 11 10  1  0
 11 12  1  1
 13 14  2  0
 13 12  1  0
 15 16  2  0
 15 11  1  0
 17 13  1  0
 18 19  1  0
 19 20  1  0
 20 21  1  6
 22 20  1  0
 22 23  1  6
 23 15  1  0
 24 22  1  0
 25 24  1  0
 26 24  2  0
M  END
$$$$
