EDI.pdb
     RDKit          3D

 26 25  0  0  1  0  0  0  0  0999 V2000
   28.0098  -18.2979  -17.0424 N   0  0  0  0  0  0  0  0  0  0  0  0
   26.9009  -19.2117  -17.2301 C   0  0  1  0  0  0  0  0  0  0  0  0
   27.4306  -20.5768  -17.5187 C   0  0  0  0  0  0  0  0  0  0  0  0
   28.8033  -20.8295  -16.9778 C   0  0  0  0  0  0  0  0  0  0  0  0
   28.8251  -22.2292  -16.4189 C   0  0  0  0  0  0  0  0  0  0  0  0
   29.3840  -23.1570  -17.0557 O   0  0  0  0  0  0  0  0  0  0  0  0
   26.0079  -19.1158  -16.0724 C   0  0  0  0  0  0  0  0  0  0  0  0
   26.2213  -18.3381  -15.0943 O   0  0  0  0  0  0  0  0  0  0  0  0
   28.2369  -22.5272  -15.2028 O   0  0  0  0  0  0  0  0  0  0  0  0
   24.8071  -19.9022  -15.9498 N   0  0  0  0  0  0  0  0  0  0  0  0
   23.8866  -19.7950  -14.8730 C   0  0  1  0  0  0  0  0  0  0  0  0
   22.4422  -19.9632  -15.2464 C   0  0  0  0  0  0  0  0  0  0  0  0
   21.5302  -19.6866  -14.1047 C   0  0  0  0  0  0  0  0  0  0  0  0
   21.9789  -19.2212  -13.0488 O   0  0  0  0  0  0  0  0  0  0  0  0
   24.2626  -20.6054  -13.6856 C   0  0  0  0  0  0  0  0  0  0  0  0
   24.3749  -21.8798  -13.7533 O   0  0  0  0  0  0  0  0  0  0  0  0
   20.1725  -19.9477  -14.2149 O   0  0  0  0  0  0  0  0  0  0  0  0
   27.8982  -20.6968   -8.8924 C   0  0  0  0  0  0  0  0  0  0  0  0
   26.5618  -21.1682   -9.4056 C   0  0  0  0  0  0  0  0  0  0  0  0
   26.1269  -20.4026  -10.5973 C   0  0  2  0  0  0  0  0  0  0  0  0
   26.0026  -18.9230  -10.2455 C   0  0  0  0  0  0  0  0  0  0  0  0
   24.8494  -20.8184  -11.2386 C   0  0  2  0  0  0  0  0  0  0  0  0
   24.5203  -20.0469  -12.4163 N   0  0  0  0  0  0  0  0  0  0  0  0
   23.7012  -20.9739  -10.3262 C   0  0  0  0  0  0  0  0  0  0  0  0
   23.7834  -21.9227   -9.2867 O   0  0  0  0  0  0  0  0  0  0  0  0
   22.6463  -20.3277  -10.3956 O   0  0  0  0  0  0  0  0  0  0  0  0
  2  1  1  1
  2  3  1  0
  4  3  1  0
  5  6  2  0
  5  4  1  0
  7  8  2  0
  7  2  1  0
  9  5  1  0
 10  7  1  0
 11 10  1  0
 11 12  1  6
 13 14  2  0
 13 12  1  0
 15 16  2  0
 15 11  1  0
 17 13  1  0
 18 19  1  0
 19 20  1  0
 20 21  1  1
 22 20  1  0
 22 23  1  6
 23 15  1  0
 24 22  1  0
 25 24  1  0
 26 24  2  0
M  END
$$$$
