EDI.pdb
     RDKit          3D

 26 25  0  0  1  0  0  0  0  0999 V2000
   17.2176  -11.9678  -17.9493 N   0  0  0  0  0  0  0  0  0  0  0  0
   17.7082  -11.7819  -16.5984 C   0  0  1  0  0  0  0  0  0  0  0  0
   18.9230  -12.6246  -16.3948 C   0  0  0  0  0  0  0  0  0  0  0  0
   19.8612  -12.6408  -17.5612 C   0  0  0  0  0  0  0  0  0  0  0  0
   21.1723  -12.0552  -17.1027 C   0  0  0  0  0  0  0  0  0  0  0  0
   21.7621  -11.1958  -17.8043 O   0  0  0  0  0  0  0  0  0  0  0  0
   17.8894  -10.3485  -16.3543 C   0  0  0  0  0  0  0  0  0  0  0  0
   18.2722   -9.5355  -17.2484 O   0  0  0  0  0  0  0  0  0  0  0  0
   21.7555  -12.4437  -15.9100 O   0  0  0  0  0  0  0  0  0  0  0  0
   17.6462   -9.7420  -15.0704 N   0  0  0  0  0  0  0  0  0  0  0  0
   17.7962   -8.3556  -14.7989 C   0  0  1  0  0  0  0  0  0  0  0  0
   16.7293   -7.7543  -13.9303 C   0  0  0  0  0  0  0  0  0  0  0  0
   15.3650   -7.9796  -14.4778 C   0  0  0  0  0  0  0  0  0  0  0  0
   15.0845   -7.6025  -15.6232 O   0  0  0  0  0  0  0  0  0  0  0  0
   19.1643   -7.9801  -14.3571 C   0  0  0  0  0  0  0  0  0  0  0  0
   19.7224   -8.5465  -13.3527 O   0  0  0  0  0  0  0  0  0  0  0  0
   14.3989   -8.6126  -13.7099 O   0  0  0  0  0  0  0  0  0  0  0  0
   24.6748   -7.5693  -16.2242 C   0  0  0  0  0  0  0  0  0  0  0  0
   23.7399   -6.9398  -15.2235 C   0  0  0  0  0  0  0  0  0  0  0  0
   22.3195   -7.1989  -15.5565 C   0  0  2  0  0  0  0  0  0  0  0  0
   22.0064   -6.6569  -16.9480 C   0  0  0  0  0  0  0  0  0  0  0  0
   21.2962   -6.6527  -14.6234 C   0  0  2  0  0  0  0  0  0  0  0  0
   19.9406   -6.9908  -14.9959 N   0  0  0  0  0  0  0  0  0  0  0  0
   21.4479   -5.2272  -14.2771 C   0  0  0  0  0  0  0  0  0  0  0  0
   22.5601   -4.8300  -13.5071 O   0  0  0  0  0  0  0  0  0  0  0  0
   20.6647   -4.3276  -14.6123 O   0  0  0  0  0  0  0  0  0  0  0  0
  2  1  1  6
  2  3  1  0
  4  3  1  0
  5  6  2  0
  5  4  1  0
  7  8  2  0
  7  2  1  0
  9  5  1  0
 10  7  1  0
 11 10  1  0
 11 12  1  1
 13 14  2  0
 13 12  1  0
 15 16  2  0
 15 11  1  0
 17 13  1  0
 18 19  1  0
 19 20  1  0
 20 21  1  6
 22 20  1  0
 22 23  1  6
 23 15  1  0
 24 22  1  0
 25 24  1  0
 26 24  2  0
M  END
$$$$
