EDI.pdb
     RDKit          3D

 26 25  0  0  1  0  0  0  0  0999 V2000
   15.8258   -9.4638  -16.8405 N   0  0  0  0  0  0  0  0  0  0  0  0
   14.8979   -9.5767  -15.7331 C   0  0  1  0  0  0  0  0  0  0  0  0
   14.2643  -10.9278  -15.7566 C   0  0  0  0  0  0  0  0  0  0  0  0
   13.6365  -11.2884  -17.0669 C   0  0  0  0  0  0  0  0  0  0  0  0
   14.6800  -11.9915  -17.8968 C   0  0  0  0  0  0  0  0  0  0  0  0
   14.7673  -13.2447  -17.8758 O   0  0  0  0  0  0  0  0  0  0  0  0
   15.5979   -9.2322  -14.4928 C   0  0  0  0  0  0  0  0  0  0  0  0
   15.1107   -9.4390  -13.3409 O   0  0  0  0  0  0  0  0  0  0  0  0
   15.5602  -11.2839  -18.6956 O   0  0  0  0  0  0  0  0  0  0  0  0
   16.9049   -8.6265  -14.4805 N   0  0  0  0  0  0  0  0  0  0  0  0
   17.6332   -8.3183  -13.3003 C   0  0  1  0  0  0  0  0  0  0  0  0
   19.1170   -8.1793  -13.4817 C   0  0  0  0  0  0  0  0  0  0  0  0
   19.7278   -9.3983  -14.0756 C   0  0  0  0  0  0  0  0  0  0  0  0
   19.4689  -10.5148  -13.6076 O   0  0  0  0  0  0  0  0  0  0  0  0
   17.0510   -7.1979  -12.5170 C   0  0  0  0  0  0  0  0  0  0  0  0
   16.8568   -6.0450  -13.0408 O   0  0  0  0  0  0  0  0  0  0  0  0
   20.5906   -9.2927  -15.1565 O   0  0  0  0  0  0  0  0  0  0  0  0
   12.3400   -6.3923  -10.8961 C   0  0  0  0  0  0  0  0  0  0  0  0
   13.7874   -6.2273  -11.2825 C   0  0  0  0  0  0  0  0  0  0  0  0
   14.6871   -6.3328  -10.1099 C   0  0  2  0  0  0  0  0  0  0  0  0
   14.3237   -5.2666   -9.0806 C   0  0  0  0  0  0  0  0  0  0  0  0
   16.1492   -6.2248  -10.3681 C   0  0  2  0  0  0  0  0  0  0  0  0
   16.6740   -7.3129  -11.1627 N   0  0  0  0  0  0  0  0  0  0  0  0
   16.9836   -5.9343   -9.1873 C   0  0  0  0  0  0  0  0  0  0  0  0
   16.8176   -4.7008   -8.5253 O   0  0  0  0  0  0  0  0  0  0  0  0
   17.8372   -6.6984   -8.7154 O   0  0  0  0  0  0  0  0  0  0  0  0
  2  1  1  6
  2  3  1  0
  4  3  1  0
  5  6  2  0
  5  4  1  0
  7  8  2  0
  7  2  1  0
  9  5  1  0
 10  7  1  0
 11 10  1  0
 11 12  1  6
 13 14  2  0
 13 12  1  0
 15 16  2  0
 15 11  1  0
 17 13  1  0
 18 19  1  0
 19 20  1  0
 20 21  1  1
 22 20  1  0
 22 23  1  1
 23 15  1  0
 24 22  1  0
 25 24  1  0
 26 24  2  0
M  END
$$$$
