TVD.pdb
     RDKit          3D

 23 22  0  0  1  0  0  0  0  0999 V2000
    7.0173  -19.0048   18.8684 C   0  0  0  0  0  0  0  0  0  0  0  0
    7.8782  -18.7444   17.6472 C   0  0  1  0  0  0  0  0  0  0  0  0
    7.3057  -19.4248   16.5663 O   0  0  0  0  0  0  0  0  0  0  0  0
    7.8032  -17.2559   17.3354 C   0  0  2  0  0  0  0  0  0  0  0  0
    8.5183  -17.0491   16.0760 N   0  0  0  0  0  0  0  0  0  0  0  0
    8.4872  -16.4580   18.3762 C   0  0  0  0  0  0  0  0  0  0  0  0
    9.7561  -16.4275   18.4675 O   0  0  0  0  0  0  0  0  0  0  0  0
    7.2011  -12.8214   19.8772 C   0  0  0  0  0  0  0  0  0  0  0  0
    7.4442  -13.8779   20.9052 C   0  0  2  0  0  0  0  0  0  0  0  0
    8.1809  -13.3079   22.1158 C   0  0  0  0  0  0  0  0  0  0  0  0
    8.3399  -14.9581   20.3301 C   0  0  2  0  0  0  0  0  0  0  0  0
    7.7051  -15.7105   19.2928 N   0  0  0  0  0  0  0  0  0  0  0  0
    8.7763  -15.9117   21.3914 C   0  0  0  0  0  0  0  0  0  0  0  0
    7.9475  -16.7550   21.8829 O   0  0  0  0  0  0  0  0  0  0  0  0
   10.0799  -15.9672   21.9232 N   0  0  0  0  0  0  0  0  0  0  0  0
   10.5110  -17.0299   22.8565 C   0  0  1  0  0  0  0  0  0  0  0  0
   11.7004  -17.7417   22.2781 C   0  0  0  0  0  0  0  0  0  0  0  0
   12.2455  -18.7060   23.2192 C   0  0  0  0  0  0  0  0  0  0  0  0
   11.7123  -19.7929   23.4587 O   0  0  0  0  0  0  0  0  0  0  0  0
   10.9124  -16.3979   24.1316 C   0  0  0  0  0  0  0  0  0  0  0  0
   10.9703  -15.0007   24.1822 O   0  0  0  0  0  0  0  0  0  0  0  0
   13.4417  -18.4081   23.9057 O   0  0  0  0  0  0  0  0  0  0  0  0
   11.1955  -17.0257   25.1398 O   0  0  0  0  0  0  0  0  0  0  0  0
  2  1  1  1
  2  3  1  0
  4  5  1  6
  4  2  1  0
  6  7  2  0
  6  4  1  0
  9  8  1  6
  9 11  1  0
 10  9  1  0
 11 12  1  6
 11 13  1  0
 12  6  1  0
 13 14  2  0
 13 15  1  0
 15 16  1  0
 16 20  1  0
 16 17  1  6
 18 17  1  0
 18 22  1  0
 19 18  2  0
 20 23  2  0
 20 21  1  0
M  END
$$$$
