TVD.pdb
     RDKit          3D

 23 22  0  0  1  0  0  0  0  0999 V2000
    6.5121  -16.2137   21.3291 C   0  0  0  0  0  0  0  0  0  0  0  0
    7.4668  -15.3027   20.5815 C   0  0  1  0  0  0  0  0  0  0  0  0
    7.0823  -15.2906   19.2357 O   0  0  0  0  0  0  0  0  0  0  0  0
    7.2772  -13.8906   21.1185 C   0  0  2  0  0  0  0  0  0  0  0  0
    7.9798  -12.9903   20.2042 N   0  0  0  0  0  0  0  0  0  0  0  0
    7.8917  -13.7416   22.4557 C   0  0  0  0  0  0  0  0  0  0  0  0
    9.1521  -13.6483   22.6043 O   0  0  0  0  0  0  0  0  0  0  0  0
    6.4794  -11.6192   25.5356 C   0  0  0  0  0  0  0  0  0  0  0  0
    6.7365  -13.0348   25.9383 C   0  0  2  0  0  0  0  0  0  0  0  0
    7.4921  -13.1007   27.2642 C   0  0  0  0  0  0  0  0  0  0  0  0
    7.6221  -13.7092   24.9084 C   0  0  2  0  0  0  0  0  0  0  0  0
    7.0514  -13.7028   23.5971 N   0  0  0  0  0  0  0  0  0  0  0  0
    7.8967  -15.1264   25.2854 C   0  0  0  0  0  0  0  0  0  0  0  0
    6.9463  -15.9841   25.3111 O   0  0  0  0  0  0  0  0  0  0  0  0
    9.1685  -15.6249   25.6310 N   0  0  0  0  0  0  0  0  0  0  0  0
    9.3773  -17.0147   26.0907 C   0  0  1  0  0  0  0  0  0  0  0  0
   10.2984  -17.7172   25.1348 C   0  0  0  0  0  0  0  0  0  0  0  0
   11.4826  -16.9194   24.8626 C   0  0  0  0  0  0  0  0  0  0  0  0
   11.6881  -15.8169   25.3774 O   0  0  0  0  0  0  0  0  0  0  0  0
   10.0186  -16.9754   27.4225 C   0  0  0  0  0  0  0  0  0  0  0  0
   10.1998  -18.1864   28.0999 O   0  0  0  0  0  0  0  0  0  0  0  0
   12.4596  -17.4074   23.9693 O   0  0  0  0  0  0  0  0  0  0  0  0
   10.3976  -15.9480   27.9625 O   0  0  0  0  0  0  0  0  0  0  0  0
  2  1  1  1
  2  3  1  0
  4  5  1  6
  4  2  1  0
  6  7  2  0
  6  4  1  0
  9  8  1  6
  9 11  1  0
 10  9  1  0
 11 12  1  6
 11 13  1  0
 12  6  1  0
 13 14  2  0
 13 15  1  0
 15 16  1  0
 16 20  1  0
 16 17  1  6
 18 17  1  0
 18 22  1  0
 19 18  2  0
 20 23  2  0
 20 21  1  0
M  END
$$$$
