TVD.pdb
     RDKit          3D

 23 22  0  0  1  0  0  0  0  0999 V2000
    6.3826  -14.3981   19.0897 C   0  0  0  0  0  0  0  0  0  0  0  0
    7.0434  -14.5093   20.4502 C   0  0  1  0  0  0  0  0  0  0  0  0
    8.2755  -15.1505   20.2773 O   0  0  0  0  0  0  0  0  0  0  0  0
    7.3334  -13.0978   20.9421 C   0  0  2  0  0  0  0  0  0  0  0  0
    8.3339  -12.5300   20.0383 N   0  0  0  0  0  0  0  0  0  0  0  0
    7.9156  -13.1160   22.3017 C   0  0  0  0  0  0  0  0  0  0  0  0
    9.1732  -13.0676   22.4899 O   0  0  0  0  0  0  0  0  0  0  0  0
    6.3178  -11.4690   25.7167 C   0  0  0  0  0  0  0  0  0  0  0  0
    6.6058  -12.9314   25.8209 C   0  0  2  0  0  0  0  0  0  0  0  0
    7.2752  -13.2664   27.1524 C   0  0  0  0  0  0  0  0  0  0  0  0
    7.5837  -13.3410   24.7365 C   0  0  2  0  0  0  0  0  0  0  0  0
    7.0467  -13.1896   23.4198 N   0  0  0  0  0  0  0  0  0  0  0  0
    8.0023  -14.7632   24.9038 C   0  0  0  0  0  0  0  0  0  0  0  0
    7.1386  -15.7050   24.8221 O   0  0  0  0  0  0  0  0  0  0  0  0
    9.3252  -15.1783   25.1549 N   0  0  0  0  0  0  0  0  0  0  0  0
    9.6940  -16.6019   25.3086 C   0  0  1  0  0  0  0  0  0  0  0  0
   11.0667  -16.8201   24.7395 C   0  0  0  0  0  0  0  0  0  0  0  0
   11.5454  -18.1635   25.0204 C   0  0  0  0  0  0  0  0  0  0  0  0
   10.7933  -19.1200   25.2268 O   0  0  0  0  0  0  0  0  0  0  0  0
    9.7237  -16.9242   26.7514 C   0  0  0  0  0  0  0  0  0  0  0  0
    9.9437  -15.8774   27.6536 O   0  0  0  0  0  0  0  0  0  0  0  0
   12.9336  -18.4119   25.0651 O   0  0  0  0  0  0  0  0  0  0  0  0
    9.5676  -18.0497   27.1980 O   0  0  0  0  0  0  0  0  0  0  0  0
  2  1  1  6
  2  3  1  0
  4  5  1  6
  4  2  1  0
  6  7  2  0
  6  4  1  0
  9  8  1  1
  9 11  1  0
 10  9  1  0
 11 12  1  6
 11 13  1  0
 12  6  1  0
 13 14  2  0
 13 15  1  0
 15 16  1  0
 16 20  1  0
 16 17  1  1
 18 17  1  0
 18 22  1  0
 19 18  2  0
 20 23  2  0
 20 21  1  0
M  END
$$$$
