TVD.pdb
     RDKit          3D

 23 22  0  0  1  0  0  0  0  0999 V2000
   10.8404  -14.0825   28.9030 C   0  0  0  0  0  0  0  0  0  0  0  0
   10.7564  -15.5961   28.9499 C   0  0  1  0  0  0  0  0  0  0  0  0
   11.2677  -16.0157   30.1834 O   0  0  0  0  0  0  0  0  0  0  0  0
    9.2834  -15.9804   28.9167 C   0  0  2  0  0  0  0  0  0  0  0  0
    9.2138  -17.4194   29.1709 N   0  0  0  0  0  0  0  0  0  0  0  0
    8.6973  -15.7316   27.5816 C   0  0  0  0  0  0  0  0  0  0  0  0
    8.5410  -16.6696   26.7360 O   0  0  0  0  0  0  0  0  0  0  0  0
    6.1015  -12.5467   26.8232 C   0  0  0  0  0  0  0  0  0  0  0  0
    7.1985  -12.7367   25.8269 C   0  0  2  0  0  0  0  0  0  0  0  0
    6.6733  -12.6027   24.3987 C   0  0  0  0  0  0  0  0  0  0  0  0
    7.7622  -14.1396   25.9444 C   0  0  2  0  0  0  0  0  0  0  0  0
    8.3018  -14.4134   27.2402 N   0  0  0  0  0  0  0  0  0  0  0  0
    8.8393  -14.3691   24.9378 C   0  0  0  0  0  0  0  0  0  0  0  0
   10.0090  -13.8811   25.1203 O   0  0  0  0  0  0  0  0  0  0  0  0
    8.6732  -15.1095   23.7505 N   0  0  0  0  0  0  0  0  0  0  0  0
    9.8079  -15.4614   22.8702 C   0  0  1  0  0  0  0  0  0  0  0  0
   10.7514  -16.3601   23.6171 C   0  0  0  0  0  0  0  0  0  0  0  0
   11.8697  -16.7613   22.7797 C   0  0  0  0  0  0  0  0  0  0  0  0
   12.1913  -16.1637   21.7490 O   0  0  0  0  0  0  0  0  0  0  0  0
    9.2815  -16.1965   21.7002 C   0  0  0  0  0  0  0  0  0  0  0  0
    8.1233  -16.9627   21.8729 O   0  0  0  0  0  0  0  0  0  0  0  0
   12.6406  -17.8864   23.1413 O   0  0  0  0  0  0  0  0  0  0  0  0
    9.7999  -16.1723   20.5950 O   0  0  0  0  0  0  0  0  0  0  0  0
  2  1  1  1
  2  3  1  0
  4  5  1  6
  4  2  1  0
  6  7  2  0
  6  4  1  0
  9  8  1  1
  9 11  1  0
 10  9  1  0
 11 12  1  1
 11 13  1  0
 12  6  1  0
 13 14  2  0
 13 15  1  0
 15 16  1  0
 16 20  1  0
 16 17  1  1
 18 17  1  0
 18 22  1  0
 19 18  2  0
 20 23  2  0
 20 21  1  0
M  END
$$$$
