TVD.pdb
     RDKit          3D

 23 22  0  0  1  0  0  0  0  0999 V2000
    7.3074  -19.0713   16.2687 C   0  0  0  0  0  0  0  0  0  0  0  0
    7.7796  -18.4629   17.5752 C   0  0  1  0  0  0  0  0  0  0  0  0
    8.6889  -19.3528   18.1585 O   0  0  0  0  0  0  0  0  0  0  0  0
    8.5436  -17.1881   17.2442 C   0  0  2  0  0  0  0  0  0  0  0  0
    9.7340  -17.5887   16.4941 N   0  0  0  0  0  0  0  0  0  0  0  0
    8.9975  -16.5038   18.4745 C   0  0  0  0  0  0  0  0  0  0  0  0
   10.1867  -16.6313   18.9091 O   0  0  0  0  0  0  0  0  0  0  0  0
    7.4948  -12.8184   19.5712 C   0  0  0  0  0  0  0  0  0  0  0  0
    7.5639  -13.8135   20.6835 C   0  0  2  0  0  0  0  0  0  0  0  0
    8.1165  -13.1767   21.9573 C   0  0  0  0  0  0  0  0  0  0  0  0
    8.5210  -14.9306   20.3149 C   0  0  2  0  0  0  0  0  0  0  0  0
    8.0809  -15.6870   19.1838 N   0  0  0  0  0  0  0  0  0  0  0  0
    8.7076  -15.8731   21.4563 C   0  0  0  0  0  0  0  0  0  0  0  0
    7.9568  -16.9038   21.5727 O   0  0  0  0  0  0  0  0  0  0  0  0
    9.6823  -15.7203   22.4623 N   0  0  0  0  0  0  0  0  0  0  0  0
   10.2172  -16.8660   23.2288 C   0  0  1  0  0  0  0  0  0  0  0  0
   11.0114  -17.7477   22.3082 C   0  0  0  0  0  0  0  0  0  0  0  0
   11.6429  -18.8357   23.0364 C   0  0  0  0  0  0  0  0  0  0  0  0
   11.0459  -19.5341   23.8602 O   0  0  0  0  0  0  0  0  0  0  0  0
   11.1184  -16.3460   24.2794 C   0  0  0  0  0  0  0  0  0  0  0  0
   11.0308  -16.9093   25.5574 O   0  0  0  0  0  0  0  0  0  0  0  0
   13.0044  -19.1272   22.8083 O   0  0  0  0  0  0  0  0  0  0  0  0
   11.9322  -15.4548   24.0945 O   0  0  0  0  0  0  0  0  0  0  0  0
  2  1  1  6
  2  3  1  0
  4  5  1  6
  4  2  1  0
  6  7  2  0
  6  4  1  0
  9  8  1  6
  9 11  1  0
 10  9  1  0
 11 12  1  6
 11 13  1  0
 12  6  1  0
 13 14  2  0
 13 15  1  0
 15 16  1  0
 16 20  1  0
 16 17  1  6
 18 17  1  0
 18 22  1  0
 19 18  2  0
 20 23  2  0
 20 21  1  0
M  END
$$$$
