TVD.pdb
     RDKit          3D

 23 22  0  0  1  0  0  0  0  0999 V2000
    6.6690  -15.7828   20.6841 C   0  0  0  0  0  0  0  0  0  0  0  0
    7.5855  -14.7705   20.0242 C   0  0  1  0  0  0  0  0  0  0  0  0
    7.2034  -14.6571   18.6824 O   0  0  0  0  0  0  0  0  0  0  0  0
    7.3350  -13.4201   20.6814 C   0  0  2  0  0  0  0  0  0  0  0  0
    8.0191  -12.4169   19.8654 N   0  0  0  0  0  0  0  0  0  0  0  0
    7.9212  -13.3705   22.0385 C   0  0  0  0  0  0  0  0  0  0  0  0
    9.1780  -13.2864   22.2199 O   0  0  0  0  0  0  0  0  0  0  0  0
    6.3847  -11.6446   25.3887 C   0  0  0  0  0  0  0  0  0  0  0  0
    6.6567  -13.1032   25.5631 C   0  0  2  0  0  0  0  0  0  0  0  0
    7.3597  -13.3763   26.8915 C   0  0  0  0  0  0  0  0  0  0  0  0
    7.5977  -13.5841   24.4755 C   0  0  2  0  0  0  0  0  0  0  0  0
    7.0574  -13.4186   23.1618 N   0  0  0  0  0  0  0  0  0  0  0  0
    7.9336  -15.0263   24.6583 C   0  0  0  0  0  0  0  0  0  0  0  0
    7.3713  -15.9179   23.9312 O   0  0  0  0  0  0  0  0  0  0  0  0
    8.8572  -15.5138   25.6040 N   0  0  0  0  0  0  0  0  0  0  0  0
    9.5814  -16.7898   25.4203 C   0  0  1  0  0  0  0  0  0  0  0  0
   10.5651  -16.6412   24.2951 C   0  0  0  0  0  0  0  0  0  0  0  0
   11.3717  -17.8404   24.1394 C   0  0  0  0  0  0  0  0  0  0  0  0
   10.8887  -18.9609   23.9549 O   0  0  0  0  0  0  0  0  0  0  0  0
   10.3259  -17.0880   26.6627 C   0  0  0  0  0  0  0  0  0  0  0  0
   10.6603  -18.4216   26.9236 O   0  0  0  0  0  0  0  0  0  0  0  0
   12.7781  -17.7449   24.1988 O   0  0  0  0  0  0  0  0  0  0  0  0
   10.6638  -16.2379   27.4712 O   0  0  0  0  0  0  0  0  0  0  0  0
  2  1  1  1
  2  3  1  0
  4  5  1  6
  4  2  1  0
  6  7  2  0
  6  4  1  0
  9  8  1  6
  9 11  1  0
 10  9  1  0
 11 12  1  6
 11 13  1  0
 12  6  1  0
 13 14  2  0
 13 15  1  0
 15 16  1  0
 16 20  1  0
 16 17  1  6
 18 17  1  0
 18 22  1  0
 19 18  2  0
 20 23  2  0
 20 21  1  0
M  END
$$$$
