TVD.pdb
     RDKit          3D

 23 22  0  0  1  0  0  0  0  0999 V2000
    5.7968  -15.7546   19.8015 C   0  0  0  0  0  0  0  0  0  0  0  0
    6.5776  -15.6655   21.0986 C   0  0  1  0  0  0  0  0  0  0  0  0
    7.7672  -16.3842   20.9330 O   0  0  0  0  0  0  0  0  0  0  0  0
    6.9570  -14.2065   21.3126 C   0  0  2  0  0  0  0  0  0  0  0  0
    7.8357  -13.8290   20.2056 N   0  0  0  0  0  0  0  0  0  0  0  0
    7.7177  -14.0322   22.5691 C   0  0  0  0  0  0  0  0  0  0  0  0
    8.9889  -14.0868   22.5927 O   0  0  0  0  0  0  0  0  0  0  0  0
    6.5282  -11.6363   25.7373 C   0  0  0  0  0  0  0  0  0  0  0  0
    6.8766  -13.0416   26.1059 C   0  0  2  0  0  0  0  0  0  0  0  0
    7.7256  -13.0827   27.3751 C   0  0  0  0  0  0  0  0  0  0  0  0
    7.7172  -13.6671   25.0096 C   0  0  2  0  0  0  0  0  0  0  0  0
    7.0084  -13.7990   23.7745 N   0  0  0  0  0  0  0  0  0  0  0  0
    8.1995  -15.0204   25.4120 C   0  0  0  0  0  0  0  0  0  0  0  0
    7.4112  -16.0284   25.3629 O   0  0  0  0  0  0  0  0  0  0  0  0
    9.5058  -15.2977   25.8615 N   0  0  0  0  0  0  0  0  0  0  0  0
    9.9943  -16.6766   26.0769 C   0  0  1  0  0  0  0  0  0  0  0  0
   11.2247  -16.8996   25.2451 C   0  0  0  0  0  0  0  0  0  0  0  0
   11.8483  -18.1746   25.5591 C   0  0  0  0  0  0  0  0  0  0  0  0
   11.4099  -18.9494   26.4137 O   0  0  0  0  0  0  0  0  0  0  0  0
   10.3541  -16.8277   27.5031 C   0  0  0  0  0  0  0  0  0  0  0  0
   10.4448  -15.6698   28.2837 O   0  0  0  0  0  0  0  0  0  0  0  0
   13.0132  -18.5681   24.8671 O   0  0  0  0  0  0  0  0  0  0  0  0
   10.5761  -17.9035   28.0360 O   0  0  0  0  0  0  0  0  0  0  0  0
  2  1  1  6
  2  3  1  0
  4  5  1  6
  4  2  1  0
  6  7  2  0
  6  4  1  0
  9  8  1  6
  9 11  1  0
 10  9  1  0
 11 12  1  6
 11 13  1  0
 12  6  1  0
 13 14  2  0
 13 15  1  0
 15 16  1  0
 16 20  1  0
 16 17  1  6
 18 17  1  0
 18 22  1  0
 19 18  2  0
 20 23  2  0
 20 21  1  0
M  END
$$$$
