TVD.pdb
     RDKit          3D

 23 22  0  0  1  0  0  0  0  0999 V2000
    6.0149  -17.1885   22.6756 C   0  0  0  0  0  0  0  0  0  0  0  0
    6.8486  -16.5886   21.5598 C   0  0  1  0  0  0  0  0  0  0  0  0
    6.1810  -16.8234   20.3522 O   0  0  0  0  0  0  0  0  0  0  0  0
    6.8880  -15.0809   21.7689 C   0  0  2  0  0  0  0  0  0  0  0  0
    7.5179  -14.5035   20.5815 N   0  0  0  0  0  0  0  0  0  0  0  0
    7.7228  -14.7263   22.9373 C   0  0  0  0  0  0  0  0  0  0  0  0
    8.9916  -14.6687   22.8582 O   0  0  0  0  0  0  0  0  0  0  0  0
    6.7154  -12.0031   25.7462 C   0  0  0  0  0  0  0  0  0  0  0  0
    7.1180  -13.3090   26.3502 C   0  0  2  0  0  0  0  0  0  0  0  0
    8.0714  -13.1006   27.5253 C   0  0  0  0  0  0  0  0  0  0  0  0
    7.8743  -14.1362   25.3286 C   0  0  2  0  0  0  0  0  0  0  0  0
    7.0889  -14.4447   24.1740 N   0  0  0  0  0  0  0  0  0  0  0  0
    8.3450  -15.4209   25.9236 C   0  0  0  0  0  0  0  0  0  0  0  0
    7.5004  -16.3104   26.2915 O   0  0  0  0  0  0  0  0  0  0  0  0
    9.6989  -15.7551   26.1247 N   0  0  0  0  0  0  0  0  0  0  0  0
   10.1227  -17.0799   26.6261 C   0  0  1  0  0  0  0  0  0  0  0  0
   11.4238  -17.4592   25.9789 C   0  0  0  0  0  0  0  0  0  0  0  0
   11.8781  -18.7626   26.4347 C   0  0  0  0  0  0  0  0  0  0  0  0
   11.1225  -19.7259   26.5896 O   0  0  0  0  0  0  0  0  0  0  0  0
   10.3321  -16.9821   28.0866 C   0  0  0  0  0  0  0  0  0  0  0  0
   10.4368  -15.7058   28.6508 O   0  0  0  0  0  0  0  0  0  0  0  0
   13.2452  -18.9613   26.7214 O   0  0  0  0  0  0  0  0  0  0  0  0
   10.4189  -17.9502   28.8255 O   0  0  0  0  0  0  0  0  0  0  0  0
  2  1  1  1
  2  3  1  0
  4  5  1  6
  4  2  1  0
  6  7  2  0
  6  4  1  0
  9  8  1  6
  9 11  1  0
 10  9  1  0
 11 12  1  6
 11 13  1  0
 12  6  1  0
 13 14  2  0
 13 15  1  0
 15 16  1  0
 16 20  1  0
 16 17  1  6
 18 17  1  0
 18 22  1  0
 19 18  2  0
 20 23  2  0
 20 21  1  0
M  END
$$$$
