TVD.pdb
     RDKit          3D

 23 22  0  0  1  0  0  0  0  0999 V2000
    6.4682  -15.6467   20.5339 C   0  0  0  0  0  0  0  0  0  0  0  0
    7.4052  -14.6124   19.9401 C   0  0  1  0  0  0  0  0  0  0  0  0
    6.9740  -14.3418   18.6363 O   0  0  0  0  0  0  0  0  0  0  0  0
    7.2486  -13.3287   20.7437 C   0  0  2  0  0  0  0  0  0  0  0  0
    7.9282  -12.2723   19.9938 N   0  0  0  0  0  0  0  0  0  0  0  0
    7.9107  -13.4405   22.0617 C   0  0  0  0  0  0  0  0  0  0  0  0
    9.1778  -13.4161   22.1763 O   0  0  0  0  0  0  0  0  0  0  0  0
    6.3603  -11.7608   25.4136 C   0  0  0  0  0  0  0  0  0  0  0  0
    6.7744  -13.1811   25.6224 C   0  0  2  0  0  0  0  0  0  0  0  0
    7.5442  -13.3424   26.9318 C   0  0  0  0  0  0  0  0  0  0  0  0
    7.7194  -13.6087   24.5162 C   0  0  2  0  0  0  0  0  0  0  0  0
    7.1092  -13.5786   23.2232 N   0  0  0  0  0  0  0  0  0  0  0  0
    8.2301  -14.9903   24.7537 C   0  0  0  0  0  0  0  0  0  0  0  0
    7.4394  -15.9943   24.6727 O   0  0  0  0  0  0  0  0  0  0  0  0
    9.5669  -15.2998   25.0736 N   0  0  0  0  0  0  0  0  0  0  0  0
   10.0374  -16.6897   25.2555 C   0  0  1  0  0  0  0  0  0  0  0  0
   11.4351  -16.8115   24.7195 C   0  0  0  0  0  0  0  0  0  0  0  0
   11.9643  -18.1490   24.9287 C   0  0  0  0  0  0  0  0  0  0  0  0
   11.2695  -19.1019   25.2923 O   0  0  0  0  0  0  0  0  0  0  0  0
   10.0584  -16.9906   26.7031 C   0  0  0  0  0  0  0  0  0  0  0  0
   10.4307  -15.9666   27.5812 O   0  0  0  0  0  0  0  0  0  0  0  0
   13.3366  -18.3956   24.7125 O   0  0  0  0  0  0  0  0  0  0  0  0
    9.7701  -18.0798   27.1734 O   0  0  0  0  0  0  0  0  0  0  0  0
  2  1  1  1
  2  3  1  0
  4  5  1  6
  4  2  1  0
  6  7  2  0
  6  4  1  0
  9  8  1  6
  9 11  1  0
 10  9  1  0
 11 12  1  6
 11 13  1  0
 12  6  1  0
 13 14  2  0
 13 15  1  0
 15 16  1  0
 16 20  1  0
 16 17  1  1
 18 17  1  0
 18 22  1  0
 19 18  2  0
 20 23  2  0
 20 21  1  0
M  END
$$$$
