TVD.pdb
     RDKit          3D

 23 22  0  0  1  0  0  0  0  0999 V2000
    6.6533  -15.7998   20.9522 C   0  0  0  0  0  0  0  0  0  0  0  0
    7.5892  -14.8425   20.2397 C   0  0  1  0  0  0  0  0  0  0  0  0
    7.2079  -14.7925   18.8938 O   0  0  0  0  0  0  0  0  0  0  0  0
    7.3665  -13.4543   20.8244 C   0  0  2  0  0  0  0  0  0  0  0  0
    8.0980  -12.5135   19.9760 N   0  0  0  0  0  0  0  0  0  0  0  0
    7.9255  -13.3552   22.1903 C   0  0  0  0  0  0  0  0  0  0  0  0
    9.1745  -13.2181   22.3920 O   0  0  0  0  0  0  0  0  0  0  0  0
    6.2989  -11.4889   25.4292 C   0  0  0  0  0  0  0  0  0  0  0  0
    6.5758  -12.9386   25.6613 C   0  0  2  0  0  0  0  0  0  0  0  0
    7.2242  -13.1628   27.0261 C   0  0  0  0  0  0  0  0  0  0  0  0
    7.5661  -13.4440   24.6300 C   0  0  2  0  0  0  0  0  0  0  0  0
    7.0437  -13.4153   23.2991 N   0  0  0  0  0  0  0  0  0  0  0  0
    7.9844  -14.8441   24.9318 C   0  0  0  0  0  0  0  0  0  0  0  0
    7.1677  -15.8146   24.7561 O   0  0  0  0  0  0  0  0  0  0  0  0
    9.2573  -15.2069   25.4148 N   0  0  0  0  0  0  0  0  0  0  0  0
    9.7117  -16.6127   25.4745 C   0  0  1  0  0  0  0  0  0  0  0  0
   10.9956  -16.7492   24.7072 C   0  0  0  0  0  0  0  0  0  0  0  0
   11.5055  -18.1088   24.7721 C   0  0  0  0  0  0  0  0  0  0  0  0
   10.7854  -19.0927   24.9628 O   0  0  0  0  0  0  0  0  0  0  0  0
    9.9666  -16.9622   26.8885 C   0  0  0  0  0  0  0  0  0  0  0  0
   10.0035  -15.9232   27.8252 O   0  0  0  0  0  0  0  0  0  0  0  0
   12.8880  -18.3413   24.6127 O   0  0  0  0  0  0  0  0  0  0  0  0
   10.1465  -18.1035   27.2830 O   0  0  0  0  0  0  0  0  0  0  0  0
  2  1  1  1
  2  3  1  0
  4  5  1  6
  4  2  1  0
  6  7  2  0
  6  4  1  0
  9  8  1  6
  9 11  1  0
 10  9  1  0
 11 12  1  6
 11 13  1  0
 12  6  1  0
 13 14  2  0
 13 15  1  0
 15 16  1  0
 16 20  1  0
 16 17  1  6
 18 17  1  0
 18 22  1  0
 19 18  2  0
 20 23  2  0
 20 21  1  0
M  END
$$$$
