TVD.pdb
     RDKit          3D

 23 22  0  0  1  0  0  0  0  0999 V2000
    6.4673  -16.6990   21.6998 C   0  0  0  0  0  0  0  0  0  0  0  0
    7.3851  -15.7824   20.9139 C   0  0  1  0  0  0  0  0  0  0  0  0
    6.9498  -15.7779   19.5836 O   0  0  0  0  0  0  0  0  0  0  0  0
    7.2038  -14.3702   21.4537 C   0  0  2  0  0  0  0  0  0  0  0  0
    7.8241  -13.4632   20.4878 N   0  0  0  0  0  0  0  0  0  0  0  0
    7.9049  -14.1988   22.7447 C   0  0  0  0  0  0  0  0  0  0  0  0
    9.1710  -14.0865   22.8069 O   0  0  0  0  0  0  0  0  0  0  0  0
    6.3619  -12.0114   25.7786 C   0  0  0  0  0  0  0  0  0  0  0  0
    6.8583  -13.3437   26.2377 C   0  0  2  0  0  0  0  0  0  0  0  0
    7.6771  -13.2131   27.5206 C   0  0  0  0  0  0  0  0  0  0  0  0
    7.7893  -13.9322   25.1952 C   0  0  2  0  0  0  0  0  0  0  0  0
    7.1430  -14.1596   23.9399 N   0  0  0  0  0  0  0  0  0  0  0  0
    8.3622  -15.2287   25.6611 C   0  0  0  0  0  0  0  0  0  0  0  0
    7.6019  -16.2427   25.8436 O   0  0  0  0  0  0  0  0  0  0  0  0
    9.7286  -15.4433   25.9296 N   0  0  0  0  0  0  0  0  0  0  0  0
   10.2459  -16.7372   26.4241 C   0  0  1  0  0  0  0  0  0  0  0  0
   11.6699  -16.9028   25.9763 C   0  0  0  0  0  0  0  0  0  0  0  0
   11.7843  -16.7862   24.5319 C   0  0  0  0  0  0  0  0  0  0  0  0
   11.0291  -17.3635   23.7450 O   0  0  0  0  0  0  0  0  0  0  0  0
   10.2142  -16.7193   27.9023 C   0  0  0  0  0  0  0  0  0  0  0  0
   10.2226  -17.9469   28.5741 O   0  0  0  0  0  0  0  0  0  0  0  0
   12.8008  -15.9798   23.9778 O   0  0  0  0  0  0  0  0  0  0  0  0
   10.1811  -15.6960   28.5674 O   0  0  0  0  0  0  0  0  0  0  0  0
  2  1  1  1
  2  3  1  0
  4  5  1  6
  4  2  1  0
  6  7  2  0
  6  4  1  0
  9  8  1  6
  9 11  1  0
 10  9  1  0
 11 12  1  6
 11 13  1  0
 12  6  1  0
 13 14  2  0
 13 15  1  0
 15 16  1  0
 16 20  1  0
 16 17  1  1
 18 17  1  0
 18 22  1  0
 19 18  2  0
 20 23  2  0
 20 21  1  0
M  END
$$$$
