GYC.pdb
     RDKit          3D

 23 23  0  0  1  0  0  0  0  0999 V2000
    9.5042  -16.6214   18.2887 N   0  0  0  0  0  0  0  0  0  0  0  0
    8.2736  -16.4174   19.0337 C   0  0  0  0  0  0  0  0  0  0  0  0
    8.5708  -15.9721   20.4377 C   0  0  0  0  0  0  0  0  0  0  0  0
    9.5698  -16.4344   21.0035 O   0  0  0  0  0  0  0  0  0  0  0  0
    7.7578  -12.4227   28.4313 O   0  0  0  0  0  0  0  0  0  0  0  0
    7.5298  -12.7198   27.0844 C   0  0  0  0  0  0  0  0  0  0  0  0
    6.4681  -13.5105   26.6943 C   0  0  0  0  0  0  0  0  0  0  0  0
    6.2515  -13.7981   25.3609 C   0  0  0  0  0  0  0  0  0  0  0  0
    7.0776  -13.3133   24.3694 C   0  0  0  0  0  0  0  0  0  0  0  0
    6.8546  -13.6168   22.9231 C   0  0  0  0  0  0  0  0  0  0  0  0
    7.8072  -14.6674   22.4714 C   0  0  2  0  0  0  0  0  0  0  0  0
    7.7287  -15.0440   21.1023 N   0  0  0  0  0  0  0  0  0  0  0  0
    7.8640  -15.8609   23.3738 C   0  0  0  0  0  0  0  0  0  0  0  0
    6.9013  -16.6534   23.3594 O   0  0  0  0  0  0  0  0  0  0  0  0
    8.1346  -12.5252   24.7667 C   0  0  0  0  0  0  0  0  0  0  0  0
    8.3597  -12.2317   26.0981 C   0  0  0  0  0  0  0  0  0  0  0  0
    8.9860  -16.0743   24.2168 N   0  0  0  0  0  0  0  0  0  0  0  0
    9.0268  -17.2497   25.0348 C   0  0  1  0  0  0  0  0  0  0  0  0
    9.9570  -18.3100   24.4818 C   0  0  0  0  0  0  0  0  0  0  0  0
   11.5176  -17.4931   24.0490 S   0  0  0  0  0  0  0  0  0  0  0  0
    9.5308  -16.9077   26.3892 C   0  0  0  0  0  0  0  0  0  0  0  0
    9.5185  -17.7585   27.3316 O   0  0  0  0  0  0  0  0  0  0  0  0
   10.0192  -15.6267   26.6021 O   0  0  0  0  0  0  0  0  0  0  0  0
  2  1  1  0
  3  2  1  0
  3 12  1  0
  4  3  2  0
  6  5  1  0
  6  7  2  0
  8  7  1  0
  9  8  2  0
 10  9  1  0
 11 10  1  1
 11 12  1  0
 13 11  1  0
 13 17  1  0
 14 13  2  0
 15 16  2  0
 15  9  1  0
 16  6  1  0
 17 18  1  0
 18 21  1  0
 19 20  1  0
 18 19  1  6
 21 22  2  0
 21 23  1  0
M  END
$$$$
