GYC.pdb
     RDKit          3D

 23 23  0  0  1  0  0  0  0  0999 V2000
    4.9473  -18.4736   22.3812 N   0  0  0  0  0  0  0  0  0  0  0  0
    5.5662  -18.2709   23.6800 C   0  0  0  0  0  0  0  0  0  0  0  0
    6.7161  -17.3093   23.5757 C   0  0  0  0  0  0  0  0  0  0  0  0
    7.0378  -16.8947   22.4548 O   0  0  0  0  0  0  0  0  0  0  0  0
    5.3780  -11.0181   26.5308 O   0  0  0  0  0  0  0  0  0  0  0  0
    6.2508  -12.1029   26.4042 C   0  0  0  0  0  0  0  0  0  0  0  0
    5.9144  -13.3534   26.8814 C   0  0  0  0  0  0  0  0  0  0  0  0
    6.7839  -14.4187   26.7513 C   0  0  0  0  0  0  0  0  0  0  0  0
    8.0145  -14.2824   26.1450 C   0  0  0  0  0  0  0  0  0  0  0  0
    8.9647  -15.4265   25.9977 C   0  0  0  0  0  0  0  0  0  0  0  0
    8.6573  -16.1857   24.7549 C   0  0  2  0  0  0  0  0  0  0  0  0
    7.4190  -16.8845   24.7323 N   0  0  0  0  0  0  0  0  0  0  0  0
    9.7875  -17.0418   24.2737 C   0  0  0  0  0  0  0  0  0  0  0  0
    9.5163  -18.1731   23.8246 O   0  0  0  0  0  0  0  0  0  0  0  0
    8.3426  -13.0316   25.6715 C   0  0  0  0  0  0  0  0  0  0  0  0
    7.4797  -11.9597   25.7969 C   0  0  0  0  0  0  0  0  0  0  0  0
   11.1249  -16.5693   24.3317 N   0  0  0  0  0  0  0  0  0  0  0  0
   12.0407  -16.9478   23.2971 C   0  0  1  0  0  0  0  0  0  0  0  0
   11.6225  -16.4336   21.9348 C   0  0  0  0  0  0  0  0  0  0  0  0
   12.8079  -17.0778   20.7223 S   0  0  0  0  0  0  0  0  0  0  0  0
   13.3826  -16.3746   23.5733 C   0  0  0  0  0  0  0  0  0  0  0  0
   14.3899  -16.6831   22.8646 O   0  0  0  0  0  0  0  0  0  0  0  0
   13.5105  -15.4873   24.6321 O   0  0  0  0  0  0  0  0  0  0  0  0
  2  1  1  0
  3  2  1  0
  3 12  1  0
  4  3  2  0
  6  5  1  0
  6  7  2  0
  8  7  1  0
  9  8  2  0
 10  9  1  0
 11 10  1  1
 11 12  1  0
 13 11  1  0
 13 17  1  0
 14 13  2  0
 15 16  2  0
 15  9  1  0
 16  6  1  0
 17 18  1  0
 18 21  1  0
 19 20  1  0
 18 19  1  6
 21 22  2  0
 21 23  1  0
M  END
$$$$
