GYC.pdb
     RDKit          3D

 23 23  0  0  1  0  0  0  0  0999 V2000
    5.5100  -19.6683   21.0827 N   0  0  0  0  0  0  0  0  0  0  0  0
    5.1520  -18.5329   21.9157 C   0  0  0  0  0  0  0  0  0  0  0  0
    6.3836  -17.8279   22.4097 C   0  0  0  0  0  0  0  0  0  0  0  0
    7.4801  -18.3816   22.2587 O   0  0  0  0  0  0  0  0  0  0  0  0
    8.3189  -12.9403   17.9897 O   0  0  0  0  0  0  0  0  0  0  0  0
    8.0666  -13.2861   19.3206 C   0  0  0  0  0  0  0  0  0  0  0  0
    6.8422  -13.7894   19.7109 C   0  0  0  0  0  0  0  0  0  0  0  0
    6.6030  -14.1279   21.0284 C   0  0  0  0  0  0  0  0  0  0  0  0
    7.5665  -13.9800   22.0032 C   0  0  0  0  0  0  0  0  0  0  0  0
    7.3209  -14.3424   23.4322 C   0  0  0  0  0  0  0  0  0  0  0  0
    7.3736  -15.8206   23.5979 C   0  0  2  0  0  0  0  0  0  0  0  0
    6.2956  -16.5575   23.0348 N   0  0  0  0  0  0  0  0  0  0  0  0
    7.6785  -16.2622   24.9958 C   0  0  0  0  0  0  0  0  0  0  0  0
    6.7765  -16.1650   25.8514 O   0  0  0  0  0  0  0  0  0  0  0  0
    8.7853  -13.4772   21.6057 C   0  0  0  0  0  0  0  0  0  0  0  0
    9.0344  -13.1356   20.2902 C   0  0  0  0  0  0  0  0  0  0  0  0
    8.9602  -16.7750   25.3262 N   0  0  0  0  0  0  0  0  0  0  0  0
    9.1296  -17.4773   26.5633 C   0  0  1  0  0  0  0  0  0  0  0  0
    8.4009  -18.8055   26.5814 C   0  0  0  0  0  0  0  0  0  0  0  0
    6.7543  -18.5137   27.2840 S   0  0  0  0  0  0  0  0  0  0  0  0
   10.5671  -17.7790   26.7823 C   0  0  0  0  0  0  0  0  0  0  0  0
   11.4497  -17.4327   25.9378 O   0  0  0  0  0  0  0  0  0  0  0  0
   10.9257  -18.4534   27.9405 O   0  0  0  0  0  0  0  0  0  0  0  0
  2  1  1  0
  3  2  1  0
  3 12  1  0
  4  3  2  0
  6  5  1  0
  6  7  2  0
  8  7  1  0
  9  8  2  0
 10  9  1  0
 11 10  1  1
 11 12  1  0
 13 11  1  0
 13 17  1  0
 14 13  2  0
 15 16  2  0
 15  9  1  0
 16  6  1  0
 17 18  1  0
 18 21  1  0
 19 20  1  0
 18 19  1  6
 21 22  2  0
 21 23  1  0
M  END
$$$$
