GYC.pdb
     RDKit          3D

 23 23  0  0  1  0  0  0  0  0999 V2000
    9.6892  -19.3998   21.2959 N   0  0  0  0  0  0  0  0  0  0  0  0
    9.0049  -18.7402   22.3948 C   0  0  0  0  0  0  0  0  0  0  0  0
    9.5456  -17.3535   22.6008 C   0  0  0  0  0  0  0  0  0  0  0  0
   10.5221  -16.9960   21.9297 O   0  0  0  0  0  0  0  0  0  0  0  0
    6.6788  -13.7195   18.2052 O   0  0  0  0  0  0  0  0  0  0  0  0
    7.0719  -13.8151   19.5435 C   0  0  0  0  0  0  0  0  0  0  0  0
    6.3973  -14.6270   20.4327 C   0  0  0  0  0  0  0  0  0  0  0  0
    6.7937  -14.7144   21.7529 C   0  0  0  0  0  0  0  0  0  0  0  0
    7.8700  -14.0019   22.2372 C   0  0  0  0  0  0  0  0  0  0  0  0
    8.3094  -14.0873   23.6631 C   0  0  0  0  0  0  0  0  0  0  0  0
    9.3563  -15.1349   23.8105 C   0  0  2  0  0  0  0  0  0  0  0  0
    8.9534  -16.4719   23.5413 N   0  0  0  0  0  0  0  0  0  0  0  0
   10.1367  -15.0354   25.0845 C   0  0  0  0  0  0  0  0  0  0  0  0
   10.7561  -13.9772   25.3117 O   0  0  0  0  0  0  0  0  0  0  0  0
    8.5376  -13.1943   21.3438 C   0  0  0  0  0  0  0  0  0  0  0  0
    8.1489  -13.1000   20.0211 C   0  0  0  0  0  0  0  0  0  0  0  0
   10.1636  -16.1201   25.9998 N   0  0  0  0  0  0  0  0  0  0  0  0
   10.4593  -15.8596   27.3771 C   0  0  1  0  0  0  0  0  0  0  0  0
    9.4339  -14.9555   28.0301 C   0  0  0  0  0  0  0  0  0  0  0  0
   10.3047  -13.4731   28.6084 S   0  0  0  0  0  0  0  0  0  0  0  0
   10.4552  -17.1302   28.1457 C   0  0  0  0  0  0  0  0  0  0  0  0
   10.8769  -17.1784   29.3424 O   0  0  0  0  0  0  0  0  0  0  0  0
    9.9760  -18.2723   27.5205 O   0  0  0  0  0  0  0  0  0  0  0  0
  2  1  1  0
  3  2  1  0
  3 12  1  0
  4  3  2  0
  6  5  1  0
  6  7  2  0
  8  7  1  0
  9  8  2  0
 10  9  1  0
 11 10  1  1
 11 12  1  0
 13 11  1  0
 13 17  1  0
 14 13  2  0
 15 16  2  0
 15  9  1  0
 16  6  1  0
 17 18  1  0
 18 21  1  0
 19 20  1  0
 18 19  1  1
 21 22  2  0
 21 23  1  0
M  END
$$$$
