GYC.pdb
     RDKit          3D

 23 23  0  0  1  0  0  0  0  0999 V2000
   15.0568  -24.4273   27.1631 N   0  0  0  0  0  0  0  0  0  0  0  0
   15.0072  -23.0286   26.7732 C   0  0  0  0  0  0  0  0  0  0  0  0
   13.6506  -22.4470   27.0547 C   0  0  0  0  0  0  0  0  0  0  0  0
   12.7172  -23.2213   27.3019 O   0  0  0  0  0  0  0  0  0  0  0  0
   14.3648  -21.2667   33.1266 O   0  0  0  0  0  0  0  0  0  0  0  0
   13.8137  -20.7912   31.9330 C   0  0  0  0  0  0  0  0  0  0  0  0
   12.4619  -20.8960   31.6755 C   0  0  0  0  0  0  0  0  0  0  0  0
   11.9273  -20.4231   30.4931 C   0  0  0  0  0  0  0  0  0  0  0  0
   12.7118  -19.8309   29.5264 C   0  0  0  0  0  0  0  0  0  0  0  0
   12.1463  -19.3150   28.2428 C   0  0  0  0  0  0  0  0  0  0  0  0
   12.1949  -20.3781   27.2022 C   0  0  2  0  0  0  0  0  0  0  0  0
   13.4406  -21.0442   27.0384 N   0  0  0  0  0  0  0  0  0  0  0  0
   11.6081  -19.9655   25.8880 C   0  0  0  0  0  0  0  0  0  0  0  0
   10.3720  -19.8164   25.8185 O   0  0  0  0  0  0  0  0  0  0  0  0
   14.0595  -19.7301   29.7908 C   0  0  0  0  0  0  0  0  0  0  0  0
   14.6039  -20.2002   30.9707 C   0  0  0  0  0  0  0  0  0  0  0  0
   12.4439  -19.7530   24.7604 N   0  0  0  0  0  0  0  0  0  0  0  0
   11.8481  -19.3599   23.5183 C   0  0  1  0  0  0  0  0  0  0  0  0
   11.2543  -17.9672   23.5742 C   0  0  0  0  0  0  0  0  0  0  0  0
   10.6325  -17.5735   21.9163 S   0  0  0  0  0  0  0  0  0  0  0  0
   12.8760  -19.3402   22.4467 C   0  0  0  0  0  0  0  0  0  0  0  0
   14.1070  -19.5047   22.7107 O   0  0  0  0  0  0  0  0  0  0  0  0
   12.4563  -19.1361   21.1402 O   0  0  0  0  0  0  0  0  0  0  0  0
  2  1  1  0
  3  2  1  0
  3 12  1  0
  4  3  2  0
  6  5  1  0
  6  7  2  0
  8  7  1  0
  9  8  2  0
 10  9  1  0
 11 10  1  1
 11 12  1  0
 13 11  1  0
 13 17  1  0
 14 13  2  0
 15 16  2  0
 15  9  1  0
 16  6  1  0
 17 18  1  0
 18 21  1  0
 19 20  1  0
 18 19  1  1
 21 22  2  0
 21 23  1  0
M  END
$$$$
