GYC.pdb
     RDKit          3D

 23 23  0  0  1  0  0  0  0  0999 V2000
   -2.3335  -21.7384   25.0413 N   0  0  0  0  0  0  0  0  0  0  0  0
   -2.8249  -22.7284   25.9844 C   0  0  0  0  0  0  0  0  0  0  0  0
   -4.3112  -22.5986   26.1639 C   0  0  0  0  0  0  0  0  0  0  0  0
   -4.8444  -21.5140   25.8976 O   0  0  0  0  0  0  0  0  0  0  0  0
   -6.1254  -22.8286   20.4900 O   0  0  0  0  0  0  0  0  0  0  0  0
   -6.4113  -23.2412   21.7948 C   0  0  0  0  0  0  0  0  0  0  0  0
   -7.4521  -22.6855   22.5107 C   0  0  0  0  0  0  0  0  0  0  0  0
   -7.7264  -23.1002   23.7993 C   0  0  0  0  0  0  0  0  0  0  0  0
   -6.9804  -24.0779   24.4224 C   0  0  0  0  0  0  0  0  0  0  0  0
   -7.2663  -24.5358   25.8160 C   0  0  0  0  0  0  0  0  0  0  0  0
   -6.5008  -23.7101   26.7895 C   0  0  2  0  0  0  0  0  0  0  0  0
   -5.0881  -23.6913   26.6273 N   0  0  0  0  0  0  0  0  0  0  0  0
   -6.8935  -23.9376   28.2163 C   0  0  0  0  0  0  0  0  0  0  0  0
   -6.3010  -24.8318   28.8523 O   0  0  0  0  0  0  0  0  0  0  0  0
   -5.9437  -24.6273   23.7015 C   0  0  0  0  0  0  0  0  0  0  0  0
   -5.6614  -24.2192   22.4118 C   0  0  0  0  0  0  0  0  0  0  0  0
   -7.9119  -23.1524   28.8175 N   0  0  0  0  0  0  0  0  0  0  0  0
   -8.2123  -23.3481   30.2045 C   0  0  1  0  0  0  0  0  0  0  0  0
   -8.9201  -22.1578   30.8188 C   0  0  0  0  0  0  0  0  0  0  0  0
   -7.7753  -20.7521   30.7571 S   0  0  0  0  0  0  0  0  0  0  0  0
   -9.1202  -24.5119   30.3674 C   0  0  0  0  0  0  0  0  0  0  0  0
   -9.8565  -24.9124   29.4136 O   0  0  0  0  0  0  0  0  0  0  0  0
   -9.1450  -25.1564   31.5958 O   0  0  0  0  0  0  0  0  0  0  0  0
  2  1  1  0
  3  2  1  0
  3 12  1  0
  4  3  2  0
  6  5  1  0
  6  7  2  0
  8  7  1  0
  9  8  2  0
 10  9  1  0
 11 10  1  6
 11 12  1  0
 13 11  1  0
 13 17  1  0
 14 13  2  0
 15 16  2  0
 15  9  1  0
 16  6  1  0
 17 18  1  0
 18 21  1  0
 19 20  1  0
 18 19  1  6
 21 22  2  0
 21 23  1  0
M  END
$$$$
