GYC.pdb
     RDKit          3D

 23 23  0  0  1  0  0  0  0  0999 V2000
    7.5827  -19.2076   19.8493 N   0  0  0  0  0  0  0  0  0  0  0  0
    6.8493  -18.4861   20.8752 C   0  0  0  0  0  0  0  0  0  0  0  0
    7.7551  -17.5351   21.6054 C   0  0  0  0  0  0  0  0  0  0  0  0
    8.9653  -17.7906   21.6497 O   0  0  0  0  0  0  0  0  0  0  0  0
    8.1891  -12.7076   17.2496 O   0  0  0  0  0  0  0  0  0  0  0  0
    8.0677  -13.0223   18.6063 C   0  0  0  0  0  0  0  0  0  0  0  0
    9.1618  -13.0036   19.4474 C   0  0  0  0  0  0  0  0  0  0  0  0
    9.0312  -13.3162   20.7864 C   0  0  0  0  0  0  0  0  0  0  0  0
    7.8146  -13.6575   21.3377 C   0  0  0  0  0  0  0  0  0  0  0  0
    7.6594  -13.9978   22.7847 C   0  0  0  0  0  0  0  0  0  0  0  0
    7.9774  -15.4349   23.0058 C   0  0  2  0  0  0  0  0  0  0  0  0
    7.2390  -16.3710   22.2306 N   0  0  0  0  0  0  0  0  0  0  0  0
    8.0300  -15.8277   24.4497 C   0  0  0  0  0  0  0  0  0  0  0  0
    7.0536  -15.5426   25.1710 O   0  0  0  0  0  0  0  0  0  0  0  0
    6.7280  -13.6738   20.4920 C   0  0  0  0  0  0  0  0  0  0  0  0
    6.8483  -13.3627   19.1510 C   0  0  0  0  0  0  0  0  0  0  0  0
    9.1633  -16.5047   24.9715 N   0  0  0  0  0  0  0  0  0  0  0  0
    9.0438  -17.2005   26.2182 C   0  0  1  0  0  0  0  0  0  0  0  0
    8.1120  -18.3919   26.1311 C   0  0  0  0  0  0  0  0  0  0  0  0
    6.4502  -17.8171   26.5764 S   0  0  0  0  0  0  0  0  0  0  0  0
   10.3685  -17.7274   26.6338 C   0  0  0  0  0  0  0  0  0  0  0  0
   11.3861  -17.6205   25.8819 O   0  0  0  0  0  0  0  0  0  0  0  0
   10.4688  -18.3439   27.8726 O   0  0  0  0  0  0  0  0  0  0  0  0
  2  1  1  0
  3  2  1  0
  3 12  1  0
  4  3  2  0
  6  5  1  0
  6  7  2  0
  8  7  1  0
  9  8  2  0
 10  9  1  0
 11 10  1  1
 11 12  1  0
 13 11  1  0
 13 17  1  0
 14 13  2  0
 15 16  2  0
 15  9  1  0
 16  6  1  0
 17 18  1  0
 18 21  1  0
 19 20  1  0
 18 19  1  6
 21 22  2  0
 21 23  1  0
M  END
$$$$
