GYC.pdb
     RDKit          3D

 23 23  0  0  1  0  0  0  0  0999 V2000
    5.0963  -19.2875   21.6812 N   0  0  0  0  0  0  0  0  0  0  0  0
    6.3489  -18.5893   21.9146 C   0  0  0  0  0  0  0  0  0  0  0  0
    6.3464  -17.9320   23.2659 C   0  0  0  0  0  0  0  0  0  0  0  0
    5.2777  -17.8648   23.8865 O   0  0  0  0  0  0  0  0  0  0  0  0
    7.3595  -22.3426   27.9155 O   0  0  0  0  0  0  0  0  0  0  0  0
    7.6774  -21.0628   27.4513 C   0  0  0  0  0  0  0  0  0  0  0  0
    7.0687  -19.9392   27.9727 C   0  0  0  0  0  0  0  0  0  0  0  0
    7.3899  -18.6791   27.5071 C   0  0  0  0  0  0  0  0  0  0  0  0
    8.3234  -18.4887   26.5106 C   0  0  0  0  0  0  0  0  0  0  0  0
    8.6802  -17.1310   25.9978 C   0  0  0  0  0  0  0  0  0  0  0  0
    7.6474  -16.6646   25.0328 C   0  0  2  0  0  0  0  0  0  0  0  0
    7.5387  -17.4000   23.8205 N   0  0  0  0  0  0  0  0  0  0  0  0
    7.6722  -15.1879   24.7869 C   0  0  0  0  0  0  0  0  0  0  0  0
    8.4460  -14.7520   23.9114 O   0  0  0  0  0  0  0  0  0  0  0  0
    8.9261  -19.6146   25.9957 C   0  0  0  0  0  0  0  0  0  0  0  0
    8.6117  -20.8795   26.4548 C   0  0  0  0  0  0  0  0  0  0  0  0
    6.8350  -14.3186   25.5342 N   0  0  0  0  0  0  0  0  0  0  0  0
    7.1496  -12.9218   25.5814 C   0  0  1  0  0  0  0  0  0  0  0  0
    5.9233  -12.0571   25.7903 C   0  0  0  0  0  0  0  0  0  0  0  0
    5.0380  -12.7073   27.2337 S   0  0  0  0  0  0  0  0  0  0  0  0
    8.0622  -12.6458   26.7200 C   0  0  0  0  0  0  0  0  0  0  0  0
    8.5883  -11.5015   26.8810 O   0  0  0  0  0  0  0  0  0  0  0  0
    8.3284  -13.6758   27.6105 O   0  0  0  0  0  0  0  0  0  0  0  0
  2  1  1  0
  3  2  1  0
  3 12  1  0
  4  3  2  0
  6  5  1  0
  6  7  2  0
  8  7  1  0
  9  8  2  0
 10  9  1  0
 11 10  1  6
 11 12  1  0
 13 11  1  0
 13 17  1  0
 14 13  2  0
 15 16  2  0
 15  9  1  0
 16  6  1  0
 17 18  1  0
 18 21  1  0
 19 20  1  0
 18 19  1  1
 21 22  2  0
 21 23  1  0
M  END
$$$$
