GYC.pdb
     RDKit          3D

 23 23  0  0  1  0  0  0  0  0999 V2000
    7.6438  -19.7795   20.2254 N   0  0  0  0  0  0  0  0  0  0  0  0
    7.1224  -18.7923   21.1553 C   0  0  0  0  0  0  0  0  0  0  0  0
    8.1997  -17.8284   21.5653 C   0  0  0  0  0  0  0  0  0  0  0  0
    9.3656  -18.0688   21.2267 O   0  0  0  0  0  0  0  0  0  0  0  0
    7.1241  -12.6753   17.4448 O   0  0  0  0  0  0  0  0  0  0  0  0
    7.4347  -13.0671   18.7504 C   0  0  0  0  0  0  0  0  0  0  0  0
    8.7169  -12.9517   19.2478 C   0  0  0  0  0  0  0  0  0  0  0  0
    9.0134  -13.3416   20.5392 C   0  0  0  0  0  0  0  0  0  0  0  0
    8.0519  -13.8586   21.3812 C   0  0  0  0  0  0  0  0  0  0  0  0
    8.3592  -14.2843   22.7804 C   0  0  0  0  0  0  0  0  0  0  0  0
    8.8201  -15.6994   22.7915 C   0  0  2  0  0  0  0  0  0  0  0  0
    7.8916  -16.6692   22.3226 N   0  0  0  0  0  0  0  0  0  0  0  0
    9.4578  -16.1179   24.0800 C   0  0  0  0  0  0  0  0  0  0  0  0
    8.8580  -15.8595   25.1423 O   0  0  0  0  0  0  0  0  0  0  0  0
    6.7752  -13.9705   20.8774 C   0  0  0  0  0  0  0  0  0  0  0  0
    6.4685  -13.5832   19.5869 C   0  0  0  0  0  0  0  0  0  0  0  0
   10.7087  -16.7889   24.0806 N   0  0  0  0  0  0  0  0  0  0  0  0
   11.2950  -17.1645   25.3326 C   0  0  1  0  0  0  0  0  0  0  0  0
   11.1668  -18.6480   25.6119 C   0  0  0  0  0  0  0  0  0  0  0  0
    9.4295  -18.9780   26.0156 S   0  0  0  0  0  0  0  0  0  0  0  0
   12.7481  -16.8584   25.3241 C   0  0  0  0  0  0  0  0  0  0  0  0
   13.4713  -17.0642   26.3473 O   0  0  0  0  0  0  0  0  0  0  0  0
   13.3012  -16.3383   24.1629 O   0  0  0  0  0  0  0  0  0  0  0  0
  2  1  1  0
  3  2  1  0
  3 12  1  0
  4  3  2  0
  6  5  1  0
  6  7  2  0
  8  7  1  0
  9  8  2  0
 10  9  1  0
 11 10  1  1
 11 12  1  0
 13 11  1  0
 13 17  1  0
 14 13  2  0
 15 16  2  0
 15  9  1  0
 16  6  1  0
 17 18  1  0
 18 21  1  0
 19 20  1  0
 18 19  1  6
 21 22  2  0
 21 23  1  0
M  END
$$$$
