GYC.pdb
     RDKit          3D

 23 23  0  0  1  0  0  0  0  0999 V2000
    5.0572  -19.1935   21.1343 N   0  0  0  0  0  0  0  0  0  0  0  0
    4.9091  -18.1403   22.1242 C   0  0  0  0  0  0  0  0  0  0  0  0
    6.2466  -17.5570   22.4828 C   0  0  0  0  0  0  0  0  0  0  0  0
    7.2632  -18.2188   22.2367 O   0  0  0  0  0  0  0  0  0  0  0  0
    8.5098  -13.0357   17.8521 O   0  0  0  0  0  0  0  0  0  0  0  0
    8.2905  -13.3189   19.2035 C   0  0  0  0  0  0  0  0  0  0  0  0
    7.0172  -13.3341   19.7356 C   0  0  0  0  0  0  0  0  0  0  0  0
    6.8113  -13.6151   21.0721 C   0  0  0  0  0  0  0  0  0  0  0  0
    7.8576  -13.8903   21.9265 C   0  0  0  0  0  0  0  0  0  0  0  0
    7.6489  -14.1959   23.3744 C   0  0  0  0  0  0  0  0  0  0  0  0
    7.5354  -15.6667   23.5722 C   0  0  2  0  0  0  0  0  0  0  0  0
    6.3460  -16.2785   23.0891 N   0  0  0  0  0  0  0  0  0  0  0  0
    7.8681  -16.1179   24.9606 C   0  0  0  0  0  0  0  0  0  0  0  0
    7.1408  -15.7260   25.8947 O   0  0  0  0  0  0  0  0  0  0  0  0
    9.1249  -13.8732   21.3880 C   0  0  0  0  0  0  0  0  0  0  0  0
    9.3413  -13.5932   20.0522 C   0  0  0  0  0  0  0  0  0  0  0  0
    8.9812  -16.9671   25.1952 N   0  0  0  0  0  0  0  0  0  0  0  0
    9.2283  -17.4367   26.5259 C   0  0  1  0  0  0  0  0  0  0  0  0
    8.6185  -18.7995   26.7833 C   0  0  0  0  0  0  0  0  0  0  0  0
    6.8622  -18.5477   27.1601 S   0  0  0  0  0  0  0  0  0  0  0  0
   10.6895  -17.5764   26.7511 C   0  0  0  0  0  0  0  0  0  0  0  0
   11.5246  -17.3485   25.8221 O   0  0  0  0  0  0  0  0  0  0  0  0
   11.1241  -17.9648   28.0101 O   0  0  0  0  0  0  0  0  0  0  0  0
  2  1  1  0
  3  2  1  0
  3 12  1  0
  4  3  2  0
  6  5  1  0
  6  7  2  0
  8  7  1  0
  9  8  2  0
 10  9  1  0
 11 10  1  1
 11 12  1  0
 13 11  1  0
 13 17  1  0
 14 13  2  0
 15 16  2  0
 15  9  1  0
 16  6  1  0
 17 18  1  0
 18 21  1  0
 19 20  1  0
 18 19  1  6
 21 22  2  0
 21 23  1  0
M  END
$$$$
