GYC.pdb
     RDKit          3D

 23 23  0  0  1  0  0  0  0  0999 V2000
    5.3543  -19.3774   22.5087 N   0  0  0  0  0  0  0  0  0  0  0  0
    5.3836  -18.1346   23.2608 C   0  0  0  0  0  0  0  0  0  0  0  0
    6.6965  -17.4293   23.0693 C   0  0  0  0  0  0  0  0  0  0  0  0
    7.6252  -18.0478   22.5338 O   0  0  0  0  0  0  0  0  0  0  0  0
    7.6572  -12.9748   17.5502 O   0  0  0  0  0  0  0  0  0  0  0  0
    7.7214  -13.1982   18.9289 C   0  0  0  0  0  0  0  0  0  0  0  0
    6.5774  -13.3698   19.6815 C   0  0  0  0  0  0  0  0  0  0  0  0
    6.6516  -13.5899   21.0430 C   0  0  0  0  0  0  0  0  0  0  0  0
    7.8595  -13.6475   21.7050 C   0  0  0  0  0  0  0  0  0  0  0  0
    7.9540  -13.8850   23.1775 C   0  0  0  0  0  0  0  0  0  0  0  0
    8.0828  -15.3425   23.4501 C   0  0  2  0  0  0  0  0  0  0  0  0
    6.8713  -16.0862   23.4911 N   0  0  0  0  0  0  0  0  0  0  0  0
    8.9724  -15.6647   24.6105 C   0  0  0  0  0  0  0  0  0  0  0  0
    8.6252  -15.2726   25.7423 O   0  0  0  0  0  0  0  0  0  0  0  0
    8.9962  -13.4753   20.9471 C   0  0  0  0  0  0  0  0  0  0  0  0
    8.9324  -13.2546   19.5845 C   0  0  0  0  0  0  0  0  0  0  0  0
   10.1735  -16.3960   24.4166 N   0  0  0  0  0  0  0  0  0  0  0  0
   10.9737  -16.7324   25.5563 C   0  0  1  0  0  0  0  0  0  0  0  0
   10.5953  -18.0709   26.1567 C   0  0  0  0  0  0  0  0  0  0  0  0
    9.2189  -17.7841   27.3027 S   0  0  0  0  0  0  0  0  0  0  0  0
   12.4017  -16.8330   25.1614 C   0  0  0  0  0  0  0  0  0  0  0  0
   12.7535  -16.7866   23.9422 O   0  0  0  0  0  0  0  0  0  0  0  0
   13.3497  -16.9800   26.1636 O   0  0  0  0  0  0  0  0  0  0  0  0
  2  1  1  0
  3  2  1  0
  3 12  1  0
  4  3  2  0
  6  5  1  0
  6  7  2  0
  8  7  1  0
  9  8  2  0
 10  9  1  0
 11 10  1  1
 11 12  1  0
 13 11  1  0
 13 17  1  0
 14 13  2  0
 15 16  2  0
 15  9  1  0
 16  6  1  0
 17 18  1  0
 18 21  1  0
 19 20  1  0
 18 19  1  6
 21 22  2  0
 21 23  1  0
M  END
$$$$
