GYC.pdb
     RDKit          3D

 23 23  0  0  1  0  0  0  0  0999 V2000
   11.7218  -17.4047   19.8218 N   0  0  0  0  0  0  0  0  0  0  0  0
   11.0597  -17.8459   21.0375 C   0  0  0  0  0  0  0  0  0  0  0  0
   10.9147  -16.7066   22.0064 C   0  0  0  0  0  0  0  0  0  0  0  0
   11.7506  -15.7945   21.9729 O   0  0  0  0  0  0  0  0  0  0  0  0
    6.9461  -13.1857   18.5890 O   0  0  0  0  0  0  0  0  0  0  0  0
    7.2560  -13.6406   19.8741 C   0  0  0  0  0  0  0  0  0  0  0  0
    8.1581  -12.9693   20.6742 C   0  0  0  0  0  0  0  0  0  0  0  0
    8.4574  -13.4269   21.9426 C   0  0  0  0  0  0  0  0  0  0  0  0
    7.8745  -14.5635   22.4614 C   0  0  0  0  0  0  0  0  0  0  0  0
    8.1893  -15.0695   23.8320 C   0  0  0  0  0  0  0  0  0  0  0  0
    9.5682  -15.6289   23.8629 C   0  0  2  0  0  0  0  0  0  0  0  0
    9.8462  -16.6735   22.9389 N   0  0  0  0  0  0  0  0  0  0  0  0
   10.0560  -15.9598   25.2393 C   0  0  0  0  0  0  0  0  0  0  0  0
   10.3223  -17.1506   25.4966 O   0  0  0  0  0  0  0  0  0  0  0  0
    6.9755  -15.2275   21.6569 C   0  0  0  0  0  0  0  0  0  0  0  0
    6.6695  -14.7776   20.3867 C   0  0  0  0  0  0  0  0  0  0  0  0
   10.2074  -14.9399   26.2149 N   0  0  0  0  0  0  0  0  0  0  0  0
   10.7233  -15.2847   27.5061 C   0  0  1  0  0  0  0  0  0  0  0  0
   10.7799  -14.0970   28.4449 C   0  0  0  0  0  0  0  0  0  0  0  0
    9.2084  -13.2046   28.2894 S   0  0  0  0  0  0  0  0  0  0  0  0
    9.8442  -16.2933   28.1505 C   0  0  0  0  0  0  0  0  0  0  0  0
    8.7353  -16.6293   27.6314 O   0  0  0  0  0  0  0  0  0  0  0  0
   10.2664  -16.8642   29.3425 O   0  0  0  0  0  0  0  0  0  0  0  0
  2  1  1  0
  3  2  1  0
  3 12  1  0
  4  3  2  0
  6  5  1  0
  6  7  2  0
  8  7  1  0
  9  8  2  0
 10  9  1  0
 11 10  1  1
 11 12  1  0
 13 11  1  0
 13 17  1  0
 14 13  2  0
 15 16  2  0
 15  9  1  0
 16  6  1  0
 17 18  1  0
 18 21  1  0
 19 20  1  0
 18 19  1  1
 21 22  2  0
 21 23  1  0
M  END
$$$$
