GYC.pdb
     RDKit          3D

 23 23  0  0  1  0  0  0  0  0999 V2000
    5.8117  -19.4314   20.4111 N   0  0  0  0  0  0  0  0  0  0  0  0
    5.3639  -18.4551   21.3895 C   0  0  0  0  0  0  0  0  0  0  0  0
    6.5339  -17.8678   22.1271 C   0  0  0  0  0  0  0  0  0  0  0  0
    7.6395  -18.4106   22.0060 O   0  0  0  0  0  0  0  0  0  0  0  0
    8.3416  -12.5976   18.4875 O   0  0  0  0  0  0  0  0  0  0  0  0
    8.1177  -13.0896   19.7768 C   0  0  0  0  0  0  0  0  0  0  0  0
    9.1504  -13.2234   20.6826 C   0  0  0  0  0  0  0  0  0  0  0  0
    8.9187  -13.7105   21.9541 C   0  0  0  0  0  0  0  0  0  0  0  0
    7.6582  -14.0815   22.3717 C   0  0  0  0  0  0  0  0  0  0  0  0
    7.3937  -14.6100   23.7444 C   0  0  0  0  0  0  0  0  0  0  0  0
    7.3929  -16.0982   23.7246 C   0  0  2  0  0  0  0  0  0  0  0  0
    6.3789  -16.7184   22.9439 N   0  0  0  0  0  0  0  0  0  0  0  0
    7.5091  -16.7214   25.0811 C   0  0  0  0  0  0  0  0  0  0  0  0
    6.5499  -16.5962   25.8681 O   0  0  0  0  0  0  0  0  0  0  0  0
    6.6334  -13.9451   21.4621 C   0  0  0  0  0  0  0  0  0  0  0  0
    6.8550  -13.4587   20.1878 C   0  0  0  0  0  0  0  0  0  0  0  0
    8.6815  -17.4318   25.4499 N   0  0  0  0  0  0  0  0  0  0  0  0
    8.7379  -18.0587   26.7368 C   0  0  1  0  0  0  0  0  0  0  0  0
    9.0563  -19.5372   26.6489 C   0  0  0  0  0  0  0  0  0  0  0  0
   10.2209  -19.7628   25.2766 S   0  0  0  0  0  0  0  0  0  0  0  0
    9.8124  -17.4412   27.5549 C   0  0  0  0  0  0  0  0  0  0  0  0
   10.5806  -16.5528   27.0724 O   0  0  0  0  0  0  0  0  0  0  0  0
    9.9583  -17.8612   28.8691 O   0  0  0  0  0  0  0  0  0  0  0  0
  2  1  1  0
  3  2  1  0
  3 12  1  0
  4  3  2  0
  6  5  1  0
  6  7  2  0
  8  7  1  0
  9  8  2  0
 10  9  1  0
 11 10  1  1
 11 12  1  0
 13 11  1  0
 13 17  1  0
 14 13  2  0
 15 16  2  0
 15  9  1  0
 16  6  1  0
 17 18  1  0
 18 21  1  0
 19 20  1  0
 18 19  1  6
 21 22  2  0
 21 23  1  0
M  END
$$$$
