GYC.pdb
     RDKit          3D

 23 23  0  0  1  0  0  0  0  0999 V2000
    9.5938  -17.1658   18.5573 N   0  0  0  0  0  0  0  0  0  0  0  0
    8.3715  -16.8386   19.2713 C   0  0  0  0  0  0  0  0  0  0  0  0
    8.6838  -16.1573   20.5737 C   0  0  0  0  0  0  0  0  0  0  0  0
    9.8348  -16.2404   21.0210 O   0  0  0  0  0  0  0  0  0  0  0  0
    7.5091  -12.4845   28.4813 O   0  0  0  0  0  0  0  0  0  0  0  0
    7.3332  -12.8325   27.1387 C   0  0  0  0  0  0  0  0  0  0  0  0
    8.0756  -12.2356   26.1400 C   0  0  0  0  0  0  0  0  0  0  0  0
    7.8941  -12.5866   24.8166 C   0  0  0  0  0  0  0  0  0  0  0  0
    6.9726  -13.5392   24.4371 C   0  0  0  0  0  0  0  0  0  0  0  0
    6.7663  -13.9283   23.0089 C   0  0  0  0  0  0  0  0  0  0  0  0
    7.7894  -14.9297   22.6021 C   0  0  2  0  0  0  0  0  0  0  0  0
    7.6857  -15.4350   21.2768 N   0  0  0  0  0  0  0  0  0  0  0  0
    7.9931  -16.0265   23.6008 C   0  0  0  0  0  0  0  0  0  0  0  0
    7.0972  -16.8860   23.7189 O   0  0  0  0  0  0  0  0  0  0  0  0
    6.2359  -14.1299   25.4393 C   0  0  0  0  0  0  0  0  0  0  0  0
    6.4101  -13.7857   26.7663 C   0  0  0  0  0  0  0  0  0  0  0  0
    9.1754  -16.0769   24.3848 N   0  0  0  0  0  0  0  0  0  0  0  0
    9.3838  -17.1947   25.2564 C   0  0  1  0  0  0  0  0  0  0  0  0
   10.4702  -18.1253   24.7574 C   0  0  0  0  0  0  0  0  0  0  0  0
   11.6185  -17.1367   23.7604 S   0  0  0  0  0  0  0  0  0  0  0  0
    9.8143  -16.7197   26.5959 C   0  0  0  0  0  0  0  0  0  0  0  0
   10.0917  -15.4984   26.8048 O   0  0  0  0  0  0  0  0  0  0  0  0
    9.9069  -17.6492   27.6218 O   0  0  0  0  0  0  0  0  0  0  0  0
  2  1  1  0
  3  2  1  0
  3 12  1  0
  4  3  2  0
  6  5  1  0
  6  7  2  0
  8  7  1  0
  9  8  2  0
 10  9  1  0
 11 10  1  1
 11 12  1  0
 13 11  1  0
 13 17  1  0
 14 13  2  0
 15 16  2  0
 15  9  1  0
 16  6  1  0
 17 18  1  0
 18 21  1  0
 19 20  1  0
 18 19  1  6
 21 22  2  0
 21 23  1  0
M  END
$$$$
