GYC.pdb
     RDKit          3D

 23 23  0  0  1  0  0  0  0  0999 V2000
    8.0733  -20.6402   22.8881 N   0  0  0  0  0  0  0  0  0  0  0  0
    7.5911  -19.4453   23.5595 C   0  0  0  0  0  0  0  0  0  0  0  0
    8.4320  -18.2550   23.1934 C   0  0  0  0  0  0  0  0  0  0  0  0
    9.4251  -18.4331   22.4767 O   0  0  0  0  0  0  0  0  0  0  0  0
    5.8345  -11.9455   27.5301 O   0  0  0  0  0  0  0  0  0  0  0  0
    6.3782  -12.5840   26.4115 C   0  0  0  0  0  0  0  0  0  0  0  0
    7.2719  -11.9385   25.5812 C   0  0  0  0  0  0  0  0  0  0  0  0
    7.8033  -12.5782   24.4785 C   0  0  0  0  0  0  0  0  0  0  0  0
    7.4685  -13.8772   24.1605 C   0  0  0  0  0  0  0  0  0  0  0  0
    8.0362  -14.5810   22.9706 C   0  0  0  0  0  0  0  0  0  0  0  0
    8.8294  -15.7617   23.4090 C   0  0  2  0  0  0  0  0  0  0  0  0
    8.0986  -16.9563   23.6564 N   0  0  0  0  0  0  0  0  0  0  0  0
    9.7980  -15.4643   24.5113 C   0  0  0  0  0  0  0  0  0  0  0  0
   10.6298  -14.5528   24.3311 O   0  0  0  0  0  0  0  0  0  0  0  0
    6.5763  -14.5142   24.9938 C   0  0  0  0  0  0  0  0  0  0  0  0
    6.0391  -13.8829   26.0994 C   0  0  0  0  0  0  0  0  0  0  0  0
    9.7615  -16.2045   25.7220 N   0  0  0  0  0  0  0  0  0  0  0  0
   10.5025  -15.7265   26.8511 C   0  0  1  0  0  0  0  0  0  0  0  0
    9.9081  -14.4654   27.4441 C   0  0  0  0  0  0  0  0  0  0  0  0
   10.9020  -14.0256   28.8963 S   0  0  0  0  0  0  0  0  0  0  0  0
   10.4965  -16.7465   27.9303 C   0  0  0  0  0  0  0  0  0  0  0  0
    9.7082  -17.7412   27.8930 O   0  0  0  0  0  0  0  0  0  0  0  0
   11.3793  -16.5858   28.9884 O   0  0  0  0  0  0  0  0  0  0  0  0
  2  1  1  0
  3  2  1  0
  3 12  1  0
  4  3  2  0
  6  5  1  0
  6  7  2  0
  8  7  1  0
  9  8  2  0
 10  9  1  0
 11 10  1  1
 11 12  1  0
 13 11  1  0
 13 17  1  0
 14 13  2  0
 15 16  2  0
 15  9  1  0
 16  6  1  0
 17 18  1  0
 18 21  1  0
 19 20  1  0
 18 19  1  1
 21 22  2  0
 21 23  1  0
M  END
$$$$
