GYC.pdb
     RDKit          3D

 23 23  0  0  1  0  0  0  0  0999 V2000
    8.6633  -19.9359   20.2134 N   0  0  0  0  0  0  0  0  0  0  0  0
    8.0666  -19.0016   21.1526 C   0  0  0  0  0  0  0  0  0  0  0  0
    9.0205  -17.8843   21.4682 C   0  0  0  0  0  0  0  0  0  0  0  0
   10.1551  -17.9212   20.9751 O   0  0  0  0  0  0  0  0  0  0  0  0
    6.9079  -12.8131   17.6957 O   0  0  0  0  0  0  0  0  0  0  0  0
    7.3681  -13.2045   18.9565 C   0  0  0  0  0  0  0  0  0  0  0  0
    6.5159  -13.7568   19.8911 C   0  0  0  0  0  0  0  0  0  0  0  0
    6.9806  -14.1403   21.1340 C   0  0  0  0  0  0  0  0  0  0  0  0
    8.3030  -13.9903   21.4935 C   0  0  0  0  0  0  0  0  0  0  0  0
    8.8188  -14.4010   22.8347 C   0  0  0  0  0  0  0  0  0  0  0  0
    9.4629  -15.7397   22.7434 C   0  0  2  0  0  0  0  0  0  0  0  0
    8.6335  -16.8108   22.3109 N   0  0  0  0  0  0  0  0  0  0  0  0
   10.2629  -16.1100   23.9537 C   0  0  0  0  0  0  0  0  0  0  0  0
    9.6677  -16.1969   25.0461 O   0  0  0  0  0  0  0  0  0  0  0  0
    9.1467  -13.4386   20.5554 C   0  0  0  0  0  0  0  0  0  0  0  0
    8.6916  -13.0518   19.3094 C   0  0  0  0  0  0  0  0  0  0  0  0
   11.6576  -16.3530   23.8492 N   0  0  0  0  0  0  0  0  0  0  0  0
   12.3479  -16.9292   24.9645 C   0  0  1  0  0  0  0  0  0  0  0  0
   11.8200  -18.3020   25.3278 C   0  0  0  0  0  0  0  0  0  0  0  0
   12.0584  -18.5222   27.1124 S   0  0  0  0  0  0  0  0  0  0  0  0
   13.7861  -17.1006   24.6370 C   0  0  0  0  0  0  0  0  0  0  0  0
   14.2113  -16.9733   23.4474 O   0  0  0  0  0  0  0  0  0  0  0  0
   14.6612  -17.4055   25.6696 O   0  0  0  0  0  0  0  0  0  0  0  0
  2  1  1  0
  3  2  1  0
  3 12  1  0
  4  3  2  0
  6  5  1  0
  6  7  2  0
  8  7  1  0
  9  8  2  0
 10  9  1  0
 11 10  1  1
 11 12  1  0
 13 11  1  0
 13 17  1  0
 14 13  2  0
 15 16  2  0
 15  9  1  0
 16  6  1  0
 17 18  1  0
 18 21  1  0
 19 20  1  0
 18 19  1  6
 21 22  2  0
 21 23  1  0
M  END
$$$$
