IEP.pdb
     RDKit          3D

 25 25  0  0  1  0  0  0  0  0999 V2000
    8.0917  -12.4015   18.2881 C   0  0  0  0  0  0  0  0  0  0  0  0
    8.1059  -13.8579   18.6991 C   0  0  0  0  0  0  0  0  0  0  0  0
    7.6570  -13.9787   20.1298 C   0  0  2  0  0  0  0  0  0  0  0  0
    8.5714  -13.1761   21.0305 C   0  0  0  0  0  0  0  0  0  0  0  0
    7.6659  -15.4010   20.6291 C   0  0  2  0  0  0  0  0  0  0  0  0
    6.7924  -16.2151   19.7916 N   0  0  0  0  0  0  0  0  0  0  0  0
    7.2502  -15.5454   22.0198 C   0  0  0  0  0  0  0  0  0  0  0  0
    6.0864  -15.2217   22.3619 O   0  0  0  0  0  0  0  0  0  0  0  0
    8.0853  -16.0454   23.0751 N   0  0  0  0  0  0  0  0  0  0  0  0
    7.6785  -16.0432   24.4517 C   0  0  1  0  0  0  0  0  0  0  0  0
    7.6935  -17.4982   24.9187 C   0  0  0  0  0  0  0  0  0  0  0  0
    6.6212  -18.2840   24.1850 C   0  0  0  0  0  0  0  0  0  0  0  0
    6.6266  -19.6679   24.7516 C   0  0  0  0  0  0  0  0  0  0  0  0
    7.0653  -20.6565   24.1082 O   0  0  0  0  0  0  0  0  0  0  0  0
    8.4682  -15.2658   25.3910 C   0  0  0  0  0  0  0  0  0  0  0  0
    9.7312  -15.2663   25.1023 O   0  0  0  0  0  0  0  0  0  0  0  0
    6.1398  -19.9099   26.0265 O   0  0  0  0  0  0  0  0  0  0  0  0
    8.0931  -14.5412   26.5210 N   0  0  0  0  0  0  0  0  0  0  0  0
    6.8534  -14.3106   27.2058 C   0  0  0  0  0  0  0  0  0  0  0  0
    6.8447  -12.7795   27.3285 C   0  0  0  0  0  0  0  0  0  0  0  0
    8.2801  -12.5332   27.7660 C   0  0  0  0  0  0  0  0  0  0  0  0
    9.0580  -13.7594   27.3356 C   0  0  1  0  0  0  0  0  0  0  0  0
    9.4621  -14.6049   28.4698 C   0  0  0  0  0  0  0  0  0  0  0  0
    8.9117  -15.6978   28.6874 O   0  0  0  0  0  0  0  0  0  0  0  0
   10.4912  -14.1835   29.3365 O   0  0  0  0  0  0  0  0  0  0  0  0
  2  3  1  0
  2  1  1  0
  3  5  1  0
  3  4  1  1
  5  7  1  0
  5  6  1  6
  7  8  2  0
  9 10  1  0
  9  7  1  0
 10 11  1  1
 11 12  1  0
 13 12  1  0
 13 17  1  0
 14 13  2  0
 15 18  1  0
 15 10  1  0
 16 15  2  0
 18 19  1  0
 20 19  1  0
 21 20  1  0
 22 21  1  0
 22 18  1  0
 22 23  1  1
 24 23  2  0
 25 23  1  0
M  END
$$$$
