IEP.pdb
     RDKit          3D

 25 25  0  0  1  0  0  0  0  0999 V2000
    6.3275  -10.8327   28.6166 C   0  0  0  0  0  0  0  0  0  0  0  0
    6.1591  -12.2181   28.0311 C   0  0  0  0  0  0  0  0  0  0  0  0
    6.6286  -12.2180   26.6019 C   0  0  2  0  0  0  0  0  0  0  0  0
    5.7809  -11.2733   25.7768 C   0  0  0  0  0  0  0  0  0  0  0  0
    6.5465  -13.5782   25.9576 C   0  0  2  0  0  0  0  0  0  0  0  0
    6.9431  -14.5974   26.9224 N   0  0  0  0  0  0  0  0  0  0  0  0
    7.3687  -13.7199   24.7610 C   0  0  0  0  0  0  0  0  0  0  0  0
    7.4310  -12.7811   23.9298 O   0  0  0  0  0  0  0  0  0  0  0  0
    8.1451  -14.8828   24.4356 N   0  0  0  0  0  0  0  0  0  0  0  0
    8.9462  -14.9716   23.2477 C   0  0  1  0  0  0  0  0  0  0  0  0
    9.9635  -16.0873   23.4837 C   0  0  0  0  0  0  0  0  0  0  0  0
   10.9611  -16.1229   22.3396 C   0  0  0  0  0  0  0  0  0  0  0  0
   11.9795  -17.1645   22.6780 C   0  0  0  0  0  0  0  0  0  0  0  0
   12.0327  -17.7101   23.8107 O   0  0  0  0  0  0  0  0  0  0  0  0
    8.2689  -15.2446   21.9919 C   0  0  0  0  0  0  0  0  0  0  0  0
    7.3676  -16.1688   22.1011 O   0  0  0  0  0  0  0  0  0  0  0  0
   12.9138  -17.5690   21.7376 O   0  0  0  0  0  0  0  0  0  0  0  0
    8.4312  -14.6865   20.7252 N   0  0  0  0  0  0  0  0  0  0  0  0
    9.3261  -13.7200   20.1558 C   0  0  0  0  0  0  0  0  0  0  0  0
    8.3480  -12.7565   19.4673 C   0  0  0  0  0  0  0  0  0  0  0  0
    7.4086  -13.7508   18.8027 C   0  0  0  0  0  0  0  0  0  0  0  0
    7.5729  -15.0474   19.5680 C   0  0  1  0  0  0  0  0  0  0  0  0
    8.2854  -16.0779   18.7968 C   0  0  0  0  0  0  0  0  0  0  0  0
    9.4952  -16.2979   18.9785 O   0  0  0  0  0  0  0  0  0  0  0  0
    7.5992  -16.8400   17.8293 O   0  0  0  0  0  0  0  0  0  0  0  0
  2  3  1  0
  2  1  1  0
  3  5  1  0
  3  4  1  6
  5  7  1  0
  5  6  1  1
  7  8  2  0
  9 10  1  0
  9  7  1  0
 10 11  1  1
 11 12  1  0
 13 12  1  0
 13 17  1  0
 14 13  2  0
 15 18  1  0
 15 10  1  0
 16 15  2  0
 18 19  1  0
 20 19  1  0
 21 20  1  0
 22 21  1  0
 22 18  1  0
 22 23  1  6
 24 23  2  0
 25 23  1  0
M  END
$$$$
