IEP.pdb
     RDKit          3D

 25 25  0  0  1  0  0  0  0  0999 V2000
    7.8270  -12.0743   18.4726 C   0  0  0  0  0  0  0  0  0  0  0  0
    7.8425  -13.5518   18.8001 C   0  0  0  0  0  0  0  0  0  0  0  0
    7.4321  -13.7511   20.2335 C   0  0  2  0  0  0  0  0  0  0  0  0
    8.4262  -13.0793   21.1566 C   0  0  0  0  0  0  0  0  0  0  0  0
    7.3616  -15.2046   20.6266 C   0  0  2  0  0  0  0  0  0  0  0  0
    6.3849  -15.8882   19.7864 N   0  0  0  0  0  0  0  0  0  0  0  0
    7.0131  -15.4259   22.0257 C   0  0  0  0  0  0  0  0  0  0  0  0
    5.8730  -15.1081   22.4444 O   0  0  0  0  0  0  0  0  0  0  0  0
    7.8916  -15.9982   23.0064 N   0  0  0  0  0  0  0  0  0  0  0  0
    7.5616  -16.0554   24.4023 C   0  0  1  0  0  0  0  0  0  0  0  0
    7.6574  -17.5226   24.8188 C   0  0  0  0  0  0  0  0  0  0  0  0
    7.2609  -17.6693   26.2771 C   0  0  0  0  0  0  0  0  0  0  0  0
    7.3847  -19.1193   26.6216 C   0  0  0  0  0  0  0  0  0  0  0  0
    6.7872  -20.0178   25.9740 O   0  0  0  0  0  0  0  0  0  0  0  0
    8.3720  -15.2772   25.3231 C   0  0  0  0  0  0  0  0  0  0  0  0
    9.6344  -15.3174   25.0344 O   0  0  0  0  0  0  0  0  0  0  0  0
    8.1757  -19.5267   27.6842 O   0  0  0  0  0  0  0  0  0  0  0  0
    8.0168  -14.5170   26.4360 N   0  0  0  0  0  0  0  0  0  0  0  0
    6.8149  -14.3506   27.2020 C   0  0  0  0  0  0  0  0  0  0  0  0
    6.6766  -12.8212   27.2375 C   0  0  0  0  0  0  0  0  0  0  0  0
    8.1121  -12.4250   27.5459 C   0  0  0  0  0  0  0  0  0  0  0  0
    8.9641  -13.6048   27.1262 C   0  0  1  0  0  0  0  0  0  0  0  0
    9.5253  -14.3384   28.2715 C   0  0  0  0  0  0  0  0  0  0  0  0
    9.1246  -15.4774   28.5664 O   0  0  0  0  0  0  0  0  0  0  0  0
   10.5371  -13.7541   29.0603 O   0  0  0  0  0  0  0  0  0  0  0  0
  2  3  1  0
  2  1  1  0
  3  5  1  0
  3  4  1  1
  5  7  1  0
  5  6  1  6
  7  8  2  0
  9 10  1  0
  9  7  1  0
 10 11  1  1
 11 12  1  0
 13 12  1  0
 13 17  1  0
 14 13  2  0
 15 18  1  0
 15 10  1  0
 16 15  2  0
 18 19  1  0
 20 19  1  0
 21 20  1  0
 22 21  1  0
 22 18  1  0
 22 23  1  1
 24 23  2  0
 25 23  1  0
M  END
$$$$
