IEP.pdb
     RDKit          3D

 25 25  0  0  1  0  0  0  0  0999 V2000
    5.7420  -10.9151   27.6639 C   0  0  0  0  0  0  0  0  0  0  0  0
    6.1002  -12.3849   27.6236 C   0  0  0  0  0  0  0  0  0  0  0  0
    6.8646  -12.6794   26.3619 C   0  0  2  0  0  0  0  0  0  0  0  0
    5.9968  -12.4041   25.1526 C   0  0  0  0  0  0  0  0  0  0  0  0
    7.3205  -14.1135   26.2737 C   0  0  2  0  0  0  0  0  0  0  0  0
    7.9266  -14.5093   27.5398 N   0  0  0  0  0  0  0  0  0  0  0  0
    8.2718  -14.3698   25.1980 C   0  0  0  0  0  0  0  0  0  0  0  0
    9.3696  -13.7611   25.1753 O   0  0  0  0  0  0  0  0  0  0  0  0
    8.0577  -15.2934   24.1200 N   0  0  0  0  0  0  0  0  0  0  0  0
    8.8396  -15.2735   22.9163 C   0  0  1  0  0  0  0  0  0  0  0  0
    9.7049  -16.5331   22.9311 C   0  0  0  0  0  0  0  0  0  0  0  0
   10.8902  -16.3308   23.8582 C   0  0  0  0  0  0  0  0  0  0  0  0
   12.0681  -16.9899   23.2142 C   0  0  0  0  0  0  0  0  0  0  0  0
   12.4445  -18.1492   23.5273 O   0  0  0  0  0  0  0  0  0  0  0  0
    8.1317  -15.2343   21.6484 C   0  0  0  0  0  0  0  0  0  0  0  0
    7.0284  -15.9131   21.6709 O   0  0  0  0  0  0  0  0  0  0  0  0
   12.7956  -16.3328   22.2345 O   0  0  0  0  0  0  0  0  0  0  0  0
    8.4429  -14.6011   20.4464 N   0  0  0  0  0  0  0  0  0  0  0  0
    9.5461  -13.8118   19.9782 C   0  0  0  0  0  0  0  0  0  0  0  0
    8.8276  -12.5846   19.3977 C   0  0  0  0  0  0  0  0  0  0  0  0
    7.7003  -13.2640   18.6359 C   0  0  0  0  0  0  0  0  0  0  0  0
    7.5490  -14.6353   19.2609 C   0  0  1  0  0  0  0  0  0  0  0  0
    8.0236  -15.7168   18.3835 C   0  0  0  0  0  0  0  0  0  0  0  0
    9.1416  -16.2350   18.5460 O   0  0  0  0  0  0  0  0  0  0  0  0
    7.2084  -16.1869   17.3337 O   0  0  0  0  0  0  0  0  0  0  0  0
  2  3  1  0
  2  1  1  0
  3  5  1  0
  3  4  1  6
  5  7  1  0
  5  6  1  1
  7  8  2  0
  9 10  1  0
  9  7  1  0
 10 11  1  6
 11 12  1  0
 13 12  1  0
 13 17  1  0
 14 13  2  0
 15 18  1  0
 15 10  1  0
 16 15  2  0
 18 19  1  0
 20 19  1  0
 21 20  1  0
 22 21  1  0
 22 18  1  0
 22 23  1  6
 24 23  2  0
 25 23  1  0
M  END
$$$$
