IEP.pdb
     RDKit          3D

 25 25  0  0  1  0  0  0  0  0999 V2000
    7.1191  -10.7172   27.0132 C   0  0  0  0  0  0  0  0  0  0  0  0
    7.6491  -12.1305   27.1219 C   0  0  0  0  0  0  0  0  0  0  0  0
    6.6480  -13.0872   26.5340 C   0  0  2  0  0  0  0  0  0  0  0  0
    5.4378  -13.1925   27.4372 C   0  0  0  0  0  0  0  0  0  0  0  0
    7.2008  -14.4782   26.3556 C   0  0  2  0  0  0  0  0  0  0  0  0
    7.8616  -14.8997   27.5856 N   0  0  0  0  0  0  0  0  0  0  0  0
    8.1431  -14.6061   25.2495 C   0  0  0  0  0  0  0  0  0  0  0  0
    9.3598  -14.3557   25.4317 O   0  0  0  0  0  0  0  0  0  0  0  0
    7.7905  -15.0096   23.9176 N   0  0  0  0  0  0  0  0  0  0  0  0
    8.7343  -15.0199   22.8361 C   0  0  1  0  0  0  0  0  0  0  0  0
    9.7076  -16.1657   23.1104 C   0  0  0  0  0  0  0  0  0  0  0  0
   10.9942  -15.6162   23.7008 C   0  0  0  0  0  0  0  0  0  0  0  0
   12.1020  -16.5139   23.2500 C   0  0  0  0  0  0  0  0  0  0  0  0
   12.9646  -16.1480   22.4099 O   0  0  0  0  0  0  0  0  0  0  0  0
    8.2191  -15.1862   21.4880 C   0  0  0  0  0  0  0  0  0  0  0  0
    7.3636  -16.1548   21.3960 O   0  0  0  0  0  0  0  0  0  0  0  0
   12.2158  -17.8006   23.7523 O   0  0  0  0  0  0  0  0  0  0  0  0
    8.4922  -14.4894   20.3122 N   0  0  0  0  0  0  0  0  0  0  0  0
    9.4368  -13.4769   19.9359 C   0  0  0  0  0  0  0  0  0  0  0  0
    8.5256  -12.4274   19.2820 C   0  0  0  0  0  0  0  0  0  0  0  0
    7.6428  -13.3261   18.4301 C   0  0  0  0  0  0  0  0  0  0  0  0
    7.7352  -14.7038   19.0525 C   0  0  1  0  0  0  0  0  0  0  0  0
    8.5071  -15.6495   18.2313 C   0  0  0  0  0  0  0  0  0  0  0  0
    9.6854  -15.9314   18.5086 O   0  0  0  0  0  0  0  0  0  0  0  0
    7.9153  -16.2568   17.1050 O   0  0  0  0  0  0  0  0  0  0  0  0
  2  3  1  0
  2  1  1  0
  3  5  1  0
  3  4  1  1
  5  7  1  0
  5  6  1  1
  7  8  2  0
  9 10  1  0
  9  7  1  0
 10 11  1  1
 11 12  1  0
 13 12  1  0
 13 17  1  0
 14 13  2  0
 15 18  1  0
 15 10  1  0
 16 15  2  0
 18 19  1  0
 20 19  1  0
 21 20  1  0
 22 21  1  0
 22 18  1  0
 22 23  1  6
 24 23  2  0
 25 23  1  0
M  END
$$$$
