IEP.pdb
     RDKit          3D

 25 25  0  0  1  0  0  0  0  0999 V2000
    8.0973  -12.4094   18.7290 C   0  0  0  0  0  0  0  0  0  0  0  0
    8.1501  -13.8699   19.1222 C   0  0  0  0  0  0  0  0  0  0  0  0
    7.7779  -14.0115   20.5728 C   0  0  2  0  0  0  0  0  0  0  0  0
    8.7928  -13.2993   21.4413 C   0  0  0  0  0  0  0  0  0  0  0  0
    7.7237  -15.4478   21.0268 C   0  0  2  0  0  0  0  0  0  0  0  0
    6.7738  -16.1831   20.1997 N   0  0  0  0  0  0  0  0  0  0  0  0
    7.3532  -15.6150   22.4278 C   0  0  0  0  0  0  0  0  0  0  0  0
    6.1979  -15.3066   22.8106 O   0  0  0  0  0  0  0  0  0  0  0  0
    8.2254  -16.1216   23.4493 N   0  0  0  0  0  0  0  0  0  0  0  0
    7.9542  -15.9596   24.8496 C   0  0  1  0  0  0  0  0  0  0  0  0
    7.1684  -17.1933   25.2926 C   0  0  0  0  0  0  0  0  0  0  0  0
    7.9089  -18.4511   24.8743 C   0  0  0  0  0  0  0  0  0  0  0  0
    7.3113  -19.5874   25.6412 C   0  0  0  0  0  0  0  0  0  0  0  0
    7.7663  -20.7586   25.5719 O   0  0  0  0  0  0  0  0  0  0  0  0
    9.0867  -15.8071   25.7465 C   0  0  0  0  0  0  0  0  0  0  0  0
   10.1977  -16.2198   25.2231 O   0  0  0  0  0  0  0  0  0  0  0  0
    6.2177  -19.3826   26.4676 O   0  0  0  0  0  0  0  0  0  0  0  0
    9.1647  -15.3025   27.0434 N   0  0  0  0  0  0  0  0  0  0  0  0
    8.2038  -14.8624   28.0140 C   0  0  0  0  0  0  0  0  0  0  0  0
    8.7672  -13.4896   28.4108 C   0  0  0  0  0  0  0  0  0  0  0  0
   10.2413  -13.8328   28.5594 C   0  0  0  0  0  0  0  0  0  0  0  0
   10.4528  -15.0979   27.7538 C   0  0  1  0  0  0  0  0  0  0  0  0
   10.6812  -16.2802   28.5992 C   0  0  0  0  0  0  0  0  0  0  0  0
    9.8101  -17.1570   28.7301 O   0  0  0  0  0  0  0  0  0  0  0  0
   11.9051  -16.4381   29.2809 O   0  0  0  0  0  0  0  0  0  0  0  0
  2  3  1  0
  2  1  1  0
  3  5  1  0
  3  4  1  1
  5  7  1  0
  5  6  1  6
  7  8  2  0
  9 10  1  0
  9  7  1  0
 10 11  1  1
 11 12  1  0
 13 12  1  0
 13 17  1  0
 14 13  2  0
 15 18  1  0
 15 10  1  0
 16 15  2  0
 18 19  1  0
 20 19  1  0
 21 20  1  0
 22 21  1  0
 22 18  1  0
 22 23  1  1
 24 23  2  0
 25 23  1  0
M  END
$$$$
