IEP.pdb
     RDKit          3D

 25 25  0  0  1  0  0  0  0  0999 V2000
    8.1362  -11.8736   19.7970 C   0  0  0  0  0  0  0  0  0  0  0  0
    7.3946  -13.1388   20.1707 C   0  0  0  0  0  0  0  0  0  0  0  0
    8.3344  -14.3109   20.0949 C   0  0  2  0  0  0  0  0  0  0  0  0
    8.8184  -14.4974   18.6727 C   0  0  0  0  0  0  0  0  0  0  0  0
    7.6940  -15.6051   20.5274 C   0  0  2  0  0  0  0  0  0  0  0  0
    6.5412  -15.8839   19.6787 N   0  0  0  0  0  0  0  0  0  0  0  0
    7.2644  -15.6191   21.9213 C   0  0  0  0  0  0  0  0  0  0  0  0
    6.1728  -15.0903   22.2451 O   0  0  0  0  0  0  0  0  0  0  0  0
    8.0071  -16.2076   22.9998 N   0  0  0  0  0  0  0  0  0  0  0  0
    7.5651  -16.1536   24.3645 C   0  0  1  0  0  0  0  0  0  0  0  0
    7.6005  -17.5857   24.8970 C   0  0  0  0  0  0  0  0  0  0  0  0
    7.2129  -17.5973   26.3650 C   0  0  0  0  0  0  0  0  0  0  0  0
    7.2769  -19.0190   26.8243 C   0  0  0  0  0  0  0  0  0  0  0  0
    6.2446  -19.6844   27.0984 O   0  0  0  0  0  0  0  0  0  0  0  0
    8.3129  -15.3168   25.2869 C   0  0  0  0  0  0  0  0  0  0  0  0
    9.5921  -15.3750   25.0896 O   0  0  0  0  0  0  0  0  0  0  0  0
    8.4975  -19.6603   26.9651 O   0  0  0  0  0  0  0  0  0  0  0  0
    7.8846  -14.4862   26.3209 N   0  0  0  0  0  0  0  0  0  0  0  0
    6.6106  -14.1771   26.9045 C   0  0  0  0  0  0  0  0  0  0  0  0
    6.6231  -12.6412   26.8860 C   0  0  0  0  0  0  0  0  0  0  0  0
    8.0343  -12.3743   27.3862 C   0  0  0  0  0  0  0  0  0  0  0  0
    8.8134  -13.6451   27.1181 C   0  0  1  0  0  0  0  0  0  0  0  0
    9.1332  -14.3874   28.3475 C   0  0  0  0  0  0  0  0  0  0  0  0
    8.5514  -15.4489   28.6294 O   0  0  0  0  0  0  0  0  0  0  0  0
   10.1154  -13.9005   29.2340 O   0  0  0  0  0  0  0  0  0  0  0  0
  2  3  1  0
  2  1  1  0
  3  5  1  0
  3  4  1  6
  5  7  1  0
  5  6  1  6
  7  8  2  0
  9 10  1  0
  9  7  1  0
 10 11  1  1
 11 12  1  0
 13 12  1  0
 13 17  1  0
 14 13  2  0
 15 18  1  0
 15 10  1  0
 16 15  2  0
 18 19  1  0
 20 19  1  0
 21 20  1  0
 22 21  1  0
 22 18  1  0
 22 23  1  1
 24 23  2  0
 25 23  1  0
M  END
$$$$
