IEP.pdb
     RDKit          3D

 25 25  0  0  1  0  0  0  0  0999 V2000
    6.1151  -11.1099   27.9821 C   0  0  0  0  0  0  0  0  0  0  0  0
    6.0139  -12.5510   27.5312 C   0  0  0  0  0  0  0  0  0  0  0  0
    7.0933  -12.8371   26.5231 C   0  0  2  0  0  0  0  0  0  0  0  0
    6.8952  -11.9783   25.2923 C   0  0  0  0  0  0  0  0  0  0  0  0
    7.1086  -14.2754   26.0725 C   0  0  2  0  0  0  0  0  0  0  0  0
    7.0937  -15.1501   27.2395 N   0  0  0  0  0  0  0  0  0  0  0  0
    8.2535  -14.6251   25.2390 C   0  0  0  0  0  0  0  0  0  0  0  0
    9.3721  -14.0997   25.4599 O   0  0  0  0  0  0  0  0  0  0  0  0
    8.2150  -15.5542   24.1452 N   0  0  0  0  0  0  0  0  0  0  0  0
    9.0284  -15.4034   22.9720 C   0  0  1  0  0  0  0  0  0  0  0  0
   10.0481  -16.5414   22.9925 C   0  0  0  0  0  0  0  0  0  0  0  0
   10.9760  -16.4209   21.7967 C   0  0  0  0  0  0  0  0  0  0  0  0
   11.9103  -17.5875   21.8472 C   0  0  0  0  0  0  0  0  0  0  0  0
   11.8649  -18.4462   22.7661 O   0  0  0  0  0  0  0  0  0  0  0  0
    8.3649  -15.4230   21.6798 C   0  0  0  0  0  0  0  0  0  0  0  0
    7.4400  -16.3272   21.6067 O   0  0  0  0  0  0  0  0  0  0  0  0
   12.8731  -17.7630   20.8659 O   0  0  0  0  0  0  0  0  0  0  0  0
    8.5608  -14.6461   20.5393 N   0  0  0  0  0  0  0  0  0  0  0  0
    9.4271  -13.5537   20.1995 C   0  0  0  0  0  0  0  0  0  0  0  0
    8.4323  -12.5331   19.6268 C   0  0  0  0  0  0  0  0  0  0  0  0
    7.5880  -13.4405   18.7456 C   0  0  0  0  0  0  0  0  0  0  0  0
    7.7865  -14.8410   19.2870 C   0  0  1  0  0  0  0  0  0  0  0  0
    8.5966  -15.6867   18.3964 C   0  0  0  0  0  0  0  0  0  0  0  0
    8.1265  -16.1490   17.3428 O   0  0  0  0  0  0  0  0  0  0  0  0
    9.9332  -15.9886   18.7282 O   0  0  0  0  0  0  0  0  0  0  0  0
  2  3  1  0
  2  1  1  0
  3  5  1  0
  3  4  1  6
  5  7  1  0
  5  6  1  1
  7  8  2  0
  9 10  1  0
  9  7  1  0
 10 11  1  6
 11 12  1  0
 13 12  1  0
 13 17  1  0
 14 13  2  0
 15 18  1  0
 15 10  1  0
 16 15  2  0
 18 19  1  0
 20 19  1  0
 21 20  1  0
 22 21  1  0
 22 18  1  0
 22 23  1  6
 24 23  2  0
 25 23  1  0
M  END
$$$$
