IEP.pdb
     RDKit          3D

 25 25  0  0  1  0  0  0  0  0999 V2000
    5.8949  -11.0049   27.6754 C   0  0  0  0  0  0  0  0  0  0  0  0
    5.8527  -12.4752   27.3193 C   0  0  0  0  0  0  0  0  0  0  0  0
    6.9520  -12.7849   26.3403 C   0  0  2  0  0  0  0  0  0  0  0  0
    6.8209  -11.9039   25.1163 C   0  0  0  0  0  0  0  0  0  0  0  0
    6.9324  -14.2170   25.8702 C   0  0  2  0  0  0  0  0  0  0  0  0
    6.8273  -15.1049   27.0224 N   0  0  0  0  0  0  0  0  0  0  0  0
    8.1013  -14.6016   25.0869 C   0  0  0  0  0  0  0  0  0  0  0  0
    9.2304  -14.1360   25.3777 O   0  0  0  0  0  0  0  0  0  0  0  0
    8.0760  -15.5016   23.9687 N   0  0  0  0  0  0  0  0  0  0  0  0
    8.8740  -15.2985   22.7928 C   0  0  1  0  0  0  0  0  0  0  0  0
    9.8295  -16.4873   22.6969 C   0  0  0  0  0  0  0  0  0  0  0  0
   10.7334  -16.5191   23.9165 C   0  0  0  0  0  0  0  0  0  0  0  0
   11.6371  -17.7006   23.7619 C   0  0  0  0  0  0  0  0  0  0  0  0
   11.6887  -18.3734   22.6997 O   0  0  0  0  0  0  0  0  0  0  0  0
    8.1860  -15.1762   21.5193 C   0  0  0  0  0  0  0  0  0  0  0  0
    7.1288  -15.9218   21.4488 O   0  0  0  0  0  0  0  0  0  0  0  0
   12.4614  -18.0989   24.8024 O   0  0  0  0  0  0  0  0  0  0  0  0
    8.4753  -14.4067   20.3937 N   0  0  0  0  0  0  0  0  0  0  0  0
    9.4611  -13.4131   20.0773 C   0  0  0  0  0  0  0  0  0  0  0  0
    8.5911  -12.2771   19.5186 C   0  0  0  0  0  0  0  0  0  0  0  0
    7.6556  -13.0683   18.6177 C   0  0  0  0  0  0  0  0  0  0  0  0
    7.6919  -14.4915   19.1348 C   0  0  1  0  0  0  0  0  0  0  0  0
    8.4074  -15.4074   18.2327 C   0  0  0  0  0  0  0  0  0  0  0  0
    7.9028  -15.7804   17.1598 O   0  0  0  0  0  0  0  0  0  0  0  0
    9.6903  -15.8811   18.5754 O   0  0  0  0  0  0  0  0  0  0  0  0
  2  3  1  0
  2  1  1  0
  3  5  1  0
  3  4  1  6
  5  7  1  0
  5  6  1  1
  7  8  2  0
  9 10  1  0
  9  7  1  0
 10 11  1  6
 11 12  1  0
 13 12  1  0
 13 17  1  0
 14 13  2  0
 15 18  1  0
 15 10  1  0
 16 15  2  0
 18 19  1  0
 20 19  1  0
 21 20  1  0
 22 21  1  0
 22 18  1  0
 22 23  1  6
 24 23  2  0
 25 23  1  0
M  END
$$$$
