IEP.pdb
     RDKit          3D

 25 25  0  0  1  0  0  0  0  0999 V2000
    7.8643  -11.8386   19.6518 C   0  0  0  0  0  0  0  0  0  0  0  0
    7.2382  -13.1831   19.9532 C   0  0  0  0  0  0  0  0  0  0  0  0
    8.2994  -14.2486   19.9185 C   0  0  2  0  0  0  0  0  0  0  0  0
    8.8598  -14.3781   18.5182 C   0  0  0  0  0  0  0  0  0  0  0  0
    7.7824  -15.6048   20.3252 C   0  0  2  0  0  0  0  0  0  0  0  0
    6.6947  -15.9966   19.4360 N   0  0  0  0  0  0  0  0  0  0  0  0
    7.3087  -15.6718   21.7033 C   0  0  0  0  0  0  0  0  0  0  0  0
    6.1450  -15.2935   21.9841 O   0  0  0  0  0  0  0  0  0  0  0  0
    8.0844  -16.1514   22.8120 N   0  0  0  0  0  0  0  0  0  0  0  0
    7.6008  -16.1275   24.1634 C   0  0  1  0  0  0  0  0  0  0  0  0
    7.6584  -17.5652   24.6783 C   0  0  0  0  0  0  0  0  0  0  0  0
    7.2452  -17.6044   26.1388 C   0  0  0  0  0  0  0  0  0  0  0  0
    7.3583  -19.0262   26.5886 C   0  0  0  0  0  0  0  0  0  0  0  0
    6.5983  -19.5175   27.4630 O   0  0  0  0  0  0  0  0  0  0  0  0
    8.2985  -15.2841   25.1184 C   0  0  0  0  0  0  0  0  0  0  0  0
    9.5785  -15.2576   24.9200 O   0  0  0  0  0  0  0  0  0  0  0  0
    8.3214  -19.8627   26.0468 O   0  0  0  0  0  0  0  0  0  0  0  0
    7.8227  -14.5217   26.1838 N   0  0  0  0  0  0  0  0  0  0  0  0
    6.5567  -14.3953   26.8476 C   0  0  0  0  0  0  0  0  0  0  0  0
    6.3515  -12.8731   26.8411 C   0  0  0  0  0  0  0  0  0  0  0  0
    7.7393  -12.4094   27.2555 C   0  0  0  0  0  0  0  0  0  0  0  0
    8.6716  -13.5576   26.9292 C   0  0  1  0  0  0  0  0  0  0  0  0
    9.1688  -14.2468   28.1302 C   0  0  0  0  0  0  0  0  0  0  0  0
    9.9256  -13.6760   28.9341 O   0  0  0  0  0  0  0  0  0  0  0  0
    8.7902  -15.5797   28.3901 O   0  0  0  0  0  0  0  0  0  0  0  0
  2  3  1  0
  2  1  1  0
  3  5  1  0
  3  4  1  6
  5  7  1  0
  5  6  1  6
  7  8  2  0
  9 10  1  0
  9  7  1  0
 10 11  1  1
 11 12  1  0
 13 12  1  0
 13 17  1  0
 14 13  2  0
 15 18  1  0
 15 10  1  0
 16 15  2  0
 18 19  1  0
 20 19  1  0
 21 20  1  0
 22 21  1  0
 22 18  1  0
 22 23  1  1
 24 23  2  0
 25 23  1  0
M  END
$$$$
