IEP.pdb
     RDKit          3D

 25 25  0  0  1  0  0  0  0  0999 V2000
    6.6636  -11.1579   27.1828 C   0  0  0  0  0  0  0  0  0  0  0  0
    5.9665  -12.3795   26.6239 C   0  0  0  0  0  0  0  0  0  0  0  0
    6.9886  -13.3150   26.0382 C   0  0  2  0  0  0  0  0  0  0  0  0
    7.7705  -12.6135   24.9482 C   0  0  0  0  0  0  0  0  0  0  0  0
    6.3734  -14.5493   25.4298 C   0  0  2  0  0  0  0  0  0  0  0  0
    5.5857  -15.2474   26.4394 N   0  0  0  0  0  0  0  0  0  0  0  0
    7.3437  -15.4807   24.8654 C   0  0  0  0  0  0  0  0  0  0  0  0
    8.0337  -16.2029   25.6260 O   0  0  0  0  0  0  0  0  0  0  0  0
    7.5901  -15.6538   23.4617 N   0  0  0  0  0  0  0  0  0  0  0  0
    8.5550  -16.5876   22.9541 C   0  0  1  0  0  0  0  0  0  0  0  0
    8.4597  -16.5361   21.4297 C   0  0  0  0  0  0  0  0  0  0  0  0
    9.4162  -17.5461   20.8211 C   0  0  0  0  0  0  0  0  0  0  0  0
    9.3332  -17.3892   19.3362 C   0  0  0  0  0  0  0  0  0  0  0  0
   10.0602  -16.5798   18.7037 O   0  0  0  0  0  0  0  0  0  0  0  0
    9.9469  -16.3909   23.3202 C   0  0  0  0  0  0  0  0  0  0  0  0
   10.2919  -15.1421   23.3201 O   0  0  0  0  0  0  0  0  0  0  0  0
    8.4367  -18.1440   18.5963 O   0  0  0  0  0  0  0  0  0  0  0  0
   10.9411  -17.3063   23.6608 N   0  0  0  0  0  0  0  0  0  0  0  0
   11.0379  -18.7381   23.6581 C   0  0  0  0  0  0  0  0  0  0  0  0
   11.5512  -19.0190   25.0783 C   0  0  0  0  0  0  0  0  0  0  0  0
   12.6289  -17.9523   25.1943 C   0  0  0  0  0  0  0  0  0  0  0  0
   12.2763  -16.8972   24.1665 C   0  0  1  0  0  0  0  0  0  0  0  0
   13.1973  -16.8891   23.0192 C   0  0  0  0  0  0  0  0  0  0  0  0
   12.9003  -17.4492   21.9502 O   0  0  0  0  0  0  0  0  0  0  0  0
   14.4444  -16.2388   23.1162 O   0  0  0  0  0  0  0  0  0  0  0  0
  2  3  1  0
  2  1  1  0
  3  5  1  0
  3  4  1  6
  5  7  1  0
  5  6  1  1
  7  8  2  0
  9 10  1  0
  9  7  1  0
 10 11  1  6
 11 12  1  0
 13 12  1  0
 13 17  1  0
 14 13  2  0
 15 18  1  0
 15 10  1  0
 16 15  2  0
 18 19  1  0
 20 19  1  0
 21 20  1  0
 22 21  1  0
 22 18  1  0
 22 23  1  6
 24 23  2  0
 25 23  1  0
M  END
$$$$
