IEP.pdb
     RDKit          3D

 25 25  0  0  1  0  0  0  0  0999 V2000
    6.3644  -11.6857   28.1317 C   0  0  0  0  0  0  0  0  0  0  0  0
    6.2562  -13.1122   27.6381 C   0  0  0  0  0  0  0  0  0  0  0  0
    7.2645  -13.3417   26.5456 C   0  0  2  0  0  0  0  0  0  0  0  0
    6.9789  -12.4261   25.3744 C   0  0  0  0  0  0  0  0  0  0  0  0
    7.2542  -14.7566   26.0257 C   0  0  2  0  0  0  0  0  0  0  0  0
    7.4414  -15.6834   27.1362 N   0  0  0  0  0  0  0  0  0  0  0  0
    8.2699  -15.0257   25.0140 C   0  0  0  0  0  0  0  0  0  0  0  0
    9.4868  -14.9385   25.3103 O   0  0  0  0  0  0  0  0  0  0  0  0
    7.9923  -15.3971   23.6553 N   0  0  0  0  0  0  0  0  0  0  0  0
    8.8551  -15.0433   22.5640 C   0  0  1  0  0  0  0  0  0  0  0  0
   10.0983  -15.9244   22.6805 C   0  0  0  0  0  0  0  0  0  0  0  0
    9.6886  -17.3853   22.7381 C   0  0  0  0  0  0  0  0  0  0  0  0
   10.9385  -18.1966   22.6115 C   0  0  0  0  0  0  0  0  0  0  0  0
   11.1556  -19.2128   23.3214 O   0  0  0  0  0  0  0  0  0  0  0  0
    8.3346  -15.1836   21.2150 C   0  0  0  0  0  0  0  0  0  0  0  0
    7.4464  -16.1218   21.1173 O   0  0  0  0  0  0  0  0  0  0  0  0
   11.9151  -17.8486   21.6917 O   0  0  0  0  0  0  0  0  0  0  0  0
    8.6314  -14.4895   20.0434 N   0  0  0  0  0  0  0  0  0  0  0  0
    9.5805  -13.4746   19.6852 C   0  0  0  0  0  0  0  0  0  0  0  0
    8.6803  -12.4306   19.0077 C   0  0  0  0  0  0  0  0  0  0  0  0
    7.8202  -13.3352   18.1390 C   0  0  0  0  0  0  0  0  0  0  0  0
    7.9037  -14.7106   18.7677 C   0  0  1  0  0  0  0  0  0  0  0  0
    8.6974  -15.6559   17.9671 C   0  0  0  0  0  0  0  0  0  0  0  0
    8.2564  -16.1314   16.9068 O   0  0  0  0  0  0  0  0  0  0  0  0
    9.9844  -16.0408   18.3951 O   0  0  0  0  0  0  0  0  0  0  0  0
  2  3  1  0
  2  1  1  0
  3  5  1  0
  3  4  1  6
  5  7  1  0
  5  6  1  1
  7  8  2  0
  9 10  1  0
  9  7  1  0
 10 11  1  6
 11 12  1  0
 13 12  1  0
 13 17  1  0
 14 13  2  0
 15 18  1  0
 15 10  1  0
 16 15  2  0
 18 19  1  0
 20 19  1  0
 21 20  1  0
 22 21  1  0
 22 18  1  0
 22 23  1  6
 24 23  2  0
 25 23  1  0
M  END
$$$$
