IEP.pdb
     RDKit          3D

 25 25  0  0  1  0  0  0  0  0999 V2000
    7.9571  -11.7807   19.7684 C   0  0  0  0  0  0  0  0  0  0  0  0
    7.3045  -13.1021   20.1125 C   0  0  0  0  0  0  0  0  0  0  0  0
    8.3275  -14.2020   20.0308 C   0  0  2  0  0  0  0  0  0  0  0  0
    8.8533  -14.3181   18.6161 C   0  0  0  0  0  0  0  0  0  0  0  0
    7.7727  -15.5489   20.4184 C   0  0  2  0  0  0  0  0  0  0  0  0
    6.6664  -15.8918   19.5320 N   0  0  0  0  0  0  0  0  0  0  0  0
    7.3084  -15.6257   21.7991 C   0  0  0  0  0  0  0  0  0  0  0  0
    6.1783  -15.1725   22.1055 O   0  0  0  0  0  0  0  0  0  0  0  0
    8.0571  -16.1966   22.8829 N   0  0  0  0  0  0  0  0  0  0  0  0
    7.6045  -16.1530   24.2445 C   0  0  1  0  0  0  0  0  0  0  0  0
    7.6977  -17.5788   24.7865 C   0  0  0  0  0  0  0  0  0  0  0  0
    7.1865  -17.6191   26.2157 C   0  0  0  0  0  0  0  0  0  0  0  0
    7.3286  -19.0294   26.6926 C   0  0  0  0  0  0  0  0  0  0  0  0
    8.2201  -19.3763   27.5103 O   0  0  0  0  0  0  0  0  0  0  0  0
    8.3099  -15.2792   25.1659 C   0  0  0  0  0  0  0  0  0  0  0  0
    9.5964  -15.3368   25.0234 O   0  0  0  0  0  0  0  0  0  0  0  0
    6.4673  -20.0168   26.2410 O   0  0  0  0  0  0  0  0  0  0  0  0
    7.8357  -14.4145   26.1509 N   0  0  0  0  0  0  0  0  0  0  0  0
    6.5419  -14.1214   26.6979 C   0  0  0  0  0  0  0  0  0  0  0  0
    6.5034  -12.5887   26.6043 C   0  0  0  0  0  0  0  0  0  0  0  0
    7.8957  -12.2497   27.1137 C   0  0  0  0  0  0  0  0  0  0  0  0
    8.7215  -13.5045   26.9209 C   0  0  1  0  0  0  0  0  0  0  0  0
    9.0439  -14.1750   28.1902 C   0  0  0  0  0  0  0  0  0  0  0  0
    9.7970  -13.6460   29.0256 O   0  0  0  0  0  0  0  0  0  0  0  0
    8.4975  -15.4416   28.4813 O   0  0  0  0  0  0  0  0  0  0  0  0
  2  3  1  0
  2  1  1  0
  3  5  1  0
  3  4  1  6
  5  7  1  0
  5  6  1  6
  7  8  2  0
  9 10  1  0
  9  7  1  0
 10 11  1  1
 11 12  1  0
 13 12  1  0
 13 17  1  0
 14 13  2  0
 15 18  1  0
 15 10  1  0
 16 15  2  0
 18 19  1  0
 20 19  1  0
 21 20  1  0
 22 21  1  0
 22 18  1  0
 22 23  1  1
 24 23  2  0
 25 23  1  0
M  END
$$$$
