SRF.pdb
     RDKit          3D

 29 29  0  0  1  0  0  0  0  0999 V2000
   26.2667  -21.7339  -16.7133 O   0  0  0  0  0  0  0  0  0  0  0  0
   26.9665  -22.8375  -16.2082 C   0  0  0  0  0  0  0  0  0  0  0  0
   26.0921  -23.6634  -15.2707 C   0  0  2  0  0  0  0  0  0  0  0  0
   25.3752  -24.6047  -16.0764 N   0  0  0  0  0  0  0  0  0  0  0  0
   25.1452  -22.6949  -14.6142 C   0  0  0  0  0  0  0  0  0  0  0  0
   23.9816  -22.5849  -15.0709 O   0  0  0  0  0  0  0  0  0  0  0  0
   22.5487  -22.3396   -7.3738 N   0  0  0  0  0  0  0  0  0  0  0  0
   23.6560  -21.4706   -7.4745 C   0  0  0  0  0  0  0  0  0  0  0  0
   24.0523  -20.7610   -6.4534 N   0  0  0  0  0  0  0  0  0  0  0  0
   24.3373  -21.3856   -8.7289 N   0  0  0  0  0  0  0  0  0  0  0  0
   24.3407  -22.5519   -9.5763 C   0  0  0  0  0  0  0  0  0  0  0  0
   25.2045  -22.3035  -10.8298 C   0  0  0  0  0  0  0  0  0  0  0  0
   24.8560  -21.0111  -11.4491 C   0  0  0  0  0  0  0  0  0  0  0  0
   24.5904  -20.9551  -12.9016 C   0  0  2  0  0  0  0  0  0  0  0  0
   25.5198  -21.9120  -13.5102 N   0  0  0  0  0  0  0  0  0  0  0  0
   24.6635  -19.6501  -13.5572 C   0  0  0  0  0  0  0  0  0  0  0  0
   23.8424  -18.7073  -13.3965 O   0  0  0  0  0  0  0  0  0  0  0  0
   24.8814  -20.1614   -6.5224 N   0  0  0  0  0  0  0  0  0  0  0  0
   25.7276  -19.3753  -14.4508 C   0  0  1  0  0  0  0  0  0  0  0  0
   25.8492  -18.0841  -15.1306 C   0  0  0  0  0  0  0  0  0  0  0  0
   27.2701  -17.5903  -14.9642 C   0  0  0  0  0  0  0  0  0  0  0  0
   27.5794  -16.3916  -15.7571 C   0  0  0  0  0  0  0  0  0  0  0  0
   27.2494  -15.1138  -15.2912 C   0  0  0  0  0  0  0  0  0  0  0  0
   27.5519  -14.0067  -16.0439 C   0  0  0  0  0  0  0  0  0  0  0  0
   28.1803  -14.1204  -17.2624 C   0  0  0  0  0  0  0  0  0  0  0  0
   28.5197  -15.3754  -17.7501 C   0  0  0  0  0  0  0  0  0  0  0  0
   28.2089  -16.4866  -16.9804 C   0  0  0  0  0  0  0  0  0  0  0  0
   25.3899  -18.1481  -16.5182 O   0  0  0  0  0  0  0  0  0  0  0  0
   25.3439  -19.3162  -17.2761 O   0  0  0  0  0  0  0  0  0  0  0  0
  2  1  1  0
  3  2  1  0
  3  4  1  6
  5  3  1  0
  6  5  2  0
  7  8  1  0
  8  9  2  0
 10 11  1  0
 10  8  1  0
 12 11  1  0
 12 13  1  0
 14 13  1  1
 14 15  1  0
 15  5  1  0
 16 14  1  0
 17 16  2  0
 18 16  1  0
 19 20  1  6
 19 18  1  0
 20 21  1  0
 21 22  2  0
 22 23  1  0
 24 23  2  0
 25 24  1  0
 26 21  1  0
 26 25  2  0
 27 28  1  0
 27 19  1  0
 29 27  2  0
M  END
$$$$
