SRF.pdb
     RDKit          3D

 29 29  0  0  1  0  0  0  0  0999 V2000
   13.7635  -10.7229  -12.4288 O   0  0  0  0  0  0  0  0  0  0  0  0
   14.6711   -9.7761  -12.9213 C   0  0  0  0  0  0  0  0  0  0  0  0
   14.3342   -9.3827  -14.3557 C   0  0  2  0  0  0  0  0  0  0  0  0
   14.3085  -10.5852  -15.1319 N   0  0  0  0  0  0  0  0  0  0  0  0
   15.4438   -8.4758  -14.8162 C   0  0  0  0  0  0  0  0  0  0  0  0
   15.6017   -8.2923  -16.0475 O   0  0  0  0  0  0  0  0  0  0  0  0
   14.4403   -2.8218  -18.4673 N   0  0  0  0  0  0  0  0  0  0  0  0
   14.6291   -4.2116  -18.6230 C   0  0  0  0  0  0  0  0  0  0  0  0
   13.9657   -4.8866  -19.5217 N   0  0  0  0  0  0  0  0  0  0  0  0
   15.5698   -4.8665  -17.7681 N   0  0  0  0  0  0  0  0  0  0  0  0
   16.3377   -4.0523  -16.8594 C   0  0  0  0  0  0  0  0  0  0  0  0
   17.3074   -4.9286  -16.0402 C   0  0  0  0  0  0  0  0  0  0  0  0
   16.5581   -5.8894  -15.2090 C   0  0  0  0  0  0  0  0  0  0  0  0
   17.3021   -6.8569  -14.3761 C   0  0  2  0  0  0  0  0  0  0  0  0
   16.3062   -7.8296  -13.9157 N   0  0  0  0  0  0  0  0  0  0  0  0
   18.0892   -6.3315  -13.2612 C   0  0  0  0  0  0  0  0  0  0  0  0
   17.6474   -6.0981  -12.1040 O   0  0  0  0  0  0  0  0  0  0  0  0
   14.1460   -5.8859  -19.6650 N   0  0  0  0  0  0  0  0  0  0  0  0
   19.4649   -6.0506  -13.4479 C   0  0  2  0  0  0  0  0  0  0  0  0
   20.4244   -6.1308  -12.3448 C   0  0  0  0  0  0  0  0  0  0  0  0
   20.2384   -7.4612  -11.6476 C   0  0  0  0  0  0  0  0  0  0  0  0
   21.1866   -7.6939  -10.5485 C   0  0  0  0  0  0  0  0  0  0  0  0
   22.1791   -8.6757  -10.6479 C   0  0  0  0  0  0  0  0  0  0  0  0
   23.0584   -8.8737   -9.6130 C   0  0  0  0  0  0  0  0  0  0  0  0
   22.9900   -8.1219   -8.4629 C   0  0  0  0  0  0  0  0  0  0  0  0
   22.0158   -7.1407   -8.3360 C   0  0  0  0  0  0  0  0  0  0  0  0
   21.1328   -6.9500   -9.3886 C   0  0  0  0  0  0  0  0  0  0  0  0
   21.7937   -5.8663  -12.7871 O   0  0  0  0  0  0  0  0  0  0  0  0
   22.2742   -6.1499  -14.0636 O   0  0  0  0  0  0  0  0  0  0  0  0
  2  1  1  0
  3  2  1  0
  3  4  1  6
  5  3  1  0
  6  5  2  0
  7  8  1  0
  8  9  2  0
 10 11  1  0
 10  8  1  0
 12 11  1  0
 12 13  1  0
 14 13  1  1
 14 15  1  0
 15  5  1  0
 16 14  1  0
 17 16  2  0
 18 16  1  0
 19 20  1  1
 19 18  1  0
 20 21  1  0
 21 22  2  0
 22 23  1  0
 24 23  2  0
 25 24  1  0
 26 21  1  0
 26 25  2  0
 27 28  1  0
 27 19  1  0
 29 27  2  0
M  END
$$$$
