SRF.pdb
     RDKit          3D

 29 29  0  0  1  0  0  0  0  0999 V2000
   30.0271  -22.7333  -15.5140 O   0  0  0  0  0  0  0  0  0  0  0  0
   29.2507  -21.9949  -14.6114 C   0  0  0  0  0  0  0  0  0  0  0  0
   27.8757  -21.6832  -15.1928 C   0  0  2  0  0  0  0  0  0  0  0  0
   28.0659  -20.7420  -16.2544 N   0  0  0  0  0  0  0  0  0  0  0  0
   27.0743  -21.0705  -14.0756 C   0  0  0  0  0  0  0  0  0  0  0  0
   27.0669  -19.8217  -13.9526 O   0  0  0  0  0  0  0  0  0  0  0  0
   23.4081  -25.2158  -14.4160 N   0  0  0  0  0  0  0  0  0  0  0  0
   22.5311  -24.5432  -15.2935 C   0  0  0  0  0  0  0  0  0  0  0  0
   22.2876  -25.0049  -16.4897 N   0  0  0  0  0  0  0  0  0  0  0  0
   21.9122  -23.3371  -14.8385 N   0  0  0  0  0  0  0  0  0  0  0  0
   22.3059  -22.8196  -13.5518 C   0  0  0  0  0  0  0  0  0  0  0  0
   23.7599  -22.3073  -13.6000 C   0  0  0  0  0  0  0  0  0  0  0  0
   24.1655  -21.7802  -12.2835 C   0  0  0  0  0  0  0  0  0  0  0  0
   25.5262  -21.2294  -12.1146 C   0  0  2  0  0  0  0  0  0  0  0  0
   26.3363  -21.8481  -13.1686 N   0  0  0  0  0  0  0  0  0  0  0  0
   26.1595  -21.3694  -10.8039 C   0  0  0  0  0  0  0  0  0  0  0  0
   27.2813  -21.9029  -10.5905 O   0  0  0  0  0  0  0  0  0  0  0  0
   21.6877  -24.4858  -17.1394 N   0  0  0  0  0  0  0  0  0  0  0  0
   25.4986  -20.8770   -9.6520 C   0  0  1  0  0  0  0  0  0  0  0  0
   26.1199  -20.9256   -8.3271 C   0  0  0  0  0  0  0  0  0  0  0  0
   27.3760  -20.0819   -8.3589 C   0  0  0  0  0  0  0  0  0  0  0  0
   28.0238  -19.9307   -7.0479 C   0  0  0  0  0  0  0  0  0  0  0  0
   29.0401  -20.8028   -6.6409 C   0  0  0  0  0  0  0  0  0  0  0  0
   29.6364  -20.6414   -5.4154 C   0  0  0  0  0  0  0  0  0  0  0  0
   29.2569  -19.6305   -4.5630 C   0  0  0  0  0  0  0  0  0  0  0  0
   28.2514  -18.7502   -4.9400 C   0  0  0  0  0  0  0  0  0  0  0  0
   27.6563  -18.9234   -6.1809 C   0  0  0  0  0  0  0  0  0  0  0  0
   25.1788  -20.5691   -7.2652 O   0  0  0  0  0  0  0  0  0  0  0  0
   25.2276  -21.0797   -5.9699 O   0  0  0  0  0  0  0  0  0  0  0  0
  2  1  1  0
  3  2  1  0
  3  4  1  6
  5  3  1  0
  6  5  2  0
  7  8  1  0
  8  9  2  0
 10 11  1  0
 10  8  1  0
 12 11  1  0
 12 13  1  0
 14 13  1  1
 14 15  1  0
 15  5  1  0
 16 14  1  0
 17 16  2  0
 18 16  1  0
 19 20  1  1
 19 18  1  0
 20 21  1  0
 21 22  2  0
 22 23  1  0
 24 23  2  0
 25 24  1  0
 26 21  1  0
 26 25  2  0
 27 28  1  0
 27 19  1  0
 29 27  2  0
M  END
$$$$
