SRF.pdb
     RDKit          3D

 29 29  0  0  1  0  0  0  0  0999 V2000
   25.5638  -15.5199  -15.2915 O   0  0  0  0  0  0  0  0  0  0  0  0
   26.7252  -16.1578  -14.8368 C   0  0  0  0  0  0  0  0  0  0  0  0
   27.2961  -17.0889  -15.9012 C   0  0  2  0  0  0  0  0  0  0  0  0
   27.5272  -16.3026  -17.0748 N   0  0  0  0  0  0  0  0  0  0  0  0
   26.2420  -18.1321  -16.1586 C   0  0  0  0  0  0  0  0  0  0  0  0
   25.3873  -17.9188  -17.0523 O   0  0  0  0  0  0  0  0  0  0  0  0
   29.4822  -23.0145  -18.3101 N   0  0  0  0  0  0  0  0  0  0  0  0
   28.8772  -23.5256  -17.1421 C   0  0  0  0  0  0  0  0  0  0  0  0
   29.5903  -24.0770  -16.1983 N   0  0  0  0  0  0  0  0  0  0  0  0
   27.4563  -23.4245  -17.0165 N   0  0  0  0  0  0  0  0  0  0  0  0
   26.7173  -22.8767  -18.1265 C   0  0  0  0  0  0  0  0  0  0  0  0
   26.0568  -21.5415  -17.7265 C   0  0  0  0  0  0  0  0  0  0  0  0
   25.8268  -21.4951  -16.2703 C   0  0  0  0  0  0  0  0  0  0  0  0
   25.1354  -20.3274  -15.6857 C   0  0  2  0  0  0  0  0  0  0  0  0
   26.1834  -19.3333  -15.4336 N   0  0  0  0  0  0  0  0  0  0  0  0
   24.3129  -20.5481  -14.4969 C   0  0  0  0  0  0  0  0  0  0  0  0
   24.7383  -20.5682  -13.3105 O   0  0  0  0  0  0  0  0  0  0  0  0
   29.1582  -24.3585  -15.3119 N   0  0  0  0  0  0  0  0  0  0  0  0
   22.9193  -20.7569  -14.6399 C   0  0  1  0  0  0  0  0  0  0  0  0
   22.0583  -21.0282  -13.4871 C   0  0  0  0  0  0  0  0  0  0  0  0
   22.1214  -19.8375  -12.5549 C   0  0  0  0  0  0  0  0  0  0  0  0
   20.8477  -19.5399  -11.8839 C   0  0  0  0  0  0  0  0  0  0  0  0
   20.5650  -20.0531  -10.6128 C   0  0  0  0  0  0  0  0  0  0  0  0
   19.3725  -19.7589  -10.0007 C   0  0  0  0  0  0  0  0  0  0  0  0
   18.4328  -18.9611  -10.6116 C   0  0  0  0  0  0  0  0  0  0  0  0
   18.6857  -18.4379  -11.8727 C   0  0  0  0  0  0  0  0  0  0  0  0
   19.8944  -18.7423  -12.4811 C   0  0  0  0  0  0  0  0  0  0  0  0
   20.7046  -21.4098  -13.8898 O   0  0  0  0  0  0  0  0  0  0  0  0
   20.1484  -21.1289  -15.1358 O   0  0  0  0  0  0  0  0  0  0  0  0
  2  1  1  0
  3  2  1  0
  3  4  1  6
  5  3  1  0
  6  5  2  0
  7  8  1  0
  8  9  2  0
 10 11  1  0
 10  8  1  0
 12 11  1  0
 12 13  1  0
 14 13  1  1
 14 15  1  0
 15  5  1  0
 16 14  1  0
 17 16  2  0
 18 16  1  0
 19 20  1  1
 19 18  1  0
 20 21  1  0
 21 22  2  0
 22 23  1  0
 24 23  2  0
 25 24  1  0
 26 21  1  0
 26 25  2  0
 27 28  1  0
 27 19  1  0
 29 27  2  0
M  END
$$$$
