SRF.pdb
     RDKit          3D

 29 29  0  0  1  0  0  0  0  0999 V2000
   20.9476  -25.6549  -14.6313 O   0  0  0  0  0  0  0  0  0  0  0  0
   22.1052  -26.4431  -14.6679 C   0  0  0  0  0  0  0  0  0  0  0  0
   21.7760  -27.8914  -15.0141 C   0  0  2  0  0  0  0  0  0  0  0  0
   21.0430  -27.8789  -16.2436 N   0  0  0  0  0  0  0  0  0  0  0  0
   20.9202  -28.4100  -13.8897 C   0  0  0  0  0  0  0  0  0  0  0  0
   19.6842  -28.1962  -13.9237 O   0  0  0  0  0  0  0  0  0  0  0  0
   24.8131  -32.9344   -8.0968 N   0  0  0  0  0  0  0  0  0  0  0  0
   25.1661  -32.4144   -9.3603 C   0  0  0  0  0  0  0  0  0  0  0  0
   26.4096  -32.3866   -9.7555 N   0  0  0  0  0  0  0  0  0  0  0  0
   24.1231  -31.9159  -10.2020 N   0  0  0  0  0  0  0  0  0  0  0  0
   22.7607  -32.2189   -9.8410 C   0  0  0  0  0  0  0  0  0  0  0  0
   21.7916  -31.7215  -10.9331 C   0  0  0  0  0  0  0  0  0  0  0  0
   21.5226  -30.2808  -10.7674 C   0  0  0  0  0  0  0  0  0  0  0  0
   20.6093  -29.6039  -11.7113 C   0  0  2  0  0  0  0  0  0  0  0  0
   21.4579  -29.1235  -12.8062 N   0  0  0  0  0  0  0  0  0  0  0  0
   19.7587  -28.5357  -11.1879 C   0  0  0  0  0  0  0  0  0  0  0  0
   20.1715  -27.4822  -10.6323 O   0  0  0  0  0  0  0  0  0  0  0  0
   26.6569  -32.0226  -10.6817 N   0  0  0  0  0  0  0  0  0  0  0  0
   18.3507  -28.6474  -11.2947 C   0  0  1  0  0  0  0  0  0  0  0  0
   17.4540  -27.6114  -10.7786 C   0  0  0  0  0  0  0  0  0  0  0  0
   16.9754  -26.7723  -11.9437 C   0  0  0  0  0  0  0  0  0  0  0  0
   16.0189  -25.7216  -11.5663 C   0  0  0  0  0  0  0  0  0  0  0  0
   16.4582  -24.5031  -11.0360 C   0  0  0  0  0  0  0  0  0  0  0  0
   15.5496  -23.5326  -10.6952 C   0  0  0  0  0  0  0  0  0  0  0  0
   14.1982  -23.7277  -10.8630 C   0  0  0  0  0  0  0  0  0  0  0  0
   13.7332  -24.9266  -11.3869 C   0  0  0  0  0  0  0  0  0  0  0  0
   14.6610  -25.8997  -11.7276 C   0  0  0  0  0  0  0  0  0  0  0  0
   16.3815  -28.1722   -9.9566 O   0  0  0  0  0  0  0  0  0  0  0  0
   16.1988  -29.5343   -9.7284 O   0  0  0  0  0  0  0  0  0  0  0  0
  2  1  1  0
  3  2  1  0
  3  4  1  6
  5  3  1  0
  6  5  2  0
  7  8  1  0
  8  9  2  0
 10 11  1  0
 10  8  1  0
 12 11  1  0
 12 13  1  0
 14 13  1  1
 14 15  1  0
 15  5  1  0
 16 14  1  0
 17 16  2  0
 18 16  1  0
 19 20  1  1
 19 18  1  0
 20 21  1  0
 21 22  2  0
 22 23  1  0
 24 23  2  0
 25 24  1  0
 26 21  1  0
 26 25  2  0
 27 28  1  0
 27 19  1  0
 29 27  2  0
M  END
$$$$
