SRF.pdb
     RDKit          3D

 29 29  0  0  1  0  0  0  0  0999 V2000
   20.8174  -22.8463  -12.2571 O   0  0  0  0  0  0  0  0  0  0  0  0
   20.9270  -21.7108  -13.0703 C   0  0  0  0  0  0  0  0  0  0  0  0
   21.9495  -21.9245  -14.1815 C   0  0  2  0  0  0  0  0  0  0  0  0
   21.6452  -23.1767  -14.8047 N   0  0  0  0  0  0  0  0  0  0  0  0
   23.2962  -21.9769  -13.5113 C   0  0  0  0  0  0  0  0  0  0  0  0
   23.7862  -23.0969  -13.2279 O   0  0  0  0  0  0  0  0  0  0  0  0
   27.4634  -23.2267  -16.0475 N   0  0  0  0  0  0  0  0  0  0  0  0
   27.9188  -22.0009  -16.5781 C   0  0  0  0  0  0  0  0  0  0  0  0
   27.6345  -21.6478  -17.8018 N   0  0  0  0  0  0  0  0  0  0  0  0
   28.7036  -21.1502  -15.7383 N   0  0  0  0  0  0  0  0  0  0  0  0
   28.1767  -20.8098  -14.4403 C   0  0  0  0  0  0  0  0  0  0  0  0
   26.7275  -20.2968  -14.5657 C   0  0  0  0  0  0  0  0  0  0  0  0
   26.1925  -19.9321  -13.2404 C   0  0  0  0  0  0  0  0  0  0  0  0
   25.3238  -20.8892  -12.5245 C   0  0  2  0  0  0  0  0  0  0  0  0
   24.0210  -20.8168  -13.1934 N   0  0  0  0  0  0  0  0  0  0  0  0
   25.1890  -20.7349  -11.0766 C   0  0  0  0  0  0  0  0  0  0  0  0
   24.2261  -20.1704  -10.4909 O   0  0  0  0  0  0  0  0  0  0  0  0
   27.9345  -20.7379  -18.1676 N   0  0  0  0  0  0  0  0  0  0  0  0
   26.1949  -21.2488  -10.2221 C   0  0  2  0  0  0  0  0  0  0  0  0
   26.2794  -20.8632   -8.8122 C   0  0  0  0  0  0  0  0  0  0  0  0
   27.6584  -21.2223   -8.3021 C   0  0  0  0  0  0  0  0  0  0  0  0
   27.9556  -20.6873   -6.9654 C   0  0  0  0  0  0  0  0  0  0  0  0
   28.5062  -19.4105   -6.8057 C   0  0  0  0  0  0  0  0  0  0  0  0
   28.7711  -18.9268   -5.5490 C   0  0  0  0  0  0  0  0  0  0  0  0
   28.5062  -19.6740   -4.4246 C   0  0  0  0  0  0  0  0  0  0  0  0
   27.9600  -20.9442   -4.5524 C   0  0  0  0  0  0  0  0  0  0  0  0
   27.6966  -21.4221   -5.8276 C   0  0  0  0  0  0  0  0  0  0  0  0
   25.9017  -19.4656   -8.6009 O   0  0  0  0  0  0  0  0  0  0  0  0
   26.5217  -18.3832   -9.2212 O   0  0  0  0  0  0  0  0  0  0  0  0
  2  1  1  0
  3  2  1  0
  3  4  1  1
  5  3  1  0
  6  5  2  0
  7  8  1  0
  8  9  2  0
 10 11  1  0
 10  8  1  0
 12 11  1  0
 12 13  1  0
 14 13  1  6
 14 15  1  0
 15  5  1  0
 16 14  1  0
 17 16  2  0
 18 16  1  0
 19 20  1  6
 19 18  1  0
 20 21  1  0
 21 22  2  0
 22 23  1  0
 24 23  2  0
 25 24  1  0
 26 21  1  0
 26 25  2  0
 27 28  1  0
 27 19  1  0
 29 27  2  0
M  END
$$$$
