SRF.pdb
     RDKit          3D

 29 29  0  0  1  0  0  0  0  0999 V2000
   30.5124  -22.4706  -13.0421 O   0  0  0  0  0  0  0  0  0  0  0  0
   29.6018  -23.0349  -13.9448 C   0  0  0  0  0  0  0  0  0  0  0  0
   28.7885  -21.9575  -14.6543 C   0  0  2  0  0  0  0  0  0  0  0  0
   29.7168  -21.0789  -15.2988 N   0  0  0  0  0  0  0  0  0  0  0  0
   28.0247  -21.2297  -13.5806 C   0  0  0  0  0  0  0  0  0  0  0  0
   28.5387  -20.2103  -13.0597 O   0  0  0  0  0  0  0  0  0  0  0  0
   21.8107  -22.9164  -13.7849 N   0  0  0  0  0  0  0  0  0  0  0  0
   21.7999  -21.5801  -14.2383 C   0  0  0  0  0  0  0  0  0  0  0  0
   21.6005  -21.2956  -15.4963 N   0  0  0  0  0  0  0  0  0  0  0  0
   22.0137  -20.5392  -13.2814 N   0  0  0  0  0  0  0  0  0  0  0  0
   22.1848  -20.9159  -11.9004 C   0  0  0  0  0  0  0  0  0  0  0  0
   23.6129  -20.5799  -11.4241 C   0  0  0  0  0  0  0  0  0  0  0  0
   24.6130  -21.2038  -12.3107 C   0  0  0  0  0  0  0  0  0  0  0  0
   26.0488  -20.9527  -12.0685 C   0  0  2  0  0  0  0  0  0  0  0  0
   26.7590  -21.6527  -13.1434 N   0  0  0  0  0  0  0  0  0  0  0  0
   26.5893  -21.3034  -10.7557 C   0  0  0  0  0  0  0  0  0  0  0  0
   27.0369  -22.4362  -10.4314 O   0  0  0  0  0  0  0  0  0  0  0  0
   21.5260  -20.3214  -15.8077 N   0  0  0  0  0  0  0  0  0  0  0  0
   26.6380  -20.3226   -9.7350 C   0  0  2  0  0  0  0  0  0  0  0  0
   27.1432  -20.6290   -8.3953 C   0  0  0  0  0  0  0  0  0  0  0  0
   28.4062  -19.8266   -8.1677 C   0  0  0  0  0  0  0  0  0  0  0  0
   28.8625  -19.8202   -6.7702 C   0  0  0  0  0  0  0  0  0  0  0  0
   29.8567  -20.7024   -6.3321 C   0  0  0  0  0  0  0  0  0  0  0  0
   30.2731  -20.6767   -5.0246 C   0  0  0  0  0  0  0  0  0  0  0  0
   29.7317  -19.7940   -4.1189 C   0  0  0  0  0  0  0  0  0  0  0  0
   28.7436  -18.9070   -4.5250 C   0  0  0  0  0  0  0  0  0  0  0  0
   28.3311  -18.9424   -5.8488 C   0  0  0  0  0  0  0  0  0  0  0  0
   26.1185  -20.4483   -7.3668 O   0  0  0  0  0  0  0  0  0  0  0  0
   26.0464  -21.1937   -6.1921 O   0  0  0  0  0  0  0  0  0  0  0  0
  2  1  1  0
  3  2  1  0
  3  4  1  1
  5  3  1  0
  6  5  2  0
  7  8  1  0
  8  9  2  0
 10 11  1  0
 10  8  1  0
 12 11  1  0
 12 13  1  0
 14 13  1  1
 14 15  1  0
 15  5  1  0
 16 14  1  0
 17 16  2  0
 18 16  1  0
 19 20  1  6
 19 18  1  0
 20 21  1  0
 21 22  2  0
 22 23  1  0
 24 23  2  0
 25 24  1  0
 26 21  1  0
 26 25  2  0
 27 28  1  0
 27 19  1  0
 29 27  2  0
M  END
$$$$
