SRF.pdb
     RDKit          3D

 29 29  0  0  1  0  0  0  0  0999 V2000
   24.5016  -12.1793  -18.5553 O   0  0  0  0  0  0  0  0  0  0  0  0
   24.6347  -13.5712  -18.6414 C   0  0  0  0  0  0  0  0  0  0  0  0
   25.8221  -14.0639  -17.8210 C   0  0  2  0  0  0  0  0  0  0  0  0
   26.9751  -14.0122  -18.6678 N   0  0  0  0  0  0  0  0  0  0  0  0
   25.5083  -15.4846  -17.4355 C   0  0  0  0  0  0  0  0  0  0  0  0
   26.1396  -16.4148  -17.9930 O   0  0  0  0  0  0  0  0  0  0  0  0
   26.3077  -21.8454  -13.6837 N   0  0  0  0  0  0  0  0  0  0  0  0
   26.4802  -21.0970  -12.4999 C   0  0  0  0  0  0  0  0  0  0  0  0
   26.2859  -21.6348  -11.3267 N   0  0  0  0  0  0  0  0  0  0  0  0
   26.8753  -19.7277  -12.6168 N   0  0  0  0  0  0  0  0  0  0  0  0
   26.8698  -19.1326  -13.9299 C   0  0  0  0  0  0  0  0  0  0  0  0
   25.6888  -18.1504  -14.0703 C   0  0  0  0  0  0  0  0  0  0  0  0
   25.6466  -17.5852  -15.4320 C   0  0  0  0  0  0  0  0  0  0  0  0
   24.3465  -17.1791  -16.0048 C   0  0  2  0  0  0  0  0  0  0  0  0
   24.5346  -15.8030  -16.4750 N   0  0  0  0  0  0  0  0  0  0  0  0
   23.1621  -17.2949  -15.1550 C   0  0  0  0  0  0  0  0  0  0  0  0
   22.9992  -16.7118  -14.0495 O   0  0  0  0  0  0  0  0  0  0  0  0
   26.4512  -21.0964  -10.4697 N   0  0  0  0  0  0  0  0  0  0  0  0
   22.0829  -18.1142  -15.5678 C   0  0  1  0  0  0  0  0  0  0  0  0
   20.8934  -18.2996  -14.7345 C   0  0  0  0  0  0  0  0  0  0  0  0
   19.7155  -17.6590  -15.4366 C   0  0  0  0  0  0  0  0  0  0  0  0
   19.7769  -16.1909  -15.4815 C   0  0  0  0  0  0  0  0  0  0  0  0
   19.3521  -15.4178  -14.3949 C   0  0  0  0  0  0  0  0  0  0  0  0
   19.4229  -14.0485  -14.4542 C   0  0  0  0  0  0  0  0  0  0  0  0
   19.9073  -13.4051  -15.5695 C   0  0  0  0  0  0  0  0  0  0  0  0
   20.3360  -14.1462  -16.6627 C   0  0  0  0  0  0  0  0  0  0  0  0
   20.2596  -15.5293  -16.5910 C   0  0  0  0  0  0  0  0  0  0  0  0
   20.6905  -19.7019  -14.3702 O   0  0  0  0  0  0  0  0  0  0  0  0
   21.5009  -20.7496  -14.8020 O   0  0  0  0  0  0  0  0  0  0  0  0
  2  1  1  0
  3  2  1  0
  3  4  1  6
  5  3  1  0
  6  5  2  0
  7  8  1  0
  8  9  2  0
 10 11  1  0
 10  8  1  0
 12 11  1  0
 12 13  1  0
 14 13  1  1
 14 15  1  0
 15  5  1  0
 16 14  1  0
 17 16  2  0
 18 16  1  0
 19 20  1  1
 19 18  1  0
 20 21  1  0
 21 22  2  0
 22 23  1  0
 24 23  2  0
 25 24  1  0
 26 21  1  0
 26 25  2  0
 27 28  1  0
 27 19  1  0
 29 27  2  0
M  END
$$$$
