SRF.pdb
     RDKit          3D

 29 29  0  0  1  0  0  0  0  0999 V2000
   28.9654  -21.4789  -14.0682 O   0  0  0  0  0  0  0  0  0  0  0  0
   27.9044  -21.9407  -14.8579 C   0  0  0  0  0  0  0  0  0  0  0  0
   26.8901  -20.8329  -15.1219 C   0  0  2  0  0  0  0  0  0  0  0  0
   27.5689  -19.7966  -15.8391 N   0  0  0  0  0  0  0  0  0  0  0  0
   26.4423  -20.3403  -13.7719 C   0  0  0  0  0  0  0  0  0  0  0  0
   26.8576  -19.2275  -13.3672 O   0  0  0  0  0  0  0  0  0  0  0  0
   21.3349  -21.6774  -15.0645 N   0  0  0  0  0  0  0  0  0  0  0  0
   21.2256  -22.5736  -13.9799 C   0  0  0  0  0  0  0  0  0  0  0  0
   21.2320  -23.8650  -14.1679 N   0  0  0  0  0  0  0  0  0  0  0  0
   21.1070  -22.0300  -12.6626 N   0  0  0  0  0  0  0  0  0  0  0  0
   21.2190  -20.6010  -12.5088 C   0  0  0  0  0  0  0  0  0  0  0  0
   22.6814  -20.1517  -12.7057 C   0  0  0  0  0  0  0  0  0  0  0  0
   23.5693  -20.8558  -11.7616 C   0  0  0  0  0  0  0  0  0  0  0  0
   25.0059  -20.5116  -11.7286 C   0  0  2  0  0  0  0  0  0  0  0  0
   25.5771  -21.0830  -12.9522 N   0  0  0  0  0  0  0  0  0  0  0  0
   25.7733  -20.9052  -10.5477 C   0  0  0  0  0  0  0  0  0  0  0  0
   26.1320  -22.0815  -10.2710 O   0  0  0  0  0  0  0  0  0  0  0  0
   21.2735  -24.5101  -13.3718 N   0  0  0  0  0  0  0  0  0  0  0  0
   26.1719  -19.9190   -9.6124 C   0  0  1  0  0  0  0  0  0  0  0  0
   26.8486  -20.2710   -8.3626 C   0  0  0  0  0  0  0  0  0  0  0  0
   27.7495  -19.1204   -7.9685 C   0  0  0  0  0  0  0  0  0  0  0  0
   28.4464  -19.3222   -6.6898 C   0  0  0  0  0  0  0  0  0  0  0  0
   27.8736  -18.9053   -5.4827 C   0  0  0  0  0  0  0  0  0  0  0  0
   28.5377  -19.1079   -4.2989 C   0  0  0  0  0  0  0  0  0  0  0  0
   29.7698  -19.7190   -4.2657 C   0  0  0  0  0  0  0  0  0  0  0  0
   30.3626  -20.1430   -5.4476 C   0  0  0  0  0  0  0  0  0  0  0  0
   29.6817  -19.9328   -6.6376 C   0  0  0  0  0  0  0  0  0  0  0  0
   25.9047  -20.6831   -7.3235 O   0  0  0  0  0  0  0  0  0  0  0  0
   26.2032  -21.5871   -6.3065 O   0  0  0  0  0  0  0  0  0  0  0  0
  2  1  1  0
  3  2  1  0
  3  4  1  6
  5  3  1  0
  6  5  2  0
  7  8  1  0
  8  9  2  0
 10 11  1  0
 10  8  1  0
 12 11  1  0
 12 13  1  0
 14 13  1  1
 14 15  1  0
 15  5  1  0
 16 14  1  0
 17 16  2  0
 18 16  1  0
 19 20  1  1
 19 18  1  0
 20 21  1  0
 21 22  2  0
 22 23  1  0
 24 23  2  0
 25 24  1  0
 26 21  1  0
 26 25  2  0
 27 28  1  0
 27 19  1  0
 29 27  2  0
M  END
$$$$
