SRF.pdb
     RDKit          3D

 29 29  0  0  1  0  0  0  0  0999 V2000
   13.6694   -5.5659  -14.5155 O   0  0  0  0  0  0  0  0  0  0  0  0
   13.0192   -6.4191  -13.6144 C   0  0  0  0  0  0  0  0  0  0  0  0
   13.2287   -7.8821  -13.9906 C   0  0  2  0  0  0  0  0  0  0  0  0
   12.4310   -8.6689  -13.0997 N   0  0  0  0  0  0  0  0  0  0  0  0
   14.6926   -8.1652  -13.7850 C   0  0  0  0  0  0  0  0  0  0  0  0
   15.1479   -8.1710  -12.6156 O   0  0  0  0  0  0  0  0  0  0  0  0
   19.3343  -14.0277  -17.3238 N   0  0  0  0  0  0  0  0  0  0  0  0
   18.0070  -13.9845  -16.8463 C   0  0  0  0  0  0  0  0  0  0  0  0
   17.3274  -15.0796  -16.6412 N   0  0  0  0  0  0  0  0  0  0  0  0
   17.4212  -12.7052  -16.5911 N   0  0  0  0  0  0  0  0  0  0  0  0
   18.1354  -11.5344  -17.0354 C   0  0  0  0  0  0  0  0  0  0  0  0
   17.3335  -10.2583  -16.7070 C   0  0  0  0  0  0  0  0  0  0  0  0
   17.0789  -10.1674  -15.2570 C   0  0  0  0  0  0  0  0  0  0  0  0
   16.9522   -8.8362  -14.6286 C   0  0  2  0  0  0  0  0  0  0  0  0
   15.5640   -8.4226  -14.8557 N   0  0  0  0  0  0  0  0  0  0  0  0
   17.8929   -7.7958  -15.0422 C   0  0  0  0  0  0  0  0  0  0  0  0
   17.6329   -6.8535  -15.8381 O   0  0  0  0  0  0  0  0  0  0  0  0
   16.3558  -15.0399  -16.3154 N   0  0  0  0  0  0  0  0  0  0  0  0
   19.2136   -7.8038  -14.5304 C   0  0  2  0  0  0  0  0  0  0  0  0
   20.2215   -6.8431  -14.9833 C   0  0  0  0  0  0  0  0  0  0  0  0
   21.3679   -6.8542  -13.9952 C   0  0  0  0  0  0  0  0  0  0  0  0
   22.4959   -5.9952  -14.3838 C   0  0  0  0  0  0  0  0  0  0  0  0
   22.5160   -4.6362  -14.0496 C   0  0  0  0  0  0  0  0  0  0  0  0
   23.5811   -3.8523  -14.4166 C   0  0  0  0  0  0  0  0  0  0  0  0
   24.6457   -4.3736  -15.1147 C   0  0  0  0  0  0  0  0  0  0  0  0
   24.6531   -5.7185  -15.4601 C   0  0  0  0  0  0  0  0  0  0  0  0
   23.5712   -6.5006  -15.0836 C   0  0  0  0  0  0  0  0  0  0  0  0
   20.6181   -7.0763  -16.3722 O   0  0  0  0  0  0  0  0  0  0  0  0
   20.8009   -6.0676  -17.3155 O   0  0  0  0  0  0  0  0  0  0  0  0
  2  1  1  0
  3  2  1  0
  3  4  1  1
  5  3  1  0
  6  5  2  0
  7  8  1  0
  8  9  2  0
 10 11  1  0
 10  8  1  0
 12 11  1  0
 12 13  1  0
 14 13  1  6
 14 15  1  0
 15  5  1  0
 16 14  1  0
 17 16  2  0
 18 16  1  0
 19 20  1  1
 19 18  1  0
 20 21  1  0
 21 22  2  0
 22 23  1  0
 24 23  2  0
 25 24  1  0
 26 21  1  0
 26 25  2  0
 27 28  1  0
 27 19  1  0
 29 27  2  0
M  END
$$$$
