SRF.pdb
     RDKit          3D

 29 29  0  0  1  0  0  0  0  0999 V2000
   25.6799  -13.7640  -15.5345 O   0  0  0  0  0  0  0  0  0  0  0  0
   25.2717  -15.1026  -15.4707 C   0  0  0  0  0  0  0  0  0  0  0  0
   25.3539  -15.7705  -16.8393 C   0  0  2  0  0  0  0  0  0  0  0  0
   24.3102  -15.2159  -17.6468 N   0  0  0  0  0  0  0  0  0  0  0  0
   25.1229  -17.2396  -16.6064 C   0  0  0  0  0  0  0  0  0  0  0  0
   23.9747  -17.6256  -16.2789 O   0  0  0  0  0  0  0  0  0  0  0  0
   29.4084  -23.5866  -15.9511 N   0  0  0  0  0  0  0  0  0  0  0  0
   28.5879  -24.4751  -16.6783 C   0  0  0  0  0  0  0  0  0  0  0  0
   28.5410  -25.7455  -16.3833 N   0  0  0  0  0  0  0  0  0  0  0  0
   27.8045  -23.9474  -17.7519 N   0  0  0  0  0  0  0  0  0  0  0  0
   27.8241  -22.5218  -17.9654 C   0  0  0  0  0  0  0  0  0  0  0  0
   27.1346  -21.7929  -16.7938 C   0  0  0  0  0  0  0  0  0  0  0  0
   26.9165  -20.3726  -17.1261 C   0  0  0  0  0  0  0  0  0  0  0  0
   25.9578  -19.5831  -16.3257 C   0  0  2  0  0  0  0  0  0  0  0  0
   26.1473  -18.1903  -16.7432 N   0  0  0  0  0  0  0  0  0  0  0  0
   26.0142  -19.7158  -14.8705 C   0  0  0  0  0  0  0  0  0  0  0  0
   26.8970  -19.2095  -14.1267 O   0  0  0  0  0  0  0  0  0  0  0  0
   27.9147  -26.3786  -16.8918 N   0  0  0  0  0  0  0  0  0  0  0  0
   25.0154  -20.4610  -14.1972 C   0  0  1  0  0  0  0  0  0  0  0  0
   25.2145  -20.9634  -12.8364 C   0  0  0  0  0  0  0  0  0  0  0  0
   25.6426  -19.8065  -11.9595 C   0  0  0  0  0  0  0  0  0  0  0  0
   25.6651  -20.1249  -10.5245 C   0  0  0  0  0  0  0  0  0  0  0  0
   24.4845  -20.1528   -9.7734 C   0  0  0  0  0  0  0  0  0  0  0  0
   24.5259  -20.4579   -8.4359 C   0  0  0  0  0  0  0  0  0  0  0  0
   25.7144  -20.7415   -7.8037 C   0  0  0  0  0  0  0  0  0  0  0  0
   26.9016  -20.7214   -8.5235 C   0  0  0  0  0  0  0  0  0  0  0  0
   26.8470  -20.4116   -9.8744 C   0  0  0  0  0  0  0  0  0  0  0  0
   24.0473  -21.6954  -12.3443 O   0  0  0  0  0  0  0  0  0  0  0  0
   24.1055  -22.7298  -11.4130 O   0  0  0  0  0  0  0  0  0  0  0  0
  2  1  1  0
  3  2  1  0
  3  4  1  6
  5  3  1  0
  6  5  2  0
  7  8  1  0
  8  9  2  0
 10 11  1  0
 10  8  1  0
 12 11  1  0
 12 13  1  0
 14 13  1  6
 14 15  1  0
 15  5  1  0
 16 14  1  0
 17 16  2  0
 18 16  1  0
 19 20  1  1
 19 18  1  0
 20 21  1  0
 21 22  2  0
 22 23  1  0
 24 23  2  0
 25 24  1  0
 26 21  1  0
 26 25  2  0
 27 28  1  0
 27 19  1  0
 29 27  2  0
M  END
$$$$
