SRF.pdb
     RDKit          3D

 29 29  0  0  1  0  0  0  0  0999 V2000
   35.1753  -33.4735    4.0989 O   0  0  0  0  0  0  0  0  0  0  0  0
   35.5559  -34.6567    3.4526 C   0  0  0  0  0  0  0  0  0  0  0  0
   36.0593  -34.3768    2.0405 C   0  0  2  0  0  0  0  0  0  0  0  0
   37.1191  -33.4206    2.1483 N   0  0  0  0  0  0  0  0  0  0  0  0
   34.8941  -33.7967    1.2844 C   0  0  0  0  0  0  0  0  0  0  0  0
   34.8288  -32.5521    1.1382 O   0  0  0  0  0  0  0  0  0  0  0  0
   30.8441  -37.0405   -4.9919 N   0  0  0  0  0  0  0  0  0  0  0  0
   31.1460  -35.6620   -5.0025 C   0  0  0  0  0  0  0  0  0  0  0  0
   30.5351  -34.8434   -5.8149 N   0  0  0  0  0  0  0  0  0  0  0  0
   32.1426  -35.1808   -4.0970 N   0  0  0  0  0  0  0  0  0  0  0  0
   32.8145  -36.1420   -3.2587 C   0  0  0  0  0  0  0  0  0  0  0  0
   32.5222  -35.8560   -1.7714 C   0  0  0  0  0  0  0  0  0  0  0  0
   32.9540  -34.4919   -1.4135 C   0  0  0  0  0  0  0  0  0  0  0  0
   32.7723  -34.0182   -0.0257 C   0  0  2  0  0  0  0  0  0  0  0  0
   33.8800  -34.6003    0.7385 N   0  0  0  0  0  0  0  0  0  0  0  0
   31.4856  -34.2772    0.6191 C   0  0  0  0  0  0  0  0  0  0  0  0
   31.2556  -35.2074    1.4381 O   0  0  0  0  0  0  0  0  0  0  0  0
   30.7037  -33.8331   -5.7651 N   0  0  0  0  0  0  0  0  0  0  0  0
   30.3798  -33.4390    0.3346 C   0  0  2  0  0  0  0  0  0  0  0  0
   29.0660  -33.6644    0.9405 C   0  0  0  0  0  0  0  0  0  0  0  0
   28.5753  -32.3530    1.5150 C   0  0  0  0  0  0  0  0  0  0  0  0
   29.2161  -31.9839    2.7856 C   0  0  0  0  0  0  0  0  0  0  0  0
   30.4830  -31.3895    2.8085 C   0  0  0  0  0  0  0  0  0  0  0  0
   31.0617  -31.0471    4.0048 C   0  0  0  0  0  0  0  0  0  0  0  0
   30.4209  -31.2755    5.2006 C   0  0  0  0  0  0  0  0  0  0  0  0
   29.1632  -31.8637    5.2087 C   0  0  0  0  0  0  0  0  0  0  0  0
   28.5885  -32.2054    3.9934 C   0  0  0  0  0  0  0  0  0  0  0  0
   28.1344  -34.3035    0.0109 O   0  0  0  0  0  0  0  0  0  0  0  0
   26.8769  -34.7852    0.3680 O   0  0  0  0  0  0  0  0  0  0  0  0
  2  1  1  0
  3  2  1  0
  3  4  1  1
  5  3  1  0
  6  5  2  0
  7  8  1  0
  8  9  2  0
 10 11  1  0
 10  8  1  0
 12 11  1  0
 12 13  1  0
 14 13  1  6
 14 15  1  0
 15  5  1  0
 16 14  1  0
 17 16  2  0
 18 16  1  0
 19 20  1  6
 19 18  1  0
 20 21  1  0
 21 22  2  0
 22 23  1  0
 24 23  2  0
 25 24  1  0
 26 21  1  0
 26 25  2  0
 27 28  1  0
 27 19  1  0
 29 27  2  0
M  END
$$$$
