KMV.pdb
     RDKit          3D

 25 24  0  0  1  0  0  0  0  0999 V2000
   28.3803  -22.1911  -15.8673 N   0  0  0  0  0  0  0  0  0  0  0  0
   27.8068  -20.9260  -15.3837 C   0  0  1  0  0  0  0  0  0  0  0  0
   27.0231  -20.2512  -16.4882 C   0  0  0  0  0  0  0  0  0  0  0  0
   27.6786  -19.0343  -17.0433 C   0  0  0  0  0  0  0  0  0  0  0  0
   28.8115  -18.4850  -16.2439 C   0  0  0  0  0  0  0  0  0  0  0  0
   29.1901  -17.1057  -16.6654 C   0  0  0  0  0  0  0  0  0  0  0  0
   30.0582  -17.1184  -17.7941 N   0  0  0  0  0  0  0  0  0  0  0  0
   26.9221  -21.2569  -14.2574 C   0  0  0  0  0  0  0  0  0  0  0  0
   26.1133  -22.2358  -14.4256 O   0  0  0  0  0  0  0  0  0  0  0  0
   27.7327  -20.5089   -7.8869 C   0  0  0  0  0  0  0  0  0  0  0  0
   25.9677  -20.1843   -7.9853 S   0  0  0  0  0  0  0  0  0  0  0  0
   25.3792  -20.8523   -9.6081 C   0  0  0  0  0  0  0  0  0  0  0  0
   26.3703  -20.4462  -10.6606 C   0  0  0  0  0  0  0  0  0  0  0  0
   25.9236  -20.9170  -12.0205 C   0  0  2  0  0  0  0  0  0  0  0  0
   26.9228  -20.5607  -13.0266 N   0  0  0  0  0  0  0  0  0  0  0  0
   24.6203  -20.2991  -12.3567 C   0  0  0  0  0  0  0  0  0  0  0  0
   24.4319  -19.0837  -12.5744 O   0  0  0  0  0  0  0  0  0  0  0  0
   21.6220  -22.5021  -14.1585 C   0  0  0  0  0  0  0  0  0  0  0  0
   21.6898  -20.9940  -14.1974 C   0  0  2  0  0  0  0  0  0  0  0  0
   22.6673  -20.6228  -15.2980 C   0  0  0  0  0  0  0  0  0  0  0  0
   22.1455  -20.5096  -12.8598 C   0  0  2  0  0  0  0  0  0  0  0  0
   23.4197  -21.0980  -12.4608 N   0  0  0  0  0  0  0  0  0  0  0  0
   21.1730  -20.9273  -11.8215 C   0  0  0  0  0  0  0  0  0  0  0  0
   19.9564  -20.2762  -11.7331 O   0  0  0  0  0  0  0  0  0  0  0  0
   21.3829  -21.8528  -10.9975 O   0  0  0  0  0  0  0  0  0  0  0  0
  2  1  1  6
  2  3  1  0
  4  3  1  0
  5  4  1  0
  6  5  1  0
  7  6  1  0
  8  9  2  0
  8  2  1  0
 10 11  1  0
 11 12  1  0
 13 12  1  0
 14 13  1  1
 14 15  1  0
 15  8  1  0
 16 22  1  0
 16 14  1  0
 17 16  2  0
 19 18  1  1
 19 21  1  0
 20 19  1  0
 21 22  1  1
 21 23  1  0
 23 24  1  0
 25 23  2  0
M  END
$$$$
