KMV.pdb
     RDKit          3D

 25 24  0  0  1  0  0  0  0  0999 V2000
   21.2033  -24.1055  -14.1475 N   0  0  0  0  0  0  0  0  0  0  0  0
   20.8056  -23.1143  -15.1588 C   0  0  1  0  0  0  0  0  0  0  0  0
   19.3012  -23.1082  -15.3214 C   0  0  0  0  0  0  0  0  0  0  0  0
   18.7954  -24.0720  -16.3383 C   0  0  0  0  0  0  0  0  0  0  0  0
   19.1302  -25.5053  -16.0978 C   0  0  0  0  0  0  0  0  0  0  0  0
   18.6424  -26.3954  -17.1902 C   0  0  0  0  0  0  0  0  0  0  0  0
   19.5537  -26.4368  -18.2836 N   0  0  0  0  0  0  0  0  0  0  0  0
   21.2741  -21.8041  -14.6852 C   0  0  0  0  0  0  0  0  0  0  0  0
   20.3851  -21.0014  -14.2313 O   0  0  0  0  0  0  0  0  0  0  0  0
   26.2384  -20.3247  -11.0540 C   0  0  0  0  0  0  0  0  0  0  0  0
   24.8682  -21.3971  -10.6041 S   0  0  0  0  0  0  0  0  0  0  0  0
   23.4807  -21.0301  -11.7732 C   0  0  0  0  0  0  0  0  0  0  0  0
   24.0707  -20.4187  -13.0113 C   0  0  0  0  0  0  0  0  0  0  0  0
   22.9977  -20.1537  -14.0357 C   0  0  2  0  0  0  0  0  0  0  0  0
   22.6287  -21.3988  -14.7074 N   0  0  0  0  0  0  0  0  0  0  0  0
   23.4888  -19.1677  -15.0257 C   0  0  0  0  0  0  0  0  0  0  0  0
   23.8890  -18.0148  -14.7594 O   0  0  0  0  0  0  0  0  0  0  0  0
   25.4827  -20.0132  -18.5126 C   0  0  0  0  0  0  0  0  0  0  0  0
   24.2981  -19.1039  -18.7369 C   0  0  2  0  0  0  0  0  0  0  0  0
   24.7272  -18.0598  -19.7520 C   0  0  0  0  0  0  0  0  0  0  0  0
   23.9236  -18.4889  -17.4282 C   0  0  2  0  0  0  0  0  0  0  0  0
   23.5411  -19.4869  -16.4348 N   0  0  0  0  0  0  0  0  0  0  0  0
   22.7294  -17.6284  -17.6063 C   0  0  0  0  0  0  0  0  0  0  0  0
   22.8904  -16.2581  -17.6974 O   0  0  0  0  0  0  0  0  0  0  0  0
   21.5544  -18.0683  -17.6818 O   0  0  0  0  0  0  0  0  0  0  0  0
  2  1  1  1
  2  3  1  0
  4  3  1  0
  5  4  1  0
  6  5  1  0
  7  6  1  0
  8  9  2  0
  8  2  1  0
 10 11  1  0
 11 12  1  0
 13 12  1  0
 14 13  1  1
 14 15  1  0
 15  8  1  0
 16 22  1  0
 16 14  1  0
 17 16  2  0
 19 18  1  1
 19 21  1  0
 20 19  1  0
 21 22  1  1
 21 23  1  0
 23 24  1  0
 25 23  2  0
M  END
$$$$
