KMV.pdb
     RDKit          3D

 25 24  0  0  1  0  0  0  0  0999 V2000
   28.1561  -23.0711  -15.2974 N   0  0  0  0  0  0  0  0  0  0  0  0
   27.2579  -21.9163  -15.4488 C   0  0  1  0  0  0  0  0  0  0  0  0
   26.4680  -22.0333  -16.7340 C   0  0  0  0  0  0  0  0  0  0  0  0
   26.7504  -20.9549  -17.7220 C   0  0  0  0  0  0  0  0  0  0  0  0
   27.9709  -20.1384  -17.4610 C   0  0  0  0  0  0  0  0  0  0  0  0
   28.1345  -19.0286  -18.4434 C   0  0  0  0  0  0  0  0  0  0  0  0
   29.3101  -18.2666  -18.1877 N   0  0  0  0  0  0  0  0  0  0  0  0
   26.3532  -21.9196  -14.2903 C   0  0  0  0  0  0  0  0  0  0  0  0
   25.2259  -22.5093  -14.4385 O   0  0  0  0  0  0  0  0  0  0  0  0
   27.7937  -20.3728   -8.2934 C   0  0  0  0  0  0  0  0  0  0  0  0
   26.0211  -20.1698   -8.0769 S   0  0  0  0  0  0  0  0  0  0  0  0
   25.2079  -20.7893   -9.6200 C   0  0  0  0  0  0  0  0  0  0  0  0
   26.2265  -20.7570  -10.7228 C   0  0  0  0  0  0  0  0  0  0  0  0
   25.6530  -21.3314  -11.9924 C   0  0  2  0  0  0  0  0  0  0  0  0
   26.6629  -21.3158  -13.0496 N   0  0  0  0  0  0  0  0  0  0  0  0
   24.4713  -20.5403  -12.4060 C   0  0  0  0  0  0  0  0  0  0  0  0
   24.4848  -19.3308  -12.7179 O   0  0  0  0  0  0  0  0  0  0  0  0
   21.1854  -22.1996  -14.2351 C   0  0  0  0  0  0  0  0  0  0  0  0
   21.4693  -20.7167  -14.2081 C   0  0  2  0  0  0  0  0  0  0  0  0
   22.4956  -20.4424  -15.2927 C   0  0  0  0  0  0  0  0  0  0  0  0
   21.9830  -20.3613  -12.8512 C   0  0  2  0  0  0  0  0  0  0  0  0
   23.1587  -21.1420  -12.4806 N   0  0  0  0  0  0  0  0  0  0  0  0
   20.9562  -20.6816  -11.8308 C   0  0  0  0  0  0  0  0  0  0  0  0
   21.1572  -21.7548  -10.9823 O   0  0  0  0  0  0  0  0  0  0  0  0
   19.8916  -20.0307  -11.6805 O   0  0  0  0  0  0  0  0  0  0  0  0
  2  1  1  1
  2  3  1  0
  4  3  1  0
  5  4  1  0
  6  5  1  0
  7  6  1  0
  8  9  2  0
  8  2  1  0
 10 11  1  0
 11 12  1  0
 13 12  1  0
 14 13  1  1
 14 15  1  0
 15  8  1  0
 16 22  1  0
 16 14  1  0
 17 16  2  0
 19 18  1  1
 19 21  1  0
 20 19  1  0
 21 22  1  1
 21 23  1  0
 23 24  1  0
 25 23  2  0
M  END
$$$$
