KMV.pdb
     RDKit          3D

 25 24  0  0  1  0  0  0  0  0999 V2000
   23.2628  -20.5454   -9.6046 N   0  0  0  0  0  0  0  0  0  0  0  0
   23.6779  -20.8952  -10.9715 C   0  0  1  0  0  0  0  0  0  0  0  0
   22.7897  -20.2017  -11.9813 C   0  0  0  0  0  0  0  0  0  0  0  0
   21.4870  -20.8849  -12.2162 C   0  0  0  0  0  0  0  0  0  0  0  0
   21.5460  -22.3697  -12.3436 C   0  0  0  0  0  0  0  0  0  0  0  0
   20.2040  -22.9748  -12.5808 C   0  0  0  0  0  0  0  0  0  0  0  0
   19.5099  -23.2140  -11.3607 N   0  0  0  0  0  0  0  0  0  0  0  0
   25.0707  -20.4513  -11.1255 C   0  0  0  0  0  0  0  0  0  0  0  0
   25.3271  -19.2344  -10.8191 O   0  0  0  0  0  0  0  0  0  0  0  0
   30.9533  -22.8025  -10.9043 C   0  0  0  0  0  0  0  0  0  0  0  0
   31.2352  -21.0495  -11.1826 S   0  0  0  0  0  0  0  0  0  0  0  0
   29.7343  -20.3839  -12.0375 C   0  0  0  0  0  0  0  0  0  0  0  0
   28.5441  -21.1580  -11.5487 C   0  0  0  0  0  0  0  0  0  0  0  0
   27.2827  -20.6664  -12.2105 C   0  0  2  0  0  0  0  0  0  0  0  0
   26.1153  -21.2862  -11.5854 N   0  0  0  0  0  0  0  0  0  0  0  0
   27.3198  -20.9926  -13.6547 C   0  0  0  0  0  0  0  0  0  0  0  0
   27.2108  -22.1387  -14.1393 O   0  0  0  0  0  0  0  0  0  0  0  0
   25.0017  -20.5405  -16.2064 C   0  0  0  0  0  0  0  0  0  0  0  0
   26.1688  -19.7200  -16.7013 C   0  0  2  0  0  0  0  0  0  0  0  0
   26.1917  -19.8498  -18.2137 C   0  0  0  0  0  0  0  0  0  0  0  0
   27.4164  -20.2534  -16.0767 C   0  0  2  0  0  0  0  0  0  0  0  0
   27.4931  -19.9582  -14.6498 N   0  0  0  0  0  0  0  0  0  0  0  0
   28.5977  -19.5933  -16.6825 C   0  0  0  0  0  0  0  0  0  0  0  0
   29.1102  -20.0812  -17.8705 O   0  0  0  0  0  0  0  0  0  0  0  0
   29.1787  -18.5988  -16.1795 O   0  0  0  0  0  0  0  0  0  0  0  0
  2  1  1  1
  2  3  1  0
  4  3  1  0
  5  4  1  0
  6  5  1  0
  7  6  1  0
  8  9  2  0
  8  2  1  0
 10 11  1  0
 11 12  1  0
 13 12  1  0
 14 13  1  1
 14 15  1  0
 15  8  1  0
 16 22  1  0
 16 14  1  0
 17 16  2  0
 19 18  1  1
 19 21  1  0
 20 19  1  0
 21 22  1  1
 21 23  1  0
 23 24  1  0
 25 23  2  0
M  END
$$$$
