KMV.pdb
     RDKit          3D

 25 24  0  0  1  0  0  0  0  0999 V2000
   24.7364  -19.9329  -13.2077 N   0  0  0  0  0  0  0  0  0  0  0  0
   24.0117  -20.3207  -11.9880 C   0  0  1  0  0  0  0  0  0  0  0  0
   23.0602  -21.4593  -12.2849 C   0  0  0  0  0  0  0  0  0  0  0  0
   22.5340  -21.4646  -13.6784 C   0  0  0  0  0  0  0  0  0  0  0  0
   23.5565  -21.3615  -14.7592 C   0  0  0  0  0  0  0  0  0  0  0  0
   22.9613  -21.4886  -16.1205 C   0  0  0  0  0  0  0  0  0  0  0  0
   22.9807  -20.2498  -16.8226 N   0  0  0  0  0  0  0  0  0  0  0  0
   25.0193  -20.7399  -11.0033 C   0  0  0  0  0  0  0  0  0  0  0  0
   24.5963  -21.3894   -9.9836 O   0  0  0  0  0  0  0  0  0  0  0  0
   30.9855  -22.1822  -12.2769 C   0  0  0  0  0  0  0  0  0  0  0  0
   31.2812  -21.9017  -10.5265 S   0  0  0  0  0  0  0  0  0  0  0  0
   29.6266  -21.7569   -9.7094 C   0  0  0  0  0  0  0  0  0  0  0  0
   28.7243  -20.9854  -10.6290 C   0  0  0  0  0  0  0  0  0  0  0  0
   27.3112  -20.9811  -10.1058 C   0  0  2  0  0  0  0  0  0  0  0  0
   26.4010  -20.4653  -11.1271 N   0  0  0  0  0  0  0  0  0  0  0  0
   27.2354  -20.1434   -8.8868 C   0  0  0  0  0  0  0  0  0  0  0  0
   26.9012  -18.9402   -8.8569 O   0  0  0  0  0  0  0  0  0  0  0  0
   25.7060  -21.2221   -5.3154 C   0  0  0  0  0  0  0  0  0  0  0  0
   27.1186  -20.7078   -5.1727 C   0  0  2  0  0  0  0  0  0  0  0  0
   27.1654  -19.8908   -3.8940 C   0  0  0  0  0  0  0  0  0  0  0  0
   27.4414  -19.8817   -6.3746 C   0  0  2  0  0  0  0  0  0  0  0  0
   27.5583  -20.6862   -7.5863 N   0  0  0  0  0  0  0  0  0  0  0  0
   28.7654  -19.2389   -6.1957 C   0  0  0  0  0  0  0  0  0  0  0  0
   28.8500  -18.0452   -5.5030 O   0  0  0  0  0  0  0  0  0  0  0  0
   29.8405  -19.7147   -6.6404 O   0  0  0  0  0  0  0  0  0  0  0  0
  2  1  1  6
  2  3  1  0
  4  3  1  0
  5  4  1  0
  6  5  1  0
  7  6  1  0
  8  9  2  0
  8  2  1  0
 10 11  1  0
 11 12  1  0
 13 12  1  0
 14 13  1  6
 14 15  1  0
 15  8  1  0
 16 22  1  0
 16 14  1  0
 17 16  2  0
 19 18  1  6
 19 21  1  0
 20 19  1  0
 21 22  1  6
 21 23  1  0
 23 24  1  0
 25 23  2  0
M  END
$$$$
