KMV.pdb
     RDKit          3D

 25 24  0  0  1  0  0  0  0  0999 V2000
   29.1863  -21.1746  -14.9616 N   0  0  0  0  0  0  0  0  0  0  0  0
   27.9825  -20.3555  -15.1687 C   0  0  1  0  0  0  0  0  0  0  0  0
   27.4676  -20.5305  -16.5807 C   0  0  0  0  0  0  0  0  0  0  0  0
   28.5201  -20.4252  -17.6294 C   0  0  0  0  0  0  0  0  0  0  0  0
   28.8088  -21.6764  -18.3880 C   0  0  0  0  0  0  0  0  0  0  0  0
   27.8172  -21.9263  -19.4732 C   0  0  0  0  0  0  0  0  0  0  0  0
   28.3946  -21.7598  -20.7642 N   0  0  0  0  0  0  0  0  0  0  0  0
   26.9781  -20.8128  -14.1977 C   0  0  0  0  0  0  0  0  0  0  0  0
   26.0361  -21.5556  -14.6465 O   0  0  0  0  0  0  0  0  0  0  0  0
   27.2581  -20.1344   -7.8725 C   0  0  0  0  0  0  0  0  0  0  0  0
   25.5171  -20.5792   -7.9040 S   0  0  0  0  0  0  0  0  0  0  0  0
   25.1202  -21.1098   -9.6324 C   0  0  0  0  0  0  0  0  0  0  0  0
   26.1507  -20.5118  -10.5463 C   0  0  0  0  0  0  0  0  0  0  0  0
   25.9108  -20.9418  -11.9705 C   0  0  2  0  0  0  0  0  0  0  0  0
   27.0036  -20.4782  -12.8240 N   0  0  0  0  0  0  0  0  0  0  0  0
   24.6229  -20.3869  -12.4466 C   0  0  0  0  0  0  0  0  0  0  0  0
   24.3996  -19.1811  -12.6842 O   0  0  0  0  0  0  0  0  0  0  0  0
   20.6104  -20.8202  -15.0636 C   0  0  0  0  0  0  0  0  0  0  0  0
   21.9483  -21.3385  -14.5931 C   0  0  2  0  0  0  0  0  0  0  0  0
   21.8328  -22.8499  -14.5080 C   0  0  0  0  0  0  0  0  0  0  0  0
   22.2483  -20.7263  -13.2640 C   0  0  2  0  0  0  0  0  0  0  0  0
   23.4816  -21.2432  -12.6801 N   0  0  0  0  0  0  0  0  0  0  0  0
   21.1763  -21.0764  -12.3015 C   0  0  0  0  0  0  0  0  0  0  0  0
   19.9483  -20.4481  -12.3985 O   0  0  0  0  0  0  0  0  0  0  0  0
   21.3096  -21.9236  -11.3827 O   0  0  0  0  0  0  0  0  0  0  0  0
  2  1  1  6
  2  3  1  0
  4  3  1  0
  5  4  1  0
  6  5  1  0
  7  6  1  0
  8  9  2  0
  8  2  1  0
 10 11  1  0
 11 12  1  0
 13 12  1  0
 14 13  1  1
 14 15  1  0
 15  8  1  0
 16 22  1  0
 16 14  1  0
 17 16  2  0
 19 18  1  1
 19 21  1  0
 20 19  1  0
 21 22  1  1
 21 23  1  0
 23 24  1  0
 25 23  2  0
M  END
$$$$
