KMV.pdb
     RDKit          3D

 25 24  0  0  1  0  0  0  0  0999 V2000
   28.1743  -21.9048  -16.2311 N   0  0  0  0  0  0  0  0  0  0  0  0
   27.9809  -20.7076  -15.3989 C   0  0  1  0  0  0  0  0  0  0  0  0
   27.3223  -19.6104  -16.2064 C   0  0  0  0  0  0  0  0  0  0  0  0
   28.1955  -19.0234  -17.2609 C   0  0  0  0  0  0  0  0  0  0  0  0
   29.2287  -18.0585  -16.7857 C   0  0  0  0  0  0  0  0  0  0  0  0
   30.0676  -17.5283  -17.8986 C   0  0  0  0  0  0  0  0  0  0  0  0
   29.3986  -16.4982  -18.6191 N   0  0  0  0  0  0  0  0  0  0  0  0
   27.1214  -21.1000  -14.2729 C   0  0  0  0  0  0  0  0  0  0  0  0
   26.1673  -21.9150  -14.5302 O   0  0  0  0  0  0  0  0  0  0  0  0
   25.1593  -20.7957   -6.6622 C   0  0  0  0  0  0  0  0  0  0  0  0
   26.3193  -20.2341   -7.9148 S   0  0  0  0  0  0  0  0  0  0  0  0
   25.7296  -20.8942   -9.5405 C   0  0  0  0  0  0  0  0  0  0  0  0
   26.7217  -20.4856  -10.5911 C   0  0  0  0  0  0  0  0  0  0  0  0
   26.2799  -20.9598  -11.9516 C   0  0  2  0  0  0  0  0  0  0  0  0
   27.2954  -20.6302  -12.9505 N   0  0  0  0  0  0  0  0  0  0  0  0
   24.9915  -20.3213  -12.3059 C   0  0  0  0  0  0  0  0  0  0  0  0
   24.8189  -19.0985  -12.4936 O   0  0  0  0  0  0  0  0  0  0  0  0
   22.9813  -20.9704  -15.2939 C   0  0  0  0  0  0  0  0  0  0  0  0
   22.0127  -21.1949  -14.1574 C   0  0  2  0  0  0  0  0  0  0  0  0
   20.6770  -20.6202  -14.5937 C   0  0  0  0  0  0  0  0  0  0  0  0
   22.5458  -20.5075  -12.9431 C   0  0  2  0  0  0  0  0  0  0  0  0
   23.7881  -21.1064  -12.4665 N   0  0  0  0  0  0  0  0  0  0  0  0
   21.5817  -20.6517  -11.8260 C   0  0  0  0  0  0  0  0  0  0  0  0
   20.6651  -19.6438  -11.5891 O   0  0  0  0  0  0  0  0  0  0  0  0
   21.5390  -21.6489  -11.0622 O   0  0  0  0  0  0  0  0  0  0  0  0
  2  1  1  6
  2  3  1  0
  4  3  1  0
  5  4  1  0
  6  5  1  0
  7  6  1  0
  8  9  2  0
  8  2  1  0
 10 11  1  0
 11 12  1  0
 13 12  1  0
 14 13  1  1
 14 15  1  0
 15  8  1  0
 16 22  1  0
 16 14  1  0
 17 16  2  0
 19 18  1  6
 19 21  1  0
 20 19  1  0
 21 22  1  1
 21 23  1  0
 23 24  1  0
 25 23  2  0
M  END
$$$$
