KMV.pdb
     RDKit          3D

 25 24  0  0  1  0  0  0  0  0999 V2000
   24.3313  -20.4739  -13.6297 N   0  0  0  0  0  0  0  0  0  0  0  0
   23.4023  -19.7899  -12.7174 C   0  0  1  0  0  0  0  0  0  0  0  0
   22.0524  -19.6169  -13.3789 C   0  0  0  0  0  0  0  0  0  0  0  0
   22.0243  -18.5715  -14.4396 C   0  0  0  0  0  0  0  0  0  0  0  0
   22.0480  -19.0711  -15.8446 C   0  0  0  0  0  0  0  0  0  0  0  0
   22.0518  -17.9636  -16.8430 C   0  0  0  0  0  0  0  0  0  0  0  0
   22.0575  -18.4572  -18.1787 N   0  0  0  0  0  0  0  0  0  0  0  0
   23.2799  -20.6303  -11.5176 C   0  0  0  0  0  0  0  0  0  0  0  0
   23.0695  -21.8796  -11.7056 O   0  0  0  0  0  0  0  0  0  0  0  0
   26.6575  -18.6529   -6.8571 C   0  0  0  0  0  0  0  0  0  0  0  0
   26.7062  -20.4462   -6.9651 S   0  0  0  0  0  0  0  0  0  0  0  0
   25.6185  -20.9379   -8.3799 C   0  0  0  0  0  0  0  0  0  0  0  0
   24.1941  -20.6919   -7.9734 C   0  0  0  0  0  0  0  0  0  0  0  0
   23.2511  -21.0744   -9.0849 C   0  0  2  0  0  0  0  0  0  0  0  0
   23.3813  -20.1344  -10.1972 N   0  0  0  0  0  0  0  0  0  0  0  0
   21.8595  -21.0733   -8.5780 C   0  0  0  0  0  0  0  0  0  0  0  0
   21.1259  -20.0667   -8.4838 O   0  0  0  0  0  0  0  0  0  0  0  0
   19.3759  -24.3454   -8.8379 C   0  0  0  0  0  0  0  0  0  0  0  0
   18.8946  -22.9438   -8.5478 C   0  0  2  0  0  0  0  0  0  0  0  0
   18.8221  -22.2161   -9.8782 C   0  0  0  0  0  0  0  0  0  0  0  0
   19.8633  -22.2990   -7.6112 C   0  0  2  0  0  0  0  0  0  0  0  0
   21.2246  -22.2949   -8.1365 N   0  0  0  0  0  0  0  0  0  0  0  0
   19.9271  -23.0747   -6.3494 C   0  0  0  0  0  0  0  0  0  0  0  0
   18.8544  -23.0381   -5.4777 O   0  0  0  0  0  0  0  0  0  0  0  0
   20.9111  -23.7789   -6.0095 O   0  0  0  0  0  0  0  0  0  0  0  0
  2  1  1  6
  2  3  1  0
  4  3  1  0
  5  4  1  0
  6  5  1  0
  7  6  1  0
  8  9  2  0
  8  2  1  0
 10 11  1  0
 11 12  1  0
 13 12  1  0
 14 13  1  1
 14 15  1  0
 15  8  1  0
 16 22  1  0
 16 14  1  0
 17 16  2  0
 19 18  1  6
 19 21  1  0
 20 19  1  0
 21 22  1  6
 21 23  1  0
 23 24  1  0
 25 23  2  0
M  END
$$$$
