KMV.pdb
     RDKit          3D

 25 24  0  0  1  0  0  0  0  0999 V2000
   27.0601  -21.8656  -14.5472 N   0  0  0  0  0  0  0  0  0  0  0  0
   27.2431  -20.6624  -13.7214 C   0  0  1  0  0  0  0  0  0  0  0  0
   26.4884  -19.4964  -14.3220 C   0  0  0  0  0  0  0  0  0  0  0  0
   25.3808  -19.8942  -15.2350 C   0  0  0  0  0  0  0  0  0  0  0  0
   25.1638  -19.0103  -16.4165 C   0  0  0  0  0  0  0  0  0  0  0  0
   24.0146  -19.4542  -17.2567 C   0  0  0  0  0  0  0  0  0  0  0  0
   23.8058  -18.5863  -18.3661 N   0  0  0  0  0  0  0  0  0  0  0  0
   26.7209  -20.9748  -12.3833 C   0  0  0  0  0  0  0  0  0  0  0  0
   25.8249  -21.8872  -12.3107 O   0  0  0  0  0  0  0  0  0  0  0  0
   29.1605  -19.8482   -6.3654 C   0  0  0  0  0  0  0  0  0  0  0  0
   27.4266  -19.4251   -6.1543 S   0  0  0  0  0  0  0  0  0  0  0  0
   26.4883  -20.2773   -7.5033 C   0  0  0  0  0  0  0  0  0  0  0  0
   27.0848  -19.8577   -8.8159 C   0  0  0  0  0  0  0  0  0  0  0  0
   26.4357  -20.5998   -9.9555 C   0  0  2  0  0  0  0  0  0  0  0  0
   27.1520  -20.3296  -11.2011 N   0  0  0  0  0  0  0  0  0  0  0  0
   25.0212  -20.1790  -10.0806 C   0  0  0  0  0  0  0  0  0  0  0  0
   24.6200  -19.1677  -10.6941 O   0  0  0  0  0  0  0  0  0  0  0  0
   22.8132  -20.3540  -12.1374 C   0  0  0  0  0  0  0  0  0  0  0  0
   22.1024  -21.1452  -11.0655 C   0  0  2  0  0  0  0  0  0  0  0  0
   20.6133  -20.9365  -11.2750 C   0  0  0  0  0  0  0  0  0  0  0  0
   22.5542  -20.6428   -9.7333 C   0  0  2  0  0  0  0  0  0  0  0  0
   23.9573  -20.9461   -9.4722 N   0  0  0  0  0  0  0  0  0  0  0  0
   21.7939  -21.3265   -8.6597 C   0  0  0  0  0  0  0  0  0  0  0  0
   20.4724  -20.9825   -8.4421 O   0  0  0  0  0  0  0  0  0  0  0  0
   22.2784  -22.2170   -7.9168 O   0  0  0  0  0  0  0  0  0  0  0  0
  2  1  1  6
  2  3  1  0
  4  3  1  0
  5  4  1  0
  6  5  1  0
  7  6  1  0
  8  9  2  0
  8  2  1  0
 10 11  1  0
 11 12  1  0
 13 12  1  0
 14 13  1  1
 14 15  1  0
 15  8  1  0
 16 22  1  0
 16 14  1  0
 17 16  2  0
 19 18  1  6
 19 21  1  0
 20 19  1  0
 21 22  1  1
 21 23  1  0
 23 24  1  0
 25 23  2  0
M  END
$$$$
