KMV.pdb
     RDKit          3D

 25 24  0  0  1  0  0  0  0  0999 V2000
   28.1675  -21.1749  -16.2184 N   0  0  0  0  0  0  0  0  0  0  0  0
   27.8176  -20.1146  -15.2610 C   0  0  1  0  0  0  0  0  0  0  0  0
   27.1260  -18.9734  -15.9743 C   0  0  0  0  0  0  0  0  0  0  0  0
   28.0478  -17.9015  -16.4435 C   0  0  0  0  0  0  0  0  0  0  0  0
   29.1372  -18.3385  -17.3636 C   0  0  0  0  0  0  0  0  0  0  0  0
   30.0424  -17.2175  -17.7477 C   0  0  0  0  0  0  0  0  0  0  0  0
   31.1795  -17.6809  -18.4688 N   0  0  0  0  0  0  0  0  0  0  0  0
   26.9191  -20.7140  -14.2640 C   0  0  0  0  0  0  0  0  0  0  0  0
   26.1209  -21.6258  -14.6789 O   0  0  0  0  0  0  0  0  0  0  0  0
   26.1365  -19.3249   -7.7507 C   0  0  0  0  0  0  0  0  0  0  0  0
   25.8297  -21.0870   -7.9263 S   0  0  0  0  0  0  0  0  0  0  0  0
   25.2734  -21.3735   -9.6684 C   0  0  0  0  0  0  0  0  0  0  0  0
   26.2484  -20.6887  -10.5823 C   0  0  0  0  0  0  0  0  0  0  0  0
   25.8963  -20.9476  -12.0244 C   0  0  2  0  0  0  0  0  0  0  0  0
   26.8961  -20.3391  -12.9007 N   0  0  0  0  0  0  0  0  0  0  0  0
   24.5562  -20.3888  -12.3165 C   0  0  0  0  0  0  0  0  0  0  0  0
   24.3070  -19.1836  -12.5299 O   0  0  0  0  0  0  0  0  0  0  0  0
   20.7561  -20.7161  -15.0054 C   0  0  0  0  0  0  0  0  0  0  0  0
   22.0709  -21.2050  -14.4463 C   0  0  2  0  0  0  0  0  0  0  0  0
   22.0858  -22.7147  -14.6053 C   0  0  0  0  0  0  0  0  0  0  0  0
   22.1535  -20.7943  -13.0125 C   0  0  2  0  0  0  0  0  0  0  0  0
   23.3892  -21.2401  -12.3774 N   0  0  0  0  0  0  0  0  0  0  0  0
   21.0591  -21.4378  -12.2467 C   0  0  0  0  0  0  0  0  0  0  0  0
   19.7720  -20.9460  -12.3629 O   0  0  0  0  0  0  0  0  0  0  0  0
   21.2242  -22.4213  -11.4817 O   0  0  0  0  0  0  0  0  0  0  0  0
  2  1  1  6
  2  3  1  0
  4  3  1  0
  5  4  1  0
  6  5  1  0
  7  6  1  0
  8  9  2  0
  8  2  1  0
 10 11  1  0
 11 12  1  0
 13 12  1  0
 14 13  1  1
 14 15  1  0
 15  8  1  0
 16 22  1  0
 16 14  1  0
 17 16  2  0
 19 18  1  1
 19 21  1  0
 20 19  1  0
 21 22  1  1
 21 23  1  0
 23 24  1  0
 25 23  2  0
M  END
$$$$
