KMV.pdb
     RDKit          3D

 25 24  0  0  1  0  0  0  0  0999 V2000
   28.1164  -20.5531  -15.9336 N   0  0  0  0  0  0  0  0  0  0  0  0
   27.0875  -21.5731  -16.1870 C   0  0  1  0  0  0  0  0  0  0  0  0
   27.7352  -22.8813  -16.5857 C   0  0  0  0  0  0  0  0  0  0  0  0
   28.6315  -22.7798  -17.7711 C   0  0  0  0  0  0  0  0  0  0  0  0
   29.7789  -21.8363  -17.6389 C   0  0  0  0  0  0  0  0  0  0  0  0
   30.4075  -21.5162  -18.9526 C   0  0  0  0  0  0  0  0  0  0  0  0
   30.4448  -22.6522  -19.8105 N   0  0  0  0  0  0  0  0  0  0  0  0
   26.3279  -21.7379  -14.9394 C   0  0  0  0  0  0  0  0  0  0  0  0
   25.3435  -22.5570  -14.9655 O   0  0  0  0  0  0  0  0  0  0  0  0
   25.4774  -20.8582   -7.2032 C   0  0  0  0  0  0  0  0  0  0  0  0
   26.4922  -20.4623   -8.6327 S   0  0  0  0  0  0  0  0  0  0  0  0
   25.5579  -21.0093  -10.1341 C   0  0  0  0  0  0  0  0  0  0  0  0
   26.4291  -20.7671  -11.3329 C   0  0  0  0  0  0  0  0  0  0  0  0
   25.7411  -21.2294  -12.5914 C   0  0  2  0  0  0  0  0  0  0  0  0
   26.6268  -21.0499  -13.7407 N   0  0  0  0  0  0  0  0  0  0  0  0
   24.4919  -20.4582  -12.7864 C   0  0  0  0  0  0  0  0  0  0  0  0
   24.4137  -19.2130  -12.8468 O   0  0  0  0  0  0  0  0  0  0  0  0
   22.3982  -20.3024  -15.6480 C   0  0  0  0  0  0  0  0  0  0  0  0
   21.4381  -20.7634  -14.5775 C   0  0  2  0  0  0  0  0  0  0  0  0
   20.1108  -20.0777  -14.8478 C   0  0  0  0  0  0  0  0  0  0  0  0
   22.0010  -20.3844  -13.2468 C   0  0  2  0  0  0  0  0  0  0  0  0
   23.2168  -21.1251  -12.9269 N   0  0  0  0  0  0  0  0  0  0  0  0
   21.0323  -20.7317  -12.1795 C   0  0  0  0  0  0  0  0  0  0  0  0
   20.1116  -19.7859  -11.7675 O   0  0  0  0  0  0  0  0  0  0  0  0
   20.9892  -21.8515  -11.6104 O   0  0  0  0  0  0  0  0  0  0  0  0
  2  1  1  1
  2  3  1  0
  4  3  1  0
  5  4  1  0
  6  5  1  0
  7  6  1  0
  8  9  2  0
  8  2  1  0
 10 11  1  0
 11 12  1  0
 13 12  1  0
 14 13  1  1
 14 15  1  0
 15  8  1  0
 16 22  1  0
 16 14  1  0
 17 16  2  0
 19 18  1  6
 19 21  1  0
 20 19  1  0
 21 22  1  1
 21 23  1  0
 23 24  1  0
 25 23  2  0
M  END
$$$$
