KMV.pdb
     RDKit          3D

 25 24  0  0  1  0  0  0  0  0999 V2000
   20.9695  -19.7294  -12.1214 N   0  0  0  0  0  0  0  0  0  0  0  0
   21.8272  -20.9080  -11.9250 C   0  0  1  0  0  0  0  0  0  0  0  0
   21.6987  -21.8501  -13.1022 C   0  0  0  0  0  0  0  0  0  0  0  0
   20.3725  -22.5209  -13.2025 C   0  0  0  0  0  0  0  0  0  0  0  0
   19.8125  -23.0471  -11.9243 C   0  0  0  0  0  0  0  0  0  0  0  0
   18.5588  -23.8277  -12.1302 C   0  0  0  0  0  0  0  0  0  0  0  0
   18.0855  -24.3965  -10.9136 N   0  0  0  0  0  0  0  0  0  0  0  0
   23.2090  -20.4204  -11.8087 C   0  0  0  0  0  0  0  0  0  0  0  0
   23.5680  -19.4998  -12.6237 O   0  0  0  0  0  0  0  0  0  0  0  0
   28.1785  -19.8169   -7.2487 C   0  0  0  0  0  0  0  0  0  0  0  0
   26.5495  -20.5192   -6.9611 S   0  0  0  0  0  0  0  0  0  0  0  0
   25.5327  -20.1759   -8.4693 C   0  0  0  0  0  0  0  0  0  0  0  0
   26.2427  -20.7737   -9.6497 C   0  0  0  0  0  0  0  0  0  0  0  0
   25.5203  -20.4389  -10.9292 C   0  0  2  0  0  0  0  0  0  0  0  0
   24.1378  -20.9096  -10.8612 N   0  0  0  0  0  0  0  0  0  0  0  0
   26.2173  -21.0709  -12.0730 C   0  0  0  0  0  0  0  0  0  0  0  0
   26.4687  -22.2896  -12.1817 O   0  0  0  0  0  0  0  0  0  0  0  0
   25.3438  -22.5065  -14.6818 C   0  0  0  0  0  0  0  0  0  0  0  0
   26.0555  -21.3383  -15.3216 C   0  0  2  0  0  0  0  0  0  0  0  0
   26.5715  -21.8168  -16.6668 C   0  0  0  0  0  0  0  0  0  0  0  0
   27.1657  -20.9124  -14.4176 C   0  0  2  0  0  0  0  0  0  0  0  0
   26.6763  -20.2835  -13.1953 N   0  0  0  0  0  0  0  0  0  0  0  0
   27.9890  -19.8806  -15.0926 C   0  0  0  0  0  0  0  0  0  0  0  0
   28.8248  -20.2534  -16.1292 O   0  0  0  0  0  0  0  0  0  0  0  0
   27.9798  -18.6631  -14.7806 O   0  0  0  0  0  0  0  0  0  0  0  0
  2  1  1  6
  2  3  1  0
  4  3  1  0
  5  4  1  0
  6  5  1  0
  7  6  1  0
  8  9  2  0
  8  2  1  0
 10 11  1  0
 11 12  1  0
 13 12  1  0
 14 13  1  1
 14 15  1  0
 15  8  1  0
 16 22  1  0
 16 14  1  0
 17 16  2  0
 19 18  1  1
 19 21  1  0
 20 19  1  0
 21 22  1  1
 21 23  1  0
 23 24  1  0
 25 23  2  0
M  END
$$$$
