RVC.pdb
     RDKit          3D

 25 24  0  0  1  0  0  0  0  0999 V2000
    9.7030  -13.7922   19.1488 N   0  0  0  0  0  0  0  0  0  0  0  0
    8.7372  -13.8183   18.0926 C   0  0  0  0  0  0  0  0  0  0  0  0
    8.7776  -12.9043   17.1810 N   0  0  0  0  0  0  0  0  0  0  0  0
    7.7636  -14.8419   18.0705 N   0  0  0  0  0  0  0  0  0  0  0  0
    6.8795  -14.9733   19.2351 C   0  0  0  0  0  0  0  0  0  0  0  0
    6.9945  -16.3190   19.8540 C   0  0  0  0  0  0  0  0  0  0  0  0
    7.8245  -16.4341   21.0866 C   0  0  0  0  0  0  0  0  0  0  0  0
    7.0582  -16.3886   22.3577 C   0  0  2  0  0  0  0  0  0  0  0  0
    5.6794  -15.9964   22.0987 N   0  0  0  0  0  0  0  0  0  0  0  0
    7.6091  -15.3734   23.3078 C   0  0  0  0  0  0  0  0  0  0  0  0
    8.2536  -14.3778   22.9001 O   0  0  0  0  0  0  0  0  0  0  0  0
    8.0842  -12.9076   16.4030 C   0  0  0  0  0  0  0  0  0  0  0  0
    6.1692  -13.0655   25.5956 C   0  0  1  0  0  0  0  0  0  0  0  0
    7.1059  -13.8453   26.4550 C   0  0  0  0  0  0  0  0  0  0  0  0
    7.7397  -13.0051   27.5414 C   0  0  2  0  0  0  0  0  0  0  0  0
    8.1100  -14.5958   25.6469 N   0  0  0  0  0  0  0  0  0  0  0  0
    7.4338  -15.4788   24.7343 C   0  0  0  0  0  0  0  0  0  0  0  0
    8.9569  -15.4301   26.5449 O   0  0  0  0  0  0  0  0  0  0  0  0
    8.5520  -16.5236   27.0341 N   0  0  0  0  0  0  0  0  0  0  0  0
   10.2786  -15.0338   26.8998 C   0  0  2  0  0  0  0  0  0  0  0  0
   11.1493  -15.8753   27.7110 C   0  0  0  0  0  0  0  0  0  0  0  0
   12.5107  -15.2423   27.8936 S   0  0  0  0  0  0  0  0  0  0  0  0
   12.3673  -13.4887   28.2562 C   0  0  0  0  0  0  0  0  0  0  0  0
   10.5363  -15.9880   29.0585 O   0  0  0  0  0  0  0  0  0  0  0  0
   10.9661  -16.9541   29.9883 O   0  0  0  0  0  0  0  0  0  0  0  0
  2  1  1  0
  3  2  2  0
  4  2  1  0
  5  4  1  0
  6  5  1  0
  7  6  1  0
  8 10  1  0
  8  7  1  0
  8  9  1  6
 10 11  2  0
 10 16  1  0
 13 14  1  1
 13 12  1  0
 15 13  1  0
 15 16  1  6
 17 18  2  0
 17 15  1  0
 19 17  1  0
 20 19  1  0
 20 21  1  1
 21 22  1  0
 23 20  1  0
 24 23  1  0
 25 23  2  0
M  END
$$$$
