RVC.pdb
     RDKit          3D

 25 24  0  0  1  0  0  0  0  0999 V2000
    8.4157  -14.9567   15.8469 N   0  0  0  0  0  0  0  0  0  0  0  0
    8.0612  -14.0704   16.9136 C   0  0  0  0  0  0  0  0  0  0  0  0
    8.2782  -12.8044   16.7775 N   0  0  0  0  0  0  0  0  0  0  0  0
    7.4823  -14.5990   18.0889 N   0  0  0  0  0  0  0  0  0  0  0  0
    7.1069  -13.6588   19.1519 C   0  0  0  0  0  0  0  0  0  0  0  0
    7.5640  -14.1347   20.4830 C   0  0  0  0  0  0  0  0  0  0  0  0
    8.2346  -15.4645   20.5385 C   0  0  0  0  0  0  0  0  0  0  0  0
    8.0941  -16.1773   21.8336 C   0  0  2  0  0  0  0  0  0  0  0  0
    6.6923  -16.4789   22.0909 N   0  0  0  0  0  0  0  0  0  0  0  0
    8.5596  -15.3440   22.9850 C   0  0  0  0  0  0  0  0  0  0  0  0
    9.6881  -14.7969   22.9825 O   0  0  0  0  0  0  0  0  0  0  0  0
    8.7968  -12.4469   15.9473 C   0  0  0  0  0  0  0  0  0  0  0  0
    6.5154  -12.6533   24.9085 C   0  0  1  0  0  0  0  0  0  0  0  0
    7.1253  -13.5952   25.8908 C   0  0  0  0  0  0  0  0  0  0  0  0
    7.5238  -12.9162   27.1823 C   0  0  2  0  0  0  0  0  0  0  0  0
    8.2369  -14.3863   25.2884 N   0  0  0  0  0  0  0  0  0  0  0  0
    7.7467  -15.1233   24.1542 C   0  0  0  0  0  0  0  0  0  0  0  0
    8.7517  -15.3693   26.2826 O   0  0  0  0  0  0  0  0  0  0  0  0
    8.1749  -16.4723   26.5051 N   0  0  0  0  0  0  0  0  0  0  0  0
    9.9316  -15.1131   27.0389 C   0  0  1  0  0  0  0  0  0  0  0  0
   10.5107  -16.1073   27.9335 C   0  0  0  0  0  0  0  0  0  0  0  0
   11.9051  -16.4955   27.4946 S   0  0  0  0  0  0  0  0  0  0  0  0
   12.8900  -15.0445   27.1052 C   0  0  0  0  0  0  0  0  0  0  0  0
   10.6331  -15.4858   29.2763 O   0  0  0  0  0  0  0  0  0  0  0  0
   11.0080  -16.2360   30.4073 O   0  0  0  0  0  0  0  0  0  0  0  0
  2  1  1  0
  3  2  2  0
  4  2  1  0
  5  4  1  0
  6  5  1  0
  7  6  1  0
  8 10  1  0
  8  7  1  0
  8  9  1  1
 10 11  2  0
 10 16  1  0
 13 14  1  1
 13 12  1  0
 15 13  1  0
 15 16  1  6
 17 18  2  0
 17 15  1  0
 19 17  1  0
 20 19  1  0
 20 21  1  1
 21 22  1  0
 23 20  1  0
 24 23  1  0
 25 23  2  0
M  END
$$$$
