RVC.pdb
     RDKit          3D

 25 24  0  0  1  0  0  0  0  0999 V2000
    8.1533  -13.1293   17.2816 N   0  0  0  0  0  0  0  0  0  0  0  0
    9.2789  -13.7112   17.9476 C   0  0  0  0  0  0  0  0  0  0  0  0
   10.1045  -12.9417   18.5757 N   0  0  0  0  0  0  0  0  0  0  0  0
    9.4608  -15.1115   17.9037 N   0  0  0  0  0  0  0  0  0  0  0  0
    9.0083  -15.8988   19.0572 C   0  0  0  0  0  0  0  0  0  0  0  0
    7.7465  -15.3555   19.6229 C   0  0  0  0  0  0  0  0  0  0  0  0
    6.6915  -16.3370   20.0036 C   0  0  0  0  0  0  0  0  0  0  0  0
    7.1308  -17.3788   20.9662 C   0  0  2  0  0  0  0  0  0  0  0  0
    6.5352  -18.6629   20.6224 N   0  0  0  0  0  0  0  0  0  0  0  0
    6.6883  -17.0741   22.3620 C   0  0  0  0  0  0  0  0  0  0  0  0
    5.4732  -17.0397   22.6702 O   0  0  0  0  0  0  0  0  0  0  0  0
   10.9588  -13.3399   19.0202 C   0  0  0  0  0  0  0  0  0  0  0  0
    8.9994  -17.8210   25.8084 C   0  0  1  0  0  0  0  0  0  0  0  0
    7.5253  -17.6467   25.6645 C   0  0  0  0  0  0  0  0  0  0  0  0
    6.8195  -18.9286   25.2819 C   0  0  1  0  0  0  0  0  0  0  0  0
    7.1839  -16.5091   24.7624 N   0  0  0  0  0  0  0  0  0  0  0  0
    7.6234  -16.8040   23.4246 C   0  0  0  0  0  0  0  0  0  0  0  0
    7.8922  -15.2785   25.2138 O   0  0  0  0  0  0  0  0  0  0  0  0
    9.0657  -14.9961   24.8369 N   0  0  0  0  0  0  0  0  0  0  0  0
    7.2759  -14.3492   26.1005 C   0  0  2  0  0  0  0  0  0  0  0  0
    7.9570  -13.1445   26.5577 C   0  0  0  0  0  0  0  0  0  0  0  0
    6.9681  -12.0711   26.9544 S   0  0  0  0  0  0  0  0  0  0  0  0
    5.6673  -12.7408   27.9967 C   0  0  0  0  0  0  0  0  0  0  0  0
    8.7278  -13.4994   27.7759 O   0  0  0  0  0  0  0  0  0  0  0  0
    9.6327  -12.5975   28.3678 O   0  0  0  0  0  0  0  0  0  0  0  0
  2  1  1  0
  3  2  2  0
  4  2  1  0
  5  4  1  0
  6  5  1  0
  7  6  1  0
  8 10  1  0
  8  7  1  0
  8  9  1  6
 10 11  2  0
 10 16  1  0
 13 14  1  6
 13 12  1  0
 15 13  1  0
 15 16  1  6
 17 18  2  0
 17 15  1  0
 19 17  1  0
 20 19  1  0
 20 21  1  1
 21 22  1  0
 23 20  1  0
 24 23  1  0
 25 23  2  0
M  END
$$$$
