RVC.pdb
     RDKit          3D

 25 24  0  0  1  0  0  0  0  0999 V2000
    8.6251  -21.2757   21.4764 N   0  0  0  0  0  0  0  0  0  0  0  0
    7.3895  -21.0858   20.7790 C   0  0  0  0  0  0  0  0  0  0  0  0
    7.0320  -21.9489   19.8871 N   0  0  0  0  0  0  0  0  0  0  0  0
    6.5899  -19.9612   21.0818 N   0  0  0  0  0  0  0  0  0  0  0  0
    7.1526  -18.9388   21.9724 C   0  0  0  0  0  0  0  0  0  0  0  0
    8.3954  -18.3524   21.4076 C   0  0  0  0  0  0  0  0  0  0  0  0
    9.1184  -17.3520   22.2429 C   0  0  0  0  0  0  0  0  0  0  0  0
    8.5802  -15.9705   22.1621 C   0  0  2  0  0  0  0  0  0  0  0  0
    9.1631  -15.2705   21.0253 N   0  0  0  0  0  0  0  0  0  0  0  0
    8.9271  -15.1625   23.3719 C   0  0  0  0  0  0  0  0  0  0  0  0
   10.1158  -14.8701   23.6445 O   0  0  0  0  0  0  0  0  0  0  0  0
    6.1622  -21.8011   19.3324 C   0  0  0  0  0  0  0  0  0  0  0  0
    6.5698  -12.2315   24.9286 C   0  0  2  0  0  0  0  0  0  0  0  0
    7.0875  -13.1790   25.9573 C   0  0  0  0  0  0  0  0  0  0  0  0
    7.3256  -12.5160   27.2958 C   0  0  2  0  0  0  0  0  0  0  0  0
    8.2760  -13.9366   25.4695 N   0  0  0  0  0  0  0  0  0  0  0  0
    7.9253  -14.6776   24.2873 C   0  0  0  0  0  0  0  0  0  0  0  0
    8.7111  -14.9132   26.5071 O   0  0  0  0  0  0  0  0  0  0  0  0
    8.0007  -15.9032   26.8452 N   0  0  0  0  0  0  0  0  0  0  0  0
    9.9619  -14.7794   27.1760 C   0  0  1  0  0  0  0  0  0  0  0  0
   10.4121  -15.7371   28.1782 C   0  0  0  0  0  0  0  0  0  0  0  0
   11.8542  -16.1327   27.9515 S   0  0  0  0  0  0  0  0  0  0  0  0
   12.1575  -16.5160   26.2229 C   0  0  0  0  0  0  0  0  0  0  0  0
   10.3463  -15.0667   29.5012 O   0  0  0  0  0  0  0  0  0  0  0  0
   10.6099  -15.7620   30.6969 O   0  0  0  0  0  0  0  0  0  0  0  0
  2  1  1  0
  3  2  2  0
  4  2  1  0
  5  4  1  0
  6  5  1  0
  7  6  1  0
  8 10  1  0
  8  7  1  0
  8  9  1  6
 10 11  2  0
 10 16  1  0
 13 14  1  6
 13 12  1  0
 15 13  1  0
 15 16  1  6
 17 18  2  0
 17 15  1  0
 19 17  1  0
 20 19  1  0
 20 21  1  1
 21 22  1  0
 23 20  1  0
 24 23  1  0
 25 23  2  0
M  END
$$$$
