RVC.pdb
     RDKit          3D

 25 24  0  0  1  0  0  0  0  0999 V2000
    7.7282  -13.2367   16.5205 N   0  0  0  0  0  0  0  0  0  0  0  0
    7.5625  -14.5270   15.9231 C   0  0  0  0  0  0  0  0  0  0  0  0
    6.9857  -14.6169   14.7710 N   0  0  0  0  0  0  0  0  0  0  0  0
    8.0334  -15.6709   16.6055 N   0  0  0  0  0  0  0  0  0  0  0  0
    8.6596  -15.4772   17.9190 C   0  0  0  0  0  0  0  0  0  0  0  0
    7.6405  -15.2704   18.9802 C   0  0  0  0  0  0  0  0  0  0  0  0
    8.1349  -15.0872   20.3742 C   0  0  0  0  0  0  0  0  0  0  0  0
    7.7703  -13.7894   20.9969 C   0  0  2  0  0  0  0  0  0  0  0  0
    8.3024  -12.6869   20.2073 N   0  0  0  0  0  0  0  0  0  0  0  0
    8.3537  -13.6415   22.3661 C   0  0  0  0  0  0  0  0  0  0  0  0
    9.5769  -13.4230   22.5358 O   0  0  0  0  0  0  0  0  0  0  0  0
    6.8503  -15.5480   14.3228 C   0  0  0  0  0  0  0  0  0  0  0  0
    7.7886  -12.5910   27.0984 C   0  0  1  0  0  0  0  0  0  0  0  0
    7.2015  -12.8382   25.7501 C   0  0  0  0  0  0  0  0  0  0  0  0
    5.8185  -13.4471   25.8172 C   0  0  2  0  0  0  0  0  0  0  0  0
    8.1284  -13.6080   24.8710 N   0  0  0  0  0  0  0  0  0  0  0  0
    7.5522  -13.7411   23.5595 C   0  0  0  0  0  0  0  0  0  0  0  0
    8.3249  -14.9777   25.4235 O   0  0  0  0  0  0  0  0  0  0  0  0
    7.4443  -15.8798   25.3259 N   0  0  0  0  0  0  0  0  0  0  0  0
    9.5272  -15.3429   26.0950 C   0  0  1  0  0  0  0  0  0  0  0  0
    9.7840  -16.7070   26.5392 C   0  0  0  0  0  0  0  0  0  0  0  0
   11.0804  -17.2363   25.9676 S   0  0  0  0  0  0  0  0  0  0  0  0
   11.5047  -18.8269   26.6866 C   0  0  0  0  0  0  0  0  0  0  0  0
    9.9382  -16.6768   28.0155 O   0  0  0  0  0  0  0  0  0  0  0  0
    9.7265  -17.8232   28.8052 O   0  0  0  0  0  0  0  0  0  0  0  0
  2  1  1  0
  3  2  2  0
  4  2  1  0
  5  4  1  0
  6  5  1  0
  7  6  1  0
  8 10  1  0
  8  7  1  0
  8  9  1  6
 10 11  2  0
 10 16  1  0
 13 14  1  1
 13 12  1  0
 15 13  1  0
 15 16  1  1
 17 18  2  0
 17 15  1  0
 19 17  1  0
 20 19  1  0
 20 21  1  1
 21 22  1  0
 23 20  1  0
 24 23  1  0
 25 23  2  0
M  END
$$$$
