RVC.pdb
     RDKit          3D

 25 24  0  0  1  0  0  0  0  0999 V2000
    7.1073  -13.6711   15.9012 N   0  0  0  0  0  0  0  0  0  0  0  0
    8.4550  -14.0976   16.1270 C   0  0  0  0  0  0  0  0  0  0  0  0
    9.1942  -14.4079   15.1144 N   0  0  0  0  0  0  0  0  0  0  0  0
    8.9458  -14.1687   17.4500 N   0  0  0  0  0  0  0  0  0  0  0  0
    7.9702  -14.1358   18.5465 C   0  0  0  0  0  0  0  0  0  0  0  0
    7.9343  -15.4279   19.2790 C   0  0  0  0  0  0  0  0  0  0  0  0
    6.9672  -15.5459   20.4068 C   0  0  0  0  0  0  0  0  0  0  0  0
    6.9531  -16.8710   21.0767 C   0  0  2  0  0  0  0  0  0  0  0  0
    5.8701  -17.6892   20.5479 N   0  0  0  0  0  0  0  0  0  0  0  0
    6.7067  -16.7527   22.5472 C   0  0  0  0  0  0  0  0  0  0  0  0
    5.5568  -16.5469   23.0033 O   0  0  0  0  0  0  0  0  0  0  0  0
   10.1839  -14.7015   15.2571 C   0  0  0  0  0  0  0  0  0  0  0  0
    7.3393  -19.1764   25.1939 C   0  0  1  0  0  0  0  0  0  0  0  0
    8.0223  -17.9308   25.6476 C   0  0  0  0  0  0  0  0  0  0  0  0
    7.9993  -17.7656   27.1510 C   0  0  2  0  0  0  0  0  0  0  0  0
    7.5194  -16.7254   24.9274 N   0  0  0  0  0  0  0  0  0  0  0  0
    7.7663  -16.8666   23.5172 C   0  0  0  0  0  0  0  0  0  0  0  0
    8.2503  -15.5158   25.3990 O   0  0  0  0  0  0  0  0  0  0  0  0
    9.4638  -15.3040   25.1139 N   0  0  0  0  0  0  0  0  0  0  0  0
    7.6114  -14.5273   26.2020 C   0  0  1  0  0  0  0  0  0  0  0  0
    8.3388  -13.3973   26.7661 C   0  0  0  0  0  0  0  0  0  0  0  0
    7.4002  -12.2732   27.1442 S   0  0  0  0  0  0  0  0  0  0  0  0
    6.1621  -12.0059   25.8704 C   0  0  0  0  0  0  0  0  0  0  0  0
    8.9896  -13.8618   28.0170 O   0  0  0  0  0  0  0  0  0  0  0  0
    9.9217  -13.0630   28.7068 O   0  0  0  0  0  0  0  0  0  0  0  0
  2  1  1  0
  3  2  2  0
  4  2  1  0
  5  4  1  0
  6  5  1  0
  7  6  1  0
  8 10  1  0
  8  7  1  0
  8  9  1  6
 10 11  2  0
 10 16  1  0
 13 14  1  6
 13 12  1  0
 15 13  1  0
 15 16  1  1
 17 18  2  0
 17 15  1  0
 19 17  1  0
 20 19  1  0
 20 21  1  1
 21 22  1  0
 23 20  1  0
 24 23  1  0
 25 23  2  0
M  END
$$$$
