RVC.pdb
     RDKit          3D

 25 24  0  0  1  0  0  0  0  0999 V2000
    8.8030  -12.6981   18.2891 N   0  0  0  0  0  0  0  0  0  0  0  0
    8.1574  -13.6124   17.3966 C   0  0  0  0  0  0  0  0  0  0  0  0
    8.5933  -13.7225   16.1858 N   0  0  0  0  0  0  0  0  0  0  0  0
    7.0605  -14.3730   17.8596 N   0  0  0  0  0  0  0  0  0  0  0  0
    6.9771  -14.6516   19.2985 C   0  0  0  0  0  0  0  0  0  0  0  0
    7.8688  -15.7752   19.6857 C   0  0  0  0  0  0  0  0  0  0  0  0
    8.9116  -15.4954   20.7130 C   0  0  0  0  0  0  0  0  0  0  0  0
    8.7676  -16.2708   21.9711 C   0  0  2  0  0  0  0  0  0  0  0  0
    7.3973  -16.7436   22.1152 N   0  0  0  0  0  0  0  0  0  0  0  0
    9.0499  -15.4356   23.1793 C   0  0  0  0  0  0  0  0  0  0  0  0
   10.1429  -14.8368   23.3198 O   0  0  0  0  0  0  0  0  0  0  0  0
    8.1074  -14.3470   15.5076 C   0  0  0  0  0  0  0  0  0  0  0  0
    6.3417  -13.2044   25.0769 C   0  0  1  0  0  0  0  0  0  0  0  0
    7.1428  -14.0091   26.0437 C   0  0  0  0  0  0  0  0  0  0  0  0
    7.3804  -13.2860   27.3508 C   0  0  2  0  0  0  0  0  0  0  0  0
    8.4021  -14.5233   25.4321 N   0  0  0  0  0  0  0  0  0  0  0  0
    8.0918  -15.2717   24.2432 C   0  0  0  0  0  0  0  0  0  0  0  0
    9.0851  -15.4434   26.3843 O   0  0  0  0  0  0  0  0  0  0  0  0
    8.7869  -16.6690   26.4732 N   0  0  0  0  0  0  0  0  0  0  0  0
   10.1191  -14.9836   27.2500 C   0  0  2  0  0  0  0  0  0  0  0  0
   10.8803  -15.8908   28.0995 C   0  0  0  0  0  0  0  0  0  0  0  0
   11.8461  -15.1346   28.9844 S   0  0  0  0  0  0  0  0  0  0  0  0
   11.0237  -13.7834   29.8358 C   0  0  0  0  0  0  0  0  0  0  0  0
    9.9179  -16.5816   28.9942 O   0  0  0  0  0  0  0  0  0  0  0  0
   10.2971  -17.6924   29.7721 O   0  0  0  0  0  0  0  0  0  0  0  0
  2  1  1  0
  3  2  2  0
  4  2  1  0
  5  4  1  0
  6  5  1  0
  7  6  1  0
  8 10  1  0
  8  7  1  0
  8  9  1  1
 10 11  2  0
 10 16  1  0
 13 14  1  6
 13 12  1  0
 15 13  1  0
 15 16  1  6
 17 18  2  0
 17 15  1  0
 19 17  1  0
 20 19  1  0
 20 21  1  6
 21 22  1  0
 23 20  1  0
 24 23  1  0
 25 23  2  0
M  END
$$$$
