RVC.pdb
     RDKit          3D

 25 24  0  0  1  0  0  0  0  0999 V2000
    8.7908  -14.3184   17.2990 N   0  0  0  0  0  0  0  0  0  0  0  0
    7.7085  -13.7779   18.0643 C   0  0  0  0  0  0  0  0  0  0  0  0
    7.7927  -12.5661   18.5034 N   0  0  0  0  0  0  0  0  0  0  0  0
    6.5743  -14.5801   18.3210 N   0  0  0  0  0  0  0  0  0  0  0  0
    6.2614  -14.8989   19.7194 C   0  0  0  0  0  0  0  0  0  0  0  0
    6.9588  -16.1335   20.1631 C   0  0  0  0  0  0  0  0  0  0  0  0
    7.7580  -16.0518   21.4184 C   0  0  0  0  0  0  0  0  0  0  0  0
    8.3299  -14.7116   21.7042 C   0  0  2  0  0  0  0  0  0  0  0  0
    9.5500  -14.5120   20.9338 N   0  0  0  0  0  0  0  0  0  0  0  0
    8.7151  -14.5619   23.1416 C   0  0  0  0  0  0  0  0  0  0  0  0
    9.8652  -14.8576   23.5448 O   0  0  0  0  0  0  0  0  0  0  0  0
    7.0317  -12.1674   19.0933 C   0  0  0  0  0  0  0  0  0  0  0  0
    6.8629  -11.8748   25.6597 C   0  0  1  0  0  0  0  0  0  0  0  0
    7.1215  -13.2113   26.2685 C   0  0  0  0  0  0  0  0  0  0  0  0
    7.4004  -13.1335   27.7531 C   0  0  2  0  0  0  0  0  0  0  0  0
    8.1680  -13.9699   25.5242 N   0  0  0  0  0  0  0  0  0  0  0  0
    7.7958  -14.0743   24.1385 C   0  0  0  0  0  0  0  0  0  0  0  0
    8.2744  -15.3510   26.0727 O   0  0  0  0  0  0  0  0  0  0  0  0
    7.3145  -16.1729   26.0285 N   0  0  0  0  0  0  0  0  0  0  0  0
    9.4754  -15.8193   26.6795 C   0  0  1  0  0  0  0  0  0  0  0  0
    9.5623  -17.1247   27.3217 C   0  0  0  0  0  0  0  0  0  0  0  0
   10.6052  -17.9957   26.6574 S   0  0  0  0  0  0  0  0  0  0  0  0
   10.7324  -17.6313   24.9029 C   0  0  0  0  0  0  0  0  0  0  0  0
   10.0033  -16.9074   28.7226 O   0  0  0  0  0  0  0  0  0  0  0  0
   10.1006  -17.9704   29.6409 O   0  0  0  0  0  0  0  0  0  0  0  0
  2  1  1  0
  3  2  2  0
  4  2  1  0
  5  4  1  0
  6  5  1  0
  7  6  1  0
  8 10  1  0
  8  7  1  0
  8  9  1  6
 10 11  2  0
 10 16  1  0
 13 14  1  1
 13 12  1  0
 15 13  1  0
 15 16  1  6
 17 18  2  0
 17 15  1  0
 19 17  1  0
 20 19  1  0
 20 21  1  1
 21 22  1  0
 23 20  1  0
 24 23  1  0
 25 23  2  0
M  END
$$$$
