RVC.pdb
     RDKit          3D

 25 24  0  0  1  0  0  0  0  0999 V2000
    9.8508  -14.1944   15.8522 N   0  0  0  0  0  0  0  0  0  0  0  0
    8.4276  -14.0437   15.8198 C   0  0  0  0  0  0  0  0  0  0  0  0
    7.8552  -13.7173   14.7089 N   0  0  0  0  0  0  0  0  0  0  0  0
    7.6824  -14.2558   17.0011 N   0  0  0  0  0  0  0  0  0  0  0  0
    8.3265  -13.9472   18.2836 C   0  0  0  0  0  0  0  0  0  0  0  0
    7.3923  -14.1469   19.4215 C   0  0  0  0  0  0  0  0  0  0  0  0
    7.8846  -13.7826   20.7802 C   0  0  0  0  0  0  0  0  0  0  0  0
    7.9330  -14.9096   21.7458 C   0  0  2  0  0  0  0  0  0  0  0  0
    6.5927  -15.4323   21.9748 N   0  0  0  0  0  0  0  0  0  0  0  0
    8.4471  -14.4798   23.0830 C   0  0  0  0  0  0  0  0  0  0  0  0
    9.6404  -14.1287   23.2430 O   0  0  0  0  0  0  0  0  0  0  0  0
    6.8156  -13.6872   14.6430 C   0  0  0  0  0  0  0  0  0  0  0  0
    6.5464  -12.1184   25.3901 C   0  0  1  0  0  0  0  0  0  0  0  0
    7.0783  -13.2197   26.2434 C   0  0  0  0  0  0  0  0  0  0  0  0
    7.5394  -12.7371   27.6007 C   0  0  2  0  0  0  0  0  0  0  0  0
    8.1156  -14.0231   25.5341 N   0  0  0  0  0  0  0  0  0  0  0  0
    7.6097  -14.4449   24.2551 C   0  0  0  0  0  0  0  0  0  0  0  0
    8.4330  -15.2456   26.3244 O   0  0  0  0  0  0  0  0  0  0  0  0
    7.5603  -16.1175   26.6023 N   0  0  0  0  0  0  0  0  0  0  0  0
    9.7487  -15.4959   26.8101 C   0  0  1  0  0  0  0  0  0  0  0  0
   10.0907  -16.7159   27.5305 C   0  0  0  0  0  0  0  0  0  0  0  0
   11.2832  -17.4063   26.9070 S   0  0  0  0  0  0  0  0  0  0  0  0
   11.0226  -17.6934   25.1530 C   0  0  0  0  0  0  0  0  0  0  0  0
   10.4823  -16.3283   28.9091 O   0  0  0  0  0  0  0  0  0  0  0  0
   10.7917  -17.2913   29.8887 O   0  0  0  0  0  0  0  0  0  0  0  0
  2  1  1  0
  3  2  2  0
  4  2  1  0
  5  4  1  0
  6  5  1  0
  7  6  1  0
  8 10  1  0
  8  7  1  0
  8  9  1  1
 10 11  2  0
 10 16  1  0
 13 14  1  6
 13 12  1  0
 15 13  1  0
 15 16  1  6
 17 18  2  0
 17 15  1  0
 19 17  1  0
 20 19  1  0
 20 21  1  1
 21 22  1  0
 23 20  1  0
 24 23  1  0
 25 23  2  0
M  END
$$$$
