RVC.pdb
     RDKit          3D

 25 24  0  0  1  0  0  0  0  0999 V2000
    8.2486  -17.0822   16.7570 N   0  0  0  0  0  0  0  0  0  0  0  0
    6.9882  -17.6443   17.1372 C   0  0  0  0  0  0  0  0  0  0  0  0
    6.0192  -17.6500   16.2833 N   0  0  0  0  0  0  0  0  0  0  0  0
    6.8329  -18.1800   18.4353 N   0  0  0  0  0  0  0  0  0  0  0  0
    8.0163  -18.2318   19.3024 C   0  0  0  0  0  0  0  0  0  0  0  0
    8.5042  -16.8686   19.6356 C   0  0  0  0  0  0  0  0  0  0  0  0
    8.4778  -16.4665   21.0705 C   0  0  0  0  0  0  0  0  0  0  0  0
    9.0303  -15.1163   21.3473 C   0  0  2  0  0  0  0  0  0  0  0  0
   10.3763  -15.0033   20.8017 N   0  0  0  0  0  0  0  0  0  0  0  0
    9.1512  -14.8504   22.8141 C   0  0  0  0  0  0  0  0  0  0  0  0
   10.2309  -15.0334   23.4253 O   0  0  0  0  0  0  0  0  0  0  0  0
    5.0946  -18.0560   16.5410 C   0  0  0  0  0  0  0  0  0  0  0  0
    7.0093  -12.0127   24.9124 C   0  0  2  0  0  0  0  0  0  0  0  0
    7.0108  -13.3746   25.5200 C   0  0  0  0  0  0  0  0  0  0  0  0
    6.9202  -13.3416   27.0295 C   0  0  2  0  0  0  0  0  0  0  0  0
    8.1497  -14.2029   25.0287 N   0  0  0  0  0  0  0  0  0  0  0  0
    8.0444  -14.3734   23.6041 C   0  0  0  0  0  0  0  0  0  0  0  0
    8.0964  -15.5539   25.6545 O   0  0  0  0  0  0  0  0  0  0  0  0
    7.0934  -16.3150   25.5376 N   0  0  0  0  0  0  0  0  0  0  0  0
    9.1840  -16.0608   26.4226 C   0  0  1  0  0  0  0  0  0  0  0  0
    9.1970  -17.4212   26.9455 C   0  0  0  0  0  0  0  0  0  0  0  0
   10.0931  -18.3182   26.1209 S   0  0  0  0  0  0  0  0  0  0  0  0
   11.7233  -17.5927   25.9136 C   0  0  0  0  0  0  0  0  0  0  0  0
    9.7703  -17.3706   28.3140 O   0  0  0  0  0  0  0  0  0  0  0  0
   10.2306  -16.1659   28.8793 O   0  0  0  0  0  0  0  0  0  0  0  0
  2  1  1  0
  3  2  2  0
  4  2  1  0
  5  4  1  0
  6  5  1  0
  7  6  1  0
  8 10  1  0
  8  7  1  0
  8  9  1  6
 10 11  2  0
 10 16  1  0
 13 14  1  6
 13 12  1  0
 15 13  1  0
 15 16  1  1
 17 18  2  0
 17 15  1  0
 19 17  1  0
 20 19  1  0
 20 21  1  1
 21 22  1  0
 23 20  1  0
 24 23  1  0
 25 23  2  0
M  END
$$$$
