RVC.pdb
     RDKit          3D

 25 24  0  0  1  0  0  0  0  0999 V2000
   11.9840  -21.6529   24.1695 N   0  0  0  0  0  0  0  0  0  0  0  0
   12.7513  -21.9139   22.9895 C   0  0  0  0  0  0  0  0  0  0  0  0
   14.0122  -22.1695   23.1033 N   0  0  0  0  0  0  0  0  0  0  0  0
   12.1132  -21.8870   21.7293 N   0  0  0  0  0  0  0  0  0  0  0  0
   11.6828  -20.5848   21.2057 C   0  0  0  0  0  0  0  0  0  0  0  0
   10.4508  -20.1075   21.8852 C   0  0  0  0  0  0  0  0  0  0  0  0
   10.3622  -18.6521   22.1936 C   0  0  0  0  0  0  0  0  0  0  0  0
   10.0399  -17.7891   21.0291 C   0  0  2  0  0  0  0  0  0  0  0  0
   11.1319  -17.8180   20.0655 N   0  0  0  0  0  0  0  0  0  0  0  0
    9.8696  -16.3565   21.4236 C   0  0  0  0  0  0  0  0  0  0  0  0
   10.8474  -15.5733   21.4815 O   0  0  0  0  0  0  0  0  0  0  0  0
   14.5867  -22.3659   22.2562 C   0  0  0  0  0  0  0  0  0  0  0  0
    7.6365  -13.9227   19.8696 C   0  0  1  0  0  0  0  0  0  0  0  0
    7.3769  -13.7734   21.3304 C   0  0  0  0  0  0  0  0  0  0  0  0
    7.1178  -12.3391   21.7348 C   0  0  2  0  0  0  0  0  0  0  0  0
    8.4375  -14.4222   22.1543 N   0  0  0  0  0  0  0  0  0  0  0  0
    8.5843  -15.7973   21.7579 C   0  0  0  0  0  0  0  0  0  0  0  0
    8.0422  -14.4018   23.5907 O   0  0  0  0  0  0  0  0  0  0  0  0
    7.2131  -15.2237   24.0764 N   0  0  0  0  0  0  0  0  0  0  0  0
    8.5848  -13.4461   24.4974 C   0  0  2  0  0  0  0  0  0  0  0  0
    8.1922  -13.3977   25.9002 C   0  0  0  0  0  0  0  0  0  0  0  0
    6.6988  -13.2080   26.0467 S   0  0  0  0  0  0  0  0  0  0  0  0
    6.2379  -11.4871   25.8165 C   0  0  0  0  0  0  0  0  0  0  0  0
    8.5268  -14.7113   26.5056 O   0  0  0  0  0  0  0  0  0  0  0  0
    8.3821  -14.9481   27.8860 O   0  0  0  0  0  0  0  0  0  0  0  0
  2  1  1  0
  3  2  2  0
  4  2  1  0
  5  4  1  0
  6  5  1  0
  7  6  1  0
  8 10  1  0
  8  7  1  0
  8  9  1  6
 10 11  2  0
 10 16  1  0
 13 14  1  6
 13 12  1  0
 15 13  1  0
 15 16  1  6
 17 18  2  0
 17 15  1  0
 19 17  1  0
 20 19  1  0
 20 21  1  6
 21 22  1  0
 23 20  1  0
 24 23  1  0
 25 23  2  0
M  END
$$$$
