RVC.pdb
     RDKit          3D

 25 24  0  0  1  0  0  0  0  0999 V2000
    9.7892  -14.9956   16.1788 N   0  0  0  0  0  0  0  0  0  0  0  0
    8.5999  -14.3323   15.7376 C   0  0  0  0  0  0  0  0  0  0  0  0
    8.5304  -13.9111   14.5186 N   0  0  0  0  0  0  0  0  0  0  0  0
    7.5304  -14.1542   16.6434 N   0  0  0  0  0  0  0  0  0  0  0  0
    7.5751  -14.8923   17.9116 C   0  0  0  0  0  0  0  0  0  0  0  0
    7.2877  -14.0032   19.0667 C   0  0  0  0  0  0  0  0  0  0  0  0
    7.2896  -14.6235   20.4219 C   0  0  0  0  0  0  0  0  0  0  0  0
    8.6130  -14.6402   21.0952 C   0  0  2  0  0  0  0  0  0  0  0  0
    9.2580  -15.9320   20.9022 N   0  0  0  0  0  0  0  0  0  0  0  0
    8.4915  -14.4515   22.5739 C   0  0  0  0  0  0  0  0  0  0  0  0
    7.6870  -13.6234   23.0638 O   0  0  0  0  0  0  0  0  0  0  0  0
    7.7148  -13.3432   14.2050 C   0  0  0  0  0  0  0  0  0  0  0  0
    6.6245  -14.9855   24.2805 C   0  0  1  0  0  0  0  0  0  0  0  0
    7.6122  -15.6704   25.1632 C   0  0  0  0  0  0  0  0  0  0  0  0
    7.2204  -15.6266   26.6235 C   0  0  2  0  0  0  0  0  0  0  0  0
    9.0026  -15.1865   24.9245 N   0  0  0  0  0  0  0  0  0  0  0  0
    9.2847  -15.2024   23.5139 C   0  0  0  0  0  0  0  0  0  0  0  0
    9.9742  -16.0964   25.5937 O   0  0  0  0  0  0  0  0  0  0  0  0
   11.0276  -16.5002   25.0226 N   0  0  0  0  0  0  0  0  0  0  0  0
    9.7629  -16.5608   26.9240 C   0  0  1  0  0  0  0  0  0  0  0  0
   10.3541  -15.8986   28.0799 C   0  0  0  0  0  0  0  0  0  0  0  0
    9.5272  -14.7091   28.5143 S   0  0  0  0  0  0  0  0  0  0  0  0
   10.5736  -13.3678   29.0915 C   0  0  0  0  0  0  0  0  0  0  0  0
   10.3483  -16.8681   29.2042 O   0  0  0  0  0  0  0  0  0  0  0  0
   11.4480  -16.9992   30.0738 O   0  0  0  0  0  0  0  0  0  0  0  0
  2  1  1  0
  3  2  2  0
  4  2  1  0
  5  4  1  0
  6  5  1  0
  7  6  1  0
  8 10  1  0
  8  7  1  0
  8  9  1  1
 10 11  2  0
 10 16  1  0
 13 14  1  1
 13 12  1  0
 15 13  1  0
 15 16  1  1
 17 18  2  0
 17 15  1  0
 19 17  1  0
 20 19  1  0
 20 21  1  1
 21 22  1  0
 23 20  1  0
 24 23  1  0
 25 23  2  0
M  END
$$$$
