MFQ.pdb
     RDKit          3D

 29 29  0  0  1  0  0  0  0  0999 V2000
   14.8834  -10.0658  -20.6866 C   0  0  0  0  0  0  0  0  0  0  0  0
   15.9434  -11.2373  -21.6006 S   0  0  0  0  0  0  0  0  0  0  0  0
   17.4303  -11.5639  -20.6365 C   0  0  0  0  0  0  0  0  0  0  0  0
   17.5032  -10.6048  -19.4713 C   0  0  0  0  0  0  0  0  0  0  0  0
   18.7990  -10.8623  -18.7368 C   0  0  2  0  0  0  0  0  0  0  0  0
   18.7627  -12.1692  -18.1745 N   0  0  0  0  0  0  0  0  0  0  0  0
   18.9775   -9.7814  -17.7653 C   0  0  0  0  0  0  0  0  0  0  0  0
   18.0096   -9.4592  -16.9994 O   0  0  0  0  0  0  0  0  0  0  0  0
   20.1803   -9.0483  -17.6108 N   0  0  0  0  0  0  0  0  0  0  0  0
   20.4223   -7.9773  -16.7153 C   0  0  1  0  0  0  0  0  0  0  0  0
   21.7751   -7.9498  -16.0411 C   0  0  0  0  0  0  0  0  0  0  0  0
   21.9217   -6.7690  -15.1585 C   0  0  0  0  0  0  0  0  0  0  0  0
   21.5133   -6.6928  -13.8632 C   0  0  0  0  0  0  0  0  0  0  0  0
   21.6967   -5.5234  -13.1409 C   0  0  0  0  0  0  0  0  0  0  0  0
   22.2845   -4.4176  -13.6877 C   0  0  0  0  0  0  0  0  0  0  0  0
   22.7005   -4.4842  -14.9942 C   0  0  0  0  0  0  0  0  0  0  0  0
   22.5242   -5.6227  -15.7045 C   0  0  0  0  0  0  0  0  0  0  0  0
   19.9691   -6.6514  -17.1786 C   0  0  0  0  0  0  0  0  0  0  0  0
   20.3238   -6.1618  -18.2906 O   0  0  0  0  0  0  0  0  0  0  0  0
   14.7684   -2.4389  -18.7128 N   0  0  0  0  0  0  0  0  0  0  0  0
   15.2725   -3.4757  -17.9238 C   0  0  0  0  0  0  0  0  0  0  0  0
   14.7233   -4.5967  -17.8956 O   0  0  0  0  0  0  0  0  0  0  0  0
   16.5000   -3.2333  -17.0937 C   0  0  0  0  0  0  0  0  0  0  0  0
   17.1396   -4.5470  -16.7157 C   0  0  0  0  0  0  0  0  0  0  0  0
   18.6351   -4.5321  -16.8785 C   0  0  2  0  0  0  0  0  0  0  0  0
   19.1020   -5.8431  -16.3977 N   0  0  0  0  0  0  0  0  0  0  0  0
   19.3101   -3.4813  -16.1260 C   0  0  0  0  0  0  0  0  0  0  0  0
   19.6876   -3.6224  -14.9462 O   0  0  0  0  0  0  0  0  0  0  0  0
   19.5652   -2.2392  -16.7211 O   0  0  0  0  0  0  0  0  0  0  0  0
  2  1  1  0
  3  2  1  0
  4  3  1  0
  5  4  1  0
  5  6  1  1
  7  5  1  0
  7  8  2  0
  9  7  1  0
 10  9  1  0
 10 11  1  6
 11 12  1  0
 12 13  2  0
 12 17  1  0
 13 14  1  0
 14 15  2  0
 16 15  1  0
 17 16  2  0
 18 10  1  0
 19 18  2  0
 21 20  1  0
 21 22  2  0
 23 24  1  0
 23 21  1  0
 25 24  1  1
 25 27  1  0
 25 26  1  0
 26 18  1  0
 27 29  1  0
 28 27  2  0
M  END
$$$$
