MFQ.pdb
     RDKit          3D

 29 29  0  0  1  0  0  0  0  0999 V2000
   25.8028  -17.5501  -18.3508 C   0  0  0  0  0  0  0  0  0  0  0  0
   26.8419  -18.5233  -19.4931 S   0  0  0  0  0  0  0  0  0  0  0  0
   27.5424  -19.9258  -18.6045 C   0  0  0  0  0  0  0  0  0  0  0  0
   27.1752  -19.8371  -17.1415 C   0  0  0  0  0  0  0  0  0  0  0  0
   27.8838  -20.9573  -16.4151 C   0  0  2  0  0  0  0  0  0  0  0  0
   28.0309  -22.0639  -17.2979 N   0  0  0  0  0  0  0  0  0  0  0  0
   27.1244  -21.2421  -15.1960 C   0  0  0  0  0  0  0  0  0  0  0  0
   26.0356  -21.9021  -15.2741 O   0  0  0  0  0  0  0  0  0  0  0  0
   27.5230  -20.8262  -13.9013 N   0  0  0  0  0  0  0  0  0  0  0  0
   26.7488  -20.8566  -12.7150 C   0  0  1  0  0  0  0  0  0  0  0  0
   27.4872  -20.6196  -11.4173 C   0  0  0  0  0  0  0  0  0  0  0  0
   26.5584  -20.5490  -10.2654 C   0  0  0  0  0  0  0  0  0  0  0  0
   26.1395  -21.6067   -9.5196 C   0  0  0  0  0  0  0  0  0  0  0  0
   25.2558  -21.4138   -8.4685 C   0  0  0  0  0  0  0  0  0  0  0  0
   24.7764  -20.1766   -8.1417 C   0  0  0  0  0  0  0  0  0  0  0  0
   25.1931  -19.1024   -8.8878 C   0  0  0  0  0  0  0  0  0  0  0  0
   26.0555  -19.2843   -9.9151 C   0  0  0  0  0  0  0  0  0  0  0  0
   25.4510  -20.1578  -12.7892 C   0  0  0  0  0  0  0  0  0  0  0  0
   25.3587  -18.9184  -13.0291 O   0  0  0  0  0  0  0  0  0  0  0  0
   22.2905  -19.8469  -16.9287 N   0  0  0  0  0  0  0  0  0  0  0  0
   21.2318  -19.4236  -16.1215 C   0  0  0  0  0  0  0  0  0  0  0  0
   20.1648  -19.0043  -16.6163 O   0  0  0  0  0  0  0  0  0  0  0  0
   21.3837  -19.4752  -14.6286 C   0  0  0  0  0  0  0  0  0  0  0  0
   22.7291  -20.0531  -14.2626 C   0  0  0  0  0  0  0  0  0  0  0  0
   22.9290  -20.1608  -12.7755 C   0  0  2  0  0  0  0  0  0  0  0  0
   24.2222  -20.8411  -12.5948 N   0  0  0  0  0  0  0  0  0  0  0  0
   21.8922  -20.9179  -12.0841 C   0  0  0  0  0  0  0  0  0  0  0  0
   22.0028  -22.1280  -11.8051 O   0  0  0  0  0  0  0  0  0  0  0  0
   20.6999  -20.2924  -11.6978 O   0  0  0  0  0  0  0  0  0  0  0  0
  2  1  1  0
  3  2  1  0
  4  3  1  0
  5  4  1  0
  5  6  1  6
  7  5  1  0
  7  8  2  0
  9  7  1  0
 10  9  1  0
 10 11  1  1
 11 12  1  0
 12 13  2  0
 12 17  1  0
 13 14  1  0
 14 15  2  0
 16 15  1  0
 17 16  2  0
 18 10  1  0
 19 18  2  0
 21 20  1  0
 21 22  2  0
 23 24  1  0
 23 21  1  0
 25 24  1  6
 25 27  1  0
 25 26  1  0
 26 18  1  0
 27 29  1  0
 28 27  2  0
M  END
$$$$
