MFQ.pdb
     RDKit          3D

 29 29  0  0  1  0  0  0  0  0999 V2000
   25.9042  -17.9037  -18.9382 C   0  0  0  0  0  0  0  0  0  0  0  0
   27.3895  -18.5434  -19.7844 S   0  0  0  0  0  0  0  0  0  0  0  0
   27.9487  -20.0377  -18.9469 C   0  0  0  0  0  0  0  0  0  0  0  0
   27.1087  -20.2755  -17.7137 C   0  0  0  0  0  0  0  0  0  0  0  0
   27.6969  -21.4524  -16.9697 C   0  0  2  0  0  0  0  0  0  0  0  0
   27.6334  -22.6063  -17.8004 N   0  0  0  0  0  0  0  0  0  0  0  0
   26.9813  -21.5724  -15.6978 C   0  0  0  0  0  0  0  0  0  0  0  0
   25.8711  -22.1992  -15.6586 O   0  0  0  0  0  0  0  0  0  0  0  0
   27.4462  -21.0276  -14.4750 N   0  0  0  0  0  0  0  0  0  0  0  0
   26.7410  -20.9488  -13.2487 C   0  0  1  0  0  0  0  0  0  0  0  0
   27.5689  -20.7254  -12.0036 C   0  0  0  0  0  0  0  0  0  0  0  0
   26.7208  -20.6381  -10.7922 C   0  0  0  0  0  0  0  0  0  0  0  0
   26.1212  -21.6874  -10.1678 C   0  0  0  0  0  0  0  0  0  0  0  0
   25.3387  -21.4760   -9.0427 C   0  0  0  0  0  0  0  0  0  0  0  0
   25.1395  -20.2286   -8.5215 C   0  0  0  0  0  0  0  0  0  0  0  0
   25.7404  -19.1629   -9.1439 C   0  0  0  0  0  0  0  0  0  0  0  0
   26.5053  -19.3626  -10.2426 C   0  0  0  0  0  0  0  0  0  0  0  0
   25.5019  -20.1479  -13.2825 C   0  0  0  0  0  0  0  0  0  0  0  0
   25.5003  -18.9081  -13.5381 O   0  0  0  0  0  0  0  0  0  0  0  0
   20.8230  -19.1527  -16.3522 N   0  0  0  0  0  0  0  0  0  0  0  0
   21.3925  -20.4283  -16.3647 C   0  0  0  0  0  0  0  0  0  0  0  0
   21.0906  -21.2662  -17.2397 O   0  0  0  0  0  0  0  0  0  0  0  0
   22.3880  -20.7957  -15.3022 C   0  0  0  0  0  0  0  0  0  0  0  0
   22.7423  -19.5810  -14.4795 C   0  0  0  0  0  0  0  0  0  0  0  0
   23.0028  -19.9142  -13.0358 C   0  0  2  0  0  0  0  0  0  0  0  0
   24.2308  -20.7265  -13.0290 N   0  0  0  0  0  0  0  0  0  0  0  0
   21.9321  -20.6649  -12.3907 C   0  0  0  0  0  0  0  0  0  0  0  0
   20.8462  -20.1524  -12.0552 O   0  0  0  0  0  0  0  0  0  0  0  0
   22.0917  -22.0294  -12.1174 O   0  0  0  0  0  0  0  0  0  0  0  0
  2  1  1  0
  3  2  1  0
  4  3  1  0
  5  4  1  0
  5  6  1  6
  7  5  1  0
  7  8  2  0
  9  7  1  0
 10  9  1  0
 10 11  1  1
 11 12  1  0
 12 13  2  0
 12 17  1  0
 13 14  1  0
 14 15  2  0
 16 15  1  0
 17 16  2  0
 18 10  1  0
 19 18  2  0
 21 20  1  0
 21 22  2  0
 23 24  1  0
 23 21  1  0
 25 24  1  6
 25 27  1  0
 25 26  1  0
 26 18  1  0
 27 29  1  0
 28 27  2  0
M  END
$$$$
