MFQ.pdb
     RDKit          3D

 29 29  0  0  1  0  0  0  0  0999 V2000
   26.4897  -16.7132  -14.0859 C   0  0  0  0  0  0  0  0  0  0  0  0
   26.9245  -17.7228  -15.5430 S   0  0  0  0  0  0  0  0  0  0  0  0
   27.4972  -19.3398  -14.9915 C   0  0  0  0  0  0  0  0  0  0  0  0
   26.8885  -19.6648  -13.6472 C   0  0  0  0  0  0  0  0  0  0  0  0
   27.4605  -20.9851  -13.1842 C   0  0  2  0  0  0  0  0  0  0  0  0
   27.0047  -22.0184  -14.0502 N   0  0  0  0  0  0  0  0  0  0  0  0
   27.0916  -21.1564  -11.7776 C   0  0  0  0  0  0  0  0  0  0  0  0
   26.0222  -21.7854  -11.4810 O   0  0  0  0  0  0  0  0  0  0  0  0
   27.8578  -20.6606  -10.6935 N   0  0  0  0  0  0  0  0  0  0  0  0
   27.5073  -20.6707   -9.3207 C   0  0  1  0  0  0  0  0  0  0  0  0
   28.5726  -20.2236   -8.3457 C   0  0  0  0  0  0  0  0  0  0  0  0
   28.0534  -20.1623   -6.9596 C   0  0  0  0  0  0  0  0  0  0  0  0
   27.9799  -21.2094   -6.0943 C   0  0  0  0  0  0  0  0  0  0  0  0
   27.4614  -21.0279   -4.8210 C   0  0  0  0  0  0  0  0  0  0  0  0
   27.0105  -19.8129   -4.3877 C   0  0  0  0  0  0  0  0  0  0  0  0
   27.0806  -18.7497   -5.2531 C   0  0  0  0  0  0  0  0  0  0  0  0
   27.5855  -18.9204   -6.4973 C   0  0  0  0  0  0  0  0  0  0  0  0
   26.1648  -20.1438   -9.0073 C   0  0  0  0  0  0  0  0  0  0  0  0
   25.8728  -18.9172   -9.1183 O   0  0  0  0  0  0  0  0  0  0  0  0
   21.8737  -21.0544  -12.1633 N   0  0  0  0  0  0  0  0  0  0  0  0
   21.0684  -20.5011  -11.1649 C   0  0  0  0  0  0  0  0  0  0  0  0
   19.8692  -20.2249  -11.3761 O   0  0  0  0  0  0  0  0  0  0  0  0
   21.6607  -20.2343   -9.8111 C   0  0  0  0  0  0  0  0  0  0  0  0
   23.1044  -20.6733   -9.7796 C   0  0  0  0  0  0  0  0  0  0  0  0
   23.7358  -20.4939   -8.4260 C   0  0  2  0  0  0  0  0  0  0  0  0
   25.1158  -20.9891   -8.5605 N   0  0  0  0  0  0  0  0  0  0  0  0
   23.0709  -21.2230   -7.3525 C   0  0  0  0  0  0  0  0  0  0  0  0
   21.9195  -20.9544   -6.9568 O   0  0  0  0  0  0  0  0  0  0  0  0
   23.7230  -22.2828   -6.7093 O   0  0  0  0  0  0  0  0  0  0  0  0
  2  1  1  0
  3  2  1  0
  4  3  1  0
  5  4  1  0
  5  6  1  6
  7  5  1  0
  7  8  2  0
  9  7  1  0
 10  9  1  0
 10 11  1  1
 11 12  1  0
 12 13  2  0
 12 17  1  0
 13 14  1  0
 14 15  2  0
 16 15  1  0
 17 16  2  0
 18 10  1  0
 19 18  2  0
 21 20  1  0
 21 22  2  0
 23 24  1  0
 23 21  1  0
 25 24  1  6
 25 27  1  0
 25 26  1  0
 26 18  1  0
 27 29  1  0
 28 27  2  0
M  END
$$$$
