MFQ.pdb
     RDKit          3D

 29 29  0  0  1  0  0  0  0  0999 V2000
   26.5027  -16.8815  -14.6272 C   0  0  0  0  0  0  0  0  0  0  0  0
   28.1664  -17.5623  -14.9441 S   0  0  0  0  0  0  0  0  0  0  0  0
   28.0669  -19.3605  -15.0044 C   0  0  0  0  0  0  0  0  0  0  0  0
   27.5442  -19.8865  -13.6878 C   0  0  0  0  0  0  0  0  0  0  0  0
   28.6276  -20.7348  -13.0625 C   0  0  2  0  0  0  0  0  0  0  0  0
   28.9053  -21.8384  -13.9172 N   0  0  0  0  0  0  0  0  0  0  0  0
   28.1807  -21.0989  -11.7164 C   0  0  0  0  0  0  0  0  0  0  0  0
   27.1708  -21.8655  -11.5760 O   0  0  0  0  0  0  0  0  0  0  0  0
   28.8064  -20.6490  -10.5272 N   0  0  0  0  0  0  0  0  0  0  0  0
   28.2739  -20.6783   -9.2146 C   0  0  1  0  0  0  0  0  0  0  0  0
   29.2093  -20.2836   -8.0945 C   0  0  0  0  0  0  0  0  0  0  0  0
   28.5240  -20.2943   -6.7812 C   0  0  0  0  0  0  0  0  0  0  0  0
   28.3068  -21.3937   -6.0101 C   0  0  0  0  0  0  0  0  0  0  0  0
   27.6405  -21.2771   -4.7995 C   0  0  0  0  0  0  0  0  0  0  0  0
   27.1819  -20.0759   -4.3367 C   0  0  0  0  0  0  0  0  0  0  0  0
   27.3963  -18.9602   -5.1071 C   0  0  0  0  0  0  0  0  0  0  0  0
   28.0459  -19.0675   -6.2897 C   0  0  0  0  0  0  0  0  0  0  0  0
   26.9156  -20.1193   -9.0709 C   0  0  0  0  0  0  0  0  0  0  0  0
   26.6934  -18.8737   -9.0328 O   0  0  0  0  0  0  0  0  0  0  0  0
   23.4788  -22.2347  -13.0406 N   0  0  0  0  0  0  0  0  0  0  0  0
   22.4724  -21.4544  -12.4662 C   0  0  0  0  0  0  0  0  0  0  0  0
   21.3499  -21.3447  -13.0019 O   0  0  0  0  0  0  0  0  0  0  0  0
   22.7499  -20.7343  -11.1782 C   0  0  0  0  0  0  0  0  0  0  0  0
   24.1327  -21.0760  -10.6791 C   0  0  0  0  0  0  0  0  0  0  0  0
   24.4318  -20.4667   -9.3366 C   0  0  2  0  0  0  0  0  0  0  0  0
   25.7715  -20.9529   -8.9670 N   0  0  0  0  0  0  0  0  0  0  0  0
   23.4868  -20.8323   -8.2879 C   0  0  0  0  0  0  0  0  0  0  0  0
   23.7853  -21.5694   -7.3277 O   0  0  0  0  0  0  0  0  0  0  0  0
   22.1711  -20.3532   -8.3245 O   0  0  0  0  0  0  0  0  0  0  0  0
  2  1  1  0
  3  2  1  0
  4  3  1  0
  5  4  1  0
  5  6  1  6
  7  5  1  0
  7  8  2  0
  9  7  1  0
 10  9  1  0
 10 11  1  1
 11 12  1  0
 12 13  2  0
 12 17  1  0
 13 14  1  0
 14 15  2  0
 16 15  1  0
 17 16  2  0
 18 10  1  0
 19 18  2  0
 21 20  1  0
 21 22  2  0
 23 24  1  0
 23 21  1  0
 25 24  1  6
 25 27  1  0
 25 26  1  0
 26 18  1  0
 27 29  1  0
 28 27  2  0
M  END
$$$$
