MFQ.pdb
     RDKit          3D

 29 29  0  0  1  0  0  0  0  0999 V2000
   27.9212  -17.4544  -15.9279 C   0  0  0  0  0  0  0  0  0  0  0  0
   28.2609  -17.7135  -17.7024 S   0  0  0  0  0  0  0  0  0  0  0  0
   27.5535  -19.2895  -18.2151 C   0  0  0  0  0  0  0  0  0  0  0  0
   26.6918  -19.8463  -17.1057 C   0  0  0  0  0  0  0  0  0  0  0  0
   27.4041  -21.0438  -16.5197 C   0  0  2  0  0  0  0  0  0  0  0  0
   27.4077  -22.0969  -17.4771 N   0  0  0  0  0  0  0  0  0  0  0  0
   26.7482  -21.3700  -15.2518 C   0  0  0  0  0  0  0  0  0  0  0  0
   25.5934  -21.9117  -15.2632 O   0  0  0  0  0  0  0  0  0  0  0  0
   27.3197  -21.1204  -13.9793 N   0  0  0  0  0  0  0  0  0  0  0  0
   26.6402  -21.0133  -12.7406 C   0  0  1  0  0  0  0  0  0  0  0  0
   27.4944  -20.7673  -11.5178 C   0  0  0  0  0  0  0  0  0  0  0  0
   26.6710  -20.6411  -10.2928 C   0  0  0  0  0  0  0  0  0  0  0  0
   25.6515  -21.4675   -9.9350 C   0  0  0  0  0  0  0  0  0  0  0  0
   24.9447  -21.2382   -8.7642 C   0  0  0  0  0  0  0  0  0  0  0  0
   25.2358  -20.1925   -7.9341 C   0  0  0  0  0  0  0  0  0  0  0  0
   26.2631  -19.3527   -8.2858 C   0  0  0  0  0  0  0  0  0  0  0  0
   26.9566  -19.5711   -9.4275 C   0  0  0  0  0  0  0  0  0  0  0  0
   25.4035  -20.2084  -12.7657 C   0  0  0  0  0  0  0  0  0  0  0  0
   25.4134  -18.9509  -12.9099 O   0  0  0  0  0  0  0  0  0  0  0  0
   20.9375  -21.1882  -15.8339 N   0  0  0  0  0  0  0  0  0  0  0  0
   20.4527  -19.9685  -15.3555 C   0  0  0  0  0  0  0  0  0  0  0  0
   19.3007  -19.5739  -15.6316 O   0  0  0  0  0  0  0  0  0  0  0  0
   21.3380  -19.1171  -14.4917 C   0  0  0  0  0  0  0  0  0  0  0  0
   22.6325  -19.8379  -14.2045 C   0  0  0  0  0  0  0  0  0  0  0  0
   22.8900  -20.0031  -12.7316 C   0  0  2  0  0  0  0  0  0  0  0  0
   24.1219  -20.8030  -12.6289 N   0  0  0  0  0  0  0  0  0  0  0  0
   21.8208  -20.6809  -12.0080 C   0  0  0  0  0  0  0  0  0  0  0  0
   20.8958  -20.0745  -11.4326 O   0  0  0  0  0  0  0  0  0  0  0  0
   21.7955  -22.0793  -11.9322 O   0  0  0  0  0  0  0  0  0  0  0  0
  2  1  1  0
  3  2  1  0
  4  3  1  0
  5  4  1  0
  5  6  1  6
  7  5  1  0
  7  8  2  0
  9  7  1  0
 10  9  1  0
 10 11  1  1
 11 12  1  0
 12 13  2  0
 12 17  1  0
 13 14  1  0
 14 15  2  0
 16 15  1  0
 17 16  2  0
 18 10  1  0
 19 18  2  0
 21 20  1  0
 21 22  2  0
 23 24  1  0
 23 21  1  0
 25 24  1  6
 25 27  1  0
 25 26  1  0
 26 18  1  0
 27 29  1  0
 28 27  2  0
M  END
$$$$
