MFQ.pdb
     RDKit          3D

 29 29  0  0  1  0  0  0  0  0999 V2000
   25.2688  -16.8947  -18.2362 C   0  0  0  0  0  0  0  0  0  0  0  0
   26.5434  -17.2961  -19.4795 S   0  0  0  0  0  0  0  0  0  0  0  0
   27.3675  -18.8273  -19.0072 C   0  0  0  0  0  0  0  0  0  0  0  0
   26.7758  -19.3479  -17.7179 C   0  0  0  0  0  0  0  0  0  0  0  0
   27.5494  -20.5827  -17.3160 C   0  0  2  0  0  0  0  0  0  0  0  0
   27.5007  -21.5280  -18.3787 N   0  0  0  0  0  0  0  0  0  0  0  0
   26.9939  -21.0574  -16.0470 C   0  0  0  0  0  0  0  0  0  0  0  0
   26.0231  -21.8848  -16.0569 O   0  0  0  0  0  0  0  0  0  0  0  0
   27.4703  -20.6528  -14.7752 N   0  0  0  0  0  0  0  0  0  0  0  0
   26.7683  -20.6911  -13.5451 C   0  0  1  0  0  0  0  0  0  0  0  0
   27.5197  -20.2197  -12.3208 C   0  0  0  0  0  0  0  0  0  0  0  0
   26.6994  -20.3474  -11.0938 C   0  0  0  0  0  0  0  0  0  0  0  0
   26.3759  -21.5149  -10.4753 C   0  0  0  0  0  0  0  0  0  0  0  0
   25.5884  -21.5056   -9.3339 C   0  0  0  0  0  0  0  0  0  0  0  0
   25.1123  -20.3457   -8.7905 C   0  0  0  0  0  0  0  0  0  0  0  0
   25.4334  -19.1619   -9.4068 C   0  0  0  0  0  0  0  0  0  0  0  0
   26.2014  -19.1644  -10.5213 C   0  0  0  0  0  0  0  0  0  0  0  0
   25.3728  -20.2141  -13.5985 C   0  0  0  0  0  0  0  0  0  0  0  0
   25.0766  -18.9864  -13.6836 O   0  0  0  0  0  0  0  0  0  0  0  0
   23.0547  -23.0915  -16.5382 N   0  0  0  0  0  0  0  0  0  0  0  0
   22.8908  -23.7669  -15.3264 C   0  0  0  0  0  0  0  0  0  0  0  0
   23.1715  -24.9784  -15.2146 O   0  0  0  0  0  0  0  0  0  0  0  0
   22.3660  -23.0172  -14.1359 C   0  0  0  0  0  0  0  0  0  0  0  0
   22.1407  -21.5680  -14.4921 C   0  0  0  0  0  0  0  0  0  0  0  0
   22.8846  -20.6256  -13.5857 C   0  0  2  0  0  0  0  0  0  0  0  0
   24.2741  -21.1118  -13.5580 N   0  0  0  0  0  0  0  0  0  0  0  0
   22.3711  -20.5742  -12.2220 C   0  0  0  0  0  0  0  0  0  0  0  0
   23.0030  -21.0078  -11.2385 O   0  0  0  0  0  0  0  0  0  0  0  0
   21.1116  -20.0189  -11.9621 O   0  0  0  0  0  0  0  0  0  0  0  0
  2  1  1  0
  3  2  1  0
  4  3  1  0
  5  4  1  0
  5  6  1  6
  7  5  1  0
  7  8  2  0
  9  7  1  0
 10  9  1  0
 10 11  1  1
 11 12  1  0
 12 13  2  0
 12 17  1  0
 13 14  1  0
 14 15  2  0
 16 15  1  0
 17 16  2  0
 18 10  1  0
 19 18  2  0
 21 20  1  0
 21 22  2  0
 23 24  1  0
 23 21  1  0
 25 24  1  6
 25 27  1  0
 25 26  1  0
 26 18  1  0
 27 29  1  0
 28 27  2  0
M  END
$$$$
