MFQ.pdb
     RDKit          3D

 29 29  0  0  1  0  0  0  0  0999 V2000
   29.0321  -15.1997  -20.1803 C   0  0  0  0  0  0  0  0  0  0  0  0
   28.1810  -16.1370  -18.8655 S   0  0  0  0  0  0  0  0  0  0  0  0
   27.3964  -17.5890  -19.5888 C   0  0  0  0  0  0  0  0  0  0  0  0
   26.7626  -18.4219  -18.4990 C   0  0  0  0  0  0  0  0  0  0  0  0
   27.7733  -19.4544  -18.0550 C   0  0  2  0  0  0  0  0  0  0  0  0
   28.0700  -20.3149  -19.1491 N   0  0  0  0  0  0  0  0  0  0  0  0
   27.2262  -20.1283  -16.8757 C   0  0  0  0  0  0  0  0  0  0  0  0
   26.3636  -21.0558  -17.0261 O   0  0  0  0  0  0  0  0  0  0  0  0
   27.5965  -19.8155  -15.5440 N   0  0  0  0  0  0  0  0  0  0  0  0
   26.9018  -20.1595  -14.3580 C   0  0  1  0  0  0  0  0  0  0  0  0
   27.5920  -19.8405  -13.0513 C   0  0  0  0  0  0  0  0  0  0  0  0
   26.7791  -20.2624  -11.8870 C   0  0  0  0  0  0  0  0  0  0  0  0
   26.6615  -21.5356  -11.4227 C   0  0  0  0  0  0  0  0  0  0  0  0
   25.8576  -21.8075  -10.3260 C   0  0  0  0  0  0  0  0  0  0  0  0
   25.1619  -20.8275   -9.6758 C   0  0  0  0  0  0  0  0  0  0  0  0
   25.2739  -19.5392  -10.1362 C   0  0  0  0  0  0  0  0  0  0  0  0
   26.0569  -19.2673  -11.2062 C   0  0  0  0  0  0  0  0  0  0  0  0
   25.4607  -19.8415  -14.3548 C   0  0  0  0  0  0  0  0  0  0  0  0
   25.0242  -18.6622  -14.4995 O   0  0  0  0  0  0  0  0  0  0  0  0
   21.1580  -22.7160  -17.1917 N   0  0  0  0  0  0  0  0  0  0  0  0
   20.3203  -21.8868  -16.4420 C   0  0  0  0  0  0  0  0  0  0  0  0
   19.0916  -21.8374  -16.6588 O   0  0  0  0  0  0  0  0  0  0  0  0
   20.9131  -21.0387  -15.3539 C   0  0  0  0  0  0  0  0  0  0  0  0
   22.3996  -21.2815  -15.2573 C   0  0  0  0  0  0  0  0  0  0  0  0
   23.0405  -20.5152  -14.1324 C   0  0  2  0  0  0  0  0  0  0  0  0
   24.4737  -20.8479  -14.1885 N   0  0  0  0  0  0  0  0  0  0  0  0
   22.5259  -20.8490  -12.8096 C   0  0  0  0  0  0  0  0  0  0  0  0
   21.5074  -20.3214  -12.3210 O   0  0  0  0  0  0  0  0  0  0  0  0
   23.1783  -21.8029  -12.0181 O   0  0  0  0  0  0  0  0  0  0  0  0
  2  1  1  0
  3  2  1  0
  4  3  1  0
  5  4  1  0
  5  6  1  6
  7  5  1  0
  7  8  2  0
  9  7  1  0
 10  9  1  0
 10 11  1  1
 11 12  1  0
 12 13  2  0
 12 17  1  0
 13 14  1  0
 14 15  2  0
 16 15  1  0
 17 16  2  0
 18 10  1  0
 19 18  2  0
 21 20  1  0
 21 22  2  0
 23 24  1  0
 23 21  1  0
 25 24  1  6
 25 27  1  0
 25 26  1  0
 26 18  1  0
 27 29  1  0
 28 27  2  0
M  END
$$$$
