MFQ.pdb
     RDKit          3D

 29 29  0  0  1  0  0  0  0  0999 V2000
   19.1925  -33.5359  -14.8709 C   0  0  0  0  0  0  0  0  0  0  0  0
   20.0252  -32.0756  -15.5821 S   0  0  0  0  0  0  0  0  0  0  0  0
   21.5811  -32.5899  -16.3316 C   0  0  0  0  0  0  0  0  0  0  0  0
   22.3549  -33.4506  -15.3601 C   0  0  0  0  0  0  0  0  0  0  0  0
   23.8145  -33.3939  -15.7485 C   0  0  2  0  0  0  0  0  0  0  0  0
   24.0008  -34.1136  -16.9621 N   0  0  0  0  0  0  0  0  0  0  0  0
   24.5926  -33.8940  -14.6133 C   0  0  0  0  0  0  0  0  0  0  0  0
   24.7950  -35.1478  -14.4944 O   0  0  0  0  0  0  0  0  0  0  0  0
   25.1517  -33.0628  -13.6110 N   0  0  0  0  0  0  0  0  0  0  0  0
   25.8431  -33.4733  -12.4444 C   0  0  1  0  0  0  0  0  0  0  0  0
   27.3180  -33.1475  -12.3805 C   0  0  0  0  0  0  0  0  0  0  0  0
   28.0689  -33.7967  -13.4802 C   0  0  0  0  0  0  0  0  0  0  0  0
   28.5364  -35.0741  -13.4739 C   0  0  0  0  0  0  0  0  0  0  0  0
   29.2384  -35.5663  -14.5638 C   0  0  0  0  0  0  0  0  0  0  0  0
   29.4863  -34.8046  -15.6710 C   0  0  0  0  0  0  0  0  0  0  0  0
   29.0185  -33.5142  -15.6876 C   0  0  0  0  0  0  0  0  0  0  0  0
   28.3328  -33.0280  -14.6267 C   0  0  0  0  0  0  0  0  0  0  0  0
   25.1329  -33.2367  -11.1726 C   0  0  0  0  0  0  0  0  0  0  0  0
   24.4265  -32.2062  -10.9697 O   0  0  0  0  0  0  0  0  0  0  0  0
   25.7947  -35.4464   -5.8940 N   0  0  0  0  0  0  0  0  0  0  0  0
   24.4108  -35.3787   -5.7154 C   0  0  0  0  0  0  0  0  0  0  0  0
   23.8987  -35.4384   -4.5783 O   0  0  0  0  0  0  0  0  0  0  0  0
   23.5240  -35.2312   -6.9182 C   0  0  0  0  0  0  0  0  0  0  0  0
   24.3497  -35.2726   -8.1809 C   0  0  0  0  0  0  0  0  0  0  0  0
   24.4730  -33.9247   -8.8376 C   0  0  2  0  0  0  0  0  0  0  0  0
   25.2015  -34.1588  -10.0956 N   0  0  0  0  0  0  0  0  0  0  0  0
   25.1954  -32.9357   -8.0463 C   0  0  0  0  0  0  0  0  0  0  0  0
   24.6550  -32.2437   -7.1611 O   0  0  0  0  0  0  0  0  0  0  0  0
   26.5633  -32.7227   -8.2600 O   0  0  0  0  0  0  0  0  0  0  0  0
  2  1  1  0
  3  2  1  0
  4  3  1  0
  5  4  1  0
  5  6  1  6
  7  5  1  0
  7  8  2  0
  9  7  1  0
 10  9  1  0
 10 11  1  1
 11 12  1  0
 12 13  2  0
 12 17  1  0
 13 14  1  0
 14 15  2  0
 16 15  1  0
 17 16  2  0
 18 10  1  0
 19 18  2  0
 21 20  1  0
 21 22  2  0
 23 24  1  0
 23 21  1  0
 25 24  1  1
 25 27  1  0
 25 26  1  0
 26 18  1  0
 27 29  1  0
 28 27  2  0
M  END
$$$$
