MFQ.pdb
     RDKit          3D

 29 29  0  0  1  0  0  0  0  0999 V2000
   25.5658  -17.6115  -15.0754 C   0  0  0  0  0  0  0  0  0  0  0  0
   27.2650  -17.5935  -15.7417 S   0  0  0  0  0  0  0  0  0  0  0  0
   28.1281  -19.0789  -15.1983 C   0  0  0  0  0  0  0  0  0  0  0  0
   27.6378  -19.4803  -13.8265 C   0  0  0  0  0  0  0  0  0  0  0  0
   28.4740  -20.6485  -13.3568 C   0  0  2  0  0  0  0  0  0  0  0  0
   28.3496  -21.7147  -14.2912 N   0  0  0  0  0  0  0  0  0  0  0  0
   28.0495  -20.9748  -11.9939 C   0  0  0  0  0  0  0  0  0  0  0  0
   27.0765  -21.7800  -11.8150 O   0  0  0  0  0  0  0  0  0  0  0  0
   28.6585  -20.4462  -10.8286 N   0  0  0  0  0  0  0  0  0  0  0  0
   28.1924  -20.5520   -9.4948 C   0  0  1  0  0  0  0  0  0  0  0  0
   29.1390  -20.0961   -8.4077 C   0  0  0  0  0  0  0  0  0  0  0  0
   28.5174  -20.1923   -7.0665 C   0  0  0  0  0  0  0  0  0  0  0  0
   28.4340  -21.3206   -6.3112 C   0  0  0  0  0  0  0  0  0  0  0  0
   27.8153  -21.2863   -5.0706 C   0  0  0  0  0  0  0  0  0  0  0  0
   27.2729  -20.1399   -4.5619 C   0  0  0  0  0  0  0  0  0  0  0  0
   27.3520  -18.9956   -5.3161 C   0  0  0  0  0  0  0  0  0  0  0  0
   27.9545  -19.0226   -6.5278 C   0  0  0  0  0  0  0  0  0  0  0  0
   26.7970  -20.1239   -9.2770 C   0  0  0  0  0  0  0  0  0  0  0  0
   26.4381  -18.9123   -9.3504 O   0  0  0  0  0  0  0  0  0  0  0  0
   24.2665  -22.1912  -12.9256 N   0  0  0  0  0  0  0  0  0  0  0  0
   23.3220  -21.1853  -12.7075 C   0  0  0  0  0  0  0  0  0  0  0  0
   22.6915  -20.6696  -13.6539 O   0  0  0  0  0  0  0  0  0  0  0  0
   23.0623  -20.7170  -11.3046 C   0  0  0  0  0  0  0  0  0  0  0  0
   23.8795  -21.5259  -10.3270 C   0  0  0  0  0  0  0  0  0  0  0  0
   24.3480  -20.7132   -9.1508 C   0  0  2  0  0  0  0  0  0  0  0  0
   25.7691  -21.0537   -8.9710 N   0  0  0  0  0  0  0  0  0  0  0  0
   23.6325  -20.9861   -7.9100 C   0  0  0  0  0  0  0  0  0  0  0  0
   24.0632  -21.7571   -7.0298 O   0  0  0  0  0  0  0  0  0  0  0  0
   22.3990  -20.3727   -7.6564 O   0  0  0  0  0  0  0  0  0  0  0  0
  2  1  1  0
  3  2  1  0
  4  3  1  0
  5  4  1  0
  5  6  1  6
  7  5  1  0
  7  8  2  0
  9  7  1  0
 10  9  1  0
 10 11  1  1
 11 12  1  0
 12 13  2  0
 12 17  1  0
 13 14  1  0
 14 15  2  0
 16 15  1  0
 17 16  2  0
 18 10  1  0
 19 18  2  0
 21 20  1  0
 21 22  2  0
 23 24  1  0
 23 21  1  0
 25 24  1  6
 25 27  1  0
 25 26  1  0
 26 18  1  0
 27 29  1  0
 28 27  2  0
M  END
$$$$
