MFQ.pdb
     RDKit          3D

 29 29  0  0  1  0  0  0  0  0999 V2000
   19.3796  -11.5164  -22.8281 C   0  0  0  0  0  0  0  0  0  0  0  0
   21.0808  -12.1320  -23.0701 S   0  0  0  0  0  0  0  0  0  0  0  0
   21.7800  -12.5794  -21.4707 C   0  0  0  0  0  0  0  0  0  0  0  0
   21.4652  -11.5032  -20.4578 C   0  0  0  0  0  0  0  0  0  0  0  0
   22.4886  -11.5939  -19.3491 C   0  0  2  0  0  0  0  0  0  0  0  0
   22.6180  -12.9526  -18.9460 N   0  0  0  0  0  0  0  0  0  0  0  0
   22.0707  -10.6763  -18.2873 C   0  0  0  0  0  0  0  0  0  0  0  0
   20.9450  -10.8509  -17.7134 O   0  0  0  0  0  0  0  0  0  0  0  0
   22.8481   -9.5792  -17.8396 N   0  0  0  0  0  0  0  0  0  0  0  0
   22.5039   -8.6362  -16.8397 C   0  0  1  0  0  0  0  0  0  0  0  0
   23.6489   -8.0010  -16.0840 C   0  0  0  0  0  0  0  0  0  0  0  0
   23.1641   -7.0564  -15.0509 C   0  0  0  0  0  0  0  0  0  0  0  0
   22.6947   -7.3999  -13.8213 C   0  0  0  0  0  0  0  0  0  0  0  0
   22.2569   -6.4208  -12.9423 C   0  0  0  0  0  0  0  0  0  0  0  0
   22.2777   -5.0934  -13.2662 C   0  0  0  0  0  0  0  0  0  0  0  0
   22.7498   -4.7360  -14.5046 C   0  0  0  0  0  0  0  0  0  0  0  0
   23.1784   -5.6870  -15.3671 C   0  0  0  0  0  0  0  0  0  0  0  0
   21.4421   -7.6808  -17.2106 C   0  0  0  0  0  0  0  0  0  0  0  0
   21.4659   -7.0241  -18.2924 O   0  0  0  0  0  0  0  0  0  0  0  0
   15.6369   -8.6785  -16.3329 N   0  0  0  0  0  0  0  0  0  0  0  0
   15.5066   -7.3724  -16.8112 C   0  0  0  0  0  0  0  0  0  0  0  0
   14.3883   -6.8893  -17.0852 O   0  0  0  0  0  0  0  0  0  0  0  0
   16.7390   -6.5353  -16.9985 C   0  0  0  0  0  0  0  0  0  0  0  0
   17.9682   -7.3304  -16.6315 C   0  0  0  0  0  0  0  0  0  0  0  0
   19.2374   -6.5358  -16.7758 C   0  0  2  0  0  0  0  0  0  0  0  0
   20.3242   -7.4421  -16.3691 N   0  0  0  0  0  0  0  0  0  0  0  0
   19.2886   -5.3325  -15.9538 C   0  0  0  0  0  0  0  0  0  0  0  0
   19.8184   -5.2993  -14.8257 O   0  0  0  0  0  0  0  0  0  0  0  0
   18.7271   -4.1360  -16.4176 O   0  0  0  0  0  0  0  0  0  0  0  0
  2  1  1  0
  3  2  1  0
  4  3  1  0
  5  4  1  0
  5  6  1  1
  7  5  1  0
  7  8  2  0
  9  7  1  0
 10  9  1  0
 10 11  1  6
 11 12  1  0
 12 13  2  0
 12 17  1  0
 13 14  1  0
 14 15  2  0
 16 15  1  0
 17 16  2  0
 18 10  1  0
 19 18  2  0
 21 20  1  0
 21 22  2  0
 23 24  1  0
 23 21  1  0
 25 24  1  1
 25 27  1  0
 25 26  1  0
 26 18  1  0
 27 29  1  0
 28 27  2  0
M  END
$$$$
