MFQ.pdb
     RDKit          3D

 29 29  0  0  1  0  0  0  0  0999 V2000
   28.1752  -17.2363  -16.7740 C   0  0  0  0  0  0  0  0  0  0  0  0
   28.8299  -18.6377  -17.7431 S   0  0  0  0  0  0  0  0  0  0  0  0
   27.5526  -19.8997  -17.8934 C   0  0  0  0  0  0  0  0  0  0  0  0
   27.0247  -20.2563  -16.5232 C   0  0  0  0  0  0  0  0  0  0  0  0
   28.0566  -21.1223  -15.8378 C   0  0  2  0  0  0  0  0  0  0  0  0
   28.2357  -22.3165  -16.5910 N   0  0  0  0  0  0  0  0  0  0  0  0
   27.6128  -21.3284  -14.4577 C   0  0  0  0  0  0  0  0  0  0  0  0
   26.5655  -22.0206  -14.2316 O   0  0  0  0  0  0  0  0  0  0  0  0
   28.2812  -20.8001  -13.3253 N   0  0  0  0  0  0  0  0  0  0  0  0
   27.7731  -20.6817  -12.0080 C   0  0  1  0  0  0  0  0  0  0  0  0
   28.7033  -20.0908  -10.9731 C   0  0  0  0  0  0  0  0  0  0  0  0
   28.0664  -20.0308   -9.6369 C   0  0  0  0  0  0  0  0  0  0  0  0
   27.1926  -19.0761   -9.2182 C   0  0  0  0  0  0  0  0  0  0  0  0
   26.6704  -19.1221   -7.9343 C   0  0  0  0  0  0  0  0  0  0  0  0
   27.0039  -20.1096   -7.0506 C   0  0  0  0  0  0  0  0  0  0  0  0
   27.8847  -21.0781   -7.4634 C   0  0  0  0  0  0  0  0  0  0  0  0
   28.3979  -21.0386   -8.7152 C   0  0  0  0  0  0  0  0  0  0  0  0
   26.3880  -20.1824  -11.9072 C   0  0  0  0  0  0  0  0  0  0  0  0
   26.0362  -19.0561  -12.3656 O   0  0  0  0  0  0  0  0  0  0  0  0
   22.5750  -19.5935  -14.5614 N   0  0  0  0  0  0  0  0  0  0  0  0
   21.5265  -20.0514  -13.7600 C   0  0  0  0  0  0  0  0  0  0  0  0
   20.3386  -19.7667  -14.0188 O   0  0  0  0  0  0  0  0  0  0  0  0
   21.8382  -20.9032  -12.5633 C   0  0  0  0  0  0  0  0  0  0  0  0
   23.3232  -21.1593  -12.4801 C   0  0  0  0  0  0  0  0  0  0  0  0
   23.9614  -20.4909  -11.2931 C   0  0  2  0  0  0  0  0  0  0  0  0
   25.3628  -20.9426  -11.2863 N   0  0  0  0  0  0  0  0  0  0  0  0
   23.3472  -20.8261  -10.0138 C   0  0  0  0  0  0  0  0  0  0  0  0
   23.8957  -21.5553   -9.1642 O   0  0  0  0  0  0  0  0  0  0  0  0
   22.0810  -20.3250   -9.6856 O   0  0  0  0  0  0  0  0  0  0  0  0
  2  1  1  0
  3  2  1  0
  4  3  1  0
  5  4  1  0
  5  6  1  6
  7  5  1  0
  7  8  2  0
  9  7  1  0
 10  9  1  0
 10 11  1  1
 11 12  1  0
 12 13  2  0
 12 17  1  0
 13 14  1  0
 14 15  2  0
 16 15  1  0
 17 16  2  0
 18 10  1  0
 19 18  2  0
 21 20  1  0
 21 22  2  0
 23 24  1  0
 23 21  1  0
 25 24  1  6
 25 27  1  0
 25 26  1  0
 26 18  1  0
 27 29  1  0
 28 27  2  0
M  END
$$$$
