MFQ.pdb
     RDKit          3D

 29 29  0  0  1  0  0  0  0  0999 V2000
   26.4804  -20.2833   -3.6525 C   0  0  0  0  0  0  0  0  0  0  0  0
   27.7645  -19.3249   -4.5265 S   0  0  0  0  0  0  0  0  0  0  0  0
   28.2152  -20.1873   -6.0432 C   0  0  0  0  0  0  0  0  0  0  0  0
   26.9918  -20.3627   -6.9125 C   0  0  0  0  0  0  0  0  0  0  0  0
   27.4216  -21.0522   -8.1871 C   0  0  2  0  0  0  0  0  0  0  0  0
   28.7867  -20.7434   -8.4451 N   0  0  0  0  0  0  0  0  0  0  0  0
   26.4911  -20.6472   -9.2428 C   0  0  0  0  0  0  0  0  0  0  0  0
   26.1965  -19.4138   -9.3810 O   0  0  0  0  0  0  0  0  0  0  0  0
   25.8785  -21.5513  -10.1458 N   0  0  0  0  0  0  0  0  0  0  0  0
   25.2026  -21.2339  -11.3500 C   0  0  1  0  0  0  0  0  0  0  0  0
   25.9899  -21.3913  -12.6310 C   0  0  0  0  0  0  0  0  0  0  0  0
   27.3078  -20.7199  -12.5481 C   0  0  0  0  0  0  0  0  0  0  0  0
   27.5676  -19.4368  -12.9175 C   0  0  0  0  0  0  0  0  0  0  0  0
   28.8505  -18.9231  -12.8025 C   0  0  0  0  0  0  0  0  0  0  0  0
   29.8901  -19.6686  -12.3219 C   0  0  0  0  0  0  0  0  0  0  0  0
   29.6384  -20.9647  -11.9460 C   0  0  0  0  0  0  0  0  0  0  0  0
   28.3883  -21.4719  -12.0561 C   0  0  0  0  0  0  0  0  0  0  0  0
   23.8165  -21.7312  -11.4467 C   0  0  0  0  0  0  0  0  0  0  0  0
   23.5438  -22.9325  -11.7378 O   0  0  0  0  0  0  0  0  0  0  0  0
   19.8209  -22.2194   -7.5510 N   0  0  0  0  0  0  0  0  0  0  0  0
   18.9608  -22.5101   -8.6127 C   0  0  0  0  0  0  0  0  0  0  0  0
   17.8155  -22.9665   -8.4149 O   0  0  0  0  0  0  0  0  0  0  0  0
   19.4266  -22.2674  -10.0194 C   0  0  0  0  0  0  0  0  0  0  0  0
   20.8205  -21.6888  -10.0129 C   0  0  0  0  0  0  0  0  0  0  0  0
   21.3214  -21.3670  -11.3944 C   0  0  2  0  0  0  0  0  0  0  0  0
   22.7010  -20.8842  -11.2165 N   0  0  0  0  0  0  0  0  0  0  0  0
   20.5464  -20.3471  -12.0911 C   0  0  0  0  0  0  0  0  0  0  0  0
   19.5314  -20.6054  -12.7675 O   0  0  0  0  0  0  0  0  0  0  0  0
   20.9274  -19.0009  -12.0221 O   0  0  0  0  0  0  0  0  0  0  0  0
  2  1  1  0
  3  2  1  0
  4  3  1  0
  5  4  1  0
  5  6  1  6
  7  5  1  0
  7  8  2  0
  9  7  1  0
 10  9  1  0
 10 11  1  6
 11 12  1  0
 12 13  2  0
 12 17  1  0
 13 14  1  0
 14 15  2  0
 16 15  1  0
 17 16  2  0
 18 10  1  0
 19 18  2  0
 21 20  1  0
 21 22  2  0
 23 24  1  0
 23 21  1  0
 25 24  1  1
 25 27  1  0
 25 26  1  0
 26 18  1  0
 27 29  1  0
 28 27  2  0
M  END
$$$$
