MFQ.pdb
     RDKit          3D

 29 29  0  0  1  0  0  0  0  0999 V2000
   22.5564  -18.9828  -17.3663 C   0  0  0  0  0  0  0  0  0  0  0  0
   23.9065  -19.2981  -18.5534 S   0  0  0  0  0  0  0  0  0  0  0  0
   25.0057  -20.5558  -17.8771 C   0  0  0  0  0  0  0  0  0  0  0  0
   24.6021  -20.8747  -16.4563 C   0  0  0  0  0  0  0  0  0  0  0  0
   25.6254  -21.8293  -15.8851 C   0  0  2  0  0  0  0  0  0  0  0  0
   25.5433  -23.0689  -16.5794 N   0  0  0  0  0  0  0  0  0  0  0  0
   25.3891  -21.9176  -14.4427 C   0  0  0  0  0  0  0  0  0  0  0  0
   24.6017  -22.8127  -13.9889 O   0  0  0  0  0  0  0  0  0  0  0  0
   25.9885  -21.0571  -13.4895 N   0  0  0  0  0  0  0  0  0  0  0  0
   25.6821  -20.9607  -12.1095 C   0  0  1  0  0  0  0  0  0  0  0  0
   26.7561  -20.3841  -11.2153 C   0  0  0  0  0  0  0  0  0  0  0  0
   26.3059  -20.2982   -9.8066 C   0  0  0  0  0  0  0  0  0  0  0  0
   26.4601  -21.2680   -8.8653 C   0  0  0  0  0  0  0  0  0  0  0  0
   25.9840  -21.0733   -7.5775 C   0  0  0  0  0  0  0  0  0  0  0  0
   25.3514  -19.9209   -7.2045 C   0  0  0  0  0  0  0  0  0  0  0  0
   25.1910  -18.9357   -8.1468 C   0  0  0  0  0  0  0  0  0  0  0  0
   25.6534  -19.1198   -9.4055 C   0  0  0  0  0  0  0  0  0  0  0  0
   24.3275  -20.4662  -11.7959 C   0  0  0  0  0  0  0  0  0  0  0  0
   23.8339  -19.4392  -12.3472 O   0  0  0  0  0  0  0  0  0  0  0  0
   20.4774  -23.4850   -7.8926 N   0  0  0  0  0  0  0  0  0  0  0  0
   19.5313  -22.7571   -8.6182 C   0  0  0  0  0  0  0  0  0  0  0  0
   18.3074  -22.8992   -8.4158 O   0  0  0  0  0  0  0  0  0  0  0  0
   19.9994  -21.7849   -9.6624 C   0  0  0  0  0  0  0  0  0  0  0  0
   21.5065  -21.7948   -9.7434 C   0  0  0  0  0  0  0  0  0  0  0  0
   22.0329  -20.9351  -10.8600 C   0  0  2  0  0  0  0  0  0  0  0  0
   23.4937  -21.1192  -10.8509 N   0  0  0  0  0  0  0  0  0  0  0  0
   21.7313  -19.5156  -10.7177 C   0  0  0  0  0  0  0  0  0  0  0  0
   22.3809  -18.7513   -9.9772 O   0  0  0  0  0  0  0  0  0  0  0  0
   20.6688  -18.9446  -11.4298 O   0  0  0  0  0  0  0  0  0  0  0  0
  2  1  1  0
  3  2  1  0
  4  3  1  0
  5  4  1  0
  5  6  1  6
  7  5  1  0
  7  8  2  0
  9  7  1  0
 10  9  1  0
 10 11  1  1
 11 12  1  0
 12 13  2  0
 12 17  1  0
 13 14  1  0
 14 15  2  0
 16 15  1  0
 17 16  2  0
 18 10  1  0
 19 18  2  0
 21 20  1  0
 21 22  2  0
 23 24  1  0
 23 21  1  0
 25 24  1  1
 25 27  1  0
 25 26  1  0
 26 18  1  0
 27 29  1  0
 28 27  2  0
M  END
$$$$
