MFQ.pdb
     RDKit          3D

 29 29  0  0  1  0  0  0  0  0999 V2000
   21.8393  -23.4392  -16.1544 C   0  0  0  0  0  0  0  0  0  0  0  0
   20.1208  -23.3447  -15.5465 S   0  0  0  0  0  0  0  0  0  0  0  0
   20.0117  -22.0671  -14.2805 C   0  0  0  0  0  0  0  0  0  0  0  0
   21.3933  -21.5423  -13.9656 C   0  0  0  0  0  0  0  0  0  0  0  0
   21.2673  -20.5517  -12.8309 C   0  0  2  0  0  0  0  0  0  0  0  0
   20.4759  -19.4500  -13.2614 N   0  0  0  0  0  0  0  0  0  0  0  0
   22.6220  -20.2019  -12.3986 C   0  0  0  0  0  0  0  0  0  0  0  0
   23.2029  -19.1888  -12.9117 O   0  0  0  0  0  0  0  0  0  0  0  0
   23.3529  -20.9274  -11.4252 N   0  0  0  0  0  0  0  0  0  0  0  0
   24.7262  -20.7887  -11.1053 C   0  0  1  0  0  0  0  0  0  0  0  0
   25.1814  -21.3910   -9.7955 C   0  0  0  0  0  0  0  0  0  0  0  0
   26.5364  -20.9237   -9.4211 C   0  0  0  0  0  0  0  0  0  0  0  0
   26.8164  -19.9613   -8.5016 C   0  0  0  0  0  0  0  0  0  0  0  0
   28.1309  -19.6014   -8.2454 C   0  0  0  0  0  0  0  0  0  0  0  0
   29.1825  -20.1867   -8.8926 C   0  0  0  0  0  0  0  0  0  0  0  0
   28.9108  -21.1594   -9.8223 C   0  0  0  0  0  0  0  0  0  0  0  0
   27.6298  -21.5149  -10.0769 C   0  0  0  0  0  0  0  0  0  0  0  0
   25.6624  -21.0299  -12.2203 C   0  0  0  0  0  0  0  0  0  0  0  0
   25.7551  -22.1513  -12.8000 O   0  0  0  0  0  0  0  0  0  0  0  0
   26.2128  -17.2381  -16.2841 N   0  0  0  0  0  0  0  0  0  0  0  0
   27.4694  -17.7145  -16.6655 C   0  0  0  0  0  0  0  0  0  0  0  0
   27.9551  -17.4435  -17.7834 O   0  0  0  0  0  0  0  0  0  0  0  0
   28.2491  -18.5697  -15.7088 C   0  0  0  0  0  0  0  0  0  0  0  0
   27.5247  -18.6655  -14.3882 C   0  0  0  0  0  0  0  0  0  0  0  0
   27.0794  -20.0671  -14.0713 C   0  0  2  0  0  0  0  0  0  0  0  0
   26.5190  -20.0099  -12.7109 N   0  0  0  0  0  0  0  0  0  0  0  0
   28.1486  -21.0581  -14.1042 C   0  0  0  0  0  0  0  0  0  0  0  0
   28.5042  -21.6432  -15.1461 O   0  0  0  0  0  0  0  0  0  0  0  0
   28.8336  -21.3971  -12.9304 O   0  0  0  0  0  0  0  0  0  0  0  0
  2  1  1  0
  3  2  1  0
  4  3  1  0
  5  4  1  0
  5  6  1  6
  7  5  1  0
  7  8  2  0
  9  7  1  0
 10  9  1  0
 10 11  1  1
 11 12  1  0
 12 13  2  0
 12 17  1  0
 13 14  1  0
 14 15  2  0
 16 15  1  0
 17 16  2  0
 18 10  1  0
 19 18  2  0
 21 20  1  0
 21 22  2  0
 23 24  1  0
 23 21  1  0
 25 24  1  1
 25 27  1  0
 25 26  1  0
 26 18  1  0
 27 29  1  0
 28 27  2  0
M  END
$$$$
