MFQ.pdb
     RDKit          3D

 29 29  0  0  1  0  0  0  0  0999 V2000
   22.3445   -9.5930  -23.4911 C   0  0  0  0  0  0  0  0  0  0  0  0
   23.6194  -10.7962  -23.9996 S   0  0  0  0  0  0  0  0  0  0  0  0
   24.9573  -10.7846  -22.7927 C   0  0  0  0  0  0  0  0  0  0  0  0
   24.3833  -10.7335  -21.3959 C   0  0  0  0  0  0  0  0  0  0  0  0
   25.5292  -10.5458  -20.4283 C   0  0  2  0  0  0  0  0  0  0  0  0
   26.3129  -11.7334  -20.3999 N   0  0  0  0  0  0  0  0  0  0  0  0
   24.9573  -10.1574  -19.1375 C   0  0  0  0  0  0  0  0  0  0  0  0
   24.3411  -11.0270  -18.4365 O   0  0  0  0  0  0  0  0  0  0  0  0
   25.0417   -8.8503  -18.5969 N   0  0  0  0  0  0  0  0  0  0  0  0
   24.5236   -8.4003  -17.3572 C   0  0  1  0  0  0  0  0  0  0  0  0
   25.5291   -8.1227  -16.2629 C   0  0  0  0  0  0  0  0  0  0  0  0
   26.3851   -9.3019  -15.9958 C   0  0  0  0  0  0  0  0  0  0  0  0
   27.6170   -9.5234  -16.5285 C   0  0  0  0  0  0  0  0  0  0  0  0
   28.3190  -10.6758  -16.2092 C   0  0  0  0  0  0  0  0  0  0  0  0
   27.8142  -11.6212  -15.3614 C   0  0  0  0  0  0  0  0  0  0  0  0
   26.5720  -11.4071  -14.8180 C   0  0  0  0  0  0  0  0  0  0  0  0
   25.8817  -10.2843  -15.1260 C   0  0  0  0  0  0  0  0  0  0  0  0
   23.4586   -7.3829  -17.4492 C   0  0  0  0  0  0  0  0  0  0  0  0
   23.6302   -6.2690  -18.0254 O   0  0  0  0  0  0  0  0  0  0  0  0
   17.4232   -8.5817  -16.9814 N   0  0  0  0  0  0  0  0  0  0  0  0
   17.3508   -7.1871  -17.0178 C   0  0  0  0  0  0  0  0  0  0  0  0
   16.2535   -6.5948  -17.0824 O   0  0  0  0  0  0  0  0  0  0  0  0
   18.6209   -6.3870  -16.9782 C   0  0  0  0  0  0  0  0  0  0  0  0
   19.8157   -7.3091  -16.9600 C   0  0  0  0  0  0  0  0  0  0  0  0
   21.1229   -6.5647  -16.9632 C   0  0  2  0  0  0  0  0  0  0  0  0
   22.1704   -7.5971  -16.8929 N   0  0  0  0  0  0  0  0  0  0  0  0
   21.2899   -5.6406  -15.8477 C   0  0  0  0  0  0  0  0  0  0  0  0
   21.5393   -6.0138  -14.6845 O   0  0  0  0  0  0  0  0  0  0  0  0
   21.1722   -4.2597  -16.0509 O   0  0  0  0  0  0  0  0  0  0  0  0
  2  1  1  0
  3  2  1  0
  4  3  1  0
  5  4  1  0
  5  6  1  1
  7  5  1  0
  7  8  2  0
  9  7  1  0
 10  9  1  0
 10 11  1  1
 11 12  1  0
 12 13  2  0
 12 17  1  0
 13 14  1  0
 14 15  2  0
 16 15  1  0
 17 16  2  0
 18 10  1  0
 19 18  2  0
 21 20  1  0
 21 22  2  0
 23 24  1  0
 23 21  1  0
 25 24  1  1
 25 27  1  0
 25 26  1  0
 26 18  1  0
 27 29  1  0
 28 27  2  0
M  END
$$$$
