GCA.pdb
     RDKit          3D

 16 15  0  0  1  0  0  0  0  0999 V2000
    5.0377  -19.4423   23.7704 N   0  0  0  0  0  0  0  0  0  0  0  0
    5.4132  -18.6333   24.9157 C   0  0  0  0  0  0  0  0  0  0  0  0
    6.1367  -17.4355   24.4024 C   0  0  0  0  0  0  0  0  0  0  0  0
    6.4281  -17.3103   23.1672 O   0  0  0  0  0  0  0  0  0  0  0  0
    6.5468  -16.3643   25.2406 N   0  0  0  0  0  0  0  0  0  0  0  0
    7.4061  -15.3105   24.7567 C   0  0  1  0  0  0  0  0  0  0  0  0
    7.3674  -14.1971   25.7785 C   0  0  0  0  0  0  0  0  0  0  0  0
    5.6694  -13.5974   25.9570 S   0  0  0  0  0  0  0  0  0  0  0  0
    8.7813  -15.7736   24.4826 C   0  0  0  0  0  0  0  0  0  0  0  0
    9.3725  -16.4246   25.3790 O   0  0  0  0  0  0  0  0  0  0  0  0
   10.9843  -15.7876   21.4449 C   0  0  0  0  0  0  0  0  0  0  0  0
   10.7302  -16.1147   22.9105 C   0  0  2  0  0  0  0  0  0  0  0  0
    9.4666  -15.5260   23.2725 N   0  0  0  0  0  0  0  0  0  0  0  0
   11.8376  -15.7014   23.7730 C   0  0  0  0  0  0  0  0  0  0  0  0
   13.1007  -16.2187   23.5561 O   0  0  0  0  0  0  0  0  0  0  0  0
   11.6871  -14.8887   24.7112 O   0  0  0  0  0  0  0  0  0  0  0  0
  2  1  1  0
  2  3  1  0
  3  4  2  0
  5  3  1  0
  5  6  1  0
  6  7  1  1
  7  8  1  0
  9 13  1  0
  9  6  1  0
 10  9  2  0
 12 11  1  6
 12 14  1  0
 12 13  1  0
 14 15  1  0
 16 14  2  0
M  END
$$$$
