GCA.pdb
     RDKit          3D

 16 15  0  0  1  0  0  0  0  0999 V2000
    7.6978  -13.1954   19.4527 N   0  0  0  0  0  0  0  0  0  0  0  0
    6.8078  -13.3316   20.5913 C   0  0  0  0  0  0  0  0  0  0  0  0
    7.6519  -13.5732   21.7958 C   0  0  0  0  0  0  0  0  0  0  0  0
    8.9155  -13.7205   21.7065 O   0  0  0  0  0  0  0  0  0  0  0  0
    7.1165  -13.6553   23.1090 N   0  0  0  0  0  0  0  0  0  0  0  0
    7.9671  -13.8016   24.2657 C   0  0  1  0  0  0  0  0  0  0  0  0
    7.2633  -13.1351   25.4257 C   0  0  0  0  0  0  0  0  0  0  0  0
    5.5763  -13.7762   25.5601 S   0  0  0  0  0  0  0  0  0  0  0  0
    8.3093  -15.2096   24.5505 C   0  0  0  0  0  0  0  0  0  0  0  0
    7.3874  -16.0607   24.5004 O   0  0  0  0  0  0  0  0  0  0  0  0
   11.2279  -17.3038   24.2693 C   0  0  0  0  0  0  0  0  0  0  0  0
    9.9796  -17.0256   25.0963 C   0  0  2  0  0  0  0  0  0  0  0  0
    9.6112  -15.6510   24.8750 N   0  0  0  0  0  0  0  0  0  0  0  0
   10.1609  -17.3635   26.5084 C   0  0  0  0  0  0  0  0  0  0  0  0
   10.5143  -18.6521   26.8614 O   0  0  0  0  0  0  0  0  0  0  0  0
   10.0073  -16.5238   27.4219 O   0  0  0  0  0  0  0  0  0  0  0  0
  2  1  1  0
  2  3  1  0
  3  4  2  0
  5  3  1  0
  5  6  1  0
  6  7  1  1
  7  8  1  0
  9 13  1  0
  9  6  1  0
 10  9  2  0
 12 11  1  6
 12 14  1  0
 12 13  1  0
 14 15  1  0
 16 14  2  0
M  END
$$$$
