GCA.pdb
     RDKit          3D

 16 15  0  0  1  0  0  0  0  0999 V2000
    8.3494  -13.3784   17.0734 N   0  0  0  0  0  0  0  0  0  0  0  0
    7.6066  -14.0294   18.1371 C   0  0  0  0  0  0  0  0  0  0  0  0
    8.4512  -13.9905   19.3647 C   0  0  0  0  0  0  0  0  0  0  0  0
    9.6625  -13.5933   19.3290 O   0  0  0  0  0  0  0  0  0  0  0  0
    7.9736  -14.3871   20.6424 N   0  0  0  0  0  0  0  0  0  0  0  0
    8.8128  -14.3312   21.8152 C   0  0  1  0  0  0  0  0  0  0  0  0
    7.9437  -13.8773   22.9658 C   0  0  0  0  0  0  0  0  0  0  0  0
    6.7134  -15.1520   23.3355 S   0  0  0  0  0  0  0  0  0  0  0  0
    9.4914  -15.6124   22.0955 C   0  0  0  0  0  0  0  0  0  0  0  0
    8.8576  -16.6740   21.8765 O   0  0  0  0  0  0  0  0  0  0  0  0
   12.9671  -16.7150   22.8087 C   0  0  0  0  0  0  0  0  0  0  0  0
   11.4670  -16.9450   22.9364 C   0  0  2  0  0  0  0  0  0  0  0  0
   10.8093  -15.7102   22.5943 N   0  0  0  0  0  0  0  0  0  0  0  0
   11.0935  -17.4626   24.2531 C   0  0  0  0  0  0  0  0  0  0  0  0
   10.3403  -16.6780   25.1057 O   0  0  0  0  0  0  0  0  0  0  0  0
   11.4317  -18.6008   24.6446 O   0  0  0  0  0  0  0  0  0  0  0  0
  2  1  1  0
  2  3  1  0
  3  4  2  0
  5  3  1  0
  5  6  1  0
  6  7  1  1
  7  8  1  0
  9 13  1  0
  9  6  1  0
 10  9  2  0
 12 11  1  1
 12 14  1  0
 12 13  1  0
 14 15  1  0
 16 14  2  0
M  END
$$$$
