GCA.pdb
     RDKit          3D

 16 15  0  0  1  0  0  0  0  0999 V2000
    1.4370  -20.7747   19.4561 N   0  0  0  0  0  0  0  0  0  0  0  0
    1.6305  -20.2357   20.7899 C   0  0  0  0  0  0  0  0  0  0  0  0
    3.0946  -20.0367   20.9867 C   0  0  0  0  0  0  0  0  0  0  0  0
    3.9507  -20.5543   20.1958 O   0  0  0  0  0  0  0  0  0  0  0  0
    3.6319  -19.2677   22.0534 N   0  0  0  0  0  0  0  0  0  0  0  0
    5.0557  -19.1354   22.2491 C   0  0  1  0  0  0  0  0  0  0  0  0
    5.3024  -17.7588   22.8230 C   0  0  0  0  0  0  0  0  0  0  0  0
    7.0588  -17.5723   23.2167 S   0  0  0  0  0  0  0  0  0  0  0  0
    5.6192  -20.2060   23.0959 C   0  0  0  0  0  0  0  0  0  0  0  0
    5.1060  -20.3932   24.2265 O   0  0  0  0  0  0  0  0  0  0  0  0
    7.9339  -23.0681   22.5382 C   0  0  0  0  0  0  0  0  0  0  0  0
    7.2297  -22.1126   23.4925 C   0  0  2  0  0  0  0  0  0  0  0  0
    6.6995  -21.0284   22.7064 N   0  0  0  0  0  0  0  0  0  0  0  0
    8.1002  -21.6740   24.5838 C   0  0  0  0  0  0  0  0  0  0  0  0
    8.1311  -22.3940   25.7629 O   0  0  0  0  0  0  0  0  0  0  0  0
    8.8274  -20.6609   24.4930 O   0  0  0  0  0  0  0  0  0  0  0  0
  2  1  1  0
  2  3  1  0
  3  4  2  0
  5  3  1  0
  5  6  1  0
  6  7  1  1
  7  8  1  0
  9 13  1  0
  9  6  1  0
 10  9  2  0
 12 11  1  6
 12 14  1  0
 12 13  1  0
 14 15  1  0
 16 14  2  0
M  END
$$$$
