GCA.pdb
     RDKit          3D

 16 15  0  0  1  0  0  0  0  0999 V2000
    5.3534  -19.7714   20.5206 N   0  0  0  0  0  0  0  0  0  0  0  0
    5.0467  -19.3921   21.8879 C   0  0  0  0  0  0  0  0  0  0  0  0
    6.2206  -18.6444   22.4214 C   0  0  0  0  0  0  0  0  0  0  0  0
    7.2941  -18.5167   21.7449 O   0  0  0  0  0  0  0  0  0  0  0  0
    6.2265  -18.0302   23.7023 N   0  0  0  0  0  0  0  0  0  0  0  0
    7.4184  -17.4248   24.2461 C   0  0  1  0  0  0  0  0  0  0  0  0
    6.9817  -16.2228   25.0522 C   0  0  0  0  0  0  0  0  0  0  0  0
    8.4318  -15.4236   25.7825 S   0  0  0  0  0  0  0  0  0  0  0  0
    8.2291  -18.3693   25.0408 C   0  0  0  0  0  0  0  0  0  0  0  0
    7.6533  -19.0210   25.9466 O   0  0  0  0  0  0  0  0  0  0  0  0
   11.5890  -19.9058   24.6334 C   0  0  0  0  0  0  0  0  0  0  0  0
   10.3967  -19.5759   25.5217 C   0  0  2  0  0  0  0  0  0  0  0  0
    9.6112  -18.5800   24.8394 N   0  0  0  0  0  0  0  0  0  0  0  0
   10.8008  -19.1800   26.8712 C   0  0  0  0  0  0  0  0  0  0  0  0
   11.2309  -20.1429   27.7643 O   0  0  0  0  0  0  0  0  0  0  0  0
   10.7730  -17.9906   27.2555 O   0  0  0  0  0  0  0  0  0  0  0  0
  2  1  1  0
  2  3  1  0
  3  4  2  0
  5  3  1  0
  5  6  1  0
  6  7  1  1
  7  8  1  0
  9 13  1  0
  9  6  1  0
 10  9  2  0
 12 11  1  6
 12 14  1  0
 12 13  1  0
 14 15  1  0
 16 14  2  0
M  END
$$$$
