GCA.pdb
     RDKit          3D

 16 15  0  0  1  0  0  0  0  0999 V2000
    5.6557  -20.3311   21.3402 N   0  0  0  0  0  0  0  0  0  0  0  0
    5.2163  -19.6353   22.5360 C   0  0  0  0  0  0  0  0  0  0  0  0
    6.3983  -18.9268   23.1041 C   0  0  0  0  0  0  0  0  0  0  0  0
    7.5679  -19.0873   22.6219 O   0  0  0  0  0  0  0  0  0  0  0  0
    6.3068  -18.0357   24.2067 N   0  0  0  0  0  0  0  0  0  0  0  0
    7.4829  -17.4675   24.8206 C   0  0  1  0  0  0  0  0  0  0  0  0
    7.0921  -16.1137   25.3679 C   0  0  0  0  0  0  0  0  0  0  0  0
    8.5275  -15.3401   26.1528 S   0  0  0  0  0  0  0  0  0  0  0  0
    8.0689  -18.3436   25.8549 C   0  0  0  0  0  0  0  0  0  0  0  0
    7.3183  -18.7496   26.7761 O   0  0  0  0  0  0  0  0  0  0  0  0
   10.9936  -20.5374   26.0739 C   0  0  0  0  0  0  0  0  0  0  0  0
    9.9969  -19.6610   26.8208 C   0  0  2  0  0  0  0  0  0  0  0  0
    9.4219  -18.7490   25.8659 N   0  0  0  0  0  0  0  0  0  0  0  0
   10.5979  -18.9963   27.9776 C   0  0  0  0  0  0  0  0  0  0  0  0
   10.6816  -17.6171   28.0041 O   0  0  0  0  0  0  0  0  0  0  0  0
   11.0451  -19.6324   28.9566 O   0  0  0  0  0  0  0  0  0  0  0  0
  2  1  1  0
  2  3  1  0
  3  4  2  0
  5  3  1  0
  5  6  1  0
  6  7  1  1
  7  8  1  0
  9 13  1  0
  9  6  1  0
 10  9  2  0
 12 11  1  6
 12 14  1  0
 12 13  1  0
 14 15  1  0
 16 14  2  0
M  END
$$$$
