GCA.pdb
     RDKit          3D

 16 15  0  0  1  0  0  0  0  0999 V2000
    8.0417  -15.3844   20.2955 N   0  0  0  0  0  0  0  0  0  0  0  0
    7.0832  -15.1106   21.3508 C   0  0  0  0  0  0  0  0  0  0  0  0
    7.8530  -14.7508   22.5754 C   0  0  0  0  0  0  0  0  0  0  0  0
    9.1250  -14.8345   22.6127 O   0  0  0  0  0  0  0  0  0  0  0  0
    7.2333  -14.2961   23.7701 N   0  0  0  0  0  0  0  0  0  0  0  0
    8.0016  -13.9940   24.9539 C   0  0  1  0  0  0  0  0  0  0  0  0
    7.1864  -13.0266   25.7815 C   0  0  0  0  0  0  0  0  0  0  0  0
    8.0719  -12.6432   27.3124 S   0  0  0  0  0  0  0  0  0  0  0  0
    8.3811  -15.2019   25.7140 C   0  0  0  0  0  0  0  0  0  0  0  0
    7.4664  -15.9867   26.0663 O   0  0  0  0  0  0  0  0  0  0  0  0
   11.3914  -17.2194   26.1620 C   0  0  0  0  0  0  0  0  0  0  0  0
   10.1052  -16.7020   26.7924 C   0  0  2  0  0  0  0  0  0  0  0  0
    9.7110  -15.5227   26.0656 N   0  0  0  0  0  0  0  0  0  0  0  0
   10.2399  -16.4845   28.2331 C   0  0  0  0  0  0  0  0  0  0  0  0
   10.5196  -17.5550   29.0612 O   0  0  0  0  0  0  0  0  0  0  0  0
   10.1107  -15.3552   28.7538 O   0  0  0  0  0  0  0  0  0  0  0  0
  2  1  1  0
  2  3  1  0
  3  4  2  0
  5  3  1  0
  5  6  1  0
  6  7  1  1
  7  8  1  0
  9 13  1  0
  9  6  1  0
 10  9  2  0
 12 11  1  6
 12 14  1  0
 12 13  1  0
 14 15  1  0
 16 14  2  0
M  END
$$$$
