GCA.pdb
     RDKit          3D

 16 15  0  0  1  0  0  0  0  0999 V2000
    7.8191  -15.3078   20.5510 N   0  0  0  0  0  0  0  0  0  0  0  0
    6.8197  -15.0181   21.5633 C   0  0  0  0  0  0  0  0  0  0  0  0
    7.5353  -14.5198   22.7722 C   0  0  0  0  0  0  0  0  0  0  0  0
    8.8085  -14.5282   22.8449 O   0  0  0  0  0  0  0  0  0  0  0  0
    6.8596  -14.0080   23.9121 N   0  0  0  0  0  0  0  0  0  0  0  0
    7.5794  -13.5405   25.0724 C   0  0  1  0  0  0  0  0  0  0  0  0
    6.6377  -12.6552   25.8563 C   0  0  0  0  0  0  0  0  0  0  0  0
    7.4342  -12.1369   27.3964 S   0  0  0  0  0  0  0  0  0  0  0  0
    8.1254  -14.6425   25.8900 C   0  0  0  0  0  0  0  0  0  0  0  0
    7.3350  -15.5422   26.2675 O   0  0  0  0  0  0  0  0  0  0  0  0
   11.3463  -16.2350   26.3371 C   0  0  0  0  0  0  0  0  0  0  0  0
   10.0466  -15.8321   27.0211 C   0  0  2  0  0  0  0  0  0  0  0  0
    9.4823  -14.7406   26.2696 N   0  0  0  0  0  0  0  0  0  0  0  0
   10.2350  -15.5306   28.4405 C   0  0  0  0  0  0  0  0  0  0  0  0
    9.8651  -14.2921   28.9295 O   0  0  0  0  0  0  0  0  0  0  0  0
   10.7233  -16.3580   29.2407 O   0  0  0  0  0  0  0  0  0  0  0  0
  2  1  1  0
  2  3  1  0
  3  4  2  0
  5  3  1  0
  5  6  1  0
  6  7  1  1
  7  8  1  0
  9 13  1  0
  9  6  1  0
 10  9  2  0
 12 11  1  6
 12 14  1  0
 12 13  1  0
 14 15  1  0
 16 14  2  0
M  END
$$$$
