GCA.pdb
     RDKit          3D

 16 15  0  0  1  0  0  0  0  0999 V2000
    9.0411  -15.6521   20.7419 N   0  0  0  0  0  0  0  0  0  0  0  0
    7.9291  -15.7992   21.6633 C   0  0  0  0  0  0  0  0  0  0  0  0
    8.2249  -14.9646   22.8623 C   0  0  0  0  0  0  0  0  0  0  0  0
    9.3550  -14.3940   23.0159 O   0  0  0  0  0  0  0  0  0  0  0  0
    7.2828  -14.7488   23.9033 N   0  0  0  0  0  0  0  0  0  0  0  0
    7.5865  -13.9095   25.0375 C   0  0  1  0  0  0  0  0  0  0  0  0
    6.2695  -13.4401   25.6121 C   0  0  0  0  0  0  0  0  0  0  0  0
    6.5782  -12.3541   27.0264 S   0  0  0  0  0  0  0  0  0  0  0  0
    8.4279  -14.5886   26.0433 C   0  0  0  0  0  0  0  0  0  0  0  0
    8.3019  -15.8312   26.1734 O   0  0  0  0  0  0  0  0  0  0  0  0
   10.8864  -13.5065   28.6591 C   0  0  0  0  0  0  0  0  0  0  0  0
   10.2876  -14.5753   27.7542 C   0  0  2  0  0  0  0  0  0  0  0  0
    9.3633  -13.9208   26.8644 N   0  0  0  0  0  0  0  0  0  0  0  0
    9.6917  -15.6760   28.5120 C   0  0  0  0  0  0  0  0  0  0  0  0
    8.3199  -15.7305   28.6709 O   0  0  0  0  0  0  0  0  0  0  0  0
   10.3809  -16.5820   29.0291 O   0  0  0  0  0  0  0  0  0  0  0  0
  2  1  1  0
  2  3  1  0
  3  4  2  0
  5  3  1  0
  5  6  1  0
  6  7  1  1
  7  8  1  0
  9 13  1  0
  9  6  1  0
 10  9  2  0
 12 11  1  1
 12 14  1  0
 12 13  1  0
 14 15  1  0
 16 14  2  0
M  END
$$$$
