GCA.pdb
     RDKit          3D

 16 15  0  0  1  0  0  0  0  0999 V2000
   -1.3232  -26.5240   31.8810 N   0  0  0  0  0  0  0  0  0  0  0  0
   -2.5343  -27.1802   31.4229 C   0  0  0  0  0  0  0  0  0  0  0  0
   -3.2764  -26.2096   30.5690 C   0  0  0  0  0  0  0  0  0  0  0  0
   -2.7276  -25.1404   30.1425 O   0  0  0  0  0  0  0  0  0  0  0  0
   -4.6275  -26.4041   30.1757 N   0  0  0  0  0  0  0  0  0  0  0  0
   -5.3273  -25.4358   29.3660 C   0  0  1  0  0  0  0  0  0  0  0  0
   -5.9814  -26.1906   28.2313 C   0  0  0  0  0  0  0  0  0  0  0  0
   -6.9206  -25.0384   27.1991 S   0  0  0  0  0  0  0  0  0  0  0  0
   -6.2968  -24.6353   30.1407 C   0  0  0  0  0  0  0  0  0  0  0  0
   -7.0594  -25.2409   30.9334 O   0  0  0  0  0  0  0  0  0  0  0  0
   -7.0554  -20.9692   30.4686 C   0  0  0  0  0  0  0  0  0  0  0  0
   -7.3358  -22.4287   30.8017 C   0  0  2  0  0  0  0  0  0  0  0  0
   -6.4138  -23.2313   30.0400 N   0  0  0  0  0  0  0  0  0  0  0  0
   -8.7384  -22.7881   30.5905 C   0  0  0  0  0  0  0  0  0  0  0  0
   -9.1087  -23.4360   29.4272 O   0  0  0  0  0  0  0  0  0  0  0  0
   -9.6284  -22.5302   31.4299 O   0  0  0  0  0  0  0  0  0  0  0  0
  2  1  1  0
  2  3  1  0
  3  4  2  0
  5  3  1  0
  5  6  1  0
  6  7  1  6
  7  8  1  0
  9 13  1  0
  9  6  1  0
 10  9  2  0
 12 11  1  6
 12 14  1  0
 12 13  1  0
 14 15  1  0
 16 14  2  0
M  END
$$$$
