LYF.pdb
     RDKit          3D

 32 33  0  0  1  0  0  0  0  0999 V2000
    9.0535  -13.0252   19.4111 C   0  0  0  0  0  0  0  0  0  0  0  0
    7.7595  -13.6058   18.8658 C   0  0  2  0  0  0  0  0  0  0  0  0
    6.8418  -12.5515   18.3525 C   0  0  0  0  0  0  0  0  0  0  0  0
    7.1139  -14.4011   19.9508 C   0  0  0  0  0  0  0  0  0  0  0  0
    8.0837  -15.3756   20.5408 C   0  0  2  0  0  0  0  0  0  0  0  0
    8.6118  -16.3436   19.6306 N   0  0  0  0  0  0  0  0  0  0  0  0
    7.6289  -15.9629   21.8070 C   0  0  0  0  0  0  0  0  0  0  0  0
    6.8729  -15.3614   22.6198 O   0  0  0  0  0  0  0  0  0  0  0  0
    6.7521  -21.9330   28.2556 O   0  0  0  0  0  0  0  0  0  0  0  0
    7.0978  -21.2904   27.0621 C   0  0  0  0  0  0  0  0  0  0  0  0
    8.3333  -20.7364   26.8760 C   0  0  0  0  0  0  0  0  0  0  0  0
    8.6462  -20.1047   25.6778 C   0  0  0  0  0  0  0  0  0  0  0  0
    7.7591  -19.9993   24.6294 C   0  0  0  0  0  0  0  0  0  0  0  0
    8.0825  -19.3138   23.3524 C   0  0  0  0  0  0  0  0  0  0  0  0
    7.5616  -17.8547   23.4317 C   0  0  2  0  0  0  0  0  0  0  0  0
    8.0410  -17.2744   22.1730 N   0  0  0  0  0  0  0  0  0  0  0  0
    8.2742  -17.2732   24.5845 C   0  0  0  0  0  0  0  0  0  0  0  0
    9.3746  -16.7142   24.3461 O   0  0  0  0  0  0  0  0  0  0  0  0
    6.4947  -20.5740   24.8333 C   0  0  0  0  0  0  0  0  0  0  0  0
    6.1836  -21.2000   26.0230 C   0  0  0  0  0  0  0  0  0  0  0  0
    7.7965  -17.2999   25.9242 N   0  0  0  0  0  0  0  0  0  0  0  0
    8.1265  -16.2656   26.8881 C   0  0  1  0  0  0  0  0  0  0  0  0
    6.8761  -15.4587   27.1497 C   0  0  0  0  0  0  0  0  0  0  0  0
    7.1260  -14.0574   26.7684 C   0  0  0  0  0  0  0  0  0  0  0  0
    6.0866  -13.1524   26.8653 C   0  0  0  0  0  0  0  0  0  0  0  0
    6.2836  -11.8387   26.5299 C   0  0  0  0  0  0  0  0  0  0  0  0
    7.5531  -11.4688   26.0968 C   0  0  0  0  0  0  0  0  0  0  0  0
    8.5852  -12.3534   25.9969 C   0  0  0  0  0  0  0  0  0  0  0  0
    8.3713  -13.6826   26.3410 C   0  0  0  0  0  0  0  0  0  0  0  0
    8.8694  -16.7142   28.0462 C   0  0  0  0  0  0  0  0  0  0  0  0
    8.6985  -17.8144   28.6251 O   0  0  0  0  0  0  0  0  0  0  0  0
    9.8714  -15.9094   28.6217 O   0  0  0  0  0  0  0  0  0  0  0  0
  2  1  1  1
  2  3  1  0
  4  2  1  0
  5  4  1  0
  5  6  1  6
  7  8  2  0
  7  5  1  0
  9 10  1  0
 10 20  2  0
 11 12  2  0
 11 10  1  0
 12 13  1  0
 13 19  2  0
 13 14  1  0
 15 14  1  6
 15 16  1  0
 16  7  1  0
 17 15  1  0
 18 17  2  0
 20 19  1  0
 21 17  1  0
 22 21  1  0
 22 23  1  1
 23 24  1  0
 24 29  2  0
 25 26  2  0
 25 24  1  0
 26 27  1  0
 27 28  2  0
 29 28  1  0
 30 32  1  0
 30 22  1  0
 31 30  2  0
M  END
$$$$
