LYF.pdb
     RDKit          3D

 32 33  0  0  1  0  0  0  0  0999 V2000
    9.2950  -13.6633   18.5718 C   0  0  0  0  0  0  0  0  0  0  0  0
    7.8100  -13.8829   18.3368 C   0  0  2  0  0  0  0  0  0  0  0  0
    7.1155  -12.6335   17.9195 C   0  0  0  0  0  0  0  0  0  0  0  0
    7.2183  -14.4358   19.5900 C   0  0  0  0  0  0  0  0  0  0  0  0
    8.0672  -15.5421   20.1322 C   0  0  2  0  0  0  0  0  0  0  0  0
    8.2149  -16.6782   19.2768 N   0  0  0  0  0  0  0  0  0  0  0  0
    7.7468  -15.9024   21.5188 C   0  0  0  0  0  0  0  0  0  0  0  0
    7.3928  -15.0610   22.3910 O   0  0  0  0  0  0  0  0  0  0  0  0
    7.8624  -20.9106   28.8124 O   0  0  0  0  0  0  0  0  0  0  0  0
    7.8411  -20.4671   27.4858 C   0  0  0  0  0  0  0  0  0  0  0  0
    6.6780  -20.0991   26.8696 C   0  0  0  0  0  0  0  0  0  0  0  0
    6.6903  -19.6623   25.5499 C   0  0  0  0  0  0  0  0  0  0  0  0
    7.8411  -19.5728   24.7983 C   0  0  0  0  0  0  0  0  0  0  0  0
    7.8591  -19.1204   23.3841 C   0  0  0  0  0  0  0  0  0  0  0  0
    7.6288  -17.5864   23.3554 C   0  0  2  0  0  0  0  0  0  0  0  0
    7.8290  -17.2587   21.9399 N   0  0  0  0  0  0  0  0  0  0  0  0
    8.7192  -17.0366   24.1823 C   0  0  0  0  0  0  0  0  0  0  0  0
    9.8918  -17.2257   23.7708 O   0  0  0  0  0  0  0  0  0  0  0  0
    9.0285  -19.9523   25.4438 C   0  0  0  0  0  0  0  0  0  0  0  0
    9.0162  -20.3869   26.7534 C   0  0  0  0  0  0  0  0  0  0  0  0
    8.5270  -16.3121   25.3914 N   0  0  0  0  0  0  0  0  0  0  0  0
    9.6366  -15.8191   26.1873 C   0  0  1  0  0  0  0  0  0  0  0  0
    9.7626  -14.3341   25.9389 C   0  0  0  0  0  0  0  0  0  0  0  0
    8.5546  -13.6623   26.4496 C   0  0  0  0  0  0  0  0  0  0  0  0
    8.5768  -13.1522   27.7334 C   0  0  0  0  0  0  0  0  0  0  0  0
    7.4765  -12.5115   28.2392 C   0  0  0  0  0  0  0  0  0  0  0  0
    6.3607  -12.4019   27.4152 C   0  0  0  0  0  0  0  0  0  0  0  0
    6.3278  -12.9018   26.1476 C   0  0  0  0  0  0  0  0  0  0  0  0
    7.4513  -13.5487   25.6474 C   0  0  0  0  0  0  0  0  0  0  0  0
    9.6489  -16.2546   27.5673 C   0  0  0  0  0  0  0  0  0  0  0  0
    8.6557  -16.7115   28.1835 O   0  0  0  0  0  0  0  0  0  0  0  0
   10.8252  -16.1879   28.3385 O   0  0  0  0  0  0  0  0  0  0  0  0
  2  1  1  1
  2  3  1  0
  4  2  1  0
  5  4  1  0
  5  6  1  6
  7  8  2  0
  7  5  1  0
  9 10  1  0
 10 20  2  0
 11 12  2  0
 11 10  1  0
 12 13  1  0
 13 19  2  0
 13 14  1  0
 15 14  1  6
 15 16  1  0
 16  7  1  0
 17 15  1  0
 18 17  2  0
 20 19  1  0
 21 17  1  0
 22 21  1  0
 22 23  1  1
 23 24  1  0
 24 29  2  0
 25 26  2  0
 25 24  1  0
 26 27  1  0
 27 28  2  0
 29 28  1  0
 30 32  1  0
 30 22  1  0
 31 30  2  0
M  END
$$$$
