LYF.pdb
     RDKit          3D

 32 33  0  0  1  0  0  0  0  0999 V2000
    8.0581  -13.5071   19.1661 C   0  0  0  0  0  0  0  0  0  0  0  0
    7.4796  -14.0784   20.4498 C   0  0  2  0  0  0  0  0  0  0  0  0
    6.8630  -13.0275   21.3058 C   0  0  0  0  0  0  0  0  0  0  0  0
    8.5718  -14.7917   21.1742 C   0  0  0  0  0  0  0  0  0  0  0  0
    9.1106  -15.9147   20.3453 C   0  0  2  0  0  0  0  0  0  0  0  0
    8.1349  -16.8350   19.8500 N   0  0  0  0  0  0  0  0  0  0  0  0
   10.2775  -16.5768   20.9412 C   0  0  0  0  0  0  0  0  0  0  0  0
   10.2724  -17.7792   21.3263 O   0  0  0  0  0  0  0  0  0  0  0  0
   18.6627  -17.7031   23.5103 O   0  0  0  0  0  0  0  0  0  0  0  0
   17.4559  -17.1672   23.0487 C   0  0  0  0  0  0  0  0  0  0  0  0
   16.7515  -17.7517   22.0338 C   0  0  0  0  0  0  0  0  0  0  0  0
   15.5548  -17.1946   21.5979 C   0  0  0  0  0  0  0  0  0  0  0  0
   15.0147  -16.0512   22.1443 C   0  0  0  0  0  0  0  0  0  0  0  0
   13.7441  -15.4434   21.6740 C   0  0  0  0  0  0  0  0  0  0  0  0
   12.6142  -16.4976   21.8109 C   0  0  2  0  0  0  0  0  0  0  0  0
   11.4941  -15.8595   21.1114 N   0  0  0  0  0  0  0  0  0  0  0  0
   12.3557  -16.5716   23.2609 C   0  0  0  0  0  0  0  0  0  0  0  0
   13.2667  -17.0638   23.9736 O   0  0  0  0  0  0  0  0  0  0  0  0
   15.7475  -15.4622   23.1867 C   0  0  0  0  0  0  0  0  0  0  0  0
   16.9359  -16.0145   23.6186 C   0  0  0  0  0  0  0  0  0  0  0  0
   11.1624  -16.1210   23.8908 N   0  0  0  0  0  0  0  0  0  0  0  0
   11.0689  -15.9191   25.3254 C   0  0  1  0  0  0  0  0  0  0  0  0
    9.8178  -15.1180   25.6010 C   0  0  0  0  0  0  0  0  0  0  0  0
    9.7684  -14.7923   27.0373 C   0  0  0  0  0  0  0  0  0  0  0  0
    9.5055  -15.8088   27.9352 C   0  0  0  0  0  0  0  0  0  0  0  0
    9.4622  -15.5467   29.2792 C   0  0  0  0  0  0  0  0  0  0  0  0
    9.6910  -14.2360   29.6866 C   0  0  0  0  0  0  0  0  0  0  0  0
    9.9506  -13.2255   28.8094 C   0  0  0  0  0  0  0  0  0  0  0  0
    9.9922  -13.5061   27.4491 C   0  0  0  0  0  0  0  0  0  0  0  0
   11.2781  -17.1028   26.1312 C   0  0  0  0  0  0  0  0  0  0  0  0
   10.7767  -18.2285   25.8947 O   0  0  0  0  0  0  0  0  0  0  0  0
   12.0900  -17.0633   27.2811 O   0  0  0  0  0  0  0  0  0  0  0  0
  2  1  1  6
  2  3  1  0
  4  2  1  0
  5  4  1  0
  5  6  1  1
  7  8  2  0
  7  5  1  0
  9 10  1  0
 10 20  2  0
 11 12  2  0
 11 10  1  0
 12 13  1  0
 13 19  2  0
 13 14  1  0
 15 14  1  1
 15 16  1  0
 16  7  1  0
 17 15  1  0
 18 17  2  0
 20 19  1  0
 21 17  1  0
 22 21  1  0
 22 23  1  6
 23 24  1  0
 24 29  2  0
 25 26  2  0
 25 24  1  0
 26 27  1  0
 27 28  2  0
 29 28  1  0
 30 32  1  0
 30 22  1  0
 31 30  2  0
M  END
$$$$
