LYF.pdb
     RDKit          3D

 32 33  0  0  1  0  0  0  0  0999 V2000
    9.4662  -12.8941   18.8806 C   0  0  0  0  0  0  0  0  0  0  0  0
    7.9765  -13.0596   19.1301 C   0  0  2  0  0  0  0  0  0  0  0  0
    7.3333  -11.7877   19.5614 C   0  0  0  0  0  0  0  0  0  0  0  0
    7.7932  -14.1305   20.1529 C   0  0  0  0  0  0  0  0  0  0  0  0
    8.4556  -15.3985   19.7153 C   0  0  2  0  0  0  0  0  0  0  0  0
    7.9130  -15.9996   18.5370 N   0  0  0  0  0  0  0  0  0  0  0  0
    8.6668  -16.3574   20.8067 C   0  0  0  0  0  0  0  0  0  0  0  0
    7.7555  -17.1032   21.2622 O   0  0  0  0  0  0  0  0  0  0  0  0
   12.9421  -21.8331   26.1845 O   0  0  0  0  0  0  0  0  0  0  0  0
   12.6107  -20.7869   25.3170 C   0  0  0  0  0  0  0  0  0  0  0  0
   11.3367  -20.2992   25.2329 C   0  0  0  0  0  0  0  0  0  0  0  0
   11.0395  -19.2582   24.3608 C   0  0  0  0  0  0  0  0  0  0  0  0
   11.9812  -18.6659   23.5485 C   0  0  0  0  0  0  0  0  0  0  0  0
   11.6673  -17.5631   22.6049 C   0  0  0  0  0  0  0  0  0  0  0  0
   10.1268  -17.3890   22.5466 C   0  0  2  0  0  0  0  0  0  0  0  0
    9.9498  -16.4807   21.4087 N   0  0  0  0  0  0  0  0  0  0  0  0
    9.7855  -16.7173   23.8143 C   0  0  0  0  0  0  0  0  0  0  0  0
   10.4173  -15.6648   24.0848 O   0  0  0  0  0  0  0  0  0  0  0  0
   13.2856  -19.1752   23.6461 C   0  0  0  0  0  0  0  0  0  0  0  0
   13.5805  -20.2093   24.5109 C   0  0  0  0  0  0  0  0  0  0  0  0
    8.7975  -17.1763   24.7290 N   0  0  0  0  0  0  0  0  0  0  0  0
    8.5052  -16.4830   25.9707 C   0  0  1  0  0  0  0  0  0  0  0  0
    7.1097  -15.9131   25.8669 C   0  0  0  0  0  0  0  0  0  0  0  0
    7.1610  -14.4717   26.1684 C   0  0  0  0  0  0  0  0  0  0  0  0
    5.9953  -13.7361   26.0727 C   0  0  0  0  0  0  0  0  0  0  0  0
    6.0015  -12.3957   26.3556 C   0  0  0  0  0  0  0  0  0  0  0  0
    7.2118  -11.8241   26.7357 C   0  0  0  0  0  0  0  0  0  0  0  0
    8.3675  -12.5400   26.8328 C   0  0  0  0  0  0  0  0  0  0  0  0
    8.3464  -13.8990   26.5435 C   0  0  0  0  0  0  0  0  0  0  0  0
    8.8245  -17.2150   27.1774 C   0  0  0  0  0  0  0  0  0  0  0  0
    8.7579  -16.7455   28.3393 O   0  0  0  0  0  0  0  0  0  0  0  0
    9.2501  -18.5562   27.1211 O   0  0  0  0  0  0  0  0  0  0  0  0
  2  1  1  1
  2  3  1  0
  4  2  1  0
  5  4  1  0
  5  6  1  6
  7  8  2  0
  7  5  1  0
  9 10  1  0
 10 20  2  0
 11 12  2  0
 11 10  1  0
 12 13  1  0
 13 19  2  0
 13 14  1  0
 15 14  1  1
 15 16  1  0
 16  7  1  0
 17 15  1  0
 18 17  2  0
 20 19  1  0
 21 17  1  0
 22 21  1  0
 22 23  1  1
 23 24  1  0
 24 29  2  0
 25 26  2  0
 25 24  1  0
 26 27  1  0
 27 28  2  0
 29 28  1  0
 30 32  1  0
 30 22  1  0
 31 30  2  0
M  END
$$$$
