LYF.pdb
     RDKit          3D

 32 33  0  0  1  0  0  0  0  0999 V2000
    8.1734  -12.5830   20.2591 C   0  0  0  0  0  0  0  0  0  0  0  0
    8.6405  -13.6324   19.2644 C   0  0  2  0  0  0  0  0  0  0  0  0
    8.6287  -13.1255   17.8643 C   0  0  0  0  0  0  0  0  0  0  0  0
    7.7660  -14.8326   19.4107 C   0  0  0  0  0  0  0  0  0  0  0  0
    8.5683  -16.0895   19.2882 C   0  0  2  0  0  0  0  0  0  0  0  0
    8.0732  -17.0444   18.3464 N   0  0  0  0  0  0  0  0  0  0  0  0
    8.9251  -16.6865   20.5810 C   0  0  0  0  0  0  0  0  0  0  0  0
    8.1112  -17.3373   21.2939 O   0  0  0  0  0  0  0  0  0  0  0  0
   13.0218  -22.0573   19.0590 O   0  0  0  0  0  0  0  0  0  0  0  0
   12.8043  -20.9034   19.8193 C   0  0  0  0  0  0  0  0  0  0  0  0
   12.9880  -19.6537   19.2975 C   0  0  0  0  0  0  0  0  0  0  0  0
   12.7631  -18.5263   20.0791 C   0  0  0  0  0  0  0  0  0  0  0  0
   12.3512  -18.5917   21.3919 C   0  0  0  0  0  0  0  0  0  0  0  0
   12.1227  -17.3917   22.2363 C   0  0  0  0  0  0  0  0  0  0  0  0
   10.5932  -17.1697   22.3718 C   0  0  2  0  0  0  0  0  0  0  0  0
   10.2454  -16.5450   21.0912 N   0  0  0  0  0  0  0  0  0  0  0  0
   10.4595  -16.2067   23.4807 C   0  0  0  0  0  0  0  0  0  0  0  0
   10.8673  -15.0371   23.2667 O   0  0  0  0  0  0  0  0  0  0  0  0
   12.1648  -19.8811   21.9147 C   0  0  0  0  0  0  0  0  0  0  0  0
   12.3892  -21.0002   21.1392 C   0  0  0  0  0  0  0  0  0  0  0  0
    9.9003  -16.5142   24.7521 N   0  0  0  0  0  0  0  0  0  0  0  0
    9.2759  -15.5073   25.5911 C   0  0  1  0  0  0  0  0  0  0  0  0
    8.3141  -14.7191   24.7330 C   0  0  0  0  0  0  0  0  0  0  0  0
    7.6200  -13.7327   25.5795 C   0  0  0  0  0  0  0  0  0  0  0  0
    8.3572  -12.7033   26.1323 C   0  0  0  0  0  0  0  0  0  0  0  0
    7.7449  -11.7611   26.9161 C   0  0  0  0  0  0  0  0  0  0  0  0
    6.3749  -11.8887   27.1234 C   0  0  0  0  0  0  0  0  0  0  0  0
    5.6382  -12.9003   26.5835 C   0  0  0  0  0  0  0  0  0  0  0  0
    6.2723  -13.8485   25.7900 C   0  0  0  0  0  0  0  0  0  0  0  0
    8.7770  -15.9850   26.8628 C   0  0  0  0  0  0  0  0  0  0  0  0
    7.9783  -16.9423   27.0053 O   0  0  0  0  0  0  0  0  0  0  0  0
    9.1714  -15.3785   28.0709 O   0  0  0  0  0  0  0  0  0  0  0  0
  2  1  1  1
  2  3  1  0
  4  2  1  0
  5  4  1  0
  5  6  1  6
  7  8  2  0
  7  5  1  0
  9 10  1  0
 10 20  2  0
 11 12  2  0
 11 10  1  0
 12 13  1  0
 13 19  2  0
 13 14  1  0
 15 14  1  6
 15 16  1  0
 16  7  1  0
 17 15  1  0
 18 17  2  0
 20 19  1  0
 21 17  1  0
 22 21  1  0
 22 23  1  6
 23 24  1  0
 24 29  2  0
 25 26  2  0
 25 24  1  0
 26 27  1  0
 27 28  2  0
 29 28  1  0
 30 32  1  0
 30 22  1  0
 31 30  2  0
M  END
$$$$
