LYF.pdb
     RDKit          3D

 32 33  0  0  1  0  0  0  0  0999 V2000
    9.0880  -12.8134   19.5981 C   0  0  0  0  0  0  0  0  0  0  0  0
    7.6889  -13.3213   19.2925 C   0  0  2  0  0  0  0  0  0  0  0  0
    6.7743  -12.2275   18.8632 C   0  0  0  0  0  0  0  0  0  0  0  0
    7.1697  -14.0119   20.5091 C   0  0  0  0  0  0  0  0  0  0  0  0
    8.1316  -15.0596   20.9734 C   0  0  2  0  0  0  0  0  0  0  0  0
    8.4342  -16.0810   20.0199 N   0  0  0  0  0  0  0  0  0  0  0  0
    7.8238  -15.5893   22.3075 C   0  0  0  0  0  0  0  0  0  0  0  0
    7.3123  -14.8949   23.2296 O   0  0  0  0  0  0  0  0  0  0  0  0
    7.2803  -21.5222   28.8722 O   0  0  0  0  0  0  0  0  0  0  0  0
    7.5026  -20.8822   27.6484 C   0  0  0  0  0  0  0  0  0  0  0  0
    6.4848  -20.2989   26.9470 C   0  0  0  0  0  0  0  0  0  0  0  0
    6.7385  -19.6702   25.7334 C   0  0  0  0  0  0  0  0  0  0  0  0
    7.9950  -19.5944   25.1742 C   0  0  0  0  0  0  0  0  0  0  0  0
    8.2703  -18.9364   23.8717 C   0  0  0  0  0  0  0  0  0  0  0  0
    7.7930  -17.4626   23.9545 C   0  0  2  0  0  0  0  0  0  0  0  0
    8.1031  -16.9496   22.6160 N   0  0  0  0  0  0  0  0  0  0  0  0
    8.6702  -16.8497   24.9694 C   0  0  0  0  0  0  0  0  0  0  0  0
    9.8883  -16.7473   24.6768 O   0  0  0  0  0  0  0  0  0  0  0  0
    9.0312  -20.1960   25.9057 C   0  0  0  0  0  0  0  0  0  0  0  0
    8.7793  -20.8211   27.1097 C   0  0  0  0  0  0  0  0  0  0  0  0
    8.2274  -16.3695   26.2331 N   0  0  0  0  0  0  0  0  0  0  0  0
    9.1319  -15.7692   27.1972 C   0  0  1  0  0  0  0  0  0  0  0  0
    8.3387  -14.7900   28.0309 C   0  0  0  0  0  0  0  0  0  0  0  0
    7.9007  -13.6775   27.1695 C   0  0  0  0  0  0  0  0  0  0  0  0
    6.6482  -13.7457   26.5903 C   0  0  0  0  0  0  0  0  0  0  0  0
    6.2021  -12.7256   25.7920 C   0  0  0  0  0  0  0  0  0  0  0  0
    7.0528  -11.6418   25.5975 C   0  0  0  0  0  0  0  0  0  0  0  0
    8.2903  -11.5646   26.1635 C   0  0  0  0  0  0  0  0  0  0  0  0
    8.7296  -12.6063   26.9715 C   0  0  0  0  0  0  0  0  0  0  0  0
    9.9801  -16.6991   27.9113 C   0  0  0  0  0  0  0  0  0  0  0  0
   10.8766  -16.3710   28.7258 O   0  0  0  0  0  0  0  0  0  0  0  0
    9.8485  -18.0890   27.7277 O   0  0  0  0  0  0  0  0  0  0  0  0
  2  1  1  1
  2  3  1  0
  4  2  1  0
  5  4  1  0
  5  6  1  6
  7  8  2  0
  7  5  1  0
  9 10  1  0
 10 20  2  0
 11 12  2  0
 11 10  1  0
 12 13  1  0
 13 19  2  0
 13 14  1  0
 15 14  1  6
 15 16  1  0
 16  7  1  0
 17 15  1  0
 18 17  2  0
 20 19  1  0
 21 17  1  0
 22 21  1  0
 22 23  1  1
 23 24  1  0
 24 29  2  0
 25 26  2  0
 25 24  1  0
 26 27  1  0
 27 28  2  0
 29 28  1  0
 30 32  1  0
 30 22  1  0
 31 30  2  0
M  END
$$$$
