LYF.pdb
     RDKit          3D

 32 33  0  0  1  0  0  0  0  0999 V2000
    8.6249  -20.8327   20.2586 C   0  0  0  0  0  0  0  0  0  0  0  0
    9.7968  -20.1697   19.5545 C   0  0  2  0  0  0  0  0  0  0  0  0
   10.8876  -21.1353   19.2462 C   0  0  0  0  0  0  0  0  0  0  0  0
   10.2893  -19.0579   20.4192 C   0  0  0  0  0  0  0  0  0  0  0  0
    9.2031  -18.0590   20.6659 C   0  0  2  0  0  0  0  0  0  0  0  0
    8.3544  -17.7863   19.5482 N   0  0  0  0  0  0  0  0  0  0  0  0
    9.6665  -16.8442   21.3477 C   0  0  0  0  0  0  0  0  0  0  0  0
   10.8786  -16.4942   21.3960 O   0  0  0  0  0  0  0  0  0  0  0  0
    7.5872  -12.8442   16.8625 O   0  0  0  0  0  0  0  0  0  0  0  0
    7.7178  -13.0584   18.2386 C   0  0  0  0  0  0  0  0  0  0  0  0
    8.6559  -12.3994   18.9827 C   0  0  0  0  0  0  0  0  0  0  0  0
    8.7602  -12.6343   20.3489 C   0  0  0  0  0  0  0  0  0  0  0  0
    7.9486  -13.5193   21.0238 C   0  0  0  0  0  0  0  0  0  0  0  0
    8.0640  -13.7848   22.4802 C   0  0  0  0  0  0  0  0  0  0  0  0
    9.2148  -14.8007   22.7053 C   0  0  2  0  0  0  0  0  0  0  0  0
    8.7322  -15.9929   22.0004 N   0  0  0  0  0  0  0  0  0  0  0  0
    9.2292  -15.0211   24.1634 C   0  0  0  0  0  0  0  0  0  0  0  0
    9.7217  -14.1050   24.8692 O   0  0  0  0  0  0  0  0  0  0  0  0
    6.9885  -14.1879   20.2479 C   0  0  0  0  0  0  0  0  0  0  0  0
    6.8857  -13.9557   18.8916 C   0  0  0  0  0  0  0  0  0  0  0  0
    8.7219  -16.1835   24.8078 N   0  0  0  0  0  0  0  0  0  0  0  0
    8.7762  -16.3606   26.2477 C   0  0  1  0  0  0  0  0  0  0  0  0
    7.3833  -16.1508   26.7942 C   0  0  0  0  0  0  0  0  0  0  0  0
    7.0606  -14.7143   26.7350 C   0  0  0  0  0  0  0  0  0  0  0  0
    7.8475  -13.8317   27.4496 C   0  0  0  0  0  0  0  0  0  0  0  0
    7.5849  -12.4876   27.4105 C   0  0  0  0  0  0  0  0  0  0  0  0
    6.5112  -12.0644   26.6333 C   0  0  0  0  0  0  0  0  0  0  0  0
    5.7282  -12.9263   25.9249 C   0  0  0  0  0  0  0  0  0  0  0  0
    6.0065  -14.2868   25.9733 C   0  0  0  0  0  0  0  0  0  0  0  0
    9.4852  -17.5386   26.6992 C   0  0  0  0  0  0  0  0  0  0  0  0
    9.5887  -17.8974   27.8973 O   0  0  0  0  0  0  0  0  0  0  0  0
   10.1327  -18.3908   25.7841 O   0  0  0  0  0  0  0  0  0  0  0  0
  2  1  1  1
  2  3  1  0
  4  2  1  0
  5  4  1  0
  5  6  1  6
  7  8  2  0
  7  5  1  0
  9 10  1  0
 10 20  2  0
 11 12  2  0
 11 10  1  0
 12 13  1  0
 13 19  2  0
 13 14  1  0
 15 14  1  1
 15 16  1  0
 16  7  1  0
 17 15  1  0
 18 17  2  0
 20 19  1  0
 21 17  1  0
 22 21  1  0
 22 23  1  6
 23 24  1  0
 24 29  2  0
 25 26  2  0
 25 24  1  0
 26 27  1  0
 27 28  2  0
 29 28  1  0
 30 32  1  0
 30 22  1  0
 31 30  2  0
M  END
$$$$
