LYF.pdb
     RDKit          3D

 32 33  0  0  1  0  0  0  0  0999 V2000
    9.2226  -12.9156   19.3646 C   0  0  0  0  0  0  0  0  0  0  0  0
    7.8769  -13.4839   18.9462 C   0  0  2  0  0  0  0  0  0  0  0  0
    6.9472  -12.4280   18.4582 C   0  0  0  0  0  0  0  0  0  0  0  0
    7.2988  -14.2147   20.1117 C   0  0  0  0  0  0  0  0  0  0  0  0
    8.3245  -15.1050   20.7391 C   0  0  2  0  0  0  0  0  0  0  0  0
    8.9440  -16.0444   19.8572 N   0  0  0  0  0  0  0  0  0  0  0  0
    7.8853  -15.7054   22.0047 C   0  0  0  0  0  0  0  0  0  0  0  0
    7.1870  -15.0919   22.8592 O   0  0  0  0  0  0  0  0  0  0  0  0
    6.1140  -22.1663   27.7839 O   0  0  0  0  0  0  0  0  0  0  0  0
    6.6137  -21.4175   26.7132 C   0  0  0  0  0  0  0  0  0  0  0  0
    5.8107  -21.0084   25.6857 C   0  0  0  0  0  0  0  0  0  0  0  0
    6.3377  -20.2650   24.6358 C   0  0  0  0  0  0  0  0  0  0  0  0
    7.6643  -19.9011   24.5639 C   0  0  0  0  0  0  0  0  0  0  0  0
    8.2362  -19.1191   23.4385 C   0  0  0  0  0  0  0  0  0  0  0  0
    7.7410  -17.6535   23.5561 C   0  0  2  0  0  0  0  0  0  0  0  0
    8.2464  -17.0445   22.3214 N   0  0  0  0  0  0  0  0  0  0  0  0
    8.4500  -17.1206   24.7344 C   0  0  0  0  0  0  0  0  0  0  0  0
    9.6875  -16.9360   24.6144 O   0  0  0  0  0  0  0  0  0  0  0  0
    8.4773  -20.3263   25.6264 C   0  0  0  0  0  0  0  0  0  0  0  0
    7.9544  -21.0652   26.6679 C   0  0  0  0  0  0  0  0  0  0  0  0
    7.8276  -16.8017   25.9732 N   0  0  0  0  0  0  0  0  0  0  0  0
    8.5770  -16.3139   27.1170 C   0  0  1  0  0  0  0  0  0  0  0  0
    7.6841  -15.3709   27.8893 C   0  0  0  0  0  0  0  0  0  0  0  0
    7.5183  -14.1297   27.1125 C   0  0  0  0  0  0  0  0  0  0  0  0
    8.5054  -13.1662   27.1905 C   0  0  0  0  0  0  0  0  0  0  0  0
    8.3915  -12.0038   26.4743 C   0  0  0  0  0  0  0  0  0  0  0  0
    7.2587  -11.8448   25.6822 C   0  0  0  0  0  0  0  0  0  0  0  0
    6.2788  -12.7884   25.5982 C   0  0  0  0  0  0  0  0  0  0  0  0
    6.4078  -13.9628   26.3296 C   0  0  0  0  0  0  0  0  0  0  0  0
    9.2710  -17.3291   27.8799 C   0  0  0  0  0  0  0  0  0  0  0  0
   10.0614  -17.0986   28.8269 O   0  0  0  0  0  0  0  0  0  0  0  0
    9.0973  -18.6969   27.5937 O   0  0  0  0  0  0  0  0  0  0  0  0
  2  1  1  1
  2  3  1  0
  4  2  1  0
  5  4  1  0
  5  6  1  6
  7  8  2  0
  7  5  1  0
  9 10  1  0
 10 20  2  0
 11 12  2  0
 11 10  1  0
 12 13  1  0
 13 19  2  0
 13 14  1  0
 15 14  1  6
 15 16  1  0
 16  7  1  0
 17 15  1  0
 18 17  2  0
 20 19  1  0
 21 17  1  0
 22 21  1  0
 22 23  1  1
 23 24  1  0
 24 29  2  0
 25 26  2  0
 25 24  1  0
 26 27  1  0
 27 28  2  0
 29 28  1  0
 30 32  1  0
 30 22  1  0
 31 30  2  0
M  END
$$$$
