THK.pdb
     RDKit          3D

 27 27  0  0  1  0  0  0  0  0999 V2000
   24.5215  -10.6309  -16.3544 C   0  0  0  0  0  0  0  0  0  0  0  0
   23.3850   -9.6872  -16.0256 C   0  0  1  0  0  0  0  0  0  0  0  0
   22.8452   -9.0958  -17.1568 O   0  0  0  0  0  0  0  0  0  0  0  0
   22.2783  -10.3751  -15.2630 C   0  0  2  0  0  0  0  0  0  0  0  0
   21.7112  -11.4882  -15.9653 N   0  0  0  0  0  0  0  0  0  0  0  0
   21.2479   -9.4141  -14.7918 C   0  0  0  0  0  0  0  0  0  0  0  0
   20.2692   -9.1912  -15.5549 O   0  0  0  0  0  0  0  0  0  0  0  0
   21.2952   -8.7475  -13.5658 N   0  0  0  0  0  0  0  0  0  0  0  0
   20.2500   -7.7386  -13.1592 C   0  0  1  0  0  0  0  0  0  0  0  0
   20.1129   -7.9452  -11.7041 C   0  0  0  0  0  0  0  0  0  0  0  0
   19.2575   -7.0871  -10.9142 C   0  0  0  0  0  0  0  0  0  0  0  0
   18.5686   -6.0343  -11.5650 C   0  0  0  0  0  0  0  0  0  0  0  0
   17.8495   -5.3773  -10.6750 N   0  0  0  0  0  0  0  0  0  0  0  0
   18.0409   -5.9543   -9.4838 C   0  0  0  0  0  0  0  0  0  0  0  0
   18.8912   -6.9815   -9.6474 N   0  0  0  0  0  0  0  0  0  0  0  0
   20.7912   -6.4047  -13.5138 C   0  0  0  0  0  0  0  0  0  0  0  0
   22.0346   -6.1956  -13.2510 O   0  0  0  0  0  0  0  0  0  0  0  0
   20.1026   -5.3427  -14.1092 N   0  0  0  0  0  0  0  0  0  0  0  0
   20.7766   -4.1003  -14.5240 C   0  0  1  0  0  0  0  0  0  0  0  0
   20.7513   -4.0991  -16.0307 C   0  0  0  0  0  0  0  0  0  0  0  0
   21.2598   -2.8474  -16.6666 C   0  0  0  0  0  0  0  0  0  0  0  0
   21.1746   -2.8818  -18.1772 C   0  0  0  0  0  0  0  0  0  0  0  0
   21.7257   -1.6083  -18.7633 C   0  0  0  0  0  0  0  0  0  0  0  0
   21.4653   -1.5931  -20.1944 N   0  0  0  0  0  0  0  0  0  0  0  0
   20.0694   -2.9335  -13.9624 C   0  0  0  0  0  0  0  0  0  0  0  0
   20.6722   -1.7426  -13.6203 O   0  0  0  0  0  0  0  0  0  0  0  0
   18.8239   -3.0090  -13.7715 O   0  0  0  0  0  0  0  0  0  0  0  0
  2  1  1  6
  2  3  1  0
  4  2  1  0
  4  5  1  6
  6  7  2  0
  6  4  1  0
  8  6  1  0
  9  8  1  0
  9 10  1  1
 11 10  1  0
 12 11  2  0
 13 14  1  0
 13 12  1  0
 14 15  2  0
 15 11  1  0
 16  9  1  0
 17 16  2  0
 18 16  1  0
 19 18  1  0
 19 20  1  6
 21 22  1  0
 21 20  1  0
 23 24  1  0
 23 22  1  0
 25 26  1  0
 25 19  1  0
 27 25  2  0
M  END
$$$$
