THK.pdb
     RDKit          3D

 27 27  0  0  1  0  0  0  0  0999 V2000
   17.7732  -21.2888    5.2712 C   0  0  0  0  0  0  0  0  0  0  0  0
   17.6527  -21.1333    3.7707 C   0  0  1  0  0  0  0  0  0  0  0  0
   17.8485  -22.3292    3.0982 O   0  0  0  0  0  0  0  0  0  0  0  0
   16.3154  -20.5621    3.3647 C   0  0  2  0  0  0  0  0  0  0  0  0
   16.0849  -20.6049    1.9508 N   0  0  0  0  0  0  0  0  0  0  0  0
   16.0921  -19.2095    3.9374 C   0  0  0  0  0  0  0  0  0  0  0  0
   16.4600  -18.2192    3.2491 O   0  0  0  0  0  0  0  0  0  0  0  0
   15.5046  -18.9684    5.1810 N   0  0  0  0  0  0  0  0  0  0  0  0
   15.2405  -17.5722    5.6874 C   0  0  1  0  0  0  0  0  0  0  0  0
   14.1548  -17.7570    6.6702 C   0  0  0  0  0  0  0  0  0  0  0  0
   13.6917  -16.6483    7.4754 C   0  0  0  0  0  0  0  0  0  0  0  0
   12.7690  -15.7370    6.9055 C   0  0  0  0  0  0  0  0  0  0  0  0
   12.4764  -14.8090    7.7965 N   0  0  0  0  0  0  0  0  0  0  0  0
   13.1643  -15.0770    8.9115 C   0  0  0  0  0  0  0  0  0  0  0  0
   13.8901  -16.1876    8.6996 N   0  0  0  0  0  0  0  0  0  0  0  0
   16.5069  -17.0974    6.2947 C   0  0  0  0  0  0  0  0  0  0  0  0
   17.3712  -17.9985    6.6105 O   0  0  0  0  0  0  0  0  0  0  0  0
   16.8743  -15.7743    6.5609 N   0  0  0  0  0  0  0  0  0  0  0  0
   18.1473  -15.4263    7.2151 C   0  0  1  0  0  0  0  0  0  0  0  0
   18.4807  -14.0306    6.7553 C   0  0  0  0  0  0  0  0  0  0  0  0
   19.7254  -13.4549    7.3460 C   0  0  0  0  0  0  0  0  0  0  0  0
   20.0309  -12.0659    6.8287 C   0  0  0  0  0  0  0  0  0  0  0  0
   21.3359  -11.5701    7.3946 C   0  0  0  0  0  0  0  0  0  0  0  0
   21.6825  -10.3106    6.7546 N   0  0  0  0  0  0  0  0  0  0  0  0
   17.9954  -15.4995    8.6809 C   0  0  0  0  0  0  0  0  0  0  0  0
   19.0224  -15.7568    9.5626 O   0  0  0  0  0  0  0  0  0  0  0  0
   16.8526  -15.3185    9.1855 O   0  0  0  0  0  0  0  0  0  0  0  0
  2  1  1  1
  2  3  1  0
  4  2  1  0
  4  5  1  6
  6  7  2  0
  6  4  1  0
  8  6  1  0
  9  8  1  0
  9 10  1  1
 11 10  1  0
 12 11  2  0
 13 14  1  0
 13 12  1  0
 14 15  2  0
 15 11  1  0
 16  9  1  0
 17 16  2  0
 18 16  1  0
 19 18  1  0
 19 20  1  1
 21 22  1  0
 21 20  1  0
 23 24  1  0
 23 22  1  0
 25 26  1  0
 25 19  1  0
 27 25  2  0
M  END
$$$$
