THK.pdb
     RDKit          3D

 27 27  0  0  1  0  0  0  0  0999 V2000
   30.4724  -27.5530  -17.4850 C   0  0  0  0  0  0  0  0  0  0  0  0
   31.5230  -26.8546  -16.6490 C   0  0  1  0  0  0  0  0  0  0  0  0
   32.7707  -27.4463  -16.7660 O   0  0  0  0  0  0  0  0  0  0  0  0
   31.6458  -25.3909  -16.9984 C   0  0  2  0  0  0  0  0  0  0  0  0
   32.6896  -24.7210  -16.2804 N   0  0  0  0  0  0  0  0  0  0  0  0
   30.3424  -24.6848  -16.8991 C   0  0  0  0  0  0  0  0  0  0  0  0
   30.1852  -23.8883  -15.9343 O   0  0  0  0  0  0  0  0  0  0  0  0
   29.2886  -24.8469  -17.8007 N   0  0  0  0  0  0  0  0  0  0  0  0
   28.0575  -23.9758  -17.7625 C   0  0  1  0  0  0  0  0  0  0  0  0
   28.1055  -23.2473  -19.0453 C   0  0  0  0  0  0  0  0  0  0  0  0
   27.0457  -22.3356  -19.4163 C   0  0  0  0  0  0  0  0  0  0  0  0
   25.9763  -22.1360  -18.5090 C   0  0  0  0  0  0  0  0  0  0  0  0
   25.1240  -21.2757  -19.0328 N   0  0  0  0  0  0  0  0  0  0  0  0
   25.5910  -20.9114  -20.2318 C   0  0  0  0  0  0  0  0  0  0  0  0
   26.7483  -21.5594  -20.4456 N   0  0  0  0  0  0  0  0  0  0  0  0
   26.8967  -24.8912  -17.6508 C   0  0  0  0  0  0  0  0  0  0  0  0
   26.8613  -25.8842  -18.4703 O   0  0  0  0  0  0  0  0  0  0  0  0
   25.8318  -24.8017  -16.7484 N   0  0  0  0  0  0  0  0  0  0  0  0
   24.7019  -25.7466  -16.7666 C   0  0  1  0  0  0  0  0  0  0  0  0
   23.8785  -25.4305  -15.5448 C   0  0  0  0  0  0  0  0  0  0  0  0
   22.6388  -26.2489  -15.3935 C   0  0  0  0  0  0  0  0  0  0  0  0
   21.7776  -25.7983  -14.2335 C   0  0  0  0  0  0  0  0  0  0  0  0
   20.5211  -26.6259  -14.1598 C   0  0  0  0  0  0  0  0  0  0  0  0
   19.7523  -26.2184  -12.9941 N   0  0  0  0  0  0  0  0  0  0  0  0
   23.9258  -25.5778  -18.0100 C   0  0  0  0  0  0  0  0  0  0  0  0
   23.5159  -26.6114  -18.8237 O   0  0  0  0  0  0  0  0  0  0  0  0
   23.6043  -24.4129  -18.3750 O   0  0  0  0  0  0  0  0  0  0  0  0
  2  1  1  6
  2  3  1  0
  4  2  1  0
  4  5  1  1
  6  7  2  0
  6  4  1  0
  8  6  1  0
  9  8  1  0
  9 10  1  6
 11 10  1  0
 12 11  2  0
 13 14  1  0
 13 12  1  0
 14 15  2  0
 15 11  1  0
 16  9  1  0
 17 16  2  0
 18 16  1  0
 19 18  1  0
 19 20  1  1
 21 22  1  0
 21 20  1  0
 23 24  1  0
 23 22  1  0
 25 26  1  0
 25 19  1  0
 27 25  2  0
M  END
$$$$
