THK.pdb
     RDKit          3D

 27 27  0  0  1  0  0  0  0  0999 V2000
   28.9129  -22.3697  -19.0551 C   0  0  0  0  0  0  0  0  0  0  0  0
   27.8905  -21.5678  -18.2791 C   0  0  1  0  0  0  0  0  0  0  0  0
   26.6839  -22.2366  -18.1473 O   0  0  0  0  0  0  0  0  0  0  0  0
   28.3888  -21.1911  -16.9046 C   0  0  2  0  0  0  0  0  0  0  0  0
   28.8108  -22.3171  -16.1249 N   0  0  0  0  0  0  0  0  0  0  0  0
   27.4210  -20.3274  -16.1803 C   0  0  0  0  0  0  0  0  0  0  0  0
   27.1622  -20.6230  -14.9821 O   0  0  0  0  0  0  0  0  0  0  0  0
   26.7850  -19.2171  -16.7393 N   0  0  0  0  0  0  0  0  0  0  0  0
   25.7917  -18.3863  -15.9655 C   0  0  1  0  0  0  0  0  0  0  0  0
   25.9327  -17.0387  -16.5510 C   0  0  0  0  0  0  0  0  0  0  0  0
   25.0062  -15.9832  -16.2052 C   0  0  0  0  0  0  0  0  0  0  0  0
   23.9850  -15.6499  -17.1285 C   0  0  0  0  0  0  0  0  0  0  0  0
   23.2548  -14.6724  -16.6264 N   0  0  0  0  0  0  0  0  0  0  0  0
   23.7546  -14.3596  -15.4261 C   0  0  0  0  0  0  0  0  0  0  0  0
   24.8083  -15.1589  -15.1895 N   0  0  0  0  0  0  0  0  0  0  0  0
   24.4597  -18.9925  -16.2029 C   0  0  0  0  0  0  0  0  0  0  0  0
   24.3041  -19.6340  -17.3088 O   0  0  0  0  0  0  0  0  0  0  0  0
   23.3476  -18.9510  -15.3555 N   0  0  0  0  0  0  0  0  0  0  0  0
   22.0655  -19.5857  -15.7063 C   0  0  1  0  0  0  0  0  0  0  0  0
   21.6944  -20.4476  -14.5273 C   0  0  0  0  0  0  0  0  0  0  0  0
   20.4290  -21.2237  -14.6898 C   0  0  0  0  0  0  0  0  0  0  0  0
   20.1924  -22.2012  -13.5590 C   0  0  0  0  0  0  0  0  0  0  0  0
   18.8717  -22.9029  -13.7393 C   0  0  0  0  0  0  0  0  0  0  0  0
   18.7356  -23.9280  -12.7162 N   0  0  0  0  0  0  0  0  0  0  0  0
   21.0481  -18.5505  -15.9710 C   0  0  0  0  0  0  0  0  0  0  0  0
   19.9477  -18.7232  -16.7820 O   0  0  0  0  0  0  0  0  0  0  0  0
   21.1747  -17.4179  -15.4280 O   0  0  0  0  0  0  0  0  0  0  0  0
  2  1  1  1
  2  3  1  0
  4  2  1  0
  4  5  1  1
  6  7  2  0
  6  4  1  0
  8  6  1  0
  9  8  1  0
  9 10  1  6
 11 10  1  0
 12 11  2  0
 13 14  1  0
 13 12  1  0
 14 15  2  0
 15 11  1  0
 16  9  1  0
 17 16  2  0
 18 16  1  0
 19 18  1  0
 19 20  1  1
 21 22  1  0
 21 20  1  0
 23 24  1  0
 23 22  1  0
 25 26  1  0
 25 19  1  0
 27 25  2  0
M  END
$$$$
