THK.pdb
     RDKit          3D

 27 27  0  0  1  0  0  0  0  0999 V2000
   24.8152  -10.9976  -15.9606 C   0  0  0  0  0  0  0  0  0  0  0  0
   23.7018   -9.9744  -15.9004 C   0  0  1  0  0  0  0  0  0  0  0  0
   23.3989   -9.4492  -17.1467 O   0  0  0  0  0  0  0  0  0  0  0  0
   22.4410  -10.5423  -15.2942 C   0  0  2  0  0  0  0  0  0  0  0  0
   21.9000  -11.6431  -16.0354 N   0  0  0  0  0  0  0  0  0  0  0  0
   21.4309   -9.4871  -15.0229 C   0  0  0  0  0  0  0  0  0  0  0  0
   20.4796   -9.3693  -15.8420 O   0  0  0  0  0  0  0  0  0  0  0  0
   21.4691   -8.6243  -13.9257 N   0  0  0  0  0  0  0  0  0  0  0  0
   20.4338   -7.5477  -13.7141 C   0  0  1  0  0  0  0  0  0  0  0  0
   20.1156   -7.6473  -12.2762 C   0  0  0  0  0  0  0  0  0  0  0  0
   18.9991   -8.4463  -11.8211 C   0  0  0  0  0  0  0  0  0  0  0  0
   18.1369   -9.0176  -12.7889 C   0  0  0  0  0  0  0  0  0  0  0  0
   17.1926   -9.7019  -12.1718 N   0  0  0  0  0  0  0  0  0  0  0  0
   17.4035   -9.5997  -10.8552 C   0  0  0  0  0  0  0  0  0  0  0  0
   18.4951   -8.8404  -10.6631 N   0  0  0  0  0  0  0  0  0  0  0  0
   21.0779   -6.2648  -14.0848 C   0  0  0  0  0  0  0  0  0  0  0  0
   22.2478   -6.0413  -13.5947 O   0  0  0  0  0  0  0  0  0  0  0  0
   20.5589   -5.2658  -14.9149 N   0  0  0  0  0  0  0  0  0  0  0  0
   21.3393   -4.0776  -15.3007 C   0  0  1  0  0  0  0  0  0  0  0  0
   21.1571   -3.9283  -16.7891 C   0  0  0  0  0  0  0  0  0  0  0  0
   21.8278   -2.7361  -17.3878 C   0  0  0  0  0  0  0  0  0  0  0  0
   21.5912   -2.6180  -18.8778 C   0  0  0  0  0  0  0  0  0  0  0  0
   22.3431   -1.4385  -19.4370 C   0  0  0  0  0  0  0  0  0  0  0  0
   22.0551   -1.3228  -20.8582 N   0  0  0  0  0  0  0  0  0  0  0  0
   20.8498   -2.8949  -14.5667 C   0  0  0  0  0  0  0  0  0  0  0  0
   19.6022   -2.7915  -13.9912 O   0  0  0  0  0  0  0  0  0  0  0  0
   21.6099   -1.8943  -14.4461 O   0  0  0  0  0  0  0  0  0  0  0  0
  2  1  1  6
  2  3  1  0
  4  2  1  0
  4  5  1  6
  6  7  2  0
  6  4  1  0
  8  6  1  0
  9  8  1  0
  9 10  1  1
 11 10  1  0
 12 11  2  0
 13 14  1  0
 13 12  1  0
 14 15  2  0
 15 11  1  0
 16  9  1  0
 17 16  2  0
 18 16  1  0
 19 18  1  0
 19 20  1  6
 21 22  1  0
 21 20  1  0
 23 24  1  0
 23 22  1  0
 25 26  1  0
 25 19  1  0
 27 25  2  0
M  END
$$$$
