THK.pdb
     RDKit          3D

 27 27  0  0  1  0  0  0  0  0999 V2000
   13.7472  -18.3997    2.5758 C   0  0  0  0  0  0  0  0  0  0  0  0
   14.9082  -17.9817    3.4519 C   0  0  1  0  0  0  0  0  0  0  0  0
   15.2350  -18.9464    4.3919 O   0  0  0  0  0  0  0  0  0  0  0  0
   16.1409  -17.6554    2.6435 C   0  0  2  0  0  0  0  0  0  0  0  0
   16.6146  -18.7578    1.8598 N   0  0  0  0  0  0  0  0  0  0  0  0
   17.2094  -17.0501    3.4796 C   0  0  0  0  0  0  0  0  0  0  0  0
   18.2030  -17.7722    3.7647 O   0  0  0  0  0  0  0  0  0  0  0  0
   17.1823  -15.7414    3.9656 N   0  0  0  0  0  0  0  0  0  0  0  0
   18.2607  -15.1978    4.8697 C   0  0  1  0  0  0  0  0  0  0  0  0
   18.2475  -13.7474    4.5958 C   0  0  0  0  0  0  0  0  0  0  0  0
   19.0982  -12.8475    5.3430 C   0  0  0  0  0  0  0  0  0  0  0  0
   19.9325  -13.3870    6.3528 C   0  0  0  0  0  0  0  0  0  0  0  0
   20.6213  -12.4085    6.9085 N   0  0  0  0  0  0  0  0  0  0  0  0
   20.2724  -11.2660    6.3073 C   0  0  0  0  0  0  0  0  0  0  0  0
   19.3548  -11.5499    5.3679 N   0  0  0  0  0  0  0  0  0  0  0  0
   17.8589  -15.5365    6.2560 C   0  0  0  0  0  0  0  0  0  0  0  0
   16.6236  -15.3427    6.5647 O   0  0  0  0  0  0  0  0  0  0  0  0
   18.6721  -16.0503    7.2715 N   0  0  0  0  0  0  0  0  0  0  0  0
   18.1712  -16.2930    8.6353 C   0  0  1  0  0  0  0  0  0  0  0  0
   18.7185  -17.6361    9.0442 C   0  0  0  0  0  0  0  0  0  0  0  0
   18.2757  -18.1123   10.3883 C   0  0  0  0  0  0  0  0  0  0  0  0
   18.8981  -19.4366   10.7746 C   0  0  0  0  0  0  0  0  0  0  0  0
   18.3960  -19.8789   12.1242 C   0  0  0  0  0  0  0  0  0  0  0  0
   19.0749  -21.1084   12.5033 N   0  0  0  0  0  0  0  0  0  0  0  0
   18.6268  -15.2174    9.5366 C   0  0  0  0  0  0  0  0  0  0  0  0
   17.8530  -14.6387   10.5190 O   0  0  0  0  0  0  0  0  0  0  0  0
   19.8045  -14.7792    9.4169 O   0  0  0  0  0  0  0  0  0  0  0  0
  2  1  1  6
  2  3  1  0
  4  2  1  0
  4  5  1  1
  6  7  2  0
  6  4  1  0
  8  6  1  0
  9  8  1  0
  9 10  1  1
 11 10  1  0
 12 11  2  0
 13 14  1  0
 13 12  1  0
 14 15  2  0
 15 11  1  0
 16  9  1  0
 17 16  2  0
 18 16  1  0
 19 18  1  0
 19 20  1  1
 21 22  1  0
 21 20  1  0
 23 24  1  0
 23 22  1  0
 25 26  1  0
 25 19  1  0
 27 25  2  0
M  END
$$$$
