THK.pdb
     RDKit          3D

 27 27  0  0  1  0  0  0  0  0999 V2000
   30.7225  -34.9247  -15.9709 C   0  0  0  0  0  0  0  0  0  0  0  0
   31.5711  -33.6717  -15.9831 C   0  0  1  0  0  0  0  0  0  0  0  0
   32.7618  -33.8466  -16.6702 O   0  0  0  0  0  0  0  0  0  0  0  0
   30.8366  -32.4943  -16.5779 C   0  0  2  0  0  0  0  0  0  0  0  0
   31.6502  -31.3211  -16.7025 N   0  0  0  0  0  0  0  0  0  0  0  0
   29.5550  -32.2266  -15.8756 C   0  0  0  0  0  0  0  0  0  0  0  0
   29.5530  -31.3253  -14.9938 O   0  0  0  0  0  0  0  0  0  0  0  0
   28.3616  -32.9058  -16.1292 N   0  0  0  0  0  0  0  0  0  0  0  0
   27.0673  -32.5375  -15.4473 C   0  0  1  0  0  0  0  0  0  0  0  0
   26.0345  -32.9131  -16.4327 C   0  0  0  0  0  0  0  0  0  0  0  0
   25.2218  -31.9017  -17.0718 C   0  0  0  0  0  0  0  0  0  0  0  0
   25.3875  -30.5514  -16.6770 C   0  0  0  0  0  0  0  0  0  0  0  0
   24.5605  -29.7958  -17.3742 N   0  0  0  0  0  0  0  0  0  0  0  0
   23.8708  -30.5919  -18.1982 C   0  0  0  0  0  0  0  0  0  0  0  0
   24.2823  -31.8557  -18.0021 N   0  0  0  0  0  0  0  0  0  0  0  0
   27.0059  -33.3363  -14.1999 C   0  0  0  0  0  0  0  0  0  0  0  0
   27.3031  -34.5857  -14.2971 O   0  0  0  0  0  0  0  0  0  0  0  0
   26.6649  -32.8841  -12.9209 N   0  0  0  0  0  0  0  0  0  0  0  0
   26.6066  -33.7841  -11.7564 C   0  0  1  0  0  0  0  0  0  0  0  0
   26.3420  -32.9014  -10.5641 C   0  0  0  0  0  0  0  0  0  0  0  0
   26.2374  -33.6213   -9.2601 C   0  0  0  0  0  0  0  0  0  0  0  0
   26.0117  -32.6865   -8.0917 C   0  0  0  0  0  0  0  0  0  0  0  0
   25.8841  -33.4685   -6.8106 C   0  0  0  0  0  0  0  0  0  0  0  0
   25.6280  -32.5462   -5.7152 N   0  0  0  0  0  0  0  0  0  0  0  0
   25.5381  -34.7837  -11.9469 C   0  0  0  0  0  0  0  0  0  0  0  0
   24.3142  -34.5215  -12.5229 O   0  0  0  0  0  0  0  0  0  0  0  0
   25.7361  -35.9692  -11.5610 O   0  0  0  0  0  0  0  0  0  0  0  0
  2  1  1  6
  2  3  1  0
  4  2  1  0
  4  5  1  1
  6  7  2  0
  6  4  1  0
  8  6  1  0
  9  8  1  0
  9 10  1  6
 11 10  1  0
 12 11  2  0
 13 14  1  0
 13 12  1  0
 14 15  2  0
 15 11  1  0
 16  9  1  0
 17 16  2  0
 18 16  1  0
 19 18  1  0
 19 20  1  1
 21 22  1  0
 21 20  1  0
 23 24  1  0
 23 22  1  0
 25 26  1  0
 25 19  1  0
 27 25  2  0
M  END
$$$$
