THK.pdb
     RDKit          3D

 27 27  0  0  1  0  0  0  0  0999 V2000
   21.4460   -7.4363  -22.6098 C   0  0  0  0  0  0  0  0  0  0  0  0
   20.8822   -8.8374  -22.5128 C   0  0  1  0  0  0  0  0  0  0  0  0
   21.2581   -9.6334  -23.5831 O   0  0  0  0  0  0  0  0  0  0  0  0
   21.2874   -9.5250  -21.2312 C   0  0  2  0  0  0  0  0  0  0  0  0
   20.8907  -10.9010  -21.1747 N   0  0  0  0  0  0  0  0  0  0  0  0
   20.8611   -8.7596  -20.0313 C   0  0  0  0  0  0  0  0  0  0  0  0
   19.6247   -8.6953  -19.7924 O   0  0  0  0  0  0  0  0  0  0  0  0
   21.7375   -8.1120  -19.1583 N   0  0  0  0  0  0  0  0  0  0  0  0
   21.2497   -7.1955  -18.0638 C   0  0  1  0  0  0  0  0  0  0  0  0
   22.1931   -7.4424  -16.9557 C   0  0  0  0  0  0  0  0  0  0  0  0
   22.1618   -6.6238  -15.7637 C   0  0  0  0  0  0  0  0  0  0  0  0
   21.0939   -6.7998  -14.8498 C   0  0  0  0  0  0  0  0  0  0  0  0
   21.2513   -5.9653  -13.8400 N   0  0  0  0  0  0  0  0  0  0  0  0
   22.3669   -5.2608  -14.0578 C   0  0  0  0  0  0  0  0  0  0  0  0
   22.9014   -5.6709  -15.2203 N   0  0  0  0  0  0  0  0  0  0  0  0
   21.3264   -5.8167  -18.6032 C   0  0  0  0  0  0  0  0  0  0  0  0
   22.1821   -5.6093  -19.5432 O   0  0  0  0  0  0  0  0  0  0  0  0
   20.5676   -4.7099  -18.2087 N   0  0  0  0  0  0  0  0  0  0  0  0
   20.7796   -3.3668  -18.7750 C   0  0  1  0  0  0  0  0  0  0  0  0
   19.5598   -3.0723  -19.6093 C   0  0  0  0  0  0  0  0  0  0  0  0
   19.5087   -1.6947  -20.1833 C   0  0  0  0  0  0  0  0  0  0  0  0
   18.2404   -1.4335  -20.9665 C   0  0  0  0  0  0  0  0  0  0  0  0
   18.2129   -0.0113  -21.4620 C   0  0  0  0  0  0  0  0  0  0  0  0
   16.9207    0.2522  -22.0761 N   0  0  0  0  0  0  0  0  0  0  0  0
   20.9508   -2.3843  -17.6876 C   0  0  0  0  0  0  0  0  0  0  0  0
   21.5885   -1.1704  -17.8223 O   0  0  0  0  0  0  0  0  0  0  0  0
   20.4900   -2.6540  -16.5437 O   0  0  0  0  0  0  0  0  0  0  0  0
  2  1  1  6
  2  3  1  0
  4  2  1  0
  4  5  1  1
  6  7  2  0
  6  4  1  0
  8  6  1  0
  9  8  1  0
  9 10  1  1
 11 10  1  0
 12 11  2  0
 13 14  1  0
 13 12  1  0
 14 15  2  0
 15 11  1  0
 16  9  1  0
 17 16  2  0
 18 16  1  0
 19 18  1  0
 19 20  1  1
 21 22  1  0
 21 20  1  0
 23 24  1  0
 23 22  1  0
 25 26  1  0
 25 19  1  0
 27 25  2  0
M  END
$$$$
