THK.pdb
     RDKit          3D

 27 27  0  0  1  0  0  0  0  0999 V2000
   24.3486  -22.5242  -15.8895 C   0  0  0  0  0  0  0  0  0  0  0  0
   25.0294  -22.7766  -14.5616 C   0  0  1  0  0  0  0  0  0  0  0  0
   26.2225  -23.4677  -14.7025 O   0  0  0  0  0  0  0  0  0  0  0  0
   25.2970  -21.4959  -13.8082 C   0  0  2  0  0  0  0  0  0  0  0  0
   26.0699  -21.6885  -12.6168 N   0  0  0  0  0  0  0  0  0  0  0  0
   24.0505  -20.7264  -13.5604 C   0  0  0  0  0  0  0  0  0  0  0  0
   23.4819  -20.8848  -12.4461 O   0  0  0  0  0  0  0  0  0  0  0  0
   23.4738  -19.8454  -14.4774 N   0  0  0  0  0  0  0  0  0  0  0  0
   22.1801  -19.1233  -14.1931 C   0  0  1  0  0  0  0  0  0  0  0  0
   22.1031  -18.1106  -15.2642 C   0  0  0  0  0  0  0  0  0  0  0  0
   20.9665  -17.2210  -15.3583 C   0  0  0  0  0  0  0  0  0  0  0  0
   19.8995  -17.3871  -14.4415 C   0  0  0  0  0  0  0  0  0  0  0  0
   18.9714  -16.4842  -14.6951 N   0  0  0  0  0  0  0  0  0  0  0  0
   19.3874  -15.7451  -15.7290 C   0  0  0  0  0  0  0  0  0  0  0  0
   20.5900  -16.2031  -16.1149 N   0  0  0  0  0  0  0  0  0  0  0  0
   21.1042  -20.1404  -14.2690 C   0  0  0  0  0  0  0  0  0  0  0  0
   21.2445  -21.0670  -15.1524 O   0  0  0  0  0  0  0  0  0  0  0  0
   19.9495  -20.2116  -13.4827 N   0  0  0  0  0  0  0  0  0  0  0  0
   18.9729  -21.3063  -13.6142 C   0  0  1  0  0  0  0  0  0  0  0  0
   18.8782  -21.9421  -12.2513 C   0  0  0  0  0  0  0  0  0  0  0  0
   17.8271  -22.9947  -12.1206 C   0  0  0  0  0  0  0  0  0  0  0  0
   17.8031  -23.6308  -10.7476 C   0  0  0  0  0  0  0  0  0  0  0  0
   16.6793  -24.6292  -10.6511 C   0  0  0  0  0  0  0  0  0  0  0  0
   16.7293  -25.2754   -9.3488 N   0  0  0  0  0  0  0  0  0  0  0  0
   17.6731  -20.7692  -14.0605 C   0  0  0  0  0  0  0  0  0  0  0  0
   16.7867  -21.4399  -14.8747 O   0  0  0  0  0  0  0  0  0  0  0  0
   17.3283  -19.6149  -13.6837 O   0  0  0  0  0  0  0  0  0  0  0  0
  2  1  1  6
  2  3  1  0
  4  2  1  0
  4  5  1  1
  6  7  2  0
  6  4  1  0
  8  6  1  0
  9  8  1  0
  9 10  1  6
 11 10  1  0
 12 11  2  0
 13 14  1  0
 13 12  1  0
 14 15  2  0
 15 11  1  0
 16  9  1  0
 17 16  2  0
 18 16  1  0
 19 18  1  0
 19 20  1  1
 21 22  1  0
 21 20  1  0
 23 24  1  0
 23 22  1  0
 25 26  1  0
 25 19  1  0
 27 25  2  0
M  END
$$$$
