THK.pdb
     RDKit          3D

 27 27  0  0  1  0  0  0  0  0999 V2000
   17.9432  -14.3384  -20.3582 C   0  0  0  0  0  0  0  0  0  0  0  0
   18.6196  -13.4944  -19.2996 C   0  0  1  0  0  0  0  0  0  0  0  0
   17.7097  -12.8555  -18.4722 O   0  0  0  0  0  0  0  0  0  0  0  0
   19.5652  -14.3048  -18.4461 C   0  0  2  0  0  0  0  0  0  0  0  0
   18.9301  -15.4040  -17.7810 N   0  0  0  0  0  0  0  0  0  0  0  0
   20.3447  -13.4491  -17.5147 C   0  0  0  0  0  0  0  0  0  0  0  0
   19.8456  -13.2215  -16.3794 O   0  0  0  0  0  0  0  0  0  0  0  0
   21.5862  -12.8854  -17.8159 N   0  0  0  0  0  0  0  0  0  0  0  0
   22.3482  -12.0433  -16.8229 C   0  0  1  0  0  0  0  0  0  0  0  0
   23.7579  -12.2232  -17.2219 C   0  0  0  0  0  0  0  0  0  0  0  0
   24.8154  -11.5147  -16.5351 C   0  0  0  0  0  0  0  0  0  0  0  0
   24.4649  -10.6136  -15.4999 C   0  0  0  0  0  0  0  0  0  0  0  0
   25.5649  -10.0767  -15.0075 N   0  0  0  0  0  0  0  0  0  0  0  0
   26.6062  -10.5870  -15.6737 C   0  0  0  0  0  0  0  0  0  0  0  0
   26.1357  -11.4505  -16.5891 N   0  0  0  0  0  0  0  0  0  0  0  0
   21.8640  -10.6522  -16.9908 C   0  0  0  0  0  0  0  0  0  0  0  0
   21.7341  -10.2260  -18.1992 O   0  0  0  0  0  0  0  0  0  0  0  0
   21.5255   -9.7459  -15.9805 N   0  0  0  0  0  0  0  0  0  0  0  0
   21.1101   -8.3626  -16.2695 C   0  0  1  0  0  0  0  0  0  0  0  0
   19.6663   -8.2677  -15.8487 C   0  0  0  0  0  0  0  0  0  0  0  0
   19.0471   -6.9206  -16.0267 C   0  0  0  0  0  0  0  0  0  0  0  0
   17.5689   -6.9084  -15.7031 C   0  0  0  0  0  0  0  0  0  0  0  0
   16.9645   -5.5752  -16.0590 C   0  0  0  0  0  0  0  0  0  0  0  0
   15.5306   -5.6253  -15.8196 N   0  0  0  0  0  0  0  0  0  0  0  0
   21.9621   -7.4161  -15.5244 C   0  0  0  0  0  0  0  0  0  0  0  0
   22.6636   -7.7276  -14.3801 O   0  0  0  0  0  0  0  0  0  0  0  0
   22.0700   -6.2310  -15.9455 O   0  0  0  0  0  0  0  0  0  0  0  0
  2  1  1  6
  2  3  1  0
  4  2  1  0
  4  5  1  1
  6  7  2  0
  6  4  1  0
  8  6  1  0
  9  8  1  0
  9 10  1  6
 11 10  1  0
 12 11  2  0
 13 14  1  0
 13 12  1  0
 14 15  2  0
 15 11  1  0
 16  9  1  0
 17 16  2  0
 18 16  1  0
 19 18  1  0
 19 20  1  1
 21 22  1  0
 21 20  1  0
 23 24  1  0
 23 22  1  0
 25 26  1  0
 25 19  1  0
 27 25  2  0
M  END
$$$$
