THK.pdb
     RDKit          3D

 27 27  0  0  1  0  0  0  0  0999 V2000
   23.0691  -16.1918  -22.2723 C   0  0  0  0  0  0  0  0  0  0  0  0
   22.1717  -16.8275  -21.2326 C   0  0  1  0  0  0  0  0  0  0  0  0
   21.2710  -17.7224  -21.7881 O   0  0  0  0  0  0  0  0  0  0  0  0
   22.9609  -17.5374  -20.1590 C   0  0  2  0  0  0  0  0  0  0  0  0
   23.7969  -18.5847  -20.6671 N   0  0  0  0  0  0  0  0  0  0  0  0
   22.0942  -17.9921  -19.0413 C   0  0  0  0  0  0  0  0  0  0  0  0
   21.4609  -19.0710  -19.1991 O   0  0  0  0  0  0  0  0  0  0  0  0
   21.9383  -17.3045  -17.8360 N   0  0  0  0  0  0  0  0  0  0  0  0
   21.0639  -17.8243  -16.7220 C   0  0  1  0  0  0  0  0  0  0  0  0
   21.6153  -17.1780  -15.5150 C   0  0  0  0  0  0  0  0  0  0  0  0
   20.9025  -17.2325  -14.2577 C   0  0  0  0  0  0  0  0  0  0  0  0
   20.8352  -18.4697  -13.5711 C   0  0  0  0  0  0  0  0  0  0  0  0
   20.1474  -18.3055  -12.4572 N   0  0  0  0  0  0  0  0  0  0  0  0
   19.7685  -17.0246  -12.3921 C   0  0  0  0  0  0  0  0  0  0  0  0
   20.2320  -16.3943  -13.4843 N   0  0  0  0  0  0  0  0  0  0  0  0
   19.6803  -17.3949  -17.0371 C   0  0  0  0  0  0  0  0  0  0  0  0
   19.5433  -16.2354  -17.5808 O   0  0  0  0  0  0  0  0  0  0  0  0
   18.5000  -18.1117  -16.8143 N   0  0  0  0  0  0  0  0  0  0  0  0
   17.1711  -17.5583  -17.1263 C   0  0  1  0  0  0  0  0  0  0  0  0
   16.4329  -18.6456  -17.8636 C   0  0  0  0  0  0  0  0  0  0  0  0
   15.0266  -18.3090  -18.2363 C   0  0  0  0  0  0  0  0  0  0  0  0
   14.3557  -19.4028  -19.0385 C   0  0  0  0  0  0  0  0  0  0  0  0
   12.9692  -18.9789  -19.4474 C   0  0  0  0  0  0  0  0  0  0  0  0
   12.4285  -19.9583  -20.3772 N   0  0  0  0  0  0  0  0  0  0  0  0
   16.4811  -17.1749  -15.8797 C   0  0  0  0  0  0  0  0  0  0  0  0
   15.4029  -16.3196  -15.8127 O   0  0  0  0  0  0  0  0  0  0  0  0
   16.8911  -17.6504  -14.7846 O   0  0  0  0  0  0  0  0  0  0  0  0
  2  1  1  6
  2  3  1  0
  4  2  1  0
  4  5  1  6
  6  7  2  0
  6  4  1  0
  8  6  1  0
  9  8  1  0
  9 10  1  1
 11 10  1  0
 12 11  2  0
 13 14  1  0
 13 12  1  0
 14 15  2  0
 15 11  1  0
 16  9  1  0
 17 16  2  0
 18 16  1  0
 19 18  1  0
 19 20  1  1
 21 22  1  0
 21 20  1  0
 23 24  1  0
 23 22  1  0
 25 26  1  0
 25 19  1  0
 27 25  2  0
M  END
$$$$
