QDQ.pdb
     RDKit          3D

 27 26  0  0  1  0  0  0  0  0999 V2000
   10.2101  -17.2667   14.2460 N   0  0  0  0  0  0  0  0  0  0  0  0
    9.5899  -18.1606   15.1433 C   0  0  0  0  0  0  0  0  0  0  0  0
    8.3581  -18.3543   15.0560 O   0  0  0  0  0  0  0  0  0  0  0  0
   10.3638  -18.8675   16.1777 C   0  0  0  0  0  0  0  0  0  0  0  0
   11.8217  -18.5150   16.0406 C   0  0  0  0  0  0  0  0  0  0  0  0
   12.6562  -19.1311   17.1462 C   0  0  2  0  0  0  0  0  0  0  0  0
   12.3156  -20.5284   17.3277 N   0  0  0  0  0  0  0  0  0  0  0  0
   12.5086  -18.4359   18.4234 C   0  0  0  0  0  0  0  0  0  0  0  0
   12.8789  -17.2418   18.5538 O   0  0  0  0  0  0  0  0  0  0  0  0
   11.9419  -19.0547   19.5945 N   0  0  0  0  0  0  0  0  0  0  0  0
   11.8348  -18.3333   20.8466 C   0  0  1  0  0  0  0  0  0  0  0  0
   10.6348  -18.8874   21.5798 C   0  0  0  0  0  0  0  0  0  0  0  0
   10.3152  -18.0457   22.7441 C   0  0  0  0  0  0  0  0  0  0  0  0
   11.1005  -17.0662   22.9998 O   0  0  0  0  0  0  0  0  0  0  0  0
   13.0182  -18.5812   21.7161 C   0  0  0  0  0  0  0  0  0  0  0  0
   13.6577  -19.6638   21.7110 O   0  0  0  0  0  0  0  0  0  0  0  0
    9.2592  -18.1885   23.6026 O   0  0  0  0  0  0  0  0  0  0  0  0
   17.6473  -18.5065   20.0501 N   0  0  0  0  0  0  0  0  0  0  0  0
   18.1380  -18.3971   21.4127 C   0  0  0  0  0  0  0  0  0  0  0  0
   19.3497  -18.6022   21.6218 O   0  0  0  0  0  0  0  0  0  0  0  0
   17.2170  -18.0549   22.5027 C   0  0  0  0  0  0  0  0  0  0  0  0
   15.8246  -17.7822   22.1257 C   0  0  0  0  0  0  0  0  0  0  0  0
   14.8158  -17.5113   23.1673 C   0  0  2  0  0  0  0  0  0  0  0  0
   13.4610  -17.5645   22.5970 N   0  0  0  0  0  0  0  0  0  0  0  0
   15.0144  -16.4307   24.1075 C   0  0  0  0  0  0  0  0  0  0  0  0
   14.1185  -15.4627   24.4636 O   0  0  0  0  0  0  0  0  0  0  0  0
   16.1662  -16.3746   24.6731 O   0  0  0  0  0  0  0  0  0  0  0  0
  2  1  1  0
  3  2  2  0
  4  2  1  0
  5  4  1  0
  6  5  1  0
  6  7  1  1
  8  6  1  0
  8  9  2  0
 10 11  1  0
 10  8  1  0
 11 12  1  1
 12 13  1  0
 13 17  1  0
 14 13  2  0
 15 11  1  0
 16 15  2  0
 19 18  1  0
 19 21  1  0
 20 19  2  0
 22 21  1  0
 23 22  1  6
 23 24  1  0
 24 15  1  0
 25 26  1  0
 25 23  1  0
 27 25  2  0
M  END
$$$$
