QDQ.pdb
     RDKit          3D

 27 26  0  0  1  0  0  0  0  0999 V2000
    6.8177  -13.1702   15.0853 N   0  0  0  0  0  0  0  0  0  0  0  0
    7.2625  -14.3911   14.5371 C   0  0  0  0  0  0  0  0  0  0  0  0
    7.0353  -14.6365   13.3327 O   0  0  0  0  0  0  0  0  0  0  0  0
    7.9873  -15.3788   15.3544 C   0  0  0  0  0  0  0  0  0  0  0  0
    8.0717  -14.8872   16.7756 C   0  0  0  0  0  0  0  0  0  0  0  0
    9.5076  -14.7821   17.2505 C   0  0  2  0  0  0  0  0  0  0  0  0
   10.4220  -14.7978   16.1259 N   0  0  0  0  0  0  0  0  0  0  0  0
    9.8777  -15.8483   18.1793 C   0  0  0  0  0  0  0  0  0  0  0  0
    9.0367  -16.3228   18.9840 O   0  0  0  0  0  0  0  0  0  0  0  0
   11.2001  -16.4170   18.2368 N   0  0  0  0  0  0  0  0  0  0  0  0
   11.5259  -17.4640   19.1841 C   0  0  1  0  0  0  0  0  0  0  0  0
   12.7834  -18.1397   18.6876 C   0  0  0  0  0  0  0  0  0  0  0  0
   13.0756  -19.3326   19.4988 C   0  0  0  0  0  0  0  0  0  0  0  0
   14.3029  -19.6788   19.6215 O   0  0  0  0  0  0  0  0  0  0  0  0
   11.8454  -16.8994   20.5246 C   0  0  0  0  0  0  0  0  0  0  0  0
   12.7021  -15.9963   20.7015 O   0  0  0  0  0  0  0  0  0  0  0  0
   12.1746  -20.1312   20.1491 O   0  0  0  0  0  0  0  0  0  0  0  0
    7.3368  -15.6526   24.3763 N   0  0  0  0  0  0  0  0  0  0  0  0
    8.4711  -15.3716   25.2387 C   0  0  0  0  0  0  0  0  0  0  0  0
    8.2622  -14.7739   26.3125 O   0  0  0  0  0  0  0  0  0  0  0  0
    9.8211  -15.7860   24.8396 C   0  0  0  0  0  0  0  0  0  0  0  0
    9.9479  -16.4415   23.5321 C   0  0  0  0  0  0  0  0  0  0  0  0
   11.2812  -16.7882   23.0049 C   0  0  2  0  0  0  0  0  0  0  0  0
   11.1650  -17.3878   21.6667 N   0  0  0  0  0  0  0  0  0  0  0  0
   12.2528  -17.4381   23.8563 C   0  0  0  0  0  0  0  0  0  0  0  0
   13.2654  -16.8515   24.5614 O   0  0  0  0  0  0  0  0  0  0  0  0
   12.1520  -18.7141   23.9617 O   0  0  0  0  0  0  0  0  0  0  0  0
  2  1  1  0
  3  2  2  0
  4  2  1  0
  5  4  1  0
  6  5  1  0
  6  7  1  6
  8  6  1  0
  8  9  2  0
 10 11  1  0
 10  8  1  0
 11 12  1  6
 12 13  1  0
 13 17  1  0
 14 13  2  0
 15 11  1  0
 16 15  2  0
 19 18  1  0
 19 21  1  0
 20 19  2  0
 22 21  1  0
 23 22  1  1
 23 24  1  0
 24 15  1  0
 25 26  1  0
 25 23  1  0
 27 25  2  0
M  END
$$$$
