QDQ.pdb
     RDKit          3D

 27 26  0  0  1  0  0  0  0  0999 V2000
    8.2904  -11.7551   20.1178 N   0  0  0  0  0  0  0  0  0  0  0  0
    8.2984  -13.1217   20.4663 C   0  0  0  0  0  0  0  0  0  0  0  0
    7.8813  -13.4650   21.5936 O   0  0  0  0  0  0  0  0  0  0  0  0
    8.7872  -14.1481   19.5302 C   0  0  0  0  0  0  0  0  0  0  0  0
    9.2816  -13.4835   18.2722 C   0  0  0  0  0  0  0  0  0  0  0  0
   10.0128  -14.4586   17.3706 C   0  0  2  0  0  0  0  0  0  0  0  0
    9.0982  -15.4489   16.8378 N   0  0  0  0  0  0  0  0  0  0  0  0
   11.1127  -15.1427   18.0479 C   0  0  0  0  0  0  0  0  0  0  0  0
   10.9614  -16.2995   18.5158 O   0  0  0  0  0  0  0  0  0  0  0  0
   12.4160  -14.5542   18.2229 N   0  0  0  0  0  0  0  0  0  0  0  0
   13.4495  -15.2317   18.9794 C   0  0  1  0  0  0  0  0  0  0  0  0
   14.7539  -14.5285   18.6820 C   0  0  0  0  0  0  0  0  0  0  0  0
   15.2546  -14.9223   17.3552 C   0  0  0  0  0  0  0  0  0  0  0  0
   14.8860  -16.0607   16.8974 O   0  0  0  0  0  0  0  0  0  0  0  0
   13.2192  -15.1022   20.4450 C   0  0  0  0  0  0  0  0  0  0  0  0
   13.6237  -14.1203   21.1183 O   0  0  0  0  0  0  0  0  0  0  0  0
   16.0835  -14.2034   16.5375 O   0  0  0  0  0  0  0  0  0  0  0  0
    7.8448  -15.8482   22.9107 N   0  0  0  0  0  0  0  0  0  0  0  0
    8.6381  -15.7871   24.1258 C   0  0  0  0  0  0  0  0  0  0  0  0
    8.0441  -15.6370   25.2115 O   0  0  0  0  0  0  0  0  0  0  0  0
   10.0997  -15.8990   24.0583 C   0  0  0  0  0  0  0  0  0  0  0  0
   10.6902  -15.9995   22.7180 C   0  0  0  0  0  0  0  0  0  0  0  0
   12.1557  -16.0461   22.5570 C   0  0  2  0  0  0  0  0  0  0  0  0
   12.5143  -16.1203   21.1324 N   0  0  0  0  0  0  0  0  0  0  0  0
   12.9534  -16.9009   23.4079 C   0  0  0  0  0  0  0  0  0  0  0  0
   13.1830  -16.7606   24.7473 O   0  0  0  0  0  0  0  0  0  0  0  0
   13.5103  -17.9085   22.8386 O   0  0  0  0  0  0  0  0  0  0  0  0
  2  1  1  0
  3  2  2  0
  4  2  1  0
  5  4  1  0
  6  5  1  0
  6  7  1  1
  8  6  1  0
  8  9  2  0
 10 11  1  0
 10  8  1  0
 11 12  1  1
 12 13  1  0
 13 17  1  0
 14 13  2  0
 15 11  1  0
 16 15  2  0
 19 18  1  0
 19 21  1  0
 20 19  2  0
 22 21  1  0
 23 22  1  6
 23 24  1  0
 24 15  1  0
 25 26  1  0
 25 23  1  0
 27 25  2  0
M  END
$$$$
