QDQ.pdb
     RDKit          3D

 27 26  0  0  1  0  0  0  0  0999 V2000
    7.2203  -12.1036   19.7859 N   0  0  0  0  0  0  0  0  0  0  0  0
    8.4780  -12.7353   19.8762 C   0  0  0  0  0  0  0  0  0  0  0  0
    9.5023  -12.1034   19.5388 O   0  0  0  0  0  0  0  0  0  0  0  0
    8.6063  -14.1207   20.3588 C   0  0  0  0  0  0  0  0  0  0  0  0
    7.2369  -14.6829   20.6366 C   0  0  0  0  0  0  0  0  0  0  0  0
    7.2900  -16.1653   20.9496 C   0  0  2  0  0  0  0  0  0  0  0  0
    5.9529  -16.7126   21.0674 N   0  0  0  0  0  0  0  0  0  0  0  0
    8.0342  -16.4611   22.1724 C   0  0  0  0  0  0  0  0  0  0  0  0
    7.4500  -16.5215   23.2837 O   0  0  0  0  0  0  0  0  0  0  0  0
    9.4550  -16.6985   22.1901 N   0  0  0  0  0  0  0  0  0  0  0  0
   10.1415  -17.0508   23.4166 C   0  0  1  0  0  0  0  0  0  0  0  0
   11.6028  -17.2295   23.0747 C   0  0  0  0  0  0  0  0  0  0  0  0
   11.7952  -18.4554   22.2832 C   0  0  0  0  0  0  0  0  0  0  0  0
   12.7315  -18.4544   21.4086 O   0  0  0  0  0  0  0  0  0  0  0  0
   10.0681  -15.9467   24.4132 C   0  0  0  0  0  0  0  0  0  0  0  0
   10.2997  -14.7453   24.1234 O   0  0  0  0  0  0  0  0  0  0  0  0
   11.0786  -19.6177   22.3718 O   0  0  0  0  0  0  0  0  0  0  0  0
    5.7335  -13.3573   26.6718 N   0  0  0  0  0  0  0  0  0  0  0  0
    6.9020  -12.5259   26.4421 C   0  0  0  0  0  0  0  0  0  0  0  0
    6.7274  -11.3130   26.2131 O   0  0  0  0  0  0  0  0  0  0  0  0
    8.2452  -13.1155   26.4802 C   0  0  0  0  0  0  0  0  0  0  0  0
    8.3250  -14.5510   26.7773 C   0  0  0  0  0  0  0  0  0  0  0  0
    9.6358  -15.2264   26.8166 C   0  0  2  0  0  0  0  0  0  0  0  0
    9.7235  -16.2408   25.7550 N   0  0  0  0  0  0  0  0  0  0  0  0
   10.1974  -15.6497   28.0801 C   0  0  0  0  0  0  0  0  0  0  0  0
   10.5953  -14.8585   29.1204 O   0  0  0  0  0  0  0  0  0  0  0  0
   10.3385  -16.9158   28.2431 O   0  0  0  0  0  0  0  0  0  0  0  0
  2  1  1  0
  3  2  2  0
  4  2  1  0
  5  4  1  0
  6  5  1  0
  6  7  1  1
  8  6  1  0
  8  9  2  0
 10 11  1  0
 10  8  1  0
 11 12  1  6
 12 13  1  0
 13 17  1  0
 14 13  2  0
 15 11  1  0
 16 15  2  0
 19 18  1  0
 19 21  1  0
 20 19  2  0
 22 21  1  0
 23 22  1  1
 23 24  1  0
 24 15  1  0
 25 26  1  0
 25 23  1  0
 27 25  2  0
M  END
$$$$
