QDQ.pdb
     RDKit          3D

 27 26  0  0  1  0  0  0  0  0999 V2000
    9.3708  -11.5980   19.4582 N   0  0  0  0  0  0  0  0  0  0  0  0
    8.7004  -12.7786   19.0768 C   0  0  0  0  0  0  0  0  0  0  0  0
    9.2521  -13.5590   18.2711 O   0  0  0  0  0  0  0  0  0  0  0  0
    7.3670  -13.1080   19.6082 C   0  0  0  0  0  0  0  0  0  0  0  0
    7.5166  -13.8708   20.8982 C   0  0  0  0  0  0  0  0  0  0  0  0
    8.0167  -15.2825   20.6626 C   0  0  2  0  0  0  0  0  0  0  0  0
    7.0592  -16.0423   19.8835 N   0  0  0  0  0  0  0  0  0  0  0  0
    8.2957  -16.0006   21.9047 C   0  0  0  0  0  0  0  0  0  0  0  0
    7.3593  -16.4081   22.6378 O   0  0  0  0  0  0  0  0  0  0  0  0
    9.6306  -16.2854   22.3656 N   0  0  0  0  0  0  0  0  0  0  0  0
    9.8624  -16.9143   23.6503 C   0  0  1  0  0  0  0  0  0  0  0  0
   11.0517  -17.8331   23.4893 C   0  0  0  0  0  0  0  0  0  0  0  0
   11.3577  -18.4994   24.7655 C   0  0  0  0  0  0  0  0  0  0  0  0
   12.1327  -17.8874   25.5818 O   0  0  0  0  0  0  0  0  0  0  0  0
   10.2361  -15.9096   24.6841 C   0  0  0  0  0  0  0  0  0  0  0  0
   11.2253  -15.1421   24.5681 O   0  0  0  0  0  0  0  0  0  0  0  0
   10.9048  -19.7185   25.1912 O   0  0  0  0  0  0  0  0  0  0  0  0
    5.8771  -12.2384   25.5129 N   0  0  0  0  0  0  0  0  0  0  0  0
    6.7256  -12.4862   26.6653 C   0  0  0  0  0  0  0  0  0  0  0  0
    6.8002  -11.6048   27.5437 O   0  0  0  0  0  0  0  0  0  0  0  0
    7.4700  -13.7460   26.7753 C   0  0  0  0  0  0  0  0  0  0  0  0
    8.9333  -13.6423   26.8319 C   0  0  0  0  0  0  0  0  0  0  0  0
    9.7570  -14.8599   26.9537 C   0  0  2  0  0  0  0  0  0  0  0  0
    9.4551  -15.7963   25.8601 N   0  0  0  0  0  0  0  0  0  0  0  0
    9.9267  -15.4966   28.2409 C   0  0  0  0  0  0  0  0  0  0  0  0
   10.3544  -14.9210   29.4037 O   0  0  0  0  0  0  0  0  0  0  0  0
    9.6425  -16.7479   28.2974 O   0  0  0  0  0  0  0  0  0  0  0  0
  2  1  1  0
  3  2  2  0
  4  2  1  0
  5  4  1  0
  6  5  1  0
  6  7  1  1
  8  6  1  0
  8  9  2  0
 10 11  1  0
 10  8  1  0
 11 12  1  6
 12 13  1  0
 13 17  1  0
 14 13  2  0
 15 11  1  0
 16 15  2  0
 19 18  1  0
 19 21  1  0
 20 19  2  0
 22 21  1  0
 23 22  1  1
 23 24  1  0
 24 15  1  0
 25 26  1  0
 25 23  1  0
 27 25  2  0
M  END
$$$$
