QDQ.pdb
     RDKit          3D

 27 26  0  0  1  0  0  0  0  0999 V2000
    7.8584  -12.4480   17.8102 N   0  0  0  0  0  0  0  0  0  0  0  0
    7.1810  -13.6172   17.4065 C   0  0  0  0  0  0  0  0  0  0  0  0
    5.9324  -13.6082   17.3485 O   0  0  0  0  0  0  0  0  0  0  0  0
    7.9148  -14.8443   17.0535 C   0  0  0  0  0  0  0  0  0  0  0  0
    9.3915  -14.6166   17.2431 C   0  0  0  0  0  0  0  0  0  0  0  0
   10.1920  -15.8806   16.9980 C   0  0  2  0  0  0  0  0  0  0  0  0
    9.6680  -16.6063   15.8578 N   0  0  0  0  0  0  0  0  0  0  0  0
   10.2170  -16.7704   18.1573 C   0  0  0  0  0  0  0  0  0  0  0  0
   10.5776  -16.3491   19.2854 O   0  0  0  0  0  0  0  0  0  0  0  0
    9.8393  -18.1591   18.0910 N   0  0  0  0  0  0  0  0  0  0  0  0
    9.9654  -19.0267   19.2446 C   0  0  1  0  0  0  0  0  0  0  0  0
    8.8890  -20.0815   19.1297 C   0  0  0  0  0  0  0  0  0  0  0  0
    7.5567  -19.4578   19.1777 C   0  0  0  0  0  0  0  0  0  0  0  0
    7.3462  -18.5807   20.0875 O   0  0  0  0  0  0  0  0  0  0  0  0
   11.2697  -19.7455   19.2401 C   0  0  0  0  0  0  0  0  0  0  0  0
   11.8664  -20.0762   18.1839 O   0  0  0  0  0  0  0  0  0  0  0  0
    6.4959  -19.7092   18.3506 O   0  0  0  0  0  0  0  0  0  0  0  0
   15.4129  -19.4988   17.3356 N   0  0  0  0  0  0  0  0  0  0  0  0
   16.2173  -19.5256   18.5446 C   0  0  0  0  0  0  0  0  0  0  0  0
   17.4529  -19.6434   18.4288 O   0  0  0  0  0  0  0  0  0  0  0  0
   15.5753  -19.4176   19.8597 C   0  0  0  0  0  0  0  0  0  0  0  0
   14.1092  -19.3434   19.8715 C   0  0  0  0  0  0  0  0  0  0  0  0
   13.3241  -20.3427   20.6204 C   0  0  2  0  0  0  0  0  0  0  0  0
   11.8841  -20.0822   20.4710 N   0  0  0  0  0  0  0  0  0  0  0  0
   13.7160  -20.7188   21.9606 C   0  0  0  0  0  0  0  0  0  0  0  0
   14.7631  -21.5156   22.3283 O   0  0  0  0  0  0  0  0  0  0  0  0
   12.9966  -20.2495   22.9154 O   0  0  0  0  0  0  0  0  0  0  0  0
  2  1  1  0
  3  2  2  0
  4  2  1  0
  5  4  1  0
  6  5  1  0
  6  7  1  6
  8  6  1  0
  8  9  2  0
 10 11  1  0
 10  8  1  0
 11 12  1  6
 12 13  1  0
 13 17  1  0
 14 13  2  0
 15 11  1  0
 16 15  2  0
 19 18  1  0
 19 21  1  0
 20 19  2  0
 22 21  1  0
 23 22  1  1
 23 24  1  0
 24 15  1  0
 25 26  1  0
 25 23  1  0
 27 25  2  0
M  END
$$$$
