QDQ.pdb
     RDKit          3D

 27 26  0  0  1  0  0  0  0  0999 V2000
    7.8389  -13.4784   17.3237 N   0  0  0  0  0  0  0  0  0  0  0  0
    7.2839  -13.8810   18.5561 C   0  0  0  0  0  0  0  0  0  0  0  0
    6.3667  -13.1993   19.0625 O   0  0  0  0  0  0  0  0  0  0  0  0
    7.7634  -15.0852   19.2551 C   0  0  0  0  0  0  0  0  0  0  0  0
    8.8813  -15.7117   18.4636 C   0  0  0  0  0  0  0  0  0  0  0  0
    9.3626  -17.0034   19.0947 C   0  0  2  0  0  0  0  0  0  0  0  0
    8.2583  -17.7205   19.7009 N   0  0  0  0  0  0  0  0  0  0  0  0
   10.4013  -16.7911   20.1009 C   0  0  0  0  0  0  0  0  0  0  0  0
   11.4911  -16.2436   19.7966 O   0  0  0  0  0  0  0  0  0  0  0  0
   10.2531  -17.1842   21.4790 N   0  0  0  0  0  0  0  0  0  0  0  0
   11.3500  -17.0575   22.4173 C   0  0  1  0  0  0  0  0  0  0  0  0
   10.7445  -16.8433   23.7855 C   0  0  0  0  0  0  0  0  0  0  0  0
   11.7991  -16.5522   24.7700 C   0  0  0  0  0  0  0  0  0  0  0  0
   13.0137  -16.5853   24.3636 O   0  0  0  0  0  0  0  0  0  0  0  0
   12.1437  -18.3152   22.4938 C   0  0  0  0  0  0  0  0  0  0  0  0
   11.6755  -19.3954   22.9355 O   0  0  0  0  0  0  0  0  0  0  0  0
   11.6330  -16.2454   26.0932 O   0  0  0  0  0  0  0  0  0  0  0  0
   13.1182  -19.8122   18.2031 N   0  0  0  0  0  0  0  0  0  0  0  0
   14.3715  -19.0995   18.3785 C   0  0  0  0  0  0  0  0  0  0  0  0
   14.7944  -18.4075   17.4318 O   0  0  0  0  0  0  0  0  0  0  0  0
   15.1082  -19.2042   19.6433 C   0  0  0  0  0  0  0  0  0  0  0  0
   14.5041  -20.0391   20.6889 C   0  0  0  0  0  0  0  0  0  0  0  0
   14.3481  -19.5122   22.0579 C   0  0  2  0  0  0  0  0  0  0  0  0
   13.4901  -18.3175   22.0543 N   0  0  0  0  0  0  0  0  0  0  0  0
   15.4959  -19.4073   22.9312 C   0  0  0  0  0  0  0  0  0  0  0  0
   16.2983  -20.4198   23.3756 O   0  0  0  0  0  0  0  0  0  0  0  0
   15.7955  -18.2258   23.3358 O   0  0  0  0  0  0  0  0  0  0  0  0
  2  1  1  0
  3  2  2  0
  4  2  1  0
  5  4  1  0
  6  5  1  0
  6  7  1  1
  8  6  1  0
  8  9  2  0
 10 11  1  0
 10  8  1  0
 11 12  1  1
 12 13  1  0
 13 17  1  0
 14 13  2  0
 15 11  1  0
 16 15  2  0
 19 18  1  0
 19 21  1  0
 20 19  2  0
 22 21  1  0
 23 22  1  6
 23 24  1  0
 24 15  1  0
 25 26  1  0
 25 23  1  0
 27 25  2  0
M  END
$$$$
