QDQ.pdb
     RDKit          3D

 27 26  0  0  1  0  0  0  0  0999 V2000
    6.7444  -15.7445   15.1308 N   0  0  0  0  0  0  0  0  0  0  0  0
    7.5486  -14.7381   14.5567 C   0  0  0  0  0  0  0  0  0  0  0  0
    7.0746  -14.0260   13.6453 O   0  0  0  0  0  0  0  0  0  0  0  0
    8.9314  -14.5115   15.0096 C   0  0  0  0  0  0  0  0  0  0  0  0
    9.2955  -15.5449   16.0430 C   0  0  0  0  0  0  0  0  0  0  0  0
    9.5190  -14.9224   17.4072 C   0  0  2  0  0  0  0  0  0  0  0  0
    9.6665  -13.4846   17.2966 N   0  0  0  0  0  0  0  0  0  0  0  0
   10.6868  -15.4686   18.0959 C   0  0  0  0  0  0  0  0  0  0  0  0
   10.8037  -16.7059   18.2842 O   0  0  0  0  0  0  0  0  0  0  0  0
   11.7604  -14.6478   18.5953 N   0  0  0  0  0  0  0  0  0  0  0  0
   12.8128  -15.2085   19.4184 C   0  0  1  0  0  0  0  0  0  0  0  0
   14.0175  -14.3065   19.2783 C   0  0  0  0  0  0  0  0  0  0  0  0
   15.1610  -14.8642   20.0184 C   0  0  0  0  0  0  0  0  0  0  0  0
   15.7526  -14.0988   20.8582 O   0  0  0  0  0  0  0  0  0  0  0  0
   12.4361  -15.1969   20.8592 C   0  0  0  0  0  0  0  0  0  0  0  0
   13.1765  -15.6577   21.7650 O   0  0  0  0  0  0  0  0  0  0  0  0
   15.6773  -16.1271   19.9131 O   0  0  0  0  0  0  0  0  0  0  0  0
    6.3926  -15.1019   21.9698 N   0  0  0  0  0  0  0  0  0  0  0  0
    6.8327  -14.9773   23.3483 C   0  0  0  0  0  0  0  0  0  0  0  0
    5.9792  -15.0766   24.2515 O   0  0  0  0  0  0  0  0  0  0  0  0
    8.2486  -14.7391   23.6514 C   0  0  0  0  0  0  0  0  0  0  0  0
    9.1307  -14.4766   22.5076 C   0  0  0  0  0  0  0  0  0  0  0  0
   10.5266  -14.9530   22.5256 C   0  0  2  0  0  0  0  0  0  0  0  0
   11.1909  -14.6463   21.2495 N   0  0  0  0  0  0  0  0  0  0  0  0
   10.8404  -16.2635   23.0500 C   0  0  0  0  0  0  0  0  0  0  0  0
   11.2390  -16.5784   24.3183 O   0  0  0  0  0  0  0  0  0  0  0  0
   10.7319  -17.2448   22.2285 O   0  0  0  0  0  0  0  0  0  0  0  0
  2  1  1  0
  3  2  2  0
  4  2  1  0
  5  4  1  0
  6  5  1  0
  6  7  1  6
  8  6  1  0
  8  9  2  0
 10 11  1  0
 10  8  1  0
 11 12  1  1
 12 13  1  0
 13 17  1  0
 14 13  2  0
 15 11  1  0
 16 15  2  0
 19 18  1  0
 19 21  1  0
 20 19  2  0
 22 21  1  0
 23 22  1  6
 23 24  1  0
 24 15  1  0
 25 26  1  0
 25 23  1  0
 27 25  2  0
M  END
$$$$
