QDQ.pdb
     RDKit          3D

 27 26  0  0  1  0  0  0  0  0999 V2000
    6.5675  -13.8958   16.3598 N   0  0  0  0  0  0  0  0  0  0  0  0
    7.7736  -14.4129   15.8432 C   0  0  0  0  0  0  0  0  0  0  0  0
    8.0101  -14.3011   14.6209 O   0  0  0  0  0  0  0  0  0  0  0  0
    8.7562  -15.0799   16.7140 C   0  0  0  0  0  0  0  0  0  0  0  0
    8.1280  -15.3616   18.0537 C   0  0  0  0  0  0  0  0  0  0  0  0
    8.7328  -14.5067   19.1499 C   0  0  2  0  0  0  0  0  0  0  0  0
    9.3744  -13.3335   18.5902 N   0  0  0  0  0  0  0  0  0  0  0  0
    9.7019  -15.2340   19.9675 C   0  0  0  0  0  0  0  0  0  0  0  0
    9.4240  -16.3634   20.4444 O   0  0  0  0  0  0  0  0  0  0  0  0
   11.0120  -14.7209   20.2769 N   0  0  0  0  0  0  0  0  0  0  0  0
   11.9167  -15.4478   21.1445 C   0  0  1  0  0  0  0  0  0  0  0  0
   13.2152  -14.6752   21.1833 C   0  0  0  0  0  0  0  0  0  0  0  0
   13.9384  -14.8292   19.9107 C   0  0  0  0  0  0  0  0  0  0  0  0
   13.8068  -13.8996   19.0390 O   0  0  0  0  0  0  0  0  0  0  0  0
   11.4050  -15.4932   22.5424 C   0  0  0  0  0  0  0  0  0  0  0  0
   10.7559  -14.5520   23.0656 O   0  0  0  0  0  0  0  0  0  0  0  0
   14.7493  -15.8675   19.5409 O   0  0  0  0  0  0  0  0  0  0  0  0
    7.2091  -17.1309   25.9993 N   0  0  0  0  0  0  0  0  0  0  0  0
    7.4080  -17.5336   24.6181 C   0  0  0  0  0  0  0  0  0  0  0  0
    6.4869  -18.1464   24.0437 O   0  0  0  0  0  0  0  0  0  0  0  0
    8.6673  -17.2205   23.9330 C   0  0  0  0  0  0  0  0  0  0  0  0
    9.6557  -16.4473   24.6950 C   0  0  0  0  0  0  0  0  0  0  0  0
   11.0769  -16.8418   24.6768 C   0  0  2  0  0  0  0  0  0  0  0  0
   11.6495  -16.6398   23.3370 N   0  0  0  0  0  0  0  0  0  0  0  0
   11.4987  -18.0685   25.3160 C   0  0  0  0  0  0  0  0  0  0  0  0
   11.4210  -18.3845   26.6429 O   0  0  0  0  0  0  0  0  0  0  0  0
   12.0047  -18.9644   24.5473 O   0  0  0  0  0  0  0  0  0  0  0  0
  2  1  1  0
  3  2  2  0
  4  2  1  0
  5  4  1  0
  6  5  1  0
  6  7  1  6
  8  6  1  0
  8  9  2  0
 10 11  1  0
 10  8  1  0
 11 12  1  1
 12 13  1  0
 13 17  1  0
 14 13  2  0
 15 11  1  0
 16 15  2  0
 19 18  1  0
 19 21  1  0
 20 19  2  0
 22 21  1  0
 23 22  1  6
 23 24  1  0
 24 15  1  0
 25 26  1  0
 25 23  1  0
 27 25  2  0
M  END
$$$$
