QDQ.pdb
     RDKit          3D

 27 26  0  0  1  0  0  0  0  0999 V2000
    8.7019  -13.6186   16.0840 N   0  0  0  0  0  0  0  0  0  0  0  0
    7.7990  -14.6221   16.4923 C   0  0  0  0  0  0  0  0  0  0  0  0
    7.4179  -15.4734   15.6602 O   0  0  0  0  0  0  0  0  0  0  0  0
    7.2986  -14.6854   17.8759 C   0  0  0  0  0  0  0  0  0  0  0  0
    7.6141  -13.3929   18.5819 C   0  0  0  0  0  0  0  0  0  0  0  0
    8.8573  -13.5099   19.4416 C   0  0  2  0  0  0  0  0  0  0  0  0
   10.0099  -13.8529   18.6322 N   0  0  0  0  0  0  0  0  0  0  0  0
    8.7170  -14.4961   20.5113 C   0  0  0  0  0  0  0  0  0  0  0  0
    7.6634  -14.5611   21.1938 O   0  0  0  0  0  0  0  0  0  0  0  0
    9.7506  -15.4405   20.8507 N   0  0  0  0  0  0  0  0  0  0  0  0
    9.5647  -16.4057   21.9153 C   0  0  1  0  0  0  0  0  0  0  0  0
   10.5370  -17.5361   21.6677 C   0  0  0  0  0  0  0  0  0  0  0  0
   10.3088  -18.6253   22.6310 C   0  0  0  0  0  0  0  0  0  0  0  0
   10.2232  -18.3112   23.8702 O   0  0  0  0  0  0  0  0  0  0  0  0
    9.9158  -15.8232   23.2401 C   0  0  0  0  0  0  0  0  0  0  0  0
   11.0757  -15.4364   23.5332 O   0  0  0  0  0  0  0  0  0  0  0  0
   10.1755  -19.9588   22.3549 O   0  0  0  0  0  0  0  0  0  0  0  0
    5.6685  -12.3300   26.0447 N   0  0  0  0  0  0  0  0  0  0  0  0
    6.7975  -12.1893   26.9475 C   0  0  0  0  0  0  0  0  0  0  0  0
    6.7499  -11.2978   27.8176 O   0  0  0  0  0  0  0  0  0  0  0  0
    7.9564  -13.0809   26.8230 C   0  0  0  0  0  0  0  0  0  0  0  0
    7.9704  -13.9831   25.6650 C   0  0  0  0  0  0  0  0  0  0  0  0
    9.0897  -14.9249   25.4746 C   0  0  2  0  0  0  0  0  0  0  0  0
    8.9123  -15.6895   24.2306 N   0  0  0  0  0  0  0  0  0  0  0  0
    9.5708  -15.7157   26.5856 C   0  0  0  0  0  0  0  0  0  0  0  0
   10.1043  -15.2636   27.7592 O   0  0  0  0  0  0  0  0  0  0  0  0
    9.4869  -16.9905   26.4536 O   0  0  0  0  0  0  0  0  0  0  0  0
  2  1  1  0
  3  2  2  0
  4  2  1  0
  5  4  1  0
  6  5  1  0
  6  7  1  6
  8  6  1  0
  8  9  2  0
 10 11  1  0
 10  8  1  0
 11 12  1  6
 12 13  1  0
 13 17  1  0
 14 13  2  0
 15 11  1  0
 16 15  2  0
 19 18  1  0
 19 21  1  0
 20 19  2  0
 22 21  1  0
 23 22  1  1
 23 24  1  0
 24 15  1  0
 25 26  1  0
 25 23  1  0
 27 25  2  0
M  END
$$$$
