QDQ.pdb
     RDKit          3D

 27 26  0  0  1  0  0  0  0  0999 V2000
    6.5757  -15.6874   14.9288 N   0  0  0  0  0  0  0  0  0  0  0  0
    7.7245  -14.9483   14.5781 C   0  0  0  0  0  0  0  0  0  0  0  0
    8.0217  -14.8212   13.3707 O   0  0  0  0  0  0  0  0  0  0  0  0
    8.5775  -14.3257   15.6045 C   0  0  0  0  0  0  0  0  0  0  0  0
    7.9791  -14.5658   16.9657 C   0  0  0  0  0  0  0  0  0  0  0  0
    8.8417  -13.9870   18.0699 C   0  0  2  0  0  0  0  0  0  0  0  0
    9.1794  -12.6062   17.7862 N   0  0  0  0  0  0  0  0  0  0  0  0
   10.0740  -14.7437   18.2832 C   0  0  0  0  0  0  0  0  0  0  0  0
   10.0381  -15.9703   18.5555 O   0  0  0  0  0  0  0  0  0  0  0  0
   11.3847  -14.1519   18.1984 N   0  0  0  0  0  0  0  0  0  0  0  0
   12.5793  -14.9380   18.4323 C   0  0  1  0  0  0  0  0  0  0  0  0
   13.6677  -14.3691   17.5512 C   0  0  0  0  0  0  0  0  0  0  0  0
   13.6036  -14.9700   16.2092 C   0  0  0  0  0  0  0  0  0  0  0  0
   13.0193  -16.1045   16.0960 O   0  0  0  0  0  0  0  0  0  0  0  0
   13.0513  -14.7985   19.8378 C   0  0  0  0  0  0  0  0  0  0  0  0
   13.7073  -13.8063   20.2452 O   0  0  0  0  0  0  0  0  0  0  0  0
   14.1044  -14.4512   15.0463 O   0  0  0  0  0  0  0  0  0  0  0  0
    9.9055  -17.4241   24.5646 N   0  0  0  0  0  0  0  0  0  0  0  0
    9.6463  -16.2020   23.8239 C   0  0  0  0  0  0  0  0  0  0  0  0
    8.5024  -15.7096   23.8793 O   0  0  0  0  0  0  0  0  0  0  0  0
   10.7144  -15.5779   23.0346 C   0  0  0  0  0  0  0  0  0  0  0  0
   12.0160  -16.2569   23.0366 C   0  0  0  0  0  0  0  0  0  0  0  0
   13.1182  -15.7458   22.2001 C   0  0  2  0  0  0  0  0  0  0  0  0
   12.7590  -15.8188   20.7756 N   0  0  0  0  0  0  0  0  0  0  0  0
   14.4831  -16.1318   22.4814 C   0  0  0  0  0  0  0  0  0  0  0  0
   15.3795  -16.7037   21.6234 O   0  0  0  0  0  0  0  0  0  0  0  0
   14.9009  -15.9116   23.6757 O   0  0  0  0  0  0  0  0  0  0  0  0
  2  1  1  0
  3  2  2  0
  4  2  1  0
  5  4  1  0
  6  5  1  0
  6  7  1  6
  8  6  1  0
  8  9  2  0
 10 11  1  0
 10  8  1  0
 11 12  1  6
 12 13  1  0
 13 17  1  0
 14 13  2  0
 15 11  1  0
 16 15  2  0
 19 18  1  0
 19 21  1  0
 20 19  2  0
 22 21  1  0
 23 22  1  1
 23 24  1  0
 24 15  1  0
 25 26  1  0
 25 23  1  0
 27 25  2  0
M  END
$$$$
