QKD.pdb
     RDKit          3D

 27 26  0  0  1  0  0  0  0  0999 V2000
   19.9308  -24.9653  -17.6015 N   0  0  0  0  0  0  0  0  0  0  0  0
   20.8087  -25.3934  -18.6447 C   0  0  0  0  0  0  0  0  0  0  0  0
   20.5212  -25.0568  -19.8133 O   0  0  0  0  0  0  0  0  0  0  0  0
   22.0095  -26.2026  -18.3658 C   0  0  0  0  0  0  0  0  0  0  0  0
   22.7180  -25.6229  -17.1667 C   0  0  0  0  0  0  0  0  0  0  0  0
   23.5762  -24.4465  -17.5392 C   0  0  2  0  0  0  0  0  0  0  0  0
   24.9713  -24.7991  -17.6757 N   0  0  0  0  0  0  0  0  0  0  0  0
   23.3825  -23.3981  -16.4730 C   0  0  0  0  0  0  0  0  0  0  0  0
   23.0355  -23.7721  -15.3374 O   0  0  0  0  0  0  0  0  0  0  0  0
   23.6164  -22.0639  -16.8626 N   0  0  0  0  0  0  0  0  0  0  0  0
   23.5505  -21.0047  -15.8292 C   0  0  1  0  0  0  0  0  0  0  0  0
   24.1546  -19.8022  -16.4416 C   0  0  0  0  0  0  0  0  0  0  0  0
   25.6408  -19.7303  -16.5228 C   0  0  0  0  0  0  0  0  0  0  0  0
   26.1287  -18.5038  -17.2606 C   0  0  0  0  0  0  0  0  0  0  0  0
   27.6298  -18.4400  -17.3619 C   0  0  0  0  0  0  0  0  0  0  0  0
   28.1393  -17.3235  -18.0929 N   0  0  0  0  0  0  0  0  0  0  0  0
   22.1440  -20.9081  -15.3966 C   0  0  0  0  0  0  0  0  0  0  0  0
   21.2023  -21.0285  -16.2552 O   0  0  0  0  0  0  0  0  0  0  0  0
   21.7707  -20.6883  -14.0481 N   0  0  0  0  0  0  0  0  0  0  0  0
   20.3656  -20.6137  -13.7149 C   0  0  1  0  0  0  0  0  0  0  0  0
   19.9547  -21.6432  -12.6914 C   0  0  0  0  0  0  0  0  0  0  0  0
   18.4786  -21.5897  -12.5281 C   0  0  0  0  0  0  0  0  0  0  0  0
   17.9395  -22.0225  -11.4480 O   0  0  0  0  0  0  0  0  0  0  0  0
   19.8979  -19.2591  -13.3791 C   0  0  0  0  0  0  0  0  0  0  0  0
   18.5824  -18.9261  -13.6656 O   0  0  0  0  0  0  0  0  0  0  0  0
   17.6216  -21.0816  -13.5001 O   0  0  0  0  0  0  0  0  0  0  0  0
   20.6838  -18.4466  -12.8483 O   0  0  0  0  0  0  0  0  0  0  0  0
  2  1  1  0
  3  2  2  0
  4  2  1  0
  5  4  1  0
  6  5  1  0
  6  7  1  1
  8  6  1  0
  8 10  1  0
  9  8  2  0
 11 10  1  0
 11 12  1  6
 13 14  1  0
 13 12  1  0
 15 14  1  0
 16 15  1  0
 17 11  1  0
 18 17  2  0
 19 17  1  0
 20 24  1  0
 20 19  1  0
 21 22  1  0
 20 21  1  1
 22 26  1  0
 23 22  2  0
 24 25  1  0
 27 24  2  0
M  END
$$$$
