QKD.pdb
     RDKit          3D

 27 26  0  0  1  0  0  0  0  0999 V2000
   17.2030  -16.0753  -19.3576 N   0  0  0  0  0  0  0  0  0  0  0  0
   17.3474  -14.8806  -18.5868 C   0  0  0  0  0  0  0  0  0  0  0  0
   17.0783  -13.7972  -19.1484 O   0  0  0  0  0  0  0  0  0  0  0  0
   17.7973  -14.9119  -17.1829 C   0  0  0  0  0  0  0  0  0  0  0  0
   18.7121  -13.7371  -16.9398 C   0  0  0  0  0  0  0  0  0  0  0  0
   20.1160  -14.0176  -17.3975 C   0  0  2  0  0  0  0  0  0  0  0  0
   20.7214  -15.1200  -16.6850 N   0  0  0  0  0  0  0  0  0  0  0  0
   20.9080  -12.7485  -17.2094 C   0  0  0  0  0  0  0  0  0  0  0  0
   21.3030  -12.4668  -16.0629 O   0  0  0  0  0  0  0  0  0  0  0  0
   21.1361  -11.9799  -18.3687 N   0  0  0  0  0  0  0  0  0  0  0  0
   22.0628  -10.8277  -18.2810 C   0  0  1  0  0  0  0  0  0  0  0  0
   22.5358  -10.5815  -19.6599 C   0  0  0  0  0  0  0  0  0  0  0  0
   23.4285   -9.4115  -19.8946 C   0  0  0  0  0  0  0  0  0  0  0  0
   23.8618   -9.2852  -21.3379 C   0  0  0  0  0  0  0  0  0  0  0  0
   24.8736   -8.1906  -21.5517 C   0  0  0  0  0  0  0  0  0  0  0  0
   25.2685   -7.9896  -22.9097 N   0  0  0  0  0  0  0  0  0  0  0  0
   21.3331   -9.7346  -17.6121 C   0  0  0  0  0  0  0  0  0  0  0  0
   20.1021   -9.5233  -17.8927 O   0  0  0  0  0  0  0  0  0  0  0  0
   21.9353   -8.8884  -16.6491 N   0  0  0  0  0  0  0  0  0  0  0  0
   21.1240   -7.8872  -15.9932 C   0  0  1  0  0  0  0  0  0  0  0  0
   21.2676   -7.9142  -14.4916 C   0  0  0  0  0  0  0  0  0  0  0  0
   20.4012   -6.8554  -13.9111 C   0  0  0  0  0  0  0  0  0  0  0  0
   19.1605   -7.0943  -13.6923 O   0  0  0  0  0  0  0  0  0  0  0  0
   21.2675   -6.5341  -16.5545 C   0  0  0  0  0  0  0  0  0  0  0  0
   22.2772   -6.3072  -17.4778 O   0  0  0  0  0  0  0  0  0  0  0  0
   20.8668   -5.5867  -13.5778 O   0  0  0  0  0  0  0  0  0  0  0  0
   20.4867   -5.6285  -16.1943 O   0  0  0  0  0  0  0  0  0  0  0  0
  2  1  1  0
  3  2  2  0
  4  2  1  0
  5  4  1  0
  6  5  1  0
  6  7  1  1
  8  6  1  0
  8 10  1  0
  9  8  2  0
 11 10  1  0
 11 12  1  6
 13 14  1  0
 13 12  1  0
 15 14  1  0
 16 15  1  0
 17 11  1  0
 18 17  2  0
 19 17  1  0
 20 24  1  0
 20 19  1  0
 21 22  1  0
 20 21  1  1
 22 26  1  0
 23 22  2  0
 24 25  1  0
 27 24  2  0
M  END
$$$$
