QKD.pdb
     RDKit          3D

 27 26  0  0  1  0  0  0  0  0999 V2000
   17.8075  -14.1372  -13.5175 N   0  0  0  0  0  0  0  0  0  0  0  0
   16.9732  -14.1199  -14.6776 C   0  0  0  0  0  0  0  0  0  0  0  0
   17.1280  -15.0373  -15.5118 O   0  0  0  0  0  0  0  0  0  0  0  0
   15.9662  -13.0646  -14.8941 C   0  0  0  0  0  0  0  0  0  0  0  0
   15.9701  -12.1381  -13.7034 C   0  0  0  0  0  0  0  0  0  0  0  0
   14.7300  -12.2954  -12.8687 C   0  0  2  0  0  0  0  0  0  0  0  0
   13.7580  -13.1735  -13.4799 N   0  0  0  0  0  0  0  0  0  0  0  0
   14.1585  -10.9165  -12.6556 C   0  0  0  0  0  0  0  0  0  0  0  0
   13.6672  -10.3262  -13.6353 O   0  0  0  0  0  0  0  0  0  0  0  0
   14.2313  -10.4090  -11.3426 N   0  0  0  0  0  0  0  0  0  0  0  0
   13.5773   -9.1127  -11.0494 C   0  0  1  0  0  0  0  0  0  0  0  0
   12.7500   -9.3388   -9.8451 C   0  0  0  0  0  0  0  0  0  0  0  0
   12.0751   -8.1616   -9.2292 C   0  0  0  0  0  0  0  0  0  0  0  0
   11.3017   -8.5171   -7.9793 C   0  0  0  0  0  0  0  0  0  0  0  0
   10.5334   -7.3515   -7.4148 C   0  0  0  0  0  0  0  0  0  0  0  0
    9.9025   -7.5959   -6.1568 N   0  0  0  0  0  0  0  0  0  0  0  0
   14.6451   -8.1001  -10.9547 C   0  0  0  0  0  0  0  0  0  0  0  0
   15.7563   -8.3947  -10.3915 O   0  0  0  0  0  0  0  0  0  0  0  0
   14.5049   -6.7884  -11.4704 N   0  0  0  0  0  0  0  0  0  0  0  0
   15.6129   -5.8673  -11.3492 C   0  0  1  0  0  0  0  0  0  0  0  0
   16.0687   -5.3266  -12.6820 C   0  0  0  0  0  0  0  0  0  0  0  0
   17.1254   -4.3084  -12.4468 C   0  0  0  0  0  0  0  0  0  0  0  0
   18.2056   -4.6378  -11.8394 O   0  0  0  0  0  0  0  0  0  0  0  0
   15.4097   -4.8101  -10.3455 C   0  0  0  0  0  0  0  0  0  0  0  0
   14.2079   -4.1179  -10.3515 O   0  0  0  0  0  0  0  0  0  0  0  0
   17.0135   -2.9838  -12.8594 O   0  0  0  0  0  0  0  0  0  0  0  0
   16.3109   -4.5610   -9.5176 O   0  0  0  0  0  0  0  0  0  0  0  0
  2  1  1  0
  3  2  2  0
  4  2  1  0
  5  4  1  0
  6  5  1  0
  6  7  1  6
  8  6  1  0
  8 10  1  0
  9  8  2  0
 11 10  1  0
 11 12  1  1
 13 14  1  0
 13 12  1  0
 15 14  1  0
 16 15  1  0
 17 11  1  0
 18 17  2  0
 19 17  1  0
 20 24  1  0
 20 19  1  0
 21 22  1  0
 20 21  1  6
 22 26  1  0
 23 22  2  0
 24 25  1  0
 27 24  2  0
M  END
$$$$
