QKD.pdb
     RDKit          3D

 27 26  0  0  1  0  0  0  0  0999 V2000
   22.3409   -8.1239  -14.4314 N   0  0  0  0  0  0  0  0  0  0  0  0
   22.3125   -9.5506  -14.5080 C   0  0  0  0  0  0  0  0  0  0  0  0
   23.3994  -10.1389  -14.6925 O   0  0  0  0  0  0  0  0  0  0  0  0
   21.0554  -10.3103  -14.3778 C   0  0  0  0  0  0  0  0  0  0  0  0
   19.9159   -9.3372  -14.2027 C   0  0  0  0  0  0  0  0  0  0  0  0
   18.6099  -10.0425  -13.9656 C   0  0  2  0  0  0  0  0  0  0  0  0
   18.2208  -10.8778  -15.0793 N   0  0  0  0  0  0  0  0  0  0  0  0
   17.5735   -8.9817  -13.6937 C   0  0  0  0  0  0  0  0  0  0  0  0
   16.8499   -8.6118  -14.6368 O   0  0  0  0  0  0  0  0  0  0  0  0
   17.5137   -8.4944  -12.3725 N   0  0  0  0  0  0  0  0  0  0  0  0
   16.5207   -7.4432  -12.0518 C   0  0  1  0  0  0  0  0  0  0  0  0
   15.9310   -7.8253  -10.7510 C   0  0  0  0  0  0  0  0  0  0  0  0
   14.9328   -6.9040  -10.1382 C   0  0  0  0  0  0  0  0  0  0  0  0
   14.3583   -7.4385   -8.8455 C   0  0  0  0  0  0  0  0  0  0  0  0
   13.2512   -6.5778   -8.2967 C   0  0  0  0  0  0  0  0  0  0  0  0
   12.5883   -7.1062   -7.1470 N   0  0  0  0  0  0  0  0  0  0  0  0
   17.2228   -6.1482  -12.1206 C   0  0  0  0  0  0  0  0  0  0  0  0
   18.2666   -5.9493  -11.4069 O   0  0  0  0  0  0  0  0  0  0  0  0
   16.7959   -5.0889  -12.9583 N   0  0  0  0  0  0  0  0  0  0  0  0
   17.4942   -3.8242  -12.8970 C   0  0  1  0  0  0  0  0  0  0  0  0
   18.4321   -3.6203  -14.0611 C   0  0  0  0  0  0  0  0  0  0  0  0
   19.8208   -3.8922  -13.6073 C   0  0  0  0  0  0  0  0  0  0  0  0
   20.0520   -4.1364  -12.3699 O   0  0  0  0  0  0  0  0  0  0  0  0
   16.6192   -2.6644  -12.6611 C   0  0  0  0  0  0  0  0  0  0  0  0
   15.2462   -2.8591  -12.6843 O   0  0  0  0  0  0  0  0  0  0  0  0
   20.9158   -3.9020  -14.4666 O   0  0  0  0  0  0  0  0  0  0  0  0
   17.1232   -1.5423  -12.4460 O   0  0  0  0  0  0  0  0  0  0  0  0
  2  1  1  0
  3  2  2  0
  4  2  1  0
  5  4  1  0
  6  5  1  0
  6  7  1  6
  8  6  1  0
  8 10  1  0
  9  8  2  0
 11 10  1  0
 11 12  1  1
 13 14  1  0
 13 12  1  0
 15 14  1  0
 16 15  1  0
 17 11  1  0
 18 17  2  0
 19 17  1  0
 20 24  1  0
 20 19  1  0
 21 22  1  0
 20 21  1  6
 22 26  1  0
 23 22  2  0
 24 25  1  0
 27 24  2  0
M  END
$$$$
