QKD.pdb
     RDKit          3D

 27 26  0  0  1  0  0  0  0  0999 V2000
   23.9566  -23.0885  -15.8465 N   0  0  0  0  0  0  0  0  0  0  0  0
   24.4739  -24.2196  -15.1428 C   0  0  0  0  0  0  0  0  0  0  0  0
   25.0123  -25.1217  -15.8195 O   0  0  0  0  0  0  0  0  0  0  0  0
   24.3803  -24.3305  -13.6753 C   0  0  0  0  0  0  0  0  0  0  0  0
   23.7308  -23.0807  -13.1345 C   0  0  0  0  0  0  0  0  0  0  0  0
   24.6388  -21.8877  -13.2417 C   0  0  2  0  0  0  0  0  0  0  0  0
   25.5320  -21.7675  -12.1117 N   0  0  0  0  0  0  0  0  0  0  0  0
   23.7601  -20.6693  -13.3719 C   0  0  0  0  0  0  0  0  0  0  0  0
   23.2170  -20.2240  -12.3440 O   0  0  0  0  0  0  0  0  0  0  0  0
   23.6295  -20.1321  -14.6685 N   0  0  0  0  0  0  0  0  0  0  0  0
   22.8115  -18.9103  -14.8474 C   0  0  1  0  0  0  0  0  0  0  0  0
   23.4412  -18.1588  -15.9540 C   0  0  0  0  0  0  0  0  0  0  0  0
   22.8336  -16.8569  -16.3498 C   0  0  0  0  0  0  0  0  0  0  0  0
   23.5084  -16.2371  -17.5529 C   0  0  0  0  0  0  0  0  0  0  0  0
   22.9642  -14.8745  -17.8920 C   0  0  0  0  0  0  0  0  0  0  0  0
   23.6024  -14.2258  -18.9932 N   0  0  0  0  0  0  0  0  0  0  0  0
   21.4157  -19.3470  -15.0362 C   0  0  0  0  0  0  0  0  0  0  0  0
   21.1692  -20.5130  -15.5034 O   0  0  0  0  0  0  0  0  0  0  0  0
   20.3063  -18.5268  -14.7159 N   0  0  0  0  0  0  0  0  0  0  0  0
   18.9799  -19.1017  -14.7458 C   0  0  1  0  0  0  0  0  0  0  0  0
   18.6852  -19.9486  -13.5324 C   0  0  0  0  0  0  0  0  0  0  0  0
   18.5103  -21.3589  -13.9669 C   0  0  0  0  0  0  0  0  0  0  0  0
   18.5594  -21.6537  -15.2139 O   0  0  0  0  0  0  0  0  0  0  0  0
   17.9106  -18.1331  -15.0371 C   0  0  0  0  0  0  0  0  0  0  0  0
   17.7219  -17.7355  -16.3523 O   0  0  0  0  0  0  0  0  0  0  0  0
   18.2940  -22.4091  -13.0794 O   0  0  0  0  0  0  0  0  0  0  0  0
   17.2021  -17.6948  -14.1069 O   0  0  0  0  0  0  0  0  0  0  0  0
  2  1  1  0
  3  2  2  0
  4  2  1  0
  5  4  1  0
  6  5  1  0
  6  7  1  1
  8  6  1  0
  8 10  1  0
  9  8  2  0
 11 10  1  0
 11 12  1  6
 13 14  1  0
 13 12  1  0
 15 14  1  0
 16 15  1  0
 17 11  1  0
 18 17  2  0
 19 17  1  0
 20 24  1  0
 20 19  1  0
 21 22  1  0
 20 21  1  1
 22 26  1  0
 23 22  2  0
 24 25  1  0
 27 24  2  0
M  END
$$$$
