QKD.pdb
     RDKit          3D

 27 26  0  0  1  0  0  0  0  0999 V2000
   26.1051  -21.5240  -10.2916 N   0  0  0  0  0  0  0  0  0  0  0  0
   27.4021  -21.1130  -10.7288 C   0  0  0  0  0  0  0  0  0  0  0  0
   28.3901  -21.6154  -10.1517 O   0  0  0  0  0  0  0  0  0  0  0  0
   27.5806  -20.1333  -11.8163 C   0  0  0  0  0  0  0  0  0  0  0  0
   26.2234  -19.6396  -12.2527 C   0  0  0  0  0  0  0  0  0  0  0  0
   25.4298  -20.7174  -12.9366 C   0  0  2  0  0  0  0  0  0  0  0  0
   26.2666  -21.6458  -13.6628 N   0  0  0  0  0  0  0  0  0  0  0  0
   24.4506  -20.0339  -13.8570 C   0  0  0  0  0  0  0  0  0  0  0  0
   23.8070  -19.0643  -13.4150 O   0  0  0  0  0  0  0  0  0  0  0  0
   24.3491  -20.5617  -15.1601 N   0  0  0  0  0  0  0  0  0  0  0  0
   23.4008  -19.9295  -16.1061 C   0  0  1  0  0  0  0  0  0  0  0  0
   23.9891  -20.1082  -17.4506 C   0  0  0  0  0  0  0  0  0  0  0  0
   23.1871  -19.6721  -18.6285 C   0  0  0  0  0  0  0  0  0  0  0  0
   23.9296  -18.6971  -19.5144 C   0  0  0  0  0  0  0  0  0  0  0  0
   23.1042  -18.2195  -20.6799 C   0  0  0  0  0  0  0  0  0  0  0  0
   23.7216  -17.2149  -21.4863 N   0  0  0  0  0  0  0  0  0  0  0  0
   22.0778  -20.5335  -15.8623 C   0  0  0  0  0  0  0  0  0  0  0  0
   21.9946  -21.7347  -15.4278 O   0  0  0  0  0  0  0  0  0  0  0  0
   20.8648  -19.8366  -16.0842 N   0  0  0  0  0  0  0  0  0  0  0  0
   19.6771  -20.2570  -15.3748 C   0  0  1  0  0  0  0  0  0  0  0  0
   19.8360  -20.1793  -13.8764 C   0  0  0  0  0  0  0  0  0  0  0  0
   18.5568  -20.5879  -13.2399 C   0  0  0  0  0  0  0  0  0  0  0  0
   17.6736  -19.7027  -12.9557 O   0  0  0  0  0  0  0  0  0  0  0  0
   18.4365  -19.6226  -15.8492 C   0  0  0  0  0  0  0  0  0  0  0  0
   17.3191  -20.4216  -16.0404 O   0  0  0  0  0  0  0  0  0  0  0  0
   18.2480  -21.9087  -12.9278 O   0  0  0  0  0  0  0  0  0  0  0  0
   18.4138  -18.3930  -16.0662 O   0  0  0  0  0  0  0  0  0  0  0  0
  2  1  1  0
  3  2  2  0
  4  2  1  0
  5  4  1  0
  6  5  1  0
  6  7  1  6
  8  6  1  0
  8 10  1  0
  9  8  2  0
 11 10  1  0
 11 12  1  6
 13 14  1  0
 13 12  1  0
 15 14  1  0
 16 15  1  0
 17 11  1  0
 18 17  2  0
 19 17  1  0
 20 24  1  0
 20 19  1  0
 21 22  1  0
 20 21  1  1
 22 26  1  0
 23 22  2  0
 24 25  1  0
 27 24  2  0
M  END
$$$$
