QKD.pdb
     RDKit          3D

 27 26  0  0  1  0  0  0  0  0999 V2000
   27.7408  -19.2847  -16.3191 N   0  0  0  0  0  0  0  0  0  0  0  0
   28.0126  -20.3972  -15.4642 C   0  0  0  0  0  0  0  0  0  0  0  0
   29.1848  -20.8290  -15.4365 O   0  0  0  0  0  0  0  0  0  0  0  0
   26.9585  -21.0213  -14.6432 C   0  0  0  0  0  0  0  0  0  0  0  0
   25.7533  -20.1140  -14.6289 C   0  0  0  0  0  0  0  0  0  0  0  0
   24.5960  -20.7334  -13.8966 C   0  0  2  0  0  0  0  0  0  0  0  0
   24.7768  -22.1496  -13.6709 N   0  0  0  0  0  0  0  0  0  0  0  0
   23.3574  -20.4672  -14.7142 C   0  0  0  0  0  0  0  0  0  0  0  0
   23.3883  -20.7307  -15.9305 O   0  0  0  0  0  0  0  0  0  0  0  0
   22.2542  -19.9349  -14.0168 N   0  0  0  0  0  0  0  0  0  0  0  0
   20.9826  -19.7391  -14.7508 C   0  0  1  0  0  0  0  0  0  0  0  0
   19.9843  -20.5885  -14.0669 C   0  0  0  0  0  0  0  0  0  0  0  0
   18.5568  -20.4553  -14.4734 C   0  0  0  0  0  0  0  0  0  0  0  0
   18.0206  -21.6989  -15.1463 C   0  0  0  0  0  0  0  0  0  0  0  0
   16.5855  -21.5574  -15.5799 C   0  0  0  0  0  0  0  0  0  0  0  0
   16.0787  -22.6443  -16.3560 N   0  0  0  0  0  0  0  0  0  0  0  0
   20.7225  -18.2880  -14.7879 C   0  0  0  0  0  0  0  0  0  0  0  0
   20.8299  -17.5926  -13.7185 O   0  0  0  0  0  0  0  0  0  0  0  0
   20.3558  -17.6054  -15.9735 N   0  0  0  0  0  0  0  0  0  0  0  0
   19.9980  -16.2068  -15.8929 C   0  0  1  0  0  0  0  0  0  0  0  0
   20.3931  -15.4330  -17.1264 C   0  0  0  0  0  0  0  0  0  0  0  0
   19.9442  -14.0250  -16.9695 C   0  0  0  0  0  0  0  0  0  0  0  0
   20.3309  -13.3406  -15.9564 O   0  0  0  0  0  0  0  0  0  0  0  0
   18.6026  -15.9646  -15.4918 C   0  0  0  0  0  0  0  0  0  0  0  0
   17.6068  -16.7367  -16.0713 O   0  0  0  0  0  0  0  0  0  0  0  0
   19.1100  -13.3844  -17.8812 O   0  0  0  0  0  0  0  0  0  0  0  0
   18.3456  -15.0812  -14.6474 O   0  0  0  0  0  0  0  0  0  0  0  0
  2  1  1  0
  3  2  2  0
  4  2  1  0
  5  4  1  0
  6  5  1  0
  6  7  1  6
  8  6  1  0
  8 10  1  0
  9  8  2  0
 11 10  1  0
 11 12  1  1
 13 14  1  0
 13 12  1  0
 15 14  1  0
 16 15  1  0
 17 11  1  0
 18 17  2  0
 19 17  1  0
 20 24  1  0
 20 19  1  0
 21 22  1  0
 20 21  1  6
 22 26  1  0
 23 22  2  0
 24 25  1  0
 27 24  2  0
M  END
$$$$
