QKD.pdb
     RDKit          3D

 27 26  0  0  1  0  0  0  0  0999 V2000
   19.6200  -10.1813  -14.2855 N   0  0  0  0  0  0  0  0  0  0  0  0
   18.8588  -10.6075  -15.4174 C   0  0  0  0  0  0  0  0  0  0  0  0
   19.4312  -11.3385  -16.2538 O   0  0  0  0  0  0  0  0  0  0  0  0
   17.4523  -10.2056  -15.6033 C   0  0  0  0  0  0  0  0  0  0  0  0
   17.0412   -9.3283  -14.4468 C   0  0  0  0  0  0  0  0  0  0  0  0
   16.3127  -10.1058  -13.3867 C   0  0  2  0  0  0  0  0  0  0  0  0
   15.8243  -11.3778  -13.8693 N   0  0  0  0  0  0  0  0  0  0  0  0
   15.1801   -9.2391  -12.8975 C   0  0  0  0  0  0  0  0  0  0  0  0
   14.3526   -8.8273  -13.7315 O   0  0  0  0  0  0  0  0  0  0  0  0
   15.1571   -8.9674  -11.5145 N   0  0  0  0  0  0  0  0  0  0  0  0
   14.0441   -8.1538  -10.9732 C   0  0  1  0  0  0  0  0  0  0  0  0
   13.2383   -9.0715  -10.1400 C   0  0  0  0  0  0  0  0  0  0  0  0
   12.1132   -8.4944   -9.3514 C   0  0  0  0  0  0  0  0  0  0  0  0
   11.2380   -9.5527   -8.7183 C   0  0  0  0  0  0  0  0  0  0  0  0
   10.1007   -8.9714   -7.9206 C   0  0  0  0  0  0  0  0  0  0  0  0
    9.2425   -9.9321   -7.3033 N   0  0  0  0  0  0  0  0  0  0  0  0
   14.6466   -6.9865  -10.3029 C   0  0  0  0  0  0  0  0  0  0  0  0
   15.6125   -7.1516   -9.4792 O   0  0  0  0  0  0  0  0  0  0  0  0
   14.2057   -5.6600  -10.5311 N   0  0  0  0  0  0  0  0  0  0  0  0
   14.8262   -4.5808   -9.7955 C   0  0  1  0  0  0  0  0  0  0  0  0
   14.9647   -3.3219  -10.6155 C   0  0  0  0  0  0  0  0  0  0  0  0
   15.5376   -2.2539   -9.7555 C   0  0  0  0  0  0  0  0  0  0  0  0
   15.9272   -2.5322   -8.5659 O   0  0  0  0  0  0  0  0  0  0  0  0
   14.2319   -4.3351   -8.4715 C   0  0  0  0  0  0  0  0  0  0  0  0
   15.0611   -3.9046   -7.4465 O   0  0  0  0  0  0  0  0  0  0  0  0
   15.6849   -0.9346  -10.1741 O   0  0  0  0  0  0  0  0  0  0  0  0
   13.0082   -4.5153   -8.2992 O   0  0  0  0  0  0  0  0  0  0  0  0
  2  1  1  0
  3  2  2  0
  4  2  1  0
  5  4  1  0
  6  5  1  0
  6  7  1  6
  8  6  1  0
  8 10  1  0
  9  8  2  0
 11 10  1  0
 11 12  1  1
 13 14  1  0
 13 12  1  0
 15 14  1  0
 16 15  1  0
 17 11  1  0
 18 17  2  0
 19 17  1  0
 20 24  1  0
 20 19  1  0
 21 22  1  0
 20 21  1  6
 22 26  1  0
 23 22  2  0
 24 25  1  0
 27 24  2  0
M  END
$$$$
