QKD.pdb
     RDKit          3D

 27 26  0  0  1  0  0  0  0  0999 V2000
   27.1745  -16.2034  -15.8185 N   0  0  0  0  0  0  0  0  0  0  0  0
   26.9447  -17.0656  -16.9348 C   0  0  0  0  0  0  0  0  0  0  0  0
   26.5979  -16.5338  -18.0111 O   0  0  0  0  0  0  0  0  0  0  0  0
   27.1057  -18.5278  -16.8326 C   0  0  0  0  0  0  0  0  0  0  0  0
   27.5934  -18.8668  -15.4458 C   0  0  0  0  0  0  0  0  0  0  0  0
   27.8050  -20.3449  -15.2734 C   0  0  2  0  0  0  0  0  0  0  0  0
   28.2291  -20.9904  -16.4952 N   0  0  0  0  0  0  0  0  0  0  0  0
   26.5061  -20.9258  -14.7745 C   0  0  0  0  0  0  0  0  0  0  0  0
   25.9922  -21.8572  -15.4212 O   0  0  0  0  0  0  0  0  0  0  0  0
   25.9795  -20.3536  -13.5989 N   0  0  0  0  0  0  0  0  0  0  0  0
   24.7507  -20.9411  -13.0168 C   0  0  1  0  0  0  0  0  0  0  0  0
   24.8509  -20.7276  -11.5573 C   0  0  0  0  0  0  0  0  0  0  0  0
   23.7336  -21.2163  -10.7007 C   0  0  0  0  0  0  0  0  0  0  0  0
   23.9348  -20.8965   -9.2365 C   0  0  0  0  0  0  0  0  0  0  0  0
   22.7956  -21.3687   -8.3722 C   0  0  0  0  0  0  0  0  0  0  0  0
   22.9581  -21.1283   -6.9736 N   0  0  0  0  0  0  0  0  0  0  0  0
   23.6048  -20.3262  -13.7121 C   0  0  0  0  0  0  0  0  0  0  0  0
   23.6208  -19.0760  -13.9867 O   0  0  0  0  0  0  0  0  0  0  0  0
   22.4618  -21.0641  -14.1058 N   0  0  0  0  0  0  0  0  0  0  0  0
   21.3488  -20.3622  -14.7054 C   0  0  1  0  0  0  0  0  0  0  0  0
   20.7324  -21.1219  -15.8540 C   0  0  0  0  0  0  0  0  0  0  0  0
   21.6734  -21.0929  -17.0038 C   0  0  0  0  0  0  0  0  0  0  0  0
   22.7871  -20.4654  -16.9019 O   0  0  0  0  0  0  0  0  0  0  0  0
   20.3483  -19.8826  -13.7381 C   0  0  0  0  0  0  0  0  0  0  0  0
   19.3036  -19.0988  -14.2045 O   0  0  0  0  0  0  0  0  0  0  0  0
   21.4153  -21.7250  -18.2167 O   0  0  0  0  0  0  0  0  0  0  0  0
   20.4572  -20.1879  -12.5321 O   0  0  0  0  0  0  0  0  0  0  0  0
  2  1  1  0
  3  2  2  0
  4  2  1  0
  5  4  1  0
  6  5  1  0
  6  7  1  6
  8  6  1  0
  8 10  1  0
  9  8  2  0
 11 10  1  0
 11 12  1  1
 13 14  1  0
 13 12  1  0
 15 14  1  0
 16 15  1  0
 17 11  1  0
 18 17  2  0
 19 17  1  0
 20 24  1  0
 20 19  1  0
 21 22  1  0
 20 21  1  6
 22 26  1  0
 23 22  2  0
 24 25  1  0
 27 24  2  0
M  END
$$$$
