QKD.pdb
     RDKit          3D

 27 26  0  0  1  0  0  0  0  0999 V2000
   27.7708  -10.9160  -15.5049 N   0  0  0  0  0  0  0  0  0  0  0  0
   26.5901  -11.6848  -15.7441 C   0  0  0  0  0  0  0  0  0  0  0  0
   26.7355  -12.9006  -15.9932 O   0  0  0  0  0  0  0  0  0  0  0  0
   25.2468  -11.0780  -15.7029 C   0  0  0  0  0  0  0  0  0  0  0  0
   25.3883   -9.6046  -15.4109 C   0  0  0  0  0  0  0  0  0  0  0  0
   24.1414   -9.0345  -14.7950 C   0  0  2  0  0  0  0  0  0  0  0  0
   23.4085  -10.0114  -14.0217 N   0  0  0  0  0  0  0  0  0  0  0  0
   23.2985   -8.4883  -15.9195 C   0  0  0  0  0  0  0  0  0  0  0  0
   23.6548   -8.7238  -17.0888 O   0  0  0  0  0  0  0  0  0  0  0  0
   22.1611   -7.7467  -15.5409 N   0  0  0  0  0  0  0  0  0  0  0  0
   21.2506   -7.2592  -16.6026 C   0  0  1  0  0  0  0  0  0  0  0  0
   20.2591   -8.3356  -16.8127 C   0  0  0  0  0  0  0  0  0  0  0  0
   19.6020   -8.4305  -18.1469 C   0  0  0  0  0  0  0  0  0  0  0  0
   18.1228   -8.1206  -18.0949 C   0  0  0  0  0  0  0  0  0  0  0  0
   17.4549   -8.2263  -19.4404 C   0  0  0  0  0  0  0  0  0  0  0  0
   16.0523   -7.9559  -19.4417 N   0  0  0  0  0  0  0  0  0  0  0  0
   20.7397   -5.9464  -16.1663 C   0  0  0  0  0  0  0  0  0  0  0  0
   20.4978   -5.7352  -14.9272 O   0  0  0  0  0  0  0  0  0  0  0  0
   20.5011   -4.8795  -17.0668 N   0  0  0  0  0  0  0  0  0  0  0  0
   19.9322   -3.6507  -16.5597 C   0  0  1  0  0  0  0  0  0  0  0  0
   20.3726   -2.4387  -17.3431 C   0  0  0  0  0  0  0  0  0  0  0  0
   19.7709   -1.2281  -16.7259 C   0  0  0  0  0  0  0  0  0  0  0  0
   20.4350   -0.5563  -15.8588 O   0  0  0  0  0  0  0  0  0  0  0  0
   18.4749   -3.6999  -16.3591 C   0  0  0  0  0  0  0  0  0  0  0  0
   17.9537   -3.1830  -15.1824 O   0  0  0  0  0  0  0  0  0  0  0  0
   18.4975   -0.7636  -17.0422 O   0  0  0  0  0  0  0  0  0  0  0  0
   17.7451   -4.1985  -17.2414 O   0  0  0  0  0  0  0  0  0  0  0  0
  2  1  1  0
  3  2  2  0
  4  2  1  0
  5  4  1  0
  6  5  1  0
  6  7  1  6
  8  6  1  0
  8 10  1  0
  9  8  2  0
 11 10  1  0
 11 12  1  1
 13 14  1  0
 13 12  1  0
 15 14  1  0
 16 15  1  0
 17 11  1  0
 18 17  2  0
 19 17  1  0
 20 24  1  0
 20 19  1  0
 21 22  1  0
 20 21  1  6
 22 26  1  0
 23 22  2  0
 24 25  1  0
 27 24  2  0
M  END
$$$$
