NME.pdb
     RDKit          3D

 26 25  0  0  1  0  0  0  0  0999 V2000
    7.6219  -16.3453   17.7544 N   0  0  0  0  0  0  0  0  0  0  0  0
    7.9180  -14.9512   17.9473 C   0  0  0  0  0  0  0  0  0  0  0  0
    7.9271  -14.1985   16.9537 O   0  0  0  0  0  0  0  0  0  0  0  0
    8.1930  -14.5090   19.3246 C   0  0  0  0  0  0  0  0  0  0  0  0
    8.1440  -15.5744   20.3523 C   0  0  2  0  0  0  0  0  0  0  0  0
    6.7129  -15.9300   20.5087 N   0  0  0  0  0  0  0  0  0  0  0  0
    8.6324  -15.2398   21.6873 C   0  0  0  0  0  0  0  0  0  0  0  0
    9.8383  -14.9860   21.8716 O   0  0  0  0  0  0  0  0  0  0  0  0
    6.8114  -11.1162   27.2174 C   0  0  0  0  0  0  0  0  0  0  0  0
    5.8837  -12.2212   26.1259 S   0  0  0  0  0  0  0  0  0  0  0  0
    6.9137  -12.9610   24.8622 C   0  0  0  0  0  0  0  0  0  0  0  0
    7.1997  -14.4219   25.0871 C   0  0  0  0  0  0  0  0  0  0  0  0
    8.2420  -14.9599   24.1702 C   0  0  2  0  0  0  0  0  0  0  0  0
    7.7486  -15.1936   22.8264 N   0  0  0  0  0  0  0  0  0  0  0  0
    8.6844  -16.2793   24.6987 C   0  0  0  0  0  0  0  0  0  0  0  0
    7.8925  -17.2723   24.7166 O   0  0  0  0  0  0  0  0  0  0  0  0
   10.0071  -16.4229   25.1856 N   0  0  0  0  0  0  0  0  0  0  0  0
   10.4468  -17.7193   25.6419 C   0  0  1  0  0  0  0  0  0  0  0  0
   11.6969  -18.1737   24.9199 C   0  0  0  0  0  0  0  0  0  0  0  0
   12.8912  -17.3144   25.2487 C   0  0  0  0  0  0  0  0  0  0  0  0
   13.6955  -17.0471   24.0416 C   0  0  0  0  0  0  0  0  0  0  0  0
   14.6817  -16.2898   24.1008 O   0  0  0  0  0  0  0  0  0  0  0  0
   10.6221  -17.6699   27.1005 C   0  0  0  0  0  0  0  0  0  0  0  0
   10.9656  -18.8131   27.7955 O   0  0  0  0  0  0  0  0  0  0  0  0
   13.3588  -17.6345   22.8435 O   0  0  0  0  0  0  0  0  0  0  0  0
   10.4708  -16.6155   27.7557 O   0  0  0  0  0  0  0  0  0  0  0  0
  2  1  1  0
  3  2  2  0
  4  2  1  0
  5  4  1  0
  5  6  1  1
  7  5  1  0
  7  8  2  0
  9 10  1  0
 11 12  1  0
 11 10  1  0
 13 14  1  0
 13 12  1  1
 14  7  1  0
 15 13  1  0
 16 15  2  0
 17 15  1  0
 18 17  1  0
 19 20  1  0
 18 19  1  6
 20 21  1  0
 21 25  1  0
 21 22  2  0
 23 18  1  0
 23 24  1  0
 26 23  2  0
M  END
$$$$
