NME.pdb
     RDKit          3D

 26 25  0  0  1  0  0  0  0  0999 V2000
    7.3698  -16.6655   17.0523 N   0  0  0  0  0  0  0  0  0  0  0  0
    8.6263  -16.9728   17.6809 C   0  0  0  0  0  0  0  0  0  0  0  0
    9.3024  -17.9205   17.2351 O   0  0  0  0  0  0  0  0  0  0  0  0
    9.0274  -16.1334   18.8223 C   0  0  0  0  0  0  0  0  0  0  0  0
    8.8978  -16.7713   20.1526 C   0  0  2  0  0  0  0  0  0  0  0  0
    7.4590  -17.0900   20.3178 N   0  0  0  0  0  0  0  0  0  0  0  0
    9.2785  -15.9757   21.3165 C   0  0  0  0  0  0  0  0  0  0  0  0
   10.4548  -15.5897   21.4583 O   0  0  0  0  0  0  0  0  0  0  0  0
    7.1062  -11.7015   27.6891 C   0  0  0  0  0  0  0  0  0  0  0  0
    6.5589  -12.7605   26.3282 S   0  0  0  0  0  0  0  0  0  0  0  0
    7.9202  -13.5928   25.5163 C   0  0  0  0  0  0  0  0  0  0  0  0
    7.5378  -14.2735   24.2290 C   0  0  0  0  0  0  0  0  0  0  0  0
    8.7018  -14.8670   23.5151 C   0  0  2  0  0  0  0  0  0  0  0  0
    8.3199  -15.6141   22.3320 N   0  0  0  0  0  0  0  0  0  0  0  0
    9.3636  -15.8321   24.4352 C   0  0  0  0  0  0  0  0  0  0  0  0
    8.7671  -16.8894   24.8088 O   0  0  0  0  0  0  0  0  0  0  0  0
   10.6760  -15.5622   24.8956 N   0  0  0  0  0  0  0  0  0  0  0  0
   11.5168  -16.6649   25.2950 C   0  0  1  0  0  0  0  0  0  0  0  0
   12.9617  -16.4378   24.9062 C   0  0  0  0  0  0  0  0  0  0  0  0
   13.8790  -17.4902   25.4752 C   0  0  0  0  0  0  0  0  0  0  0  0
   15.2744  -17.2518   25.0610 C   0  0  0  0  0  0  0  0  0  0  0  0
   16.1743  -18.0387   25.4083 O   0  0  0  0  0  0  0  0  0  0  0  0
   11.3474  -16.8867   26.7382 C   0  0  0  0  0  0  0  0  0  0  0  0
   11.0201  -15.8313   27.5671 O   0  0  0  0  0  0  0  0  0  0  0  0
   15.5878  -16.1572   24.2881 O   0  0  0  0  0  0  0  0  0  0  0  0
   11.4896  -18.0135   27.2616 O   0  0  0  0  0  0  0  0  0  0  0  0
  2  1  1  0
  3  2  2  0
  4  2  1  0
  5  4  1  0
  5  6  1  1
  7  5  1  0
  7  8  2  0
  9 10  1  0
 11 12  1  0
 11 10  1  0
 13 14  1  0
 13 12  1  1
 14  7  1  0
 15 13  1  0
 16 15  2  0
 17 15  1  0
 18 17  1  0
 19 20  1  0
 18 19  1  1
 20 21  1  0
 21 25  1  0
 21 22  2  0
 23 18  1  0
 23 24  1  0
 26 23  2  0
M  END
$$$$
