NME.pdb
     RDKit          3D

 26 25  0  0  1  0  0  0  0  0999 V2000
    7.9891  -15.5487   17.3406 N   0  0  0  0  0  0  0  0  0  0  0  0
    8.0344  -14.1395   17.6246 C   0  0  0  0  0  0  0  0  0  0  0  0
    7.8904  -13.3346   16.6837 O   0  0  0  0  0  0  0  0  0  0  0  0
    8.2515  -13.7453   19.0267 C   0  0  0  0  0  0  0  0  0  0  0  0
    8.4113  -14.8665   19.9811 C   0  0  2  0  0  0  0  0  0  0  0  0
    7.0933  -15.5430   20.0460 N   0  0  0  0  0  0  0  0  0  0  0  0
    8.7681  -14.5292   21.3564 C   0  0  0  0  0  0  0  0  0  0  0  0
    9.8204  -13.9079   21.6000 O   0  0  0  0  0  0  0  0  0  0  0  0
    6.8852  -10.8590   26.6307 C   0  0  0  0  0  0  0  0  0  0  0  0
    6.3718  -12.5833   26.8220 S   0  0  0  0  0  0  0  0  0  0  0  0
    7.5131  -13.7283   26.0529 C   0  0  0  0  0  0  0  0  0  0  0  0
    7.1289  -14.1230   24.6518 C   0  0  0  0  0  0  0  0  0  0  0  0
    8.2866  -14.5867   23.8385 C   0  0  2  0  0  0  0  0  0  0  0  0
    7.9274  -14.8998   22.4685 N   0  0  0  0  0  0  0  0  0  0  0  0
    8.8007  -15.8455   24.4441 C   0  0  0  0  0  0  0  0  0  0  0  0
    8.0747  -16.8864   24.4975 O   0  0  0  0  0  0  0  0  0  0  0  0
   10.1179  -15.8766   24.9650 N   0  0  0  0  0  0  0  0  0  0  0  0
   10.6843  -17.1445   25.3574 C   0  0  1  0  0  0  0  0  0  0  0  0
   12.1846  -17.1735   25.1603 C   0  0  0  0  0  0  0  0  0  0  0  0
   12.5957  -16.6228   23.8186 C   0  0  0  0  0  0  0  0  0  0  0  0
   14.0646  -16.5984   23.6874 C   0  0  0  0  0  0  0  0  0  0  0  0
   14.7452  -15.8409   24.4035 O   0  0  0  0  0  0  0  0  0  0  0  0
   10.2904  -17.4262   26.7453 C   0  0  0  0  0  0  0  0  0  0  0  0
    9.5917  -16.4817   27.4718 O   0  0  0  0  0  0  0  0  0  0  0  0
   14.6897  -17.4136   22.7717 O   0  0  0  0  0  0  0  0  0  0  0  0
   10.5656  -18.5070   27.3110 O   0  0  0  0  0  0  0  0  0  0  0  0
  2  1  1  0
  3  2  2  0
  4  2  1  0
  5  4  1  0
  5  6  1  1
  7  5  1  0
  7  8  2  0
  9 10  1  0
 11 12  1  0
 11 10  1  0
 13 14  1  0
 13 12  1  1
 14  7  1  0
 15 13  1  0
 16 15  2  0
 17 15  1  0
 18 17  1  0
 19 20  1  0
 18 19  1  1
 20 21  1  0
 21 25  1  0
 21 22  2  0
 23 18  1  0
 23 24  1  0
 26 23  2  0
M  END
$$$$
