NME.pdb
     RDKit          3D

 26 25  0  0  1  0  0  0  0  0999 V2000
    6.6302  -14.1028   17.1459 N   0  0  0  0  0  0  0  0  0  0  0  0
    7.5162  -15.1802   17.4956 C   0  0  0  0  0  0  0  0  0  0  0  0
    7.6510  -16.1274   16.6965 O   0  0  0  0  0  0  0  0  0  0  0  0
    8.2091  -15.0841   18.7914 C   0  0  0  0  0  0  0  0  0  0  0  0
    7.7534  -13.9839   19.6718 C   0  0  2  0  0  0  0  0  0  0  0  0
    8.2097  -12.7273   19.0302 N   0  0  0  0  0  0  0  0  0  0  0  0
    8.2721  -13.9600   21.0367 C   0  0  0  0  0  0  0  0  0  0  0  0
    9.5002  -13.9201   21.2433 O   0  0  0  0  0  0  0  0  0  0  0  0
    7.2263  -11.8089   28.5614 C   0  0  0  0  0  0  0  0  0  0  0  0
    6.4328  -12.2177   26.9877 S   0  0  0  0  0  0  0  0  0  0  0  0
    7.5658  -12.9689   25.8228 C   0  0  0  0  0  0  0  0  0  0  0  0
    6.9476  -13.2803   24.4858 C   0  0  0  0  0  0  0  0  0  0  0  0
    7.9003  -13.9211   23.5379 C   0  0  2  0  0  0  0  0  0  0  0  0
    7.3933  -13.9834   22.1804 N   0  0  0  0  0  0  0  0  0  0  0  0
    8.1145  -15.3265   23.9793 C   0  0  0  0  0  0  0  0  0  0  0  0
    7.2117  -16.2050   23.8165 O   0  0  0  0  0  0  0  0  0  0  0  0
    9.3437  -15.6824   24.5872 N   0  0  0  0  0  0  0  0  0  0  0  0
    9.5518  -17.0514   24.9932 C   0  0  1  0  0  0  0  0  0  0  0  0
   10.6018  -17.7348   24.1440 C   0  0  0  0  0  0  0  0  0  0  0  0
   11.9275  -17.0184   24.1877 C   0  0  0  0  0  0  0  0  0  0  0  0
   12.7618  -17.3840   23.0276 C   0  0  0  0  0  0  0  0  0  0  0  0
   13.6158  -18.2840   23.1287 O   0  0  0  0  0  0  0  0  0  0  0  0
    9.8813  -17.0722   26.4256 C   0  0  0  0  0  0  0  0  0  0  0  0
   10.0547  -18.2771   27.0785 O   0  0  0  0  0  0  0  0  0  0  0  0
   12.5995  -16.7309   21.8272 O   0  0  0  0  0  0  0  0  0  0  0  0
   10.0146  -16.0246   27.0952 O   0  0  0  0  0  0  0  0  0  0  0  0
  2  1  1  0
  3  2  2  0
  4  2  1  0
  5  4  1  0
  5  6  1  6
  7  5  1  0
  7  8  2  0
  9 10  1  0
 11 12  1  0
 11 10  1  0
 13 14  1  0
 13 12  1  1
 14  7  1  0
 15 13  1  0
 16 15  2  0
 17 15  1  0
 18 17  1  0
 19 20  1  0
 18 19  1  6
 20 21  1  0
 21 25  1  0
 21 22  2  0
 23 18  1  0
 23 24  1  0
 26 23  2  0
M  END
$$$$
