NME.pdb
     RDKit          3D

 26 25  0  0  1  0  0  0  0  0999 V2000
   10.2730  -17.7130   17.6824 N   0  0  0  0  0  0  0  0  0  0  0  0
    9.4412  -16.6520   18.1832 C   0  0  0  0  0  0  0  0  0  0  0  0
    8.4556  -16.2951   17.5085 O   0  0  0  0  0  0  0  0  0  0  0  0
    9.8208  -16.0562   19.4752 C   0  0  0  0  0  0  0  0  0  0  0  0
    9.2059  -16.6855   20.6666 C   0  0  2  0  0  0  0  0  0  0  0  0
    7.7420  -16.6711   20.4304 N   0  0  0  0  0  0  0  0  0  0  0  0
    9.4206  -16.0321   21.9548 C   0  0  0  0  0  0  0  0  0  0  0  0
   10.5759  -15.7867   22.3520 O   0  0  0  0  0  0  0  0  0  0  0  0
    7.4940  -11.0040   26.2444 C   0  0  0  0  0  0  0  0  0  0  0  0
    6.5709  -12.5339   26.5277 S   0  0  0  0  0  0  0  0  0  0  0  0
    7.5231  -13.9948   26.1228 C   0  0  0  0  0  0  0  0  0  0  0  0
    7.3212  -14.4825   24.7128 C   0  0  0  0  0  0  0  0  0  0  0  0
    8.5230  -15.1592   24.1521 C   0  0  2  0  0  0  0  0  0  0  0  0
    8.3177  -15.6536   22.8041 N   0  0  0  0  0  0  0  0  0  0  0  0
    8.8229  -16.3445   25.0012 C   0  0  0  0  0  0  0  0  0  0  0  0
    7.9681  -17.2723   25.1496 O   0  0  0  0  0  0  0  0  0  0  0  0
   10.0799  -16.4332   25.6488 N   0  0  0  0  0  0  0  0  0  0  0  0
   10.4345  -17.6599   26.3210 C   0  0  1  0  0  0  0  0  0  0  0  0
   11.8178  -18.1338   25.9304 C   0  0  0  0  0  0  0  0  0  0  0  0
   12.2119  -19.4000   26.6473 C   0  0  0  0  0  0  0  0  0  0  0  0
   13.5871  -19.7989   26.2934 C   0  0  0  0  0  0  0  0  0  0  0  0
   13.7869  -20.8188   25.6081 O   0  0  0  0  0  0  0  0  0  0  0  0
   10.2934  -17.4596   27.7704 C   0  0  0  0  0  0  0  0  0  0  0  0
   10.0867  -18.5430   28.6019 O   0  0  0  0  0  0  0  0  0  0  0  0
   14.6563  -19.0446   26.7195 O   0  0  0  0  0  0  0  0  0  0  0  0
   10.3532  -16.3268   28.2967 O   0  0  0  0  0  0  0  0  0  0  0  0
  2  1  1  0
  3  2  2  0
  4  2  1  0
  5  4  1  0
  5  6  1  6
  7  5  1  0
  7  8  2  0
  9 10  1  0
 11 12  1  0
 11 10  1  0
 13 14  1  0
 13 12  1  1
 14  7  1  0
 15 13  1  0
 16 15  2  0
 17 15  1  0
 18 17  1  0
 19 20  1  0
 18 19  1  1
 20 21  1  0
 21 25  1  0
 21 22  2  0
 23 18  1  0
 23 24  1  0
 26 23  2  0
M  END
$$$$
