NME.pdb
     RDKit          3D

 26 25  0  0  1  0  0  0  0  0999 V2000
    6.0327  -17.7336   18.4753 N   0  0  0  0  0  0  0  0  0  0  0  0
    7.4637  -17.7245   18.3323 C   0  0  0  0  0  0  0  0  0  0  0  0
    7.9746  -18.3562   17.3868 O   0  0  0  0  0  0  0  0  0  0  0  0
    8.2317  -16.9588   19.3283 C   0  0  0  0  0  0  0  0  0  0  0  0
    7.4223  -16.2898   20.3727 C   0  0  2  0  0  0  0  0  0  0  0  0
    6.6647  -15.2178   19.6827 N   0  0  0  0  0  0  0  0  0  0  0  0
    8.1425  -15.6446   21.4671 C   0  0  0  0  0  0  0  0  0  0  0  0
    9.3560  -15.3845   21.3558 O   0  0  0  0  0  0  0  0  0  0  0  0
    5.9166  -11.2984   26.3705 C   0  0  0  0  0  0  0  0  0  0  0  0
    6.9229  -12.5956   27.1306 S   0  0  0  0  0  0  0  0  0  0  0  0
    7.9986  -13.4083   25.9526 C   0  0  0  0  0  0  0  0  0  0  0  0
    7.2763  -13.9821   24.7628 C   0  0  0  0  0  0  0  0  0  0  0  0
    8.1900  -14.6353   23.7854 C   0  0  2  0  0  0  0  0  0  0  0  0
    7.4844  -15.2914   22.7012 N   0  0  0  0  0  0  0  0  0  0  0  0
    8.9514  -15.6943   24.5028 C   0  0  0  0  0  0  0  0  0  0  0  0
    8.4101  -16.8085   24.7838 O   0  0  0  0  0  0  0  0  0  0  0  0
   10.2969  -15.4504   24.8732 N   0  0  0  0  0  0  0  0  0  0  0  0
   11.1588  -16.5731   25.1543 C   0  0  1  0  0  0  0  0  0  0  0  0
   12.5573  -16.3543   24.6187 C   0  0  0  0  0  0  0  0  0  0  0  0
   13.5055  -17.4512   25.0313 C   0  0  0  0  0  0  0  0  0  0  0  0
   14.8606  -17.2011   24.5052 C   0  0  0  0  0  0  0  0  0  0  0  0
   15.6707  -16.5188   25.1593 O   0  0  0  0  0  0  0  0  0  0  0  0
   11.1407  -16.8291   26.6016 C   0  0  0  0  0  0  0  0  0  0  0  0
   10.5343  -15.9291   27.4562 O   0  0  0  0  0  0  0  0  0  0  0  0
   15.2355  -17.7214   23.2876 O   0  0  0  0  0  0  0  0  0  0  0  0
   11.6616  -17.8480   27.1058 O   0  0  0  0  0  0  0  0  0  0  0  0
  2  1  1  0
  3  2  2  0
  4  2  1  0
  5  4  1  0
  5  6  1  6
  7  5  1  0
  7  8  2  0
  9 10  1  0
 11 12  1  0
 11 10  1  0
 13 14  1  0
 13 12  1  1
 14  7  1  0
 15 13  1  0
 16 15  2  0
 17 15  1  0
 18 17  1  0
 19 20  1  0
 18 19  1  1
 20 21  1  0
 21 25  1  0
 21 22  2  0
 23 18  1  0
 23 24  1  0
 26 23  2  0
M  END
$$$$
