NME.pdb
     RDKit          3D

 26 25  0  0  1  0  0  0  0  0999 V2000
    7.8764  -18.0719   17.7840 N   0  0  0  0  0  0  0  0  0  0  0  0
    8.3571  -16.7418   17.5231 C   0  0  0  0  0  0  0  0  0  0  0  0
    8.4622  -16.3650   16.3395 O   0  0  0  0  0  0  0  0  0  0  0  0
    8.6954  -15.9107   18.6907 C   0  0  0  0  0  0  0  0  0  0  0  0
    8.5694  -16.5840   20.0037 C   0  0  2  0  0  0  0  0  0  0  0  0
    7.1286  -16.8922   20.1717 N   0  0  0  0  0  0  0  0  0  0  0  0
    8.9677  -15.8251   21.1862 C   0  0  0  0  0  0  0  0  0  0  0  0
   10.1389  -15.4177   21.3083 O   0  0  0  0  0  0  0  0  0  0  0  0
    6.9452  -11.7368   27.7266 C   0  0  0  0  0  0  0  0  0  0  0  0
    6.3794  -12.6718   26.2848 S   0  0  0  0  0  0  0  0  0  0  0  0
    7.7183  -13.5097   25.4418 C   0  0  0  0  0  0  0  0  0  0  0  0
    7.3064  -14.1770   24.1566 C   0  0  0  0  0  0  0  0  0  0  0  0
    8.4396  -14.8404   23.4549 C   0  0  2  0  0  0  0  0  0  0  0  0
    8.0325  -15.5252   22.2429 N   0  0  0  0  0  0  0  0  0  0  0  0
    9.0012  -15.8770   24.3637 C   0  0  0  0  0  0  0  0  0  0  0  0
    8.4016  -16.9829   24.5395 O   0  0  0  0  0  0  0  0  0  0  0  0
   10.2209  -15.6210   25.0375 N   0  0  0  0  0  0  0  0  0  0  0  0
   11.0054  -16.7360   25.5102 C   0  0  1  0  0  0  0  0  0  0  0  0
   12.4692  -16.5809   25.1585 C   0  0  0  0  0  0  0  0  0  0  0  0
   13.3266  -17.6430   25.7986 C   0  0  0  0  0  0  0  0  0  0  0  0
   14.7542  -17.4128   25.5079 C   0  0  0  0  0  0  0  0  0  0  0  0
   15.1609  -16.2692   25.2313 O   0  0  0  0  0  0  0  0  0  0  0  0
   10.7837  -16.8880   26.9554 C   0  0  0  0  0  0  0  0  0  0  0  0
   11.2456  -18.0120   27.6120 O   0  0  0  0  0  0  0  0  0  0  0  0
   15.6436  -18.4624   25.5410 O   0  0  0  0  0  0  0  0  0  0  0  0
   10.1820  -16.0260   27.6326 O   0  0  0  0  0  0  0  0  0  0  0  0
  2  1  1  0
  3  2  2  0
  4  2  1  0
  5  4  1  0
  5  6  1  1
  7  5  1  0
  7  8  2  0
  9 10  1  0
 11 12  1  0
 11 10  1  0
 13 14  1  0
 13 12  1  1
 14  7  1  0
 15 13  1  0
 16 15  2  0
 17 15  1  0
 18 17  1  0
 19 20  1  0
 18 19  1  1
 20 21  1  0
 21 25  1  0
 21 22  2  0
 23 18  1  0
 23 24  1  0
 26 23  2  0
M  END
$$$$
