NME.pdb
     RDKit          3D

 26 25  0  0  1  0  0  0  0  0999 V2000
    6.5901  -15.6793   19.0838 N   0  0  0  0  0  0  0  0  0  0  0  0
    7.7693  -15.1608   18.4441 C   0  0  0  0  0  0  0  0  0  0  0  0
    7.6474  -14.5703   17.3530 O   0  0  0  0  0  0  0  0  0  0  0  0
    9.0529  -15.3692   19.1349 C   0  0  0  0  0  0  0  0  0  0  0  0
    8.9719  -16.1291   20.4035 C   0  0  2  0  0  0  0  0  0  0  0  0
    7.6702  -16.8389   20.3759 N   0  0  0  0  0  0  0  0  0  0  0  0
    8.9953  -15.3621   21.6461 C   0  0  0  0  0  0  0  0  0  0  0  0
   10.0275  -14.7568   21.9934 O   0  0  0  0  0  0  0  0  0  0  0  0
    6.6740  -11.1211   25.8161 C   0  0  0  0  0  0  0  0  0  0  0  0
    7.6772  -12.5996   26.0997 S   0  0  0  0  0  0  0  0  0  0  0  0
    6.7315  -14.1114   25.9406 C   0  0  0  0  0  0  0  0  0  0  0  0
    6.6215  -14.6155   24.5262 C   0  0  0  0  0  0  0  0  0  0  0  0
    7.9450  -14.8694   23.8932 C   0  0  2  0  0  0  0  0  0  0  0  0
    7.8400  -15.2800   22.5061 N   0  0  0  0  0  0  0  0  0  0  0  0
    8.5974  -15.9908   24.6229 C   0  0  0  0  0  0  0  0  0  0  0  0
    7.9996  -17.1004   24.7808 O   0  0  0  0  0  0  0  0  0  0  0  0
    9.9024  -15.8121   25.1448 N   0  0  0  0  0  0  0  0  0  0  0  0
   10.6397  -16.9683   25.5939 C   0  0  1  0  0  0  0  0  0  0  0  0
   12.1320  -16.7835   25.4219 C   0  0  0  0  0  0  0  0  0  0  0  0
   12.9179  -17.9568   25.9494 C   0  0  0  0  0  0  0  0  0  0  0  0
   14.1152  -18.2023   25.1236 C   0  0  0  0  0  0  0  0  0  0  0  0
   14.4220  -17.4100   24.2138 O   0  0  0  0  0  0  0  0  0  0  0  0
   10.2619  -17.2558   26.9851 C   0  0  0  0  0  0  0  0  0  0  0  0
   10.5804  -18.4749   27.5511 O   0  0  0  0  0  0  0  0  0  0  0  0
   14.8989  -19.3094   25.3557 O   0  0  0  0  0  0  0  0  0  0  0  0
    9.6511  -16.4276   27.6956 O   0  0  0  0  0  0  0  0  0  0  0  0
  2  1  1  0
  3  2  2  0
  4  2  1  0
  5  4  1  0
  5  6  1  6
  7  5  1  0
  7  8  2  0
  9 10  1  0
 11 12  1  0
 11 10  1  0
 13 14  1  0
 13 12  1  1
 14  7  1  0
 15 13  1  0
 16 15  2  0
 17 15  1  0
 18 17  1  0
 19 20  1  0
 18 19  1  1
 20 21  1  0
 21 25  1  0
 21 22  2  0
 23 18  1  0
 23 24  1  0
 26 23  2  0
M  END
$$$$
