NME.pdb
     RDKit          3D

 26 25  0  0  1  0  0  0  0  0999 V2000
   11.2553  -16.7732   18.0366 N   0  0  0  0  0  0  0  0  0  0  0  0
    9.8945  -16.3521   18.2348 C   0  0  0  0  0  0  0  0  0  0  0  0
    9.0568  -16.5967   17.3447 O   0  0  0  0  0  0  0  0  0  0  0  0
    9.5863  -15.6522   19.4932 C   0  0  0  0  0  0  0  0  0  0  0  0
    9.4355  -16.5241   20.6809 C   0  0  2  0  0  0  0  0  0  0  0  0
    8.0559  -17.0648   20.6222 N   0  0  0  0  0  0  0  0  0  0  0  0
    9.5760  -15.8983   21.9929 C   0  0  0  0  0  0  0  0  0  0  0  0
   10.6978  -15.5476   22.4067 O   0  0  0  0  0  0  0  0  0  0  0  0
    7.1769  -11.0087   26.1474 C   0  0  0  0  0  0  0  0  0  0  0  0
    6.3908  -12.6053   26.4726 S   0  0  0  0  0  0  0  0  0  0  0  0
    7.4685  -13.9876   26.1082 C   0  0  0  0  0  0  0  0  0  0  0  0
    7.3290  -14.5159   24.7053 C   0  0  0  0  0  0  0  0  0  0  0  0
    8.5797  -15.1373   24.1892 C   0  0  2  0  0  0  0  0  0  0  0  0
    8.4366  -15.6683   22.8471 N   0  0  0  0  0  0  0  0  0  0  0  0
    8.9204  -16.2878   25.0702 C   0  0  0  0  0  0  0  0  0  0  0  0
    8.2030  -17.3359   25.0791 O   0  0  0  0  0  0  0  0  0  0  0  0
   10.0612  -16.2066   25.9063 N   0  0  0  0  0  0  0  0  0  0  0  0
   10.4508  -17.3664   26.6714 C   0  0  1  0  0  0  0  0  0  0  0  0
   11.8989  -17.7355   26.4322 C   0  0  0  0  0  0  0  0  0  0  0  0
   12.0469  -18.8449   25.4223 C   0  0  0  0  0  0  0  0  0  0  0  0
   13.2775  -18.6726   24.6277 C   0  0  0  0  0  0  0  0  0  0  0  0
   14.1389  -17.8450   24.9781 O   0  0  0  0  0  0  0  0  0  0  0  0
   10.1579  -17.1145   28.0896 C   0  0  0  0  0  0  0  0  0  0  0  0
   10.3219  -18.1222   29.0199 O   0  0  0  0  0  0  0  0  0  0  0  0
   13.4790  -19.4268   23.4944 O   0  0  0  0  0  0  0  0  0  0  0  0
    9.7576  -16.0036   28.5014 O   0  0  0  0  0  0  0  0  0  0  0  0
  2  1  1  0
  3  2  2  0
  4  2  1  0
  5  4  1  0
  5  6  1  1
  7  5  1  0
  7  8  2  0
  9 10  1  0
 11 12  1  0
 11 10  1  0
 13 14  1  0
 13 12  1  1
 14  7  1  0
 15 13  1  0
 16 15  2  0
 17 15  1  0
 18 17  1  0
 19 20  1  0
 18 19  1  1
 20 21  1  0
 21 25  1  0
 21 22  2  0
 23 18  1  0
 23 24  1  0
 26 23  2  0
M  END
$$$$
