NME.pdb
     RDKit          3D

 26 25  0  0  1  0  0  0  0  0999 V2000
    9.1092  -17.9639   18.2293 N   0  0  0  0  0  0  0  0  0  0  0  0
   10.1783  -17.0085   18.3423 C   0  0  0  0  0  0  0  0  0  0  0  0
   10.9437  -16.8494   17.3713 O   0  0  0  0  0  0  0  0  0  0  0  0
   10.2921  -16.2779   19.6158 C   0  0  0  0  0  0  0  0  0  0  0  0
    9.3103  -16.6632   20.6556 C   0  0  2  0  0  0  0  0  0  0  0  0
    7.9854  -16.2261   20.1530 N   0  0  0  0  0  0  0  0  0  0  0  0
    9.4661  -16.0641   21.9782 C   0  0  0  0  0  0  0  0  0  0  0  0
   10.5700  -16.0900   22.5555 O   0  0  0  0  0  0  0  0  0  0  0  0
    5.5056  -11.5174   26.5257 C   0  0  0  0  0  0  0  0  0  0  0  0
    7.1962  -12.0377   26.1459 S   0  0  0  0  0  0  0  0  0  0  0  0
    7.3366  -13.8093   25.9294 C   0  0  0  0  0  0  0  0  0  0  0  0
    7.2436  -14.2573   24.4951 C   0  0  0  0  0  0  0  0  0  0  0  0
    8.4783  -14.9370   24.0153 C   0  0  2  0  0  0  0  0  0  0  0  0
    8.3617  -15.4306   22.6564 N   0  0  0  0  0  0  0  0  0  0  0  0
    8.7180  -16.1232   24.8820 C   0  0  0  0  0  0  0  0  0  0  0  0
    7.9342  -17.1222   24.8500 O   0  0  0  0  0  0  0  0  0  0  0  0
    9.8371  -16.1321   25.7508 N   0  0  0  0  0  0  0  0  0  0  0  0
   10.1664  -17.3486   26.4536 C   0  0  1  0  0  0  0  0  0  0  0  0
   11.4874  -17.9238   25.9904 C   0  0  0  0  0  0  0  0  0  0  0  0
   11.8694  -19.1660   26.7543 C   0  0  0  0  0  0  0  0  0  0  0  0
   13.1466  -19.7151   26.2615 C   0  0  0  0  0  0  0  0  0  0  0  0
   13.4496  -19.6135   25.0584 O   0  0  0  0  0  0  0  0  0  0  0  0
   10.1423  -17.0784   27.8983 C   0  0  0  0  0  0  0  0  0  0  0  0
   10.2547  -15.7822   28.3619 O   0  0  0  0  0  0  0  0  0  0  0  0
   14.0095  -20.3428   27.1305 O   0  0  0  0  0  0  0  0  0  0  0  0
   10.0220  -17.9899   28.7459 O   0  0  0  0  0  0  0  0  0  0  0  0
  2  1  1  0
  3  2  2  0
  4  2  1  0
  5  4  1  0
  5  6  1  6
  7  5  1  0
  7  8  2  0
  9 10  1  0
 11 12  1  0
 11 10  1  0
 13 14  1  0
 13 12  1  1
 14  7  1  0
 15 13  1  0
 16 15  2  0
 17 15  1  0
 18 17  1  0
 19 20  1  0
 18 19  1  6
 20 21  1  0
 21 25  1  0
 21 22  2  0
 23 18  1  0
 23 24  1  0
 26 23  2  0
M  END
$$$$
