NME.pdb
     RDKit          3D

 26 25  0  0  1  0  0  0  0  0999 V2000
    8.1819  -15.3110   17.5489 N   0  0  0  0  0  0  0  0  0  0  0  0
    7.9193  -13.9744   18.0103 C   0  0  0  0  0  0  0  0  0  0  0  0
    7.6157  -13.1015   17.1737 O   0  0  0  0  0  0  0  0  0  0  0  0
    8.0306  -13.7315   19.4584 C   0  0  0  0  0  0  0  0  0  0  0  0
    8.3707  -14.9198   20.2743 C   0  0  2  0  0  0  0  0  0  0  0  0
    7.1892  -15.8138   20.2122 N   0  0  0  0  0  0  0  0  0  0  0  0
    8.6469  -14.7019   21.6917 C   0  0  0  0  0  0  0  0  0  0  0  0
    9.7074  -14.1547   22.0500 O   0  0  0  0  0  0  0  0  0  0  0  0
    6.3428  -11.0909   26.8076 C   0  0  0  0  0  0  0  0  0  0  0  0
    7.1378  -12.6722   26.4329 S   0  0  0  0  0  0  0  0  0  0  0  0
    6.2072  -13.6454   25.2531 C   0  0  0  0  0  0  0  0  0  0  0  0
    6.7963  -15.0048   24.9850 C   0  0  0  0  0  0  0  0  0  0  0  0
    8.0117  -14.9545   24.1265 C   0  0  2  0  0  0  0  0  0  0  0  0
    7.7151  -15.1085   22.7151 N   0  0  0  0  0  0  0  0  0  0  0  0
    8.8911  -16.0941   24.5054 C   0  0  0  0  0  0  0  0  0  0  0  0
    8.5080  -17.2943   24.3437 O   0  0  0  0  0  0  0  0  0  0  0  0
   10.1712  -15.8299   25.0522 N   0  0  0  0  0  0  0  0  0  0  0  0
   11.1149  -16.9143   25.1774 C   0  0  1  0  0  0  0  0  0  0  0  0
   12.4611  -16.5574   24.5852 C   0  0  0  0  0  0  0  0  0  0  0  0
   13.4622  -17.6757   24.7258 C   0  0  0  0  0  0  0  0  0  0  0  0
   14.7661  -17.2899   24.1543 C   0  0  0  0  0  0  0  0  0  0  0  0
   15.6809  -18.1286   24.0581 O   0  0  0  0  0  0  0  0  0  0  0  0
   11.2038  -17.2993   26.5933 C   0  0  0  0  0  0  0  0  0  0  0  0
   11.8713  -18.4528   26.9564 O   0  0  0  0  0  0  0  0  0  0  0  0
   14.9771  -15.9997   23.7247 O   0  0  0  0  0  0  0  0  0  0  0  0
   10.6906  -16.6140   27.5048 O   0  0  0  0  0  0  0  0  0  0  0  0
  2  1  1  0
  3  2  2  0
  4  2  1  0
  5  4  1  0
  5  6  1  1
  7  5  1  0
  7  8  2  0
  9 10  1  0
 11 12  1  0
 11 10  1  0
 13 14  1  0
 13 12  1  1
 14  7  1  0
 15 13  1  0
 16 15  2  0
 17 15  1  0
 18 17  1  0
 19 20  1  0
 18 19  1  1
 20 21  1  0
 21 25  1  0
 21 22  2  0
 23 18  1  0
 23 24  1  0
 26 23  2  0
M  END
$$$$
