NWS.pdb
     RDKit          3D

 29 30  0  0  1  0  0  0  0  0999 V2000
    7.4992  -17.1637   18.5208 N   0  0  0  0  0  0  0  0  0  0  0  0
    7.5485  -15.7866   18.8475 C   0  0  0  0  0  0  0  0  0  0  0  0
    7.0841  -14.9534   18.0329 O   0  0  0  0  0  0  0  0  0  0  0  0
    8.1485  -15.3694   20.1327 C   0  0  0  0  0  0  0  0  0  0  0  0
    8.8053  -16.6089   20.7410 C   0  0  2  0  0  0  0  0  0  0  0  0
    7.6886  -17.4372   21.1971 N   0  0  0  0  0  0  0  0  0  0  0  0
    9.5504  -16.0723   21.9523 C   0  0  0  0  0  0  0  0  0  0  0  0
   10.4105  -15.1772   21.8051 O   0  0  0  0  0  0  0  0  0  0  0  0
    9.2674  -16.5832   23.2299 N   0  0  0  0  0  0  0  0  0  0  0  0
   10.0078  -16.3341   24.4033 C   0  0  1  0  0  0  0  0  0  0  0  0
    9.2383  -16.4103   25.7153 C   0  0  0  0  0  0  0  0  0  0  0  0
    7.9829  -15.6176   25.6859 C   0  0  0  0  0  0  0  0  0  0  0  0
    6.7028  -15.9594   25.3368 C   0  0  0  0  0  0  0  0  0  0  0  0
    5.8893  -14.9104   25.4327 N   0  0  0  0  0  0  0  0  0  0  0  0
    6.6291  -13.8667   25.8481 C   0  0  0  0  0  0  0  0  0  0  0  0
    6.2564  -12.5441   26.0977 C   0  0  0  0  0  0  0  0  0  0  0  0
    7.2229  -11.6541   26.5167 C   0  0  0  0  0  0  0  0  0  0  0  0
    8.5270  -12.0187   26.6954 C   0  0  0  0  0  0  0  0  0  0  0  0
    8.8763  -13.3505   26.4366 C   0  0  0  0  0  0  0  0  0  0  0  0
    7.9439  -14.2706   26.0170 C   0  0  0  0  0  0  0  0  0  0  0  0
   11.2717  -17.0680   24.4233 C   0  0  0  0  0  0  0  0  0  0  0  0
   11.2093  -18.3594   24.3314 O   0  0  0  0  0  0  0  0  0  0  0  0
   14.9043  -15.2943   24.1477 O   0  0  0  0  0  0  0  0  0  0  0  0
   14.8482  -16.6321   23.7617 C   0  0  0  0  0  0  0  0  0  0  0  0
   13.7178  -17.2937   24.4761 C   0  0  2  0  0  0  0  0  0  0  0  0
   12.5439  -16.4517   24.5405 N   0  0  0  0  0  0  0  0  0  0  0  0
   14.1662  -17.5793   25.8802 C   0  0  0  0  0  0  0  0  0  0  0  0
   15.3148  -18.2788   26.1651 O   0  0  0  0  0  0  0  0  0  0  0  0
   13.4524  -17.1557   26.8232 O   0  0  0  0  0  0  0  0  0  0  0  0
  2  1  1  0
  3  2  2  0
  4  5  1  0
  4  2  1  0
  5  6  1  1
  7  8  2  0
  7  5  1  0
  9  7  1  0
 10  9  1  0
 11 12  1  0
 10 11  1  1
 12 13  2  0
 12 20  1  0
 13 14  1  0
 14 15  1  0
 15 16  2  0
 16 17  1  0
 18 17  2  0
 19 18  1  0
 20 19  2  0
 20 15  1  0
 21 22  2  0
 21 10  1  0
 23 24  1  0
 25 26  1  0
 25 24  1  6
 26 21  1  0
 27 25  1  0
 28 27  1  0
 29 27  2  0
M  END
$$$$
