NWS.pdb
     RDKit          3D

 29 30  0  0  1  0  0  0  0  0999 V2000
    9.4292  -17.5863   19.3799 N   0  0  0  0  0  0  0  0  0  0  0  0
    8.1686  -16.9508   19.2666 C   0  0  0  0  0  0  0  0  0  0  0  0
    7.8951  -16.3308   18.2111 O   0  0  0  0  0  0  0  0  0  0  0  0
    7.2148  -17.0308   20.3933 C   0  0  0  0  0  0  0  0  0  0  0  0
    7.0564  -15.6134   20.9445 C   0  0  2  0  0  0  0  0  0  0  0  0
    7.1522  -14.7440   19.7716 N   0  0  0  0  0  0  0  0  0  0  0  0
    8.2909  -15.4159   21.8091 C   0  0  0  0  0  0  0  0  0  0  0  0
    9.2605  -14.7629   21.3660 O   0  0  0  0  0  0  0  0  0  0  0  0
    8.3349  -15.9658   23.1010 N   0  0  0  0  0  0  0  0  0  0  0  0
    9.3738  -15.7942   24.0383 C   0  0  1  0  0  0  0  0  0  0  0  0
    8.9702  -15.8295   25.5064 C   0  0  0  0  0  0  0  0  0  0  0  0
    7.6929  -15.1168   25.7630 C   0  0  0  0  0  0  0  0  0  0  0  0
    6.3934  -15.5504   25.7454 C   0  0  0  0  0  0  0  0  0  0  0  0
    5.5562  -14.5498   26.0091 N   0  0  0  0  0  0  0  0  0  0  0  0
    6.3002  -13.4464   26.2043 C   0  0  0  0  0  0  0  0  0  0  0  0
    5.9079  -12.1396   26.5024 C   0  0  0  0  0  0  0  0  0  0  0  0
    6.8829  -11.1755   26.6498 C   0  0  0  0  0  0  0  0  0  0  0  0
    8.2136  -11.4520   26.5149 C   0  0  0  0  0  0  0  0  0  0  0  0
    8.5816  -12.7698   26.2138 C   0  0  0  0  0  0  0  0  0  0  0  0
    7.6416  -13.7619   26.0582 C   0  0  0  0  0  0  0  0  0  0  0  0
   10.5357  -16.6261   23.7312 C   0  0  0  0  0  0  0  0  0  0  0  0
   10.3108  -17.8547   23.3851 O   0  0  0  0  0  0  0  0  0  0  0  0
   14.3949  -15.2824   23.6816 O   0  0  0  0  0  0  0  0  0  0  0  0
   14.1495  -16.4453   22.9541 C   0  0  0  0  0  0  0  0  0  0  0  0
   12.9337  -17.1118   23.5049 C   0  0  2  0  0  0  0  0  0  0  0  0
   11.8768  -16.1683   23.7949 N   0  0  0  0  0  0  0  0  0  0  0  0
   13.3220  -17.7881   24.7878 C   0  0  0  0  0  0  0  0  0  0  0  0
   14.3165  -18.7347   24.8568 O   0  0  0  0  0  0  0  0  0  0  0  0
   12.7040  -17.4658   25.8330 O   0  0  0  0  0  0  0  0  0  0  0  0
  2  1  1  0
  3  2  2  0
  4  5  1  0
  4  2  1  0
  5  6  1  6
  7  8  2  0
  7  5  1  0
  9  7  1  0
 10  9  1  0
 11 12  1  0
 10 11  1  1
 12 13  2  0
 12 20  1  0
 13 14  1  0
 14 15  1  0
 15 16  2  0
 16 17  1  0
 18 17  2  0
 19 18  1  0
 20 19  2  0
 20 15  1  0
 21 22  2  0
 21 10  1  0
 23 24  1  0
 25 26  1  0
 25 24  1  1
 26 21  1  0
 27 25  1  0
 28 27  1  0
 29 27  2  0
M  END
$$$$
