NWS.pdb
     RDKit          3D

 29 30  0  0  1  0  0  0  0  0999 V2000
    6.8598  -13.7268   18.6512 N   0  0  0  0  0  0  0  0  0  0  0  0
    8.1365  -14.1487   19.0957 C   0  0  0  0  0  0  0  0  0  0  0  0
    8.9994  -14.4696   18.2437 O   0  0  0  0  0  0  0  0  0  0  0  0
    8.4150  -14.2043   20.5466 C   0  0  0  0  0  0  0  0  0  0  0  0
    8.9515  -15.6048   20.8440 C   0  0  2  0  0  0  0  0  0  0  0  0
    7.7711  -16.4692   20.8215 N   0  0  0  0  0  0  0  0  0  0  0  0
    9.4650  -15.5057   22.2712 C   0  0  0  0  0  0  0  0  0  0  0  0
   10.3278  -14.6490   22.5619 O   0  0  0  0  0  0  0  0  0  0  0  0
    8.9664  -16.3750   23.2555 N   0  0  0  0  0  0  0  0  0  0  0  0
    9.4085  -16.4525   24.5919 C   0  0  1  0  0  0  0  0  0  0  0  0
    8.3237  -16.5385   25.6573 C   0  0  0  0  0  0  0  0  0  0  0  0
    7.3144  -15.4565   25.5307 C   0  0  0  0  0  0  0  0  0  0  0  0
    6.0626  -15.4451   24.9738 C   0  0  0  0  0  0  0  0  0  0  0  0
    5.5175  -14.2338   25.0579 N   0  0  0  0  0  0  0  0  0  0  0  0
    6.4082  -13.4359   25.6736 C   0  0  0  0  0  0  0  0  0  0  0  0
    6.3261  -12.0799   25.9978 C   0  0  0  0  0  0  0  0  0  0  0  0
    7.3968  -11.4875   26.6337 C   0  0  0  0  0  0  0  0  0  0  0  0
    8.5307  -12.1771   26.9564 C   0  0  0  0  0  0  0  0  0  0  0  0
    8.5898  -13.5355   26.6190 C   0  0  0  0  0  0  0  0  0  0  0  0
    7.5446  -14.1655   25.9843 C   0  0  0  0  0  0  0  0  0  0  0  0
   10.4753  -17.4370   24.7629 C   0  0  0  0  0  0  0  0  0  0  0  0
   10.2761  -18.6191   24.2701 O   0  0  0  0  0  0  0  0  0  0  0  0
   14.2462  -16.6636   26.1996 O   0  0  0  0  0  0  0  0  0  0  0  0
   14.0503  -17.8142   25.4383 C   0  0  0  0  0  0  0  0  0  0  0  0
   12.6354  -18.2612   25.5945 C   0  0  2  0  0  0  0  0  0  0  0  0
   11.6971  -17.1728   25.4333 N   0  0  0  0  0  0  0  0  0  0  0  0
   12.4784  -18.8127   26.9820 C   0  0  0  0  0  0  0  0  0  0  0  0
   13.2524  -19.8414   27.4642 O   0  0  0  0  0  0  0  0  0  0  0  0
   11.5996  -18.3033   27.7213 O   0  0  0  0  0  0  0  0  0  0  0  0
  2  1  1  0
  3  2  2  0
  4  5  1  0
  4  2  1  0
  5  6  1  1
  7  8  2  0
  7  5  1  0
  9  7  1  0
 10  9  1  0
 11 12  1  0
 10 11  1  1
 12 13  2  0
 12 20  1  0
 13 14  1  0
 14 15  1  0
 15 16  2  0
 16 17  1  0
 18 17  2  0
 19 18  1  0
 20 19  2  0
 20 15  1  0
 21 22  2  0
 21 10  1  0
 23 24  1  0
 25 26  1  0
 25 24  1  1
 26 21  1  0
 27 25  1  0
 28 27  1  0
 29 27  2  0
M  END
$$$$
