NWS.pdb
     RDKit          3D

 29 30  0  0  1  0  0  0  0  0999 V2000
   10.9999  -18.6977   16.8619 N   0  0  0  0  0  0  0  0  0  0  0  0
   10.2523  -17.6893   17.5175 C   0  0  0  0  0  0  0  0  0  0  0  0
    9.2381  -17.2199   16.9481 O   0  0  0  0  0  0  0  0  0  0  0  0
   10.6888  -17.2154   18.8482 C   0  0  0  0  0  0  0  0  0  0  0  0
    9.6920  -17.7683   19.8672 C   0  0  2  0  0  0  0  0  0  0  0  0
    8.3948  -17.2390   19.4453 N   0  0  0  0  0  0  0  0  0  0  0  0
   10.0962  -17.1044   21.1734 C   0  0  0  0  0  0  0  0  0  0  0  0
   11.2836  -17.1665   21.5593 O   0  0  0  0  0  0  0  0  0  0  0  0
    9.1346  -16.4235   21.9384 N   0  0  0  0  0  0  0  0  0  0  0  0
    9.3573  -15.8002   23.1830 C   0  0  1  0  0  0  0  0  0  0  0  0
    8.5033  -14.5764   23.4867 C   0  0  0  0  0  0  0  0  0  0  0  0
    8.7451  -14.0373   24.8492 C   0  0  0  0  0  0  0  0  0  0  0  0
    9.8537  -14.0702   25.6536 C   0  0  0  0  0  0  0  0  0  0  0  0
    9.6095  -13.4807   26.8216 N   0  0  0  0  0  0  0  0  0  0  0  0
    8.3346  -13.0527   26.7951 C   0  0  0  0  0  0  0  0  0  0  0  0
    7.5917  -12.3820   27.7691 C   0  0  0  0  0  0  0  0  0  0  0  0
    6.2811  -12.0556   27.4908 C   0  0  0  0  0  0  0  0  0  0  0  0
    5.6858  -12.3638   26.3008 C   0  0  0  0  0  0  0  0  0  0  0  0
    6.4512  -13.0385   25.3407 C   0  0  0  0  0  0  0  0  0  0  0  0
    7.7616  -13.3830   25.5774 C   0  0  0  0  0  0  0  0  0  0  0  0
    9.4089  -16.7642   24.2805 C   0  0  0  0  0  0  0  0  0  0  0  0
    8.3468  -17.4751   24.4959 O   0  0  0  0  0  0  0  0  0  0  0  0
   12.9128  -17.9218   25.9113 O   0  0  0  0  0  0  0  0  0  0  0  0
   11.8770  -18.8531   25.8681 C   0  0  0  0  0  0  0  0  0  0  0  0
   10.5745  -18.1309   25.9570 C   0  0  2  0  0  0  0  0  0  0  0  0
   10.5412  -16.9573   25.1127 N   0  0  0  0  0  0  0  0  0  0  0  0
   10.3906  -17.6888   27.3799 C   0  0  0  0  0  0  0  0  0  0  0  0
   10.4257  -18.5637   28.4397 O   0  0  0  0  0  0  0  0  0  0  0  0
   10.1974  -16.4663   27.5957 O   0  0  0  0  0  0  0  0  0  0  0  0
  2  1  1  0
  3  2  2  0
  4  5  1  0
  4  2  1  0
  5  6  1  6
  7  8  2  0
  7  5  1  0
  9  7  1  0
 10  9  1  0
 11 12  1  0
 10 11  1  1
 12 13  2  0
 12 20  1  0
 13 14  1  0
 14 15  1  0
 15 16  2  0
 16 17  1  0
 18 17  2  0
 19 18  1  0
 20 19  2  0
 20 15  1  0
 21 22  2  0
 21 10  1  0
 23 24  1  0
 25 26  1  0
 25 24  1  1
 26 21  1  0
 27 25  1  0
 28 27  1  0
 29 27  2  0
M  END
$$$$
