NWS.pdb
     RDKit          3D

 29 30  0  0  1  0  0  0  0  0999 V2000
    5.9971  -14.5720   19.6513 N   0  0  0  0  0  0  0  0  0  0  0  0
    7.3955  -14.7842   19.7226 C   0  0  0  0  0  0  0  0  0  0  0  0
    8.0147  -15.0994   18.6783 O   0  0  0  0  0  0  0  0  0  0  0  0
    8.0843  -14.6339   21.0222 C   0  0  0  0  0  0  0  0  0  0  0  0
    8.7668  -15.9689   21.3217 C   0  0  2  0  0  0  0  0  0  0  0  0
    7.6676  -16.9147   21.5162 N   0  0  0  0  0  0  0  0  0  0  0  0
    9.4606  -15.7356   22.6538 C   0  0  0  0  0  0  0  0  0  0  0  0
   10.3294  -14.8422   22.7527 O   0  0  0  0  0  0  0  0  0  0  0  0
    9.1206  -16.5230   23.7664 N   0  0  0  0  0  0  0  0  0  0  0  0
    9.7668  -16.5080   25.0192 C   0  0  1  0  0  0  0  0  0  0  0  0
    8.8715  -16.3257   26.2376 C   0  0  0  0  0  0  0  0  0  0  0  0
    7.6921  -15.4689   25.9544 C   0  0  0  0  0  0  0  0  0  0  0  0
    6.4554  -15.7680   25.4462 C   0  0  0  0  0  0  0  0  0  0  0  0
    5.7118  -14.6700   25.3318 N   0  0  0  0  0  0  0  0  0  0  0  0
    6.4547  -13.6364   25.7662 C   0  0  0  0  0  0  0  0  0  0  0  0
    6.1432  -12.2774   25.8469 C   0  0  0  0  0  0  0  0  0  0  0  0
    7.0986  -11.4091   26.3317 C   0  0  0  0  0  0  0  0  0  0  0  0
    8.3344  -11.8293   26.7340 C   0  0  0  0  0  0  0  0  0  0  0  0
    8.6235  -13.1970   26.6414 C   0  0  0  0  0  0  0  0  0  0  0  0
    7.6997  -14.0971   26.1637 C   0  0  0  0  0  0  0  0  0  0  0  0
   10.7264  -17.6018   25.1572 C   0  0  0  0  0  0  0  0  0  0  0  0
   10.2938  -18.8025   24.9309 O   0  0  0  0  0  0  0  0  0  0  0  0
   14.7264  -17.1147   25.7034 O   0  0  0  0  0  0  0  0  0  0  0  0
   14.3166  -18.3685   25.2541 C   0  0  0  0  0  0  0  0  0  0  0  0
   12.9080  -18.6000   25.6879 C   0  0  2  0  0  0  0  0  0  0  0  0
   12.0847  -17.4224   25.5242 N   0  0  0  0  0  0  0  0  0  0  0  0
   12.9292  -18.9569   27.1460 C   0  0  0  0  0  0  0  0  0  0  0  0
   13.5909  -20.0600   27.6309 O   0  0  0  0  0  0  0  0  0  0  0  0
   12.3124  -18.2078   27.9439 O   0  0  0  0  0  0  0  0  0  0  0  0
  2  1  1  0
  3  2  2  0
  4  5  1  0
  4  2  1  0
  5  6  1  1
  7  8  2  0
  7  5  1  0
  9  7  1  0
 10  9  1  0
 11 12  1  0
 10 11  1  1
 12 13  2  0
 12 20  1  0
 13 14  1  0
 14 15  1  0
 15 16  2  0
 16 17  1  0
 18 17  2  0
 19 18  1  0
 20 19  2  0
 20 15  1  0
 21 22  2  0
 21 10  1  0
 23 24  1  0
 25 26  1  0
 25 24  1  1
 26 21  1  0
 27 25  1  0
 28 27  1  0
 29 27  2  0
M  END
$$$$
