NWS.pdb
     RDKit          3D

 29 30  0  0  1  0  0  0  0  0999 V2000
    6.9557  -13.0099   18.3687 N   0  0  0  0  0  0  0  0  0  0  0  0
    7.9572  -13.9307   18.7624 C   0  0  0  0  0  0  0  0  0  0  0  0
    8.3689  -14.7719   17.9280 O   0  0  0  0  0  0  0  0  0  0  0  0
    8.4846  -13.8790   20.1426 C   0  0  0  0  0  0  0  0  0  0  0  0
    8.5767  -15.3222   20.6388 C   0  0  2  0  0  0  0  0  0  0  0  0
    7.1893  -15.7282   20.8654 N   0  0  0  0  0  0  0  0  0  0  0  0
    9.2833  -15.2050   21.9794 C   0  0  0  0  0  0  0  0  0  0  0  0
   10.1858  -14.3537   22.1325 O   0  0  0  0  0  0  0  0  0  0  0  0
    8.9173  -16.0517   23.0390 N   0  0  0  0  0  0  0  0  0  0  0  0
    9.5538  -16.1285   24.2944 C   0  0  1  0  0  0  0  0  0  0  0  0
    8.6459  -16.3375   25.4992 C   0  0  0  0  0  0  0  0  0  0  0  0
    7.5232  -15.3664   25.5413 C   0  0  0  0  0  0  0  0  0  0  0  0
    6.1899  -15.5093   25.2604 C   0  0  0  0  0  0  0  0  0  0  0  0
    5.5483  -14.3522   25.4050 N   0  0  0  0  0  0  0  0  0  0  0  0
    6.4566  -13.4356   25.7844 C   0  0  0  0  0  0  0  0  0  0  0  0
    6.2994  -12.0755   26.0597 C   0  0  0  0  0  0  0  0  0  0  0  0
    7.4088  -11.3447   26.4298 C   0  0  0  0  0  0  0  0  0  0  0  0
    8.6514  -11.9016   26.5361 C   0  0  0  0  0  0  0  0  0  0  0  0
    8.7837  -13.2673   26.2528 C   0  0  0  0  0  0  0  0  0  0  0  0
    7.7034  -14.0328   25.8801 C   0  0  0  0  0  0  0  0  0  0  0  0
   10.7103  -17.0221   24.2718 C   0  0  0  0  0  0  0  0  0  0  0  0
   10.4774  -18.2905   24.1414 O   0  0  0  0  0  0  0  0  0  0  0  0
   14.6312  -15.7978   24.2821 O   0  0  0  0  0  0  0  0  0  0  0  0
   14.3596  -17.0569   23.7502 C   0  0  0  0  0  0  0  0  0  0  0  0
   13.1020  -17.5778   24.3608 C   0  0  2  0  0  0  0  0  0  0  0  0
   12.0538  -16.5820   24.3877 N   0  0  0  0  0  0  0  0  0  0  0  0
   13.4082  -17.9730   25.7765 C   0  0  0  0  0  0  0  0  0  0  0  0
   12.7489  -17.4358   26.8566 O   0  0  0  0  0  0  0  0  0  0  0  0
   14.3062  -18.8309   25.9665 O   0  0  0  0  0  0  0  0  0  0  0  0
  2  1  1  0
  3  2  2  0
  4  5  1  0
  4  2  1  0
  5  6  1  1
  7  8  2  0
  7  5  1  0
  9  7  1  0
 10  9  1  0
 11 12  1  0
 10 11  1  1
 12 13  2  0
 12 20  1  0
 13 14  1  0
 14 15  1  0
 15 16  2  0
 16 17  1  0
 18 17  2  0
 19 18  1  0
 20 19  2  0
 20 15  1  0
 21 22  2  0
 21 10  1  0
 23 24  1  0
 25 26  1  0
 25 24  1  1
 26 21  1  0
 27 25  1  0
 28 27  1  0
 29 27  2  0
M  END
$$$$
