NWS.pdb
     RDKit          3D

 29 30  0  0  1  0  0  0  0  0999 V2000
    7.9506  -12.6036   18.4824 N   0  0  0  0  0  0  0  0  0  0  0  0
    7.4438  -13.7324   19.1715 C   0  0  0  0  0  0  0  0  0  0  0  0
    6.7174  -14.5453   18.5511 O   0  0  0  0  0  0  0  0  0  0  0  0
    7.7792  -13.9185   20.5993 C   0  0  0  0  0  0  0  0  0  0  0  0
    8.6065  -15.2004   20.6992 C   0  0  2  0  0  0  0  0  0  0  0  0
    7.6207  -16.2817   20.7001 N   0  0  0  0  0  0  0  0  0  0  0  0
    9.2495  -15.1160   22.0738 C   0  0  0  0  0  0  0  0  0  0  0  0
    9.9994  -14.1546   22.3499 O   0  0  0  0  0  0  0  0  0  0  0  0
    8.9965  -16.1167   23.0267 N   0  0  0  0  0  0  0  0  0  0  0  0
    9.5619  -16.1938   24.3157 C   0  0  1  0  0  0  0  0  0  0  0  0
    8.5872  -16.3933   25.4688 C   0  0  0  0  0  0  0  0  0  0  0  0
    7.4654  -15.4207   25.4409 C   0  0  0  0  0  0  0  0  0  0  0  0
    6.1636  -15.5498   25.0336 C   0  0  0  0  0  0  0  0  0  0  0  0
    5.5114  -14.3963   25.1583 N   0  0  0  0  0  0  0  0  0  0  0  0
    6.3808  -13.4961   25.6511 C   0  0  0  0  0  0  0  0  0  0  0  0
    6.1988  -12.1458   25.9576 C   0  0  0  0  0  0  0  0  0  0  0  0
    7.2693  -11.4316   26.4532 C   0  0  0  0  0  0  0  0  0  0  0  0
    8.4968  -11.9957   26.6542 C   0  0  0  0  0  0  0  0  0  0  0  0
    8.6547  -13.3512   26.3374 C   0  0  0  0  0  0  0  0  0  0  0  0
    7.6135  -14.1001   25.8406 C   0  0  0  0  0  0  0  0  0  0  0  0
   10.7120  -17.0947   24.3597 C   0  0  0  0  0  0  0  0  0  0  0  0
   10.5280  -18.3117   23.9534 O   0  0  0  0  0  0  0  0  0  0  0  0
   14.4941  -16.4328   23.7568 O   0  0  0  0  0  0  0  0  0  0  0  0
   14.3842  -17.2158   24.9043 C   0  0  0  0  0  0  0  0  0  0  0  0
   12.9939  -17.7498   24.9929 C   0  0  2  0  0  0  0  0  0  0  0  0
   11.9986  -16.7150   24.8206 N   0  0  0  0  0  0  0  0  0  0  0  0
   12.8171  -18.3460   26.3594 C   0  0  0  0  0  0  0  0  0  0  0  0
   13.6524  -19.3164   26.8599 O   0  0  0  0  0  0  0  0  0  0  0  0
   11.8624  -17.9314   27.0629 O   0  0  0  0  0  0  0  0  0  0  0  0
  2  1  1  0
  3  2  2  0
  4  5  1  0
  4  2  1  0
  5  6  1  1
  7  8  2  0
  7  5  1  0
  9  7  1  0
 10  9  1  0
 11 12  1  0
 10 11  1  1
 12 13  2  0
 12 20  1  0
 13 14  1  0
 14 15  1  0
 15 16  2  0
 16 17  1  0
 18 17  2  0
 19 18  1  0
 20 19  2  0
 20 15  1  0
 21 22  2  0
 21 10  1  0
 23 24  1  0
 25 26  1  0
 25 24  1  1
 26 21  1  0
 27 25  1  0
 28 27  1  0
 29 27  2  0
M  END
$$$$
