NWS.pdb
     RDKit          3D

 29 30  0  0  1  0  0  0  0  0999 V2000
   11.2069  -19.7868   17.5477 N   0  0  0  0  0  0  0  0  0  0  0  0
   10.0608  -19.1430   18.0746 C   0  0  0  0  0  0  0  0  0  0  0  0
    9.0193  -19.0932   17.3773 O   0  0  0  0  0  0  0  0  0  0  0  0
   10.1242  -18.5449   19.4252 C   0  0  0  0  0  0  0  0  0  0  0  0
    9.6297  -17.1037   19.2979 C   0  0  2  0  0  0  0  0  0  0  0  0
   10.6080  -16.4488   18.4292 N   0  0  0  0  0  0  0  0  0  0  0  0
    9.7642  -16.5441   20.7047 C   0  0  0  0  0  0  0  0  0  0  0  0
   10.8936  -16.2402   21.1461 O   0  0  0  0  0  0  0  0  0  0  0  0
    8.6194  -16.3694   21.5000 N   0  0  0  0  0  0  0  0  0  0  0  0
    8.5935  -15.8500   22.8102 C   0  0  1  0  0  0  0  0  0  0  0  0
    7.3265  -15.1095   23.2173 C   0  0  0  0  0  0  0  0  0  0  0  0
    7.2536  -14.8676   24.6806 C   0  0  0  0  0  0  0  0  0  0  0  0
    7.1519  -15.7324   25.7385 C   0  0  0  0  0  0  0  0  0  0  0  0
    7.0851  -15.0674   26.8895 N   0  0  0  0  0  0  0  0  0  0  0  0
    7.1436  -13.7557   26.5980 C   0  0  0  0  0  0  0  0  0  0  0  0
    7.1061  -12.6449   27.4436 C   0  0  0  0  0  0  0  0  0  0  0  0
    7.1788  -11.3866   26.8837 C   0  0  0  0  0  0  0  0  0  0  0  0
    7.2855  -11.1889   25.5365 C   0  0  0  0  0  0  0  0  0  0  0  0
    7.3191  -12.3189   24.7091 C   0  0  0  0  0  0  0  0  0  0  0  0
    7.2492  -13.5916   25.2260 C   0  0  0  0  0  0  0  0  0  0  0  0
    9.0426  -16.8279   23.7994 C   0  0  0  0  0  0  0  0  0  0  0  0
    8.3925  -17.9472   23.8645 O   0  0  0  0  0  0  0  0  0  0  0  0
   12.7770  -17.0151   25.0104 O   0  0  0  0  0  0  0  0  0  0  0  0
   11.9788  -18.1523   25.1176 C   0  0  0  0  0  0  0  0  0  0  0  0
   10.5917  -17.7364   25.4764 C   0  0  2  0  0  0  0  0  0  0  0  0
   10.1332  -16.6184   24.6819 N   0  0  0  0  0  0  0  0  0  0  0  0
   10.5965  -17.3154   26.9175 C   0  0  0  0  0  0  0  0  0  0  0  0
   11.0405  -18.1340   27.9287 O   0  0  0  0  0  0  0  0  0  0  0  0
   10.1746  -16.1652   27.1956 O   0  0  0  0  0  0  0  0  0  0  0  0
  2  1  1  0
  3  2  2  0
  4  5  1  0
  4  2  1  0
  5  6  1  6
  7  8  2  0
  7  5  1  0
  9  7  1  0
 10  9  1  0
 11 12  1  0
 10 11  1  1
 12 13  2  0
 12 20  1  0
 13 14  1  0
 14 15  1  0
 15 16  2  0
 16 17  1  0
 18 17  2  0
 19 18  1  0
 20 19  2  0
 20 15  1  0
 21 22  2  0
 21 10  1  0
 23 24  1  0
 25 26  1  0
 25 24  1  6
 26 21  1  0
 27 25  1  0
 28 27  1  0
 29 27  2  0
M  END
$$$$
