NWS.pdb
     RDKit          3D

 29 30  0  0  1  0  0  0  0  0999 V2000
   11.6082  -16.6463   16.1542 N   0  0  0  0  0  0  0  0  0  0  0  0
   11.6364  -17.3799   17.3653 C   0  0  0  0  0  0  0  0  0  0  0  0
   11.8207  -18.6198   17.3187 O   0  0  0  0  0  0  0  0  0  0  0  0
   11.4436  -16.6680   18.6466 C   0  0  0  0  0  0  0  0  0  0  0  0
   10.0920  -17.1141   19.2052 C   0  0  2  0  0  0  0  0  0  0  0  0
    9.1044  -16.5643   18.2761 N   0  0  0  0  0  0  0  0  0  0  0  0
    9.9838  -16.3819   20.5327 C   0  0  0  0  0  0  0  0  0  0  0  0
   10.9401  -15.6854   20.9367 O   0  0  0  0  0  0  0  0  0  0  0  0
    8.8102  -16.4900   21.2971 N   0  0  0  0  0  0  0  0  0  0  0  0
    8.5944  -15.9178   22.5673 C   0  0  1  0  0  0  0  0  0  0  0  0
    7.1757  -15.4503   22.8641 C   0  0  0  0  0  0  0  0  0  0  0  0
    6.9696  -15.1325   24.3000 C   0  0  0  0  0  0  0  0  0  0  0  0
    6.5435  -15.9060   25.3475 C   0  0  0  0  0  0  0  0  0  0  0  0
    6.4772  -15.1912   26.4683 N   0  0  0  0  0  0  0  0  0  0  0  0
    6.8613  -13.9379   26.1670 C   0  0  0  0  0  0  0  0  0  0  0  0
    6.9613  -12.8084   26.9823 C   0  0  0  0  0  0  0  0  0  0  0  0
    7.3820  -11.6225   26.4179 C   0  0  0  0  0  0  0  0  0  0  0  0
    7.7030  -11.5136   25.0948 C   0  0  0  0  0  0  0  0  0  0  0  0
    7.5926  -12.6601   24.2974 C   0  0  0  0  0  0  0  0  0  0  0  0
    7.1769  -13.8627   24.8197 C   0  0  0  0  0  0  0  0  0  0  0  0
    9.1824  -16.7187   23.6393 C   0  0  0  0  0  0  0  0  0  0  0  0
    8.9578  -17.9950   23.6178 O   0  0  0  0  0  0  0  0  0  0  0  0
   12.9967  -17.6467   26.0865 O   0  0  0  0  0  0  0  0  0  0  0  0
   12.2551  -16.7315   25.3420 C   0  0  0  0  0  0  0  0  0  0  0  0
   10.8092  -17.0852   25.4438 C   0  0  2  0  0  0  0  0  0  0  0  0
    9.9705  -16.1808   24.6889 N   0  0  0  0  0  0  0  0  0  0  0  0
   10.4145  -16.9926   26.8894 C   0  0  0  0  0  0  0  0  0  0  0  0
   10.9994  -17.7589   27.8694 O   0  0  0  0  0  0  0  0  0  0  0  0
    9.5110  -16.1773   27.2013 O   0  0  0  0  0  0  0  0  0  0  0  0
  2  1  1  0
  3  2  2  0
  4  5  1  0
  4  2  1  0
  5  6  1  6
  7  8  2  0
  7  5  1  0
  9  7  1  0
 10  9  1  0
 11 12  1  0
 10 11  1  1
 12 13  2  0
 12 20  1  0
 13 14  1  0
 14 15  1  0
 15 16  2  0
 16 17  1  0
 18 17  2  0
 19 18  1  0
 20 19  2  0
 20 15  1  0
 21 22  2  0
 21 10  1  0
 23 24  1  0
 25 26  1  0
 25 24  1  1
 26 21  1  0
 27 25  1  0
 28 27  1  0
 29 27  2  0
M  END
$$$$
