NWS.pdb
     RDKit          3D

 29 30  0  0  1  0  0  0  0  0999 V2000
    8.7696  -12.6853   18.1850 N   0  0  0  0  0  0  0  0  0  0  0  0
    8.3044  -13.9010   18.7430 C   0  0  0  0  0  0  0  0  0  0  0  0
    7.9111  -14.8099   17.9731 O   0  0  0  0  0  0  0  0  0  0  0  0
    8.2902  -14.0635   20.2124 C   0  0  0  0  0  0  0  0  0  0  0  0
    8.9925  -15.3860   20.5213 C   0  0  2  0  0  0  0  0  0  0  0  0
    7.9879  -16.4144   20.2493 N   0  0  0  0  0  0  0  0  0  0  0  0
    9.2461  -15.3259   22.0187 C   0  0  0  0  0  0  0  0  0  0  0  0
    9.8247  -14.3328   22.5105 O   0  0  0  0  0  0  0  0  0  0  0  0
    8.8275  -16.3846   22.8417 N   0  0  0  0  0  0  0  0  0  0  0  0
    9.0395  -16.4857   24.2318 C   0  0  1  0  0  0  0  0  0  0  0  0
    7.7922  -16.4908   25.1056 C   0  0  0  0  0  0  0  0  0  0  0  0
    7.0650  -15.1966   25.0674 C   0  0  0  0  0  0  0  0  0  0  0  0
    5.9881  -14.7833   24.3279 C   0  0  0  0  0  0  0  0  0  0  0  0
    5.6855  -13.5158   24.5989 N   0  0  0  0  0  0  0  0  0  0  0  0
    6.5625  -13.0835   25.5225 C   0  0  0  0  0  0  0  0  0  0  0  0
    6.6800  -11.8336   26.1343 C   0  0  0  0  0  0  0  0  0  0  0  0
    7.6848  -11.6436   27.0596 C   0  0  0  0  0  0  0  0  0  0  0  0
    8.5662  -12.6308   27.3976 C   0  0  0  0  0  0  0  0  0  0  0  0
    8.4290  -13.8751   26.7687 C   0  0  0  0  0  0  0  0  0  0  0  0
    7.4410  -14.1071   25.8401 C   0  0  0  0  0  0  0  0  0  0  0  0
    9.9934  -17.5408   24.5681 C   0  0  0  0  0  0  0  0  0  0  0  0
    9.7781  -18.7168   24.0674 O   0  0  0  0  0  0  0  0  0  0  0  0
   13.5065  -17.6618   24.2437 O   0  0  0  0  0  0  0  0  0  0  0  0
   13.3689  -18.2993   25.4752 C   0  0  0  0  0  0  0  0  0  0  0  0
   11.9176  -18.5078   25.7513 C   0  0  2  0  0  0  0  0  0  0  0  0
   11.1231  -17.3503   25.4045 N   0  0  0  0  0  0  0  0  0  0  0  0
   11.7614  -18.7584   27.2233 C   0  0  0  0  0  0  0  0  0  0  0  0
   12.4416  -19.7542   27.8832 O   0  0  0  0  0  0  0  0  0  0  0  0
   10.9734  -18.0201   27.8652 O   0  0  0  0  0  0  0  0  0  0  0  0
  2  1  1  0
  3  2  2  0
  4  5  1  0
  4  2  1  0
  5  6  1  1
  7  8  2  0
  7  5  1  0
  9  7  1  0
 10  9  1  0
 11 12  1  0
 10 11  1  1
 12 13  2  0
 12 20  1  0
 13 14  1  0
 14 15  1  0
 15 16  2  0
 16 17  1  0
 18 17  2  0
 19 18  1  0
 20 19  2  0
 20 15  1  0
 21 22  2  0
 21 10  1  0
 23 24  1  0
 25 26  1  0
 25 24  1  1
 26 21  1  0
 27 25  1  0
 28 27  1  0
 29 27  2  0
M  END
$$$$
