NWS.pdb
     RDKit          3D

 29 30  0  0  1  0  0  0  0  0999 V2000
   12.6793  -15.3227   18.7256 N   0  0  0  0  0  0  0  0  0  0  0  0
   11.4725  -15.7949   19.2970 C   0  0  0  0  0  0  0  0  0  0  0  0
   10.6687  -16.4321   18.5751 O   0  0  0  0  0  0  0  0  0  0  0  0
   11.1916  -15.5205   20.7224 C   0  0  0  0  0  0  0  0  0  0  0  0
   11.0311  -16.8748   21.4136 C   0  0  2  0  0  0  0  0  0  0  0  0
    9.7682  -17.4077   20.9017 N   0  0  0  0  0  0  0  0  0  0  0  0
   10.8595  -16.5196   22.8815 C   0  0  0  0  0  0  0  0  0  0  0  0
   11.7642  -15.8974   23.4789 O   0  0  0  0  0  0  0  0  0  0  0  0
    9.6854  -16.8904   23.5578 N   0  0  0  0  0  0  0  0  0  0  0  0
    9.4376  -16.7266   24.9359 C   0  0  1  0  0  0  0  0  0  0  0  0
    8.0105  -16.3654   25.3262 C   0  0  0  0  0  0  0  0  0  0  0  0
    7.5696  -15.0740   24.7403 C   0  0  0  0  0  0  0  0  0  0  0  0
    7.3327  -14.7007   23.4435 C   0  0  0  0  0  0  0  0  0  0  0  0
    6.9783  -13.4195   23.3763 N   0  0  0  0  0  0  0  0  0  0  0  0
    6.9779  -12.9379   24.6321 C   0  0  0  0  0  0  0  0  0  0  0  0
    6.6852  -11.6559   25.1026 C   0  0  0  0  0  0  0  0  0  0  0  0
    6.7653  -11.4164   26.4583 C   0  0  0  0  0  0  0  0  0  0  0  0
    7.1195  -12.3847   27.3541 C   0  0  0  0  0  0  0  0  0  0  0  0
    7.4102  -13.6620   26.8574 C   0  0  0  0  0  0  0  0  0  0  0  0
    7.3429  -13.9437   25.5128 C   0  0  0  0  0  0  0  0  0  0  0  0
   10.0033  -17.8152   25.7304 C   0  0  0  0  0  0  0  0  0  0  0  0
    9.6101  -19.0186   25.4528 O   0  0  0  0  0  0  0  0  0  0  0  0
   13.4921  -17.7204   27.3758 O   0  0  0  0  0  0  0  0  0  0  0  0
   12.8840  -18.9742   27.3813 C   0  0  0  0  0  0  0  0  0  0  0  0
   11.4072  -18.7939   27.4935 C   0  0  2  0  0  0  0  0  0  0  0  0
   10.9426  -17.6272   26.7765 N   0  0  0  0  0  0  0  0  0  0  0  0
   11.0756  -18.6129   28.9465 C   0  0  0  0  0  0  0  0  0  0  0  0
   11.3888  -19.5502   29.9021 O   0  0  0  0  0  0  0  0  0  0  0  0
   10.4878  -17.5565   29.2884 O   0  0  0  0  0  0  0  0  0  0  0  0
  2  1  1  0
  3  2  2  0
  4  5  1  0
  4  2  1  0
  5  6  1  6
  7  8  2  0
  7  5  1  0
  9  7  1  0
 10  9  1  0
 11 12  1  0
 10 11  1  6
 12 13  2  0
 12 20  1  0
 13 14  1  0
 14 15  1  0
 15 16  2  0
 16 17  1  0
 18 17  2  0
 19 18  1  0
 20 19  2  0
 20 15  1  0
 21 22  2  0
 21 10  1  0
 23 24  1  0
 25 26  1  0
 25 24  1  1
 26 21  1  0
 27 25  1  0
 28 27  1  0
 29 27  2  0
M  END
$$$$
