RYF.pdb
     RDKit          3D

 35 36  0  0  1  0  0  0  0  0999 V2000
    7.9033  -13.4188   17.6194 N   0  0  0  0  0  0  0  0  0  0  0  0
    8.4205  -13.3299   18.9326 C   0  0  0  0  0  0  0  0  0  0  0  0
    8.8338  -12.2322   19.4224 N   0  0  0  0  0  0  0  0  0  0  0  0
    8.4921  -14.5020   19.7610 N   0  0  0  0  0  0  0  0  0  0  0  0
    7.5233  -15.5558   19.5738 C   0  0  0  0  0  0  0  0  0  0  0  0
    6.3755  -15.3345   20.5229 C   0  0  0  0  0  0  0  0  0  0  0  0
    5.3113  -16.3730   20.3978 C   0  0  0  0  0  0  0  0  0  0  0  0
    5.8372  -17.6943   20.8519 C   0  0  2  0  0  0  0  0  0  0  0  0
    4.8593  -18.7168   20.4983 N   0  0  0  0  0  0  0  0  0  0  0  0
    6.0407  -17.7188   22.3432 C   0  0  0  0  0  0  0  0  0  0  0  0
    5.1302  -17.3457   23.1278 O   0  0  0  0  0  0  0  0  0  0  0  0
    9.2275  -12.1431   20.3769 O   0  0  0  0  0  0  0  0  0  0  0  0
    9.6021  -19.9181   30.2140 C   0  0  0  0  0  0  0  0  0  0  0  0
    9.1094  -19.8029   28.9311 C   0  0  0  0  0  0  0  0  0  0  0  0
    7.8030  -19.5598   28.6449 C   0  0  0  0  0  0  0  0  0  0  0  0
    7.3330  -19.4483   27.3447 C   0  0  0  0  0  0  0  0  0  0  0  0
    8.1941  -19.5830   26.2763 C   0  0  0  0  0  0  0  0  0  0  0  0
    7.7041  -19.4640   24.9087 C   0  0  1  0  0  0  0  0  0  0  0  0
    7.4750  -18.0834   24.3726 N   0  0  0  0  0  0  0  0  0  0  0  0
    7.2525  -18.1580   22.9207 C   0  0  0  0  0  0  0  0  0  0  0  0
    8.5155  -17.0970   24.6805 O   0  0  0  0  0  0  0  0  0  0  0  0
    9.5971  -17.1400   23.9740 C   0  0  0  0  0  0  0  0  0  0  0  0
    9.5336  -19.8325   26.5846 C   0  0  0  0  0  0  0  0  0  0  0  0
    9.9892  -19.9413   27.8761 N   0  0  0  0  0  0  0  0  0  0  0  0
    8.5094  -16.0806   25.6488 C   0  0  2  0  0  0  0  0  0  0  0  0
    9.7089  -15.3424   26.0223 C   0  0  0  0  0  0  0  0  0  0  0  0
    9.5296  -13.9468   25.4800 C   0  0  0  0  0  0  0  0  0  0  0  0
    8.2862  -13.3002   25.9263 C   0  0  0  0  0  0  0  0  0  0  0  0
    7.3964  -14.0606   26.6581 C   0  0  0  0  0  0  0  0  0  0  0  0
    6.2060  -13.4977   27.1047 C   0  0  0  0  0  0  0  0  0  0  0  0
    5.9069  -12.1983   26.8268 C   0  0  0  0  0  0  0  0  0  0  0  0
    6.7610  -11.4192   26.1077 C   0  0  0  0  0  0  0  0  0  0  0  0
    7.9503  -11.9969   25.6667 C   0  0  0  0  0  0  0  0  0  0  0  0
    9.8184  -15.2333   27.4727 O   0  0  0  0  0  0  0  0  0  0  0  0
    8.7939  -15.5662   28.1610 O   0  0  0  0  0  0  0  0  0  0  0  0
  2  3  2  0
  2  1  1  0
  4  2  1  0
  5  4  1  0
  6  7  1  0
  6  5  1  0
  7  8  1  0
  8 10  1  0
  8  9  1  1
 10 19  1  0
 10 11  2  0
 12 13  1  0
 13 14  2  0
 14 15  1  0
 16 17  1  0
 16 15  2  0
 18 17  1  1
 18 20  1  0
 19 18  1  0
 20 21  2  0
 22 16  1  0
 23 22  2  0
 23 13  1  0
 24 20  1  0
 24 25  1  0
 25 33  1  0
 25 26  1  1
 27 26  1  0
 27 32  1  0
 28 27  2  0
 29 28  1  0
 29 30  2  0
 30 31  1  0
 31 32  2  0
 33 35  1  0
 34 33  2  0
M  END
$$$$
