RYF.pdb
     RDKit          3D

 35 36  0  0  1  0  0  0  0  0999 V2000
   12.6474  -18.8205   18.3008 N   0  0  0  0  0  0  0  0  0  0  0  0
   12.0424  -19.5948   17.2837 C   0  0  0  0  0  0  0  0  0  0  0  0
   12.7241  -20.3104   16.4845 N   0  0  0  0  0  0  0  0  0  0  0  0
   10.6139  -19.5907   17.1268 N   0  0  0  0  0  0  0  0  0  0  0  0
    9.8049  -18.8554   18.0696 C   0  0  0  0  0  0  0  0  0  0  0  0
    9.2811  -17.6147   17.3961 C   0  0  0  0  0  0  0  0  0  0  0  0
    7.8529  -17.3351   17.7256 C   0  0  0  0  0  0  0  0  0  0  0  0
    7.3116  -18.4217   18.5946 C   0  0  2  0  0  0  0  0  0  0  0  0
    6.1814  -19.0327   17.9048 N   0  0  0  0  0  0  0  0  0  0  0  0
    6.8331  -17.8790   19.9147 C   0  0  0  0  0  0  0  0  0  0  0  0
    6.1223  -16.8419   19.9698 O   0  0  0  0  0  0  0  0  0  0  0  0
   12.3111  -20.8381   15.6939 O   0  0  0  0  0  0  0  0  0  0  0  0
    0.9990  -20.6638   20.3302 C   0  0  0  0  0  0  0  0  0  0  0  0
    2.1743  -20.3284   20.9689 C   0  0  0  0  0  0  0  0  0  0  0  0
    3.3095  -21.0724   20.8970 C   0  0  0  0  0  0  0  0  0  0  0  0
    4.4794  -20.7124   21.5497 C   0  0  0  0  0  0  0  0  0  0  0  0
    4.5305  -19.5628   22.3092 C   0  0  0  0  0  0  0  0  0  0  0  0
    5.7588  -19.1802   22.9943 C   0  0  2  0  0  0  0  0  0  0  0  0
    6.5605  -18.0595   22.4050 N   0  0  0  0  0  0  0  0  0  0  0  0
    7.1588  -18.5058   21.1378 C   0  0  0  0  0  0  0  0  0  0  0  0
    7.5855  -17.4787   23.2780 O   0  0  0  0  0  0  0  0  0  0  0  0
    8.6814  -18.1476   23.4277 C   0  0  0  0  0  0  0  0  0  0  0  0
    3.3570  -18.8077   22.3745 C   0  0  0  0  0  0  0  0  0  0  0  0
    2.2033  -19.1730   21.7243 N   0  0  0  0  0  0  0  0  0  0  0  0
    7.5572  -16.2684   23.9887 C   0  0  2  0  0  0  0  0  0  0  0  0
    8.6796  -15.8010   24.7919 C   0  0  0  0  0  0  0  0  0  0  0  0
    8.5217  -14.3057   24.9052 C   0  0  0  0  0  0  0  0  0  0  0  0
    8.2143  -13.6504   23.6249 C   0  0  0  0  0  0  0  0  0  0  0  0
    9.2191  -13.5881   22.6804 C   0  0  0  0  0  0  0  0  0  0  0  0
    8.9810  -12.9796   21.4529 C   0  0  0  0  0  0  0  0  0  0  0  0
    7.7618  -12.4418   21.1711 C   0  0  0  0  0  0  0  0  0  0  0  0
    6.7481  -12.4852   22.0788 C   0  0  0  0  0  0  0  0  0  0  0  0
    7.0013  -13.0982   23.3047 C   0  0  0  0  0  0  0  0  0  0  0  0
    8.6121  -16.3478   26.1425 O   0  0  0  0  0  0  0  0  0  0  0  0
    9.5395  -16.0099   26.9548 O   0  0  0  0  0  0  0  0  0  0  0  0
  2  3  2  0
  2  1  1  0
  4  2  1  0
  5  4  1  0
  6  7  1  0
  6  5  1  0
  7  8  1  0
  8 10  1  0
  8  9  1  6
 10 19  1  0
 10 11  2  0
 12 13  1  0
 13 14  2  0
 14 15  1  0
 16 17  1  0
 16 15  2  0
 18 17  1  6
 18 20  1  0
 19 18  1  0
 20 21  2  0
 22 16  1  0
 23 22  2  0
 23 13  1  0
 24 20  1  0
 24 25  1  0
 25 33  1  0
 25 26  1  6
 27 26  1  0
 27 32  1  0
 28 27  2  0
 29 28  1  0
 29 30  2  0
 30 31  1  0
 31 32  2  0
 33 35  1  0
 34 33  2  0
M  END
$$$$
