RYF.pdb
     RDKit          3D

 35 36  0  0  1  0  0  0  0  0999 V2000
    9.4462  -14.5881   15.1073 N   0  0  0  0  0  0  0  0  0  0  0  0
    8.3994  -14.7008   14.1632 C   0  0  0  0  0  0  0  0  0  0  0  0
    8.5591  -14.3984   12.9391 N   0  0  0  0  0  0  0  0  0  0  0  0
    7.1044  -15.1695   14.5739 N   0  0  0  0  0  0  0  0  0  0  0  0
    6.9392  -15.7029   15.9051 C   0  0  0  0  0  0  0  0  0  0  0  0
    7.9440  -16.8046   16.1149 C   0  0  0  0  0  0  0  0  0  0  0  0
    7.8446  -17.4302   17.4660 C   0  0  0  0  0  0  0  0  0  0  0  0
    8.8868  -18.4892   17.6116 C   0  0  2  0  0  0  0  0  0  0  0  0
    8.3319  -19.7424   17.1132 N   0  0  0  0  0  0  0  0  0  0  0  0
    9.2788  -18.6763   19.0529 C   0  0  0  0  0  0  0  0  0  0  0  0
    8.7071  -19.5350   19.7738 O   0  0  0  0  0  0  0  0  0  0  0  0
    7.8094  -14.4751   12.2276 O   0  0  0  0  0  0  0  0  0  0  0  0
   16.5551  -20.2248   19.1614 C   0  0  0  0  0  0  0  0  0  0  0  0
   15.4577  -19.5466   19.6487 C   0  0  0  0  0  0  0  0  0  0  0  0
   14.8253  -18.5520   18.9719 C   0  0  0  0  0  0  0  0  0  0  0  0
   13.7224  -17.8853   19.4850 C   0  0  0  0  0  0  0  0  0  0  0  0
   13.2203  -18.2168   20.7256 C   0  0  0  0  0  0  0  0  0  0  0  0
   12.0601  -17.5201   21.2669 C   0  0  2  0  0  0  0  0  0  0  0  0
   10.7137  -18.1388   21.0431 N   0  0  0  0  0  0  0  0  0  0  0  0
   10.2968  -17.9024   19.6526 C   0  0  0  0  0  0  0  0  0  0  0  0
    9.6570  -17.7241   21.9714 O   0  0  0  0  0  0  0  0  0  0  0  0
    9.5087  -18.4243   23.0477 C   0  0  0  0  0  0  0  0  0  0  0  0
   13.8797  -19.2405   21.4103 C   0  0  0  0  0  0  0  0  0  0  0  0
   14.9715  -19.8947   20.8932 N   0  0  0  0  0  0  0  0  0  0  0  0
    8.7633  -16.6466   21.8670 C   0  0  1  0  0  0  0  0  0  0  0  0
    8.4921  -15.7391   22.9743 C   0  0  0  0  0  0  0  0  0  0  0  0
    7.4746  -14.7487   22.4668 C   0  0  0  0  0  0  0  0  0  0  0  0
    7.8945  -14.0538   21.2404 C   0  0  0  0  0  0  0  0  0  0  0  0
    7.1828  -14.3079   20.0853 C   0  0  0  0  0  0  0  0  0  0  0  0
    7.5380  -13.6768   18.8982 C   0  0  0  0  0  0  0  0  0  0  0  0
    8.5854  -12.8068   18.8626 C   0  0  0  0  0  0  0  0  0  0  0  0
    9.3093  -12.5327   19.9826 C   0  0  0  0  0  0  0  0  0  0  0  0
    8.9417  -13.1726   21.1650 C   0  0  0  0  0  0  0  0  0  0  0  0
    7.8829  -16.4532   24.0908 O   0  0  0  0  0  0  0  0  0  0  0  0
    7.6833  -17.7069   23.9411 O   0  0  0  0  0  0  0  0  0  0  0  0
  2  3  2  0
  2  1  1  0
  4  2  1  0
  5  4  1  0
  6  7  1  0
  6  5  1  0
  7  8  1  0
  8 10  1  0
  8  9  1  1
 10 19  1  0
 10 11  2  0
 12 13  1  0
 13 14  2  0
 14 15  1  0
 16 17  1  0
 16 15  2  0
 18 17  1  6
 18 20  1  0
 19 18  1  0
 20 21  2  0
 22 16  1  0
 23 22  2  0
 23 13  1  0
 24 20  1  0
 24 25  1  0
 25 33  1  0
 25 26  1  1
 27 26  1  0
 27 32  1  0
 28 27  2  0
 29 28  1  0
 29 30  2  0
 30 31  1  0
 31 32  2  0
 33 35  1  0
 34 33  2  0
M  END
$$$$
