RYF.pdb
     RDKit          3D

 35 36  0  0  1  0  0  0  0  0999 V2000
    8.1672  -19.3388   16.5338 N   0  0  0  0  0  0  0  0  0  0  0  0
    8.7413  -20.6269   16.4285 C   0  0  0  0  0  0  0  0  0  0  0  0
    8.7322  -21.2831   15.3400 N   0  0  0  0  0  0  0  0  0  0  0  0
    9.3612  -21.2366   17.5728 N   0  0  0  0  0  0  0  0  0  0  0  0
    9.2580  -20.5872   18.8580 C   0  0  0  0  0  0  0  0  0  0  0  0
   10.4859  -19.7432   19.0756 C   0  0  0  0  0  0  0  0  0  0  0  0
   10.4978  -19.0698   20.4071 C   0  0  0  0  0  0  0  0  0  0  0  0
    9.4559  -18.0012   20.4436 C   0  0  2  0  0  0  0  0  0  0  0  0
    9.2996  -17.4746   19.0928 N   0  0  0  0  0  0  0  0  0  0  0  0
    9.8603  -16.8739   21.3555 C   0  0  0  0  0  0  0  0  0  0  0  0
   11.0720  -16.5762   21.5200 O   0  0  0  0  0  0  0  0  0  0  0  0
    9.1870  -22.2071   15.2244 O   0  0  0  0  0  0  0  0  0  0  0  0
    7.4452  -12.9152   17.0033 C   0  0  0  0  0  0  0  0  0  0  0  0
    7.7204  -13.1055   18.3412 C   0  0  0  0  0  0  0  0  0  0  0  0
    8.7923  -12.5603   18.9747 C   0  0  0  0  0  0  0  0  0  0  0  0
    9.0465  -12.7676   20.3225 C   0  0  0  0  0  0  0  0  0  0  0  0
    8.2017  -13.5504   21.0806 C   0  0  0  0  0  0  0  0  0  0  0  0
    8.4644  -13.7683   22.4977 C   0  0  2  0  0  0  0  0  0  0  0  0
    9.3060  -14.9502   22.8725 N   0  0  0  0  0  0  0  0  0  0  0  0
    8.9046  -16.1083   22.0596 C   0  0  0  0  0  0  0  0  0  0  0  0
    9.3153  -15.3030   24.2958 O   0  0  0  0  0  0  0  0  0  0  0  0
    9.9846  -14.5337   25.0901 C   0  0  0  0  0  0  0  0  0  0  0  0
    7.1043  -14.1044   20.4171 C   0  0  0  0  0  0  0  0  0  0  0  0
    6.8614  -13.8931   19.0816 N   0  0  0  0  0  0  0  0  0  0  0  0
    8.6826  -16.3759   24.9434 C   0  0  1  0  0  0  0  0  0  0  0  0
    8.7393  -16.5676   26.3868 C   0  0  0  0  0  0  0  0  0  0  0  0
    7.3533  -16.2762   26.9044 C   0  0  0  0  0  0  0  0  0  0  0  0
    6.9657  -14.8631   26.7776 C   0  0  0  0  0  0  0  0  0  0  0  0
    7.7416  -13.9257   27.4293 C   0  0  0  0  0  0  0  0  0  0  0  0
    7.4191  -12.5759   27.3417 C   0  0  0  0  0  0  0  0  0  0  0  0
    6.3411  -12.1667   26.6168 C   0  0  0  0  0  0  0  0  0  0  0  0
    5.5539  -13.0635   25.9614 C   0  0  0  0  0  0  0  0  0  0  0  0
    5.8893  -14.4129   26.0581 C   0  0  0  0  0  0  0  0  0  0  0  0
    9.0406  -17.9571   26.7124 O   0  0  0  0  0  0  0  0  0  0  0  0
    9.2121  -18.2422   27.9467 O   0  0  0  0  0  0  0  0  0  0  0  0
  2  3  2  0
  2  1  1  0
  4  2  1  0
  5  4  1  0
  6  7  1  0
  6  5  1  0
  7  8  1  0
  8 10  1  0
  8  9  1  6
 10 19  1  0
 10 11  2  0
 12 13  1  0
 13 14  2  0
 14 15  1  0
 16 17  1  0
 16 15  2  0
 18 17  1  6
 18 20  1  0
 19 18  1  0
 20 21  2  0
 22 16  1  0
 23 22  2  0
 23 13  1  0
 24 20  1  0
 24 25  1  0
 25 33  1  0
 25 26  1  1
 27 26  1  0
 27 32  1  0
 28 27  2  0
 29 28  1  0
 29 30  2  0
 30 31  1  0
 31 32  2  0
 33 35  1  0
 34 33  2  0
M  END
$$$$
