RYF.pdb
     RDKit          3D

 35 36  0  0  1  0  0  0  0  0999 V2000
    8.4932  -12.3085   17.4024 N   0  0  0  0  0  0  0  0  0  0  0  0
    8.7225  -13.6544   17.0335 C   0  0  0  0  0  0  0  0  0  0  0  0
    9.5347  -13.9718   16.1088 N   0  0  0  0  0  0  0  0  0  0  0  0
    8.0288  -14.7162   17.7093 N   0  0  0  0  0  0  0  0  0  0  0  0
    6.9903  -14.3869   18.6564 C   0  0  0  0  0  0  0  0  0  0  0  0
    7.5267  -14.5764   20.0506 C   0  0  0  0  0  0  0  0  0  0  0  0
    6.6429  -15.4262   20.9012 C   0  0  0  0  0  0  0  0  0  0  0  0
    7.2738  -16.7631   21.1096 C   0  0  2  0  0  0  0  0  0  0  0  0
    6.2860  -17.7856   20.7850 N   0  0  0  0  0  0  0  0  0  0  0  0
    7.7046  -16.9474   22.5401 C   0  0  0  0  0  0  0  0  0  0  0  0
    6.8764  -16.8561   23.4834 O   0  0  0  0  0  0  0  0  0  0  0  0
    9.7866  -14.9504   15.8787 O   0  0  0  0  0  0  0  0  0  0  0  0
   12.6425  -19.5057   29.5150 C   0  0  0  0  0  0  0  0  0  0  0  0
   12.1457  -19.2393   28.2564 C   0  0  0  0  0  0  0  0  0  0  0  0
   12.9129  -18.8132   27.2185 C   0  0  0  0  0  0  0  0  0  0  0  0
   12.3880  -18.5521   25.9613 C   0  0  0  0  0  0  0  0  0  0  0  0
   11.0412  -18.7200   25.7177 C   0  0  0  0  0  0  0  0  0  0  0  0
   10.4866  -18.4490   24.3974 C   0  0  1  0  0  0  0  0  0  0  0  0
    9.4621  -17.3610   24.2863 N   0  0  0  0  0  0  0  0  0  0  0  0
    9.0460  -17.2286   22.8819 C   0  0  0  0  0  0  0  0  0  0  0  0
    9.8537  -16.0561   24.8288 O   0  0  0  0  0  0  0  0  0  0  0  0
   10.6145  -15.3149   24.0922 C   0  0  0  0  0  0  0  0  0  0  0  0
   10.2645  -19.1583   26.7930 C   0  0  0  0  0  0  0  0  0  0  0  0
   10.7942  -19.4140   28.0345 N   0  0  0  0  0  0  0  0  0  0  0  0
    9.5104  -15.4724   26.0585 C   0  0  2  0  0  0  0  0  0  0  0  0
   10.3711  -14.5167   26.7435 C   0  0  0  0  0  0  0  0  0  0  0  0
    9.8030  -13.1517   26.4473 C   0  0  0  0  0  0  0  0  0  0  0  0
    8.3553  -13.0547   26.6886 C   0  0  0  0  0  0  0  0  0  0  0  0
    7.8026  -11.7922   26.7657 C   0  0  0  0  0  0  0  0  0  0  0  0
    6.4385  -11.6444   26.9920 C   0  0  0  0  0  0  0  0  0  0  0  0
    5.6383  -12.7367   27.1392 C   0  0  0  0  0  0  0  0  0  0  0  0
    6.1495  -13.9966   27.0691 C   0  0  0  0  0  0  0  0  0  0  0  0
    7.5182  -14.1292   26.8417 C   0  0  0  0  0  0  0  0  0  0  0  0
   10.3093  -14.7080   28.1882 O   0  0  0  0  0  0  0  0  0  0  0  0
   10.9779  -13.8943   28.9127 O   0  0  0  0  0  0  0  0  0  0  0  0
  2  3  2  0
  2  1  1  0
  4  2  1  0
  5  4  1  0
  6  7  1  0
  6  5  1  0
  7  8  1  0
  8 10  1  0
  8  9  1  1
 10 19  1  0
 10 11  2  0
 12 13  1  0
 13 14  2  0
 14 15  1  0
 16 17  1  0
 16 15  2  0
 18 17  1  1
 18 20  1  0
 19 18  1  0
 20 21  2  0
 22 16  1  0
 23 22  2  0
 23 13  1  0
 24 20  1  0
 24 25  1  0
 25 33  1  0
 25 26  1  6
 27 26  1  0
 27 32  1  0
 28 27  2  0
 29 28  1  0
 29 30  2  0
 30 31  1  0
 31 32  2  0
 33 35  1  0
 34 33  2  0
M  END
$$$$
