RYF.pdb
     RDKit          3D

 35 36  0  0  1  0  0  0  0  0999 V2000
    2.4016  -21.1721   20.5660 N   0  0  0  0  0  0  0  0  0  0  0  0
    2.4666  -19.7594   20.5610 C   0  0  0  0  0  0  0  0  0  0  0  0
    1.6929  -19.0456   21.2733 N   0  0  0  0  0  0  0  0  0  0  0  0
    3.4285  -19.0841   19.7339 N   0  0  0  0  0  0  0  0  0  0  0  0
    4.8343  -19.3436   19.9349 C   0  0  0  0  0  0  0  0  0  0  0  0
    5.6147  -18.1143   19.5511 C   0  0  0  0  0  0  0  0  0  0  0  0
    6.7560  -17.8411   20.4727 C   0  0  0  0  0  0  0  0  0  0  0  0
    6.9500  -16.3678   20.6158 C   0  0  2  0  0  0  0  0  0  0  0  0
    7.5278  -15.8644   19.3751 N   0  0  0  0  0  0  0  0  0  0  0  0
    7.8884  -16.0471   21.7482 C   0  0  0  0  0  0  0  0  0  0  0  0
    9.0893  -16.4227   21.7210 O   0  0  0  0  0  0  0  0  0  0  0  0
    1.6931  -18.0094   21.2571 O   0  0  0  0  0  0  0  0  0  0  0  0
   10.0241  -13.6647   30.1402 C   0  0  0  0  0  0  0  0  0  0  0  0
    9.4510  -13.7843   28.8916 C   0  0  0  0  0  0  0  0  0  0  0  0
    8.1242  -13.9990   28.6891 C   0  0  0  0  0  0  0  0  0  0  0  0
    7.5728  -14.1155   27.4217 C   0  0  0  0  0  0  0  0  0  0  0  0
    8.3696  -14.0151   26.3009 C   0  0  0  0  0  0  0  0  0  0  0  0
    7.7932  -14.1346   24.9676 C   0  0  1  0  0  0  0  0  0  0  0  0
    8.2923  -15.2453   24.0941 N   0  0  0  0  0  0  0  0  0  0  0  0
    7.4645  -15.3168   22.8805 C   0  0  0  0  0  0  0  0  0  0  0  0
    8.3858  -16.5644   24.7278 O   0  0  0  0  0  0  0  0  0  0  0  0
    7.2878  -17.0890   25.1635 C   0  0  0  0  0  0  0  0  0  0  0  0
    9.7310  -13.7944   26.5234 C   0  0  0  0  0  0  0  0  0  0  0  0
   10.2674  -13.6805   27.7830 N   0  0  0  0  0  0  0  0  0  0  0  0
    9.5190  -17.3678   24.9306 C   0  0  1  0  0  0  0  0  0  0  0  0
    9.5377  -18.4782   25.8740 C   0  0  0  0  0  0  0  0  0  0  0  0
    9.6595  -19.7320   25.0452 C   0  0  0  0  0  0  0  0  0  0  0  0
    8.4198  -20.0907   24.3397 C   0  0  0  0  0  0  0  0  0  0  0  0
    8.3495  -19.8149   22.9889 C   0  0  0  0  0  0  0  0  0  0  0  0
    7.2001  -20.1341   22.2743 C   0  0  0  0  0  0  0  0  0  0  0  0
    6.1381  -20.7185   22.8953 C   0  0  0  0  0  0  0  0  0  0  0  0
    6.1727  -21.0046   24.2259 C   0  0  0  0  0  0  0  0  0  0  0  0
    7.3312  -20.6791   24.9292 C   0  0  0  0  0  0  0  0  0  0  0  0
   10.7158  -18.4087   26.7311 O   0  0  0  0  0  0  0  0  0  0  0  0
   11.5401  -17.4564   26.5123 O   0  0  0  0  0  0  0  0  0  0  0  0
  2  3  2  0
  2  1  1  0
  4  2  1  0
  5  4  1  0
  6  7  1  0
  6  5  1  0
  7  8  1  0
  8 10  1  0
  8  9  1  6
 10 19  1  0
 10 11  2  0
 12 13  1  0
 13 14  2  0
 14 15  1  0
 16 17  1  0
 16 15  2  0
 18 17  1  6
 18 20  1  0
 19 18  1  0
 20 21  2  0
 22 16  1  0
 23 22  2  0
 23 13  1  0
 24 20  1  0
 24 25  1  0
 25 33  1  0
 25 26  1  1
 27 26  1  0
 27 32  1  0
 28 27  2  0
 29 28  1  0
 29 30  2  0
 30 31  1  0
 31 32  2  0
 33 35  1  0
 34 33  2  0
M  END
$$$$
