RYF.pdb
     RDKit          3D

 35 36  0  0  1  0  0  0  0  0999 V2000
    7.6790  -13.3746   16.6312 N   0  0  0  0  0  0  0  0  0  0  0  0
    8.1354  -14.0335   15.4661 C   0  0  0  0  0  0  0  0  0  0  0  0
    8.0454  -13.5059   14.3132 N   0  0  0  0  0  0  0  0  0  0  0  0
    8.7237  -15.3413   15.5601 N   0  0  0  0  0  0  0  0  0  0  0  0
    8.6725  -16.0467   16.8186 C   0  0  0  0  0  0  0  0  0  0  0  0
    9.5548  -15.3354   17.8101 C   0  0  0  0  0  0  0  0  0  0  0  0
   10.7171  -16.1618   18.2489 C   0  0  0  0  0  0  0  0  0  0  0  0
   10.2965  -17.0873   19.3422 C   0  0  2  0  0  0  0  0  0  0  0  0
    8.9800  -17.6167   19.0061 N   0  0  0  0  0  0  0  0  0  0  0  0
   10.2034  -16.3687   20.6616 C   0  0  0  0  0  0  0  0  0  0  0  0
   11.1960  -15.7604   21.1398 O   0  0  0  0  0  0  0  0  0  0  0  0
    8.3806  -13.9638   13.4460 O   0  0  0  0  0  0  0  0  0  0  0  0
    6.6574  -12.1232   27.6329 C   0  0  0  0  0  0  0  0  0  0  0  0
    6.8928  -12.8321   26.4736 C   0  0  0  0  0  0  0  0  0  0  0  0
    7.5054  -12.3059   25.3803 C   0  0  0  0  0  0  0  0  0  0  0  0
    7.7303  -13.0412   24.2257 C   0  0  0  0  0  0  0  0  0  0  0  0
    7.3313  -14.3587   24.1474 C   0  0  0  0  0  0  0  0  0  0  0  0
    7.5682  -15.1350   22.9368 C   0  0  2  0  0  0  0  0  0  0  0  0
    8.9455  -15.6867   22.7260 N   0  0  0  0  0  0  0  0  0  0  0  0
    9.0076  -16.3466   21.4131 C   0  0  0  0  0  0  0  0  0  0  0  0
    9.4420  -16.5846   23.7736 O   0  0  0  0  0  0  0  0  0  0  0  0
    9.2784  -17.8535   23.5897 C   0  0  0  0  0  0  0  0  0  0  0  0
    6.7031  -14.8867   25.2780 C   0  0  0  0  0  0  0  0  0  0  0  0
    6.4850  -14.1499   26.4168 N   0  0  0  0  0  0  0  0  0  0  0  0
   10.0928  -16.2640   24.9754 C   0  0  2  0  0  0  0  0  0  0  0  0
   10.8110  -17.2526   25.7694 C   0  0  0  0  0  0  0  0  0  0  0  0
   11.5879  -16.4775   26.8035 C   0  0  0  0  0  0  0  0  0  0  0  0
   10.7348  -15.7074   27.7214 C   0  0  0  0  0  0  0  0  0  0  0  0
   10.5146  -16.2294   28.9802 C   0  0  0  0  0  0  0  0  0  0  0  0
    9.7160  -15.5412   29.8870 C   0  0  0  0  0  0  0  0  0  0  0  0
    9.1459  -14.3524   29.5451 C   0  0  0  0  0  0  0  0  0  0  0  0
    9.3415  -13.8082   28.3126 C   0  0  0  0  0  0  0  0  0  0  0  0
   10.1443  -14.5091   27.4143 C   0  0  0  0  0  0  0  0  0  0  0  0
    9.8791  -18.1170   26.4850 O   0  0  0  0  0  0  0  0  0  0  0  0
    8.6334  -17.8565   26.3650 O   0  0  0  0  0  0  0  0  0  0  0  0
  2  3  2  0
  2  1  1  0
  4  2  1  0
  5  4  1  0
  6  7  1  0
  6  5  1  0
  7  8  1  0
  8 10  1  0
  8  9  1  6
 10 19  1  0
 10 11  2  0
 12 13  1  0
 13 14  2  0
 14 15  1  0
 16 17  1  0
 16 15  2  0
 18 17  1  6
 18 20  1  0
 19 18  1  0
 20 21  2  0
 22 16  1  0
 23 22  2  0
 23 13  1  0
 24 20  1  0
 24 25  1  0
 25 33  1  0
 25 26  1  6
 27 26  1  0
 27 32  1  0
 28 27  2  0
 29 28  1  0
 29 30  2  0
 30 31  1  0
 31 32  2  0
 33 35  1  0
 34 33  2  0
M  END
$$$$
