RYF.pdb
     RDKit          3D

 35 36  0  0  1  0  0  0  0  0999 V2000
    8.1501  -13.5457   16.2417 N   0  0  0  0  0  0  0  0  0  0  0  0
    8.5565  -13.7435   17.5817 C   0  0  0  0  0  0  0  0  0  0  0  0
    9.0190  -12.7974   18.2934 N   0  0  0  0  0  0  0  0  0  0  0  0
    8.4538  -15.0450   18.1824 N   0  0  0  0  0  0  0  0  0  0  0  0
    7.1899  -15.4646   18.7397 C   0  0  0  0  0  0  0  0  0  0  0  0
    7.0927  -14.9620   20.1558 C   0  0  0  0  0  0  0  0  0  0  0  0
    5.9331  -15.5383   20.8972 C   0  0  0  0  0  0  0  0  0  0  0  0
    6.1936  -16.9753   21.2070 C   0  0  2  0  0  0  0  0  0  0  0  0
    5.0438  -17.7514   20.7572 N   0  0  0  0  0  0  0  0  0  0  0  0
    6.3716  -17.1924   22.6859 C   0  0  0  0  0  0  0  0  0  0  0  0
    5.4345  -16.9585   23.4928 O   0  0  0  0  0  0  0  0  0  0  0  0
    9.4604  -12.9408   19.2200 O   0  0  0  0  0  0  0  0  0  0  0  0
    8.9644  -21.3241   30.0678 C   0  0  0  0  0  0  0  0  0  0  0  0
    8.7638  -20.8620   28.7840 C   0  0  0  0  0  0  0  0  0  0  0  0
    9.7706  -20.6333   27.8999 C   0  0  0  0  0  0  0  0  0  0  0  0
    9.5415  -20.1680   26.6133 C   0  0  0  0  0  0  0  0  0  0  0  0
    8.2571  -19.9169   26.1793 C   0  0  0  0  0  0  0  0  0  0  0  0
    8.0126  -19.4303   24.8273 C   0  0  1  0  0  0  0  0  0  0  0  0
    7.7165  -17.9709   24.6593 N   0  0  0  0  0  0  0  0  0  0  0  0
    7.5882  -17.6642   23.2266 C   0  0  0  0  0  0  0  0  0  0  0  0
    8.6619  -17.0490   25.2970 O   0  0  0  0  0  0  0  0  0  0  0  0
    9.7084  -16.7130   24.6168 C   0  0  0  0  0  0  0  0  0  0  0  0
    7.2322  -20.1562   27.0979 C   0  0  0  0  0  0  0  0  0  0  0  0
    7.4696  -20.6170   28.3702 N   0  0  0  0  0  0  0  0  0  0  0  0
    8.5947  -16.4546   26.5670 C   0  0  2  0  0  0  0  0  0  0  0  0
    9.5893  -15.5023   27.0436 C   0  0  0  0  0  0  0  0  0  0  0  0
    8.9074  -14.6792   28.1073 C   0  0  0  0  0  0  0  0  0  0  0  0
    7.7362  -13.9388   27.6141 C   0  0  0  0  0  0  0  0  0  0  0  0
    7.8736  -13.2368   26.4334 C   0  0  0  0  0  0  0  0  0  0  0  0
    6.7969  -12.5201   25.9228 C   0  0  0  0  0  0  0  0  0  0  0  0
    5.6028  -12.5031   26.5778 C   0  0  0  0  0  0  0  0  0  0  0  0
    5.4317  -13.1838   27.7444 C   0  0  0  0  0  0  0  0  0  0  0  0
    6.5196  -13.8976   28.2441 C   0  0  0  0  0  0  0  0  0  0  0  0
   10.7048  -16.1943   27.6794 O   0  0  0  0  0  0  0  0  0  0  0  0
   11.6665  -15.4728   28.1140 O   0  0  0  0  0  0  0  0  0  0  0  0
  2  3  2  0
  2  1  1  0
  4  2  1  0
  5  4  1  0
  6  7  1  0
  6  5  1  0
  7  8  1  0
  8 10  1  0
  8  9  1  1
 10 19  1  0
 10 11  2  0
 12 13  1  0
 13 14  2  0
 14 15  1  0
 16 17  1  0
 16 15  2  0
 18 17  1  1
 18 20  1  0
 19 18  1  0
 20 21  2  0
 22 16  1  0
 23 22  2  0
 23 13  1  0
 24 20  1  0
 24 25  1  0
 25 33  1  0
 25 26  1  6
 27 26  1  0
 27 32  1  0
 28 27  2  0
 29 28  1  0
 29 30  2  0
 30 31  1  0
 31 32  2  0
 33 35  1  0
 34 33  2  0
M  END
$$$$
