RYF.pdb
     RDKit          3D

 35 36  0  0  1  0  0  0  0  0999 V2000
   11.1729  -19.7284   15.4790 N   0  0  0  0  0  0  0  0  0  0  0  0
   11.7144  -20.5981   14.5041 C   0  0  0  0  0  0  0  0  0  0  0  0
   12.8353  -20.3744   13.9481 N   0  0  0  0  0  0  0  0  0  0  0  0
   10.9959  -21.7791   14.1115 N   0  0  0  0  0  0  0  0  0  0  0  0
    9.6132  -21.9231   14.5008 C   0  0  0  0  0  0  0  0  0  0  0  0
    9.4623  -23.1931   15.2956 C   0  0  0  0  0  0  0  0  0  0  0  0
    9.6418  -24.4206   14.4664 C   0  0  0  0  0  0  0  0  0  0  0  0
    9.3785  -25.6344   15.2948 C   0  0  2  0  0  0  0  0  0  0  0  0
    8.0035  -25.5650   15.7758 N   0  0  0  0  0  0  0  0  0  0  0  0
   10.3010  -25.6965   16.4827 C   0  0  0  0  0  0  0  0  0  0  0  0
    9.9540  -25.2279   17.5980 O   0  0  0  0  0  0  0  0  0  0  0  0
   13.2700  -21.0138   13.2580 O   0  0  0  0  0  0  0  0  0  0  0  0
   16.7750  -28.8722   21.7250 C   0  0  0  0  0  0  0  0  0  0  0  0
   15.9233  -28.5730   20.6824 C   0  0  0  0  0  0  0  0  0  0  0  0
   14.6849  -29.1155   20.5421 C   0  0  0  0  0  0  0  0  0  0  0  0
   13.8473  -28.7973   19.4831 C   0  0  0  0  0  0  0  0  0  0  0  0
   14.2520  -27.9008   18.5170 C   0  0  0  0  0  0  0  0  0  0  0  0
   13.3736  -27.5623   17.4042 C   0  0  2  0  0  0  0  0  0  0  0  0
   12.4481  -26.3971   17.5818 N   0  0  0  0  0  0  0  0  0  0  0  0
   11.5850  -26.2786   16.3968 C   0  0  0  0  0  0  0  0  0  0  0  0
   13.0882  -25.1116   17.8788 O   0  0  0  0  0  0  0  0  0  0  0  0
   13.6001  -24.4635   16.8844 C   0  0  0  0  0  0  0  0  0  0  0  0
   15.5267  -27.3510   18.6733 C   0  0  0  0  0  0  0  0  0  0  0  0
   16.3488  -27.6727   19.7260 N   0  0  0  0  0  0  0  0  0  0  0  0
   13.2252  -24.4582   19.1137 C   0  0  2  0  0  0  0  0  0  0  0  0
   13.9124  -23.1813   19.2563 C   0  0  0  0  0  0  0  0  0  0  0  0
   13.0044  -22.3049   20.0817 C   0  0  0  0  0  0  0  0  0  0  0  0
   11.9086  -21.7028   19.3071 C   0  0  0  0  0  0  0  0  0  0  0  0
   12.2042  -20.6004   18.5306 C   0  0  0  0  0  0  0  0  0  0  0  0
   11.2047  -19.9931   17.7784 C   0  0  0  0  0  0  0  0  0  0  0  0
    9.9314  -20.4762   17.7995 C   0  0  0  0  0  0  0  0  0  0  0  0
    9.6042  -21.5614   18.5537 C   0  0  0  0  0  0  0  0  0  0  0  0
   10.6163  -22.1597   19.3023 C   0  0  0  0  0  0  0  0  0  0  0  0
   15.1549  -23.3433   20.0030 O   0  0  0  0  0  0  0  0  0  0  0  0
   15.9032  -22.3135   20.1194 O   0  0  0  0  0  0  0  0  0  0  0  0
  2  3  2  0
  2  1  1  0
  4  2  1  0
  5  4  1  0
  6  7  1  0
  6  5  1  0
  7  8  1  0
  8 10  1  0
  8  9  1  1
 10 19  1  0
 10 11  2  0
 12 13  1  0
 13 14  2  0
 14 15  1  0
 16 17  1  0
 16 15  2  0
 18 17  1  1
 18 20  1  0
 19 18  1  0
 20 21  2  0
 22 16  1  0
 23 22  2  0
 23 13  1  0
 24 20  1  0
 24 25  1  0
 25 33  1  0
 25 26  1  6
 27 26  1  0
 27 32  1  0
 28 27  2  0
 29 28  1  0
 29 30  2  0
 30 31  1  0
 31 32  2  0
 33 35  1  0
 34 33  2  0
M  END
$$$$
