RYF.pdb
     RDKit          3D

 35 36  0  0  1  0  0  0  0  0999 V2000
    9.4274  -22.1553   19.2197 N   0  0  0  0  0  0  0  0  0  0  0  0
   10.1222  -22.3750   18.0077 C   0  0  0  0  0  0  0  0  0  0  0  0
   10.7726  -23.4444   17.7868 N   0  0  0  0  0  0  0  0  0  0  0  0
   10.1086  -21.3742   16.9764 N   0  0  0  0  0  0  0  0  0  0  0  0
    9.5364  -20.0796   17.2602 C   0  0  0  0  0  0  0  0  0  0  0  0
   10.2268  -19.4971   18.4649 C   0  0  0  0  0  0  0  0  0  0  0  0
    9.7477  -18.1243   18.8003 C   0  0  0  0  0  0  0  0  0  0  0  0
    9.1242  -18.1228   20.1567 C   0  0  2  0  0  0  0  0  0  0  0  0
    7.6775  -18.0454   19.9901 N   0  0  0  0  0  0  0  0  0  0  0  0
    9.5791  -16.9382   20.9665 C   0  0  0  0  0  0  0  0  0  0  0  0
   10.7189  -16.4336   20.7929 O   0  0  0  0  0  0  0  0  0  0  0  0
   11.2337  -23.6582   16.8836 O   0  0  0  0  0  0  0  0  0  0  0  0
    7.1417  -12.8518   16.9986 C   0  0  0  0  0  0  0  0  0  0  0  0
    7.4393  -13.1165   18.3188 C   0  0  0  0  0  0  0  0  0  0  0  0
    8.4419  -12.5042   19.0024 C   0  0  0  0  0  0  0  0  0  0  0  0
    8.7206  -12.7890   20.3311 C   0  0  0  0  0  0  0  0  0  0  0  0
    7.9734  -13.7228   21.0172 C   0  0  0  0  0  0  0  0  0  0  0  0
    8.2619  -14.0228   22.4141 C   0  0  2  0  0  0  0  0  0  0  0  0
    9.1920  -15.1624   22.7002 N   0  0  0  0  0  0  0  0  0  0  0  0
    8.7527  -16.3472   21.9477 C   0  0  0  0  0  0  0  0  0  0  0  0
    9.3784  -15.4958   24.1159 O   0  0  0  0  0  0  0  0  0  0  0  0
   10.3440  -14.9043   24.7394 C   0  0  0  0  0  0  0  0  0  0  0  0
    6.9463  -14.3444   20.3028 C   0  0  0  0  0  0  0  0  0  0  0  0
    6.6784  -14.0553   18.9868 N   0  0  0  0  0  0  0  0  0  0  0  0
    8.6403  -16.3793   24.9193 C   0  0  1  0  0  0  0  0  0  0  0  0
    8.8940  -16.5455   26.3445 C   0  0  0  0  0  0  0  0  0  0  0  0
    7.5952  -16.2294   27.0425 C   0  0  0  0  0  0  0  0  0  0  0  0
    7.1655  -14.8327   26.8759 C   0  0  0  0  0  0  0  0  0  0  0  0
    7.8783  -13.8595   27.5470 C   0  0  0  0  0  0  0  0  0  0  0  0
    7.5140  -12.5232   27.4237 C   0  0  0  0  0  0  0  0  0  0  0  0
    6.4567  -12.1624   26.6444 C   0  0  0  0  0  0  0  0  0  0  0  0
    5.7315  -13.0955   25.9685 C   0  0  0  0  0  0  0  0  0  0  0  0
    6.1083  -14.4308   26.1016 C   0  0  0  0  0  0  0  0  0  0  0  0
    9.2254  -17.9322   26.6524 O   0  0  0  0  0  0  0  0  0  0  0  0
    9.1744  -18.7711   25.6892 O   0  0  0  0  0  0  0  0  0  0  0  0
  2  3  2  0
  2  1  1  0
  4  2  1  0
  5  4  1  0
  6  7  1  0
  6  5  1  0
  7  8  1  0
  8 10  1  0
  8  9  1  6
 10 19  1  0
 10 11  2  0
 12 13  1  0
 13 14  2  0
 14 15  1  0
 16 17  1  0
 16 15  2  0
 18 17  1  6
 18 20  1  0
 19 18  1  0
 20 21  2  0
 22 16  1  0
 23 22  2  0
 23 13  1  0
 24 20  1  0
 24 25  1  0
 25 33  1  0
 25 26  1  1
 27 26  1  0
 27 32  1  0
 28 27  2  0
 29 28  1  0
 29 30  2  0
 30 31  1  0
 31 32  2  0
 33 35  1  0
 34 33  2  0
M  END
$$$$
