RYF.pdb
     RDKit          3D

 35 36  0  0  1  0  0  0  0  0999 V2000
    7.7716  -12.9441   17.6476 N   0  0  0  0  0  0  0  0  0  0  0  0
    8.1971  -12.5882   18.9484 C   0  0  0  0  0  0  0  0  0  0  0  0
    8.5588  -11.4052   19.2402 N   0  0  0  0  0  0  0  0  0  0  0  0
    8.2312  -13.5756   19.9921 N   0  0  0  0  0  0  0  0  0  0  0  0
    7.7714  -14.9144   19.7089 C   0  0  0  0  0  0  0  0  0  0  0  0
    6.2841  -14.9753   19.9363 C   0  0  0  0  0  0  0  0  0  0  0  0
    5.8897  -16.0330   20.9121 C   0  0  0  0  0  0  0  0  0  0  0  0
    7.1051  -16.7469   21.4039 C   0  0  2  0  0  0  0  0  0  0  0  0
    7.1238  -18.0759   20.8038 N   0  0  0  0  0  0  0  0  0  0  0  0
    7.0833  -16.8959   22.9017 C   0  0  0  0  0  0  0  0  0  0  0  0
    6.5266  -16.0341   23.6307 O   0  0  0  0  0  0  0  0  0  0  0  0
    8.9346  -11.1333   20.1669 O   0  0  0  0  0  0  0  0  0  0  0  0
    8.9713  -20.6408   30.8429 C   0  0  0  0  0  0  0  0  0  0  0  0
    8.6756  -20.3706   29.5233 C   0  0  0  0  0  0  0  0  0  0  0  0
    7.4151  -20.1541   29.0630 C   0  0  0  0  0  0  0  0  0  0  0  0
    7.1446  -19.8840   27.7296 C   0  0  0  0  0  0  0  0  0  0  0  0
    8.1677  -19.8247   26.8071 C   0  0  0  0  0  0  0  0  0  0  0  0
    7.8873  -19.5387   25.4056 C   0  0  1  0  0  0  0  0  0  0  0  0
    7.7054  -18.1035   25.0144 N   0  0  0  0  0  0  0  0  0  0  0  0
    7.6819  -18.0003   23.5475 C   0  0  0  0  0  0  0  0  0  0  0  0
    8.6754  -17.1592   25.5780 O   0  0  0  0  0  0  0  0  0  0  0  0
    9.8487  -17.1249   25.0368 C   0  0  0  0  0  0  0  0  0  0  0  0
    9.4578  -20.0491   27.2936 C   0  0  0  0  0  0  0  0  0  0  0  0
    9.7152  -20.3159   28.6164 N   0  0  0  0  0  0  0  0  0  0  0  0
    8.5135  -16.2569   26.6412 C   0  0  2  0  0  0  0  0  0  0  0  0
    9.5965  -15.4124   27.1283 C   0  0  0  0  0  0  0  0  0  0  0  0
    8.9600  -14.1099   27.5432 C   0  0  0  0  0  0  0  0  0  0  0  0
    8.2672  -13.4202   26.4442 C   0  0  0  0  0  0  0  0  0  0  0  0
    8.7357  -13.6275   25.1624 C   0  0  0  0  0  0  0  0  0  0  0  0
    8.1165  -12.9996   24.0872 C   0  0  0  0  0  0  0  0  0  0  0  0
    7.0481  -12.1786   24.2858 C   0  0  0  0  0  0  0  0  0  0  0  0
    6.5596  -11.9514   25.5362 C   0  0  0  0  0  0  0  0  0  0  0  0
    7.1903  -12.5875   26.6041 C   0  0  0  0  0  0  0  0  0  0  0  0
   10.2103  -15.9932   28.3173 O   0  0  0  0  0  0  0  0  0  0  0  0
   11.2103  -15.3741   28.8182 O   0  0  0  0  0  0  0  0  0  0  0  0
  2  3  2  0
  2  1  1  0
  4  2  1  0
  5  4  1  0
  6  7  1  0
  6  5  1  0
  7  8  1  0
  8 10  1  0
  8  9  1  6
 10 19  1  0
 10 11  2  0
 12 13  1  0
 13 14  2  0
 14 15  1  0
 16 17  1  0
 16 15  2  0
 18 17  1  1
 18 20  1  0
 19 18  1  0
 20 21  2  0
 22 16  1  0
 23 22  2  0
 23 13  1  0
 24 20  1  0
 24 25  1  0
 25 33  1  0
 25 26  1  6
 27 26  1  0
 27 32  1  0
 28 27  2  0
 29 28  1  0
 29 30  2  0
 30 31  1  0
 31 32  2  0
 33 35  1  0
 34 33  2  0
M  END
$$$$
