RYF.pdb
     RDKit          3D

 35 36  0  0  1  0  0  0  0  0999 V2000
    8.3509  -15.6625   17.4526 N   0  0  0  0  0  0  0  0  0  0  0  0
    8.1074  -14.3079   17.1278 C   0  0  0  0  0  0  0  0  0  0  0  0
    8.1981  -13.8724   15.9371 N   0  0  0  0  0  0  0  0  0  0  0  0
    7.7441  -13.3729   18.1570 N   0  0  0  0  0  0  0  0  0  0  0  0
    7.7562  -13.8038   19.5348 C   0  0  0  0  0  0  0  0  0  0  0  0
    6.4277  -14.4347   19.8579 C   0  0  0  0  0  0  0  0  0  0  0  0
    6.3363  -14.9014   21.2723 C   0  0  0  0  0  0  0  0  0  0  0  0
    6.8288  -16.3070   21.3746 C   0  0  2  0  0  0  0  0  0  0  0  0
    5.8905  -17.1685   20.6645 N   0  0  0  0  0  0  0  0  0  0  0  0
    6.9041  -16.7572   22.8090 C   0  0  0  0  0  0  0  0  0  0  0  0
    5.8904  -16.7200   23.5540 O   0  0  0  0  0  0  0  0  0  0  0  0
    8.1444  -12.8676   15.6891 O   0  0  0  0  0  0  0  0  0  0  0  0
    4.5393  -22.7570   22.7631 C   0  0  0  0  0  0  0  0  0  0  0  0
    5.5176  -21.8959   23.2140 C   0  0  0  0  0  0  0  0  0  0  0  0
    6.6082  -21.5455   22.4824 C   0  0  0  0  0  0  0  0  0  0  0  0
    7.5784  -20.6766   22.9597 C   0  0  0  0  0  0  0  0  0  0  0  0
    7.4659  -20.1275   24.2195 C   0  0  0  0  0  0  0  0  0  0  0  0
    8.4822  -19.2122   24.7234 C   0  0  2  0  0  0  0  0  0  0  0  0
    8.1463  -17.7520   24.7522 N   0  0  0  0  0  0  0  0  0  0  0  0
    8.1059  -17.2366   23.3754 C   0  0  0  0  0  0  0  0  0  0  0  0
    9.0121  -16.9130   25.5871 O   0  0  0  0  0  0  0  0  0  0  0  0
   10.2103  -16.6896   25.1567 C   0  0  0  0  0  0  0  0  0  0  0  0
    6.3404  -20.4960   24.9605 C   0  0  0  0  0  0  0  0  0  0  0  0
    5.3851  -21.3576   24.4786 N   0  0  0  0  0  0  0  0  0  0  0  0
    8.7241  -16.2932   26.8133 C   0  0  1  0  0  0  0  0  0  0  0  0
    9.7351  -15.6002   27.6013 C   0  0  0  0  0  0  0  0  0  0  0  0
    9.0429  -14.4141   28.2239 C   0  0  0  0  0  0  0  0  0  0  0  0
    8.4628  -13.4901   27.2375 C   0  0  0  0  0  0  0  0  0  0  0  0
    7.2341  -12.9322   27.5284 C   0  0  0  0  0  0  0  0  0  0  0  0
    6.6414  -12.0519   26.6299 C   0  0  0  0  0  0  0  0  0  0  0  0
    7.2626  -11.7327   25.4605 C   0  0  0  0  0  0  0  0  0  0  0  0
    8.4747  -12.2641   25.1412 C   0  0  0  0  0  0  0  0  0  0  0  0
    9.0567  -13.1448   26.0513 C   0  0  0  0  0  0  0  0  0  0  0  0
   10.2108  -16.4457   28.6906 O   0  0  0  0  0  0  0  0  0  0  0  0
    9.6048  -17.5564   28.8733 O   0  0  0  0  0  0  0  0  0  0  0  0
  2  3  2  0
  2  1  1  0
  4  2  1  0
  5  4  1  0
  6  7  1  0
  6  5  1  0
  7  8  1  0
  8 10  1  0
  8  9  1  6
 10 19  1  0
 10 11  2  0
 12 13  1  0
 13 14  2  0
 14 15  1  0
 16 17  1  0
 16 15  2  0
 18 17  1  6
 18 20  1  0
 19 18  1  0
 20 21  2  0
 22 16  1  0
 23 22  2  0
 23 13  1  0
 24 20  1  0
 24 25  1  0
 25 33  1  0
 25 26  1  6
 27 26  1  0
 27 32  1  0
 28 27  2  0
 29 28  1  0
 29 30  2  0
 30 31  1  0
 31 32  2  0
 33 35  1  0
 34 33  2  0
M  END
$$$$
