RYF.pdb
     RDKit          3D

 35 36  0  0  1  0  0  0  0  0999 V2000
    6.4927  -21.2852   15.6347 N   0  0  0  0  0  0  0  0  0  0  0  0
    6.5944  -22.6275   16.0680 C   0  0  0  0  0  0  0  0  0  0  0  0
    6.4962  -23.6060   15.2627 N   0  0  0  0  0  0  0  0  0  0  0  0
    6.8158  -22.9229   17.4569 N   0  0  0  0  0  0  0  0  0  0  0  0
    7.0210  -21.8349   18.3833 C   0  0  0  0  0  0  0  0  0  0  0  0
    7.0979  -22.3938   19.7793 C   0  0  0  0  0  0  0  0  0  0  0  0
    8.3192  -21.9522   20.5141 C   0  0  0  0  0  0  0  0  0  0  0  0
    7.9304  -21.1017   21.6778 C   0  0  2  0  0  0  0  0  0  0  0  0
    6.4744  -21.0353   21.7238 N   0  0  0  0  0  0  0  0  0  0  0  0
    8.4715  -19.7039   21.5386 C   0  0  0  0  0  0  0  0  0  0  0  0
    9.7110  -19.4856   21.5386 O   0  0  0  0  0  0  0  0  0  0  0  0
    6.4800  -24.5971   15.5648 O   0  0  0  0  0  0  0  0  0  0  0  0
    8.6942  -10.9618   19.7799 C   0  0  0  0  0  0  0  0  0  0  0  0
    8.3255  -12.2705   20.0105 C   0  0  0  0  0  0  0  0  0  0  0  0
    8.7055  -13.3103   19.2218 C   0  0  0  0  0  0  0  0  0  0  0  0
    8.3205  -14.6184   19.4762 C   0  0  0  0  0  0  0  0  0  0  0  0
    7.5225  -14.9137   20.5611 C   0  0  0  0  0  0  0  0  0  0  0  0
    7.1181  -16.2874   20.8328 C   0  0  2  0  0  0  0  0  0  0  0  0
    8.1530  -17.2168   21.3906 N   0  0  0  0  0  0  0  0  0  0  0  0
    7.6179  -18.5867   21.4030 C   0  0  0  0  0  0  0  0  0  0  0  0
    8.6849  -16.8635   22.7107 O   0  0  0  0  0  0  0  0  0  0  0  0
    9.9525  -16.6237   22.7914 C   0  0  0  0  0  0  0  0  0  0  0  0
    7.1394  -13.8359   21.3632 C   0  0  0  0  0  0  0  0  0  0  0  0
    7.5260  -12.5437   21.1026 N   0  0  0  0  0  0  0  0  0  0  0  0
    8.0036  -16.7356   23.9314 C   0  0  1  0  0  0  0  0  0  0  0  0
    8.6542  -16.2746   25.1511 C   0  0  0  0  0  0  0  0  0  0  0  0
    8.1482  -14.8751   25.3943 C   0  0  0  0  0  0  0  0  0  0  0  0
    8.5635  -14.3192   26.6912 C   0  0  0  0  0  0  0  0  0  0  0  0
    9.9171  -14.1821   26.9247 C   0  0  0  0  0  0  0  0  0  0  0  0
   10.3634  -13.6614   28.1344 C   0  0  0  0  0  0  0  0  0  0  0  0
    9.4756  -13.2836   29.0958 C   0  0  0  0  0  0  0  0  0  0  0  0
    8.1338  -13.4048   28.8995 C   0  0  0  0  0  0  0  0  0  0  0  0
    7.7012  -13.9281   27.6823 C   0  0  0  0  0  0  0  0  0  0  0  0
    8.2483  -17.0870   26.2925 O   0  0  0  0  0  0  0  0  0  0  0  0
    7.0549  -17.5451   26.2865 O   0  0  0  0  0  0  0  0  0  0  0  0
  2  3  2  0
  2  1  1  0
  4  2  1  0
  5  4  1  0
  6  7  1  0
  6  5  1  0
  7  8  1  0
  8 10  1  0
  8  9  1  6
 10 19  1  0
 10 11  2  0
 12 13  1  0
 13 14  2  0
 14 15  1  0
 16 17  1  0
 16 15  2  0
 18 17  1  6
 18 20  1  0
 19 18  1  0
 20 21  2  0
 22 16  1  0
 23 22  2  0
 23 13  1  0
 24 20  1  0
 24 25  1  0
 25 33  1  0
 25 26  1  6
 27 26  1  0
 27 32  1  0
 28 27  2  0
 29 28  1  0
 29 30  2  0
 30 31  1  0
 31 32  2  0
 33 35  1  0
 34 33  2  0
M  END
$$$$
