DKC.pdb
     RDKit          3D

 24 23  0  0  1  0  0  0  0  0999 V2000
   17.6236  -13.0075  -15.2817 N   0  0  0  0  0  0  0  0  0  0  0  0
   17.3315  -11.6862  -15.7499 C   0  0  1  0  0  0  0  0  0  0  0  0
   16.3524  -11.0569  -14.7822 C   0  0  0  0  0  0  0  0  0  0  0  0
   15.0805  -11.8237  -14.8397 C   0  0  0  0  0  0  0  0  0  0  0  0
   14.5537  -12.3019  -13.7874 O   0  0  0  0  0  0  0  0  0  0  0  0
   18.5904  -10.9007  -15.8399 C   0  0  0  0  0  0  0  0  0  0  0  0
   19.4901  -10.9751  -14.9540 O   0  0  0  0  0  0  0  0  0  0  0  0
   14.4289  -12.0434  -16.0292 O   0  0  0  0  0  0  0  0  0  0  0  0
   18.8207  -10.0424  -16.9243 N   0  0  0  0  0  0  0  0  0  0  0  0
   20.1386   -9.4205  -17.1843 C   0  0  1  0  0  0  0  0  0  0  0  0
   20.1922   -9.1850  -18.6567 C   0  0  0  0  0  0  0  0  0  0  0  0
   21.4201   -8.4621  -19.1430 C   0  0  0  0  0  0  0  0  0  0  0  0
   22.4275   -9.4722  -19.7051 C   0  0  0  0  0  0  0  0  0  0  0  0
   23.7151   -8.8505  -20.1328 C   0  0  0  0  0  0  0  0  0  0  0  0
   24.6306   -9.9442  -20.4969 N   0  0  0  0  0  0  0  0  0  0  0  0
   20.2990   -8.3048  -16.2931 C   0  0  0  0  0  0  0  0  0  0  0  0
   19.2419   -7.7638  -15.8079 O   0  0  0  0  0  0  0  0  0  0  0  0
   21.5026   -7.7097  -15.8667 N   0  0  0  0  0  0  0  0  0  0  0  0
   21.4903   -6.5354  -15.0250 C   0  0  1  0  0  0  0  0  0  0  0  0
   21.7468   -7.0392  -13.5973 C   0  0  0  0  0  0  0  0  0  0  0  0
   22.1400   -5.6794  -12.4976 S   0  0  0  0  0  0  0  0  0  0  0  0
   22.5712   -5.5873  -15.3839 C   0  0  0  0  0  0  0  0  0  0  0  0
   23.6241   -6.0327  -15.8980 O   0  0  0  0  0  0  0  0  0  0  0  0
   22.4515   -4.2259  -15.1680 O   0  0  0  0  0  0  0  0  0  0  0  0
  2  1  1  1
  2  3  1  0
  3  4  1  0
  4  8  1  0
  4  5  2  0
  6  2  1  0
  7  6  2  0
  9  6  1  0
 10  9  1  0
 10 11  1  6
 11 12  1  0
 12 13  1  0
 13 14  1  0
 14 15  1  0
 16 18  1  0
 16 10  1  0
 17 16  2  0
 19 20  1  1
 19 18  1  0
 21 20  1  0
 22 19  1  0
 22 24  1  0
 23 22  2  0
M  END
$$$$
