DKC.pdb
     RDKit          3D

 24 23  0  0  1  0  0  0  0  0999 V2000
   23.7050  -10.5625  -20.0356 N   0  0  0  0  0  0  0  0  0  0  0  0
   24.0743  -10.1843  -18.7048 C   0  0  1  0  0  0  0  0  0  0  0  0
   25.4493   -9.5543  -18.7662 C   0  0  0  0  0  0  0  0  0  0  0  0
   26.4295  -10.6075  -19.1385 C   0  0  0  0  0  0  0  0  0  0  0  0
   26.0756  -11.8217  -19.2576 O   0  0  0  0  0  0  0  0  0  0  0  0
   23.0654   -9.2392  -18.1581 C   0  0  0  0  0  0  0  0  0  0  0  0
   22.7963   -8.1436  -18.7299 O   0  0  0  0  0  0  0  0  0  0  0  0
   27.7510  -10.3086  -19.3670 O   0  0  0  0  0  0  0  0  0  0  0  0
   22.3729   -9.5386  -16.9764 N   0  0  0  0  0  0  0  0  0  0  0  0
   21.3034   -8.6696  -16.4359 C   0  0  1  0  0  0  0  0  0  0  0  0
   20.3621   -9.5813  -15.7226 C   0  0  0  0  0  0  0  0  0  0  0  0
   19.2090   -8.8984  -15.0365 C   0  0  0  0  0  0  0  0  0  0  0  0
   17.8862   -9.3753  -15.6480 C   0  0  0  0  0  0  0  0  0  0  0  0
   16.6824   -8.7922  -14.9861 C   0  0  0  0  0  0  0  0  0  0  0  0
   15.5010   -9.4572  -15.5597 N   0  0  0  0  0  0  0  0  0  0  0  0
   21.9165   -7.5923  -15.7089 C   0  0  0  0  0  0  0  0  0  0  0  0
   22.6368   -7.8862  -14.6890 O   0  0  0  0  0  0  0  0  0  0  0  0
   21.8298   -6.2124  -15.9791 N   0  0  0  0  0  0  0  0  0  0  0  0
   22.4655   -5.2470  -15.1121 C   0  0  1  0  0  0  0  0  0  0  0  0
   23.2835   -4.3300  -16.0329 C   0  0  0  0  0  0  0  0  0  0  0  0
   24.6511   -5.2201  -16.7748 S   0  0  0  0  0  0  0  0  0  0  0  0
   21.4736   -4.4151  -14.3907 C   0  0  0  0  0  0  0  0  0  0  0  0
   20.2860   -4.4010  -14.7920 O   0  0  0  0  0  0  0  0  0  0  0  0
   21.8204   -3.6545  -13.2883 O   0  0  0  0  0  0  0  0  0  0  0  0
  2  1  1  6
  2  3  1  0
  3  4  1  0
  4  8  1  0
  4  5  2  0
  6  2  1  0
  7  6  2  0
  9  6  1  0
 10  9  1  0
 10 11  1  1
 11 12  1  0
 12 13  1  0
 13 14  1  0
 14 15  1  0
 16 18  1  0
 16 10  1  0
 17 16  2  0
 19 20  1  6
 19 18  1  0
 21 20  1  0
 22 19  1  0
 22 24  1  0
 23 22  2  0
M  END
$$$$
