DKC.pdb
     RDKit          3D

 24 23  0  0  1  0  0  0  0  0999 V2000
   27.1043  -22.5859  -16.7956 N   0  0  0  0  0  0  0  0  0  0  0  0
   27.7643  -21.3524  -16.4904 C   0  0  1  0  0  0  0  0  0  0  0  0
   27.7906  -20.5158  -17.7516 C   0  0  0  0  0  0  0  0  0  0  0  0
   28.8042  -21.0918  -18.6733 C   0  0  0  0  0  0  0  0  0  0  0  0
   28.6914  -22.2772  -19.1156 O   0  0  0  0  0  0  0  0  0  0  0  0
   27.0411  -20.6599  -15.3916 C   0  0  0  0  0  0  0  0  0  0  0  0
   27.3596  -19.4969  -15.0100 O   0  0  0  0  0  0  0  0  0  0  0  0
   29.8978  -20.3663  -19.0803 O   0  0  0  0  0  0  0  0  0  0  0  0
   25.9699  -21.2841  -14.7369 N   0  0  0  0  0  0  0  0  0  0  0  0
   25.2115  -20.6316  -13.6460 C   0  0  1  0  0  0  0  0  0  0  0  0
   23.7738  -20.7423  -14.0293 C   0  0  0  0  0  0  0  0  0  0  0  0
   22.8012  -20.1769  -13.0288 C   0  0  0  0  0  0  0  0  0  0  0  0
   21.5618  -21.0758  -12.9459 C   0  0  0  0  0  0  0  0  0  0  0  0
   20.5440  -20.5939  -11.9664 C   0  0  0  0  0  0  0  0  0  0  0  0
   19.4250  -21.5500  -11.9906 N   0  0  0  0  0  0  0  0  0  0  0  0
   25.6446  -21.1888  -12.3943 C   0  0  0  0  0  0  0  0  0  0  0  0
   25.3987  -22.4272  -12.1683 O   0  0  0  0  0  0  0  0  0  0  0  0
   26.3276  -20.5336  -11.3507 N   0  0  0  0  0  0  0  0  0  0  0  0
   26.3609  -21.0959  -10.0202 C   0  0  1  0  0  0  0  0  0  0  0  0
   27.6905  -20.6377   -9.4037 C   0  0  0  0  0  0  0  0  0  0  0  0
   29.0776  -21.1445  -10.4197 S   0  0  0  0  0  0  0  0  0  0  0  0
   25.2564  -20.5826   -9.1759 C   0  0  0  0  0  0  0  0  0  0  0  0
   24.5339  -19.6579   -9.6168 O   0  0  0  0  0  0  0  0  0  0  0  0
   25.0002  -21.0943   -7.9162 O   0  0  0  0  0  0  0  0  0  0  0  0
  2  1  1  6
  2  3  1  0
  3  4  1  0
  4  8  1  0
  4  5  2  0
  6  2  1  0
  7  6  2  0
  9  6  1  0
 10  9  1  0
 10 11  1  6
 11 12  1  0
 12 13  1  0
 13 14  1  0
 14 15  1  0
 16 18  1  0
 16 10  1  0
 17 16  2  0
 19 20  1  1
 19 18  1  0
 21 20  1  0
 22 19  1  0
 22 24  1  0
 23 22  2  0
M  END
$$$$
