DKC.pdb
     RDKit          3D

 24 23  0  0  1  0  0  0  0  0999 V2000
   14.2465  -12.4514  -10.8016 N   0  0  0  0  0  0  0  0  0  0  0  0
   13.8394  -11.0848  -10.9322 C   0  0  1  0  0  0  0  0  0  0  0  0
   12.9388  -10.7550   -9.7612 C   0  0  0  0  0  0  0  0  0  0  0  0
   11.6771  -11.5261   -9.9105 C   0  0  0  0  0  0  0  0  0  0  0  0
   10.9356  -11.3810  -10.9317 O   0  0  0  0  0  0  0  0  0  0  0  0
   15.0400  -10.2086  -10.9605 C   0  0  0  0  0  0  0  0  0  0  0  0
   15.9471  -10.2884  -10.0827 O   0  0  0  0  0  0  0  0  0  0  0  0
   11.2666  -12.4219   -8.9529 O   0  0  0  0  0  0  0  0  0  0  0  0
   15.2044   -9.2548  -11.9748 N   0  0  0  0  0  0  0  0  0  0  0  0
   16.3870   -8.3679  -12.0526 C   0  0  1  0  0  0  0  0  0  0  0  0
   16.9386   -8.5474  -13.4273 C   0  0  0  0  0  0  0  0  0  0  0  0
   17.7662   -9.7893  -13.6257 C   0  0  0  0  0  0  0  0  0  0  0  0
   18.1600   -9.9193  -15.1019 C   0  0  0  0  0  0  0  0  0  0  0  0
   18.9560  -11.1466  -15.3976 C   0  0  0  0  0  0  0  0  0  0  0  0
   19.1797  -11.1844  -16.8521 N   0  0  0  0  0  0  0  0  0  0  0  0
   15.9984   -7.0528  -11.6231 C   0  0  0  0  0  0  0  0  0  0  0  0
   14.9136   -6.5595  -12.0976 O   0  0  0  0  0  0  0  0  0  0  0  0
   16.6723   -6.2084  -10.7189 N   0  0  0  0  0  0  0  0  0  0  0  0
   16.1504   -4.8996  -10.3990 C   0  0  1  0  0  0  0  0  0  0  0  0
   16.1994   -4.7906   -8.8681 C   0  0  0  0  0  0  0  0  0  0  0  0
   14.9049   -5.7739   -8.1128 S   0  0  0  0  0  0  0  0  0  0  0  0
   16.9871   -3.8171  -10.9685 C   0  0  0  0  0  0  0  0  0  0  0  0
   18.0412   -4.1196  -11.5759 O   0  0  0  0  0  0  0  0  0  0  0  0
   16.6385   -2.4835  -10.8491 O   0  0  0  0  0  0  0  0  0  0  0  0
  2  1  1  1
  2  3  1  0
  3  4  1  0
  4  8  1  0
  4  5  2  0
  6  2  1  0
  7  6  2  0
  9  6  1  0
 10  9  1  0
 10 11  1  6
 11 12  1  0
 12 13  1  0
 13 14  1  0
 14 15  1  0
 16 18  1  0
 16 10  1  0
 17 16  2  0
 19 20  1  1
 19 18  1  0
 21 20  1  0
 22 19  1  0
 22 24  1  0
 23 22  2  0
M  END
$$$$
