DKC.pdb
     RDKit          3D

 24 23  0  0  1  0  0  0  0  0999 V2000
   18.1462  -12.9828  -15.5729 N   0  0  0  0  0  0  0  0  0  0  0  0
   17.8775  -11.5973  -15.8149 C   0  0  1  0  0  0  0  0  0  0  0  0
   16.9440  -11.1090  -14.7280 C   0  0  0  0  0  0  0  0  0  0  0  0
   15.6492  -11.8252  -14.8677 C   0  0  0  0  0  0  0  0  0  0  0  0
   15.1291  -12.4396  -13.8851 O   0  0  0  0  0  0  0  0  0  0  0  0
   19.1545  -10.8362  -15.8193 C   0  0  0  0  0  0  0  0  0  0  0  0
   19.9612  -10.8775  -14.8461 O   0  0  0  0  0  0  0  0  0  0  0  0
   14.9684  -11.8495  -16.0610 O   0  0  0  0  0  0  0  0  0  0  0  0
   19.5072  -10.0394  -16.9176 N   0  0  0  0  0  0  0  0  0  0  0  0
   20.7728   -9.2737  -16.9747 C   0  0  1  0  0  0  0  0  0  0  0  0
   21.0470   -9.0514  -18.4245 C   0  0  0  0  0  0  0  0  0  0  0  0
   22.2901   -8.2568  -18.7243 C   0  0  0  0  0  0  0  0  0  0  0  0
   22.5281   -8.2188  -20.2386 C   0  0  0  0  0  0  0  0  0  0  0  0
   23.7229   -7.4152  -20.6312 C   0  0  0  0  0  0  0  0  0  0  0  0
   23.8925   -7.5636  -22.0859 N   0  0  0  0  0  0  0  0  0  0  0  0
   20.6560   -8.1362  -16.1045 C   0  0  0  0  0  0  0  0  0  0  0  0
   19.5172   -7.5510  -16.0267 O   0  0  0  0  0  0  0  0  0  0  0  0
   21.6588   -7.5626  -15.2982 N   0  0  0  0  0  0  0  0  0  0  0  0
   21.3927   -6.3758  -14.5182 C   0  0  1  0  0  0  0  0  0  0  0  0
   21.8808   -6.6895  -13.0965 C   0  0  0  0  0  0  0  0  0  0  0  0
   21.8831   -5.2141  -12.0784 S   0  0  0  0  0  0  0  0  0  0  0  0
   22.1482   -5.2040  -15.0204 C   0  0  0  0  0  0  0  0  0  0  0  0
   23.2032   -5.3944  -15.6702 O   0  0  0  0  0  0  0  0  0  0  0  0
   21.7228   -3.9073  -14.7929 O   0  0  0  0  0  0  0  0  0  0  0  0
  2  1  1  1
  2  3  1  0
  3  4  1  0
  4  8  1  0
  4  5  2  0
  6  2  1  0
  7  6  2  0
  9  6  1  0
 10  9  1  0
 10 11  1  6
 11 12  1  0
 12 13  1  0
 13 14  1  0
 14 15  1  0
 16 18  1  0
 16 10  1  0
 17 16  2  0
 19 20  1  1
 19 18  1  0
 21 20  1  0
 22 19  1  0
 22 24  1  0
 23 22  2  0
M  END
$$$$
