DKC.pdb
     RDKit          3D

 24 23  0  0  1  0  0  0  0  0999 V2000
   18.4265  -10.1783  -16.9307 N   0  0  0  0  0  0  0  0  0  0  0  0
   19.2336   -9.8382  -15.7979 C   0  0  1  0  0  0  0  0  0  0  0  0
   20.6440   -9.5935  -16.2898 C   0  0  0  0  0  0  0  0  0  0  0  0
   21.1821  -10.8730  -16.8211 C   0  0  0  0  0  0  0  0  0  0  0  0
   21.7288  -10.9305  -17.9663 O   0  0  0  0  0  0  0  0  0  0  0  0
   18.6723   -8.6342  -15.1306 C   0  0  0  0  0  0  0  0  0  0  0  0
   18.2587   -7.6364  -15.7886 O   0  0  0  0  0  0  0  0  0  0  0  0
   21.1086  -12.0378  -16.0961 O   0  0  0  0  0  0  0  0  0  0  0  0
   18.5836   -8.5683  -13.7329 N   0  0  0  0  0  0  0  0  0  0  0  0
   17.9955   -7.4096  -13.0240 C   0  0  1  0  0  0  0  0  0  0  0  0
   17.3694   -7.9652  -11.7889 C   0  0  0  0  0  0  0  0  0  0  0  0
   16.6819   -6.9533  -10.9113 C   0  0  0  0  0  0  0  0  0  0  0  0
   16.0748   -7.6540   -9.6900 C   0  0  0  0  0  0  0  0  0  0  0  0
   15.4041   -6.7173   -8.7413 C   0  0  0  0  0  0  0  0  0  0  0  0
   14.8575   -7.5259   -7.6394 N   0  0  0  0  0  0  0  0  0  0  0  0
   19.0037   -6.3935  -12.8985 C   0  0  0  0  0  0  0  0  0  0  0  0
   20.0969   -6.6992  -12.3011 O   0  0  0  0  0  0  0  0  0  0  0  0
   18.9488   -5.0643  -13.3622 N   0  0  0  0  0  0  0  0  0  0  0  0
   20.1020   -4.1990  -13.2675 C   0  0  1  0  0  0  0  0  0  0  0  0
   21.1898   -4.8529  -14.1317 C   0  0  0  0  0  0  0  0  0  0  0  0
   22.1258   -6.0538  -13.1856 S   0  0  0  0  0  0  0  0  0  0  0  0
   19.8256   -2.8489  -13.8122 C   0  0  0  0  0  0  0  0  0  0  0  0
   18.8686   -2.6990  -14.6079 O   0  0  0  0  0  0  0  0  0  0  0  0
   20.5928   -1.7502  -13.4680 O   0  0  0  0  0  0  0  0  0  0  0  0
  2  1  1  6
  2  3  1  0
  3  4  1  0
  4  8  1  0
  4  5  2  0
  6  2  1  0
  7  6  2  0
  9  6  1  0
 10  9  1  0
 10 11  1  1
 11 12  1  0
 12 13  1  0
 13 14  1  0
 14 15  1  0
 16 18  1  0
 16 10  1  0
 17 16  2  0
 19 20  1  6
 19 18  1  0
 21 20  1  0
 22 19  1  0
 22 24  1  0
 23 22  2  0
M  END
$$$$
