DKC.pdb
     RDKit          3D

 24 23  0  0  1  0  0  0  0  0999 V2000
   16.7273  -11.2672  -14.9815 N   0  0  0  0  0  0  0  0  0  0  0  0
   16.9620  -10.1131  -15.7960 C   0  0  1  0  0  0  0  0  0  0  0  0
   15.9795   -9.0411  -15.3756 C   0  0  0  0  0  0  0  0  0  0  0  0
   14.6064   -9.5189  -15.6840 C   0  0  0  0  0  0  0  0  0  0  0  0
   14.3472  -10.1113  -16.7775 O   0  0  0  0  0  0  0  0  0  0  0  0
   18.3680   -9.6614  -15.6254 C   0  0  0  0  0  0  0  0  0  0  0  0
   18.9118   -9.5829  -14.4862 O   0  0  0  0  0  0  0  0  0  0  0  0
   13.5692   -9.3386  -14.8010 O   0  0  0  0  0  0  0  0  0  0  0  0
   19.1433   -9.3041  -16.7375 N   0  0  0  0  0  0  0  0  0  0  0  0
   20.5582   -8.8848  -16.6228 C   0  0  1  0  0  0  0  0  0  0  0  0
   21.1899   -9.2275  -17.9304 C   0  0  0  0  0  0  0  0  0  0  0  0
   22.6225   -8.7898  -18.0812 C   0  0  0  0  0  0  0  0  0  0  0  0
   23.5554   -9.8639  -17.5093 C   0  0  0  0  0  0  0  0  0  0  0  0
   25.0014   -9.5081  -17.6095 C   0  0  0  0  0  0  0  0  0  0  0  0
   25.7725  -10.6684  -17.1340 N   0  0  0  0  0  0  0  0  0  0  0  0
   20.5935   -7.5225  -16.1669 C   0  0  0  0  0  0  0  0  0  0  0  0
   19.7407   -6.6999  -16.6583 O   0  0  0  0  0  0  0  0  0  0  0  0
   21.4675   -6.9542  -15.2193 N   0  0  0  0  0  0  0  0  0  0  0  0
   21.4248   -5.5397  -14.9277 C   0  0  1  0  0  0  0  0  0  0  0  0
   21.9364   -5.3922  -13.4874 C   0  0  0  0  0  0  0  0  0  0  0  0
   22.0780   -3.6647  -13.0302 S   0  0  0  0  0  0  0  0  0  0  0  0
   22.3190   -4.7647  -15.8196 C   0  0  0  0  0  0  0  0  0  0  0  0
   21.8778   -3.7290  -16.3714 O   0  0  0  0  0  0  0  0  0  0  0  0
   23.6255   -5.1509  -16.0606 O   0  0  0  0  0  0  0  0  0  0  0  0
  2  1  1  1
  2  3  1  0
  3  4  1  0
  4  8  1  0
  4  5  2  0
  6  2  1  0
  7  6  2  0
  9  6  1  0
 10  9  1  0
 10 11  1  6
 11 12  1  0
 12 13  1  0
 13 14  1  0
 14 15  1  0
 16 18  1  0
 16 10  1  0
 17 16  2  0
 19 20  1  1
 19 18  1  0
 21 20  1  0
 22 19  1  0
 22 24  1  0
 23 22  2  0
M  END
$$$$
