DKC.pdb
     RDKit          3D

 24 23  0  0  1  0  0  0  0  0999 V2000
   18.6238   -8.2156  -14.2252 N   0  0  0  0  0  0  0  0  0  0  0  0
   18.6604   -8.3675  -12.8019 C   0  0  1  0  0  0  0  0  0  0  0  0
   19.7253   -7.4364  -12.2631 C   0  0  0  0  0  0  0  0  0  0  0  0
   21.0501   -7.9219  -12.7301 C   0  0  0  0  0  0  0  0  0  0  0  0
   21.1594   -9.0058  -13.3835 O   0  0  0  0  0  0  0  0  0  0  0  0
   17.3231   -8.0533  -12.2336 C   0  0  0  0  0  0  0  0  0  0  0  0
   16.6524   -7.0515  -12.6159 O   0  0  0  0  0  0  0  0  0  0  0  0
   22.2025   -7.2191  -12.4735 O   0  0  0  0  0  0  0  0  0  0  0  0
   16.7582   -8.8695  -11.2434 N   0  0  0  0  0  0  0  0  0  0  0  0
   15.4095   -8.6279  -10.6834 C   0  0  1  0  0  0  0  0  0  0  0  0
   14.8294   -9.9784  -10.4265 C   0  0  0  0  0  0  0  0  0  0  0  0
   13.4116   -9.9781   -9.9202 C   0  0  0  0  0  0  0  0  0  0  0  0
   12.9299  -11.4211   -9.7275 C   0  0  0  0  0  0  0  0  0  0  0  0
   11.5009  -11.5184   -9.3081 C   0  0  0  0  0  0  0  0  0  0  0  0
   11.1796  -12.9486   -9.1740 N   0  0  0  0  0  0  0  0  0  0  0  0
   15.5293   -7.7011   -9.5919 C   0  0  0  0  0  0  0  0  0  0  0  0
   16.3792   -7.9644   -8.6679 O   0  0  0  0  0  0  0  0  0  0  0  0
   14.8154   -6.5021   -9.3983 N   0  0  0  0  0  0  0  0  0  0  0  0
   14.9703   -5.7364   -8.1828 C   0  0  1  0  0  0  0  0  0  0  0  0
   15.3497   -4.3162   -8.6267 C   0  0  0  0  0  0  0  0  0  0  0  0
   16.9161   -4.3129   -9.4981 S   0  0  0  0  0  0  0  0  0  0  0  0
   13.7061   -5.6601   -7.4133 C   0  0  0  0  0  0  0  0  0  0  0  0
   12.6615   -6.1417   -7.9117 O   0  0  0  0  0  0  0  0  0  0  0  0
   13.6459   -5.0731   -6.1619 O   0  0  0  0  0  0  0  0  0  0  0  0
  2  1  1  6
  2  3  1  0
  3  4  1  0
  4  8  1  0
  4  5  2  0
  6  2  1  0
  7  6  2  0
  9  6  1  0
 10  9  1  0
 10 11  1  1
 11 12  1  0
 12 13  1  0
 13 14  1  0
 14 15  1  0
 16 18  1  0
 16 10  1  0
 17 16  2  0
 19 20  1  6
 19 18  1  0
 21 20  1  0
 22 19  1  0
 22 24  1  0
 23 22  2  0
M  END
$$$$
