DKC.pdb
     RDKit          3D

 24 23  0  0  1  0  0  0  0  0999 V2000
   25.5804  -11.2271  -18.8981 N   0  0  0  0  0  0  0  0  0  0  0  0
   25.4465  -10.7091  -17.5699 C   0  0  1  0  0  0  0  0  0  0  0  0
   26.6983   -9.9200  -17.2513 C   0  0  0  0  0  0  0  0  0  0  0  0
   27.8472  -10.8620  -17.2128 C   0  0  0  0  0  0  0  0  0  0  0  0
   29.0111  -10.4658  -16.8933 O   0  0  0  0  0  0  0  0  0  0  0  0
   24.2301   -9.8584  -17.4880 C   0  0  0  0  0  0  0  0  0  0  0  0
   23.9225   -9.0413  -18.4031 O   0  0  0  0  0  0  0  0  0  0  0  0
   27.6942  -12.1924  -17.5203 O   0  0  0  0  0  0  0  0  0  0  0  0
   23.3763   -9.9380  -16.3788 N   0  0  0  0  0  0  0  0  0  0  0  0
   22.0960   -9.1990  -16.3023 C   0  0  1  0  0  0  0  0  0  0  0  0
   21.0837  -10.1895  -15.8330 C   0  0  0  0  0  0  0  0  0  0  0  0
   19.7050   -9.6312  -15.5998 C   0  0  0  0  0  0  0  0  0  0  0  0
   18.7352  -10.7699  -15.2620 C   0  0  0  0  0  0  0  0  0  0  0  0
   17.3477  -10.3015  -14.9741 C   0  0  0  0  0  0  0  0  0  0  0  0
   16.5139  -11.4978  -14.7727 N   0  0  0  0  0  0  0  0  0  0  0  0
   22.3071   -8.0013  -15.5368 C   0  0  0  0  0  0  0  0  0  0  0  0
   22.8779   -8.1094  -14.3932 O   0  0  0  0  0  0  0  0  0  0  0  0
   21.9610   -6.6820  -15.8895 N   0  0  0  0  0  0  0  0  0  0  0  0
   22.1880   -5.5873  -14.9743 C   0  0  1  0  0  0  0  0  0  0  0  0
   22.6318   -4.4002  -15.8412 C   0  0  0  0  0  0  0  0  0  0  0  0
   22.7125   -2.8934  -14.8736 S   0  0  0  0  0  0  0  0  0  0  0  0
   20.9499   -5.2012  -14.2572 C   0  0  0  0  0  0  0  0  0  0  0  0
   21.0051   -4.9829  -13.0240 O   0  0  0  0  0  0  0  0  0  0  0  0
   19.7362   -5.0748  -14.9092 O   0  0  0  0  0  0  0  0  0  0  0  0
  2  1  1  6
  2  3  1  0
  3  4  1  0
  4  8  1  0
  4  5  2  0
  6  2  1  0
  7  6  2  0
  9  6  1  0
 10  9  1  0
 10 11  1  1
 11 12  1  0
 12 13  1  0
 13 14  1  0
 14 15  1  0
 16 18  1  0
 16 10  1  0
 17 16  2  0
 19 20  1  6
 19 18  1  0
 21 20  1  0
 22 19  1  0
 22 24  1  0
 23 22  2  0
M  END
$$$$
