DKC.pdb
     RDKit          3D

 24 23  0  0  1  0  0  0  0  0999 V2000
   22.2630  -16.6665  -17.9599 N   0  0  0  0  0  0  0  0  0  0  0  0
   21.8373  -16.8120  -16.6004 C   0  0  1  0  0  0  0  0  0  0  0  0
   20.4980  -16.1215  -16.4572 C   0  0  0  0  0  0  0  0  0  0  0  0
   20.7402  -14.6689  -16.2574 C   0  0  0  0  0  0  0  0  0  0  0  0
   19.7794  -13.8663  -16.0419 O   0  0  0  0  0  0  0  0  0  0  0  0
   21.7456  -18.2561  -16.2597 C   0  0  0  0  0  0  0  0  0  0  0  0
   21.0842  -19.0696  -16.9672 O   0  0  0  0  0  0  0  0  0  0  0  0
   22.0082  -14.1411  -16.2981 O   0  0  0  0  0  0  0  0  0  0  0  0
   22.3985  -18.7659  -15.1286 N   0  0  0  0  0  0  0  0  0  0  0  0
   22.4073  -20.2078  -14.7941 C   0  0  1  0  0  0  0  0  0  0  0  0
   23.5581  -20.4012  -13.8643 C   0  0  0  0  0  0  0  0  0  0  0  0
   23.7810  -21.8196  -13.4112 C   0  0  0  0  0  0  0  0  0  0  0  0
   24.4243  -22.6300  -14.5428 C   0  0  0  0  0  0  0  0  0  0  0  0
   24.5315  -24.0878  -14.2415 C   0  0  0  0  0  0  0  0  0  0  0  0
   25.1482  -24.7334  -15.4119 N   0  0  0  0  0  0  0  0  0  0  0  0
   21.0895  -20.5823  -14.3603 C   0  0  0  0  0  0  0  0  0  0  0  0
   20.5131  -19.8482  -13.4804 O   0  0  0  0  0  0  0  0  0  0  0  0
   20.3222  -21.6830  -14.7897 N   0  0  0  0  0  0  0  0  0  0  0  0
   19.0251  -21.9514  -14.2125 C   0  0  1  0  0  0  0  0  0  0  0  0
   18.1997  -22.6147  -15.3245 C   0  0  0  0  0  0  0  0  0  0  0  0
   16.6204  -23.1861  -14.6978 S   0  0  0  0  0  0  0  0  0  0  0  0
   19.1122  -22.8950  -13.0732 C   0  0  0  0  0  0  0  0  0  0  0  0
   19.9443  -23.8314  -13.1221 O   0  0  0  0  0  0  0  0  0  0  0  0
   18.3021  -22.7724  -11.9583 O   0  0  0  0  0  0  0  0  0  0  0  0
  2  1  1  6
  2  3  1  0
  3  4  1  0
  4  8  1  0
  4  5  2  0
  6  2  1  0
  7  6  2  0
  9  6  1  0
 10  9  1  0
 10 11  1  1
 11 12  1  0
 12 13  1  0
 13 14  1  0
 14 15  1  0
 16 18  1  0
 16 10  1  0
 17 16  2  0
 19 20  1  6
 19 18  1  0
 21 20  1  0
 22 19  1  0
 22 24  1  0
 23 22  2  0
M  END
$$$$
