DKC.pdb
     RDKit          3D

 24 23  0  0  1  0  0  0  0  0999 V2000
   17.8306  -10.6809  -17.2148 N   0  0  0  0  0  0  0  0  0  0  0  0
   17.3670   -9.9820  -16.0542 C   0  0  1  0  0  0  0  0  0  0  0  0
   17.9579  -10.6606  -14.8370 C   0  0  0  0  0  0  0  0  0  0  0  0
   17.3913  -12.0315  -14.7453 C   0  0  0  0  0  0  0  0  0  0  0  0
   18.1376  -13.0381  -14.5368 O   0  0  0  0  0  0  0  0  0  0  0  0
   17.7768   -8.5554  -16.1359 C   0  0  0  0  0  0  0  0  0  0  0  0
   18.8576   -8.2005  -16.6888 O   0  0  0  0  0  0  0  0  0  0  0  0
   16.0435  -12.2609  -14.8821 O   0  0  0  0  0  0  0  0  0  0  0  0
   16.9663   -7.5473  -15.5950 N   0  0  0  0  0  0  0  0  0  0  0  0
   17.3119   -6.1108  -15.6850 C   0  0  1  0  0  0  0  0  0  0  0  0
   16.0301   -5.3725  -15.4897 C   0  0  0  0  0  0  0  0  0  0  0  0
   16.1546   -3.8723  -15.4685 C   0  0  0  0  0  0  0  0  0  0  0  0
   14.7905   -3.2434  -15.1606 C   0  0  0  0  0  0  0  0  0  0  0  0
   14.7972   -1.7522  -15.2222 C   0  0  0  0  0  0  0  0  0  0  0  0
   15.7723   -1.2766  -14.2272 N   0  0  0  0  0  0  0  0  0  0  0  0
   18.4095   -5.8503  -14.7950 C   0  0  0  0  0  0  0  0  0  0  0  0
   18.5206   -6.5789  -13.7452 O   0  0  0  0  0  0  0  0  0  0  0  0
   19.4129   -4.8705  -14.9294 N   0  0  0  0  0  0  0  0  0  0  0  0
   20.4752   -4.7606  -13.9562 C   0  0  1  0  0  0  0  0  0  0  0  0
   21.3011   -6.0482  -14.0887 C   0  0  0  0  0  0  0  0  0  0  0  0
   22.7863   -5.9640  -13.0885 S   0  0  0  0  0  0  0  0  0  0  0  0
   21.3638   -3.6082  -14.2363 C   0  0  0  0  0  0  0  0  0  0  0  0
   21.4534   -3.1818  -15.4118 O   0  0  0  0  0  0  0  0  0  0  0  0
   22.0966   -2.9901  -13.2388 O   0  0  0  0  0  0  0  0  0  0  0  0
  2  1  1  6
  2  3  1  0
  3  4  1  0
  4  8  1  0
  4  5  2  0
  6  2  1  0
  7  6  2  0
  9  6  1  0
 10  9  1  0
 10 11  1  1
 11 12  1  0
 12 13  1  0
 13 14  1  0
 14 15  1  0
 16 18  1  0
 16 10  1  0
 17 16  2  0
 19 20  1  6
 19 18  1  0
 21 20  1  0
 22 19  1  0
 22 24  1  0
 23 22  2  0
M  END
$$$$
