DKC.pdb
     RDKit          3D

 24 23  0  0  1  0  0  0  0  0999 V2000
   17.8671   -8.9484  -14.4930 N   0  0  0  0  0  0  0  0  0  0  0  0
   18.2737   -8.6678  -13.1491 C   0  0  1  0  0  0  0  0  0  0  0  0
   19.3174   -7.5726  -13.1992 C   0  0  0  0  0  0  0  0  0  0  0  0
   20.5059   -8.0927  -13.9243 C   0  0  0  0  0  0  0  0  0  0  0  0
   21.5366   -7.3710  -14.0988 O   0  0  0  0  0  0  0  0  0  0  0  0
   17.0912   -8.2578  -12.3469 C   0  0  0  0  0  0  0  0  0  0  0  0
   16.2930   -7.3601  -12.7427 O   0  0  0  0  0  0  0  0  0  0  0  0
   20.5344   -9.3693  -14.4315 O   0  0  0  0  0  0  0  0  0  0  0  0
   16.8222   -8.8625  -11.1109 N   0  0  0  0  0  0  0  0  0  0  0  0
   15.5899   -8.5867  -10.3386 C   0  0  1  0  0  0  0  0  0  0  0  0
   15.3176   -9.8259   -9.5535 C   0  0  0  0  0  0  0  0  0  0  0  0
   14.0718   -9.7856   -8.7091 C   0  0  0  0  0  0  0  0  0  0  0  0
   12.8349   -9.9322   -9.6032 C   0  0  0  0  0  0  0  0  0  0  0  0
   11.5484   -9.8889   -8.8478 C   0  0  0  0  0  0  0  0  0  0  0  0
   10.4585   -9.8932   -9.8372 N   0  0  0  0  0  0  0  0  0  0  0  0
   15.7592   -7.3420   -9.6409 C   0  0  0  0  0  0  0  0  0  0  0  0
   16.7461   -7.2356   -8.8284 O   0  0  0  0  0  0  0  0  0  0  0  0
   14.9601   -6.1857   -9.7368 N   0  0  0  0  0  0  0  0  0  0  0  0
   15.1714   -5.0643   -8.8505 C   0  0  1  0  0  0  0  0  0  0  0  0
   15.0889   -3.8103   -9.7328 C   0  0  0  0  0  0  0  0  0  0  0  0
   15.1859   -2.3201   -8.7411 S   0  0  0  0  0  0  0  0  0  0  0  0
   14.1160   -4.9730   -7.8142 C   0  0  0  0  0  0  0  0  0  0  0  0
   12.9551   -5.3544   -8.0940 O   0  0  0  0  0  0  0  0  0  0  0  0
   14.3751   -4.4793   -6.5479 O   0  0  0  0  0  0  0  0  0  0  0  0
  2  1  1  6
  2  3  1  0
  3  4  1  0
  4  8  1  0
  4  5  2  0
  6  2  1  0
  7  6  2  0
  9  6  1  0
 10  9  1  0
 10 11  1  1
 11 12  1  0
 12 13  1  0
 13 14  1  0
 14 15  1  0
 16 18  1  0
 16 10  1  0
 17 16  2  0
 19 20  1  6
 19 18  1  0
 21 20  1  0
 22 19  1  0
 22 24  1  0
 23 22  2  0
M  END
$$$$
