DKC.pdb
     RDKit          3D

 24 23  0  0  1  0  0  0  0  0999 V2000
   17.1178  -11.1210  -16.3485 N   0  0  0  0  0  0  0  0  0  0  0  0
   18.0020  -10.9662  -15.2329 C   0  0  1  0  0  0  0  0  0  0  0  0
   19.4134  -11.2113  -15.7219 C   0  0  0  0  0  0  0  0  0  0  0  0
   19.6045  -12.6764  -15.8821 C   0  0  0  0  0  0  0  0  0  0  0  0
   18.7221  -13.5009  -15.4879 O   0  0  0  0  0  0  0  0  0  0  0  0
   17.8513   -9.6009  -14.6643 C   0  0  0  0  0  0  0  0  0  0  0  0
   17.7355   -8.5789  -15.4003 O   0  0  0  0  0  0  0  0  0  0  0  0
   20.7389  -13.1926  -16.4606 O   0  0  0  0  0  0  0  0  0  0  0  0
   17.8328   -9.4032  -13.2764 N   0  0  0  0  0  0  0  0  0  0  0  0
   17.6364   -8.0707  -12.6624 C   0  0  1  0  0  0  0  0  0  0  0  0
   16.8570   -8.3110  -11.4130 C   0  0  0  0  0  0  0  0  0  0  0  0
   16.5446   -7.0774  -10.6085 C   0  0  0  0  0  0  0  0  0  0  0  0
   15.6658   -7.4501   -9.4086 C   0  0  0  0  0  0  0  0  0  0  0  0
   15.1780   -6.2671   -8.6404 C   0  0  0  0  0  0  0  0  0  0  0  0
   14.4415   -6.7762   -7.4719 N   0  0  0  0  0  0  0  0  0  0  0  0
   18.9135   -7.4181  -12.5733 C   0  0  0  0  0  0  0  0  0  0  0  0
   19.9068   -8.0954  -12.1261 O   0  0  0  0  0  0  0  0  0  0  0  0
   19.2286   -6.0910  -12.9259 N   0  0  0  0  0  0  0  0  0  0  0  0
   20.6034   -5.6575  -13.0232 C   0  0  1  0  0  0  0  0  0  0  0  0
   21.2074   -6.4373  -14.2000 C   0  0  0  0  0  0  0  0  0  0  0  0
   22.8874   -5.9049  -14.5282 S   0  0  0  0  0  0  0  0  0  0  0  0
   20.7061   -4.2101  -13.3238 C   0  0  0  0  0  0  0  0  0  0  0  0
   19.7824   -3.6557  -13.9649 O   0  0  0  0  0  0  0  0  0  0  0  0
   21.7912   -3.4538  -12.9177 O   0  0  0  0  0  0  0  0  0  0  0  0
  2  1  1  6
  2  3  1  0
  3  4  1  0
  4  8  1  0
  4  5  2  0
  6  2  1  0
  7  6  2  0
  9  6  1  0
 10  9  1  0
 10 11  1  1
 11 12  1  0
 12 13  1  0
 13 14  1  0
 14 15  1  0
 16 18  1  0
 16 10  1  0
 17 16  2  0
 19 20  1  6
 19 18  1  0
 21 20  1  0
 22 19  1  0
 22 24  1  0
 23 22  2  0
M  END
$$$$
