DKC.pdb
     RDKit          3D

 24 23  0  0  1  0  0  0  0  0999 V2000
   16.3771  -10.9054  -14.9563 N   0  0  0  0  0  0  0  0  0  0  0  0
   17.7679  -10.9613  -15.2924 C   0  0  1  0  0  0  0  0  0  0  0  0
   17.9535  -12.0585  -16.3185 C   0  0  0  0  0  0  0  0  0  0  0  0
   17.6085  -13.3565  -15.6821 C   0  0  0  0  0  0  0  0  0  0  0  0
   17.9693  -13.6216  -14.4933 O   0  0  0  0  0  0  0  0  0  0  0  0
   18.2057   -9.6421  -15.8195 C   0  0  0  0  0  0  0  0  0  0  0  0
   19.3084   -9.4947  -16.4212 O   0  0  0  0  0  0  0  0  0  0  0  0
   16.8889  -14.3154  -16.3533 O   0  0  0  0  0  0  0  0  0  0  0  0
   17.3981   -8.5067  -15.6631 N   0  0  0  0  0  0  0  0  0  0  0  0
   17.8075   -7.1647  -16.1348 C   0  0  1  0  0  0  0  0  0  0  0  0
   16.5445   -6.4636  -16.5083 C   0  0  0  0  0  0  0  0  0  0  0  0
   16.0614   -6.7229  -17.9105 C   0  0  0  0  0  0  0  0  0  0  0  0
   14.7630   -5.9473  -18.1630 C   0  0  0  0  0  0  0  0  0  0  0  0
   14.2315   -6.1150  -19.5475 C   0  0  0  0  0  0  0  0  0  0  0  0
   13.0113   -5.2982  -19.6508 N   0  0  0  0  0  0  0  0  0  0  0  0
   18.6651   -6.5761  -15.1434 C   0  0  0  0  0  0  0  0  0  0  0  0
   18.2568   -6.5569  -13.9275 O   0  0  0  0  0  0  0  0  0  0  0  0
   19.9366   -6.0012  -15.3369 N   0  0  0  0  0  0  0  0  0  0  0  0
   20.6266   -5.3470  -14.2490 C   0  0  1  0  0  0  0  0  0  0  0  0
   21.8459   -6.2262  -13.9358 C   0  0  0  0  0  0  0  0  0  0  0  0
   22.9470   -5.4091  -12.7811 S   0  0  0  0  0  0  0  0  0  0  0  0
   21.1117   -4.0004  -14.6329 C   0  0  0  0  0  0  0  0  0  0  0  0
   21.1329   -3.6853  -15.8461 O   0  0  0  0  0  0  0  0  0  0  0  0
   21.5414   -3.0819  -13.6917 O   0  0  0  0  0  0  0  0  0  0  0  0
  2  1  1  6
  2  3  1  0
  3  4  1  0
  4  8  1  0
  4  5  2  0
  6  2  1  0
  7  6  2  0
  9  6  1  0
 10  9  1  0
 10 11  1  1
 11 12  1  0
 12 13  1  0
 13 14  1  0
 14 15  1  0
 16 18  1  0
 16 10  1  0
 17 16  2  0
 19 20  1  6
 19 18  1  0
 21 20  1  0
 22 19  1  0
 22 24  1  0
 23 22  2  0
M  END
$$$$
