DKC.pdb
     RDKit          3D

 24 23  0  0  1  0  0  0  0  0999 V2000
   18.9041  -23.7034   -9.4444 N   0  0  0  0  0  0  0  0  0  0  0  0
   18.4641  -23.3253  -10.7536 C   0  0  1  0  0  0  0  0  0  0  0  0
   17.1310  -22.6228  -10.6102 C   0  0  0  0  0  0  0  0  0  0  0  0
   16.0789  -23.6535  -10.4109 C   0  0  0  0  0  0  0  0  0  0  0  0
   14.8744  -23.3256  -10.1756 O   0  0  0  0  0  0  0  0  0  0  0  0
   19.4805  -22.4426  -11.3843 C   0  0  0  0  0  0  0  0  0  0  0  0
   19.9970  -21.4683  -10.7650 O   0  0  0  0  0  0  0  0  0  0  0  0
   16.3685  -24.9952  -10.4736 O   0  0  0  0  0  0  0  0  0  0  0  0
   19.9023  -22.6673  -12.7024 N   0  0  0  0  0  0  0  0  0  0  0  0
   20.9191  -21.8237  -13.3699 C   0  0  1  0  0  0  0  0  0  0  0  0
   21.4379  -22.6381  -14.5074 C   0  0  0  0  0  0  0  0  0  0  0  0
   22.4813  -21.9594  -15.3545 C   0  0  0  0  0  0  0  0  0  0  0  0
   23.8574  -22.0995  -14.6928 C   0  0  0  0  0  0  0  0  0  0  0  0
   24.9460  -21.3966  -15.4333 C   0  0  0  0  0  0  0  0  0  0  0  0
   26.1805  -21.5479  -14.6459 N   0  0  0  0  0  0  0  0  0  0  0  0
   20.3371  -20.5382  -13.6408 C   0  0  0  0  0  0  0  0  0  0  0  0
   19.1373  -20.3231  -13.2412 O   0  0  0  0  0  0  0  0  0  0  0  0
   20.9307  -19.4475  -14.3063 N   0  0  0  0  0  0  0  0  0  0  0  0
   20.2049  -18.2128  -14.4971 C   0  0  1  0  0  0  0  0  0  0  0  0
   20.0678  -17.5862  -13.1019 C   0  0  0  0  0  0  0  0  0  0  0  0
   19.3569  -15.9438  -13.2028 S   0  0  0  0  0  0  0  0  0  0  0  0
   20.9463  -17.2642  -15.3612 C   0  0  0  0  0  0  0  0  0  0  0  0
   22.1985  -17.3177  -15.3873 O   0  0  0  0  0  0  0  0  0  0  0  0
   20.2967  -16.3223  -16.1390 O   0  0  0  0  0  0  0  0  0  0  0  0
  2  1  1  1
  2  3  1  0
  3  4  1  0
  4  8  1  0
  4  5  2  0
  6  2  1  0
  7  6  2  0
  9  6  1  0
 10  9  1  0
 10 11  1  6
 11 12  1  0
 12 13  1  0
 13 14  1  0
 14 15  1  0
 16 18  1  0
 16 10  1  0
 17 16  2  0
 19 20  1  1
 19 18  1  0
 21 20  1  0
 22 19  1  0
 22 24  1  0
 23 22  2  0
M  END
$$$$
