VTT.pdb
     RDKit          3D

 22 21  0  0  1  0  0  0  0  0999 V2000
    9.1696  -12.2413   19.9618 C   0  0  0  0  0  0  0  0  0  0  0  0
    8.3425  -12.9294   18.9104 C   0  0  2  0  0  0  0  0  0  0  0  0
    6.8798  -12.7466   19.2041 C   0  0  0  0  0  0  0  0  0  0  0  0
    8.7175  -14.3778   18.7313 C   0  0  2  0  0  0  0  0  0  0  0  0
    7.9638  -14.8848   17.6051 N   0  0  0  0  0  0  0  0  0  0  0  0
    8.4091  -15.1989   19.9178 C   0  0  0  0  0  0  0  0  0  0  0  0
    7.2571  -15.6555   20.1340 O   0  0  0  0  0  0  0  0  0  0  0  0
   10.2696  -18.2713   23.1864 C   0  0  0  0  0  0  0  0  0  0  0  0
   10.3636  -17.3780   21.9607 C   0  0  1  0  0  0  0  0  0  0  0  0
   10.1816  -18.1992   20.8514 O   0  0  0  0  0  0  0  0  0  0  0  0
    9.2655  -16.3087   22.0139 C   0  0  2  0  0  0  0  0  0  0  0  0
    9.4346  -15.4839   20.8420 N   0  0  0  0  0  0  0  0  0  0  0  0
    9.3029  -15.5555   23.2635 C   0  0  0  0  0  0  0  0  0  0  0  0
   10.2305  -14.7388   23.4734 O   0  0  0  0  0  0  0  0  0  0  0  0
    6.7387  -13.2036   25.0589 C   0  0  0  0  0  0  0  0  0  0  0  0
    7.0917  -14.3786   25.9294 C   0  0  1  0  0  0  0  0  0  0  0  0
    6.0925  -15.3423   25.7385 O   0  0  0  0  0  0  0  0  0  0  0  0
    8.4284  -14.9638   25.4991 C   0  0  2  0  0  0  0  0  0  0  0  0
    8.3194  -15.7056   24.2745 N   0  0  0  0  0  0  0  0  0  0  0  0
    8.9018  -15.8221   26.6284 C   0  0  0  0  0  0  0  0  0  0  0  0
    9.0291  -17.0486   26.5104 O   0  0  0  0  0  0  0  0  0  0  0  0
    9.2006  -15.2018   27.8336 O   0  0  0  0  0  0  0  0  0  0  0  0
  2  1  1  1
  2  3  1  0
  4  2  1  0
  4  6  1  0
  4  5  1  6
  6  7  2  0
  6 12  1  0
  9 11  1  0
  9  8  1  1
 10  9  1  0
 11 13  1  0
 11 12  1  6
 13 19  1  0
 13 14  2  0
 16 15  1  6
 16 18  1  0
 17 16  1  0
 18 20  1  0
 18 19  1  6
 20 22  1  0
 21 20  2  0
M  END
$$$$
