VTT.pdb
     RDKit          3D

 22 21  0  0  1  0  0  0  0  0999 V2000
    7.1072  -12.6828   19.7938 C   0  0  0  0  0  0  0  0  0  0  0  0
    8.5544  -13.0542   19.6192 C   0  0  2  0  0  0  0  0  0  0  0  0
    9.1167  -12.3775   18.4006 C   0  0  0  0  0  0  0  0  0  0  0  0
    8.7744  -14.5448   19.6036 C   0  0  2  0  0  0  0  0  0  0  0  0
    8.1496  -15.0629   18.4058 N   0  0  0  0  0  0  0  0  0  0  0  0
    8.1876  -15.2213   20.7763 C   0  0  0  0  0  0  0  0  0  0  0  0
    7.0775  -15.8103   20.7225 O   0  0  0  0  0  0  0  0  0  0  0  0
   10.5049  -17.1244   23.4282 C   0  0  0  0  0  0  0  0  0  0  0  0
    8.9933  -17.2103   23.2994 C   0  0  1  0  0  0  0  0  0  0  0  0
    8.5306  -17.8647   24.4376 O   0  0  0  0  0  0  0  0  0  0  0  0
    8.3993  -15.7984   23.2219 C   0  0  2  0  0  0  0  0  0  0  0  0
    8.8894  -15.2103   21.9987 N   0  0  0  0  0  0  0  0  0  0  0  0
    8.7144  -15.0121   24.4104 C   0  0  0  0  0  0  0  0  0  0  0  0
    9.8858  -14.6075   24.5995 O   0  0  0  0  0  0  0  0  0  0  0  0
    6.5427  -11.9477   26.0507 C   0  0  0  0  0  0  0  0  0  0  0  0
    6.8938  -13.0505   27.0117 C   0  0  1  0  0  0  0  0  0  0  0  0
    5.7850  -13.9049   27.0747 O   0  0  0  0  0  0  0  0  0  0  0  0
    8.0900  -13.8339   26.4925 C   0  0  2  0  0  0  0  0  0  0  0  0
    7.7388  -14.6758   25.3835 N   0  0  0  0  0  0  0  0  0  0  0  0
    8.6150  -14.6261   27.6470 C   0  0  0  0  0  0  0  0  0  0  0  0
    9.0429  -14.0822   28.6742 O   0  0  0  0  0  0  0  0  0  0  0  0
    8.6118  -16.0100   27.5391 O   0  0  0  0  0  0  0  0  0  0  0  0
  2  1  1  6
  2  3  1  0
  4  2  1  0
  4  6  1  0
  4  5  1  6
  6  7  2  0
  6 12  1  0
  9 11  1  0
  9  8  1  1
 10  9  1  0
 11 13  1  0
 11 12  1  6
 13 19  1  0
 13 14  2  0
 16 15  1  6
 16 18  1  0
 17 16  1  0
 18 20  1  0
 18 19  1  6
 20 22  1  0
 21 20  2  0
M  END
$$$$
