VTT.pdb
     RDKit          3D

 22 21  0  0  1  0  0  0  0  0999 V2000
    8.0520  -19.3486   18.3580 C   0  0  0  0  0  0  0  0  0  0  0  0
    6.9063  -18.4468   17.9877 C   0  0  2  0  0  0  0  0  0  0  0  0
    5.9684  -19.1614   17.0556 C   0  0  0  0  0  0  0  0  0  0  0  0
    7.3643  -17.1202   17.4390 C   0  0  2  0  0  0  0  0  0  0  0  0
    7.9695  -17.3703   16.1487 N   0  0  0  0  0  0  0  0  0  0  0  0
    8.3541  -16.4539   18.3070 C   0  0  0  0  0  0  0  0  0  0  0  0
    9.5893  -16.6644   18.1967 O   0  0  0  0  0  0  0  0  0  0  0  0
    7.8000  -12.7533   19.3601 C   0  0  0  0  0  0  0  0  0  0  0  0
    8.0756  -13.5684   20.6126 C   0  0  1  0  0  0  0  0  0  0  0  0
    6.8408  -13.8314   21.1993 O   0  0  0  0  0  0  0  0  0  0  0  0
    8.7721  -14.8811   20.2332 C   0  0  2  0  0  0  0  0  0  0  0  0
    7.9067  -15.5515   19.2931 N   0  0  0  0  0  0  0  0  0  0  0  0
    9.0866  -15.6869   21.4086 C   0  0  0  0  0  0  0  0  0  0  0  0
    8.2334  -15.8275   22.3164 O   0  0  0  0  0  0  0  0  0  0  0  0
   10.7104  -19.2560   21.4741 C   0  0  0  0  0  0  0  0  0  0  0  0
   11.4358  -18.3510   22.4322 C   0  0  1  0  0  0  0  0  0  0  0  0
   12.6071  -17.9304   21.7884 O   0  0  0  0  0  0  0  0  0  0  0  0
   10.5819  -17.1318   22.7463 C   0  0  2  0  0  0  0  0  0  0  0  0
   10.3378  -16.3331   21.5782 N   0  0  0  0  0  0  0  0  0  0  0  0
   11.3084  -16.3629   23.8032 C   0  0  0  0  0  0  0  0  0  0  0  0
   11.4507  -16.8026   24.9523 O   0  0  0  0  0  0  0  0  0  0  0  0
   11.8289  -15.1225   23.4607 O   0  0  0  0  0  0  0  0  0  0  0  0
  2  1  1  6
  2  3  1  0
  4  2  1  0
  4  6  1  0
  4  5  1  6
  6  7  2  0
  6 12  1  0
  9 11  1  0
  9  8  1  6
 10  9  1  0
 11 13  1  0
 11 12  1  6
 13 19  1  0
 13 14  2  0
 16 15  1  6
 16 18  1  0
 17 16  1  0
 18 20  1  0
 18 19  1  6
 20 22  1  0
 21 20  2  0
M  END
$$$$
