VTT.pdb
     RDKit          3D

 22 21  0  0  1  0  0  0  0  0999 V2000
    8.3417  -13.0021   17.9601 C   0  0  0  0  0  0  0  0  0  0  0  0
    7.9144  -13.4554   19.3293 C   0  0  2  0  0  0  0  0  0  0  0  0
    8.3539  -12.4568   20.3632 C   0  0  0  0  0  0  0  0  0  0  0  0
    8.3735  -14.8548   19.6482 C   0  0  2  0  0  0  0  0  0  0  0  0
    7.8647  -15.7251   18.6103 N   0  0  0  0  0  0  0  0  0  0  0  0
    7.8811  -15.3341   20.9539 C   0  0  0  0  0  0  0  0  0  0  0  0
    6.6775  -15.6485   21.1403 O   0  0  0  0  0  0  0  0  0  0  0  0
    8.5306  -18.2266   22.3705 C   0  0  0  0  0  0  0  0  0  0  0  0
    9.0478  -17.3252   23.4792 C   0  0  1  0  0  0  0  0  0  0  0  0
   10.4298  -17.2549   23.3266 O   0  0  0  0  0  0  0  0  0  0  0  0
    8.4282  -15.9289   23.3425 C   0  0  2  0  0  0  0  0  0  0  0  0
    8.7842  -15.4452   22.0305 N   0  0  0  0  0  0  0  0  0  0  0  0
    8.8495  -15.0413   24.4218 C   0  0  0  0  0  0  0  0  0  0  0  0
    9.9401  -14.4288   24.3376 O   0  0  0  0  0  0  0  0  0  0  0  0
    7.2043  -11.9340   26.1060 C   0  0  0  0  0  0  0  0  0  0  0  0
    7.4484  -13.0211   27.1168 C   0  0  1  0  0  0  0  0  0  0  0  0
    6.2531  -13.7425   27.2365 O   0  0  0  0  0  0  0  0  0  0  0  0
    8.5408  -13.9574   26.6225 C   0  0  2  0  0  0  0  0  0  0  0  0
    8.0682  -14.8331   25.5873 N   0  0  0  0  0  0  0  0  0  0  0  0
    9.0233  -14.7180   27.8161 C   0  0  0  0  0  0  0  0  0  0  0  0
    8.9584  -15.9535   27.8760 O   0  0  0  0  0  0  0  0  0  0  0  0
    9.5550  -13.9946   28.8748 O   0  0  0  0  0  0  0  0  0  0  0  0
  2  1  1  6
  2  3  1  0
  4  2  1  0
  4  6  1  0
  4  5  1  6
  6  7  2  0
  6 12  1  0
  9 11  1  0
  9  8  1  6
 10  9  1  0
 11 13  1  0
 11 12  1  6
 13 19  1  0
 13 14  2  0
 16 15  1  6
 16 18  1  0
 17 16  1  0
 18 20  1  0
 18 19  1  6
 20 22  1  0
 21 20  2  0
M  END
$$$$
