VTT.pdb
     RDKit          3D

 22 21  0  0  1  0  0  0  0  0999 V2000
    6.9036  -11.9854   25.1270 C   0  0  0  0  0  0  0  0  0  0  0  0
    6.2423  -12.8333   26.1791 C   0  0  2  0  0  0  0  0  0  0  0  0
    6.2142  -12.0988   27.4902 C   0  0  0  0  0  0  0  0  0  0  0  0
    6.8626  -14.2013   26.2981 C   0  0  2  0  0  0  0  0  0  0  0  0
    8.2209  -14.0225   26.7638 N   0  0  0  0  0  0  0  0  0  0  0  0
    6.8922  -14.9289   25.0148 C   0  0  0  0  0  0  0  0  0  0  0  0
    5.8489  -15.3857   24.4809 O   0  0  0  0  0  0  0  0  0  0  0  0
    7.2118  -14.0117   21.8896 C   0  0  0  0  0  0  0  0  0  0  0  0
    8.4661  -14.8607   22.0126 C   0  0  1  0  0  0  0  0  0  0  0  0
    9.5123  -13.9900   22.3051 O   0  0  0  0  0  0  0  0  0  0  0  0
    8.2925  -15.8796   23.1456 C   0  0  2  0  0  0  0  0  0  0  0  0
    8.1266  -15.1212   24.3619 N   0  0  0  0  0  0  0  0  0  0  0  0
    9.4031  -16.8252   23.1987 C   0  0  0  0  0  0  0  0  0  0  0  0
   10.2527  -16.7403   24.1166 O   0  0  0  0  0  0  0  0  0  0  0  0
   12.0031  -20.3078   20.9391 C   0  0  0  0  0  0  0  0  0  0  0  0
   10.6111  -19.8713   21.3063 C   0  0  1  0  0  0  0  0  0  0  0  0
    9.9625  -20.9894   21.8474 O   0  0  0  0  0  0  0  0  0  0  0  0
   10.6687  -18.7772   22.3618 C   0  0  2  0  0  0  0  0  0  0  0  0
    9.5720  -17.8582   22.2415 N   0  0  0  0  0  0  0  0  0  0  0  0
   11.9878  -18.0929   22.1955 C   0  0  0  0  0  0  0  0  0  0  0  0
   13.0565  -18.6532   22.4751 O   0  0  0  0  0  0  0  0  0  0  0  0
   11.9872  -16.7919   21.7118 O   0  0  0  0  0  0  0  0  0  0  0  0
  2  1  1  6
  2  3  1  0
  4  2  1  0
  4  6  1  0
  4  5  1  6
  6  7  2  0
  6 12  1  0
  9 11  1  0
  9  8  1  1
 10  9  1  0
 11 13  1  0
 11 12  1  1
 13 19  1  0
 13 14  2  0
 16 15  1  1
 16 18  1  0
 17 16  1  0
 18 20  1  0
 18 19  1  6
 20 22  1  0
 21 20  2  0
M  END
$$$$
