VTT.pdb
     RDKit          3D

 22 21  0  0  1  0  0  0  0  0999 V2000
   -2.0850  -27.1338   27.7755 C   0  0  0  0  0  0  0  0  0  0  0  0
   -0.9823  -26.3314   28.4104 C   0  0  2  0  0  0  0  0  0  0  0  0
    0.3429  -27.0006   28.1755 C   0  0  0  0  0  0  0  0  0  0  0  0
   -1.2345  -26.0486   29.8689 C   0  0  2  0  0  0  0  0  0  0  0  0
   -0.6088  -27.1079   30.6305 N   0  0  0  0  0  0  0  0  0  0  0  0
   -2.6711  -26.0080   30.2029 C   0  0  0  0  0  0  0  0  0  0  0  0
   -3.4487  -26.9578   29.9281 O   0  0  0  0  0  0  0  0  0  0  0  0
   -4.0784  -26.2564   33.2273 C   0  0  0  0  0  0  0  0  0  0  0  0
   -4.5354  -24.8637   32.8265 C   0  0  1  0  0  0  0  0  0  0  0  0
   -3.6124  -23.9695   33.3616 O   0  0  0  0  0  0  0  0  0  0  0  0
   -4.5608  -24.7472   31.2975 C   0  0  2  0  0  0  0  0  0  0  0  0
   -3.1943  -24.8707   30.8508 N   0  0  0  0  0  0  0  0  0  0  0  0
   -5.2051  -23.5134   30.8588 C   0  0  0  0  0  0  0  0  0  0  0  0
   -4.5930  -22.4229   30.9477 O   0  0  0  0  0  0  0  0  0  0  0  0
   -6.7213  -22.6768   27.3899 C   0  0  0  0  0  0  0  0  0  0  0  0
   -7.7482  -22.4629   28.4682 C   0  0  1  0  0  0  0  0  0  0  0  0
   -8.5255  -23.6273   28.5278 O   0  0  0  0  0  0  0  0  0  0  0  0
   -7.0611  -22.2607   29.8104 C   0  0  2  0  0  0  0  0  0  0  0  0
   -6.5190  -23.4868   30.3250 N   0  0  0  0  0  0  0  0  0  0  0  0
   -8.0851  -21.6766   30.7303 C   0  0  0  0  0  0  0  0  0  0  0  0
   -8.5243  -22.3032   31.7043 O   0  0  0  0  0  0  0  0  0  0  0  0
   -8.5405  -20.3930   30.4628 O   0  0  0  0  0  0  0  0  0  0  0  0
  2  1  1  1
  2  3  1  0
  4  2  1  0
  4  6  1  0
  4  5  1  1
  6  7  2  0
  6 12  1  0
  9 11  1  0
  9  8  1  6
 10  9  1  0
 11 13  1  0
 11 12  1  1
 13 19  1  0
 13 14  2  0
 16 15  1  6
 16 18  1  0
 17 16  1  0
 18 20  1  0
 18 19  1  1
 20 22  1  0
 21 20  2  0
M  END
$$$$
