VTT.pdb
     RDKit          3D

 22 21  0  0  1  0  0  0  0  0999 V2000
    7.0888  -12.6485   20.0003 C   0  0  0  0  0  0  0  0  0  0  0  0
    8.4701  -13.1685   19.7091 C   0  0  2  0  0  0  0  0  0  0  0  0
    8.9722  -12.5990   18.4119 C   0  0  0  0  0  0  0  0  0  0  0  0
    8.5446  -14.6731   19.7450 C   0  0  2  0  0  0  0  0  0  0  0  0
    7.7558  -15.1729   18.6398 N   0  0  0  0  0  0  0  0  0  0  0  0
    8.0172  -15.2414   21.0004 C   0  0  0  0  0  0  0  0  0  0  0  0
    6.7974  -15.5071   21.1537 O   0  0  0  0  0  0  0  0  0  0  0  0
    8.8019  -18.0240   24.8158 C   0  0  0  0  0  0  0  0  0  0  0  0
    9.2150  -17.3772   23.5043 C   0  0  1  0  0  0  0  0  0  0  0  0
    8.8266  -18.2466   22.4888 O   0  0  0  0  0  0  0  0  0  0  0  0
    8.5046  -16.0272   23.3464 C   0  0  2  0  0  0  0  0  0  0  0  0
    8.9046  -15.4969   22.0654 N   0  0  0  0  0  0  0  0  0  0  0  0
    8.7923  -15.1300   24.4610 C   0  0  0  0  0  0  0  0  0  0  0  0
    9.9460  -14.6606   24.6037 O   0  0  0  0  0  0  0  0  0  0  0  0
    6.5782  -12.0028   25.8627 C   0  0  0  0  0  0  0  0  0  0  0  0
    6.9309  -13.0244   26.9091 C   0  0  1  0  0  0  0  0  0  0  0  0
    5.8298  -13.8828   27.0284 O   0  0  0  0  0  0  0  0  0  0  0  0
    8.1394  -13.8333   26.4623 C   0  0  2  0  0  0  0  0  0  0  0  0
    7.8088  -14.7547   25.4118 N   0  0  0  0  0  0  0  0  0  0  0  0
    8.6546  -14.5371   27.6769 C   0  0  0  0  0  0  0  0  0  0  0  0
    8.6335  -15.7715   27.7772 O   0  0  0  0  0  0  0  0  0  0  0  0
    9.1661  -13.7613   28.7080 O   0  0  0  0  0  0  0  0  0  0  0  0
  2  1  1  6
  2  3  1  0
  4  2  1  0
  4  6  1  0
  4  5  1  6
  6  7  2  0
  6 12  1  0
  9 11  1  0
  9  8  1  1
 10  9  1  0
 11 13  1  0
 11 12  1  6
 13 19  1  0
 13 14  2  0
 16 15  1  6
 16 18  1  0
 17 16  1  0
 18 20  1  0
 18 19  1  6
 20 22  1  0
 21 20  2  0
M  END
$$$$
