VTT.pdb
     RDKit          3D

 22 21  0  0  1  0  0  0  0  0999 V2000
    9.1989  -12.3465   19.9737 C   0  0  0  0  0  0  0  0  0  0  0  0
    9.7044  -13.7147   19.6058 C   0  0  2  0  0  0  0  0  0  0  0  0
   10.4880  -13.6473   18.3250 C   0  0  0  0  0  0  0  0  0  0  0  0
    8.6071  -14.7462   19.5564 C   0  0  2  0  0  0  0  0  0  0  0  0
    7.7297  -14.3939   18.4612 N   0  0  0  0  0  0  0  0  0  0  0  0
    7.8161  -14.7990   20.8009 C   0  0  0  0  0  0  0  0  0  0  0  0
    6.9782  -13.9094   21.0989 O   0  0  0  0  0  0  0  0  0  0  0  0
    6.4535  -17.7113   24.5529 C   0  0  0  0  0  0  0  0  0  0  0  0
    7.1794  -17.5021   23.2344 C   0  0  1  0  0  0  0  0  0  0  0  0
    6.3899  -18.0827   22.2457 O   0  0  0  0  0  0  0  0  0  0  0  0
    7.3445  -16.0010   22.9669 C   0  0  2  0  0  0  0  0  0  0  0  0
    8.0012  -15.8788   21.6878 N   0  0  0  0  0  0  0  0  0  0  0  0
    8.0573  -15.3326   24.0510 C   0  0  0  0  0  0  0  0  0  0  0  0
    9.2997  -15.4634   24.1561 O   0  0  0  0  0  0  0  0  0  0  0  0
    7.5094  -11.5949   25.7983 C   0  0  0  0  0  0  0  0  0  0  0  0
    7.4286  -12.7744   26.7285 C   0  0  1  0  0  0  0  0  0  0  0  0
    6.0698  -13.0804   26.8819 O   0  0  0  0  0  0  0  0  0  0  0  0
    8.1365  -13.9727   26.1143 C   0  0  2  0  0  0  0  0  0  0  0  0
    7.3988  -14.5244   25.0128 N   0  0  0  0  0  0  0  0  0  0  0  0
    8.3210  -14.9691   27.2140 C   0  0  0  0  0  0  0  0  0  0  0  0
    7.7808  -16.0834   27.1860 O   0  0  0  0  0  0  0  0  0  0  0  0
    9.1259  -14.6101   28.2863 O   0  0  0  0  0  0  0  0  0  0  0  0
  2  1  1  6
  2  3  1  0
  4  2  1  0
  4  6  1  0
  4  5  1  6
  6  7  2  0
  6 12  1  0
  9 11  1  0
  9  8  1  1
 10  9  1  0
 11 13  1  0
 11 12  1  6
 13 19  1  0
 13 14  2  0
 16 15  1  6
 16 18  1  0
 17 16  1  0
 18 20  1  0
 18 19  1  6
 20 22  1  0
 21 20  2  0
M  END
$$$$
