VTT.pdb
     RDKit          3D

 22 21  0  0  1  0  0  0  0  0999 V2000
    7.2200  -12.6249   19.7423 C   0  0  0  0  0  0  0  0  0  0  0  0
    8.5424  -13.3069   19.5211 C   0  0  2  0  0  0  0  0  0  0  0  0
    9.0464  -13.0169   18.1350 C   0  0  0  0  0  0  0  0  0  0  0  0
    8.4925  -14.7832   19.8189 C   0  0  2  0  0  0  0  0  0  0  0  0
    7.7994  -15.4236   18.7220 N   0  0  0  0  0  0  0  0  0  0  0  0
    7.7801  -15.0890   21.0744 C   0  0  0  0  0  0  0  0  0  0  0  0
    6.5318  -14.9756   21.1796 O   0  0  0  0  0  0  0  0  0  0  0  0
    7.7942  -18.1825   22.6563 C   0  0  0  0  0  0  0  0  0  0  0  0
    8.2887  -17.2911   23.7832 C   0  0  1  0  0  0  0  0  0  0  0  0
    9.6704  -17.4502   23.8431 O   0  0  0  0  0  0  0  0  0  0  0  0
    7.9365  -15.8295   23.4797 C   0  0  2  0  0  0  0  0  0  0  0  0
    8.5172  -15.5226   22.1949 N   0  0  0  0  0  0  0  0  0  0  0  0
    8.3774  -14.9338   24.5443 C   0  0  0  0  0  0  0  0  0  0  0  0
    9.5338  -14.4503   24.5154 O   0  0  0  0  0  0  0  0  0  0  0  0
    6.4330  -11.7955   26.1462 C   0  0  0  0  0  0  0  0  0  0  0  0
    6.8839  -12.7912   27.1797 C   0  0  1  0  0  0  0  0  0  0  0  0
    5.7857  -13.6158   27.4580 O   0  0  0  0  0  0  0  0  0  0  0  0
    8.0126  -13.6460   26.6232 C   0  0  2  0  0  0  0  0  0  0  0  0
    7.5434  -14.5754   25.6342 N   0  0  0  0  0  0  0  0  0  0  0  0
    8.6348  -14.3437   27.7903 C   0  0  0  0  0  0  0  0  0  0  0  0
    8.6549  -15.5789   27.8806 O   0  0  0  0  0  0  0  0  0  0  0  0
    9.1994  -13.5613   28.7881 O   0  0  0  0  0  0  0  0  0  0  0  0
  2  1  1  6
  2  3  1  0
  4  2  1  0
  4  6  1  0
  4  5  1  6
  6  7  2  0
  6 12  1  0
  9 11  1  0
  9  8  1  6
 10  9  1  0
 11 13  1  0
 11 12  1  6
 13 19  1  0
 13 14  2  0
 16 15  1  6
 16 18  1  0
 17 16  1  0
 18 20  1  0
 18 19  1  6
 20 22  1  0
 21 20  2  0
M  END
$$$$
