VTT.pdb
     RDKit          3D

 22 21  0  0  1  0  0  0  0  0999 V2000
    7.5127  -12.5447   19.4246 C   0  0  0  0  0  0  0  0  0  0  0  0
    8.8351  -13.2601   19.4733 C   0  0  2  0  0  0  0  0  0  0  0  0
    9.6949  -12.8332   18.3167 C   0  0  0  0  0  0  0  0  0  0  0  0
    8.6838  -14.7570   19.5571 C   0  0  2  0  0  0  0  0  0  0  0  0
    8.0623  -15.1995   18.3278 N   0  0  0  0  0  0  0  0  0  0  0  0
    7.8454  -15.1837   20.6939 C   0  0  0  0  0  0  0  0  0  0  0  0
    6.6031  -15.3476   20.5841 O   0  0  0  0  0  0  0  0  0  0  0  0
    7.0852  -17.8878   22.0451 C   0  0  0  0  0  0  0  0  0  0  0  0
    7.7391  -17.2713   23.2704 C   0  0  1  0  0  0  0  0  0  0  0  0
    9.0495  -17.7401   23.3040 O   0  0  0  0  0  0  0  0  0  0  0  0
    7.7264  -15.7424   23.1499 C   0  0  2  0  0  0  0  0  0  0  0  0
    8.4509  -15.4166   21.9453 N   0  0  0  0  0  0  0  0  0  0  0  0
    8.2675  -15.1004   24.3437 C   0  0  0  0  0  0  0  0  0  0  0  0
    9.5009  -14.8971   24.4392 O   0  0  0  0  0  0  0  0  0  0  0  0
    7.0156  -11.7698   26.2539 C   0  0  0  0  0  0  0  0  0  0  0  0
    7.0859  -12.9791   27.1459 C   0  0  1  0  0  0  0  0  0  0  0  0
    5.7954  -13.5227   27.1984 O   0  0  0  0  0  0  0  0  0  0  0  0
    8.0311  -14.0121   26.5511 C   0  0  2  0  0  0  0  0  0  0  0  0
    7.4484  -14.6862   25.4250 N   0  0  0  0  0  0  0  0  0  0  0  0
    8.3714  -14.9637   27.6531 C   0  0  0  0  0  0  0  0  0  0  0  0
    8.0664  -16.1631   27.6006 O   0  0  0  0  0  0  0  0  0  0  0  0
    9.0490  -14.4632   28.7563 O   0  0  0  0  0  0  0  0  0  0  0  0
  2  1  1  6
  2  3  1  0
  4  2  1  0
  4  6  1  0
  4  5  1  6
  6  7  2  0
  6 12  1  0
  9 11  1  0
  9  8  1  6
 10  9  1  0
 11 13  1  0
 11 12  1  6
 13 19  1  0
 13 14  2  0
 16 15  1  6
 16 18  1  0
 17 16  1  0
 18 20  1  0
 18 19  1  6
 20 22  1  0
 21 20  2  0
M  END
$$$$
