VTT.pdb
     RDKit          3D

 22 21  0  0  1  0  0  0  0  0999 V2000
   12.7798  -16.1105   21.8980 C   0  0  0  0  0  0  0  0  0  0  0  0
   12.1658  -17.4834   21.8635 C   0  0  2  0  0  0  0  0  0  0  0  0
   13.1572  -18.4779   21.3276 C   0  0  0  0  0  0  0  0  0  0  0  0
   10.8565  -17.5163   21.1184 C   0  0  2  0  0  0  0  0  0  0  0  0
   11.1578  -17.4104   19.7072 N   0  0  0  0  0  0  0  0  0  0  0  0
    9.9560  -16.4101   21.4964 C   0  0  0  0  0  0  0  0  0  0  0  0
    9.9714  -15.3022   20.9010 O   0  0  0  0  0  0  0  0  0  0  0  0
    6.4034  -16.6884   21.5373 C   0  0  0  0  0  0  0  0  0  0  0  0
    6.7185  -16.2522   22.9584 C   0  0  1  0  0  0  0  0  0  0  0  0
    6.7034  -17.4019   23.7431 O   0  0  0  0  0  0  0  0  0  0  0  0
    8.1049  -15.5980   23.0038 C   0  0  2  0  0  0  0  0  0  0  0  0
    9.0475  -16.5955   22.5580 N   0  0  0  0  0  0  0  0  0  0  0  0
    8.4086  -15.0636   24.3276 C   0  0  0  0  0  0  0  0  0  0  0  0
    9.4244  -15.4626   24.9446 O   0  0  0  0  0  0  0  0  0  0  0  0
    7.0265  -11.3139   26.0087 C   0  0  0  0  0  0  0  0  0  0  0  0
    6.9280  -12.5970   26.7878 C   0  0  1  0  0  0  0  0  0  0  0  0
    5.6390  -13.1043   26.5769 O   0  0  0  0  0  0  0  0  0  0  0  0
    7.9439  -13.6027   26.2673 C   0  0  2  0  0  0  0  0  0  0  0  0
    7.5929  -14.0935   24.9643 N   0  0  0  0  0  0  0  0  0  0  0  0
    8.0097  -14.7040   27.2767 C   0  0  0  0  0  0  0  0  0  0  0  0
    8.3820  -14.5043   28.4410 O   0  0  0  0  0  0  0  0  0  0  0  0
    7.6374  -15.9784   26.8715 O   0  0  0  0  0  0  0  0  0  0  0  0
  2  1  1  6
  2  3  1  0
  4  2  1  0
  4  6  1  0
  4  5  1  6
  6  7  2  0
  6 12  1  0
  9 11  1  0
  9  8  1  6
 10  9  1  0
 11 13  1  0
 11 12  1  1
 13 19  1  0
 13 14  2  0
 16 15  1  6
 16 18  1  0
 17 16  1  0
 18 20  1  0
 18 19  1  6
 20 22  1  0
 21 20  2  0
M  END
$$$$
