VTT.pdb
     RDKit          3D

 22 21  0  0  1  0  0  0  0  0999 V2000
    8.0833  -19.1988   14.8410 C   0  0  0  0  0  0  0  0  0  0  0  0
    8.7040  -18.4457   15.9857 C   0  0  2  0  0  0  0  0  0  0  0  0
    8.1591  -18.9524   17.2917 C   0  0  0  0  0  0  0  0  0  0  0  0
    8.5636  -16.9522   15.8435 C   0  0  2  0  0  0  0  0  0  0  0  0
    9.2772  -16.5616   14.6469 N   0  0  0  0  0  0  0  0  0  0  0  0
    9.1223  -16.2137   16.9923 C   0  0  0  0  0  0  0  0  0  0  0  0
   10.3602  -16.1439   17.2042 O   0  0  0  0  0  0  0  0  0  0  0  0
    7.9714  -12.8890   20.4784 C   0  0  0  0  0  0  0  0  0  0  0  0
    7.6206  -13.7032   19.2442 C   0  0  1  0  0  0  0  0  0  0  0  0
    7.6206  -12.8200   18.1681 O   0  0  0  0  0  0  0  0  0  0  0  0
    8.6725  -14.7986   19.0303 C   0  0  2  0  0  0  0  0  0  0  0  0
    8.2452  -15.5639   17.8841 N   0  0  0  0  0  0  0  0  0  0  0  0
    8.8633  -15.6080   20.2297 C   0  0  0  0  0  0  0  0  0  0  0  0
    7.9044  -16.2647   20.6996 O   0  0  0  0  0  0  0  0  0  0  0  0
   11.7547  -18.1268   21.0023 C   0  0  0  0  0  0  0  0  0  0  0  0
   11.5881  -17.1844   22.1630 C   0  0  1  0  0  0  0  0  0  0  0  0
   12.5950  -16.2164   22.0502 O   0  0  0  0  0  0  0  0  0  0  0  0
   10.2334  -16.4964   22.0862 C   0  0  2  0  0  0  0  0  0  0  0  0
   10.1081  -15.6898   20.9048 N   0  0  0  0  0  0  0  0  0  0  0  0
   10.0976  -15.6812   23.3324 C   0  0  0  0  0  0  0  0  0  0  0  0
   10.0254  -14.4451   23.3021 O   0  0  0  0  0  0  0  0  0  0  0  0
   10.0535  -16.3537   24.5459 O   0  0  0  0  0  0  0  0  0  0  0  0
  2  1  1  6
  2  3  1  0
  4  2  1  0
  4  6  1  0
  4  5  1  6
  6  7  2  0
  6 12  1  0
  9 11  1  0
  9  8  1  1
 10  9  1  0
 11 13  1  0
 11 12  1  6
 13 19  1  0
 13 14  2  0
 16 15  1  6
 16 18  1  0
 17 16  1  0
 18 20  1  0
 18 19  1  6
 20 22  1  0
 21 20  2  0
M  END
$$$$
