VTT.pdb
     RDKit          3D

 22 21  0  0  1  0  0  0  0  0999 V2000
    7.0441  -12.8168   19.6725 C   0  0  0  0  0  0  0  0  0  0  0  0
    8.4542  -13.2606   19.3939 C   0  0  2  0  0  0  0  0  0  0  0  0
    8.8912  -12.7702   18.0420 C   0  0  0  0  0  0  0  0  0  0  0  0
    8.6383  -14.7475   19.5547 C   0  0  2  0  0  0  0  0  0  0  0  0
    8.0135  -15.3873   18.4172 N   0  0  0  0  0  0  0  0  0  0  0  0
    8.0233  -15.2691   20.7904 C   0  0  0  0  0  0  0  0  0  0  0  0
    6.7895  -15.4969   20.8786 O   0  0  0  0  0  0  0  0  0  0  0  0
    8.5410  -18.2727   22.3046 C   0  0  0  0  0  0  0  0  0  0  0  0
    8.9221  -17.3475   23.4482 C   0  0  1  0  0  0  0  0  0  0  0  0
   10.3130  -17.2957   23.4753 O   0  0  0  0  0  0  0  0  0  0  0  0
    8.3448  -15.9490   23.1972 C   0  0  2  0  0  0  0  0  0  0  0  0
    8.8402  -15.5221   21.9109 N   0  0  0  0  0  0  0  0  0  0  0  0
    8.6708  -15.0260   24.2798 C   0  0  0  0  0  0  0  0  0  0  0  0
    9.7174  -14.3384   24.2208 O   0  0  0  0  0  0  0  0  0  0  0  0
    6.9365  -11.9507   25.9160 C   0  0  0  0  0  0  0  0  0  0  0  0
    7.1083  -13.0648   26.9121 C   0  0  1  0  0  0  0  0  0  0  0  0
    5.9124  -13.7951   26.9175 O   0  0  0  0  0  0  0  0  0  0  0  0
    8.2427  -13.9814   26.4794 C   0  0  2  0  0  0  0  0  0  0  0  0
    7.8433  -14.8652   25.4205 N   0  0  0  0  0  0  0  0  0  0  0  0
    8.6723  -14.7334   27.6984 C   0  0  0  0  0  0  0  0  0  0  0  0
    8.5960  -15.9677   27.7675 O   0  0  0  0  0  0  0  0  0  0  0  0
    9.1675  -14.0033   28.7700 O   0  0  0  0  0  0  0  0  0  0  0  0
  2  1  1  6
  2  3  1  0
  4  2  1  0
  4  6  1  0
  4  5  1  6
  6  7  2  0
  6 12  1  0
  9 11  1  0
  9  8  1  6
 10  9  1  0
 11 13  1  0
 11 12  1  6
 13 19  1  0
 13 14  2  0
 16 15  1  6
 16 18  1  0
 17 16  1  0
 18 20  1  0
 18 19  1  6
 20 22  1  0
 21 20  2  0
M  END
$$$$
