VTT.pdb
     RDKit          3D

 22 21  0  0  1  0  0  0  0  0999 V2000
    3.9156  -20.7444   21.4646 C   0  0  0  0  0  0  0  0  0  0  0  0
    5.0882  -19.8121   21.6013 C   0  0  2  0  0  0  0  0  0  0  0  0
    5.1120  -19.2125   22.9794 C   0  0  0  0  0  0  0  0  0  0  0  0
    5.1293  -18.7663   20.5171 C   0  0  2  0  0  0  0  0  0  0  0  0
    5.0484  -19.4550   19.2472 N   0  0  0  0  0  0  0  0  0  0  0  0
    6.3669  -17.9634   20.5443 C   0  0  0  0  0  0  0  0  0  0  0  0
    7.4939  -18.4632   20.2949 O   0  0  0  0  0  0  0  0  0  0  0  0
    8.0643  -13.3094   20.8179 C   0  0  0  0  0  0  0  0  0  0  0  0
    6.9726  -14.3270   20.5317 C   0  0  1  0  0  0  0  0  0  0  0  0
    6.7590  -14.3096   19.1562 O   0  0  0  0  0  0  0  0  0  0  0  0
    7.4332  -15.7200   20.9786 C   0  0  2  0  0  0  0  0  0  0  0  0
    6.2895  -16.5916   20.8593 N   0  0  0  0  0  0  0  0  0  0  0  0
    8.0069  -15.6963   22.3204 C   0  0  0  0  0  0  0  0  0  0  0  0
    7.3852  -15.1400   23.2562 O   0  0  0  0  0  0  0  0  0  0  0  0
    8.7335  -18.2394   24.8835 C   0  0  0  0  0  0  0  0  0  0  0  0
   10.0422  -17.5728   24.5577 C   0  0  1  0  0  0  0  0  0  0  0  0
   10.6824  -18.3755   23.6041 O   0  0  0  0  0  0  0  0  0  0  0  0
    9.7920  -16.1982   23.9558 C   0  0  2  0  0  0  0  0  0  0  0  0
    9.2612  -16.2847   22.6244 N   0  0  0  0  0  0  0  0  0  0  0  0
   11.1001  -15.4744   23.9866 C   0  0  0  0  0  0  0  0  0  0  0  0
   11.6819  -15.1283   22.9493 O   0  0  0  0  0  0  0  0  0  0  0  0
   11.6575  -15.1943   25.2265 O   0  0  0  0  0  0  0  0  0  0  0  0
  2  1  1  1
  2  3  1  0
  4  2  1  0
  4  6  1  0
  4  5  1  6
  6  7  2  0
  6 12  1  0
  9 11  1  0
  9  8  1  6
 10  9  1  0
 11 13  1  0
 11 12  1  1
 13 19  1  0
 13 14  2  0
 16 15  1  6
 16 18  1  0
 17 16  1  0
 18 20  1  0
 18 19  1  6
 20 22  1  0
 21 20  2  0
M  END
$$$$
