QPN.pdb
     RDKit          3D

 25 25  0  0  1  0  0  0  0  0999 V2000
    7.8872  -19.0186   19.7415 N   0  0  0  0  0  0  0  0  0  0  0  0
    7.3763  -19.1287   18.4319 C   0  0  0  0  0  0  0  0  0  0  0  0
    6.4244  -19.8991   18.1905 O   0  0  0  0  0  0  0  0  0  0  0  0
    7.9670  -18.3320   17.3408 C   0  0  0  0  0  0  0  0  0  0  0  0
    7.2622  -16.9796   17.2059 C   0  0  0  0  0  0  0  0  0  0  0  0
    8.2629  -15.9170   16.7584 C   0  0  2  0  0  0  0  0  0  0  0  0
    9.0471  -16.4811   15.6989 N   0  0  0  0  0  0  0  0  0  0  0  0
    9.0095  -15.3706   17.8864 C   0  0  0  0  0  0  0  0  0  0  0  0
   10.2866  -15.4760   17.8137 O   0  0  0  0  0  0  0  0  0  0  0  0
    8.4577  -14.7625   19.0011 N   0  0  0  0  0  0  0  0  0  0  0  0
    7.1099  -14.5407   19.4669 C   0  0  0  0  0  0  0  0  0  0  0  0
    7.1344  -13.0356   19.7301 C   0  0  0  0  0  0  0  0  0  0  0  0
    8.4956  -12.8860   20.3760 C   0  0  0  0  0  0  0  0  0  0  0  0
    9.2565  -14.1305   20.0883 C   0  0  1  0  0  0  0  0  0  0  0  0
    9.4324  -15.0510   21.2107 C   0  0  0  0  0  0  0  0  0  0  0  0
    8.5615  -15.9665   21.3647 O   0  0  0  0  0  0  0  0  0  0  0  0
   12.9283  -18.6333   23.2200 N   0  0  0  0  0  0  0  0  0  0  0  0
   12.9877  -17.2918   23.7150 C   0  0  0  0  0  0  0  0  0  0  0  0
   13.5660  -17.1291   24.8085 O   0  0  0  0  0  0  0  0  0  0  0  0
   12.3874  -16.2132   22.9402 C   0  0  0  0  0  0  0  0  0  0  0  0
   10.8887  -16.2101   22.8665 C   0  0  2  0  0  0  0  0  0  0  0  0
   10.4903  -15.0024   22.1332 N   0  0  0  0  0  0  0  0  0  0  0  0
   10.2395  -16.2216   24.1867 C   0  0  0  0  0  0  0  0  0  0  0  0
    9.5909  -15.0547   24.6257 O   0  0  0  0  0  0  0  0  0  0  0  0
   10.2056  -17.1901   24.9786 O   0  0  0  0  0  0  0  0  0  0  0  0
  1  2  1  0
  2  3  2  0
  2  4  1  0
  4  5  1  0
  6  8  1  0
  6  5  1  0
  6  7  1  6
  8 10  1  0
  9  8  2  0
 10 14  1  0
 10 11  1  0
 11 12  1  0
 12 13  1  0
 14 13  1  0
 15 22  1  0
 14 15  1  1
 16 15  2  0
 17 18  1  0
 18 19  2  0
 21 20  1  1
 20 18  1  0
 21 23  1  0
 21 22  1  0
 23 24  1  0
 25 23  2  0
M  END
$$$$
