QPN.pdb
     RDKit          3D

 25 25  0  0  1  0  0  0  0  0999 V2000
    4.9173  -18.3320   19.5525 N   0  0  0  0  0  0  0  0  0  0  0  0
    6.1759  -18.9661   19.5956 C   0  0  0  0  0  0  0  0  0  0  0  0
    6.3889  -19.8874   20.4102 O   0  0  0  0  0  0  0  0  0  0  0  0
    7.2472  -18.5412   18.6758 C   0  0  0  0  0  0  0  0  0  0  0  0
    6.7902  -17.3661   17.8074 C   0  0  0  0  0  0  0  0  0  0  0  0
    7.9920  -16.5040   17.4290 C   0  0  2  0  0  0  0  0  0  0  0  0
    8.7930  -17.2590   16.5104 N   0  0  0  0  0  0  0  0  0  0  0  0
    8.6813  -15.9927   18.6088 C   0  0  0  0  0  0  0  0  0  0  0  0
    9.8639  -16.4508   18.8063 O   0  0  0  0  0  0  0  0  0  0  0  0
    8.1683  -15.0737   19.5084 N   0  0  0  0  0  0  0  0  0  0  0  0
    6.8962  -14.4088   19.6576 C   0  0  0  0  0  0  0  0  0  0  0  0
    7.3371  -12.9483   19.7456 C   0  0  0  0  0  0  0  0  0  0  0  0
    8.5545  -13.0761   20.6368 C   0  0  0  0  0  0  0  0  0  0  0  0
    8.9340  -14.5134   20.6570 C   0  0  1  0  0  0  0  0  0  0  0  0
    8.6344  -15.2407   21.8896 C   0  0  0  0  0  0  0  0  0  0  0  0
    7.5542  -15.9129   21.9302 O   0  0  0  0  0  0  0  0  0  0  0  0
   11.4171  -18.8928   24.0959 N   0  0  0  0  0  0  0  0  0  0  0  0
   11.4796  -18.3814   22.7607 C   0  0  0  0  0  0  0  0  0  0  0  0
   12.1558  -19.0406   21.9453 O   0  0  0  0  0  0  0  0  0  0  0  0
   10.7712  -17.1518   22.4287 C   0  0  0  0  0  0  0  0  0  0  0  0
    9.9886  -16.5210   23.5428 C   0  0  2  0  0  0  0  0  0  0  0  0
    9.4484  -15.2544   23.0341 N   0  0  0  0  0  0  0  0  0  0  0  0
   10.7922  -16.2652   24.7484 C   0  0  0  0  0  0  0  0  0  0  0  0
   11.3856  -15.0008   24.9034 O   0  0  0  0  0  0  0  0  0  0  0  0
   11.0061  -17.0805   25.6734 O   0  0  0  0  0  0  0  0  0  0  0  0
  1  2  1  0
  2  3  2  0
  2  4  1  0
  4  5  1  0
  6  8  1  0
  6  5  1  0
  6  7  1  1
  8 10  1  0
  9  8  2  0
 10 14  1  0
 10 11  1  0
 11 12  1  0
 12 13  1  0
 14 13  1  0
 15 22  1  0
 14 15  1  1
 16 15  2  0
 17 18  1  0
 18 19  2  0
 21 20  1  6
 20 18  1  0
 21 23  1  0
 21 22  1  0
 23 24  1  0
 25 23  2  0
M  END
$$$$
