QPN.pdb
     RDKit          3D

 25 25  0  0  1  0  0  0  0  0999 V2000
    6.5457  -18.6454   16.3609 N   0  0  0  0  0  0  0  0  0  0  0  0
    6.4611  -19.0304   17.7147 C   0  0  0  0  0  0  0  0  0  0  0  0
    5.3496  -19.1177   18.2758 O   0  0  0  0  0  0  0  0  0  0  0  0
    7.6889  -19.3318   18.4735 C   0  0  0  0  0  0  0  0  0  0  0  0
    7.9453  -18.2696   19.5457 C   0  0  0  0  0  0  0  0  0  0  0  0
    8.8768  -17.1927   18.9949 C   0  0  2  0  0  0  0  0  0  0  0  0
    9.9778  -17.8569   18.3608 N   0  0  0  0  0  0  0  0  0  0  0  0
    9.2242  -16.2079   20.0138 C   0  0  0  0  0  0  0  0  0  0  0  0
   10.4271  -16.2649   20.4576 O   0  0  0  0  0  0  0  0  0  0  0  0
    8.3749  -15.2412   20.5249 N   0  0  0  0  0  0  0  0  0  0  0  0
    6.9679  -14.9546   20.3798 C   0  0  0  0  0  0  0  0  0  0  0  0
    7.0081  -13.4773   19.9908 C   0  0  0  0  0  0  0  0  0  0  0  0
    8.0814  -12.9690   20.9301 C   0  0  0  0  0  0  0  0  0  0  0  0
    8.8058  -14.1578   21.4523 C   0  0  1  0  0  0  0  0  0  0  0  0
    8.5309  -14.5193   22.8422 C   0  0  0  0  0  0  0  0  0  0  0  0
    7.6047  -15.3650   23.0596 O   0  0  0  0  0  0  0  0  0  0  0  0
    5.5177  -13.0810   25.9381 N   0  0  0  0  0  0  0  0  0  0  0  0
    6.9370  -13.2244   25.8240 C   0  0  0  0  0  0  0  0  0  0  0  0
    7.6133  -12.1868   25.9743 O   0  0  0  0  0  0  0  0  0  0  0  0
    7.5061  -14.5370   25.5460 C   0  0  0  0  0  0  0  0  0  0  0  0
    8.9843  -14.5736   25.2912 C   0  0  2  0  0  0  0  0  0  0  0  0
    9.2116  -14.0041   23.9574 N   0  0  0  0  0  0  0  0  0  0  0  0
    9.5535  -15.9290   25.3518 C   0  0  0  0  0  0  0  0  0  0  0  0
    9.6909  -16.5435   26.6081 O   0  0  0  0  0  0  0  0  0  0  0  0
    9.9375  -16.6073   24.3726 O   0  0  0  0  0  0  0  0  0  0  0  0
  1  2  1  0
  2  3  2  0
  2  4  1  0
  4  5  1  0
  6  8  1  0
  6  5  1  0
  6  7  1  1
  8 10  1  0
  9  8  2  0
 10 14  1  0
 10 11  1  0
 11 12  1  0
 12 13  1  0
 14 13  1  0
 15 22  1  0
 14 15  1  1
 16 15  2  0
 17 18  1  0
 18 19  2  0
 21 20  1  6
 20 18  1  0
 21 23  1  0
 21 22  1  0
 23 24  1  0
 25 23  2  0
M  END
$$$$
