QPN.pdb
     RDKit          3D

 25 25  0  0  1  0  0  0  0  0999 V2000
    5.4577  -19.0211   17.4477 N   0  0  0  0  0  0  0  0  0  0  0  0
    6.8220  -19.3622   17.3459 C   0  0  0  0  0  0  0  0  0  0  0  0
    7.1653  -20.5571   17.2345 O   0  0  0  0  0  0  0  0  0  0  0  0
    7.8499  -18.3054   17.3709 C   0  0  0  0  0  0  0  0  0  0  0  0
    7.2085  -16.9191   17.4739 C   0  0  0  0  0  0  0  0  0  0  0  0
    8.2287  -15.8477   17.0971 C   0  0  2  0  0  0  0  0  0  0  0  0
    8.9888  -16.3458   15.9882 N   0  0  0  0  0  0  0  0  0  0  0  0
    8.9993  -15.4063   18.2546 C   0  0  0  0  0  0  0  0  0  0  0  0
   10.2714  -15.5524   18.1666 O   0  0  0  0  0  0  0  0  0  0  0  0
    8.4745  -14.8558   19.4115 N   0  0  0  0  0  0  0  0  0  0  0  0
    7.1377  -14.6411   19.9112 C   0  0  0  0  0  0  0  0  0  0  0  0
    7.1903  -13.1544   20.2606 C   0  0  0  0  0  0  0  0  0  0  0  0
    8.5636  -13.0632   20.8919 C   0  0  0  0  0  0  0  0  0  0  0  0
    9.3000  -14.3001   20.5203 C   0  0  1  0  0  0  0  0  0  0  0  0
    9.4783  -15.2869   21.5844 C   0  0  0  0  0  0  0  0  0  0  0  0
    8.5116  -16.0804   21.8213 O   0  0  0  0  0  0  0  0  0  0  0  0
   13.8237  -17.9548   24.9645 N   0  0  0  0  0  0  0  0  0  0  0  0
   12.5564  -17.9878   24.3004 C   0  0  0  0  0  0  0  0  0  0  0  0
   11.8115  -18.9504   24.5745 O   0  0  0  0  0  0  0  0  0  0  0  0
   12.2085  -16.9266   23.3641 C   0  0  0  0  0  0  0  0  0  0  0  0
   10.7594  -16.5406   23.3146 C   0  0  2  0  0  0  0  0  0  0  0  0
   10.6365  -15.4265   22.3666 N   0  0  0  0  0  0  0  0  0  0  0  0
   10.2179  -16.1374   24.6217 C   0  0  0  0  0  0  0  0  0  0  0  0
    9.7983  -17.1401   25.5125 O   0  0  0  0  0  0  0  0  0  0  0  0
   10.0898  -14.9617   25.0311 O   0  0  0  0  0  0  0  0  0  0  0  0
  1  2  1  0
  2  3  2  0
  2  4  1  0
  4  5  1  0
  6  8  1  0
  6  5  1  0
  6  7  1  6
  8 10  1  0
  9  8  2  0
 10 14  1  0
 10 11  1  0
 11 12  1  0
 12 13  1  0
 14 13  1  0
 15 22  1  0
 14 15  1  1
 16 15  2  0
 17 18  1  0
 18 19  2  0
 21 20  1  1
 20 18  1  0
 21 23  1  0
 21 22  1  0
 23 24  1  0
 25 23  2  0
M  END
$$$$
