QPN.pdb
     RDKit          3D

 25 25  0  0  1  0  0  0  0  0999 V2000
    5.9309  -18.5438   24.3566 N   0  0  0  0  0  0  0  0  0  0  0  0
    6.2024  -18.0400   23.0679 C   0  0  0  0  0  0  0  0  0  0  0  0
    5.5919  -18.4879   22.0757 O   0  0  0  0  0  0  0  0  0  0  0  0
    7.2113  -16.9798   22.8884 C   0  0  0  0  0  0  0  0  0  0  0  0
    6.5457  -15.6372   22.5748 C   0  0  0  0  0  0  0  0  0  0  0  0
    7.6072  -14.5448   22.4720 C   0  0  2  0  0  0  0  0  0  0  0  0
    8.4311  -14.8484   21.3386 N   0  0  0  0  0  0  0  0  0  0  0  0
    8.3062  -14.3516   23.7380 C   0  0  0  0  0  0  0  0  0  0  0  0
    9.5664  -14.5948   23.7223 O   0  0  0  0  0  0  0  0  0  0  0  0
    7.7267  -13.9364   24.9249 N   0  0  0  0  0  0  0  0  0  0  0  0
    6.3847  -13.5879   25.3254 C   0  0  0  0  0  0  0  0  0  0  0  0
    6.6158  -12.2202   25.9667 C   0  0  0  0  0  0  0  0  0  0  0  0
    7.8949  -12.4824   26.7334 C   0  0  0  0  0  0  0  0  0  0  0  0
    8.4778  -13.7403   26.1965 C   0  0  1  0  0  0  0  0  0  0  0  0
    8.3676  -14.9184   27.0556 C   0  0  0  0  0  0  0  0  0  0  0  0
    7.3921  -15.7098   26.8494 O   0  0  0  0  0  0  0  0  0  0  0  0
   11.3237  -18.7587   25.7975 N   0  0  0  0  0  0  0  0  0  0  0  0
   11.6809  -17.7601   26.7584 C   0  0  0  0  0  0  0  0  0  0  0  0
   12.7098  -17.9787   27.4293 O   0  0  0  0  0  0  0  0  0  0  0  0
   10.8496  -16.5717   26.9019 C   0  0  0  0  0  0  0  0  0  0  0  0
    9.9441  -16.5414   28.0979 C   0  0  2  0  0  0  0  0  0  0  0  0
    9.2570  -15.2442   28.0926 N   0  0  0  0  0  0  0  0  0  0  0  0
   10.6561  -16.7167   29.3734 C   0  0  0  0  0  0  0  0  0  0  0  0
   11.1563  -15.5763   30.0248 O   0  0  0  0  0  0  0  0  0  0  0  0
   10.8667  -17.8063   29.9518 O   0  0  0  0  0  0  0  0  0  0  0  0
  1  2  1  0
  2  3  2  0
  2  4  1  0
  4  5  1  0
  6  8  1  0
  6  5  1  0
  6  7  1  6
  8 10  1  0
  9  8  2  0
 10 14  1  0
 10 11  1  0
 11 12  1  0
 12 13  1  0
 14 13  1  0
 15 22  1  0
 14 15  1  1
 16 15  2  0
 17 18  1  0
 18 19  2  0
 21 20  1  6
 20 18  1  0
 21 23  1  0
 21 22  1  0
 23 24  1  0
 25 23  2  0
M  END
$$$$
