QPN.pdb
     RDKit          3D

 25 25  0  0  1  0  0  0  0  0999 V2000
    7.5347  -19.2040   17.3081 N   0  0  0  0  0  0  0  0  0  0  0  0
    8.6758  -18.9459   16.5211 C   0  0  0  0  0  0  0  0  0  0  0  0
    9.5816  -19.7993   16.4270 O   0  0  0  0  0  0  0  0  0  0  0  0
    8.8025  -17.6632   15.8050 C   0  0  0  0  0  0  0  0  0  0  0  0
    7.5939  -16.7630   16.0747 C   0  0  0  0  0  0  0  0  0  0  0  0
    7.8958  -15.3394   15.6133 C   0  0  2  0  0  0  0  0  0  0  0  0
    8.2316  -15.3987   14.2207 N   0  0  0  0  0  0  0  0  0  0  0  0
    8.8717  -14.6873   16.4799 C   0  0  0  0  0  0  0  0  0  0  0  0
    9.9844  -14.3678   15.9256 O   0  0  0  0  0  0  0  0  0  0  0  0
    8.6922  -14.3951   17.8213 N   0  0  0  0  0  0  0  0  0  0  0  0
    7.6557  -14.6753   18.7856 C   0  0  0  0  0  0  0  0  0  0  0  0
    7.3800  -13.2762   19.3348 C   0  0  0  0  0  0  0  0  0  0  0  0
    8.7903  -12.7375   19.4509 C   0  0  0  0  0  0  0  0  0  0  0  0
    9.6674  -13.6283   18.6461 C   0  0  1  0  0  0  0  0  0  0  0  0
   10.5357  -14.5299   19.4018 C   0  0  0  0  0  0  0  0  0  0  0  0
   10.0855  -15.6878   19.6791 O   0  0  0  0  0  0  0  0  0  0  0  0
   14.2115  -15.8228   17.9364 N   0  0  0  0  0  0  0  0  0  0  0  0
   14.6222  -14.7967   18.8456 C   0  0  0  0  0  0  0  0  0  0  0  0
   15.4068  -13.9377   18.3948 O   0  0  0  0  0  0  0  0  0  0  0  0
   14.1184  -14.8051   20.2131 C   0  0  0  0  0  0  0  0  0  0  0  0
   12.7011  -15.2649   20.3903 C   0  0  2  0  0  0  0  0  0  0  0  0
   11.8306  -14.2156   19.8459 N   0  0  0  0  0  0  0  0  0  0  0  0
   12.3427  -15.5237   21.7935 C   0  0  0  0  0  0  0  0  0  0  0  0
   12.9463  -16.6092   22.4509 O   0  0  0  0  0  0  0  0  0  0  0  0
   11.5340  -14.8580   22.4784 O   0  0  0  0  0  0  0  0  0  0  0  0
  1  2  1  0
  2  3  2  0
  2  4  1  0
  4  5  1  0
  6  8  1  0
  6  5  1  0
  6  7  1  6
  8 10  1  0
  9  8  2  0
 10 14  1  0
 10 11  1  0
 11 12  1  0
 12 13  1  0
 14 13  1  0
 15 22  1  0
 14 15  1  1
 16 15  2  0
 17 18  1  0
 18 19  2  0
 21 20  1  1
 20 18  1  0
 21 23  1  0
 21 22  1  0
 23 24  1  0
 25 23  2  0
M  END
$$$$
