QPN.pdb
     RDKit          3D

 25 25  0  0  1  0  0  0  0  0999 V2000
    7.4865  -17.4101   23.3485 N   0  0  0  0  0  0  0  0  0  0  0  0
    7.1151  -17.4594   21.9892 C   0  0  0  0  0  0  0  0  0  0  0  0
    7.2982  -18.4996   21.3241 O   0  0  0  0  0  0  0  0  0  0  0  0
    6.5074  -16.2790   21.3477 C   0  0  0  0  0  0  0  0  0  0  0  0
    6.1700  -15.2044   22.3847 C   0  0  0  0  0  0  0  0  0  0  0  0
    7.1471  -14.0383   22.2584 C   0  0  2  0  0  0  0  0  0  0  0  0
    7.8371  -14.1861   21.0103 N   0  0  0  0  0  0  0  0  0  0  0  0
    7.9882  -13.9090   23.4434 C   0  0  0  0  0  0  0  0  0  0  0  0
    9.2488  -14.0553   23.2515 O   0  0  0  0  0  0  0  0  0  0  0  0
    7.5399  -13.6472   24.7269 N   0  0  0  0  0  0  0  0  0  0  0  0
    6.2372  -13.5179   25.3346 C   0  0  0  0  0  0  0  0  0  0  0  0
    6.3745  -12.1685   26.0384 C   0  0  0  0  0  0  0  0  0  0  0  0
    7.7763  -12.2857   26.5987 C   0  0  0  0  0  0  0  0  0  0  0  0
    8.4372  -13.4153   25.8933 C   0  0  1  0  0  0  0  0  0  0  0  0
    8.6145  -14.6424   26.6686 C   0  0  0  0  0  0  0  0  0  0  0  0
    7.6159  -15.4250   26.7708 O   0  0  0  0  0  0  0  0  0  0  0  0
   12.7732  -18.7659   27.0915 N   0  0  0  0  0  0  0  0  0  0  0  0
   11.3949  -18.4048   27.2259 C   0  0  0  0  0  0  0  0  0  0  0  0
   10.6309  -19.2869   27.6676 O   0  0  0  0  0  0  0  0  0  0  0  0
   10.9640  -17.0640   26.8513 C   0  0  0  0  0  0  0  0  0  0  0  0
    9.9835  -16.4046   27.7761 C   0  0  2  0  0  0  0  0  0  0  0  0
    9.8042  -15.0241   27.3100 N   0  0  0  0  0  0  0  0  0  0  0  0
   10.4203  -16.3976   29.1810 C   0  0  0  0  0  0  0  0  0  0  0  0
   10.4449  -17.6152   29.8821 O   0  0  0  0  0  0  0  0  0  0  0  0
   10.7814  -15.3912   29.8314 O   0  0  0  0  0  0  0  0  0  0  0  0
  1  2  1  0
  2  3  2  0
  2  4  1  0
  4  5  1  0
  6  8  1  0
  6  5  1  0
  6  7  1  6
  8 10  1  0
  9  8  2  0
 10 14  1  0
 10 11  1  0
 11 12  1  0
 12 13  1  0
 14 13  1  0
 15 22  1  0
 14 15  1  1
 16 15  2  0
 17 18  1  0
 18 19  2  0
 21 20  1  6
 20 18  1  0
 21 23  1  0
 21 22  1  0
 23 24  1  0
 25 23  2  0
M  END
$$$$
