QPN.pdb
     RDKit          3D

 25 25  0  0  1  0  0  0  0  0999 V2000
    5.9088  -21.0449   16.8560 N   0  0  0  0  0  0  0  0  0  0  0  0
    6.7003  -20.2100   17.6712 C   0  0  0  0  0  0  0  0  0  0  0  0
    7.7520  -20.6447   18.1837 O   0  0  0  0  0  0  0  0  0  0  0  0
    6.2866  -18.8170   17.9212 C   0  0  0  0  0  0  0  0  0  0  0  0
    7.1636  -18.1691   18.9959 C   0  0  0  0  0  0  0  0  0  0  0  0
    7.9009  -16.9686   18.4078 C   0  0  2  0  0  0  0  0  0  0  0  0
    8.6103  -17.4232   17.2477 N   0  0  0  0  0  0  0  0  0  0  0  0
    8.6983  -16.2788   19.4162 C   0  0  0  0  0  0  0  0  0  0  0  0
    9.9675  -16.2873   19.2255 O   0  0  0  0  0  0  0  0  0  0  0  0
    8.2011  -15.6324   20.5351 N   0  0  0  0  0  0  0  0  0  0  0  0
    6.8952  -15.5193   21.1387 C   0  0  0  0  0  0  0  0  0  0  0  0
    6.7641  -14.0027   21.2724 C   0  0  0  0  0  0  0  0  0  0  0  0
    8.1591  -13.6405   21.7365 C   0  0  0  0  0  0  0  0  0  0  0  0
    9.0304  -14.8137   21.4632 C   0  0  1  0  0  0  0  0  0  0  0  0
    9.4388  -15.5970   22.6284 C   0  0  0  0  0  0  0  0  0  0  0  0
    8.6209  -16.4662   23.0710 O   0  0  0  0  0  0  0  0  0  0  0  0
   12.9737  -17.4203   22.4486 N   0  0  0  0  0  0  0  0  0  0  0  0
   13.3394  -16.4475   23.4325 C   0  0  0  0  0  0  0  0  0  0  0  0
   14.3839  -15.8016   23.2123 O   0  0  0  0  0  0  0  0  0  0  0  0
   12.4985  -16.2643   24.6086 C   0  0  0  0  0  0  0  0  0  0  0  0
   11.0194  -16.3835   24.3861 C   0  0  2  0  0  0  0  0  0  0  0  0
   10.6663  -15.4637   23.2978 N   0  0  0  0  0  0  0  0  0  0  0  0
   10.2220  -16.0632   25.5802 C   0  0  0  0  0  0  0  0  0  0  0  0
   10.2395  -16.9627   26.6598 O   0  0  0  0  0  0  0  0  0  0  0  0
    9.5115  -15.0448   25.7358 O   0  0  0  0  0  0  0  0  0  0  0  0
  1  2  1  0
  2  3  2  0
  2  4  1  0
  4  5  1  0
  6  8  1  0
  6  5  1  0
  6  7  1  6
  8 10  1  0
  9  8  2  0
 10 14  1  0
 10 11  1  0
 11 12  1  0
 12 13  1  0
 14 13  1  0
 15 22  1  0
 14 15  1  1
 16 15  2  0
 17 18  1  0
 18 19  2  0
 21 20  1  1
 20 18  1  0
 21 23  1  0
 21 22  1  0
 23 24  1  0
 25 23  2  0
M  END
$$$$
