QPN.pdb
     RDKit          3D

 25 25  0  0  1  0  0  0  0  0999 V2000
    5.3140  -17.6396   23.5367 N   0  0  0  0  0  0  0  0  0  0  0  0
    6.4781  -17.7419   22.7477 C   0  0  0  0  0  0  0  0  0  0  0  0
    7.2261  -18.7352   22.8556 O   0  0  0  0  0  0  0  0  0  0  0  0
    6.8160  -16.6726   21.7902 C   0  0  0  0  0  0  0  0  0  0  0  0
    6.1279  -15.3589   22.1703 C   0  0  0  0  0  0  0  0  0  0  0  0
    7.1207  -14.2043   22.0610 C   0  0  2  0  0  0  0  0  0  0  0  0
    7.8306  -14.3604   20.8252 N   0  0  0  0  0  0  0  0  0  0  0  0
    7.9426  -14.0847   23.2606 C   0  0  0  0  0  0  0  0  0  0  0  0
    9.2069  -14.2207   23.0864 O   0  0  0  0  0  0  0  0  0  0  0  0
    7.4727  -13.8420   24.5401 N   0  0  0  0  0  0  0  0  0  0  0  0
    6.1643  -13.6351   25.1128 C   0  0  0  0  0  0  0  0  0  0  0  0
    6.3825  -12.3314   25.8796 C   0  0  0  0  0  0  0  0  0  0  0  0
    7.7510  -12.5829   26.4767 C   0  0  0  0  0  0  0  0  0  0  0  0
    8.3453  -13.7310   25.7425 C   0  0  1  0  0  0  0  0  0  0  0  0
    8.3999  -14.9996   26.4676 C   0  0  0  0  0  0  0  0  0  0  0  0
    7.3474  -15.7154   26.4843 O   0  0  0  0  0  0  0  0  0  0  0  0
   13.2192  -18.1410   25.9215 N   0  0  0  0  0  0  0  0  0  0  0  0
   11.8486  -17.9510   25.5559 C   0  0  0  0  0  0  0  0  0  0  0  0
   11.3063  -18.8856   24.9322 O   0  0  0  0  0  0  0  0  0  0  0  0
   11.1736  -16.7117   25.9196 C   0  0  0  0  0  0  0  0  0  0  0  0
   10.0248  -16.8433   26.8759 C   0  0  2  0  0  0  0  0  0  0  0  0
    9.5264  -15.4896   27.1483 N   0  0  0  0  0  0  0  0  0  0  0  0
   10.3913  -17.4975   28.1417 C   0  0  0  0  0  0  0  0  0  0  0  0
   10.4472  -16.7168   29.3088 O   0  0  0  0  0  0  0  0  0  0  0  0
   10.6651  -18.7098   28.2879 O   0  0  0  0  0  0  0  0  0  0  0  0
  1  2  1  0
  2  3  2  0
  2  4  1  0
  4  5  1  0
  6  8  1  0
  6  5  1  0
  6  7  1  6
  8 10  1  0
  9  8  2  0
 10 14  1  0
 10 11  1  0
 11 12  1  0
 12 13  1  0
 14 13  1  0
 15 22  1  0
 14 15  1  1
 16 15  2  0
 17 18  1  0
 18 19  2  0
 21 20  1  6
 20 18  1  0
 21 23  1  0
 21 22  1  0
 23 24  1  0
 25 23  2  0
M  END
$$$$
