QPN.pdb
     RDKit          3D

 25 25  0  0  1  0  0  0  0  0999 V2000
    6.4633  -18.7368   17.1560 N   0  0  0  0  0  0  0  0  0  0  0  0
    7.8022  -18.9617   17.5364 C   0  0  0  0  0  0  0  0  0  0  0  0
    8.1455  -20.0648   18.0087 O   0  0  0  0  0  0  0  0  0  0  0  0
    8.8036  -17.8911   17.3768 C   0  0  0  0  0  0  0  0  0  0  0  0
    8.1756  -16.6415   16.7540 C   0  0  0  0  0  0  0  0  0  0  0  0
    9.2119  -15.5227   16.6818 C   0  0  2  0  0  0  0  0  0  0  0  0
   10.2580  -15.9589   15.8038 N   0  0  0  0  0  0  0  0  0  0  0  0
    9.6306  -15.0892   18.0104 C   0  0  0  0  0  0  0  0  0  0  0  0
   10.8719  -15.2608   18.2879 O   0  0  0  0  0  0  0  0  0  0  0  0
    8.8099  -14.5211   18.9700 N   0  0  0  0  0  0  0  0  0  0  0  0
    7.4135  -14.1600   19.0187 C   0  0  0  0  0  0  0  0  0  0  0  0
    7.5025  -12.7056   19.4793 C   0  0  0  0  0  0  0  0  0  0  0  0
    8.5868  -12.8104   20.5310 C   0  0  0  0  0  0  0  0  0  0  0  0
    9.2704  -14.1149   20.3274 C   0  0  1  0  0  0  0  0  0  0  0  0
    8.9773  -15.1554   21.3120 C   0  0  0  0  0  0  0  0  0  0  0  0
    8.1042  -16.0292   21.0047 O   0  0  0  0  0  0  0  0  0  0  0  0
   11.8542  -18.7644   23.4885 N   0  0  0  0  0  0  0  0  0  0  0  0
   12.0475  -18.0609   22.2573 C   0  0  0  0  0  0  0  0  0  0  0  0
   12.9226  -18.5130   21.4915 O   0  0  0  0  0  0  0  0  0  0  0  0
   11.2363  -16.8854   21.9669 C   0  0  0  0  0  0  0  0  0  0  0  0
   10.1988  -16.5314   22.9915 C   0  0  2  0  0  0  0  0  0  0  0  0
    9.5863  -15.2647   22.5729 N   0  0  0  0  0  0  0  0  0  0  0  0
   10.7451  -16.3893   24.3502 C   0  0  0  0  0  0  0  0  0  0  0  0
   10.1962  -17.1732   25.3794 O   0  0  0  0  0  0  0  0  0  0  0  0
   11.6727  -15.6215   24.6908 O   0  0  0  0  0  0  0  0  0  0  0  0
  1  2  1  0
  2  3  2  0
  2  4  1  0
  4  5  1  0
  6  8  1  0
  6  5  1  0
  6  7  1  6
  8 10  1  0
  9  8  2  0
 10 14  1  0
 10 11  1  0
 11 12  1  0
 12 13  1  0
 14 13  1  0
 15 22  1  0
 14 15  1  1
 16 15  2  0
 17 18  1  0
 18 19  2  0
 21 20  1  6
 20 18  1  0
 21 23  1  0
 21 22  1  0
 23 24  1  0
 25 23  2  0
M  END
$$$$
