QPN.pdb
     RDKit          3D

 25 25  0  0  1  0  0  0  0  0999 V2000
    6.1552  -18.2608   25.4373 N   0  0  0  0  0  0  0  0  0  0  0  0
    7.3205  -18.4010   24.6560 C   0  0  0  0  0  0  0  0  0  0  0  0
    8.1807  -19.2540   24.9565 O   0  0  0  0  0  0  0  0  0  0  0  0
    7.5269  -17.5378   23.4785 C   0  0  0  0  0  0  0  0  0  0  0  0
    6.3567  -16.5672   23.2985 C   0  0  0  0  0  0  0  0  0  0  0  0
    6.8652  -15.2425   22.7353 C   0  0  2  0  0  0  0  0  0  0  0  0
    7.4456  -15.5127   21.4524 N   0  0  0  0  0  0  0  0  0  0  0  0
    7.7190  -14.5433   23.6896 C   0  0  0  0  0  0  0  0  0  0  0  0
    8.9542  -14.4350   23.3581 O   0  0  0  0  0  0  0  0  0  0  0  0
    7.3071  -14.0018   24.8955 N   0  0  0  0  0  0  0  0  0  0  0  0
    6.0266  -13.8205   25.5358 C   0  0  0  0  0  0  0  0  0  0  0  0
    6.0766  -12.3314   25.8754 C   0  0  0  0  0  0  0  0  0  0  0  0
    7.5068  -12.2010   26.3550 C   0  0  0  0  0  0  0  0  0  0  0  0
    8.2319  -13.4196   25.9081 C   0  0  1  0  0  0  0  0  0  0  0  0
    8.5501  -14.3967   26.9484 C   0  0  0  0  0  0  0  0  0  0  0  0
    7.6417  -15.2258   27.2767 O   0  0  0  0  0  0  0  0  0  0  0  0
   11.6038  -18.1043   28.9867 N   0  0  0  0  0  0  0  0  0  0  0  0
   12.1476  -17.3759   27.8813 C   0  0  0  0  0  0  0  0  0  0  0  0
   13.1689  -17.8560   27.3492 O   0  0  0  0  0  0  0  0  0  0  0  0
   11.5008  -16.1452   27.4443 C   0  0  0  0  0  0  0  0  0  0  0  0
   10.2338  -15.7771   28.1590 C   0  0  2  0  0  0  0  0  0  0  0  0
    9.7832  -14.4906   27.6141 N   0  0  0  0  0  0  0  0  0  0  0  0
   10.3977  -15.6646   29.6167 C   0  0  0  0  0  0  0  0  0  0  0  0
   10.1591  -14.4202   30.2246 O   0  0  0  0  0  0  0  0  0  0  0  0
   10.7367  -16.5884   30.3899 O   0  0  0  0  0  0  0  0  0  0  0  0
  1  2  1  0
  2  3  2  0
  2  4  1  0
  4  5  1  0
  6  8  1  0
  6  5  1  0
  6  7  1  6
  8 10  1  0
  9  8  2  0
 10 14  1  0
 10 11  1  0
 11 12  1  0
 12 13  1  0
 14 13  1  0
 15 22  1  0
 14 15  1  1
 16 15  2  0
 17 18  1  0
 18 19  2  0
 21 20  1  6
 20 18  1  0
 21 23  1  0
 21 22  1  0
 23 24  1  0
 25 23  2  0
M  END
$$$$
