HEL.pdb
     RDKit          3D

 28 28  0  0  1  0  0  0  0  0999 V2000
   43.0830  -10.2962   -5.3325 N   0  0  0  0  0  0  0  0  0  0  0  0
   42.7454   -9.8469   -6.6449 C   0  0  1  0  0  0  0  0  0  0  0  0
   41.7890  -10.7394   -7.3690 C   0  0  0  0  0  0  0  0  0  0  0  0
   42.5386  -11.8749   -7.9571 C   0  0  0  0  0  0  0  0  0  0  0  0
   43.9148  -12.1138   -7.8588 C   0  0  0  0  0  0  0  0  0  0  0  0
   44.2260  -13.2450   -8.5199 N   0  0  0  0  0  0  0  0  0  0  0  0
   43.0739  -13.7238   -9.0328 C   0  0  0  0  0  0  0  0  0  0  0  0
   42.0717  -12.8956   -8.6895 N   0  0  0  0  0  0  0  0  0  0  0  0
   42.3198   -8.4315   -6.6117 C   0  0  0  0  0  0  0  0  0  0  0  0
   41.5351   -8.0701   -5.6976 O   0  0  0  0  0  0  0  0  0  0  0  0
   42.7745   -7.4789   -7.5831 N   0  0  0  0  0  0  0  0  0  0  0  0
   42.2389   -6.1602   -7.5544 C   0  0  1  0  0  0  0  0  0  0  0  0
   42.9597   -5.1449   -8.3611 C   0  0  0  0  0  0  0  0  0  0  0  0
   42.4895   -3.7500   -8.3458 C   0  0  0  0  0  0  0  0  0  0  0  0
   43.1198   -2.7816   -9.2304 C   0  0  0  0  0  0  0  0  0  0  0  0
   42.4239   -2.1797  -10.0916 O   0  0  0  0  0  0  0  0  0  0  0  0
   40.7750   -6.1484   -7.8578 C   0  0  0  0  0  0  0  0  0  0  0  0
   40.2531   -6.9171   -8.6935 O   0  0  0  0  0  0  0  0  0  0  0  0
   44.4682   -2.4711   -9.1862 O   0  0  0  0  0  0  0  0  0  0  0  0
   35.8254   -6.2831   -4.7688 C   0  0  0  0  0  0  0  0  0  0  0  0
   36.3714   -6.0479   -6.1791 C   0  0  2  0  0  0  0  0  0  0  0  0
   35.8939   -7.2309   -6.9950 C   0  0  0  0  0  0  0  0  0  0  0  0
   37.8698   -5.9238   -6.1502 C   0  0  0  0  0  0  0  0  0  0  0  0
   38.5016   -5.2769   -7.3206 C   0  0  2  0  0  0  0  0  0  0  0  0
   39.9587   -5.2261   -7.1644 N   0  0  0  0  0  0  0  0  0  0  0  0
   37.9220   -3.9608   -7.6234 C   0  0  0  0  0  0  0  0  0  0  0  0
   38.2681   -2.8900   -7.1023 O   0  0  0  0  0  0  0  0  0  0  0  0
   36.8970   -3.8947   -8.5690 O   0  0  0  0  0  0  0  0  0  0  0  0
  2  9  1  0
  2  1  1  1
  3  2  1  0
  4  3  1  0
  4  5  2  0
  6  5  1  0
  7  6  1  0
  8  7  2  0
  8  4  1  0
  9 11  1  0
 10  9  2  0
 11 12  1  0
 12 13  1  6
 13 14  1  0
 14 15  1  0
 15 19  1  0
 15 16  2  0
 17 18  2  0
 17 12  1  0
 21 20  1  1
 21 23  1  0
 22 21  1  0
 24 23  1  1
 24 25  1  0
 24 26  1  0
 25 17  1  0
 26 28  1  0
 27 26  2  0
M  END
$$$$
