HEL.pdb
     RDKit          3D

 28 28  0  0  1  0  0  0  0  0999 V2000
   27.0375  -19.6372  -15.7870 N   0  0  0  0  0  0  0  0  0  0  0  0
   27.2795  -18.7495  -14.6954 C   0  0  1  0  0  0  0  0  0  0  0  0
   27.3172  -17.3049  -15.0795 C   0  0  0  0  0  0  0  0  0  0  0  0
   28.3958  -17.0978  -16.0750 C   0  0  0  0  0  0  0  0  0  0  0  0
   29.2104  -18.0820  -16.6480 C   0  0  0  0  0  0  0  0  0  0  0  0
   30.0715  -17.5104  -17.5112 N   0  0  0  0  0  0  0  0  0  0  0  0
   29.8160  -16.1860  -17.4941 C   0  0  0  0  0  0  0  0  0  0  0  0
   28.8117  -15.9515  -16.6312 N   0  0  0  0  0  0  0  0  0  0  0  0
   26.3522  -19.0383  -13.5808 C   0  0  0  0  0  0  0  0  0  0  0  0
   25.2250  -18.4802  -13.5882 O   0  0  0  0  0  0  0  0  0  0  0  0
   26.7049  -19.9252  -12.5100 N   0  0  0  0  0  0  0  0  0  0  0  0
   25.7315  -20.2200  -11.5139 C   0  0  1  0  0  0  0  0  0  0  0  0
   24.5828  -21.0518  -11.9495 C   0  0  0  0  0  0  0  0  0  0  0  0
   23.5076  -21.3501  -10.9891 C   0  0  0  0  0  0  0  0  0  0  0  0
   22.1885  -20.7743  -11.2031 C   0  0  0  0  0  0  0  0  0  0  0  0
   21.3837  -21.3376  -11.9925 O   0  0  0  0  0  0  0  0  0  0  0  0
   26.3562  -20.7727  -10.2730 C   0  0  0  0  0  0  0  0  0  0  0  0
   26.9948  -21.8468  -10.2601 O   0  0  0  0  0  0  0  0  0  0  0  0
   21.7494  -19.6185  -10.5801 O   0  0  0  0  0  0  0  0  0  0  0  0
   28.3175  -18.6831   -4.8901 C   0  0  0  0  0  0  0  0  0  0  0  0
   28.0999  -19.9193   -5.7658 C   0  0  2  0  0  0  0  0  0  0  0  0
   29.4624  -20.5694   -5.8852 C   0  0  0  0  0  0  0  0  0  0  0  0
   27.5202  -19.5268   -7.0968 C   0  0  0  0  0  0  0  0  0  0  0  0
   26.7643  -20.5711   -7.8217 C   0  0  2  0  0  0  0  0  0  0  0  0
   26.2119  -20.0411   -9.0723 N   0  0  0  0  0  0  0  0  0  0  0  0
   25.7434  -21.2170   -6.9849 C   0  0  0  0  0  0  0  0  0  0  0  0
   24.5189  -21.0563   -7.0988 O   0  0  0  0  0  0  0  0  0  0  0  0
   26.1704  -22.0810   -5.9747 O   0  0  0  0  0  0  0  0  0  0  0  0
  2  9  1  0
  2  1  1  6
  3  2  1  0
  4  3  1  0
  4  5  2  0
  6  5  1  0
  7  6  1  0
  8  7  2  0
  8  4  1  0
  9 11  1  0
 10  9  2  0
 11 12  1  0
 12 13  1  6
 13 14  1  0
 14 15  1  0
 15 19  1  0
 15 16  2  0
 17 18  2  0
 17 12  1  0
 21 20  1  1
 21 23  1  0
 22 21  1  0
 24 23  1  1
 24 25  1  0
 24 26  1  0
 25 17  1  0
 26 28  1  0
 27 26  2  0
M  END
$$$$
