HEL.pdb
     RDKit          3D

 28 28  0  0  1  0  0  0  0  0999 V2000
   13.7682  -13.8075    6.8627 N   0  0  0  0  0  0  0  0  0  0  0  0
   15.1379  -14.0519    6.5426 C   0  0  1  0  0  0  0  0  0  0  0  0
   16.0130  -12.8435    6.6403 C   0  0  0  0  0  0  0  0  0  0  0  0
   17.2992  -13.1221    5.9582 C   0  0  0  0  0  0  0  0  0  0  0  0
   17.8416  -12.4259    4.8711 C   0  0  0  0  0  0  0  0  0  0  0  0
   19.0257  -12.9696    4.5309 N   0  0  0  0  0  0  0  0  0  0  0  0
   19.2408  -13.9940    5.3817 C   0  0  0  0  0  0  0  0  0  0  0  0
   18.2011  -14.0753    6.2307 N   0  0  0  0  0  0  0  0  0  0  0  0
   15.6470  -15.2108    7.3064 C   0  0  0  0  0  0  0  0  0  0  0  0
   15.4919  -15.2121    8.5546 O   0  0  0  0  0  0  0  0  0  0  0  0
   16.3030  -16.3138    6.6654 N   0  0  0  0  0  0  0  0  0  0  0  0
   16.8545  -17.3481    7.4732 C   0  0  1  0  0  0  0  0  0  0  0  0
   16.3526  -18.7194    7.2107 C   0  0  0  0  0  0  0  0  0  0  0  0
   16.7860  -19.8219    8.0847 C   0  0  0  0  0  0  0  0  0  0  0  0
   16.3304  -21.1735    7.7966 C   0  0  0  0  0  0  0  0  0  0  0  0
   15.6719  -21.3979    6.7458 O   0  0  0  0  0  0  0  0  0  0  0  0
   18.3492  -17.3135    7.4761 C   0  0  0  0  0  0  0  0  0  0  0  0
   19.0200  -17.0567    6.4535 O   0  0  0  0  0  0  0  0  0  0  0  0
   16.5797  -22.2560    8.6229 O   0  0  0  0  0  0  0  0  0  0  0  0
   22.8241  -14.9280   10.2886 C   0  0  0  0  0  0  0  0  0  0  0  0
   22.4582  -16.2703    9.6508 C   0  0  2  0  0  0  0  0  0  0  0  0
   23.3128  -16.3669    8.4045 C   0  0  0  0  0  0  0  0  0  0  0  0
   20.9847  -16.3293    9.3559 C   0  0  0  0  0  0  0  0  0  0  0  0
   20.4847  -17.5755    8.7360 C   0  0  2  0  0  0  0  0  0  0  0  0
   19.0190  -17.5835    8.6911 N   0  0  0  0  0  0  0  0  0  0  0  0
   21.0347  -18.7836    9.3666 C   0  0  0  0  0  0  0  0  0  0  0  0
   22.1806  -19.2239    9.1901 O   0  0  0  0  0  0  0  0  0  0  0  0
   20.2128  -19.5059   10.2338 O   0  0  0  0  0  0  0  0  0  0  0  0
  2  9  1  0
  2  1  1  1
  3  2  1  0
  4  3  1  0
  4  5  2  0
  6  5  1  0
  7  6  1  0
  8  7  2  0
  8  4  1  0
  9 11  1  0
 10  9  2  0
 11 12  1  0
 12 13  1  6
 13 14  1  0
 14 15  1  0
 15 19  1  0
 15 16  2  0
 17 18  2  0
 17 12  1  0
 21 20  1  6
 21 23  1  0
 22 21  1  0
 24 23  1  1
 24 25  1  0
 24 26  1  0
 25 17  1  0
 26 28  1  0
 27 26  2  0
M  END
$$$$
