HEL.pdb
     RDKit          3D

 28 28  0  0  1  0  0  0  0  0999 V2000
   24.1088  -11.4901  -18.5131 N   0  0  0  0  0  0  0  0  0  0  0  0
   23.8768  -11.1115  -17.1562 C   0  0  1  0  0  0  0  0  0  0  0  0
   25.0480  -10.4575  -16.4957 C   0  0  0  0  0  0  0  0  0  0  0  0
   26.1075  -11.4708  -16.2773 C   0  0  0  0  0  0  0  0  0  0  0  0
   26.0389  -12.8364  -16.5793 C   0  0  0  0  0  0  0  0  0  0  0  0
   27.1977  -13.4333  -16.2415 N   0  0  0  0  0  0  0  0  0  0  0  0
   27.9954  -12.4717  -15.7329 C   0  0  0  0  0  0  0  0  0  0  0  0
   27.3322  -11.3022  -15.7595 N   0  0  0  0  0  0  0  0  0  0  0  0
   22.6266  -10.3304  -17.0455 C   0  0  0  0  0  0  0  0  0  0  0  0
   22.3190   -9.5666  -17.9963 O   0  0  0  0  0  0  0  0  0  0  0  0
   21.7725  -10.4232  -15.8967 N   0  0  0  0  0  0  0  0  0  0  0  0
   20.5770   -9.6509  -15.8659 C   0  0  1  0  0  0  0  0  0  0  0  0
   19.3506  -10.3631  -15.4301 C   0  0  0  0  0  0  0  0  0  0  0  0
   18.0494   -9.6828  -15.5365 C   0  0  0  0  0  0  0  0  0  0  0  0
   16.8423  -10.4026  -15.1592 C   0  0  0  0  0  0  0  0  0  0  0  0
   16.9366  -11.5440  -14.6334 O   0  0  0  0  0  0  0  0  0  0  0  0
   20.7582   -8.3765  -15.1054 C   0  0  0  0  0  0  0  0  0  0  0  0
   21.7088   -8.1917  -14.3155 O   0  0  0  0  0  0  0  0  0  0  0  0
   15.5649   -9.9022  -15.3453 O   0  0  0  0  0  0  0  0  0  0  0  0
   22.6973   -4.3518  -14.1086 C   0  0  0  0  0  0  0  0  0  0  0  0
   22.6161   -5.4259  -15.1958 C   0  0  2  0  0  0  0  0  0  0  0  0
   23.6951   -5.0654  -16.1952 C   0  0  0  0  0  0  0  0  0  0  0  0
   21.2413   -5.4566  -15.8046 C   0  0  0  0  0  0  0  0  0  0  0  0
   20.1497   -5.9639  -14.9453 C   0  0  2  0  0  0  0  0  0  0  0  0
   19.8096   -7.3463  -15.2967 N   0  0  0  0  0  0  0  0  0  0  0  0
   18.9755   -5.0802  -14.9381 C   0  0  0  0  0  0  0  0  0  0  0  0
   18.8719   -4.0341  -14.2800 O   0  0  0  0  0  0  0  0  0  0  0  0
   17.8800   -5.4346  -15.7277 O   0  0  0  0  0  0  0  0  0  0  0  0
  2  9  1  0
  2  1  1  6
  3  2  1  0
  4  3  1  0
  4  5  2  0
  6  5  1  0
  7  6  1  0
  8  7  2  0
  8  4  1  0
  9 11  1  0
 10  9  2  0
 11 12  1  0
 12 13  1  1
 13 14  1  0
 14 15  1  0
 15 19  1  0
 15 16  2  0
 17 18  2  0
 17 12  1  0
 21 20  1  1
 21 23  1  0
 22 21  1  0
 24 23  1  6
 24 25  1  0
 24 26  1  0
 25 17  1  0
 26 28  1  0
 27 26  2  0
M  END
$$$$
