HEL.pdb
     RDKit          3D

 28 28  0  0  1  0  0  0  0  0999 V2000
   24.5406  -34.2896   -1.3639 N   0  0  0  0  0  0  0  0  0  0  0  0
   25.7605  -33.9115   -0.7258 C   0  0  1  0  0  0  0  0  0  0  0  0
   26.3982  -32.6884   -1.3029 C   0  0  0  0  0  0  0  0  0  0  0  0
   26.7200  -32.9380   -2.7281 C   0  0  0  0  0  0  0  0  0  0  0  0
   25.9907  -32.5052   -3.8423 C   0  0  0  0  0  0  0  0  0  0  0  0
   26.5965  -32.9234   -4.9699 N   0  0  0  0  0  0  0  0  0  0  0  0
   27.6929  -33.6108   -4.5891 C   0  0  0  0  0  0  0  0  0  0  0  0
   27.7559  -33.6126   -3.2459 N   0  0  0  0  0  0  0  0  0  0  0  0
   25.5764  -33.8439    0.7395 C   0  0  0  0  0  0  0  0  0  0  0  0
   24.5856  -33.2089    1.1834 O   0  0  0  0  0  0  0  0  0  0  0  0
   26.4881  -34.4754    1.6492 N   0  0  0  0  0  0  0  0  0  0  0  0
   26.1870  -34.4652    3.0406 C   0  0  1  0  0  0  0  0  0  0  0  0
   26.1691  -35.7868    3.7146 C   0  0  0  0  0  0  0  0  0  0  0  0
   25.7658  -35.8663    5.1281 C   0  0  0  0  0  0  0  0  0  0  0  0
   25.8035  -37.1550    5.8028 C   0  0  0  0  0  0  0  0  0  0  0  0
   25.0011  -37.3876    6.7463 O   0  0  0  0  0  0  0  0  0  0  0  0
   27.0422  -33.4921    3.7869 C   0  0  0  0  0  0  0  0  0  0  0  0
   28.2848  -33.4514    3.6614 O   0  0  0  0  0  0  0  0  0  0  0  0
   26.6860  -38.1675    5.4670 O   0  0  0  0  0  0  0  0  0  0  0  0
   26.0537  -28.4994    7.2413 C   0  0  0  0  0  0  0  0  0  0  0  0
   27.1019  -29.3038    6.4691 C   0  0  2  0  0  0  0  0  0  0  0  0
   27.8613  -28.2846    5.6459 C   0  0  0  0  0  0  0  0  0  0  0  0
   26.4406  -30.3602    5.6274 C   0  0  0  0  0  0  0  0  0  0  0  0
   27.2063  -31.6067    5.4101 C   0  0  2  0  0  0  0  0  0  0  0  0
   26.4074  -32.5862    4.6668 N   0  0  0  0  0  0  0  0  0  0  0  0
   27.7572  -32.1590    6.6556 C   0  0  0  0  0  0  0  0  0  0  0  0
   28.9135  -31.9807    7.0670 O   0  0  0  0  0  0  0  0  0  0  0  0
   26.9256  -32.9523    7.4483 O   0  0  0  0  0  0  0  0  0  0  0  0
  2  9  1  0
  2  1  1  6
  3  2  1  0
  4  3  1  0
  4  5  2  0
  6  5  1  0
  7  6  1  0
  8  7  2  0
  8  4  1  0
  9 11  1  0
 10  9  2  0
 11 12  1  0
 12 13  1  1
 13 14  1  0
 14 15  1  0
 15 19  1  0
 15 16  2  0
 17 18  2  0
 17 12  1  0
 21 20  1  6
 21 23  1  0
 22 21  1  0
 24 23  1  1
 24 25  1  0
 24 26  1  0
 25 17  1  0
 26 28  1  0
 27 26  2  0
M  END
$$$$
