HEL.pdb
     RDKit          3D

 28 28  0  0  1  0  0  0  0  0999 V2000
   21.1415  -32.8128   -9.9286 N   0  0  0  0  0  0  0  0  0  0  0  0
   21.5679  -32.0192   -8.8211 C   0  0  1  0  0  0  0  0  0  0  0  0
   20.7008  -30.8314   -8.5510 C   0  0  0  0  0  0  0  0  0  0  0  0
   20.7824  -29.9017   -9.7026 C   0  0  0  0  0  0  0  0  0  0  0  0
   20.1049  -30.0145  -10.9228 C   0  0  0  0  0  0  0  0  0  0  0  0
   20.4308  -28.9782  -11.7187 N   0  0  0  0  0  0  0  0  0  0  0  0
   21.2997  -28.2146  -11.0248 C   0  0  0  0  0  0  0  0  0  0  0  0
   21.5023  -28.7774   -9.8204 N   0  0  0  0  0  0  0  0  0  0  0  0
   21.7887  -32.8695   -7.6321 C   0  0  0  0  0  0  0  0  0  0  0  0
   20.8792  -33.6728   -7.3011 O   0  0  0  0  0  0  0  0  0  0  0  0
   22.9966  -32.7986   -6.8615 N   0  0  0  0  0  0  0  0  0  0  0  0
   23.1786  -33.7120   -5.7849 C   0  0  1  0  0  0  0  0  0  0  0  0
   24.5032  -34.3759   -5.7087 C   0  0  0  0  0  0  0  0  0  0  0  0
   25.7228  -33.5533   -5.7648 C   0  0  0  0  0  0  0  0  0  0  0  0
   27.0204  -34.2052   -5.6715 C   0  0  0  0  0  0  0  0  0  0  0  0
   27.0803  -35.4425   -5.4396 O   0  0  0  0  0  0  0  0  0  0  0  0
   22.8052  -33.1036   -4.4711 C   0  0  0  0  0  0  0  0  0  0  0  0
   23.1303  -31.9407   -4.1495 O   0  0  0  0  0  0  0  0  0  0  0  0
   28.2234  -33.5375   -5.8246 O   0  0  0  0  0  0  0  0  0  0  0  0
   19.6444  -31.1154   -2.4280 C   0  0  0  0  0  0  0  0  0  0  0  0
   19.3521  -32.5820   -2.7535 C   0  0  2  0  0  0  0  0  0  0  0  0
   17.8912  -32.7842   -2.4099 C   0  0  0  0  0  0  0  0  0  0  0  0
   20.2669  -33.4869   -1.9751 C   0  0  0  0  0  0  0  0  0  0  0  0
   21.7151  -33.3504   -2.2424 C   0  0  2  0  0  0  0  0  0  0  0  0
   22.0536  -33.8857   -3.5649 N   0  0  0  0  0  0  0  0  0  0  0  0
   22.5461  -33.9231   -1.1742 C   0  0  0  0  0  0  0  0  0  0  0  0
   23.3214  -34.8818   -1.3075 O   0  0  0  0  0  0  0  0  0  0  0  0
   22.4651  -33.3554    0.0988 O   0  0  0  0  0  0  0  0  0  0  0  0
  2  9  1  0
  2  1  1  6
  3  2  1  0
  4  3  1  0
  4  5  2  0
  6  5  1  0
  7  6  1  0
  8  7  2  0
  8  4  1  0
  9 11  1  0
 10  9  2  0
 11 12  1  0
 12 13  1  1
 13 14  1  0
 14 15  1  0
 15 19  1  0
 15 16  2  0
 17 18  2  0
 17 12  1  0
 21 20  1  1
 21 23  1  0
 22 21  1  0
 24 23  1  1
 24 25  1  0
 24 26  1  0
 25 17  1  0
 26 28  1  0
 27 26  2  0
M  END
$$$$
