HEL.pdb
     RDKit          3D

 28 28  0  0  1  0  0  0  0  0999 V2000
   29.5083  -10.9921  -18.0135 N   0  0  0  0  0  0  0  0  0  0  0  0
   29.7732   -9.6430  -18.3984 C   0  0  1  0  0  0  0  0  0  0  0  0
   28.5474   -8.8431  -18.7039 C   0  0  0  0  0  0  0  0  0  0  0  0
   27.9430   -9.3461  -19.9604 C   0  0  0  0  0  0  0  0  0  0  0  0
   28.5045  -10.2679  -20.8524 C   0  0  0  0  0  0  0  0  0  0  0  0
   27.6566  -10.4803  -21.8769 N   0  0  0  0  0  0  0  0  0  0  0  0
   26.5721   -9.7113  -21.6485 C   0  0  0  0  0  0  0  0  0  0  0  0
   26.7553   -9.0375  -20.4993 N   0  0  0  0  0  0  0  0  0  0  0  0
   30.6707   -8.9942  -17.4191 C   0  0  0  0  0  0  0  0  0  0  0  0
   30.3183   -8.9793  -16.2118 O   0  0  0  0  0  0  0  0  0  0  0  0
   31.9124   -8.3915  -17.8101 N   0  0  0  0  0  0  0  0  0  0  0  0
   32.7435   -7.8187  -16.8062 C   0  0  1  0  0  0  0  0  0  0  0  0
   34.1533   -8.2804  -16.7840 C   0  0  0  0  0  0  0  0  0  0  0  0
   34.4828   -9.5485  -16.1126 C   0  0  0  0  0  0  0  0  0  0  0  0
   35.8474  -10.0494  -16.1780 C   0  0  0  0  0  0  0  0  0  0  0  0
   36.7309   -9.3738  -16.7707 O   0  0  0  0  0  0  0  0  0  0  0  0
   32.6662   -6.3256  -16.8064 C   0  0  0  0  0  0  0  0  0  0  0  0
   32.4557   -5.6611  -17.8436 O   0  0  0  0  0  0  0  0  0  0  0  0
   36.2481  -11.2501  -15.6174 O   0  0  0  0  0  0  0  0  0  0  0  0
   32.8226   -1.8607  -12.4654 C   0  0  0  0  0  0  0  0  0  0  0  0
   32.6621   -2.2112  -13.9465 C   0  0  2  0  0  0  0  0  0  0  0  0
   31.3487   -1.5848  -14.3655 C   0  0  0  0  0  0  0  0  0  0  0  0
   32.6876   -3.7023  -14.1409 C   0  0  0  0  0  0  0  0  0  0  0  0
   32.7942   -4.1848  -15.5348 C   0  0  2  0  0  0  0  0  0  0  0  0
   32.8393   -5.6498  -15.5771 N   0  0  0  0  0  0  0  0  0  0  0  0
   33.9089   -3.5663  -16.2661 C   0  0  0  0  0  0  0  0  0  0  0  0
   35.0963   -3.9156  -16.1886 O   0  0  0  0  0  0  0  0  0  0  0  0
   33.6248   -2.4969  -17.1176 O   0  0  0  0  0  0  0  0  0  0  0  0
  2  9  1  0
  2  1  1  1
  3  2  1  0
  4  3  1  0
  4  5  2  0
  6  5  1  0
  7  6  1  0
  8  7  2  0
  8  4  1  0
  9 11  1  0
 10  9  2  0
 11 12  1  0
 12 13  1  6
 13 14  1  0
 14 15  1  0
 15 19  1  0
 15 16  2  0
 17 18  2  0
 17 12  1  0
 21 20  1  1
 21 23  1  0
 22 21  1  0
 24 23  1  1
 24 25  1  0
 24 26  1  0
 25 17  1  0
 26 28  1  0
 27 26  2  0
M  END
$$$$
