HEL.pdb
     RDKit          3D

 28 28  0  0  1  0  0  0  0  0999 V2000
   16.9535  -13.2228  -18.0580 N   0  0  0  0  0  0  0  0  0  0  0  0
   17.4725  -12.8027  -16.7962 C   0  0  1  0  0  0  0  0  0  0  0  0
   18.3995  -13.7876  -16.1585 C   0  0  0  0  0  0  0  0  0  0  0  0
   17.6629  -15.0478  -15.9011 C   0  0  0  0  0  0  0  0  0  0  0  0
   16.6264  -15.2417  -14.9799 C   0  0  0  0  0  0  0  0  0  0  0  0
   16.2052  -16.5197  -15.0350 N   0  0  0  0  0  0  0  0  0  0  0  0
   16.9551  -17.1349  -15.9724 C   0  0  0  0  0  0  0  0  0  0  0  0
   17.8234  -16.2443  -16.4833 N   0  0  0  0  0  0  0  0  0  0  0  0
   18.0400  -11.4416  -16.8994 C   0  0  0  0  0  0  0  0  0  0  0  0
   18.9328  -11.2357  -17.7611 O   0  0  0  0  0  0  0  0  0  0  0  0
   17.6021  -10.3700  -16.0522 N   0  0  0  0  0  0  0  0  0  0  0  0
   18.1423   -9.0688  -16.2563 C   0  0  1  0  0  0  0  0  0  0  0  0
   17.1586   -7.9643  -16.3731 C   0  0  0  0  0  0  0  0  0  0  0  0
   17.6374   -6.6058  -16.6773 C   0  0  0  0  0  0  0  0  0  0  0  0
   16.6703   -5.5251  -16.7950 C   0  0  0  0  0  0  0  0  0  0  0  0
   17.0708   -4.3543  -17.0337 O   0  0  0  0  0  0  0  0  0  0  0  0
   19.2006   -8.7429  -15.2517 C   0  0  0  0  0  0  0  0  0  0  0  0
   19.0131   -8.8366  -14.0198 O   0  0  0  0  0  0  0  0  0  0  0  0
   15.3043   -5.7042  -16.6582 O   0  0  0  0  0  0  0  0  0  0  0  0
   23.0607  -10.7462  -14.4719 C   0  0  0  0  0  0  0  0  0  0  0  0
   23.0391   -9.8770  -15.7314 C   0  0  2  0  0  0  0  0  0  0  0  0
   24.3568  -10.1479  -16.4267 C   0  0  0  0  0  0  0  0  0  0  0  0
   22.8554   -8.4290  -15.3693 C   0  0  0  0  0  0  0  0  0  0  0  0
   21.5507   -8.0556  -14.7814 C   0  0  2  0  0  0  0  0  0  0  0  0
   20.4602   -8.3128  -15.7274 N   0  0  0  0  0  0  0  0  0  0  0  0
   21.5339   -6.6802  -14.2640 C   0  0  0  0  0  0  0  0  0  0  0  0
   20.8765   -5.7440  -14.7428 O   0  0  0  0  0  0  0  0  0  0  0  0
   22.3178   -6.3878  -13.1462 O   0  0  0  0  0  0  0  0  0  0  0  0
  2  9  1  0
  2  1  1  6
  3  2  1  0
  4  3  1  0
  4  5  2  0
  6  5  1  0
  7  6  1  0
  8  7  2  0
  8  4  1  0
  9 11  1  0
 10  9  2  0
 11 12  1  0
 12 13  1  1
 13 14  1  0
 14 15  1  0
 15 19  1  0
 15 16  2  0
 17 18  2  0
 17 12  1  0
 21 20  1  1
 21 23  1  0
 22 21  1  0
 24 23  1  6
 24 25  1  0
 24 26  1  0
 25 17  1  0
 26 28  1  0
 27 26  2  0
M  END
$$$$
