HEL.pdb
     RDKit          3D

 28 28  0  0  1  0  0  0  0  0999 V2000
   19.8115  -12.0852  -19.5531 N   0  0  0  0  0  0  0  0  0  0  0  0
   20.8532  -11.4572  -18.8057 C   0  0  1  0  0  0  0  0  0  0  0  0
   22.1133  -11.2373  -19.5800 C   0  0  0  0  0  0  0  0  0  0  0  0
   22.6462  -12.5492  -20.0182 C   0  0  0  0  0  0  0  0  0  0  0  0
   23.6635  -13.2901  -19.4044 C   0  0  0  0  0  0  0  0  0  0  0  0
   23.8689  -14.4310  -20.0897 N   0  0  0  0  0  0  0  0  0  0  0  0
   23.0015  -14.4243  -21.1228 C   0  0  0  0  0  0  0  0  0  0  0  0
   22.2757  -13.2936  -21.0694 N   0  0  0  0  0  0  0  0  0  0  0  0
   20.3484  -10.2357  -18.1435 C   0  0  0  0  0  0  0  0  0  0  0  0
   19.6994   -9.4110  -18.8369 O   0  0  0  0  0  0  0  0  0  0  0  0
   20.5795   -9.9755  -16.7518 N   0  0  0  0  0  0  0  0  0  0  0  0
   20.0048   -8.8122  -16.1662 C   0  0  1  0  0  0  0  0  0  0  0  0
   18.8795   -9.0419  -15.2270 C   0  0  0  0  0  0  0  0  0  0  0  0
   17.6480   -9.6773  -15.7240 C   0  0  0  0  0  0  0  0  0  0  0  0
   16.5734   -9.9661  -14.7863 C   0  0  0  0  0  0  0  0  0  0  0  0
   16.0675  -11.1199  -14.7551 O   0  0  0  0  0  0  0  0  0  0  0  0
   21.0433   -7.9268  -15.5555 C   0  0  0  0  0  0  0  0  0  0  0  0
   22.0322   -8.3746  -14.9364 O   0  0  0  0  0  0  0  0  0  0  0  0
   16.0576   -9.0319  -13.9043 O   0  0  0  0  0  0  0  0  0  0  0  0
   23.6872   -4.5844  -17.2357 C   0  0  0  0  0  0  0  0  0  0  0  0
   22.2068   -4.2308  -17.0753 C   0  0  2  0  0  0  0  0  0  0  0  0
   22.0584   -2.8489  -17.6765 C   0  0  0  0  0  0  0  0  0  0  0  0
   21.8061   -4.2847  -15.6267 C   0  0  0  0  0  0  0  0  0  0  0  0
   21.8037   -5.6202  -14.9915 C   0  0  2  0  0  0  0  0  0  0  0  0
   20.8893   -6.5284  -15.6911 N   0  0  0  0  0  0  0  0  0  0  0  0
   21.5417   -5.5612  -13.5466 C   0  0  0  0  0  0  0  0  0  0  0  0
   20.6157   -6.1445  -12.9633 O   0  0  0  0  0  0  0  0  0  0  0  0
   22.3929   -4.7884  -12.7544 O   0  0  0  0  0  0  0  0  0  0  0  0
  2  9  1  0
  2  1  1  6
  3  2  1  0
  4  3  1  0
  4  5  2  0
  6  5  1  0
  7  6  1  0
  8  7  2  0
  8  4  1  0
  9 11  1  0
 10  9  2  0
 11 12  1  0
 12 13  1  1
 13 14  1  0
 14 15  1  0
 15 19  1  0
 15 16  2  0
 17 18  2  0
 17 12  1  0
 21 20  1  1
 21 23  1  0
 22 21  1  0
 24 23  1  6
 24 25  1  0
 24 26  1  0
 25 17  1  0
 26 28  1  0
 27 26  2  0
M  END
$$$$
