HEL.pdb
     RDKit          3D

 28 28  0  0  1  0  0  0  0  0999 V2000
   16.1553  -25.1047   -7.2233 N   0  0  0  0  0  0  0  0  0  0  0  0
   17.4266  -25.3622   -6.6271 C   0  0  1  0  0  0  0  0  0  0  0  0
   18.4485  -24.3015   -6.8851 C   0  0  0  0  0  0  0  0  0  0  0  0
   18.5677  -24.0911   -8.3475 C   0  0  0  0  0  0  0  0  0  0  0  0
   19.1776  -24.9474   -9.2724 C   0  0  0  0  0  0  0  0  0  0  0  0
   19.0850  -24.4191  -10.5076 N   0  0  0  0  0  0  0  0  0  0  0  0
   18.4290  -23.2474  -10.3800 C   0  0  0  0  0  0  0  0  0  0  0  0
   18.1249  -23.0621   -9.0833 N   0  0  0  0  0  0  0  0  0  0  0  0
   17.2673  -25.6901   -5.1944 C   0  0  0  0  0  0  0  0  0  0  0  0
   16.5732  -24.9186   -4.4837 O   0  0  0  0  0  0  0  0  0  0  0  0
   17.8771  -26.8486   -4.6082 N   0  0  0  0  0  0  0  0  0  0  0  0
   17.4732  -27.2513   -3.3039 C   0  0  1  0  0  0  0  0  0  0  0  0
   16.6630  -28.4916   -3.2249 C   0  0  0  0  0  0  0  0  0  0  0  0
   15.5544  -28.6864   -4.1738 C   0  0  0  0  0  0  0  0  0  0  0  0
   14.8934  -29.9814   -4.2327 C   0  0  0  0  0  0  0  0  0  0  0  0
   13.9217  -30.1494   -5.0175 O   0  0  0  0  0  0  0  0  0  0  0  0
   18.6280  -27.3016   -2.3555 C   0  0  0  0  0  0  0  0  0  0  0  0
   19.8142  -27.3810   -2.7405 O   0  0  0  0  0  0  0  0  0  0  0  0
   15.2723  -31.0681   -3.4632 O   0  0  0  0  0  0  0  0  0  0  0  0
   21.1364  -24.9909    0.9255 C   0  0  0  0  0  0  0  0  0  0  0  0
   19.6178  -25.1129    1.0709 C   0  0  2  0  0  0  0  0  0  0  0  0
   19.2677  -24.3026    2.3013 C   0  0  0  0  0  0  0  0  0  0  0  0
   19.2138  -26.5568    1.1867 C   0  0  0  0  0  0  0  0  0  0  0  0
   19.4459  -27.4049   -0.0024 C   0  0  2  0  0  0  0  0  0  0  0  0
   18.3538  -27.2563   -0.9696 N   0  0  0  0  0  0  0  0  0  0  0  0
   19.7035  -28.8098    0.3437 C   0  0  0  0  0  0  0  0  0  0  0  0
   18.8694  -29.7256    0.2836 O   0  0  0  0  0  0  0  0  0  0  0  0
   20.9839  -29.1562    0.7795 O   0  0  0  0  0  0  0  0  0  0  0  0
  2  9  1  0
  2  1  1  1
  3  2  1  0
  4  3  1  0
  4  5  2  0
  6  5  1  0
  7  6  1  0
  8  7  2  0
  8  4  1  0
  9 11  1  0
 10  9  2  0
 11 12  1  0
 12 13  1  6
 13 14  1  0
 14 15  1  0
 15 19  1  0
 15 16  2  0
 17 18  2  0
 17 12  1  0
 21 20  1  1
 21 23  1  0
 22 21  1  0
 24 23  1  1
 24 25  1  0
 24 26  1  0
 25 17  1  0
 26 28  1  0
 27 26  2  0
M  END
$$$$
