HEL.pdb
     RDKit          3D

 28 28  0  0  1  0  0  0  0  0999 V2000
   15.0510  -13.5505  -12.2104 N   0  0  0  0  0  0  0  0  0  0  0  0
   14.4195  -12.2765  -12.0826 C   0  0  1  0  0  0  0  0  0  0  0  0
   13.4603  -12.1822  -10.9394 C   0  0  0  0  0  0  0  0  0  0  0  0
   12.3501  -13.1392  -11.1600 C   0  0  0  0  0  0  0  0  0  0  0  0
   12.0543  -14.2736  -10.3943 C   0  0  0  0  0  0  0  0  0  0  0  0
   10.9703  -14.8913  -10.9009 N   0  0  0  0  0  0  0  0  0  0  0  0
   10.5767  -14.1692  -11.9701 C   0  0  0  0  0  0  0  0  0  0  0  0
   11.4099  -13.1238  -12.1151 N   0  0  0  0  0  0  0  0  0  0  0  0
   15.4294  -11.1970  -12.0943 C   0  0  0  0  0  0  0  0  0  0  0  0
   16.3582  -11.2454  -11.2475 O   0  0  0  0  0  0  0  0  0  0  0  0
   15.3730  -10.1146  -13.0339 N   0  0  0  0  0  0  0  0  0  0  0  0
   16.3082   -9.0484  -12.9099 C   0  0  1  0  0  0  0  0  0  0  0  0
   17.0645   -8.6971  -14.1370 C   0  0  0  0  0  0  0  0  0  0  0  0
   18.0596   -7.6137  -14.0814 C   0  0  0  0  0  0  0  0  0  0  0  0
   18.7115   -7.1886  -15.3110 C   0  0  0  0  0  0  0  0  0  0  0  0
   19.0376   -5.9801  -15.4572 O   0  0  0  0  0  0  0  0  0  0  0  0
   15.6889   -7.8351  -12.2937 C   0  0  0  0  0  0  0  0  0  0  0  0
   14.6022   -7.3592  -12.6862 O   0  0  0  0  0  0  0  0  0  0  0  0
   19.0038   -8.0473  -16.3568 O   0  0  0  0  0  0  0  0  0  0  0  0
   13.4299   -6.7297   -8.7093 C   0  0  0  0  0  0  0  0  0  0  0  0
   14.8841   -7.1630   -8.5098 C   0  0  2  0  0  0  0  0  0  0  0  0
   15.0562   -7.3074   -7.0123 C   0  0  0  0  0  0  0  0  0  0  0  0
   15.8221   -6.1534   -9.1119 C   0  0  0  0  0  0  0  0  0  0  0  0
   15.7947   -6.0227  -10.5848 C   0  0  2  0  0  0  0  0  0  0  0  0
   16.3698   -7.2104  -11.2241 N   0  0  0  0  0  0  0  0  0  0  0  0
   16.4130   -4.7754  -11.0556 C   0  0  0  0  0  0  0  0  0  0  0  0
   16.0075   -3.6330  -10.7939 O   0  0  0  0  0  0  0  0  0  0  0  0
   17.5464   -4.8674  -11.8658 O   0  0  0  0  0  0  0  0  0  0  0  0
  2  9  1  0
  2  1  1  1
  3  2  1  0
  4  3  1  0
  4  5  2  0
  6  5  1  0
  7  6  1  0
  8  7  2  0
  8  4  1  0
  9 11  1  0
 10  9  2  0
 11 12  1  0
 12 13  1  6
 13 14  1  0
 14 15  1  0
 15 19  1  0
 15 16  2  0
 17 18  2  0
 17 12  1  0
 21 20  1  1
 21 23  1  0
 22 21  1  0
 24 23  1  1
 24 25  1  0
 24 26  1  0
 25 17  1  0
 26 28  1  0
 27 26  2  0
M  END
$$$$
