HEL.pdb
     RDKit          3D

 28 28  0  0  1  0  0  0  0  0999 V2000
   16.8919  -10.7259  -15.3425 N   0  0  0  0  0  0  0  0  0  0  0  0
   17.5968   -9.8999  -16.2693 C   0  0  1  0  0  0  0  0  0  0  0  0
   16.7260   -8.9453  -17.0218 C   0  0  0  0  0  0  0  0  0  0  0  0
   15.7607   -9.7155  -17.8417 C   0  0  0  0  0  0  0  0  0  0  0  0
   15.8806  -10.0376  -19.1991 C   0  0  0  0  0  0  0  0  0  0  0  0
   14.8072  -10.7496  -19.5917 N   0  0  0  0  0  0  0  0  0  0  0  0
   14.0132  -10.8830  -18.5093 C   0  0  0  0  0  0  0  0  0  0  0  0
   14.5942  -10.2602  -17.4688 N   0  0  0  0  0  0  0  0  0  0  0  0
   18.7487   -9.2502  -15.6085 C   0  0  0  0  0  0  0  0  0  0  0  0
   18.6103   -8.8671  -14.4185 O   0  0  0  0  0  0  0  0  0  0  0  0
   19.9983   -9.0508  -16.2841 N   0  0  0  0  0  0  0  0  0  0  0  0
   21.0665   -8.4250  -15.5813 C   0  0  1  0  0  0  0  0  0  0  0  0
   22.4207   -8.9816  -15.8211 C   0  0  0  0  0  0  0  0  0  0  0  0
   22.7028  -10.3744  -15.4365 C   0  0  0  0  0  0  0  0  0  0  0  0
   24.0005  -10.9481  -15.7592 C   0  0  0  0  0  0  0  0  0  0  0  0
   24.1002  -11.7647  -16.7139 O   0  0  0  0  0  0  0  0  0  0  0  0
   21.0553   -6.9407  -15.7606 C   0  0  0  0  0  0  0  0  0  0  0  0
   20.6246   -6.3896  -16.7962 O   0  0  0  0  0  0  0  0  0  0  0  0
   25.1618  -10.6474  -15.0681 O   0  0  0  0  0  0  0  0  0  0  0  0
   20.0574   -2.6305  -16.8054 C   0  0  0  0  0  0  0  0  0  0  0  0
   19.5515   -4.0002  -16.3469 C   0  0  2  0  0  0  0  0  0  0  0  0
   18.0442   -3.9331  -16.4752 C   0  0  0  0  0  0  0  0  0  0  0  0
   20.0070   -4.2871  -14.9426 C   0  0  0  0  0  0  0  0  0  0  0  0
   21.4229   -4.6803  -14.7750 C   0  0  2  0  0  0  0  0  0  0  0  0
   21.5543   -6.1392  -14.7088 N   0  0  0  0  0  0  0  0  0  0  0  0
   22.0690   -4.0053  -13.6407 C   0  0  0  0  0  0  0  0  0  0  0  0
   22.4747   -4.5660  -12.6116 O   0  0  0  0  0  0  0  0  0  0  0  0
   22.2445   -2.6219  -13.7110 O   0  0  0  0  0  0  0  0  0  0  0  0
  2  9  1  0
  2  1  1  1
  3  2  1  0
  4  3  1  0
  4  5  2  0
  6  5  1  0
  7  6  1  0
  8  7  2  0
  8  4  1  0
  9 11  1  0
 10  9  2  0
 11 12  1  0
 12 13  1  6
 13 14  1  0
 14 15  1  0
 15 19  1  0
 15 16  2  0
 17 18  2  0
 17 12  1  0
 21 20  1  1
 21 23  1  0
 22 21  1  0
 24 23  1  1
 24 25  1  0
 24 26  1  0
 25 17  1  0
 26 28  1  0
 27 26  2  0
M  END
$$$$
