HEL.pdb
     RDKit          3D

 28 28  0  0  1  0  0  0  0  0999 V2000
   14.9036   -7.7666   -8.4738 N   0  0  0  0  0  0  0  0  0  0  0  0
   15.2045   -6.6442   -9.3032 C   0  0  1  0  0  0  0  0  0  0  0  0
   15.5783   -5.4092   -8.5478 C   0  0  0  0  0  0  0  0  0  0  0  0
   14.3932   -4.9208   -7.8035 C   0  0  0  0  0  0  0  0  0  0  0  0
   14.1855   -4.9835   -6.4201 C   0  0  0  0  0  0  0  0  0  0  0  0
   12.9934   -4.4357   -6.1162 N   0  0  0  0  0  0  0  0  0  0  0  0
   12.4457   -4.0289   -7.2799 C   0  0  0  0  0  0  0  0  0  0  0  0
   13.2923   -4.3246   -8.2819 N   0  0  0  0  0  0  0  0  0  0  0  0
   16.1875   -7.0194  -10.3416 C   0  0  0  0  0  0  0  0  0  0  0  0
   17.1677   -7.7299  -10.0004 O   0  0  0  0  0  0  0  0  0  0  0  0
   16.0497   -6.5972  -11.7057 N   0  0  0  0  0  0  0  0  0  0  0  0
   17.0050   -7.0433  -12.6622 C   0  0  1  0  0  0  0  0  0  0  0  0
   16.5589   -7.0485  -14.0772 C   0  0  0  0  0  0  0  0  0  0  0  0
   17.5000   -7.4770  -15.1250 C   0  0  0  0  0  0  0  0  0  0  0  0
   17.0505   -7.5104  -16.5085 C   0  0  0  0  0  0  0  0  0  0  0  0
   15.8850   -7.1252  -16.7940 O   0  0  0  0  0  0  0  0  0  0  0  0
   18.3131   -6.3346  -12.5130 C   0  0  0  0  0  0  0  0  0  0  0  0
   18.4206   -5.2312  -11.9364 O   0  0  0  0  0  0  0  0  0  0  0  0
   17.8400   -7.9489  -17.5578 O   0  0  0  0  0  0  0  0  0  0  0  0
   22.6549   -9.7876  -12.5611 C   0  0  0  0  0  0  0  0  0  0  0  0
   21.8836   -8.6515  -13.2367 C   0  0  2  0  0  0  0  0  0  0  0  0
   22.7006   -8.2845  -14.4577 C   0  0  0  0  0  0  0  0  0  0  0  0
   21.7019   -7.5000  -12.2866 C   0  0  0  0  0  0  0  0  0  0  0  0
   20.7958   -6.4172  -12.7268 C   0  0  2  0  0  0  0  0  0  0  0  0
   19.4677   -6.9482  -13.0498 N   0  0  0  0  0  0  0  0  0  0  0  0
   21.3610   -5.6129  -13.8192 C   0  0  0  0  0  0  0  0  0  0  0  0
   22.4061   -4.9486  -13.7514 O   0  0  0  0  0  0  0  0  0  0  0  0
   20.6767   -5.5817  -15.0358 O   0  0  0  0  0  0  0  0  0  0  0  0
  2  9  1  0
  2  1  1  1
  3  2  1  0
  4  3  1  0
  4  5  2  0
  6  5  1  0
  7  6  1  0
  8  7  2  0
  8  4  1  0
  9 11  1  0
 10  9  2  0
 11 12  1  0
 12 13  1  6
 13 14  1  0
 14 15  1  0
 15 19  1  0
 15 16  2  0
 17 18  2  0
 17 12  1  0
 21 20  1  1
 21 23  1  0
 22 21  1  0
 24 23  1  6
 24 25  1  0
 24 26  1  0
 25 17  1  0
 26 28  1  0
 27 26  2  0
M  END
$$$$
