HEL.pdb
     RDKit          3D

 28 28  0  0  1  0  0  0  0  0999 V2000
   14.2680   -8.5370  -10.9038 N   0  0  0  0  0  0  0  0  0  0  0  0
   15.2603   -7.5344  -10.6838 C   0  0  1  0  0  0  0  0  0  0  0  0
   15.8760   -7.5728   -9.3217 C   0  0  0  0  0  0  0  0  0  0  0  0
   14.8468   -7.2169   -8.3161 C   0  0  0  0  0  0  0  0  0  0  0  0
   14.5519   -5.9361   -7.8331 C   0  0  0  0  0  0  0  0  0  0  0  0
   13.5538   -6.0110   -6.9322 N   0  0  0  0  0  0  0  0  0  0  0  0
   13.2136   -7.3130   -6.8378 C   0  0  0  0  0  0  0  0  0  0  0  0
   13.9941   -8.0243   -7.6703 N   0  0  0  0  0  0  0  0  0  0  0  0
   16.2531   -7.5426  -11.7791 C   0  0  0  0  0  0  0  0  0  0  0  0
   16.7871   -8.6392  -12.0865 O   0  0  0  0  0  0  0  0  0  0  0  0
   16.6142   -6.3475  -12.4856 N   0  0  0  0  0  0  0  0  0  0  0  0
   17.4850   -6.4496  -13.6072 C   0  0  1  0  0  0  0  0  0  0  0  0
   17.0306   -5.7785  -14.8499 C   0  0  0  0  0  0  0  0  0  0  0  0
   15.7480   -6.1767  -15.4530 C   0  0  0  0  0  0  0  0  0  0  0  0
   15.2684   -5.4657  -16.6285 C   0  0  0  0  0  0  0  0  0  0  0  0
   15.9508   -4.5196  -17.1054 O   0  0  0  0  0  0  0  0  0  0  0  0
   18.8845   -6.0525  -13.2620 C   0  0  0  0  0  0  0  0  0  0  0  0
   19.1490   -5.2302  -12.3590 O   0  0  0  0  0  0  0  0  0  0  0  0
   14.0812   -5.7687  -17.2730 O   0  0  0  0  0  0  0  0  0  0  0  0
   21.8714   -9.0302  -12.2534 C   0  0  0  0  0  0  0  0  0  0  0  0
   21.8638   -8.8323  -13.7709 C   0  0  2  0  0  0  0  0  0  0  0  0
   22.8466   -9.8496  -14.3116 C   0  0  0  0  0  0  0  0  0  0  0  0
   22.2351   -7.4174  -14.1197 C   0  0  0  0  0  0  0  0  0  0  0  0
   21.3327   -6.3562  -13.6226 C   0  0  2  0  0  0  0  0  0  0  0  0
   19.9424   -6.6384  -13.9936 N   0  0  0  0  0  0  0  0  0  0  0  0
   21.7612   -5.0104  -14.0287 C   0  0  0  0  0  0  0  0  0  0  0  0
   21.1634   -4.2826  -14.8355 O   0  0  0  0  0  0  0  0  0  0  0  0
   22.9347   -4.4974  -13.4727 O   0  0  0  0  0  0  0  0  0  0  0  0
  2  9  1  0
  2  1  1  6
  3  2  1  0
  4  3  1  0
  4  5  2  0
  6  5  1  0
  7  6  1  0
  8  7  2  0
  8  4  1  0
  9 11  1  0
 10  9  2  0
 11 12  1  0
 12 13  1  6
 13 14  1  0
 14 15  1  0
 15 19  1  0
 15 16  2  0
 17 18  2  0
 17 12  1  0
 21 20  1  1
 21 23  1  0
 22 21  1  0
 24 23  1  6
 24 25  1  0
 24 26  1  0
 25 17  1  0
 26 28  1  0
 27 26  2  0
M  END
$$$$
