HEL.pdb
     RDKit          3D

 28 28  0  0  1  0  0  0  0  0999 V2000
   27.0740  -21.5758  -17.6157 N   0  0  0  0  0  0  0  0  0  0  0  0
   27.7415  -21.6611  -16.3566 C   0  0  1  0  0  0  0  0  0  0  0  0
   29.2149  -21.4167  -16.4286 C   0  0  0  0  0  0  0  0  0  0  0  0
   29.8739  -22.6070  -17.0168 C   0  0  0  0  0  0  0  0  0  0  0  0
   30.0486  -23.8565  -16.4094 C   0  0  0  0  0  0  0  0  0  0  0  0
   30.6882  -24.6857  -17.2561 N   0  0  0  0  0  0  0  0  0  0  0  0
   30.9200  -23.9842  -18.3847 C   0  0  0  0  0  0  0  0  0  0  0  0
   30.4284  -22.7423  -18.2295 N   0  0  0  0  0  0  0  0  0  0  0  0
   27.0542  -20.8236  -15.3509 C   0  0  0  0  0  0  0  0  0  0  0  0
   27.1200  -19.5737  -15.4759 O   0  0  0  0  0  0  0  0  0  0  0  0
   26.3274  -21.3961  -14.2546 N   0  0  0  0  0  0  0  0  0  0  0  0
   25.7418  -20.5274  -13.2908 C   0  0  1  0  0  0  0  0  0  0  0  0
   24.3699  -20.0488  -13.5911 C   0  0  0  0  0  0  0  0  0  0  0  0
   23.5833  -20.7314  -14.6315 C   0  0  0  0  0  0  0  0  0  0  0  0
   22.2468  -21.2079  -14.3088 C   0  0  0  0  0  0  0  0  0  0  0  0
   21.5518  -20.5860  -13.4612 O   0  0  0  0  0  0  0  0  0  0  0  0
   25.8238  -21.0940  -11.9096 C   0  0  0  0  0  0  0  0  0  0  0  0
   25.5969  -22.2972  -11.6596 O   0  0  0  0  0  0  0  0  0  0  0  0
   21.6749  -22.3282  -14.8871 O   0  0  0  0  0  0  0  0  0  0  0  0
   26.0404  -19.8520   -6.5082 C   0  0  0  0  0  0  0  0  0  0  0  0
   27.2927  -20.3749   -7.2158 C   0  0  2  0  0  0  0  0  0  0  0  0
   28.4571  -19.7167   -6.5059 C   0  0  0  0  0  0  0  0  0  0  0  0
   27.2430  -20.0503   -8.6834 C   0  0  0  0  0  0  0  0  0  0  0  0
   26.1836  -20.7164   -9.4715 C   0  0  2  0  0  0  0  0  0  0  0  0
   26.1736  -20.2235  -10.8525 N   0  0  0  0  0  0  0  0  0  0  0  0
   24.8623  -20.6302   -8.8339 C   0  0  0  0  0  0  0  0  0  0  0  0
   24.0343  -19.7266   -9.0237 O   0  0  0  0  0  0  0  0  0  0  0  0
   24.4968  -21.6368   -7.9381 O   0  0  0  0  0  0  0  0  0  0  0  0
  2  9  1  0
  2  1  1  6
  3  2  1  0
  4  3  1  0
  4  5  2  0
  6  5  1  0
  7  6  1  0
  8  7  2  0
  8  4  1  0
  9 11  1  0
 10  9  2  0
 11 12  1  0
 12 13  1  6
 13 14  1  0
 14 15  1  0
 15 19  1  0
 15 16  2  0
 17 18  2  0
 17 12  1  0
 21 20  1  1
 21 23  1  0
 22 21  1  0
 24 23  1  1
 24 25  1  0
 24 26  1  0
 25 17  1  0
 26 28  1  0
 27 26  2  0
M  END
$$$$
