MRE.pdb
     RDKit          3D

 29 28  0  0  1  0  0  0  0  0999 V2000
    5.1083  -10.9751   26.7096 C   0  0  0  0  0  0  0  0  0  0  0  0
    6.2291  -12.1210   25.8884 S   0  0  0  0  0  0  0  0  0  0  0  0
    6.4538  -13.5577   26.9972 C   0  0  0  0  0  0  0  0  0  0  0  0
    7.4416  -14.4764   26.3194 C   0  0  0  0  0  0  0  0  0  0  0  0
    6.7205  -15.4804   25.4739 C   0  0  2  0  0  0  0  0  0  0  0  0
    5.8103  -16.2664   26.1848 N   0  0  0  0  0  0  0  0  0  0  0  0
    7.6643  -16.3146   24.6766 C   0  0  0  0  0  0  0  0  0  0  0  0
    8.1574  -17.3891   25.1739 O   0  0  0  0  0  0  0  0  0  0  0  0
    8.8324  -11.3509   19.3672 N   0  0  0  0  0  0  0  0  0  0  0  0
    9.0791  -12.7458   19.4074 C   0  0  0  0  0  0  0  0  0  0  0  0
   10.2544  -13.1637   19.7019 N   0  0  0  0  0  0  0  0  0  0  0  0
    8.0035  -13.6158   19.1205 N   0  0  0  0  0  0  0  0  0  0  0  0
    8.1323  -15.0302   19.3459 C   0  0  0  0  0  0  0  0  0  0  0  0
    8.0851  -15.3149   20.8175 C   0  0  0  0  0  0  0  0  0  0  0  0
    9.0375  -16.4253   21.1392 C   0  0  0  0  0  0  0  0  0  0  0  0
    9.0136  -16.8203   22.5837 C   0  0  2  0  0  0  0  0  0  0  0  0
    8.0941  -16.0245   23.3620 N   0  0  0  0  0  0  0  0  0  0  0  0
   10.3964  -16.5774   23.1059 C   0  0  0  0  0  0  0  0  0  0  0  0
   10.7407  -15.4137   23.4161 O   0  0  0  0  0  0  0  0  0  0  0  0
   10.4573  -14.1828   19.6930 N   0  0  0  0  0  0  0  0  0  0  0  0
   11.3214  -17.6514   23.2539 C   0  0  1  0  0  0  0  0  0  0  0  0
   12.6151  -17.3905   23.7976 C   0  0  0  0  0  0  0  0  0  0  0  0
   12.8337  -18.0033   25.1291 C   0  0  0  0  0  0  0  0  0  0  0  0
   12.6262  -19.4484   25.3062 C   0  0  0  0  0  0  0  0  0  0  0  0
   12.9453  -20.0340   26.6025 O   0  0  0  0  0  0  0  0  0  0  0  0
   13.4594  -19.4920   27.5997 C   0  0  0  0  0  0  0  0  0  0  0  0
   13.7172  -17.6402   22.8414 O   0  0  0  0  0  0  0  0  0  0  0  0
   15.0071  -17.2984   23.2231 O   0  0  0  0  0  0  0  0  0  0  0  0
   12.6307  -21.4044   26.7574 O   0  0  0  0  0  0  0  0  0  0  0  0
  1  2  1  0
  2  3  1  0
  3  4  1  0
  5  6  1  1
  5  4  1  0
  7  5  1  0
  8  7  2  0
 10  9  1  0
 10 12  1  0
 11 10  2  0
 12 13  1  0
 13 14  1  0
 14 15  1  0
 16 15  1  6
 16 17  1  0
 17  7  1  0
 18 16  1  0
 18 19  2  0
 20 18  1  0
 21 20  1  0
 21 22  1  6
 22 23  1  0
 23 24  1  0
 24 28  1  0
 24 25  2  0
 26 21  1  0
 27 26  1  0
 29 26  2  0
M  END
$$$$
