MRE.pdb
     RDKit          3D

 29 28  0  0  1  0  0  0  0  0999 V2000
    5.1816  -11.2100   27.5031 C   0  0  0  0  0  0  0  0  0  0  0  0
    6.4433  -12.1861   26.6670 S   0  0  0  0  0  0  0  0  0  0  0  0
    6.3603  -13.8835   27.3422 C   0  0  0  0  0  0  0  0  0  0  0  0
    6.7488  -14.8148   26.2193 C   0  0  0  0  0  0  0  0  0  0  0  0
    7.4927  -14.0652   25.1574 C   0  0  2  0  0  0  0  0  0  0  0  0
    6.7448  -13.0510   24.5542 N   0  0  0  0  0  0  0  0  0  0  0  0
    8.0928  -14.9828   24.1474 C   0  0  0  0  0  0  0  0  0  0  0  0
    8.2893  -16.2181   24.4307 O   0  0  0  0  0  0  0  0  0  0  0  0
    8.1671  -12.9166   15.9962 N   0  0  0  0  0  0  0  0  0  0  0  0
    8.4921  -14.2582   16.3168 C   0  0  0  0  0  0  0  0  0  0  0  0
    8.9048  -15.0396   15.3885 N   0  0  0  0  0  0  0  0  0  0  0  0
    8.3459  -14.6706   17.6602 N   0  0  0  0  0  0  0  0  0  0  0  0
    7.8837  -13.7449   18.6588 C   0  0  0  0  0  0  0  0  0  0  0  0
    7.7221  -14.4536   19.9704 C   0  0  0  0  0  0  0  0  0  0  0  0
    9.0681  -14.8692   20.4795 C   0  0  0  0  0  0  0  0  0  0  0  0
    9.0142  -15.5005   21.8366 C   0  0  2  0  0  0  0  0  0  0  0  0
    8.4894  -14.6088   22.8436 N   0  0  0  0  0  0  0  0  0  0  0  0
   10.4294  -15.8310   22.1997 C   0  0  0  0  0  0  0  0  0  0  0  0
   11.1458  -14.9567   22.7392 O   0  0  0  0  0  0  0  0  0  0  0  0
    9.1973  -16.0090   15.6218 N   0  0  0  0  0  0  0  0  0  0  0  0
   10.9679  -17.1246   21.9398 C   0  0  2  0  0  0  0  0  0  0  0  0
   12.2733  -17.4480   22.4185 C   0  0  0  0  0  0  0  0  0  0  0  0
   12.3109  -18.6651   23.2631 C   0  0  0  0  0  0  0  0  0  0  0  0
   13.5925  -19.1228   23.8203 C   0  0  0  0  0  0  0  0  0  0  0  0
   13.5988  -20.3466   24.6125 O   0  0  0  0  0  0  0  0  0  0  0  0
   12.6331  -20.9774   25.0840 C   0  0  0  0  0  0  0  0  0  0  0  0
   13.3100  -17.4266   21.3620 O   0  0  0  0  0  0  0  0  0  0  0  0
   12.9093  -17.6098   20.0458 O   0  0  0  0  0  0  0  0  0  0  0  0
   14.8712  -20.9000   24.8875 O   0  0  0  0  0  0  0  0  0  0  0  0
  1  2  1  0
  2  3  1  0
  3  4  1  0
  5  6  1  6
  5  4  1  0
  7  5  1  0
  8  7  2  0
 10  9  1  0
 10 12  1  0
 11 10  2  0
 12 13  1  0
 13 14  1  0
 14 15  1  0
 16 15  1  6
 16 17  1  0
 17  7  1  0
 18 16  1  0
 18 19  2  0
 20 18  1  0
 21 20  1  0
 21 22  1  1
 22 23  1  0
 23 24  1  0
 24 28  1  0
 24 25  2  0
 26 21  1  0
 27 26  1  0
 29 26  2  0
M  END
$$$$
