MRE.pdb
     RDKit          3D

 29 28  0  0  1  0  0  0  0  0999 V2000
    8.0278  -11.7721   27.3229 C   0  0  0  0  0  0  0  0  0  0  0  0
    6.2494  -11.9625   27.1109 S   0  0  0  0  0  0  0  0  0  0  0  0
    5.9464  -13.6688   26.5273 C   0  0  0  0  0  0  0  0  0  0  0  0
    6.9999  -13.9633   25.4868 C   0  0  0  0  0  0  0  0  0  0  0  0
    6.7728  -15.3167   24.8872 C   0  0  2  0  0  0  0  0  0  0  0  0
    6.6829  -16.3433   25.8304 N   0  0  0  0  0  0  0  0  0  0  0  0
    7.7727  -15.6286   23.8265 C   0  0  0  0  0  0  0  0  0  0  0  0
    8.2155  -16.8240   23.6853 O   0  0  0  0  0  0  0  0  0  0  0  0
    7.3351  -15.5128   17.4011 N   0  0  0  0  0  0  0  0  0  0  0  0
    8.0929  -14.4934   16.7729 C   0  0  0  0  0  0  0  0  0  0  0  0
    8.6478  -14.7343   15.6430 N   0  0  0  0  0  0  0  0  0  0  0  0
    8.1971  -13.2471   17.4302 N   0  0  0  0  0  0  0  0  0  0  0  0
    7.5468  -13.0356   18.6953 C   0  0  0  0  0  0  0  0  0  0  0  0
    7.7455  -14.2347   19.5736 C   0  0  0  0  0  0  0  0  0  0  0  0
    8.7482  -13.9100   20.6379 C   0  0  0  0  0  0  0  0  0  0  0  0
    8.9149  -15.0076   21.6433 C   0  0  2  0  0  0  0  0  0  0  0  0
    8.3110  -14.6914   22.9160 N   0  0  0  0  0  0  0  0  0  0  0  0
   10.3901  -15.1607   21.8535 C   0  0  0  0  0  0  0  0  0  0  0  0
   11.1112  -15.5360   20.9006 O   0  0  0  0  0  0  0  0  0  0  0  0
    9.1979  -13.9909   15.1691 N   0  0  0  0  0  0  0  0  0  0  0  0
   10.9806  -14.8845   23.1208 C   0  0  2  0  0  0  0  0  0  0  0  0
   12.0172  -15.7353   23.6098 C   0  0  0  0  0  0  0  0  0  0  0  0
   11.5347  -16.7853   24.5376 C   0  0  0  0  0  0  0  0  0  0  0  0
   12.4706  -17.8098   25.0246 C   0  0  0  0  0  0  0  0  0  0  0  0
   11.9552  -18.8430   25.9146 O   0  0  0  0  0  0  0  0  0  0  0  0
   12.0599  -20.0809   25.8183 C   0  0  0  0  0  0  0  0  0  0  0  0
   12.9093  -16.2483   22.5456 O   0  0  0  0  0  0  0  0  0  0  0  0
   14.2676  -15.9796   22.6421 O   0  0  0  0  0  0  0  0  0  0  0  0
   11.2374  -18.3857   27.0445 O   0  0  0  0  0  0  0  0  0  0  0  0
  1  2  1  0
  2  3  1  0
  3  4  1  0
  5  6  1  1
  5  4  1  0
  7  5  1  0
  8  7  2  0
 10  9  1  0
 10 12  1  0
 11 10  2  0
 12 13  1  0
 13 14  1  0
 14 15  1  0
 16 15  1  6
 16 17  1  0
 17  7  1  0
 18 16  1  0
 18 19  2  0
 20 18  1  0
 21 20  1  0
 21 22  1  1
 22 23  1  0
 23 24  1  0
 24 28  1  0
 24 25  2  0
 26 21  1  0
 27 26  1  0
 29 26  2  0
M  END
$$$$
