MRE.pdb
     RDKit          3D

 29 28  0  0  1  0  0  0  0  0999 V2000
    5.5961  -11.6292   26.5457 C   0  0  0  0  0  0  0  0  0  0  0  0
    7.0636  -12.6435   26.7927 S   0  0  0  0  0  0  0  0  0  0  0  0
    6.4996  -14.3429   27.1640 C   0  0  0  0  0  0  0  0  0  0  0  0
    6.2908  -15.0290   25.8356 C   0  0  0  0  0  0  0  0  0  0  0  0
    7.6104  -15.3577   25.2083 C   0  0  2  0  0  0  0  0  0  0  0  0
    8.6772  -14.6120   25.7158 N   0  0  0  0  0  0  0  0  0  0  0  0
    7.5496  -15.2908   23.7203 C   0  0  0  0  0  0  0  0  0  0  0  0
    6.9960  -16.2349   23.0517 O   0  0  0  0  0  0  0  0  0  0  0  0
    7.0832  -16.4024   16.5395 N   0  0  0  0  0  0  0  0  0  0  0  0
    8.0504  -15.3737   16.6599 C   0  0  0  0  0  0  0  0  0  0  0  0
    9.1928  -15.5220   16.0982 N   0  0  0  0  0  0  0  0  0  0  0  0
    7.7012  -14.2214   17.3993 N   0  0  0  0  0  0  0  0  0  0  0  0
    7.6924  -14.2550   18.8369 C   0  0  0  0  0  0  0  0  0  0  0  0
    8.1889  -12.9472   19.3771 C   0  0  0  0  0  0  0  0  0  0  0  0
    8.0206  -12.9286   20.8654 C   0  0  0  0  0  0  0  0  0  0  0  0
    8.2387  -14.2683   21.4985 C   0  0  2  0  0  0  0  0  0  0  0  0
    8.0693  -14.2393   22.9321 N   0  0  0  0  0  0  0  0  0  0  0  0
    9.6593  -14.6423   21.2054 C   0  0  0  0  0  0  0  0  0  0  0  0
   10.5874  -14.0348   21.7870 O   0  0  0  0  0  0  0  0  0  0  0  0
    9.9291  -14.8001   16.2270 N   0  0  0  0  0  0  0  0  0  0  0  0
    9.9658  -15.6782   20.2758 C   0  0  2  0  0  0  0  0  0  0  0  0
   11.1352  -16.4723   20.4740 C   0  0  0  0  0  0  0  0  0  0  0  0
   11.2312  -17.0586   21.8317 C   0  0  0  0  0  0  0  0  0  0  0  0
   12.3278  -17.9866   22.1460 C   0  0  0  0  0  0  0  0  0  0  0  0
   12.3690  -18.5744   23.4794 O   0  0  0  0  0  0  0  0  0  0  0  0
   11.4787  -19.2018   24.0847 C   0  0  0  0  0  0  0  0  0  0  0  0
   11.3750  -17.4490   19.3877 O   0  0  0  0  0  0  0  0  0  0  0  0
   12.6712  -17.5994   18.9150 O   0  0  0  0  0  0  0  0  0  0  0  0
   13.5821  -18.4153   24.1893 O   0  0  0  0  0  0  0  0  0  0  0  0
  1  2  1  0
  2  3  1  0
  3  4  1  0
  5  6  1  1
  5  4  1  0
  7  5  1  0
  8  7  2  0
 10  9  1  0
 10 12  1  0
 11 10  2  0
 12 13  1  0
 13 14  1  0
 14 15  1  0
 16 15  1  1
 16 17  1  0
 17  7  1  0
 18 16  1  0
 18 19  2  0
 20 18  1  0
 21 20  1  0
 21 22  1  6
 22 23  1  0
 23 24  1  0
 24 28  1  0
 24 25  2  0
 26 21  1  0
 27 26  1  0
 29 26  2  0
M  END
$$$$
