MRE.pdb
     RDKit          3D

 29 28  0  0  1  0  0  0  0  0999 V2000
    6.0172  -11.8219   26.6053 C   0  0  0  0  0  0  0  0  0  0  0  0
    6.9560  -12.5241   27.9724 S   0  0  0  0  0  0  0  0  0  0  0  0
    6.7619  -14.3407   27.8950 C   0  0  0  0  0  0  0  0  0  0  0  0
    7.6706  -14.8260   26.7914 C   0  0  0  0  0  0  0  0  0  0  0  0
    7.1611  -16.1175   26.2300 C   0  0  2  0  0  0  0  0  0  0  0  0
    7.5928  -17.2462   26.9310 N   0  0  0  0  0  0  0  0  0  0  0  0
    7.4384  -16.2359   24.7701 C   0  0  0  0  0  0  0  0  0  0  0  0
    7.8625  -17.3422   24.2791 O   0  0  0  0  0  0  0  0  0  0  0  0
    8.8043  -12.6598   17.6854 N   0  0  0  0  0  0  0  0  0  0  0  0
    8.3356  -13.9507   17.3360 C   0  0  0  0  0  0  0  0  0  0  0  0
    8.9097  -14.5864   16.3826 N   0  0  0  0  0  0  0  0  0  0  0  0
    7.2483  -14.4793   18.0670 N   0  0  0  0  0  0  0  0  0  0  0  0
    6.8257  -13.8579   19.2931 C   0  0  0  0  0  0  0  0  0  0  0  0
    7.9201  -13.9554   20.3137 C   0  0  0  0  0  0  0  0  0  0  0  0
    7.3176  -14.0125   21.6839 C   0  0  0  0  0  0  0  0  0  0  0  0
    7.7144  -15.2367   22.4502 C   0  0  2  0  0  0  0  0  0  0  0  0
    7.2751  -15.1980   23.8250 N   0  0  0  0  0  0  0  0  0  0  0  0
    9.2120  -15.2677   22.4410 C   0  0  0  0  0  0  0  0  0  0  0  0
    9.8488  -14.3962   23.0765 O   0  0  0  0  0  0  0  0  0  0  0  0
    8.5979  -15.5480   16.1420 N   0  0  0  0  0  0  0  0  0  0  0  0
    9.9182  -16.2743   21.7206 C   0  0  2  0  0  0  0  0  0  0  0  0
   11.3453  -16.2837   21.7488 C   0  0  0  0  0  0  0  0  0  0  0  0
   11.9203  -17.5517   22.2565 C   0  0  0  0  0  0  0  0  0  0  0  0
   11.5456  -18.0346   23.5940 C   0  0  0  0  0  0  0  0  0  0  0  0
   11.6735  -19.4604   23.8698 O   0  0  0  0  0  0  0  0  0  0  0  0
   12.0651  -20.3706   23.1143 C   0  0  0  0  0  0  0  0  0  0  0  0
   11.9624  -15.8155   20.4873 O   0  0  0  0  0  0  0  0  0  0  0  0
   13.3454  -15.7120   20.4325 O   0  0  0  0  0  0  0  0  0  0  0  0
   11.3048  -19.8751   25.1711 O   0  0  0  0  0  0  0  0  0  0  0  0
  1  2  1  0
  2  3  1  0
  3  4  1  0
  5  6  1  1
  5  4  1  0
  7  5  1  0
  8  7  2  0
 10  9  1  0
 10 12  1  0
 11 10  2  0
 12 13  1  0
 13 14  1  0
 14 15  1  0
 16 15  1  6
 16 17  1  0
 17  7  1  0
 18 16  1  0
 18 19  2  0
 20 18  1  0
 21 20  1  0
 21 22  1  1
 22 23  1  0
 23 24  1  0
 24 28  1  0
 24 25  2  0
 26 21  1  0
 27 26  1  0
 29 26  2  0
M  END
$$$$
