MRE.pdb
     RDKit          3D

 29 28  0  0  1  0  0  0  0  0999 V2000
    6.4158  -22.4923   25.1679 C   0  0  0  0  0  0  0  0  0  0  0  0
    7.7356  -23.4706   24.4299 S   0  0  0  0  0  0  0  0  0  0  0  0
    7.8860  -22.9580   22.6811 C   0  0  0  0  0  0  0  0  0  0  0  0
    7.4235  -21.5226   22.6100 C   0  0  0  0  0  0  0  0  0  0  0  0
    7.4683  -21.0326   21.1955 C   0  0  2  0  0  0  0  0  0  0  0  0
    7.7961  -22.0226   20.2660 N   0  0  0  0  0  0  0  0  0  0  0  0
    8.3393  -19.8313   21.0517 C   0  0  0  0  0  0  0  0  0  0  0  0
    9.4630  -19.9158   20.4393 O   0  0  0  0  0  0  0  0  0  0  0  0
    8.7127  -11.5138   19.6094 N   0  0  0  0  0  0  0  0  0  0  0  0
    7.9960  -12.6488   19.1551 C   0  0  0  0  0  0  0  0  0  0  0  0
    7.9058  -12.8673   17.8954 N   0  0  0  0  0  0  0  0  0  0  0  0
    7.4127  -13.4941   20.1255 N   0  0  0  0  0  0  0  0  0  0  0  0
    8.0287  -13.6541   21.4150 C   0  0  0  0  0  0  0  0  0  0  0  0
    8.9130  -14.8652   21.4070 C   0  0  0  0  0  0  0  0  0  0  0  0
    8.0703  -16.0964   21.5402 C   0  0  0  0  0  0  0  0  0  0  0  0
    8.8514  -17.3640   21.3784 C   0  0  2  0  0  0  0  0  0  0  0  0
    8.0371  -18.5439   21.5499 N   0  0  0  0  0  0  0  0  0  0  0  0
    9.8903  -17.3548   22.4574 C   0  0  0  0  0  0  0  0  0  0  0  0
    9.5903  -17.7622   23.6031 O   0  0  0  0  0  0  0  0  0  0  0  0
    7.3988  -13.7068   17.5520 N   0  0  0  0  0  0  0  0  0  0  0  0
   11.2119  -16.8899   22.1960 C   0  0  2  0  0  0  0  0  0  0  0  0
   12.2084  -17.0074   23.2113 C   0  0  0  0  0  0  0  0  0  0  0  0
   13.5650  -16.6185   22.7590 C   0  0  0  0  0  0  0  0  0  0  0  0
   14.6836  -16.6438   23.7133 C   0  0  0  0  0  0  0  0  0  0  0  0
   16.0166  -16.3238   23.2174 O   0  0  0  0  0  0  0  0  0  0  0  0
   16.5283  -16.6019   22.1159 C   0  0  0  0  0  0  0  0  0  0  0  0
   11.8131  -16.3924   24.4985 O   0  0  0  0  0  0  0  0  0  0  0  0
   11.0171  -15.2559   24.4656 O   0  0  0  0  0  0  0  0  0  0  0  0
   16.8487  -15.5981   24.1017 O   0  0  0  0  0  0  0  0  0  0  0  0
  1  2  1  0
  2  3  1  0
  3  4  1  0
  5  6  1  6
  5  4  1  0
  7  5  1  0
  8  7  2  0
 10  9  1  0
 10 12  1  0
 11 10  2  0
 12 13  1  0
 13 14  1  0
 14 15  1  0
 16 15  1  1
 16 17  1  0
 17  7  1  0
 18 16  1  0
 18 19  2  0
 20 18  1  0
 21 20  1  0
 21 22  1  6
 22 23  1  0
 23 24  1  0
 24 28  1  0
 24 25  2  0
 26 21  1  0
 27 26  1  0
 29 26  2  0
M  END
$$$$
