MRE.pdb
     RDKit          3D

 29 28  0  0  1  0  0  0  0  0999 V2000
    6.7004  -10.7066   26.4646 C   0  0  0  0  0  0  0  0  0  0  0  0
    6.6439  -12.0038   27.7128 S   0  0  0  0  0  0  0  0  0  0  0  0
    5.9871  -13.5094   26.9096 C   0  0  0  0  0  0  0  0  0  0  0  0
    7.0754  -14.0229   25.9980 C   0  0  0  0  0  0  0  0  0  0  0  0
    6.5986  -15.2289   25.2489 C   0  0  2  0  0  0  0  0  0  0  0  0
    6.2479  -16.3017   26.0721 N   0  0  0  0  0  0  0  0  0  0  0  0
    7.5619  -15.6400   24.1881 C   0  0  0  0  0  0  0  0  0  0  0  0
    8.1271  -16.7902   24.2371 O   0  0  0  0  0  0  0  0  0  0  0  0
    7.3669  -13.0137   17.0397 N   0  0  0  0  0  0  0  0  0  0  0  0
    8.0577  -14.1113   16.4685 C   0  0  0  0  0  0  0  0  0  0  0  0
    7.7355  -14.5086   15.2934 N   0  0  0  0  0  0  0  0  0  0  0  0
    9.0811  -14.7173   17.2312 N   0  0  0  0  0  0  0  0  0  0  0  0
    9.4294  -14.1958   18.5252 C   0  0  0  0  0  0  0  0  0  0  0  0
    8.5157  -14.7710   19.5659 C   0  0  0  0  0  0  0  0  0  0  0  0
    8.9023  -14.2425   20.9130 C   0  0  0  0  0  0  0  0  0  0  0  0
    8.7979  -15.2684   21.9993 C   0  0  2  0  0  0  0  0  0  0  0  0
    7.9359  -14.8484   23.0787 N   0  0  0  0  0  0  0  0  0  0  0  0
   10.1814  -15.4379   22.5478 C   0  0  0  0  0  0  0  0  0  0  0  0
   10.7513  -14.4635   23.0905 O   0  0  0  0  0  0  0  0  0  0  0  0
    8.2602  -15.2884   14.8501 N   0  0  0  0  0  0  0  0  0  0  0  0
   10.8543  -16.6912   22.4601 C   0  0  2  0  0  0  0  0  0  0  0  0
   12.0626  -16.8892   23.1938 C   0  0  0  0  0  0  0  0  0  0  0  0
   12.1282  -18.1975   23.8868 C   0  0  0  0  0  0  0  0  0  0  0  0
   13.3747  -18.6049   24.5522 C   0  0  0  0  0  0  0  0  0  0  0  0
   13.4220  -19.9226   25.1741 O   0  0  0  0  0  0  0  0  0  0  0  0
   14.1327  -20.9021   24.8769 C   0  0  0  0  0  0  0  0  0  0  0  0
   13.2819  -16.5666   22.4188 O   0  0  0  0  0  0  0  0  0  0  0  0
   13.1881  -16.5266   21.0346 O   0  0  0  0  0  0  0  0  0  0  0  0
   12.5444  -20.1246   26.2650 O   0  0  0  0  0  0  0  0  0  0  0  0
  1  2  1  0
  2  3  1  0
  3  4  1  0
  5  6  1  1
  5  4  1  0
  7  5  1  0
  8  7  2  0
 10  9  1  0
 10 12  1  0
 11 10  2  0
 12 13  1  0
 13 14  1  0
 14 15  1  0
 16 15  1  6
 16 17  1  0
 17  7  1  0
 18 16  1  0
 18 19  2  0
 20 18  1  0
 21 20  1  0
 21 22  1  1
 22 23  1  0
 23 24  1  0
 24 28  1  0
 24 25  2  0
 26 21  1  0
 27 26  1  0
 29 26  2  0
M  END
$$$$
