MRE.pdb
     RDKit          3D

 29 28  0  0  1  0  0  0  0  0999 V2000
    8.2460  -11.4601   27.8624 C   0  0  0  0  0  0  0  0  0  0  0  0
    6.9537  -10.6370   26.9158 S   0  0  0  0  0  0  0  0  0  0  0  0
    5.9013  -11.9377   26.1781 C   0  0  0  0  0  0  0  0  0  0  0  0
    6.8170  -13.0832   25.8200 C   0  0  0  0  0  0  0  0  0  0  0  0
    6.0490  -14.1623   25.1208 C   0  0  2  0  0  0  0  0  0  0  0  0
    5.0413  -14.7334   25.9018 N   0  0  0  0  0  0  0  0  0  0  0  0
    6.9504  -15.1980   24.5404 C   0  0  0  0  0  0  0  0  0  0  0  0
    7.4038  -16.1469   25.2745 O   0  0  0  0  0  0  0  0  0  0  0  0
    8.3185  -16.9433   16.9485 N   0  0  0  0  0  0  0  0  0  0  0  0
    8.3245  -18.2083   17.5873 C   0  0  0  0  0  0  0  0  0  0  0  0
    7.5228  -19.1196   17.1754 N   0  0  0  0  0  0  0  0  0  0  0  0
    9.2269  -18.4045   18.6565 N   0  0  0  0  0  0  0  0  0  0  0  0
    8.8025  -18.1936   20.0142 C   0  0  0  0  0  0  0  0  0  0  0  0
    9.4807  -16.9790   20.5740 C   0  0  0  0  0  0  0  0  0  0  0  0
    8.4509  -16.0567   21.1509 C   0  0  0  0  0  0  0  0  0  0  0  0
    8.2818  -16.2160   22.6305 C   0  0  2  0  0  0  0  0  0  0  0  0
    7.3795  -15.2402   23.1946 N   0  0  0  0  0  0  0  0  0  0  0  0
    9.6367  -15.9989   23.2313 C   0  0  0  0  0  0  0  0  0  0  0  0
   10.1667  -14.8663   23.1594 O   0  0  0  0  0  0  0  0  0  0  0  0
    7.4974  -20.0405   17.6559 N   0  0  0  0  0  0  0  0  0  0  0  0
   10.3270  -17.0624   23.8819 C   0  0  2  0  0  0  0  0  0  0  0  0
   11.6246  -16.8240   24.4271 C   0  0  0  0  0  0  0  0  0  0  0  0
   11.9682  -17.7215   25.5552 C   0  0  0  0  0  0  0  0  0  0  0  0
   11.1217  -17.7331   26.7576 C   0  0  0  0  0  0  0  0  0  0  0  0
   11.5564  -18.5338   27.8957 O   0  0  0  0  0  0  0  0  0  0  0  0
   11.8653  -18.1585   29.0429 C   0  0  0  0  0  0  0  0  0  0  0  0
   12.6865  -16.7286   23.4001 O   0  0  0  0  0  0  0  0  0  0  0  0
   13.9333  -16.2578   23.7875 O   0  0  0  0  0  0  0  0  0  0  0  0
   11.6414  -19.9285   27.6753 O   0  0  0  0  0  0  0  0  0  0  0  0
  1  2  1  0
  2  3  1  0
  3  4  1  0
  5  6  1  1
  5  4  1  0
  7  5  1  0
  8  7  2  0
 10  9  1  0
 10 12  1  0
 11 10  2  0
 12 13  1  0
 13 14  1  0
 14 15  1  0
 16 15  1  6
 16 17  1  0
 17  7  1  0
 18 16  1  0
 18 19  2  0
 20 18  1  0
 21 20  1  0
 21 22  1  1
 22 23  1  0
 23 24  1  0
 24 28  1  0
 24 25  2  0
 26 21  1  0
 27 26  1  0
 29 26  2  0
M  END
$$$$
