MRE.pdb
     RDKit          3D

 29 28  0  0  1  0  0  0  0  0999 V2000
    6.9029  -11.0289   26.8610 C   0  0  0  0  0  0  0  0  0  0  0  0
    6.8001  -12.7116   27.4945 S   0  0  0  0  0  0  0  0  0  0  0  0
    5.9429  -13.7209   26.2335 C   0  0  0  0  0  0  0  0  0  0  0  0
    7.0171  -14.3436   25.3748 C   0  0  0  0  0  0  0  0  0  0  0  0
    6.7281  -15.7966   25.1548 C   0  0  2  0  0  0  0  0  0  0  0  0
    6.4390  -16.4978   26.3280 N   0  0  0  0  0  0  0  0  0  0  0  0
    7.8026  -16.4627   24.3650 C   0  0  0  0  0  0  0  0  0  0  0  0
    8.6449  -17.2384   24.9428 O   0  0  0  0  0  0  0  0  0  0  0  0
    7.0435  -13.0948   18.0143 N   0  0  0  0  0  0  0  0  0  0  0  0
    8.3890  -12.9293   18.4273 C   0  0  0  0  0  0  0  0  0  0  0  0
    8.7551  -11.8074   18.9273 N   0  0  0  0  0  0  0  0  0  0  0  0
    9.2685  -14.0235   18.2682 N   0  0  0  0  0  0  0  0  0  0  0  0
    8.9051  -15.3257   18.7580 C   0  0  0  0  0  0  0  0  0  0  0  0
    9.0876  -15.3765   20.2456 C   0  0  0  0  0  0  0  0  0  0  0  0
    8.8555  -16.7757   20.7270 C   0  0  0  0  0  0  0  0  0  0  0  0
    9.0540  -16.9302   22.2034 C   0  0  2  0  0  0  0  0  0  0  0  0
    7.9980  -16.3161   22.9730 N   0  0  0  0  0  0  0  0  0  0  0  0
   10.3359  -16.2265   22.5281 C   0  0  0  0  0  0  0  0  0  0  0  0
   10.3013  -15.0421   22.9342 O   0  0  0  0  0  0  0  0  0  0  0  0
    9.7500  -11.6581   19.1872 N   0  0  0  0  0  0  0  0  0  0  0  0
   11.5902  -16.8871   22.3814 C   0  0  1  0  0  0  0  0  0  0  0  0
   12.4992  -16.9147   23.4816 C   0  0  0  0  0  0  0  0  0  0  0  0
   11.8985  -17.4296   24.7347 C   0  0  0  0  0  0  0  0  0  0  0  0
   12.7465  -17.6227   25.9205 C   0  0  0  0  0  0  0  0  0  0  0  0
   12.1291  -18.1631   27.1255 O   0  0  0  0  0  0  0  0  0  0  0  0
   12.4958  -18.0476   28.3107 C   0  0  0  0  0  0  0  0  0  0  0  0
   13.8041  -17.5312   23.1521 O   0  0  0  0  0  0  0  0  0  0  0  0
   13.8049  -18.7488   22.4859 O   0  0  0  0  0  0  0  0  0  0  0  0
   10.9521  -18.9233   26.9309 O   0  0  0  0  0  0  0  0  0  0  0  0
  1  2  1  0
  2  3  1  0
  3  4  1  0
  5  6  1  1
  5  4  1  0
  7  5  1  0
  8  7  2  0
 10  9  1  0
 10 12  1  0
 11 10  2  0
 12 13  1  0
 13 14  1  0
 14 15  1  0
 16 15  1  6
 16 17  1  0
 17  7  1  0
 18 16  1  0
 18 19  2  0
 20 18  1  0
 21 20  1  0
 21 22  1  6
 22 23  1  0
 23 24  1  0
 24 28  1  0
 24 25  2  0
 26 21  1  0
 27 26  1  0
 29 26  2  0
M  END
$$$$
