MRE.pdb
     RDKit          3D

 29 28  0  0  1  0  0  0  0  0999 V2000
    5.4412  -10.9042   25.9120 C   0  0  0  0  0  0  0  0  0  0  0  0
    6.7783  -11.8384   26.6757 S   0  0  0  0  0  0  0  0  0  0  0  0
    6.0681  -13.4055   27.2952 C   0  0  0  0  0  0  0  0  0  0  0  0
    6.1221  -14.3873   26.1496 C   0  0  0  0  0  0  0  0  0  0  0  0
    7.5196  -14.8935   25.9656 C   0  0  2  0  0  0  0  0  0  0  0  0
    8.5029  -13.9242   26.1782 N   0  0  0  0  0  0  0  0  0  0  0  0
    7.6939  -15.5769   24.6523 C   0  0  0  0  0  0  0  0  0  0  0  0
    6.9801  -16.6002   24.3550 O   0  0  0  0  0  0  0  0  0  0  0  0
    8.0977  -12.1282   18.8158 N   0  0  0  0  0  0  0  0  0  0  0  0
    8.2047  -13.3734   18.1478 C   0  0  0  0  0  0  0  0  0  0  0  0
    8.7121  -13.4092   16.9714 N   0  0  0  0  0  0  0  0  0  0  0  0
    7.7439  -14.5266   18.8216 N   0  0  0  0  0  0  0  0  0  0  0  0
    7.0562  -14.4080   20.0789 C   0  0  0  0  0  0  0  0  0  0  0  0
    8.0341  -14.0557   21.1598 C   0  0  0  0  0  0  0  0  0  0  0  0
    9.0807  -15.1235   21.2499 C   0  0  0  0  0  0  0  0  0  0  0  0
    8.9563  -15.9663   22.4818 C   0  0  2  0  0  0  0  0  0  0  0  0
    8.6151  -15.1925   23.6520 N   0  0  0  0  0  0  0  0  0  0  0  0
   10.3045  -16.5793   22.7061 C   0  0  0  0  0  0  0  0  0  0  0  0
   11.3304  -15.8726   22.5762 O   0  0  0  0  0  0  0  0  0  0  0  0
    8.7823  -14.3149   16.4668 N   0  0  0  0  0  0  0  0  0  0  0  0
   10.4328  -17.9525   23.0650 C   0  0  1  0  0  0  0  0  0  0  0  0
   11.6893  -18.4375   23.5379 C   0  0  0  0  0  0  0  0  0  0  0  0
   11.6258  -19.0217   24.8984 C   0  0  0  0  0  0  0  0  0  0  0  0
   12.8253  -19.6449   25.4776 C   0  0  0  0  0  0  0  0  0  0  0  0
   12.7229  -20.2209   26.8129 O   0  0  0  0  0  0  0  0  0  0  0  0
   11.7357  -20.2637   27.5720 C   0  0  0  0  0  0  0  0  0  0  0  0
   12.3976  -19.2915   22.5579 O   0  0  0  0  0  0  0  0  0  0  0  0
   11.6598  -19.8596   21.5287 O   0  0  0  0  0  0  0  0  0  0  0  0
   13.9010  -20.8147   27.3233 O   0  0  0  0  0  0  0  0  0  0  0  0
  1  2  1  0
  2  3  1  0
  3  4  1  0
  5  6  1  6
  5  4  1  0
  7  5  1  0
  8  7  2  0
 10  9  1  0
 10 12  1  0
 11 10  2  0
 12 13  1  0
 13 14  1  0
 14 15  1  0
 16 15  1  6
 16 17  1  0
 17  7  1  0
 18 16  1  0
 18 19  2  0
 20 18  1  0
 21 20  1  0
 21 22  1  6
 22 23  1  0
 23 24  1  0
 24 28  1  0
 24 25  2  0
 26 21  1  0
 27 26  1  0
 29 26  2  0
M  END
$$$$
