MRE.pdb
     RDKit          3D

 29 28  0  0  1  0  0  0  0  0999 V2000
    6.7316  -11.1362   26.6310 C   0  0  0  0  0  0  0  0  0  0  0  0
    7.3791  -12.2291   27.9077 S   0  0  0  0  0  0  0  0  0  0  0  0
    6.7851  -13.9183   27.5366 C   0  0  0  0  0  0  0  0  0  0  0  0
    7.4018  -14.3131   26.2164 C   0  0  0  0  0  0  0  0  0  0  0  0
    6.8038  -15.5961   25.7274 C   0  0  2  0  0  0  0  0  0  0  0  0
    6.9565  -16.6637   26.6155 N   0  0  0  0  0  0  0  0  0  0  0  0
    7.2810  -15.9449   24.3589 C   0  0  0  0  0  0  0  0  0  0  0  0
    7.9563  -17.0174   24.1624 O   0  0  0  0  0  0  0  0  0  0  0  0
    8.4432  -13.0280   16.2814 N   0  0  0  0  0  0  0  0  0  0  0  0
    8.8369  -14.3623   16.5511 C   0  0  0  0  0  0  0  0  0  0  0  0
    9.8542  -14.8484   15.9416 N   0  0  0  0  0  0  0  0  0  0  0  0
    8.0810  -15.0971   17.4918 N   0  0  0  0  0  0  0  0  0  0  0  0
    7.3695  -14.4192   18.5416 C   0  0  0  0  0  0  0  0  0  0  0  0
    8.2638  -14.2525   19.7338 C   0  0  0  0  0  0  0  0  0  0  0  0
    7.4305  -14.2115   20.9778 C   0  0  0  0  0  0  0  0  0  0  0  0
    7.7760  -15.2946   21.9529 C   0  0  2  0  0  0  0  0  0  0  0  0
    7.0548  -15.1719   23.1977 N   0  0  0  0  0  0  0  0  0  0  0  0
    9.2372  -15.1428   22.2450 C   0  0  0  0  0  0  0  0  0  0  0  0
    9.6486  -14.0957   22.7957 O   0  0  0  0  0  0  0  0  0  0  0  0
   10.2241  -15.7798   16.2161 N   0  0  0  0  0  0  0  0  0  0  0  0
   10.1617  -16.1728   21.9051 C   0  0  2  0  0  0  0  0  0  0  0  0
   11.5575  -15.9557   22.1107 C   0  0  0  0  0  0  0  0  0  0  0  0
   12.0512  -16.4618   23.4131 C   0  0  0  0  0  0  0  0  0  0  0  0
   12.5442  -17.8434   23.5156 C   0  0  0  0  0  0  0  0  0  0  0  0
   12.1731  -18.6193   24.6927 O   0  0  0  0  0  0  0  0  0  0  0  0
   11.7325  -19.7831   24.7547 C   0  0  0  0  0  0  0  0  0  0  0  0
   12.3931  -16.3657   20.9596 O   0  0  0  0  0  0  0  0  0  0  0  0
   13.7529  -16.0916   21.0054 O   0  0  0  0  0  0  0  0  0  0  0  0
   12.3327  -17.9689   25.9387 O   0  0  0  0  0  0  0  0  0  0  0  0
  1  2  1  0
  2  3  1  0
  3  4  1  0
  5  6  1  1
  5  4  1  0
  7  5  1  0
  8  7  2  0
 10  9  1  0
 10 12  1  0
 11 10  2  0
 12 13  1  0
 13 14  1  0
 14 15  1  0
 16 15  1  6
 16 17  1  0
 17  7  1  0
 18 16  1  0
 18 19  2  0
 20 18  1  0
 21 20  1  0
 21 22  1  6
 22 23  1  0
 23 24  1  0
 24 28  1  0
 24 25  2  0
 26 21  1  0
 27 26  1  0
 29 26  2  0
M  END
$$$$
