MRE.pdb
     RDKit          3D

 29 28  0  0  1  0  0  0  0  0999 V2000
    7.2728  -11.6623   26.8861 C   0  0  0  0  0  0  0  0  0  0  0  0
    7.5499  -12.4913   28.4608 S   0  0  0  0  0  0  0  0  0  0  0  0
    7.0444  -14.2368   28.2580 C   0  0  0  0  0  0  0  0  0  0  0  0
    7.5133  -14.6665   26.8888 C   0  0  0  0  0  0  0  0  0  0  0  0
    7.0618  -16.0651   26.6010 C   0  0  2  0  0  0  0  0  0  0  0  0
    7.4374  -16.9909   27.5775 N   0  0  0  0  0  0  0  0  0  0  0  0
    7.4655  -16.5088   25.2363 C   0  0  0  0  0  0  0  0  0  0  0  0
    8.0654  -17.6303   25.0710 O   0  0  0  0  0  0  0  0  0  0  0  0
    7.6888  -12.2703   17.4038 N   0  0  0  0  0  0  0  0  0  0  0  0
    8.1349  -13.5760   17.0809 C   0  0  0  0  0  0  0  0  0  0  0  0
    8.3917  -13.8636   15.8586 N   0  0  0  0  0  0  0  0  0  0  0  0
    8.2789  -14.5050   18.1356 N   0  0  0  0  0  0  0  0  0  0  0  0
    7.7241  -14.2245   19.4323 C   0  0  0  0  0  0  0  0  0  0  0  0
    8.1416  -15.2888   20.4029 C   0  0  0  0  0  0  0  0  0  0  0  0
    7.4700  -15.0504   21.7204 C   0  0  0  0  0  0  0  0  0  0  0  0
    7.9379  -15.9819   22.7959 C   0  0  2  0  0  0  0  0  0  0  0  0
    7.2446  -15.7797   24.0461 N   0  0  0  0  0  0  0  0  0  0  0  0
    9.3878  -15.6743   23.0129 C   0  0  0  0  0  0  0  0  0  0  0  0
    9.7102  -14.6215   23.6100 O   0  0  0  0  0  0  0  0  0  0  0  0
    8.7025  -14.8230   15.6083 N   0  0  0  0  0  0  0  0  0  0  0  0
   10.4011  -16.5630   22.5498 C   0  0  2  0  0  0  0  0  0  0  0  0
   11.7727  -16.2376   22.7739 C   0  0  0  0  0  0  0  0  0  0  0  0
   12.4703  -17.1911   23.6686 C   0  0  0  0  0  0  0  0  0  0  0  0
   13.9021  -17.0083   23.9496 C   0  0  0  0  0  0  0  0  0  0  0  0
   14.5768  -18.0154   24.7595 O   0  0  0  0  0  0  0  0  0  0  0  0
   14.0821  -18.9614   25.4021 C   0  0  0  0  0  0  0  0  0  0  0  0
   12.5176  -15.9374   21.5303 O   0  0  0  0  0  0  0  0  0  0  0  0
   11.9265  -16.2614   20.3171 O   0  0  0  0  0  0  0  0  0  0  0  0
   15.9858  -17.9113   24.8301 O   0  0  0  0  0  0  0  0  0  0  0  0
  1  2  1  0
  2  3  1  0
  3  4  1  0
  5  6  1  1
  5  4  1  0
  7  5  1  0
  8  7  2  0
 10  9  1  0
 10 12  1  0
 11 10  2  0
 12 13  1  0
 13 14  1  0
 14 15  1  0
 16 15  1  6
 16 17  1  0
 17  7  1  0
 18 16  1  0
 18 19  2  0
 20 18  1  0
 21 20  1  0
 21 22  1  6
 22 23  1  0
 23 24  1  0
 24 28  1  0
 24 25  2  0
 26 21  1  0
 27 26  1  0
 29 26  2  0
M  END
$$$$
