MRE.pdb
     RDKit          3D

 29 28  0  0  1  0  0  0  0  0999 V2000
    7.1453  -12.3118   25.7274 C   0  0  0  0  0  0  0  0  0  0  0  0
    7.2745  -12.5702   27.5051 S   0  0  0  0  0  0  0  0  0  0  0  0
    6.7622  -14.2918   27.8476 C   0  0  0  0  0  0  0  0  0  0  0  0
    6.1897  -14.8365   26.5612 C   0  0  0  0  0  0  0  0  0  0  0  0
    6.8705  -16.1184   26.1922 C   0  0  2  0  0  0  0  0  0  0  0  0
    8.0606  -16.3453   26.8879 N   0  0  0  0  0  0  0  0  0  0  0  0
    7.0612  -16.2414   24.7189 C   0  0  0  0  0  0  0  0  0  0  0  0
    6.0470  -16.3525   23.9417 O   0  0  0  0  0  0  0  0  0  0  0  0
    9.0422  -13.5530   18.0008 N   0  0  0  0  0  0  0  0  0  0  0  0
    8.6267  -12.5467   18.9079 C   0  0  0  0  0  0  0  0  0  0  0  0
    9.2180  -11.4096   18.8926 N   0  0  0  0  0  0  0  0  0  0  0  0
    7.5670  -12.8501   19.7917 N   0  0  0  0  0  0  0  0  0  0  0  0
    7.0096  -14.1751   19.8308 C   0  0  0  0  0  0  0  0  0  0  0  0
    7.9895  -15.1184   20.4625 C   0  0  0  0  0  0  0  0  0  0  0  0
    7.7698  -15.1440   21.9439 C   0  0  0  0  0  0  0  0  0  0  0  0
    8.5056  -16.2545   22.6284 C   0  0  2  0  0  0  0  0  0  0  0  0
    8.3108  -16.2509   24.0590 N   0  0  0  0  0  0  0  0  0  0  0  0
    9.9600  -16.0215   22.3563 C   0  0  0  0  0  0  0  0  0  0  0  0
   10.4573  -14.8965   22.5930 O   0  0  0  0  0  0  0  0  0  0  0  0
    8.9234  -10.6656   19.5554 N   0  0  0  0  0  0  0  0  0  0  0  0
   10.7820  -17.0618   21.8334 C   0  0  1  0  0  0  0  0  0  0  0  0
   12.1241  -17.1946   22.3009 C   0  0  0  0  0  0  0  0  0  0  0  0
   12.2320  -17.2892   23.7759 C   0  0  0  0  0  0  0  0  0  0  0  0
   11.6516  -18.4464   24.4736 C   0  0  0  0  0  0  0  0  0  0  0  0
   11.8392  -18.5432   25.9161 O   0  0  0  0  0  0  0  0  0  0  0  0
   11.3149  -19.3370   26.7208 C   0  0  0  0  0  0  0  0  0  0  0  0
   12.8984  -18.2312   21.5817 O   0  0  0  0  0  0  0  0  0  0  0  0
   14.2588  -18.3301   21.8384 O   0  0  0  0  0  0  0  0  0  0  0  0
   12.7381  -17.6125   26.4876 O   0  0  0  0  0  0  0  0  0  0  0  0
  1  2  1  0
  2  3  1  0
  3  4  1  0
  5  6  1  1
  5  4  1  0
  7  5  1  0
  8  7  2  0
 10  9  1  0
 10 12  1  0
 11 10  2  0
 12 13  1  0
 13 14  1  0
 14 15  1  0
 16 15  1  6
 16 17  1  0
 17  7  1  0
 18 16  1  0
 18 19  2  0
 20 18  1  0
 21 20  1  0
 21 22  1  1
 22 23  1  0
 23 24  1  0
 24 28  1  0
 24 25  2  0
 26 21  1  0
 27 26  1  0
 29 26  2  0
M  END
$$$$
