MRE.pdb
     RDKit          3D

 29 28  0  0  1  0  0  0  0  0999 V2000
    9.7397  -13.5425   30.4898 C   0  0  0  0  0  0  0  0  0  0  0  0
   10.3646  -14.2968   28.9784 S   0  0  0  0  0  0  0  0  0  0  0  0
    9.0189  -15.3178   28.2781 C   0  0  0  0  0  0  0  0  0  0  0  0
    9.5567  -15.9286   27.0065 C   0  0  0  0  0  0  0  0  0  0  0  0
    8.5204  -16.8049   26.3733 C   0  0  2  0  0  0  0  0  0  0  0  0
    8.1791  -17.9203   27.1421 N   0  0  0  0  0  0  0  0  0  0  0  0
    8.8926  -17.1877   24.9815 C   0  0  0  0  0  0  0  0  0  0  0  0
    9.4424  -18.3225   24.7470 O   0  0  0  0  0  0  0  0  0  0  0  0
    7.0584  -11.9750   18.5572 N   0  0  0  0  0  0  0  0  0  0  0  0
    7.3507  -13.3400   18.3133 C   0  0  0  0  0  0  0  0  0  0  0  0
    6.7872  -13.9325   17.3264 N   0  0  0  0  0  0  0  0  0  0  0  0
    8.2618  -13.9857   19.1789 N   0  0  0  0  0  0  0  0  0  0  0  0
    8.4486  -15.4097   19.1069 C   0  0  0  0  0  0  0  0  0  0  0  0
    9.4207  -15.8470   20.1617 C   0  0  0  0  0  0  0  0  0  0  0  0
    8.8212  -15.6180   21.5152 C   0  0  0  0  0  0  0  0  0  0  0  0
    9.2868  -16.6066   22.5394 C   0  0  2  0  0  0  0  0  0  0  0  0
    8.6926  -16.3841   23.8364 N   0  0  0  0  0  0  0  0  0  0  0  0
   10.7665  -16.4112   22.6658 C   0  0  0  0  0  0  0  0  0  0  0  0
   11.2045  -15.4583   23.3506 O   0  0  0  0  0  0  0  0  0  0  0  0
    7.0162  -14.9251   17.1211 N   0  0  0  0  0  0  0  0  0  0  0  0
   11.6786  -17.2944   22.0185 C   0  0  2  0  0  0  0  0  0  0  0  0
   13.0824  -17.0897   22.1772 C   0  0  0  0  0  0  0  0  0  0  0  0
   13.8152  -18.3061   22.6009 C   0  0  0  0  0  0  0  0  0  0  0  0
   13.3028  -19.1090   23.7213 C   0  0  0  0  0  0  0  0  0  0  0  0
   14.0405  -20.3079   24.1006 O   0  0  0  0  0  0  0  0  0  0  0  0
   15.1679  -20.6832   23.7256 C   0  0  0  0  0  0  0  0  0  0  0  0
   13.7082  -16.3881   21.0337 O   0  0  0  0  0  0  0  0  0  0  0  0
   15.0405  -16.0149   21.1426 O   0  0  0  0  0  0  0  0  0  0  0  0
   13.3948  -21.1675   25.0199 O   0  0  0  0  0  0  0  0  0  0  0  0
  1  2  1  0
  2  3  1  0
  3  4  1  0
  5  6  1  1
  5  4  1  0
  7  5  1  0
  8  7  2  0
 10  9  1  0
 10 12  1  0
 11 10  2  0
 12 13  1  0
 13 14  1  0
 14 15  1  0
 16 15  1  6
 16 17  1  0
 17  7  1  0
 18 16  1  0
 18 19  2  0
 20 18  1  0
 21 20  1  0
 21 22  1  1
 22 23  1  0
 23 24  1  0
 24 28  1  0
 24 25  2  0
 26 21  1  0
 27 26  1  0
 29 26  2  0
M  END
$$$$
