MRE.pdb
     RDKit          3D

 29 28  0  0  1  0  0  0  0  0999 V2000
    5.6630  -11.7642   28.6440 C   0  0  0  0  0  0  0  0  0  0  0  0
    7.2875  -11.8346   27.8698 S   0  0  0  0  0  0  0  0  0  0  0  0
    7.0292  -12.0261   26.0697 C   0  0  0  0  0  0  0  0  0  0  0  0
    7.2740  -13.4811   25.7502 C   0  0  0  0  0  0  0  0  0  0  0  0
    6.9881  -13.7501   24.3049 C   0  0  2  0  0  0  0  0  0  0  0  0
    5.6707  -13.4752   23.9302 N   0  0  0  0  0  0  0  0  0  0  0  0
    7.3995  -15.1259   23.9045 C   0  0  0  0  0  0  0  0  0  0  0  0
    6.6105  -16.1189   24.0949 O   0  0  0  0  0  0  0  0  0  0  0  0
    8.6580  -13.7341   16.8024 N   0  0  0  0  0  0  0  0  0  0  0  0
    8.7500  -13.7024   18.2161 C   0  0  0  0  0  0  0  0  0  0  0  0
    9.3399  -12.7148   18.7813 N   0  0  0  0  0  0  0  0  0  0  0  0
    8.1774  -14.7721   18.9399 N   0  0  0  0  0  0  0  0  0  0  0  0
    8.3059  -14.8330   20.3709 C   0  0  0  0  0  0  0  0  0  0  0  0
    9.5418  -15.5997   20.7364 C   0  0  0  0  0  0  0  0  0  0  0  0
    9.1509  -16.8907   21.3876 C   0  0  0  0  0  0  0  0  0  0  0  0
    9.0271  -16.7844   22.8764 C   0  0  2  0  0  0  0  0  0  0  0  0
    8.6354  -15.4635   23.3082 N   0  0  0  0  0  0  0  0  0  0  0  0
   10.3892  -17.0701   23.4300 C   0  0  0  0  0  0  0  0  0  0  0  0
   11.3569  -16.3556   23.0810 O   0  0  0  0  0  0  0  0  0  0  0  0
    9.4891  -12.7224   19.8096 N   0  0  0  0  0  0  0  0  0  0  0  0
   10.5960  -18.1416   24.3467 C   0  0  1  0  0  0  0  0  0  0  0  0
   11.6259  -18.0329   25.3290 C   0  0  0  0  0  0  0  0  0  0  0  0
   11.5217  -16.8139   26.1654 C   0  0  0  0  0  0  0  0  0  0  0  0
   10.5103  -16.7487   27.2309 C   0  0  0  0  0  0  0  0  0  0  0  0
   10.5065  -15.5807   28.1033 O   0  0  0  0  0  0  0  0  0  0  0  0
   10.5557  -14.3745   27.7946 C   0  0  0  0  0  0  0  0  0  0  0  0
   11.8273  -19.2736   26.1111 O   0  0  0  0  0  0  0  0  0  0  0  0
   10.8993  -20.2959   25.9700 O   0  0  0  0  0  0  0  0  0  0  0  0
   10.4370  -15.8446   29.4913 O   0  0  0  0  0  0  0  0  0  0  0  0
  1  2  1  0
  2  3  1  0
  3  4  1  0
  5  6  1  1
  5  4  1  0
  7  5  1  0
  8  7  2  0
 10  9  1  0
 10 12  1  0
 11 10  2  0
 12 13  1  0
 13 14  1  0
 14 15  1  0
 16 15  1  6
 16 17  1  0
 17  7  1  0
 18 16  1  0
 18 19  2  0
 20 18  1  0
 21 20  1  0
 21 22  1  6
 22 23  1  0
 23 24  1  0
 24 28  1  0
 24 25  2  0
 26 21  1  0
 27 26  1  0
 29 26  2  0
M  END
$$$$
