MRE.pdb
     RDKit          3D

 29 28  0  0  1  0  0  0  0  0999 V2000
    5.5817  -11.0332   26.4123 C   0  0  0  0  0  0  0  0  0  0  0  0
    6.3585  -12.0725   27.6613 S   0  0  0  0  0  0  0  0  0  0  0  0
    6.0123  -13.8128   27.2192 C   0  0  0  0  0  0  0  0  0  0  0  0
    6.8750  -14.1347   26.0229 C   0  0  0  0  0  0  0  0  0  0  0  0
    6.5615  -15.5070   25.5114 C   0  0  2  0  0  0  0  0  0  0  0  0
    6.6940  -16.5112   26.4735 N   0  0  0  0  0  0  0  0  0  0  0  0
    7.3270  -15.8258   24.2726 C   0  0  0  0  0  0  0  0  0  0  0  0
    7.8476  -16.9871   24.1140 O   0  0  0  0  0  0  0  0  0  0  0  0
    9.9835  -13.9160   16.2666 N   0  0  0  0  0  0  0  0  0  0  0  0
    8.5872  -13.6785   16.3130 C   0  0  0  0  0  0  0  0  0  0  0  0
    7.9198  -13.6636   15.2190 N   0  0  0  0  0  0  0  0  0  0  0  0
    7.9939  -13.4707   17.5783 N   0  0  0  0  0  0  0  0  0  0  0  0
    7.7684  -14.5790   18.4664 C   0  0  0  0  0  0  0  0  0  0  0  0
    8.7115  -14.4962   19.6294 C   0  0  0  0  0  0  0  0  0  0  0  0
    7.9324  -14.2448   20.8837 C   0  0  0  0  0  0  0  0  0  0  0  0
    8.1979  -15.2583   21.9540 C   0  0  2  0  0  0  0  0  0  0  0  0
    7.5503  -14.9307   23.2021 N   0  0  0  0  0  0  0  0  0  0  0  0
    9.6784  -15.2475   22.1811 C   0  0  0  0  0  0  0  0  0  0  0  0
   10.2079  -14.2579   22.7370 O   0  0  0  0  0  0  0  0  0  0  0  0
    6.8827  -13.6046   15.2477 N   0  0  0  0  0  0  0  0  0  0  0  0
   10.4887  -16.3469   21.7738 C   0  0  2  0  0  0  0  0  0  0  0  0
   11.9015  -16.2844   21.9682 C   0  0  0  0  0  0  0  0  0  0  0  0
   12.4976  -17.5689   22.4052 C   0  0  0  0  0  0  0  0  0  0  0  0
   11.9337  -18.2733   23.5663 C   0  0  0  0  0  0  0  0  0  0  0  0
   12.5074  -19.5625   23.9324 O   0  0  0  0  0  0  0  0  0  0  0  0
   12.1618  -20.7032   23.5691 C   0  0  0  0  0  0  0  0  0  0  0  0
   12.6232  -15.6475   20.8435 O   0  0  0  0  0  0  0  0  0  0  0  0
   13.9802  -15.3973   20.9925 O   0  0  0  0  0  0  0  0  0  0  0  0
   13.6073  -19.5212   24.8209 O   0  0  0  0  0  0  0  0  0  0  0  0
  1  2  1  0
  2  3  1  0
  3  4  1  0
  5  6  1  1
  5  4  1  0
  7  5  1  0
  8  7  2  0
 10  9  1  0
 10 12  1  0
 11 10  2  0
 12 13  1  0
 13 14  1  0
 14 15  1  0
 16 15  1  6
 16 17  1  0
 17  7  1  0
 18 16  1  0
 18 19  2  0
 20 18  1  0
 21 20  1  0
 21 22  1  1
 22 23  1  0
 23 24  1  0
 24 28  1  0
 24 25  2  0
 26 21  1  0
 27 26  1  0
 29 26  2  0
M  END
$$$$
