CKR.pdb
     RDKit          3D

 27 26  0  0  1  0  0  0  0  0999 V2000
   28.5947  -21.7682  -16.0673 N   0  0  0  0  0  0  0  0  0  0  0  0
   28.0877  -20.6486  -15.2889 C   0  0  1  0  0  0  0  0  0  0  0  0
   27.3948  -19.7035  -16.2462 C   0  0  0  0  0  0  0  0  0  0  0  0
   28.5714  -18.8809  -17.3472 S   0  0  0  0  0  0  0  0  0  0  0  0
   27.0433  -21.1147  -14.3204 C   0  0  0  0  0  0  0  0  0  0  0  0
   26.2248  -22.0123  -14.6455 O   0  0  0  0  0  0  0  0  0  0  0  0
   26.9236  -20.5784  -13.0084 N   0  0  0  0  0  0  0  0  0  0  0  0
   25.7165  -20.8046  -12.2038 C   0  0  1  0  0  0  0  0  0  0  0  0
   25.8916  -19.9951  -10.9524 C   0  0  0  0  0  0  0  0  0  0  0  0
   24.6724  -19.9034  -10.0966 C   0  0  0  0  0  0  0  0  0  0  0  0
   24.5255  -21.1043   -9.2032 C   0  0  0  0  0  0  0  0  0  0  0  0
   23.2637  -21.0877   -8.3830 C   0  0  0  0  0  0  0  0  0  0  0  0
   23.1253  -22.3353   -7.6184 N   0  0  0  0  0  0  0  0  0  0  0  0
   24.5037  -20.4223  -12.9946 C   0  0  0  0  0  0  0  0  0  0  0  0
   24.4614  -19.3331  -13.6064 O   0  0  0  0  0  0  0  0  0  0  0  0
   22.7822  -22.3187  -17.8923 N   0  0  0  0  0  0  0  0  0  0  0  0
   21.5409  -22.0125  -18.5060 C   0  0  0  0  0  0  0  0  0  0  0  0
   21.5503  -21.4450  -19.6583 N   0  0  0  0  0  0  0  0  0  0  0  0
   20.2983  -22.3082  -17.8971 N   0  0  0  0  0  0  0  0  0  0  0  0
   20.1839  -22.8642  -16.5690 C   0  0  0  0  0  0  0  0  0  0  0  0
   20.4729  -21.8143  -15.4866 C   0  0  0  0  0  0  0  0  0  0  0  0
   21.7624  -22.0771  -14.7772 C   0  0  0  0  0  0  0  0  0  0  0  0
   22.1521  -21.0723  -13.7232 C   0  0  2  0  0  0  0  0  0  0  0  0
   23.3853  -21.2823  -13.0653 N   0  0  0  0  0  0  0  0  0  0  0  0
   21.0002  -20.7611  -12.8863 C   0  0  0  0  0  0  0  0  0  0  0  0
   21.0450  -20.8547  -11.4908 O   0  0  0  0  0  0  0  0  0  0  0  0
   19.9107  -20.3927  -13.3931 O   0  0  0  0  0  0  0  0  0  0  0  0
  2  1  1  6
  3  4  1  0
  3  2  1  0
  5  2  1  0
  5  6  2  0
  7  5  1  0
  8  7  1  0
  8  9  1  1
 10  9  1  0
 11 12  1  0
 11 10  1  0
 13 12  1  0
 14  8  1  0
 15 14  2  0
 17 19  1  0
 17 16  1  0
 18 17  2  0
 20 19  1  0
 21 20  1  0
 21 22  1  0
 23 22  1  1
 23 24  1  0
 24 14  1  0
 25 26  1  0
 25 23  1  0
 27 25  2  0
M  END
$$$$
