CKR.pdb
     RDKit          3D

 27 26  0  0  1  0  0  0  0  0999 V2000
   42.8599  -10.1456   -5.2755 N   0  0  0  0  0  0  0  0  0  0  0  0
   42.1196   -9.5524   -6.3785 C   0  0  1  0  0  0  0  0  0  0  0  0
   40.6730   -9.4396   -5.9491 C   0  0  0  0  0  0  0  0  0  0  0  0
   39.8966  -11.0641   -5.7717 S   0  0  0  0  0  0  0  0  0  0  0  0
   42.5967   -8.1556   -6.6380 C   0  0  0  0  0  0  0  0  0  0  0  0
   43.0084   -7.4347   -5.6935 O   0  0  0  0  0  0  0  0  0  0  0  0
   42.6096   -7.5814   -7.9393 N   0  0  0  0  0  0  0  0  0  0  0  0
   43.1921   -6.2549   -8.1772 C   0  0  1  0  0  0  0  0  0  0  0  0
   43.5659   -6.2180   -9.6301 C   0  0  0  0  0  0  0  0  0  0  0  0
   44.2322   -4.9565  -10.0680 C   0  0  0  0  0  0  0  0  0  0  0  0
   44.6226   -5.0056  -11.5195 C   0  0  0  0  0  0  0  0  0  0  0  0
   45.4037   -3.8002  -11.9691 C   0  0  0  0  0  0  0  0  0  0  0  0
   45.7827   -3.9254  -13.3836 N   0  0  0  0  0  0  0  0  0  0  0  0
   42.2085   -5.1945   -7.7891 C   0  0  0  0  0  0  0  0  0  0  0  0
   40.9823   -5.3757   -7.9502 O   0  0  0  0  0  0  0  0  0  0  0  0
   41.4388    0.0015   -0.5977 N   0  0  0  0  0  0  0  0  0  0  0  0
   40.6391    0.5829   -1.6144 C   0  0  0  0  0  0  0  0  0  0  0  0
   39.9108    1.5979   -1.3160 N   0  0  0  0  0  0  0  0  0  0  0  0
   40.6149    0.0869   -2.9395 N   0  0  0  0  0  0  0  0  0  0  0  0
   41.3890   -1.0545   -3.3681 C   0  0  0  0  0  0  0  0  0  0  0  0
   41.1961   -1.3426   -4.8639 C   0  0  0  0  0  0  0  0  0  0  0  0
   41.9927   -2.5238   -5.3171 C   0  0  0  0  0  0  0  0  0  0  0  0
   41.8668   -2.8838   -6.7755 C   0  0  2  0  0  0  0  0  0  0  0  0
   42.6450   -3.9708   -7.2347 N   0  0  0  0  0  0  0  0  0  0  0  0
   41.8775   -1.6732   -7.5869 C   0  0  0  0  0  0  0  0  0  0  0  0
   40.7019   -1.0922   -8.0755 O   0  0  0  0  0  0  0  0  0  0  0  0
   42.9561   -1.0991   -7.8813 O   0  0  0  0  0  0  0  0  0  0  0  0
  2  1  1  1
  3  4  1  0
  3  2  1  0
  5  2  1  0
  5  6  2  0
  7  5  1  0
  8  7  1  0
  8  9  1  6
 10  9  1  0
 11 12  1  0
 11 10  1  0
 13 12  1  0
 14  8  1  0
 15 14  2  0
 17 19  1  0
 17 16  1  0
 18 17  2  0
 20 19  1  0
 21 20  1  0
 21 22  1  0
 23 22  1  1
 23 24  1  0
 24 14  1  0
 25 26  1  0
 25 23  1  0
 27 25  2  0
M  END
$$$$
