CKR.pdb
     RDKit          3D

 27 26  0  0  1  0  0  0  0  0999 V2000
   27.4625  -18.9353   -7.5213 N   0  0  0  0  0  0  0  0  0  0  0  0
   27.0327  -20.2532   -7.9627 C   0  0  1  0  0  0  0  0  0  0  0  0
   25.9966  -20.7493   -6.9778 C   0  0  0  0  0  0  0  0  0  0  0  0
   26.7394  -21.1952   -5.3894 S   0  0  0  0  0  0  0  0  0  0  0  0
   26.3469  -20.1621   -9.2921 C   0  0  0  0  0  0  0  0  0  0  0  0
   25.4312  -19.3217   -9.4830 O   0  0  0  0  0  0  0  0  0  0  0  0
   26.6872  -21.0037  -10.3873 N   0  0  0  0  0  0  0  0  0  0  0  0
   26.1077  -20.7873  -11.7188 C   0  0  1  0  0  0  0  0  0  0  0  0
   27.2456  -20.8941  -12.6913 C   0  0  0  0  0  0  0  0  0  0  0  0
   26.8697  -20.6546  -14.1155 C   0  0  0  0  0  0  0  0  0  0  0  0
   28.0418  -20.8344  -15.0405 C   0  0  0  0  0  0  0  0  0  0  0  0
   27.7188  -20.5338  -16.4794 C   0  0  0  0  0  0  0  0  0  0  0  0
   28.9204  -20.6542  -17.3172 N   0  0  0  0  0  0  0  0  0  0  0  0
   25.0196  -21.7864  -11.9644 C   0  0  0  0  0  0  0  0  0  0  0  0
   24.8077  -22.7086  -11.1477 O   0  0  0  0  0  0  0  0  0  0  0  0
   18.7149  -23.0388  -10.0387 N   0  0  0  0  0  0  0  0  0  0  0  0
   17.8848  -22.0240  -10.5792 C   0  0  0  0  0  0  0  0  0  0  0  0
   16.6197  -22.2364  -10.6434 N   0  0  0  0  0  0  0  0  0  0  0  0
   18.3981  -20.7916  -11.0484 N   0  0  0  0  0  0  0  0  0  0  0  0
   19.8098  -20.4888  -11.0858 C   0  0  0  0  0  0  0  0  0  0  0  0
   20.5509  -21.3602  -12.1099 C   0  0  0  0  0  0  0  0  0  0  0  0
   22.0120  -21.0480  -12.1625 C   0  0  0  0  0  0  0  0  0  0  0  0
   22.8041  -21.7748  -13.2193 C   0  0  2  0  0  0  0  0  0  0  0  0
   24.2126  -21.7076  -13.1210 N   0  0  0  0  0  0  0  0  0  0  0  0
   22.2200  -21.5294  -14.5318 C   0  0  0  0  0  0  0  0  0  0  0  0
   21.4056  -22.4692  -15.1734 O   0  0  0  0  0  0  0  0  0  0  0  0
   22.4288  -20.4515  -15.1434 O   0  0  0  0  0  0  0  0  0  0  0  0
  2  1  1  1
  3  4  1  0
  3  2  1  0
  5  2  1  0
  5  6  2  0
  7  5  1  0
  8  7  1  0
  8  9  1  6
 10  9  1  0
 11 12  1  0
 11 10  1  0
 13 12  1  0
 14  8  1  0
 15 14  2  0
 17 19  1  0
 17 16  1  0
 18 17  2  0
 20 19  1  0
 21 20  1  0
 21 22  1  0
 23 22  1  1
 23 24  1  0
 24 14  1  0
 25 26  1  0
 25 23  1  0
 27 25  2  0
M  END
$$$$
