CKR.pdb
     RDKit          3D

 27 26  0  0  1  0  0  0  0  0999 V2000
   26.6120  -20.1852   -8.1207 N   0  0  0  0  0  0  0  0  0  0  0  0
   25.7458  -21.0541   -8.9025 C   0  0  1  0  0  0  0  0  0  0  0  0
   24.3392  -20.8982   -8.3670 C   0  0  0  0  0  0  0  0  0  0  0  0
   24.1142  -21.7808   -6.8037 S   0  0  0  0  0  0  0  0  0  0  0  0
   25.7088  -20.6070  -10.3325 C   0  0  0  0  0  0  0  0  0  0  0  0
   25.5986  -19.3875  -10.6185 O   0  0  0  0  0  0  0  0  0  0  0  0
   25.7946  -21.5186  -11.4210 N   0  0  0  0  0  0  0  0  0  0  0  0
   25.7467  -21.0472  -12.8106 C   0  0  1  0  0  0  0  0  0  0  0  0
   26.4806  -22.0724  -13.6244 C   0  0  0  0  0  0  0  0  0  0  0  0
   26.4818  -21.8137  -15.0942 C   0  0  0  0  0  0  0  0  0  0  0  0
   27.2666  -22.8547  -15.8440 C   0  0  0  0  0  0  0  0  0  0  0  0
   27.3327  -22.6003  -17.3259 C   0  0  0  0  0  0  0  0  0  0  0  0
   28.1996  -23.5882  -17.9839 N   0  0  0  0  0  0  0  0  0  0  0  0
   24.3218  -20.8622  -13.2322 C   0  0  0  0  0  0  0  0  0  0  0  0
   23.4358  -21.6525  -12.8413 O   0  0  0  0  0  0  0  0  0  0  0  0
   20.4854  -14.0963  -18.1724 N   0  0  0  0  0  0  0  0  0  0  0  0
   19.4753  -14.9521  -17.6639 C   0  0  0  0  0  0  0  0  0  0  0  0
   18.2491  -14.6800  -17.9322 N   0  0  0  0  0  0  0  0  0  0  0  0
   19.7689  -16.0895  -16.8750 N   0  0  0  0  0  0  0  0  0  0  0  0
   21.1056  -16.4262  -16.4439 C   0  0  0  0  0  0  0  0  0  0  0  0
   21.1449  -17.7788  -15.7184 C   0  0  0  0  0  0  0  0  0  0  0  0
   22.5278  -18.1445  -15.2835 C   0  0  0  0  0  0  0  0  0  0  0  0
   22.6682  -19.4685  -14.5765 C   0  0  2  0  0  0  0  0  0  0  0  0
   23.9504  -19.7936  -14.0782 N   0  0  0  0  0  0  0  0  0  0  0  0
   21.9660  -20.5049  -15.3225 C   0  0  0  0  0  0  0  0  0  0  0  0
   20.6392  -20.8537  -15.0464 O   0  0  0  0  0  0  0  0  0  0  0  0
   22.5329  -21.1316  -16.2528 O   0  0  0  0  0  0  0  0  0  0  0  0
  2  1  1  1
  3  4  1  0
  3  2  1  0
  5  2  1  0
  5  6  2  0
  7  5  1  0
  8  7  1  0
  8  9  1  6
 10  9  1  0
 11 12  1  0
 11 10  1  0
 13 12  1  0
 14  8  1  0
 15 14  2  0
 17 19  1  0
 17 16  1  0
 18 17  2  0
 20 19  1  0
 21 20  1  0
 21 22  1  0
 23 22  1  6
 23 24  1  0
 24 14  1  0
 25 26  1  0
 25 23  1  0
 27 25  2  0
M  END
$$$$
