CKR.pdb
     RDKit          3D

 27 26  0  0  1  0  0  0  0  0999 V2000
   23.4645  -13.1617  -18.5754 N   0  0  0  0  0  0  0  0  0  0  0  0
   22.9746  -13.3458  -17.2180 C   0  0  1  0  0  0  0  0  0  0  0  0
   23.8318  -12.4974  -16.3042 C   0  0  0  0  0  0  0  0  0  0  0  0
   25.4764  -13.2141  -16.0695 S   0  0  0  0  0  0  0  0  0  0  0  0
   21.5745  -12.8263  -17.0918 C   0  0  0  0  0  0  0  0  0  0  0  0
   21.2483  -11.7327  -17.6200 O   0  0  0  0  0  0  0  0  0  0  0  0
   20.5600  -13.5271  -16.3827 N   0  0  0  0  0  0  0  0  0  0  0  0
   19.1749  -13.0405  -16.3622 C   0  0  1  0  0  0  0  0  0  0  0  0
   18.3339  -14.1954  -15.9028 C   0  0  0  0  0  0  0  0  0  0  0  0
   16.8731  -13.9031  -15.8142 C   0  0  0  0  0  0  0  0  0  0  0  0
   16.0759  -15.1353  -15.4853 C   0  0  0  0  0  0  0  0  0  0  0  0
   14.5884  -14.9279  -15.5834 C   0  0  0  0  0  0  0  0  0  0  0  0
   13.8712  -16.1850  -15.3269 N   0  0  0  0  0  0  0  0  0  0  0  0
   19.0744  -11.8405  -15.4721 C   0  0  0  0  0  0  0  0  0  0  0  0
   19.8317  -11.7161  -14.4854 O   0  0  0  0  0  0  0  0  0  0  0  0
   22.9767   -4.7183  -15.2668 N   0  0  0  0  0  0  0  0  0  0  0  0
   21.7510   -4.3496  -14.6561 C   0  0  0  0  0  0  0  0  0  0  0  0
   21.6259   -3.1531  -14.2062 N   0  0  0  0  0  0  0  0  0  0  0  0
   20.6662   -5.2487  -14.5252 N   0  0  0  0  0  0  0  0  0  0  0  0
   20.7312   -6.6290  -14.9455 C   0  0  0  0  0  0  0  0  0  0  0  0
   19.3665   -7.3230  -14.8298 C   0  0  0  0  0  0  0  0  0  0  0  0
   19.4089   -8.7340  -15.3223 C   0  0  0  0  0  0  0  0  0  0  0  0
   18.1087   -9.4942  -15.2580 C   0  0  2  0  0  0  0  0  0  0  0  0
   18.1243  -10.8272  -15.7282 N   0  0  0  0  0  0  0  0  0  0  0  0
   17.0156   -8.6447  -15.7136 C   0  0  0  0  0  0  0  0  0  0  0  0
   16.1140   -9.0550  -16.7020 O   0  0  0  0  0  0  0  0  0  0  0  0
   16.8402   -7.4981  -15.2297 O   0  0  0  0  0  0  0  0  0  0  0  0
  2  1  1  6
  3  4  1  0
  3  2  1  0
  5  2  1  0
  5  6  2  0
  7  5  1  0
  8  7  1  0
  8  9  1  1
 10  9  1  0
 11 12  1  0
 11 10  1  0
 13 12  1  0
 14  8  1  0
 15 14  2  0
 17 19  1  0
 17 16  1  0
 18 17  2  0
 20 19  1  0
 21 20  1  0
 21 22  1  0
 23 22  1  6
 23 24  1  0
 24 14  1  0
 25 26  1  0
 25 23  1  0
 27 25  2  0
M  END
$$$$
