CKR.pdb
     RDKit          3D

 27 26  0  0  1  0  0  0  0  0999 V2000
   26.4105  -15.0830  -17.6482 N   0  0  0  0  0  0  0  0  0  0  0  0
   26.2827  -15.4659  -16.2505 C   0  0  1  0  0  0  0  0  0  0  0  0
   25.0376  -14.8000  -15.7066 C   0  0  0  0  0  0  0  0  0  0  0  0
   25.3537  -13.0896  -15.2087 S   0  0  0  0  0  0  0  0  0  0  0  0
   26.0622  -16.9434  -16.1306 C   0  0  0  0  0  0  0  0  0  0  0  0
   25.2591  -17.5343  -16.8968 O   0  0  0  0  0  0  0  0  0  0  0  0
   26.7352  -17.7409  -15.1639 N   0  0  0  0  0  0  0  0  0  0  0  0
   26.5023  -19.1880  -15.0796 C   0  0  1  0  0  0  0  0  0  0  0  0
   27.8589  -19.8297  -15.0823 C   0  0  0  0  0  0  0  0  0  0  0  0
   28.5697  -19.7734  -16.3933 C   0  0  0  0  0  0  0  0  0  0  0  0
   28.9896  -21.1400  -16.8602 C   0  0  0  0  0  0  0  0  0  0  0  0
   29.7381  -21.1213  -18.1658 C   0  0  0  0  0  0  0  0  0  0  0  0
   30.0766  -22.4873  -18.5896 N   0  0  0  0  0  0  0  0  0  0  0  0
   25.6994  -19.4997  -13.8546 C   0  0  0  0  0  0  0  0  0  0  0  0
   26.0845  -19.1177  -12.7284 O   0  0  0  0  0  0  0  0  0  0  0  0
   18.8139  -22.6186  -10.3287 N   0  0  0  0  0  0  0  0  0  0  0  0
   18.4885  -22.0814  -11.6002 C   0  0  0  0  0  0  0  0  0  0  0  0
   17.4150  -21.3857  -11.7152 N   0  0  0  0  0  0  0  0  0  0  0  0
   19.3005  -22.2837  -12.7413 N   0  0  0  0  0  0  0  0  0  0  0  0
   20.5366  -23.0299  -12.7069 C   0  0  0  0  0  0  0  0  0  0  0  0
   21.7038  -22.1725  -12.1970 C   0  0  0  0  0  0  0  0  0  0  0  0
   22.5216  -21.6119  -13.3159 C   0  0  0  0  0  0  0  0  0  0  0  0
   23.7638  -20.8593  -12.9122 C   0  0  2  0  0  0  0  0  0  0  0  0
   24.4938  -20.2299  -13.9461 N   0  0  0  0  0  0  0  0  0  0  0  0
   24.5250  -21.6423  -11.9469 C   0  0  0  0  0  0  0  0  0  0  0  0
   24.3011  -21.5495  -10.5687 O   0  0  0  0  0  0  0  0  0  0  0  0
   25.4215  -22.4396  -12.3212 O   0  0  0  0  0  0  0  0  0  0  0  0
  2  1  1  6
  3  4  1  0
  3  2  1  0
  5  2  1  0
  5  6  2  0
  7  5  1  0
  8  7  1  0
  8  9  1  1
 10  9  1  0
 11 12  1  0
 11 10  1  0
 13 12  1  0
 14  8  1  0
 15 14  2  0
 17 19  1  0
 17 16  1  0
 18 17  2  0
 20 19  1  0
 21 20  1  0
 21 22  1  0
 23 22  1  6
 23 24  1  0
 24 14  1  0
 25 26  1  0
 25 23  1  0
 27 25  2  0
M  END
$$$$
