CKR.pdb
     RDKit          3D

 27 26  0  0  1  0  0  0  0  0999 V2000
   28.2178  -22.9519  -16.6383 N   0  0  0  0  0  0  0  0  0  0  0  0
   28.1224  -21.6448  -16.0067 C   0  0  1  0  0  0  0  0  0  0  0  0
   27.5185  -20.6929  -17.0161 C   0  0  0  0  0  0  0  0  0  0  0  0
   28.6254  -20.4111  -18.4192 S   0  0  0  0  0  0  0  0  0  0  0  0
   27.1752  -21.6920  -14.8463 C   0  0  0  0  0  0  0  0  0  0  0  0
   26.0892  -22.3200  -14.9326 O   0  0  0  0  0  0  0  0  0  0  0  0
   27.4472  -21.0427  -13.6103 N   0  0  0  0  0  0  0  0  0  0  0  0
   26.4320  -20.9701  -12.5522 C   0  0  1  0  0  0  0  0  0  0  0  0
   27.0893  -20.2856  -11.3897 C   0  0  0  0  0  0  0  0  0  0  0  0
   26.1670  -19.9457  -10.2668 C   0  0  0  0  0  0  0  0  0  0  0  0
   26.5913  -20.5964   -8.9790 C   0  0  0  0  0  0  0  0  0  0  0  0
   25.7154  -20.2342   -7.8099 C   0  0  0  0  0  0  0  0  0  0  0  0
   26.1406  -20.9530   -6.6005 N   0  0  0  0  0  0  0  0  0  0  0  0
   25.2228  -20.2483  -13.0612 C   0  0  0  0  0  0  0  0  0  0  0  0
   25.3447  -19.2334  -13.7807 O   0  0  0  0  0  0  0  0  0  0  0  0
   21.4817  -17.9581  -18.8776 N   0  0  0  0  0  0  0  0  0  0  0  0
   20.3517  -18.6877  -18.4285 C   0  0  0  0  0  0  0  0  0  0  0  0
   19.2089  -18.4346  -18.9574 N   0  0  0  0  0  0  0  0  0  0  0  0
   20.4378  -19.6799  -17.4233 N   0  0  0  0  0  0  0  0  0  0  0  0
   21.6329  -19.9134  -16.6465 C   0  0  0  0  0  0  0  0  0  0  0  0
   21.4335  -21.0393  -15.6218 C   0  0  0  0  0  0  0  0  0  0  0  0
   22.6622  -21.2814  -14.8052 C   0  0  0  0  0  0  0  0  0  0  0  0
   22.7310  -20.5552  -13.4859 C   0  0  2  0  0  0  0  0  0  0  0  0
   23.9229  -20.6979  -12.7396 N   0  0  0  0  0  0  0  0  0  0  0  0
   21.4752  -20.7190  -12.7647 C   0  0  0  0  0  0  0  0  0  0  0  0
   20.3904  -19.8546  -12.9499 O   0  0  0  0  0  0  0  0  0  0  0  0
   21.3181  -21.6540  -11.9397 O   0  0  0  0  0  0  0  0  0  0  0  0
  2  1  1  6
  3  4  1  0
  3  2  1  0
  5  2  1  0
  5  6  2  0
  7  5  1  0
  8  7  1  0
  8  9  1  1
 10  9  1  0
 11 12  1  0
 11 10  1  0
 13 12  1  0
 14  8  1  0
 15 14  2  0
 17 19  1  0
 17 16  1  0
 18 17  2  0
 20 19  1  0
 21 20  1  0
 21 22  1  0
 23 22  1  6
 23 24  1  0
 24 14  1  0
 25 26  1  0
 25 23  1  0
 27 25  2  0
M  END
$$$$
