CKR.pdb
     RDKit          3D

 27 26  0  0  1  0  0  0  0  0999 V2000
   25.5210  -21.9572  -12.4811 N   0  0  0  0  0  0  0  0  0  0  0  0
   24.7113  -21.8873  -13.6877 C   0  0  1  0  0  0  0  0  0  0  0  0
   24.6078  -23.2884  -14.2499 C   0  0  0  0  0  0  0  0  0  0  0  0
   26.2170  -23.9168  -14.7874 S   0  0  0  0  0  0  0  0  0  0  0  0
   23.3144  -21.4573  -13.3565 C   0  0  0  0  0  0  0  0  0  0  0  0
   22.8293  -21.6814  -12.2183 O   0  0  0  0  0  0  0  0  0  0  0  0
   22.4789  -20.7863  -14.2920 N   0  0  0  0  0  0  0  0  0  0  0  0
   21.1285  -20.3445  -13.9222 C   0  0  1  0  0  0  0  0  0  0  0  0
   20.9160  -19.0295  -14.6133 C   0  0  0  0  0  0  0  0  0  0  0  0
   19.5586  -18.4396  -14.4217 C   0  0  0  0  0  0  0  0  0  0  0  0
   19.3778  -17.1814  -15.2254 C   0  0  0  0  0  0  0  0  0  0  0  0
   18.0098  -16.5710  -15.0796 C   0  0  0  0  0  0  0  0  0  0  0  0
   17.8460  -15.4382  -16.0017 N   0  0  0  0  0  0  0  0  0  0  0  0
   20.1304  -21.3901  -14.3135 C   0  0  0  0  0  0  0  0  0  0  0  0
   20.4686  -22.3528  -15.0355 O   0  0  0  0  0  0  0  0  0  0  0  0
   19.3009  -24.7209   -7.3418 N   0  0  0  0  0  0  0  0  0  0  0  0
   17.9090  -24.7427   -7.6125 C   0  0  0  0  0  0  0  0  0  0  0  0
   17.0940  -24.8428   -6.6249 N   0  0  0  0  0  0  0  0  0  0  0  0
   17.3885  -24.6584   -8.9256 N   0  0  0  0  0  0  0  0  0  0  0  0
   18.2199  -24.4796  -10.0931 C   0  0  0  0  0  0  0  0  0  0  0  0
   17.7037  -23.3452  -10.9898 C   0  0  0  0  0  0  0  0  0  0  0  0
   18.5913  -23.1121  -12.1700 C   0  0  0  0  0  0  0  0  0  0  0  0
   17.9873  -22.3236  -13.3040 C   0  0  2  0  0  0  0  0  0  0  0  0
   18.7897  -21.3102  -13.8760 N   0  0  0  0  0  0  0  0  0  0  0  0
   16.6086  -21.9748  -12.9851 C   0  0  0  0  0  0  0  0  0  0  0  0
   15.5365  -22.8236  -13.2822 O   0  0  0  0  0  0  0  0  0  0  0  0
   16.3282  -20.8854  -12.4245 O   0  0  0  0  0  0  0  0  0  0  0  0
  2  1  1  1
  3  4  1  0
  3  2  1  0
  5  2  1  0
  5  6  2  0
  7  5  1  0
  8  7  1  0
  8  9  1  6
 10  9  1  0
 11 12  1  0
 11 10  1  0
 13 12  1  0
 14  8  1  0
 15 14  2  0
 17 19  1  0
 17 16  1  0
 18 17  2  0
 20 19  1  0
 21 20  1  0
 21 22  1  0
 23 22  1  1
 23 24  1  0
 24 14  1  0
 25 26  1  0
 25 23  1  0
 27 25  2  0
M  END
$$$$
