CKR.pdb
     RDKit          3D

 27 26  0  0  1  0  0  0  0  0999 V2000
   25.9148  -13.6471  -17.8827 N   0  0  0  0  0  0  0  0  0  0  0  0
   26.6802  -14.3053  -16.8351 C   0  0  1  0  0  0  0  0  0  0  0  0
   26.1426  -13.8233  -15.5053 C   0  0  0  0  0  0  0  0  0  0  0  0
   24.3723  -14.1562  -15.3362 S   0  0  0  0  0  0  0  0  0  0  0  0
   26.4545  -15.7864  -16.8738 C   0  0  0  0  0  0  0  0  0  0  0  0
   25.3520  -16.2554  -17.2555 O   0  0  0  0  0  0  0  0  0  0  0  0
   27.4540  -16.7224  -16.4889 N   0  0  0  0  0  0  0  0  0  0  0  0
   27.1674  -18.1616  -16.4420 C   0  0  1  0  0  0  0  0  0  0  0  0
   28.4991  -18.8500  -16.3725 C   0  0  0  0  0  0  0  0  0  0  0  0
   28.4279  -20.3117  -16.0799 C   0  0  0  0  0  0  0  0  0  0  0  0
   28.3834  -21.1320  -17.3396 C   0  0  0  0  0  0  0  0  0  0  0  0
   28.1617  -22.5995  -17.0892 C   0  0  0  0  0  0  0  0  0  0  0  0
   27.9625  -23.3178  -18.3559 N   0  0  0  0  0  0  0  0  0  0  0  0
   26.2809  -18.4621  -15.2731 C   0  0  0  0  0  0  0  0  0  0  0  0
   26.5052  -17.9469  -14.1566 O   0  0  0  0  0  0  0  0  0  0  0  0
   19.9615  -23.8207  -15.5431 N   0  0  0  0  0  0  0  0  0  0  0  0
   19.4826  -23.2520  -14.3355 C   0  0  0  0  0  0  0  0  0  0  0  0
   18.7464  -23.9726  -13.5683 N   0  0  0  0  0  0  0  0  0  0  0  0
   19.7854  -21.9253  -13.9474 N   0  0  0  0  0  0  0  0  0  0  0  0
   20.6002  -21.0376  -14.7437 C   0  0  0  0  0  0  0  0  0  0  0  0
   22.0568  -21.0151  -14.2587 C   0  0  0  0  0  0  0  0  0  0  0  0
   22.8160  -19.8512  -14.8103 C   0  0  0  0  0  0  0  0  0  0  0  0
   24.2679  -19.7635  -14.4143 C   0  0  2  0  0  0  0  0  0  0  0  0
   25.1760  -19.3318  -15.4078 N   0  0  0  0  0  0  0  0  0  0  0  0
   24.6424  -20.9417  -13.6426 C   0  0  0  0  0  0  0  0  0  0  0  0
   24.2552  -21.1140  -12.3090 O   0  0  0  0  0  0  0  0  0  0  0  0
   25.3357  -21.8577  -14.1525 O   0  0  0  0  0  0  0  0  0  0  0  0
  2  1  1  6
  3  4  1  0
  3  2  1  0
  5  2  1  0
  5  6  2  0
  7  5  1  0
  8  7  1  0
  8  9  1  1
 10  9  1  0
 11 12  1  0
 11 10  1  0
 13 12  1  0
 14  8  1  0
 15 14  2  0
 17 19  1  0
 17 16  1  0
 18 17  2  0
 20 19  1  0
 21 20  1  0
 21 22  1  0
 23 22  1  6
 23 24  1  0
 24 14  1  0
 25 26  1  0
 25 23  1  0
 27 25  2  0
M  END
$$$$
