CKR.pdb
     RDKit          3D

 27 26  0  0  1  0  0  0  0  0999 V2000
   23.7202  -16.7617  -18.8014 N   0  0  0  0  0  0  0  0  0  0  0  0
   23.3341  -15.3766  -19.0226 C   0  0  1  0  0  0  0  0  0  0  0  0
   23.2947  -14.6924  -17.6736 C   0  0  0  0  0  0  0  0  0  0  0  0
   22.0712  -15.4459  -16.5741 S   0  0  0  0  0  0  0  0  0  0  0  0
   24.3770  -14.6652  -19.8303 C   0  0  0  0  0  0  0  0  0  0  0  0
   25.5979  -14.9114  -19.6573 O   0  0  0  0  0  0  0  0  0  0  0  0
   24.0494  -13.6931  -20.8158 N   0  0  0  0  0  0  0  0  0  0  0  0
   25.0814  -13.1212  -21.6895 C   0  0  1  0  0  0  0  0  0  0  0  0
   24.3531  -12.5077  -22.8492 C   0  0  0  0  0  0  0  0  0  0  0  0
   25.2372  -11.8956  -23.8841 C   0  0  0  0  0  0  0  0  0  0  0  0
   25.3383  -12.7570  -25.1127 C   0  0  0  0  0  0  0  0  0  0  0  0
   24.1469  -12.6389  -26.0247 C   0  0  0  0  0  0  0  0  0  0  0  0
   24.2679  -13.5652  -27.1594 N   0  0  0  0  0  0  0  0  0  0  0  0
   25.9074  -12.1382  -20.9187 C   0  0  0  0  0  0  0  0  0  0  0  0
   25.3976  -11.4639  -19.9979 O   0  0  0  0  0  0  0  0  0  0  0  0
   34.4121  -12.3856  -18.0058 N   0  0  0  0  0  0  0  0  0  0  0  0
   33.8370  -11.1346  -17.6661 C   0  0  0  0  0  0  0  0  0  0  0  0
   34.4891  -10.3525  -16.8833 N   0  0  0  0  0  0  0  0  0  0  0  0
   32.5762  -10.7192  -18.1563 N   0  0  0  0  0  0  0  0  0  0  0  0
   31.7205  -11.5692  -18.9509 C   0  0  0  0  0  0  0  0  0  0  0  0
   30.4581  -10.8292  -19.4158 C   0  0  0  0  0  0  0  0  0  0  0  0
   29.4967  -11.7383  -20.1118 C   0  0  0  0  0  0  0  0  0  0  0  0
   28.2097  -11.1058  -20.5767 C   0  0  2  0  0  0  0  0  0  0  0  0
   27.2759  -11.9531  -21.2156 N   0  0  0  0  0  0  0  0  0  0  0  0
   28.4899   -9.8274  -21.2179 C   0  0  0  0  0  0  0  0  0  0  0  0
   28.6659   -8.6481  -20.4853 O   0  0  0  0  0  0  0  0  0  0  0  0
   28.5850   -9.7356  -22.4677 O   0  0  0  0  0  0  0  0  0  0  0  0
  2  1  1  1
  3  4  1  0
  3  2  1  0
  5  2  1  0
  5  6  2  0
  7  5  1  0
  8  7  1  0
  8  9  1  6
 10  9  1  0
 11 12  1  0
 11 10  1  0
 13 12  1  0
 14  8  1  0
 15 14  2  0
 17 19  1  0
 17 16  1  0
 18 17  2  0
 20 19  1  0
 21 20  1  0
 21 22  1  0
 23 22  1  6
 23 24  1  0
 24 14  1  0
 25 26  1  0
 25 23  1  0
 27 25  2  0
M  END
$$$$
