CKR.pdb
     RDKit          3D

 27 26  0  0  1  0  0  0  0  0999 V2000
   28.5123  -20.2898  -12.2014 N   0  0  0  0  0  0  0  0  0  0  0  0
   27.1694  -20.7152  -12.5649 C   0  0  1  0  0  0  0  0  0  0  0  0
   26.3201  -20.6649  -11.3137 C   0  0  0  0  0  0  0  0  0  0  0  0
   26.7238  -22.0105  -10.1735 S   0  0  0  0  0  0  0  0  0  0  0  0
   26.5583  -19.7485  -13.5334 C   0  0  0  0  0  0  0  0  0  0  0  0
   26.4618  -18.5286  -13.2442 O   0  0  0  0  0  0  0  0  0  0  0  0
   26.0645  -20.1499  -14.8056 N   0  0  0  0  0  0  0  0  0  0  0  0
   25.4750  -19.1755  -15.7322 C   0  0  1  0  0  0  0  0  0  0  0  0
   26.1990  -19.3482  -17.0352 C   0  0  0  0  0  0  0  0  0  0  0  0
   27.4731  -18.5788  -17.1444 C   0  0  0  0  0  0  0  0  0  0  0  0
   28.1786  -18.8481  -18.4450 C   0  0  0  0  0  0  0  0  0  0  0  0
   29.5178  -18.1693  -18.5497 C   0  0  0  0  0  0  0  0  0  0  0  0
   30.1542  -18.4731  -19.8393 N   0  0  0  0  0  0  0  0  0  0  0  0
   23.9992  -19.4068  -15.8366 C   0  0  0  0  0  0  0  0  0  0  0  0
   23.5449  -20.5645  -15.9626 O   0  0  0  0  0  0  0  0  0  0  0  0
   19.8356  -21.0723  -12.0981 N   0  0  0  0  0  0  0  0  0  0  0  0
   18.5246  -20.5443  -11.9816 C   0  0  0  0  0  0  0  0  0  0  0  0
   17.5872  -21.3175  -11.5656 N   0  0  0  0  0  0  0  0  0  0  0  0
   18.2139  -19.2024  -12.3057 N   0  0  0  0  0  0  0  0  0  0  0  0
   19.1866  -18.2728  -12.8309 C   0  0  0  0  0  0  0  0  0  0  0  0
   19.8931  -18.8316  -14.0743 C   0  0  0  0  0  0  0  0  0  0  0  0
   20.9622  -17.9140  -14.5745 C   0  0  0  0  0  0  0  0  0  0  0  0
   21.6796  -18.3567  -15.8242 C   0  0  2  0  0  0  0  0  0  0  0  0
   23.0924  -18.3245  -15.7951 N   0  0  0  0  0  0  0  0  0  0  0  0
   21.0289  -17.7862  -16.9969 C   0  0  0  0  0  0  0  0  0  0  0  0
   19.7718  -18.2165  -17.4358 O   0  0  0  0  0  0  0  0  0  0  0  0
   21.5795  -16.8755  -17.6655 O   0  0  0  0  0  0  0  0  0  0  0  0
  2  1  1  1
  3  4  1  0
  3  2  1  0
  5  2  1  0
  5  6  2  0
  7  5  1  0
  8  7  1  0
  8  9  1  6
 10  9  1  0
 11 12  1  0
 11 10  1  0
 13 12  1  0
 14  8  1  0
 15 14  2  0
 17 19  1  0
 17 16  1  0
 18 17  2  0
 20 19  1  0
 21 20  1  0
 21 22  1  0
 23 22  1  1
 23 24  1  0
 24 14  1  0
 25 26  1  0
 25 23  1  0
 27 25  2  0
M  END
$$$$
