CSY.pdb
     RDKit          3D

 25 25  0  0  1  0  0  0  0  0999 V2000
   24.5970  -16.3741  -17.1285 N   0  0  0  0  0  0  0  0  0  0  0  0
   25.6713  -16.5605  -16.2012 C   0  0  1  0  0  0  0  0  0  0  0  0
   25.7634  -15.4878  -15.1500 C   0  0  0  0  0  0  0  0  0  0  0  0
   26.2389  -13.9443  -16.0179 S   0  0  0  0  0  0  0  0  0  0  0  0
   25.6087  -17.9230  -15.6444 C   0  0  0  0  0  0  0  0  0  0  0  0
   24.5391  -18.4636  -15.2447 O   0  0  0  0  0  0  0  0  0  0  0  0
   27.7354  -22.1632  -15.1987 O   0  0  0  0  0  0  0  0  0  0  0  0
   27.7493  -20.8910  -15.7393 C   0  0  0  0  0  0  0  0  0  0  0  0
   26.7583  -20.0298  -14.9453 C   0  0  2  0  0  0  0  0  0  0  0  0
   26.7888  -18.7223  -15.5260 N   0  0  0  0  0  0  0  0  0  0  0  0
   27.0481  -20.0608  -13.5152 C   0  0  0  0  0  0  0  0  0  0  0  0
   27.9914  -19.3926  -13.0375 O   0  0  0  0  0  0  0  0  0  0  0  0
   28.0500  -19.8641   -5.0728 O   0  0  0  0  0  0  0  0  0  0  0  0
   27.7317  -19.8323   -6.4302 C   0  0  0  0  0  0  0  0  0  0  0  0
   28.6976  -19.5997   -7.3867 C   0  0  0  0  0  0  0  0  0  0  0  0
   28.3659  -19.5716   -8.7252 C   0  0  0  0  0  0  0  0  0  0  0  0
   27.0734  -19.7707   -9.1742 C   0  0  0  0  0  0  0  0  0  0  0  0
   26.7841  -19.7265  -10.6095 C   0  0  0  0  0  0  0  0  0  0  0  0
   26.5696  -21.0718  -11.2495 C   0  0  2  0  0  0  0  0  0  0  0  0
   26.2583  -20.8538  -12.6482 N   0  0  0  0  0  0  0  0  0  0  0  0
   25.5868  -21.9209  -10.5740 C   0  0  0  0  0  0  0  0  0  0  0  0
   25.8992  -22.8037   -9.5513 O   0  0  0  0  0  0  0  0  0  0  0  0
   26.1060  -20.0042   -8.2072 C   0  0  0  0  0  0  0  0  0  0  0  0
   26.4391  -20.0322   -6.8669 C   0  0  0  0  0  0  0  0  0  0  0  0
   24.3826  -21.8603  -10.9283 O   0  0  0  0  0  0  0  0  0  0  0  0
  2  3  1  0
  2  1  1  1
  3  4  1  0
  5  2  1  0
  6  5  2  0
  7  8  1  0
  9  8  1  6
  9 11  1  0
  9 10  1  0
 10  5  1  0
 11 12  2  0
 14 13  1  0
 15 14  2  0
 16 15  1  0
 17 23  1  0
 17 16  2  0
 18 17  1  0
 19 18  1  1
 20 19  1  0
 20 11  1  0
 21 19  1  0
 22 21  1  0
 23 24  2  0
 24 14  1  0
 25 21  2  0
M  END
$$$$
