CSY.pdb
     RDKit          3D

 25 25  0  0  1  0  0  0  0  0999 V2000
   30.6383  -23.2169  -19.5923 N   0  0  0  0  0  0  0  0  0  0  0  0
   29.3066  -23.4603  -19.1274 C   0  0  1  0  0  0  0  0  0  0  0  0
   29.0706  -24.8718  -18.6628 C   0  0  0  0  0  0  0  0  0  0  0  0
   29.2156  -25.9416  -20.1447 S   0  0  0  0  0  0  0  0  0  0  0  0
   28.9433  -22.4444  -18.1242 C   0  0  0  0  0  0  0  0  0  0  0  0
   29.6242  -22.2175  -17.0846 O   0  0  0  0  0  0  0  0  0  0  0  0
   25.2462  -20.3316  -18.2509 O   0  0  0  0  0  0  0  0  0  0  0  0
   26.4436  -19.6836  -18.0117 C   0  0  0  0  0  0  0  0  0  0  0  0
   27.3823  -20.6713  -17.3066 C   0  0  2  0  0  0  0  0  0  0  0  0
   27.7691  -21.6433  -18.2830 N   0  0  0  0  0  0  0  0  0  0  0  0
   26.7665  -21.2330  -16.1084 C   0  0  0  0  0  0  0  0  0  0  0  0
   26.2895  -22.3893  -16.1146 O   0  0  0  0  0  0  0  0  0  0  0  0
   24.0732  -21.1479   -7.5803 O   0  0  0  0  0  0  0  0  0  0  0  0
   24.7081  -20.9045   -8.7979 C   0  0  0  0  0  0  0  0  0  0  0  0
   24.0276  -20.3504   -9.8618 C   0  0  0  0  0  0  0  0  0  0  0  0
   24.6706  -20.1161  -11.0593 C   0  0  0  0  0  0  0  0  0  0  0  0
   26.0055  -20.4173  -11.2567 C   0  0  0  0  0  0  0  0  0  0  0  0
   26.6312  -20.1466  -12.5532 C   0  0  0  0  0  0  0  0  0  0  0  0
   26.0489  -20.9195  -13.7061 C   0  0  2  0  0  0  0  0  0  0  0  0
   26.7026  -20.4686  -14.9186 N   0  0  0  0  0  0  0  0  0  0  0  0
   24.5885  -20.8747  -13.7972 C   0  0  0  0  0  0  0  0  0  0  0  0
   23.7497  -21.8444  -13.2692 O   0  0  0  0  0  0  0  0  0  0  0  0
   26.6848  -20.9746  -10.1827 C   0  0  0  0  0  0  0  0  0  0  0  0
   26.0401  -21.2089   -8.9837 C   0  0  0  0  0  0  0  0  0  0  0  0
   24.0437  -19.9069  -14.3856 O   0  0  0  0  0  0  0  0  0  0  0  0
  2  3  1  0
  2  1  1  1
  3  4  1  0
  5  2  1  0
  6  5  2  0
  7  8  1  0
  9  8  1  6
  9 11  1  0
  9 10  1  0
 10  5  1  0
 11 12  2  0
 14 13  1  0
 15 14  2  0
 16 15  1  0
 17 23  1  0
 17 16  2  0
 18 17  1  0
 19 18  1  1
 20 19  1  0
 20 11  1  0
 21 19  1  0
 22 21  1  0
 23 24  2  0
 24 14  1  0
 25 21  2  0
M  END
$$$$
