CSY.pdb
     RDKit          3D

 25 25  0  0  1  0  0  0  0  0999 V2000
   19.7802  -13.5032  -17.8978 N   0  0  0  0  0  0  0  0  0  0  0  0
   19.5995  -12.6755  -16.7442 C   0  0  1  0  0  0  0  0  0  0  0  0
   20.0502  -13.3137  -15.4582 C   0  0  0  0  0  0  0  0  0  0  0  0
   18.8866  -14.6899  -15.1212 S   0  0  0  0  0  0  0  0  0  0  0  0
   20.2058  -11.3550  -16.9873 C   0  0  0  0  0  0  0  0  0  0  0  0
   21.3717  -11.1981  -17.4475 O   0  0  0  0  0  0  0  0  0  0  0  0
   18.0773   -7.9519  -16.0158 O   0  0  0  0  0  0  0  0  0  0  0  0
   18.8966   -7.8837  -17.1270 C   0  0  0  0  0  0  0  0  0  0  0  0
   20.0609   -8.8604  -16.9158 C   0  0  2  0  0  0  0  0  0  0  0  0
   19.4835  -10.1529  -16.7061 N   0  0  0  0  0  0  0  0  0  0  0  0
   20.9459   -8.4149  -15.8442 C   0  0  0  0  0  0  0  0  0  0  0  0
   20.8559   -8.9000  -14.6949 O   0  0  0  0  0  0  0  0  0  0  0  0
   26.2334  -12.1237  -16.9612 O   0  0  0  0  0  0  0  0  0  0  0  0
   25.7443  -10.8562  -16.6465 C   0  0  0  0  0  0  0  0  0  0  0  0
   25.1198  -10.0740  -17.5954 C   0  0  0  0  0  0  0  0  0  0  0  0
   24.6417   -8.8225  -17.2676 C   0  0  0  0  0  0  0  0  0  0  0  0
   24.7591   -8.2925  -15.9959 C   0  0  0  0  0  0  0  0  0  0  0  0
   24.2326   -6.9556  -15.7106 C   0  0  0  0  0  0  0  0  0  0  0  0
   22.8568   -6.9386  -15.1002 C   0  0  2  0  0  0  0  0  0  0  0  0
   21.9224   -7.4216  -16.0974 N   0  0  0  0  0  0  0  0  0  0  0  0
   22.4592   -5.6531  -14.5238 C   0  0  0  0  0  0  0  0  0  0  0  0
   22.9812   -5.1375  -13.3472 O   0  0  0  0  0  0  0  0  0  0  0  0
   25.3883   -9.0841  -15.0457 C   0  0  0  0  0  0  0  0  0  0  0  0
   25.8668  -10.3374  -15.3749 C   0  0  0  0  0  0  0  0  0  0  0  0
   21.5939   -4.9606  -15.1165 O   0  0  0  0  0  0  0  0  0  0  0  0
  2  3  1  0
  2  1  1  6
  3  4  1  0
  5  2  1  0
  6  5  2  0
  7  8  1  0
  9  8  1  1
  9 11  1  0
  9 10  1  0
 10  5  1  0
 11 12  2  0
 14 13  1  0
 15 14  2  0
 16 15  1  0
 17 23  1  0
 17 16  2  0
 18 17  1  0
 19 18  1  6
 20 19  1  0
 20 11  1  0
 21 19  1  0
 22 21  1  0
 23 24  2  0
 24 14  1  0
 25 21  2  0
M  END
$$$$
