CSY.pdb
     RDKit          3D

 25 25  0  0  1  0  0  0  0  0999 V2000
   34.5339  -35.1603   -7.5670 N   0  0  0  0  0  0  0  0  0  0  0  0
   33.5540  -35.9836   -6.9262 C   0  0  1  0  0  0  0  0  0  0  0  0
   34.1290  -36.9547   -5.9310 C   0  0  0  0  0  0  0  0  0  0  0  0
   35.5692  -37.7459   -6.7441 S   0  0  0  0  0  0  0  0  0  0  0  0
   32.4881  -35.1338   -6.3675 C   0  0  0  0  0  0  0  0  0  0  0  0
   32.4703  -33.8756   -6.4785 O   0  0  0  0  0  0  0  0  0  0  0  0
   28.4412  -34.7595   -7.4483 O   0  0  0  0  0  0  0  0  0  0  0  0
   29.6778  -35.3502   -7.2673 C   0  0  0  0  0  0  0  0  0  0  0  0
   30.0575  -35.2064   -5.7876 C   0  0  2  0  0  0  0  0  0  0  0  0
   31.3908  -35.7083   -5.6522 N   0  0  0  0  0  0  0  0  0  0  0  0
   29.0793  -35.8529   -4.9185 C   0  0  0  0  0  0  0  0  0  0  0  0
   28.4306  -36.8474   -5.3117 O   0  0  0  0  0  0  0  0  0  0  0  0
   32.7781  -39.2648    1.9385 O   0  0  0  0  0  0  0  0  0  0  0  0
   32.2706  -38.5363    0.8630 C   0  0  0  0  0  0  0  0  0  0  0  0
   31.8198  -39.1654   -0.2785 C   0  0  0  0  0  0  0  0  0  0  0  0
   31.3208  -38.4300   -1.3332 C   0  0  0  0  0  0  0  0  0  0  0  0
   31.2459  -37.0496   -1.3063 C   0  0  0  0  0  0  0  0  0  0  0  0
   30.7076  -36.3249   -2.4599 C   0  0  0  0  0  0  0  0  0  0  0  0
   29.2255  -36.0675   -2.4052 C   0  0  2  0  0  0  0  0  0  0  0  0
   28.8533  -35.3565   -3.6121 N   0  0  0  0  0  0  0  0  0  0  0  0
   28.7652  -35.3994   -1.1867 C   0  0  0  0  0  0  0  0  0  0  0  0
   28.4181  -36.0666   -0.0217 O   0  0  0  0  0  0  0  0  0  0  0  0
   31.7010  -36.4225   -0.1552 C   0  0  0  0  0  0  0  0  0  0  0  0
   32.2006  -37.1597    0.9007 C   0  0  0  0  0  0  0  0  0  0  0  0
   28.6725  -34.1460   -1.1765 O   0  0  0  0  0  0  0  0  0  0  0  0
  2  3  1  0
  2  1  1  1
  3  4  1  0
  5  2  1  0
  6  5  2  0
  7  8  1  0
  9  8  1  6
  9 11  1  0
  9 10  1  0
 10  5  1  0
 11 12  2  0
 14 13  1  0
 15 14  2  0
 16 15  1  0
 17 23  1  0
 17 16  2  0
 18 17  1  0
 19 18  1  1
 20 19  1  0
 20 11  1  0
 21 19  1  0
 22 21  1  0
 23 24  2  0
 24 14  1  0
 25 21  2  0
M  END
$$$$
