CSY.pdb
     RDKit          3D

 25 25  0  0  1  0  0  0  0  0999 V2000
   24.3593  -13.8312  -18.7488 N   0  0  0  0  0  0  0  0  0  0  0  0
   23.6994  -13.4227  -17.5462 C   0  0  1  0  0  0  0  0  0  0  0  0
   24.4878  -13.6962  -16.2941 C   0  0  0  0  0  0  0  0  0  0  0  0
   24.5579  -15.5188  -16.1077 S   0  0  0  0  0  0  0  0  0  0  0  0
   23.2704  -12.0191  -17.6739 C   0  0  0  0  0  0  0  0  0  0  0  0
   23.8914  -11.1608  -18.3619 O   0  0  0  0  0  0  0  0  0  0  0  0
   20.1610   -8.8615  -18.3756 O   0  0  0  0  0  0  0  0  0  0  0  0
   20.5408  -10.1756  -18.1765 C   0  0  0  0  0  0  0  0  0  0  0  0
   21.6573  -10.1902  -17.1242 C   0  0  2  0  0  0  0  0  0  0  0  0
   22.0969  -11.5469  -17.0063 N   0  0  0  0  0  0  0  0  0  0  0  0
   21.2183   -9.5878  -15.8694 C   0  0  0  0  0  0  0  0  0  0  0  0
   20.5384  -10.2415  -15.0478 O   0  0  0  0  0  0  0  0  0  0  0  0
   25.2089   -3.0730  -16.5715 O   0  0  0  0  0  0  0  0  0  0  0  0
   24.4907   -4.0307  -15.8560 C   0  0  0  0  0  0  0  0  0  0  0  0
   24.7858   -5.3737  -15.9624 C   0  0  0  0  0  0  0  0  0  0  0  0
   24.0657   -6.3081  -15.2477 C   0  0  0  0  0  0  0  0  0  0  0  0
   23.0291   -5.9584  -14.4021 C   0  0  0  0  0  0  0  0  0  0  0  0
   22.3003   -6.9982  -13.6717 C   0  0  0  0  0  0  0  0  0  0  0  0
   21.0949   -7.5436  -14.3895 C   0  0  2  0  0  0  0  0  0  0  0  0
   21.5604   -8.2476  -15.5677 N   0  0  0  0  0  0  0  0  0  0  0  0
   20.0617   -6.5513  -14.6911 C   0  0  0  0  0  0  0  0  0  0  0  0
   19.6584   -6.2195  -15.9757 O   0  0  0  0  0  0  0  0  0  0  0  0
   22.7369   -4.6058  -14.2994 C   0  0  0  0  0  0  0  0  0  0  0  0
   23.4587   -3.6707  -15.0155 C   0  0  0  0  0  0  0  0  0  0  0  0
   19.4945   -5.9538  -13.7421 O   0  0  0  0  0  0  0  0  0  0  0  0
  2  3  1  0
  2  1  1  6
  3  4  1  0
  5  2  1  0
  6  5  2  0
  7  8  1  0
  9  8  1  6
  9 11  1  0
  9 10  1  0
 10  5  1  0
 11 12  2  0
 14 13  1  0
 15 14  2  0
 16 15  1  0
 17 23  1  0
 17 16  2  0
 18 17  1  0
 19 18  1  6
 20 19  1  0
 20 11  1  0
 21 19  1  0
 22 21  1  0
 23 24  2  0
 24 14  1  0
 25 21  2  0
M  END
$$$$
