CSY.pdb
     RDKit          3D

 25 25  0  0  1  0  0  0  0  0999 V2000
   26.2617  -11.9175  -15.1381 N   0  0  0  0  0  0  0  0  0  0  0  0
   26.6706  -10.8134  -15.9519 C   0  0  1  0  0  0  0  0  0  0  0  0
   27.4368  -11.2137  -17.1835 C   0  0  0  0  0  0  0  0  0  0  0  0
   26.5081  -12.5955  -17.9514 S   0  0  0  0  0  0  0  0  0  0  0  0
   25.5068   -9.9567  -16.2382 C   0  0  0  0  0  0  0  0  0  0  0  0
   25.6005   -8.7936  -16.7224 O   0  0  0  0  0  0  0  0  0  0  0  0
   21.5373  -11.0972  -15.1894 O   0  0  0  0  0  0  0  0  0  0  0  0
   21.8375  -10.5146  -16.4065 C   0  0  0  0  0  0  0  0  0  0  0  0
   23.0360   -9.5792  -16.1994 C   0  0  2  0  0  0  0  0  0  0  0  0
   24.1771  -10.4128  -15.9744 N   0  0  0  0  0  0  0  0  0  0  0  0
   22.7807   -8.6085  -15.1398 C   0  0  0  0  0  0  0  0  0  0  0  0
   23.3087   -8.7355  -14.0131 O   0  0  0  0  0  0  0  0  0  0  0  0
   23.6668   -1.5695  -18.1130 O   0  0  0  0  0  0  0  0  0  0  0  0
   23.4956   -2.5798  -17.1671 C   0  0  0  0  0  0  0  0  0  0  0  0
   22.5167   -2.4958  -16.1993 C   0  0  0  0  0  0  0  0  0  0  0  0
   22.3607   -3.5040  -15.2710 C   0  0  0  0  0  0  0  0  0  0  0  0
   23.1602   -4.6320  -15.2586 C   0  0  0  0  0  0  0  0  0  0  0  0
   22.9461   -5.6675  -14.2448 C   0  0  0  0  0  0  0  0  0  0  0  0
   21.6751   -6.4567  -14.4105 C   0  0  2  0  0  0  0  0  0  0  0  0
   21.9264   -7.5052  -15.3791 N   0  0  0  0  0  0  0  0  0  0  0  0
   20.4946   -5.6541  -14.7348 C   0  0  0  0  0  0  0  0  0  0  0  0
   19.8539   -4.8194  -13.8317 O   0  0  0  0  0  0  0  0  0  0  0  0
   24.1433   -4.7108  -16.2347 C   0  0  0  0  0  0  0  0  0  0  0  0
   24.2988   -3.7007  -17.1640 C   0  0  0  0  0  0  0  0  0  0  0  0
   20.0185   -5.7116  -15.8965 O   0  0  0  0  0  0  0  0  0  0  0  0
  2  3  1  0
  2  1  1  6
  3  4  1  0
  5  2  1  0
  6  5  2  0
  7  8  1  0
  9  8  1  1
  9 11  1  0
  9 10  1  0
 10  5  1  0
 11 12  2  0
 14 13  1  0
 15 14  2  0
 16 15  1  0
 17 23  1  0
 17 16  2  0
 18 17  1  0
 19 18  1  6
 20 19  1  0
 20 11  1  0
 21 19  1  0
 22 21  1  0
 23 24  2  0
 24 14  1  0
 25 21  2  0
M  END
$$$$
