CSY.pdb
     RDKit          3D

 25 25  0  0  1  0  0  0  0  0999 V2000
   24.6541  -10.0098  -15.7416 N   0  0  0  0  0  0  0  0  0  0  0  0
   24.1726   -8.8818  -16.4793 C   0  0  1  0  0  0  0  0  0  0  0  0
   23.8391   -9.1879  -17.9143 C   0  0  0  0  0  0  0  0  0  0  0  0
   25.4080   -9.6873  -18.7210 S   0  0  0  0  0  0  0  0  0  0  0  0
   23.0649   -8.2493  -15.7422 C   0  0  0  0  0  0  0  0  0  0  0  0
   22.0420   -8.8774  -15.3484 O   0  0  0  0  0  0  0  0  0  0  0  0
   22.8628   -4.0980  -15.3274 O   0  0  0  0  0  0  0  0  0  0  0  0
   22.5657   -4.8709  -14.2205 C   0  0  0  0  0  0  0  0  0  0  0  0
   22.0273   -6.2192  -14.7169 C   0  0  2  0  0  0  0  0  0  0  0  0
   23.0947   -6.8543  -15.4277 N   0  0  0  0  0  0  0  0  0  0  0  0
   20.8018   -6.0538  -15.4921 C   0  0  0  0  0  0  0  0  0  0  0  0
   20.8464   -5.8285  -16.7217 O   0  0  0  0  0  0  0  0  0  0  0  0
   16.5614  -12.1788  -14.9741 O   0  0  0  0  0  0  0  0  0  0  0  0
   16.9741  -10.9109  -15.3824 C   0  0  0  0  0  0  0  0  0  0  0  0
   16.0608   -9.9428  -15.7442 C   0  0  0  0  0  0  0  0  0  0  0  0
   16.4858   -8.6937  -16.1457 C   0  0  0  0  0  0  0  0  0  0  0  0
   17.8234   -8.3486  -16.2069 C   0  0  0  0  0  0  0  0  0  0  0  0
   18.2117   -7.0054  -16.6438 C   0  0  0  0  0  0  0  0  0  0  0  0
   18.2766   -5.9804  -15.5434 C   0  0  2  0  0  0  0  0  0  0  0  0
   19.5411   -6.1474  -14.8549 N   0  0  0  0  0  0  0  0  0  0  0  0
   17.1293   -5.9853  -14.6343 C   0  0  0  0  0  0  0  0  0  0  0  0
   15.8627   -5.5419  -14.9836 O   0  0  0  0  0  0  0  0  0  0  0  0
   18.7374   -9.3267  -15.8417 C   0  0  0  0  0  0  0  0  0  0  0  0
   18.3109  -10.5775  -15.4397 C   0  0  0  0  0  0  0  0  0  0  0  0
   17.2816   -6.4134  -13.4625 O   0  0  0  0  0  0  0  0  0  0  0  0
  2  3  1  0
  2  1  1  1
  3  4  1  0
  5  2  1  0
  6  5  2  0
  7  8  1  0
  9  8  1  6
  9 11  1  0
  9 10  1  0
 10  5  1  0
 11 12  2  0
 14 13  1  0
 15 14  2  0
 16 15  1  0
 17 23  1  0
 17 16  2  0
 18 17  1  0
 19 18  1  6
 20 19  1  0
 20 11  1  0
 21 19  1  0
 22 21  1  0
 23 24  2  0
 24 14  1  0
 25 21  2  0
M  END
$$$$
