CSY.pdb
     RDKit          3D

 25 25  0  0  1  0  0  0  0  0999 V2000
   25.3290  -11.7214  -18.4033 N   0  0  0  0  0  0  0  0  0  0  0  0
   24.6628  -11.6256  -17.1401 C   0  0  1  0  0  0  0  0  0  0  0  0
   25.5882  -11.6917  -15.9554 C   0  0  0  0  0  0  0  0  0  0  0  0
   26.3685  -13.3504  -15.9930 S   0  0  0  0  0  0  0  0  0  0  0  0
   23.7877  -10.4405  -17.1350 C   0  0  0  0  0  0  0  0  0  0  0  0
   24.1459   -9.3083  -17.5658 O   0  0  0  0  0  0  0  0  0  0  0  0
   20.1065  -11.0611  -17.3728 O   0  0  0  0  0  0  0  0  0  0  0  0
   20.1472   -9.9202  -16.5932 C   0  0  0  0  0  0  0  0  0  0  0  0
   21.5830   -9.3799  -16.6217 C   0  0  2  0  0  0  0  0  0  0  0  0
   22.4525  -10.5164  -16.6277 N   0  0  0  0  0  0  0  0  0  0  0  0
   21.8241   -8.4426  -15.5293 C   0  0  0  0  0  0  0  0  0  0  0  0
   22.1589   -8.8515  -14.3956 O   0  0  0  0  0  0  0  0  0  0  0  0
   26.1836   -3.7697  -19.1296 O   0  0  0  0  0  0  0  0  0  0  0  0
   25.5294   -4.3242  -18.0299 C   0  0  0  0  0  0  0  0  0  0  0  0
   25.0291   -3.5300  -17.0194 C   0  0  0  0  0  0  0  0  0  0  0  0
   24.3846   -4.0945  -15.9385 C   0  0  0  0  0  0  0  0  0  0  0  0
   24.2074   -5.4597  -15.8097 C   0  0  0  0  0  0  0  0  0  0  0  0
   23.5159   -5.9987  -14.6362 C   0  0  0  0  0  0  0  0  0  0  0  0
   22.0162   -6.0447  -14.7560 C   0  0  2  0  0  0  0  0  0  0  0  0
   21.6802   -7.0506  -15.7439 N   0  0  0  0  0  0  0  0  0  0  0  0
   21.3839   -4.7518  -15.0233 C   0  0  0  0  0  0  0  0  0  0  0  0
   21.4115   -3.6799  -14.1440 O   0  0  0  0  0  0  0  0  0  0  0  0
   24.7129   -6.2534  -16.8295 C   0  0  0  0  0  0  0  0  0  0  0  0
   25.3582   -5.6873  -17.9116 C   0  0  0  0  0  0  0  0  0  0  0  0
   20.7746   -4.5839  -16.1096 O   0  0  0  0  0  0  0  0  0  0  0  0
  2  3  1  0
  2  1  1  6
  3  4  1  0
  5  2  1  0
  6  5  2  0
  7  8  1  0
  9  8  1  1
  9 11  1  0
  9 10  1  0
 10  5  1  0
 11 12  2  0
 14 13  1  0
 15 14  2  0
 16 15  1  0
 17 23  1  0
 17 16  2  0
 18 17  1  0
 19 18  1  6
 20 19  1  0
 20 11  1  0
 21 19  1  0
 22 21  1  0
 23 24  2  0
 24 14  1  0
 25 21  2  0
M  END
$$$$
