CSY.pdb
     RDKit          3D

 25 25  0  0  1  0  0  0  0  0999 V2000
   28.5529  -21.2918  -15.5013 N   0  0  0  0  0  0  0  0  0  0  0  0
   27.9749  -20.3973  -14.5450 C   0  0  1  0  0  0  0  0  0  0  0  0
   27.5560  -19.0729  -15.1234 C   0  0  0  0  0  0  0  0  0  0  0  0
   29.0974  -18.1864  -15.5707 S   0  0  0  0  0  0  0  0  0  0  0  0
   26.8954  -21.0869  -13.8173 C   0  0  0  0  0  0  0  0  0  0  0  0
   26.0988  -21.9024  -14.3617 O   0  0  0  0  0  0  0  0  0  0  0  0
   25.7414  -19.5489  -10.0843 O   0  0  0  0  0  0  0  0  0  0  0  0
   25.6460  -20.9138  -10.2808 C   0  0  0  0  0  0  0  0  0  0  0  0
   25.4463  -21.1619  -11.7817 C   0  0  2  0  0  0  0  0  0  0  0  0
   26.6911  -20.8603  -12.4199 N   0  0  0  0  0  0  0  0  0  0  0  0
   24.3061  -20.4133  -12.3011 C   0  0  0  0  0  0  0  0  0  0  0  0
   24.4699  -19.3216  -12.8891 O   0  0  0  0  0  0  0  0  0  0  0  0
   18.0357  -18.3330  -17.6397 O   0  0  0  0  0  0  0  0  0  0  0  0
   19.0428  -18.8492  -16.8247 C   0  0  0  0  0  0  0  0  0  0  0  0
   20.0237  -18.0359  -16.2969 C   0  0  0  0  0  0  0  0  0  0  0  0
   21.0127  -18.5624  -15.4926 C   0  0  0  0  0  0  0  0  0  0  0  0
   21.0753  -19.9070  -15.1766 C   0  0  0  0  0  0  0  0  0  0  0  0
   22.1524  -20.4060  -14.3184 C   0  0  0  0  0  0  0  0  0  0  0  0
   21.8389  -20.3970  -12.8462 C   0  0  2  0  0  0  0  0  0  0  0  0
   22.9935  -20.9196  -12.1430 N   0  0  0  0  0  0  0  0  0  0  0  0
   20.5951  -21.0774  -12.4815 C   0  0  0  0  0  0  0  0  0  0  0  0
   20.4582  -22.4555  -12.4111 O   0  0  0  0  0  0  0  0  0  0  0  0
   20.0858  -20.7202  -15.7106 C   0  0  0  0  0  0  0  0  0  0  0  0
   19.0957  -20.1920  -16.5161 C   0  0  0  0  0  0  0  0  0  0  0  0
   19.5792  -20.3880  -12.2126 O   0  0  0  0  0  0  0  0  0  0  0  0
  2  3  1  0
  2  1  1  6
  3  4  1  0
  5  2  1  0
  6  5  2  0
  7  8  1  0
  9  8  1  1
  9 11  1  0
  9 10  1  0
 10  5  1  0
 11 12  2  0
 14 13  1  0
 15 14  2  0
 16 15  1  0
 17 23  1  0
 17 16  2  0
 18 17  1  0
 19 18  1  6
 20 19  1  0
 20 11  1  0
 21 19  1  0
 22 21  1  0
 23 24  2  0
 24 14  1  0
 25 21  2  0
M  END
$$$$
