CSY.pdb
     RDKit          3D

 25 25  0  0  1  0  0  0  0  0999 V2000
   31.4895  -12.4167  -17.5684 N   0  0  0  0  0  0  0  0  0  0  0  0
   32.7848  -11.8150  -17.6628 C   0  0  1  0  0  0  0  0  0  0  0  0
   33.3627  -11.8246  -19.0520 C   0  0  0  0  0  0  0  0  0  0  0  0
   33.0614  -13.5003  -19.7324 S   0  0  0  0  0  0  0  0  0  0  0  0
   32.7495  -10.4748  -17.0518 C   0  0  0  0  0  0  0  0  0  0  0  0
   31.6901   -9.8012  -16.9113 O   0  0  0  0  0  0  0  0  0  0  0  0
   35.5570   -8.9292  -14.3726 O   0  0  0  0  0  0  0  0  0  0  0  0
   35.3727   -8.2411  -15.5572 C   0  0  0  0  0  0  0  0  0  0  0  0
   33.9472   -8.5227  -16.0499 C   0  0  2  0  0  0  0  0  0  0  0  0
   33.9464   -9.8540  -16.5747 N   0  0  0  0  0  0  0  0  0  0  0  0
   33.4951   -7.5036  -16.9918 C   0  0  0  0  0  0  0  0  0  0  0  0
   33.9173   -7.4861  -18.1690 O   0  0  0  0  0  0  0  0  0  0  0  0
   27.9841   -1.4185  -20.3751 O   0  0  0  0  0  0  0  0  0  0  0  0
   28.6153   -2.4275  -19.6482 C   0  0  0  0  0  0  0  0  0  0  0  0
   29.0326   -2.2206  -18.3500 C   0  0  0  0  0  0  0  0  0  0  0  0
   29.6554   -3.2292  -17.6450 C   0  0  0  0  0  0  0  0  0  0  0  0
   29.8916   -4.4785  -18.1883 C   0  0  0  0  0  0  0  0  0  0  0  0
   30.5600   -5.5080  -17.3888 C   0  0  0  0  0  0  0  0  0  0  0  0
   32.0636   -5.4718  -17.4471 C   0  0  2  0  0  0  0  0  0  0  0  0
   32.5670   -6.5175  -16.5788 N   0  0  0  0  0  0  0  0  0  0  0  0
   32.6556   -4.1633  -17.1636 C   0  0  0  0  0  0  0  0  0  0  0  0
   33.4017   -3.8804  -16.0295 O   0  0  0  0  0  0  0  0  0  0  0  0
   29.4696   -4.6806  -19.4947 C   0  0  0  0  0  0  0  0  0  0  0  0
   28.8459   -3.6699  -20.2001 C   0  0  0  0  0  0  0  0  0  0  0  0
   32.4884   -3.2274  -17.9856 O   0  0  0  0  0  0  0  0  0  0  0  0
  2  3  1  0
  2  1  1  6
  3  4  1  0
  5  2  1  0
  6  5  2  0
  7  8  1  0
  9  8  1  6
  9 11  1  0
  9 10  1  0
 10  5  1  0
 11 12  2  0
 14 13  1  0
 15 14  2  0
 16 15  1  0
 17 23  1  0
 17 16  2  0
 18 17  1  0
 19 18  1  1
 20 19  1  0
 20 11  1  0
 21 19  1  0
 22 21  1  0
 23 24  2  0
 24 14  1  0
 25 21  2  0
M  END
$$$$
