CSY.pdb
     RDKit          3D

 25 25  0  0  1  0  0  0  0  0999 V2000
   28.8420  -21.1702  -15.4730 N   0  0  0  0  0  0  0  0  0  0  0  0
   28.0610  -20.2515  -14.7019 C   0  0  1  0  0  0  0  0  0  0  0  0
   27.4264  -19.1566  -15.5159 C   0  0  0  0  0  0  0  0  0  0  0  0
   28.6972  -17.8505  -15.7169 S   0  0  0  0  0  0  0  0  0  0  0  0
   27.0988  -20.9993  -13.8739 C   0  0  0  0  0  0  0  0  0  0  0  0
   26.4487  -21.9983  -14.2925 O   0  0  0  0  0  0  0  0  0  0  0  0
   24.6829  -20.9402   -9.6798 O   0  0  0  0  0  0  0  0  0  0  0  0
   25.7924  -20.5138  -10.3855 C   0  0  0  0  0  0  0  0  0  0  0  0
   25.7053  -21.0996  -11.8010 C   0  0  2  0  0  0  0  0  0  0  0  0
   26.8470  -20.6198  -12.5181 N   0  0  0  0  0  0  0  0  0  0  0  0
   24.4251  -20.7910  -12.4303 C   0  0  0  0  0  0  0  0  0  0  0  0
   24.1913  -19.6480  -12.8811 O   0  0  0  0  0  0  0  0  0  0  0  0
   25.7411  -24.9193  -17.4404 O   0  0  0  0  0  0  0  0  0  0  0  0
   24.7749  -24.4296  -16.5620 C   0  0  0  0  0  0  0  0  0  0  0  0
   23.9572  -23.3757  -16.9125 C   0  0  0  0  0  0  0  0  0  0  0  0
   23.0065  -22.9035  -16.0319 C   0  0  0  0  0  0  0  0  0  0  0  0
   22.8234  -23.4485  -14.7744 C   0  0  0  0  0  0  0  0  0  0  0  0
   21.7976  -22.9008  -13.8836 C   0  0  0  0  0  0  0  0  0  0  0  0
   22.1667  -21.5985  -13.2251 C   0  0  2  0  0  0  0  0  0  0  0  0
   23.4280  -21.7903  -12.5374 N   0  0  0  0  0  0  0  0  0  0  0  0
   21.1283  -21.0338  -12.3615 C   0  0  0  0  0  0  0  0  0  0  0  0
   19.9129  -20.5531  -12.8248 O   0  0  0  0  0  0  0  0  0  0  0  0
   23.6490  -24.5085  -14.4276 C   0  0  0  0  0  0  0  0  0  0  0  0
   24.6008  -24.9808  -15.3101 C   0  0  0  0  0  0  0  0  0  0  0  0
   21.3321  -20.9725  -11.1229 O   0  0  0  0  0  0  0  0  0  0  0  0
  2  3  1  0
  2  1  1  6
  3  4  1  0
  5  2  1  0
  6  5  2  0
  7  8  1  0
  9  8  1  1
  9 11  1  0
  9 10  1  0
 10  5  1  0
 11 12  2  0
 14 13  1  0
 15 14  2  0
 16 15  1  0
 17 23  1  0
 17 16  2  0
 18 17  1  0
 19 18  1  1
 20 19  1  0
 20 11  1  0
 21 19  1  0
 22 21  1  0
 23 24  2  0
 24 14  1  0
 25 21  2  0
M  END
$$$$
