CSY.pdb
     RDKit          3D

 25 25  0  0  1  0  0  0  0  0999 V2000
   18.0502  -12.0404  -15.7569 N   0  0  0  0  0  0  0  0  0  0  0  0
   19.0980  -11.2333  -16.3040 C   0  0  1  0  0  0  0  0  0  0  0  0
   19.1547  -11.2437  -17.8076 C   0  0  0  0  0  0  0  0  0  0  0  0
   20.1942  -12.6775  -18.2821 S   0  0  0  0  0  0  0  0  0  0  0  0
   19.0255   -9.8787  -15.7295 C   0  0  0  0  0  0  0  0  0  0  0  0
   18.0118   -9.1318  -15.8323 O   0  0  0  0  0  0  0  0  0  0  0  0
   21.0821   -6.6483  -12.8270 O   0  0  0  0  0  0  0  0  0  0  0  0
   21.1202   -7.9241  -13.3577 C   0  0  0  0  0  0  0  0  0  0  0  0
   20.1138   -7.9845  -14.5143 C   0  0  2  0  0  0  0  0  0  0  0  0
   20.1303   -9.3278  -15.0072 N   0  0  0  0  0  0  0  0  0  0  0  0
   20.3965   -6.9689  -15.5237 C   0  0  0  0  0  0  0  0  0  0  0  0
   21.1234   -7.2281  -16.5080 O   0  0  0  0  0  0  0  0  0  0  0  0
   20.3470   -1.0019  -21.6640 O   0  0  0  0  0  0  0  0  0  0  0  0
   20.2206   -1.9955  -20.6936 C   0  0  0  0  0  0  0  0  0  0  0  0
   19.1573   -2.0070  -19.8153 C   0  0  0  0  0  0  0  0  0  0  0  0
   19.0472   -2.9971  -18.8613 C   0  0  0  0  0  0  0  0  0  0  0  0
   19.9770   -4.0125  -18.7343 C   0  0  0  0  0  0  0  0  0  0  0  0
   19.8054   -5.0344  -17.6989 C   0  0  0  0  0  0  0  0  0  0  0  0
   20.1421   -4.5792  -16.3042 C   0  0  2  0  0  0  0  0  0  0  0  0
   19.8465   -5.6705  -15.3973 N   0  0  0  0  0  0  0  0  0  0  0  0
   19.5125   -3.3200  -15.9029 C   0  0  0  0  0  0  0  0  0  0  0  0
   19.9656   -2.0689  -16.2931 O   0  0  0  0  0  0  0  0  0  0  0  0
   21.0444   -3.9955  -19.6207 C   0  0  0  0  0  0  0  0  0  0  0  0
   21.1539   -3.0036  -20.5758 C   0  0  0  0  0  0  0  0  0  0  0  0
   18.4992   -3.3545  -15.1602 O   0  0  0  0  0  0  0  0  0  0  0  0
  2  3  1  0
  2  1  1  6
  3  4  1  0
  5  2  1  0
  6  5  2  0
  7  8  1  0
  9  8  1  1
  9 11  1  0
  9 10  1  0
 10  5  1  0
 11 12  2  0
 14 13  1  0
 15 14  2  0
 16 15  1  0
 17 23  1  0
 17 16  2  0
 18 17  1  0
 19 18  1  6
 20 19  1  0
 20 11  1  0
 21 19  1  0
 22 21  1  0
 23 24  2  0
 24 14  1  0
 25 21  2  0
M  END
$$$$
