CSY.pdb
     RDKit          3D

 25 25  0  0  1  0  0  0  0  0999 V2000
   18.2118  -13.9755  -14.8182 N   0  0  0  0  0  0  0  0  0  0  0  0
   17.3616  -13.0854  -15.5486 C   0  0  1  0  0  0  0  0  0  0  0  0
   16.1915  -13.7631  -16.2087 C   0  0  0  0  0  0  0  0  0  0  0  0
   16.8511  -14.6234  -17.6873 S   0  0  0  0  0  0  0  0  0  0  0  0
   16.9743  -11.9567  -14.6847 C   0  0  0  0  0  0  0  0  0  0  0  0
   16.6474  -12.0883  -13.4715 O   0  0  0  0  0  0  0  0  0  0  0  0
   17.8151   -8.1393  -15.8040 O   0  0  0  0  0  0  0  0  0  0  0  0
   17.6304   -8.4545  -14.4708 C   0  0  0  0  0  0  0  0  0  0  0  0
   16.5256   -9.5157  -14.3853 C   0  0  2  0  0  0  0  0  0  0  0  0
   16.9490  -10.6195  -15.1917 N   0  0  0  0  0  0  0  0  0  0  0  0
   15.2247   -8.9652  -14.7526 C   0  0  0  0  0  0  0  0  0  0  0  0
   14.7560   -9.1383  -15.8993 O   0  0  0  0  0  0  0  0  0  0  0  0
   10.0538  -11.6973  -10.1591 O   0  0  0  0  0  0  0  0  0  0  0  0
   10.5864  -10.9642  -11.2193 C   0  0  0  0  0  0  0  0  0  0  0  0
   11.5192  -11.5148  -12.0729 C   0  0  0  0  0  0  0  0  0  0  0  0
   12.0360  -10.7760  -13.1167 C   0  0  0  0  0  0  0  0  0  0  0  0
   11.6560   -9.4693  -13.3611 C   0  0  0  0  0  0  0  0  0  0  0  0
   12.2431   -8.7361  -14.4852 C   0  0  0  0  0  0  0  0  0  0  0  0
   13.1844   -7.6295  -14.0913 C   0  0  2  0  0  0  0  0  0  0  0  0
   14.4752   -8.2244  -13.8073 N   0  0  0  0  0  0  0  0  0  0  0  0
   12.7020   -6.7732  -13.0065 C   0  0  0  0  0  0  0  0  0  0  0  0
   13.3437   -6.6355  -11.7850 O   0  0  0  0  0  0  0  0  0  0  0  0
   10.7172   -8.9209  -12.4989 C   0  0  0  0  0  0  0  0  0  0  0  0
   10.2001   -9.6615  -11.4538 C   0  0  0  0  0  0  0  0  0  0  0  0
   11.6441   -6.1154  -13.1733 O   0  0  0  0  0  0  0  0  0  0  0  0
  2  3  1  0
  2  1  1  1
  3  4  1  0
  5  2  1  0
  6  5  2  0
  7  8  1  0
  9  8  1  6
  9 11  1  0
  9 10  1  0
 10  5  1  0
 11 12  2  0
 14 13  1  0
 15 14  2  0
 16 15  1  0
 17 23  1  0
 17 16  2  0
 18 17  1  0
 19 18  1  1
 20 19  1  0
 20 11  1  0
 21 19  1  0
 22 21  1  0
 23 24  2  0
 24 14  1  0
 25 21  2  0
M  END
$$$$
