CSY.pdb
     RDKit          3D

 25 25  0  0  1  0  0  0  0  0999 V2000
   19.6923  -21.4028  -12.2084 N   0  0  0  0  0  0  0  0  0  0  0  0
   20.3261  -21.6406  -13.4695 C   0  0  1  0  0  0  0  0  0  0  0  0
   19.5331  -21.1549  -14.6525 C   0  0  0  0  0  0  0  0  0  0  0  0
   18.0354  -22.2082  -14.7465 S   0  0  0  0  0  0  0  0  0  0  0  0
   21.7035  -21.1192  -13.4331 C   0  0  0  0  0  0  0  0  0  0  0  0
   22.0175  -20.0181  -12.8993 O   0  0  0  0  0  0  0  0  0  0  0  0
   26.3402  -21.9597  -14.3966 O   0  0  0  0  0  0  0  0  0  0  0  0
   25.0508  -22.4574  -14.4197 C   0  0  0  0  0  0  0  0  0  0  0  0
   24.0896  -21.2903  -14.1586 C   0  0  2  0  0  0  0  0  0  0  0  0
   22.7824  -21.8550  -14.0165 N   0  0  0  0  0  0  0  0  0  0  0  0
   24.1948  -20.2679  -15.1949 C   0  0  0  0  0  0  0  0  0  0  0  0
   23.5240  -20.3503  -16.2473 O   0  0  0  0  0  0  0  0  0  0  0  0
   27.4873  -12.8642  -19.0083 O   0  0  0  0  0  0  0  0  0  0  0  0
   27.1295  -13.8839  -18.1268 C   0  0  0  0  0  0  0  0  0  0  0  0
   25.8794  -13.9216  -17.5454 C   0  0  0  0  0  0  0  0  0  0  0  0
   25.5415  -14.9373  -16.6756 C   0  0  0  0  0  0  0  0  0  0  0  0
   26.4185  -15.9537  -16.3444 C   0  0  0  0  0  0  0  0  0  0  0  0
   26.0009  -17.0036  -15.4122 C   0  0  0  0  0  0  0  0  0  0  0  0
   25.3754  -18.2089  -16.0615 C   0  0  2  0  0  0  0  0  0  0  0  0
   25.0640  -19.1646  -15.0173 N   0  0  0  0  0  0  0  0  0  0  0  0
   26.1595  -18.7927  -17.1512 C   0  0  0  0  0  0  0  0  0  0  0  0
   27.2033  -19.6858  -16.9618 O   0  0  0  0  0  0  0  0  0  0  0  0
   27.6746  -15.9103  -16.9325 C   0  0  0  0  0  0  0  0  0  0  0  0
   28.0122  -14.8927  -17.8035 C   0  0  0  0  0  0  0  0  0  0  0  0
   25.8853  -18.4777  -18.3365 O   0  0  0  0  0  0  0  0  0  0  0  0
  2  3  1  0
  2  1  1  1
  3  4  1  0
  5  2  1  0
  6  5  2  0
  7  8  1  0
  9  8  1  6
  9 11  1  0
  9 10  1  0
 10  5  1  0
 11 12  2  0
 14 13  1  0
 15 14  2  0
 16 15  1  0
 17 23  1  0
 17 16  2  0
 18 17  1  0
 19 18  1  1
 20 19  1  0
 20 11  1  0
 21 19  1  0
 22 21  1  0
 23 24  2  0
 24 14  1  0
 25 21  2  0
M  END
$$$$
