TVC.pdb
     RDKit          3D

 21 20  0  0  1  0  0  0  0  0999 V2000
    8.1397  -17.5248   22.2539 C   0  0  0  0  0  0  0  0  0  0  0  0
    8.4289  -16.4948   21.2097 C   0  0  1  0  0  0  0  0  0  0  0  0
    8.0207  -17.0050   19.9798 O   0  0  0  0  0  0  0  0  0  0  0  0
    7.6944  -15.2138   21.5374 C   0  0  2  0  0  0  0  0  0  0  0  0
    7.7062  -14.3195   20.4023 N   0  0  0  0  0  0  0  0  0  0  0  0
    8.2606  -14.5337   22.7231 C   0  0  0  0  0  0  0  0  0  0  0  0
    9.2445  -13.7647   22.6321 O   0  0  0  0  0  0  0  0  0  0  0  0
    6.1165  -14.5238   26.4117 C   0  0  0  0  0  0  0  0  0  0  0  0
    7.2545  -13.5866   26.1229 C   0  0  2  0  0  0  0  0  0  0  0  0
    6.6668  -12.3272   25.5225 C   0  0  0  0  0  0  0  0  0  0  0  0
    8.3036  -14.1908   25.2270 C   0  0  2  0  0  0  0  0  0  0  0  0
    7.7026  -14.7291   24.0287 N   0  0  0  0  0  0  0  0  0  0  0  0
    9.1000  -15.2370   25.8947 C   0  0  0  0  0  0  0  0  0  0  0  0
    9.0467  -16.4045   25.4497 O   0  0  0  0  0  0  0  0  0  0  0  0
    9.9091  -14.9367   27.0141 N   0  0  0  0  0  0  0  0  0  0  0  0
   10.8571  -15.8976   27.4860 C   0  0  1  0  0  0  0  0  0  0  0  0
   11.6530  -15.4013   28.6728 C   0  0  0  0  0  0  0  0  0  0  0  0
   10.8858  -13.8190   29.1919 S   0  0  0  0  0  0  0  0  0  0  0  0
   10.0981  -17.0867   27.9508 C   0  0  0  0  0  0  0  0  0  0  0  0
   10.7138  -18.2373   28.3865 O   0  0  0  0  0  0  0  0  0  0  0  0
    8.8451  -17.0225   27.9393 O   0  0  0  0  0  0  0  0  0  0  0  0
  2  4  1  0
  2  1  1  1
  3  2  1  0
  4  5  1  6
  6  4  1  0
  7  6  2  0
  9  8  1  6
  9 11  1  0
 10  9  1  0
 11 13  1  0
 11 12  1  6
 12  6  1  0
 13 15  1  0
 14 13  2  0
 15 16  1  0
 16 17  1  1
 16 19  1  0
 17 18  1  0
 19 21  2  0
 19 20  1  0
M  END
$$$$
