TVC.pdb
     RDKit          3D

 21 20  0  0  1  0  0  0  0  0999 V2000
    6.0799  -14.0402   19.4225 C   0  0  0  0  0  0  0  0  0  0  0  0
    6.7419  -14.3527   20.7259 C   0  0  1  0  0  0  0  0  0  0  0  0
    7.6683  -15.3686   20.5034 O   0  0  0  0  0  0  0  0  0  0  0  0
    7.4159  -13.1118   21.2678 C   0  0  2  0  0  0  0  0  0  0  0  0
    8.3815  -12.6056   20.3193 N   0  0  0  0  0  0  0  0  0  0  0  0
    8.0688  -13.3562   22.5728 C   0  0  0  0  0  0  0  0  0  0  0  0
    9.3000  -13.5659   22.6626 O   0  0  0  0  0  0  0  0  0  0  0  0
    5.6556  -13.3240   26.1417 C   0  0  0  0  0  0  0  0  0  0  0  0
    7.1119  -12.9568   26.1760 C   0  0  2  0  0  0  0  0  0  0  0  0
    7.2034  -11.4474   26.1035 C   0  0  0  0  0  0  0  0  0  0  0  0
    7.9121  -13.6142   25.0823 C   0  0  2  0  0  0  0  0  0  0  0  0
    7.3144  -13.3626   23.7915 N   0  0  0  0  0  0  0  0  0  0  0  0
    8.0737  -15.0668   25.2787 C   0  0  0  0  0  0  0  0  0  0  0  0
    7.1160  -15.8189   24.9941 O   0  0  0  0  0  0  0  0  0  0  0  0
    9.2810  -15.6069   25.7773 N   0  0  0  0  0  0  0  0  0  0  0  0
    9.4114  -17.0205   25.9494 C   0  0  1  0  0  0  0  0  0  0  0  0
   10.5283  -17.6113   25.1178 C   0  0  0  0  0  0  0  0  0  0  0  0
   11.9340  -16.4388   25.2219 S   0  0  0  0  0  0  0  0  0  0  0  0
    9.7627  -17.2694   27.3709 C   0  0  0  0  0  0  0  0  0  0  0  0
    9.9369  -18.5346   27.8825 O   0  0  0  0  0  0  0  0  0  0  0  0
    9.9027  -16.2743   28.1221 O   0  0  0  0  0  0  0  0  0  0  0  0
  2  4  1  0
  2  1  1  6
  3  2  1  0
  4  5  1  6
  6  4  1  0
  7  6  2  0
  9  8  1  6
  9 11  1  0
 10  9  1  0
 11 13  1  0
 11 12  1  6
 12  6  1  0
 13 15  1  0
 14 13  2  0
 15 16  1  0
 16 17  1  6
 16 19  1  0
 17 18  1  0
 19 21  2  0
 19 20  1  0
M  END
$$$$
