TVC.pdb
     RDKit          3D

 21 20  0  0  1  0  0  0  0  0999 V2000
    6.9747  -17.5138   23.4232 C   0  0  0  0  0  0  0  0  0  0  0  0
    7.7181  -16.9549   22.2528 C   0  0  1  0  0  0  0  0  0  0  0  0
    7.2552  -17.5949   21.1057 O   0  0  0  0  0  0  0  0  0  0  0  0
    7.4937  -15.4614   22.1699 C   0  0  2  0  0  0  0  0  0  0  0  0
    8.0159  -14.9397   20.9276 N   0  0  0  0  0  0  0  0  0  0  0  0
    8.0964  -14.7423   23.3138 C   0  0  0  0  0  0  0  0  0  0  0  0
    9.2964  -14.3847   23.3067 O   0  0  0  0  0  0  0  0  0  0  0  0
    6.3918  -11.7764   25.5142 C   0  0  0  0  0  0  0  0  0  0  0  0
    6.8610  -12.9388   26.3424 C   0  0  2  0  0  0  0  0  0  0  0  0
    7.3851  -12.3848   27.6502 C   0  0  0  0  0  0  0  0  0  0  0  0
    7.8947  -13.7822   25.6433 C   0  0  2  0  0  0  0  0  0  0  0  0
    7.3271  -14.4250   24.4808 N   0  0  0  0  0  0  0  0  0  0  0  0
    8.5027  -14.7973   26.5233 C   0  0  0  0  0  0  0  0  0  0  0  0
    7.7735  -15.7019   26.9858 O   0  0  0  0  0  0  0  0  0  0  0  0
    9.8790  -14.7574   26.8430 N   0  0  0  0  0  0  0  0  0  0  0  0
   10.4476  -15.7749   27.6713 C   0  0  1  0  0  0  0  0  0  0  0  0
   11.9051  -16.0358   27.3616 C   0  0  0  0  0  0  0  0  0  0  0  0
   12.0087  -16.3456   25.5574 S   0  0  0  0  0  0  0  0  0  0  0  0
   10.3911  -15.2946   29.0756 C   0  0  0  0  0  0  0  0  0  0  0  0
   10.7049  -16.0968   30.1484 O   0  0  0  0  0  0  0  0  0  0  0  0
   10.0411  -14.1062   29.2741 O   0  0  0  0  0  0  0  0  0  0  0  0
  2  4  1  0
  2  1  1  1
  3  2  1  0
  4  5  1  6
  6  4  1  0
  7  6  2  0
  9  8  1  6
  9 11  1  0
 10  9  1  0
 11 13  1  0
 11 12  1  6
 12  6  1  0
 13 15  1  0
 14 13  2  0
 15 16  1  0
 16 17  1  6
 16 19  1  0
 17 18  1  0
 19 21  2  0
 19 20  1  0
M  END
$$$$
