TVC.pdb
     RDKit          3D

 21 20  0  0  1  0  0  0  0  0999 V2000
    6.4014  -17.0359   20.6321 C   0  0  0  0  0  0  0  0  0  0  0  0
    7.0523  -16.6325   21.9160 C   0  0  1  0  0  0  0  0  0  0  0  0
    8.1405  -17.4754   22.1282 O   0  0  0  0  0  0  0  0  0  0  0  0
    7.4919  -15.1875   21.8348 C   0  0  2  0  0  0  0  0  0  0  0  0
    8.4128  -15.0001   20.7371 N   0  0  0  0  0  0  0  0  0  0  0  0
    8.1066  -14.7196   23.0965 C   0  0  0  0  0  0  0  0  0  0  0  0
    9.3488  -14.6377   23.2315 O   0  0  0  0  0  0  0  0  0  0  0  0
    6.3711  -11.8592   25.4977 C   0  0  0  0  0  0  0  0  0  0  0  0
    6.8512  -13.0735   26.2408 C   0  0  2  0  0  0  0  0  0  0  0  0
    7.4082  -12.6049   27.5682 C   0  0  0  0  0  0  0  0  0  0  0  0
    7.8632  -13.8769   25.4671 C   0  0  2  0  0  0  0  0  0  0  0  0
    7.3010  -14.3397   24.2194 N   0  0  0  0  0  0  0  0  0  0  0  0
    8.3930  -15.0239   26.2274 C   0  0  0  0  0  0  0  0  0  0  0  0
    7.6673  -16.0320   26.3722 O   0  0  0  0  0  0  0  0  0  0  0  0
    9.6918  -14.9944   26.7844 N   0  0  0  0  0  0  0  0  0  0  0  0
   10.2439  -16.1776   27.3673 C   0  0  1  0  0  0  0  0  0  0  0  0
   11.6310  -16.4921   26.8523 C   0  0  0  0  0  0  0  0  0  0  0  0
   12.5640  -14.9138   26.8661 S   0  0  0  0  0  0  0  0  0  0  0  0
   10.3768  -15.9392   28.8273 C   0  0  0  0  0  0  0  0  0  0  0  0
   10.7794  -16.9181   29.7063 O   0  0  0  0  0  0  0  0  0  0  0  0
   10.1071  -14.7928   29.2601 O   0  0  0  0  0  0  0  0  0  0  0  0
  2  4  1  0
  2  1  1  6
  3  2  1  0
  4  5  1  6
  6  4  1  0
  7  6  2  0
  9  8  1  6
  9 11  1  0
 10  9  1  0
 11 13  1  0
 11 12  1  6
 12  6  1  0
 13 15  1  0
 14 13  2  0
 15 16  1  0
 16 17  1  6
 16 19  1  0
 17 18  1  0
 19 21  2  0
 19 20  1  0
M  END
$$$$
