TVC.pdb
     RDKit          3D

 21 20  0  0  1  0  0  0  0  0999 V2000
    6.3190  -16.7548   20.5564 C   0  0  0  0  0  0  0  0  0  0  0  0
    6.9978  -16.2857   21.8031 C   0  0  1  0  0  0  0  0  0  0  0  0
    8.1939  -16.9879   21.9300 O   0  0  0  0  0  0  0  0  0  0  0  0
    7.2481  -14.7964   21.7200 C   0  0  2  0  0  0  0  0  0  0  0  0
    8.0270  -14.4793   20.5447 N   0  0  0  0  0  0  0  0  0  0  0  0
    7.9225  -14.2756   22.9295 C   0  0  0  0  0  0  0  0  0  0  0  0
    9.1605  -14.0907   22.9634 O   0  0  0  0  0  0  0  0  0  0  0  0
    6.3490  -11.5895   25.6782 C   0  0  0  0  0  0  0  0  0  0  0  0
    6.8469  -12.8806   26.2633 C   0  0  2  0  0  0  0  0  0  0  0  0
    7.4657  -12.5631   27.6080 C   0  0  0  0  0  0  0  0  0  0  0  0
    7.8157  -13.6014   25.3632 C   0  0  2  0  0  0  0  0  0  0  0  0
    7.1822  -13.9607   24.1156 N   0  0  0  0  0  0  0  0  0  0  0  0
    8.3983  -14.8038   25.9872 C   0  0  0  0  0  0  0  0  0  0  0  0
    7.6804  -15.8200   26.1124 O   0  0  0  0  0  0  0  0  0  0  0  0
    9.7381  -14.8173   26.4371 N   0  0  0  0  0  0  0  0  0  0  0  0
   10.2752  -15.9975   27.0401 C   0  0  1  0  0  0  0  0  0  0  0  0
   11.6650  -16.3288   26.5432 C   0  0  0  0  0  0  0  0  0  0  0  0
   12.2298  -17.7854   27.5029 S   0  0  0  0  0  0  0  0  0  0  0  0
   10.3950  -15.7423   28.4984 C   0  0  0  0  0  0  0  0  0  0  0  0
   10.1754  -16.7175   29.4437 O   0  0  0  0  0  0  0  0  0  0  0  0
   10.7102  -14.5848   28.8660 O   0  0  0  0  0  0  0  0  0  0  0  0
  2  4  1  0
  2  1  1  6
  3  2  1  0
  4  5  1  6
  6  4  1  0
  7  6  2  0
  9  8  1  6
  9 11  1  0
 10  9  1  0
 11 13  1  0
 11 12  1  6
 12  6  1  0
 13 15  1  0
 14 13  2  0
 15 16  1  0
 16 17  1  6
 16 19  1  0
 17 18  1  0
 19 21  2  0
 19 20  1  0
M  END
$$$$
