TVC.pdb
     RDKit          3D

 21 20  0  0  1  0  0  0  0  0999 V2000
    6.5161  -19.0637   16.6835 C   0  0  0  0  0  0  0  0  0  0  0  0
    7.3457  -18.4280   17.7524 C   0  0  1  0  0  0  0  0  0  0  0  0
    8.3337  -19.3362   18.1251 O   0  0  0  0  0  0  0  0  0  0  0  0
    7.9552  -17.1452   17.2320 C   0  0  2  0  0  0  0  0  0  0  0  0
    8.7759  -17.4093   16.0723 N   0  0  0  0  0  0  0  0  0  0  0  0
    8.7498  -16.4456   18.2655 C   0  0  0  0  0  0  0  0  0  0  0  0
    9.9979  -16.5369   18.3084 O   0  0  0  0  0  0  0  0  0  0  0  0
    6.7436  -14.0979   21.3358 C   0  0  0  0  0  0  0  0  0  0  0  0
    8.0528  -13.6921   20.7205 C   0  0  2  0  0  0  0  0  0  0  0  0
    7.7483  -12.7208   19.5999 C   0  0  0  0  0  0  0  0  0  0  0  0
    8.8642  -14.8639   20.2337 C   0  0  2  0  0  0  0  0  0  0  0  0
    8.1195  -15.6319   19.2630 N   0  0  0  0  0  0  0  0  0  0  0  0
    9.3140  -15.7478   21.3251 C   0  0  0  0  0  0  0  0  0  0  0  0
    8.6216  -16.7504   21.6065 O   0  0  0  0  0  0  0  0  0  0  0  0
   10.5007  -15.4763   22.0434 N   0  0  0  0  0  0  0  0  0  0  0  0
   11.0099  -16.4406   22.9683 C   0  0  1  0  0  0  0  0  0  0  0  0
   12.4754  -16.2349   23.2817 C   0  0  0  0  0  0  0  0  0  0  0  0
   12.9497  -17.5603   24.4564 S   0  0  0  0  0  0  0  0  0  0  0  0
   10.2739  -16.2689   24.2470 C   0  0  0  0  0  0  0  0  0  0  0  0
   10.0413  -17.3099   25.1159 O   0  0  0  0  0  0  0  0  0  0  0  0
    9.8539  -15.1212   24.5310 O   0  0  0  0  0  0  0  0  0  0  0  0
  2  4  1  0
  2  1  1  6
  3  2  1  0
  4  5  1  6
  6  4  1  0
  7  6  2  0
  9  8  1  6
  9 11  1  0
 10  9  1  0
 11 13  1  0
 11 12  1  6
 12  6  1  0
 13 15  1  0
 14 13  2  0
 15 16  1  0
 16 17  1  1
 16 19  1  0
 17 18  1  0
 19 21  2  0
 19 20  1  0
M  END
$$$$
