TVC.pdb
     RDKit          3D

 21 20  0  0  1  0  0  0  0  0999 V2000
    6.6647  -16.8633   22.3283 C   0  0  0  0  0  0  0  0  0  0  0  0
    7.4932  -16.1113   21.3369 C   0  0  1  0  0  0  0  0  0  0  0  0
    7.0608  -16.4648   20.0610 O   0  0  0  0  0  0  0  0  0  0  0  0
    7.3437  -14.6241   21.5686 C   0  0  2  0  0  0  0  0  0  0  0  0
    7.9180  -13.8809   20.4703 N   0  0  0  0  0  0  0  0  0  0  0  0
    7.9556  -14.1940   22.8451 C   0  0  0  0  0  0  0  0  0  0  0  0
    9.1868  -13.9903   22.9480 O   0  0  0  0  0  0  0  0  0  0  0  0
    6.3272  -11.6585   25.5631 C   0  0  0  0  0  0  0  0  0  0  0  0
    6.7623  -12.9577   26.1793 C   0  0  2  0  0  0  0  0  0  0  0  0
    7.3505  -12.6434   27.5383 C   0  0  0  0  0  0  0  0  0  0  0  0
    7.7325  -13.7233   25.3185 C   0  0  2  0  0  0  0  0  0  0  0  0
    7.1597  -13.9926   24.0200 N   0  0  0  0  0  0  0  0  0  0  0  0
    8.1786  -14.9866   25.9347 C   0  0  0  0  0  0  0  0  0  0  0  0
    7.3556  -15.9217   26.0445 O   0  0  0  0  0  0  0  0  0  0  0  0
    9.5055  -15.1467   26.3946 N   0  0  0  0  0  0  0  0  0  0  0  0
    9.9007  -16.3720   27.0169 C   0  0  1  0  0  0  0  0  0  0  0  0
   11.1594  -16.9558   26.4144 C   0  0  0  0  0  0  0  0  0  0  0  0
   10.8512  -17.1166   24.6142 S   0  0  0  0  0  0  0  0  0  0  0  0
   10.2089  -16.0745   28.4391 C   0  0  0  0  0  0  0  0  0  0  0  0
   10.5249  -17.0545   29.3515 O   0  0  0  0  0  0  0  0  0  0  0  0
   10.1753  -14.8754   28.8068 O   0  0  0  0  0  0  0  0  0  0  0  0
  2  4  1  0
  2  1  1  1
  3  2  1  0
  4  5  1  6
  6  4  1  0
  7  6  2  0
  9  8  1  6
  9 11  1  0
 10  9  1  0
 11 13  1  0
 11 12  1  6
 12  6  1  0
 13 15  1  0
 14 13  2  0
 15 16  1  0
 16 17  1  6
 16 19  1  0
 17 18  1  0
 19 21  2  0
 19 20  1  0
M  END
$$$$
