TVC.pdb
     RDKit          3D

 21 20  0  0  1  0  0  0  0  0999 V2000
    7.2956  -16.7457   21.9342 C   0  0  0  0  0  0  0  0  0  0  0  0
    8.0126  -15.7169   21.1204 C   0  0  1  0  0  0  0  0  0  0  0  0
    7.7477  -15.9721   19.7771 O   0  0  0  0  0  0  0  0  0  0  0  0
    7.5423  -14.3343   21.5140 C   0  0  2  0  0  0  0  0  0  0  0  0
    7.9126  -13.3680   20.5053 N   0  0  0  0  0  0  0  0  0  0  0  0
    8.0719  -13.9187   22.8314 C   0  0  0  0  0  0  0  0  0  0  0  0
    9.2145  -13.4210   22.9530 O   0  0  0  0  0  0  0  0  0  0  0  0
    6.0596  -11.9879   25.7000 C   0  0  0  0  0  0  0  0  0  0  0  0
    6.7054  -13.2372   26.2285 C   0  0  2  0  0  0  0  0  0  0  0  0
    7.2108  -12.9343   27.6230 C   0  0  0  0  0  0  0  0  0  0  0  0
    7.8061  -13.7537   25.3396 C   0  0  2  0  0  0  0  0  0  0  0  0
    7.2947  -14.0702   24.0261 N   0  0  0  0  0  0  0  0  0  0  0  0
    8.4957  -14.9308   25.8994 C   0  0  0  0  0  0  0  0  0  0  0  0
    8.0842  -16.0697   25.5871 O   0  0  0  0  0  0  0  0  0  0  0  0
    9.5988  -14.7855   26.7711 N   0  0  0  0  0  0  0  0  0  0  0  0
   10.4114  -15.9189   27.0868 C   0  0  1  0  0  0  0  0  0  0  0  0
   11.7351  -15.5354   27.7103 C   0  0  0  0  0  0  0  0  0  0  0  0
   12.0404  -13.7860   27.2541 S   0  0  0  0  0  0  0  0  0  0  0  0
    9.6831  -16.7260   28.0989 C   0  0  0  0  0  0  0  0  0  0  0  0
   10.1251  -17.9571   28.5255 O   0  0  0  0  0  0  0  0  0  0  0  0
    8.6234  -16.2511   28.5740 O   0  0  0  0  0  0  0  0  0  0  0  0
  2  4  1  0
  2  1  1  1
  3  2  1  0
  4  5  1  6
  6  4  1  0
  7  6  2  0
  9  8  1  6
  9 11  1  0
 10  9  1  0
 11 13  1  0
 11 12  1  6
 12  6  1  0
 13 15  1  0
 14 13  2  0
 15 16  1  0
 16 17  1  1
 16 19  1  0
 17 18  1  0
 19 21  2  0
 19 20  1  0
M  END
$$$$
