TVC.pdb
     RDKit          3D

 21 20  0  0  1  0  0  0  0  0999 V2000
    6.6229  -17.6427   23.5286 C   0  0  0  0  0  0  0  0  0  0  0  0
    7.2682  -17.1464   22.2747 C   0  0  1  0  0  0  0  0  0  0  0  0
    6.6326  -17.7555   21.1955 O   0  0  0  0  0  0  0  0  0  0  0  0
    7.1462  -15.6407   22.1980 C   0  0  2  0  0  0  0  0  0  0  0  0
    7.6173  -15.1597   20.9194 N   0  0  0  0  0  0  0  0  0  0  0  0
    7.8766  -14.9652   23.2931 C   0  0  0  0  0  0  0  0  0  0  0  0
    9.1150  -14.7867   23.2447 O   0  0  0  0  0  0  0  0  0  0  0  0
    6.4335  -11.9017   25.6435 C   0  0  0  0  0  0  0  0  0  0  0  0
    6.9648  -13.0739   26.4187 C   0  0  2  0  0  0  0  0  0  0  0  0
    7.6569  -12.5300   27.6504 C   0  0  0  0  0  0  0  0  0  0  0  0
    7.8830  -13.9502   25.6079 C   0  0  2  0  0  0  0  0  0  0  0  0
    7.1924  -14.4863   24.4579 N   0  0  0  0  0  0  0  0  0  0  0  0
    8.4698  -15.0528   26.3918 C   0  0  0  0  0  0  0  0  0  0  0  0
    7.7213  -15.9783   26.7753 O   0  0  0  0  0  0  0  0  0  0  0  0
    9.8473  -15.0722   26.7080 N   0  0  0  0  0  0  0  0  0  0  0  0
   10.4089  -16.2051   27.3757 C   0  0  1  0  0  0  0  0  0  0  0  0
   11.8518  -16.4535   26.9953 C   0  0  0  0  0  0  0  0  0  0  0  0
   12.7038  -14.8328   27.0905 S   0  0  0  0  0  0  0  0  0  0  0  0
   10.3970  -15.9190   28.8332 C   0  0  0  0  0  0  0  0  0  0  0  0
   10.7598  -16.8525   29.7764 O   0  0  0  0  0  0  0  0  0  0  0  0
   10.0390  -14.7745   29.2021 O   0  0  0  0  0  0  0  0  0  0  0  0
  2  4  1  0
  2  1  1  1
  3  2  1  0
  4  5  1  6
  6  4  1  0
  7  6  2  0
  9  8  1  6
  9 11  1  0
 10  9  1  0
 11 13  1  0
 11 12  1  6
 12  6  1  0
 13 15  1  0
 14 13  2  0
 15 16  1  0
 16 17  1  6
 16 19  1  0
 17 18  1  0
 19 21  2  0
 19 20  1  0
M  END
$$$$
