TVC.pdb
     RDKit          3D

 21 20  0  0  1  0  0  0  0  0999 V2000
    8.7089  -18.2270   22.5647 C   0  0  0  0  0  0  0  0  0  0  0  0
    9.5639  -17.4756   21.5955 C   0  0  1  0  0  0  0  0  0  0  0  0
    9.4359  -18.0844   20.3494 O   0  0  0  0  0  0  0  0  0  0  0  0
    9.1255  -16.0290   21.5412 C   0  0  2  0  0  0  0  0  0  0  0  0
    9.8412  -15.3223   20.5035 N   0  0  0  0  0  0  0  0  0  0  0  0
    9.3070  -15.3419   22.8388 C   0  0  0  0  0  0  0  0  0  0  0  0
   10.4206  -14.8938   23.1951 O   0  0  0  0  0  0  0  0  0  0  0  0
    6.4471  -12.9386   24.5893 C   0  0  0  0  0  0  0  0  0  0  0  0
    7.0249  -13.9818   25.5031 C   0  0  2  0  0  0  0  0  0  0  0  0
    7.1324  -13.3697   26.8835 C   0  0  0  0  0  0  0  0  0  0  0  0
    8.3512  -14.5137   25.0273 C   0  0  2  0  0  0  0  0  0  0  0  0
    8.2102  -15.1612   23.7437 N   0  0  0  0  0  0  0  0  0  0  0  0
    8.9774  -15.4437   25.9851 C   0  0  0  0  0  0  0  0  0  0  0  0
    8.7098  -16.6622   25.8977 O   0  0  0  0  0  0  0  0  0  0  0  0
    9.8622  -14.9779   26.9841 N   0  0  0  0  0  0  0  0  0  0  0  0
   10.7591  -15.8901   27.6229 C   0  0  1  0  0  0  0  0  0  0  0  0
   11.7569  -15.1966   28.5238 C   0  0  0  0  0  0  0  0  0  0  0  0
   10.7965  -14.0451   29.5789 S   0  0  0  0  0  0  0  0  0  0  0  0
    9.9494  -16.7813   28.4926 C   0  0  0  0  0  0  0  0  0  0  0  0
   10.4923  -17.8430   29.1790 O   0  0  0  0  0  0  0  0  0  0  0  0
    8.7219  -16.5422   28.5944 O   0  0  0  0  0  0  0  0  0  0  0  0
  2  4  1  0
  2  1  1  1
  3  2  1  0
  4  5  1  6
  6  4  1  0
  7  6  2  0
  9  8  1  6
  9 11  1  0
 10  9  1  0
 11 13  1  0
 11 12  1  6
 12  6  1  0
 13 15  1  0
 14 13  2  0
 15 16  1  0
 16 17  1  1
 16 19  1  0
 17 18  1  0
 19 21  2  0
 19 20  1  0
M  END
$$$$
