LCT.pdb
     RDKit          3D

 22 21  0  0  1  0  0  0  0  0999 V2000
    9.2374  -12.8658   19.2128 C   0  0  0  0  0  0  0  0  0  0  0  0
    7.9183  -13.5661   19.1853 C   0  0  2  0  0  0  0  0  0  0  0  0
    6.8948  -12.6216   18.6107 C   0  0  0  0  0  0  0  0  0  0  0  0
    7.5021  -14.1882   20.4650 C   0  0  0  0  0  0  0  0  0  0  0  0
    8.5006  -15.1029   21.1033 C   0  0  2  0  0  0  0  0  0  0  0  0
    8.8432  -16.2390   20.3057 N   0  0  0  0  0  0  0  0  0  0  0  0
    8.1613  -15.4265   22.5125 C   0  0  0  0  0  0  0  0  0  0  0  0
    7.8094  -14.4591   23.2404 O   0  0  0  0  0  0  0  0  0  0  0  0
    8.2128  -16.7339   23.0633 N   0  0  0  0  0  0  0  0  0  0  0  0
    7.8316  -16.9314   24.4196 C   0  0  1  0  0  0  0  0  0  0  0  0
    7.3323  -18.3613   24.5738 C   0  0  0  0  0  0  0  0  0  0  0  0
    7.0475  -18.8034   26.2967 S   0  0  0  0  0  0  0  0  0  0  0  0
    8.9059  -16.6300   25.3922 C   0  0  0  0  0  0  0  0  0  0  0  0
   10.0965  -16.9831   25.2692 O   0  0  0  0  0  0  0  0  0  0  0  0
   10.2347  -13.8410   29.2141 C   0  0  0  0  0  0  0  0  0  0  0  0
    9.0593  -14.2900   28.3675 C   0  0  1  0  0  0  0  0  0  0  0  0
    8.7787  -13.2270   27.4960 O   0  0  0  0  0  0  0  0  0  0  0  0
    9.5116  -15.4693   27.5560 C   0  0  2  0  0  0  0  0  0  0  0  0
    8.5791  -15.8848   26.5587 N   0  0  0  0  0  0  0  0  0  0  0  0
    9.9232  -16.6014   28.3901 C   0  0  0  0  0  0  0  0  0  0  0  0
   11.1261  -16.6687   29.0778 O   0  0  0  0  0  0  0  0  0  0  0  0
    9.1566  -17.5949   28.5113 O   0  0  0  0  0  0  0  0  0  0  0  0
  2  1  1  1
  2  4  1  0
  3  2  1  0
  4  5  1  0
  5  6  1  6
  5  7  1  0
  7  8  2  0
  9  7  1  0
  9 10  1  0
 10 11  1  6
 11 12  1  0
 13 10  1  0
 13 19  1  0
 14 13  2  0
 16 15  1  1
 16 17  1  0
 18 19  1  6
 18 16  1  0
 20 18  1  0
 20 21  1  0
 22 20  2  0
M  END
$$$$
