LCT.pdb
     RDKit          3D

 22 21  0  0  1  0  0  0  0  0999 V2000
    5.5775  -17.7639   19.6413 C   0  0  0  0  0  0  0  0  0  0  0  0
    6.3014  -16.4633   19.7670 C   0  0  2  0  0  0  0  0  0  0  0  0
    7.2595  -16.3433   18.6105 C   0  0  0  0  0  0  0  0  0  0  0  0
    6.9265  -16.2087   21.0869 C   0  0  0  0  0  0  0  0  0  0  0  0
    7.2079  -14.7748   21.4121 C   0  0  2  0  0  0  0  0  0  0  0  0
    7.8523  -14.0541   20.3587 N   0  0  0  0  0  0  0  0  0  0  0  0
    7.8407  -14.6037   22.7447 C   0  0  0  0  0  0  0  0  0  0  0  0
    9.0994  -14.5348   22.7626 O   0  0  0  0  0  0  0  0  0  0  0  0
    7.1179  -14.5168   23.9635 N   0  0  0  0  0  0  0  0  0  0  0  0
    7.8285  -14.5475   25.1957 C   0  0  1  0  0  0  0  0  0  0  0  0
    6.9247  -13.9852   26.2841 C   0  0  0  0  0  0  0  0  0  0  0  0
    6.3689  -12.3123   25.9139 S   0  0  0  0  0  0  0  0  0  0  0  0
    8.3362  -15.8895   25.5594 C   0  0  0  0  0  0  0  0  0  0  0  0
    7.6602  -16.9381   25.5292 O   0  0  0  0  0  0  0  0  0  0  0  0
   12.1369  -18.8434   25.8229 C   0  0  0  0  0  0  0  0  0  0  0  0
   11.6097  -17.4659   25.4699 C   0  0  1  0  0  0  0  0  0  0  0  0
   11.2819  -17.5120   24.1066 O   0  0  0  0  0  0  0  0  0  0  0  0
   10.3512  -17.2482   26.2590 C   0  0  2  0  0  0  0  0  0  0  0  0
    9.6900  -16.0154   25.9764 N   0  0  0  0  0  0  0  0  0  0  0  0
   10.5556  -17.4127   27.7005 C   0  0  0  0  0  0  0  0  0  0  0  0
   10.7412  -18.6354   28.3289 O   0  0  0  0  0  0  0  0  0  0  0  0
   10.5689  -16.3961   28.4461 O   0  0  0  0  0  0  0  0  0  0  0  0
  2  1  1  1
  2  4  1  0
  3  2  1  0
  4  5  1  0
  5  6  1  6
  5  7  1  0
  7  8  2  0
  9  7  1  0
  9 10  1  0
 10 11  1  1
 11 12  1  0
 13 10  1  0
 13 19  1  0
 14 13  2  0
 16 15  1  1
 16 17  1  0
 18 19  1  1
 18 16  1  0
 20 18  1  0
 20 21  1  0
 22 20  2  0
M  END
$$$$
