LCT.pdb
     RDKit          3D

 22 21  0  0  1  0  0  0  0  0999 V2000
    8.0595  -12.4120   18.5710 C   0  0  0  0  0  0  0  0  0  0  0  0
    7.8004  -13.5409   19.5144 C   0  0  2  0  0  0  0  0  0  0  0  0
    6.4379  -13.3414   20.1256 C   0  0  0  0  0  0  0  0  0  0  0  0
    8.8685  -13.7946   20.5106 C   0  0  0  0  0  0  0  0  0  0  0  0
    8.7040  -15.0248   21.3476 C   0  0  2  0  0  0  0  0  0  0  0  0
    7.4181  -15.1447   21.9608 N   0  0  0  0  0  0  0  0  0  0  0  0
    9.8445  -15.2438   22.2734 C   0  0  0  0  0  0  0  0  0  0  0  0
   10.0116  -14.3754   23.1718 O   0  0  0  0  0  0  0  0  0  0  0  0
   10.7296  -16.3512   22.1975 N   0  0  0  0  0  0  0  0  0  0  0  0
   11.8541  -16.4020   23.0676 C   0  0  1  0  0  0  0  0  0  0  0  0
   11.5121  -17.3107   24.2402 C   0  0  0  0  0  0  0  0  0  0  0  0
   12.9276  -17.5996   25.3161 S   0  0  0  0  0  0  0  0  0  0  0  0
   13.1050  -16.8312   22.4028 C   0  0  0  0  0  0  0  0  0  0  0  0
   13.3273  -17.9848   21.9818 O   0  0  0  0  0  0  0  0  0  0  0  0
   14.3341  -15.4643   19.4432 C   0  0  0  0  0  0  0  0  0  0  0  0
   15.5700  -15.2931   20.3053 C   0  0  1  0  0  0  0  0  0  0  0  0
   15.6056  -13.9390   20.6702 O   0  0  0  0  0  0  0  0  0  0  0  0
   15.3745  -16.1190   21.5438 C   0  0  2  0  0  0  0  0  0  0  0  0
   14.1419  -15.8749   22.2204 N   0  0  0  0  0  0  0  0  0  0  0  0
   16.5064  -16.0218   22.4691 C   0  0  0  0  0  0  0  0  0  0  0  0
   17.8066  -16.3894   22.1547 O   0  0  0  0  0  0  0  0  0  0  0  0
   16.3197  -15.5792   23.6347 O   0  0  0  0  0  0  0  0  0  0  0  0
  2  1  1  1
  2  4  1  0
  3  2  1  0
  4  5  1  0
  5  6  1  1
  5  7  1  0
  7  8  2  0
  9  7  1  0
  9 10  1  0
 10 11  1  1
 11 12  1  0
 13 10  1  0
 13 19  1  0
 14 13  2  0
 16 15  1  6
 16 17  1  0
 18 19  1  1
 18 16  1  0
 20 18  1  0
 20 21  1  0
 22 20  2  0
M  END
$$$$
