LCT.pdb
     RDKit          3D

 22 21  0  0  1  0  0  0  0  0999 V2000
    8.2282  -14.4448   18.2123 C   0  0  0  0  0  0  0  0  0  0  0  0
    7.6546  -13.6533   19.3419 C   0  0  2  0  0  0  0  0  0  0  0  0
    7.5222  -12.2208   18.8945 C   0  0  0  0  0  0  0  0  0  0  0  0
    8.3471  -13.8090   20.6434 C   0  0  0  0  0  0  0  0  0  0  0  0
    8.3037  -15.1777   21.2482 C   0  0  2  0  0  0  0  0  0  0  0  0
    7.0448  -15.8396   21.1022 N   0  0  0  0  0  0  0  0  0  0  0  0
    8.8549  -15.2119   22.6269 C   0  0  0  0  0  0  0  0  0  0  0  0
   10.0299  -14.7786   22.7714 O   0  0  0  0  0  0  0  0  0  0  0  0
    8.1435  -15.6949   23.7565 N   0  0  0  0  0  0  0  0  0  0  0  0
    8.7936  -15.7350   25.0213 C   0  0  1  0  0  0  0  0  0  0  0  0
    7.9162  -15.0127   26.0342 C   0  0  0  0  0  0  0  0  0  0  0  0
    7.3893  -13.3925   25.4493 S   0  0  0  0  0  0  0  0  0  0  0  0
    9.1273  -17.1027   25.4785 C   0  0  0  0  0  0  0  0  0  0  0  0
    8.3112  -18.0428   25.5649 O   0  0  0  0  0  0  0  0  0  0  0  0
   12.6378  -20.4260   25.5700 C   0  0  0  0  0  0  0  0  0  0  0  0
   12.2394  -18.9933   25.2719 C   0  0  1  0  0  0  0  0  0  0  0  0
   11.9145  -18.9554   23.9077 O   0  0  0  0  0  0  0  0  0  0  0  0
   11.0027  -18.6935   26.0685 C   0  0  2  0  0  0  0  0  0  0  0  0
   10.4699  -17.3875   25.8513 N   0  0  0  0  0  0  0  0  0  0  0  0
   11.1782  -18.9547   27.4994 C   0  0  0  0  0  0  0  0  0  0  0  0
   11.3911  -17.9700   28.4531 O   0  0  0  0  0  0  0  0  0  0  0  0
   11.1385  -20.1411   27.9239 O   0  0  0  0  0  0  0  0  0  0  0  0
  2  1  1  6
  2  4  1  0
  3  2  1  0
  4  5  1  0
  5  6  1  1
  5  7  1  0
  7  8  2  0
  9  7  1  0
  9 10  1  0
 10 11  1  1
 11 12  1  0
 13 10  1  0
 13 19  1  0
 14 13  2  0
 16 15  1  1
 16 17  1  0
 18 19  1  1
 18 16  1  0
 20 18  1  0
 20 21  1  0
 22 20  2  0
M  END
$$$$
