LCT.pdb
     RDKit          3D

 22 21  0  0  1  0  0  0  0  0999 V2000
    8.0029  -14.3528   18.2721 C   0  0  0  0  0  0  0  0  0  0  0  0
    7.9141  -13.4331   19.4458 C   0  0  2  0  0  0  0  0  0  0  0  0
    8.1112  -12.0223   18.9554 C   0  0  0  0  0  0  0  0  0  0  0  0
    8.7759  -13.7885   20.5986 C   0  0  0  0  0  0  0  0  0  0  0  0
    8.4608  -15.0859   21.2758 C   0  0  2  0  0  0  0  0  0  0  0  0
    7.1512  -15.5865   20.9955 N   0  0  0  0  0  0  0  0  0  0  0  0
    8.8161  -15.0798   22.7178 C   0  0  0  0  0  0  0  0  0  0  0  0
   10.0033  -14.7639   23.0010 O   0  0  0  0  0  0  0  0  0  0  0  0
    7.9102  -15.4032   23.7619 N   0  0  0  0  0  0  0  0  0  0  0  0
    8.3864  -15.4601   25.1013 C   0  0  1  0  0  0  0  0  0  0  0  0
    7.3837  -14.7460   25.9971 C   0  0  0  0  0  0  0  0  0  0  0  0
    6.7999  -13.2028   25.2744 S   0  0  0  0  0  0  0  0  0  0  0  0
    8.6531  -16.8342   25.5827 C   0  0  0  0  0  0  0  0  0  0  0  0
    7.7731  -17.6771   25.8519 O   0  0  0  0  0  0  0  0  0  0  0  0
   10.6676  -19.0515   23.6426 C   0  0  0  0  0  0  0  0  0  0  0  0
   11.3647  -19.1409   24.9866 C   0  0  1  0  0  0  0  0  0  0  0  0
   12.4878  -18.3048   24.8990 O   0  0  0  0  0  0  0  0  0  0  0  0
   10.4290  -18.5812   26.0187 C   0  0  2  0  0  0  0  0  0  0  0  0
   10.0037  -17.2441   25.7581 N   0  0  0  0  0  0  0  0  0  0  0  0
   10.9542  -18.7062   27.3807 C   0  0  0  0  0  0  0  0  0  0  0  0
   11.2103  -19.9148   28.0117 O   0  0  0  0  0  0  0  0  0  0  0  0
   11.1998  -17.6661   28.0497 O   0  0  0  0  0  0  0  0  0  0  0  0
  2  1  1  6
  2  4  1  0
  3  2  1  0
  4  5  1  0
  5  6  1  1
  5  7  1  0
  7  8  2  0
  9  7  1  0
  9 10  1  0
 10 11  1  1
 11 12  1  0
 13 10  1  0
 13 19  1  0
 14 13  2  0
 16 15  1  6
 16 17  1  0
 18 19  1  6
 18 16  1  0
 20 18  1  0
 20 21  1  0
 22 20  2  0
M  END
$$$$
