LCT.pdb
     RDKit          3D

 22 21  0  0  1  0  0  0  0  0999 V2000
    8.6447  -12.7339   18.4813 C   0  0  0  0  0  0  0  0  0  0  0  0
    7.8941  -13.4219   19.5743 C   0  0  2  0  0  0  0  0  0  0  0  0
    7.2444  -12.3698   20.4349 C   0  0  0  0  0  0  0  0  0  0  0  0
    8.6685  -14.4253   20.3433 C   0  0  0  0  0  0  0  0  0  0  0  0
    7.9008  -15.1974   21.3707 C   0  0  2  0  0  0  0  0  0  0  0  0
    6.4848  -15.1811   21.1739 N   0  0  0  0  0  0  0  0  0  0  0  0
    8.3278  -14.8848   22.7584 C   0  0  0  0  0  0  0  0  0  0  0  0
    9.3832  -14.2062   22.8804 O   0  0  0  0  0  0  0  0  0  0  0  0
    7.6255  -15.3012   23.9198 N   0  0  0  0  0  0  0  0  0  0  0  0
    8.2870  -15.2715   25.1790 C   0  0  1  0  0  0  0  0  0  0  0  0
    7.5089  -14.3495   26.1075 C   0  0  0  0  0  0  0  0  0  0  0  0
    5.8389  -14.0312   25.5120 S   0  0  0  0  0  0  0  0  0  0  0  0
    8.4775  -16.6082   25.7856 C   0  0  0  0  0  0  0  0  0  0  0  0
    7.5531  -17.3884   26.0924 O   0  0  0  0  0  0  0  0  0  0  0  0
   10.7944  -19.2072   24.4030 C   0  0  0  0  0  0  0  0  0  0  0  0
   11.2503  -19.0317   25.8388 C   0  0  1  0  0  0  0  0  0  0  0  0
   12.3670  -18.1838   25.7918 O   0  0  0  0  0  0  0  0  0  0  0  0
   10.1479  -18.3328   26.5804 C   0  0  2  0  0  0  0  0  0  0  0  0
    9.8023  -17.0554   26.0460 N   0  0  0  0  0  0  0  0  0  0  0  0
   10.4064  -18.2440   28.0198 C   0  0  0  0  0  0  0  0  0  0  0  0
   10.5386  -19.3406   28.8591 O   0  0  0  0  0  0  0  0  0  0  0  0
   10.5216  -17.1115   28.5617 O   0  0  0  0  0  0  0  0  0  0  0  0
  2  1  1  6
  2  4  1  0
  3  2  1  0
  4  5  1  0
  5  6  1  1
  5  7  1  0
  7  8  2  0
  9  7  1  0
  9 10  1  0
 10 11  1  1
 11 12  1  0
 13 10  1  0
 13 19  1  0
 14 13  2  0
 16 15  1  6
 16 17  1  0
 18 19  1  6
 18 16  1  0
 20 18  1  0
 20 21  1  0
 22 20  2  0
M  END
$$$$
