LCT.pdb
     RDKit          3D

 22 21  0  0  1  0  0  0  0  0999 V2000
    8.1727  -14.3719   18.5172 C   0  0  0  0  0  0  0  0  0  0  0  0
    7.7732  -13.3153   19.4946 C   0  0  2  0  0  0  0  0  0  0  0  0
    8.0132  -11.9704   18.8594 C   0  0  0  0  0  0  0  0  0  0  0  0
    8.3609  -13.4474   20.8491 C   0  0  0  0  0  0  0  0  0  0  0  0
    7.9701  -14.6726   21.6155 C   0  0  2  0  0  0  0  0  0  0  0  0
    6.6056  -15.0606   21.4375 N   0  0  0  0  0  0  0  0  0  0  0  0
    8.4116  -14.6262   23.0327 C   0  0  0  0  0  0  0  0  0  0  0  0
    9.6448  -14.4545   23.2301 O   0  0  0  0  0  0  0  0  0  0  0  0
    7.5376  -14.7621   24.1432 N   0  0  0  0  0  0  0  0  0  0  0  0
    8.0867  -14.8397   25.4533 C   0  0  1  0  0  0  0  0  0  0  0  0
    7.2666  -13.9431   26.3705 C   0  0  0  0  0  0  0  0  0  0  0  0
    5.7147  -13.4290   25.6143 S   0  0  0  0  0  0  0  0  0  0  0  0
    8.1709  -16.2185   25.9852 C   0  0  0  0  0  0  0  0  0  0  0  0
    7.1912  -16.9658   26.1829 O   0  0  0  0  0  0  0  0  0  0  0  0
    9.6001  -18.8945   24.4206 C   0  0  0  0  0  0  0  0  0  0  0  0
   10.4225  -18.9261   25.6946 C   0  0  1  0  0  0  0  0  0  0  0  0
   11.6427  -18.3065   25.3857 O   0  0  0  0  0  0  0  0  0  0  0  0
    9.7053  -18.0914   26.7158 C   0  0  2  0  0  0  0  0  0  0  0  0
    9.4520  -16.7497   26.3004 N   0  0  0  0  0  0  0  0  0  0  0  0
   10.3620  -18.1175   28.0252 C   0  0  0  0  0  0  0  0  0  0  0  0
   10.8816  -16.9995   28.6613 O   0  0  0  0  0  0  0  0  0  0  0  0
   10.4785  -19.2120   28.6401 O   0  0  0  0  0  0  0  0  0  0  0  0
  2  1  1  6
  2  4  1  0
  3  2  1  0
  4  5  1  0
  5  6  1  1
  5  7  1  0
  7  8  2  0
  9  7  1  0
  9 10  1  0
 10 11  1  1
 11 12  1  0
 13 10  1  0
 13 19  1  0
 14 13  2  0
 16 15  1  6
 16 17  1  0
 18 19  1  6
 18 16  1  0
 20 18  1  0
 20 21  1  0
 22 20  2  0
M  END
$$$$
