LCT.pdb
     RDKit          3D

 22 21  0  0  1  0  0  0  0  0999 V2000
    6.7176  -11.3189   24.9311 C   0  0  0  0  0  0  0  0  0  0  0  0
    6.1445  -12.3247   25.8752 C   0  0  2  0  0  0  0  0  0  0  0  0
    5.7724  -11.6153   27.1512 C   0  0  0  0  0  0  0  0  0  0  0  0
    6.9682  -13.5389   26.0875 C   0  0  0  0  0  0  0  0  0  0  0  0
    6.6658  -14.6997   25.1919 C   0  0  2  0  0  0  0  0  0  0  0  0
    5.4248  -15.3491   25.4786 N   0  0  0  0  0  0  0  0  0  0  0  0
    7.8187  -15.6243   25.0445 C   0  0  0  0  0  0  0  0  0  0  0  0
    7.9997  -16.4480   25.9816 O   0  0  0  0  0  0  0  0  0  0  0  0
    8.7009  -15.6251   23.9322 N   0  0  0  0  0  0  0  0  0  0  0  0
    9.8137  -16.5115   23.9294 C   0  0  1  0  0  0  0  0  0  0  0  0
   10.3791  -16.5662   22.5169 C   0  0  0  0  0  0  0  0  0  0  0  0
    9.1276  -17.0009   21.2964 S   0  0  0  0  0  0  0  0  0  0  0  0
   10.8612  -16.1587   24.9138 C   0  0  0  0  0  0  0  0  0  0  0  0
   11.8625  -15.4563   24.6662 O   0  0  0  0  0  0  0  0  0  0  0  0
   10.5939  -14.2706   27.9152 C   0  0  0  0  0  0  0  0  0  0  0  0
   11.0559  -15.6115   28.4525 C   0  0  1  0  0  0  0  0  0  0  0  0
    9.8988  -16.2779   28.8830 O   0  0  0  0  0  0  0  0  0  0  0  0
   11.6517  -16.3764   27.3062 C   0  0  2  0  0  0  0  0  0  0  0  0
   10.7367  -16.6452   26.2445 N   0  0  0  0  0  0  0  0  0  0  0  0
   12.3252  -17.6036   27.7385 C   0  0  0  0  0  0  0  0  0  0  0  0
   11.9606  -18.8793   27.3333 O   0  0  0  0  0  0  0  0  0  0  0  0
   13.3035  -17.5296   28.5302 O   0  0  0  0  0  0  0  0  0  0  0  0
  2  1  1  6
  2  4  1  0
  3  2  1  0
  4  5  1  0
  5  6  1  1
  5  7  1  0
  7  8  2  0
  9  7  1  0
  9 10  1  0
 10 11  1  6
 11 12  1  0
 13 10  1  0
 13 19  1  0
 14 13  2  0
 16 15  1  6
 16 17  1  0
 18 19  1  6
 18 16  1  0
 20 18  1  0
 20 21  1  0
 22 20  2  0
M  END
$$$$
