LCT.pdb
     RDKit          3D

 22 21  0  0  1  0  0  0  0  0999 V2000
    7.2368  -12.7267   27.6555 C   0  0  0  0  0  0  0  0  0  0  0  0
    6.7759  -12.9500   26.2523 C   0  0  2  0  0  0  0  0  0  0  0  0
    6.3393  -11.6252   25.6829 C   0  0  0  0  0  0  0  0  0  0  0  0
    5.7778  -14.0319   26.0756 C   0  0  0  0  0  0  0  0  0  0  0  0
    6.3052  -15.4300   26.1660 C   0  0  2  0  0  0  0  0  0  0  0  0
    6.9386  -15.7344   27.4112 N   0  0  0  0  0  0  0  0  0  0  0  0
    7.0914  -15.8236   24.9691 C   0  0  0  0  0  0  0  0  0  0  0  0
    7.4313  -17.0353   24.8957 O   0  0  0  0  0  0  0  0  0  0  0  0
    7.4675  -14.9275   23.9342 N   0  0  0  0  0  0  0  0  0  0  0  0
    8.2271  -15.4161   22.8349 C   0  0  1  0  0  0  0  0  0  0  0  0
    8.0441  -14.4608   21.6637 C   0  0  0  0  0  0  0  0  0  0  0  0
    8.8962  -15.0267   20.1810 S   0  0  0  0  0  0  0  0  0  0  0  0
    9.6605  -15.6199   23.1427 C   0  0  0  0  0  0  0  0  0  0  0  0
   10.4467  -14.7188   23.4991 O   0  0  0  0  0  0  0  0  0  0  0  0
   11.2473  -18.4979   25.3541 C   0  0  0  0  0  0  0  0  0  0  0  0
   11.7489  -18.6172   23.9278 C   0  0  1  0  0  0  0  0  0  0  0  0
   10.9094  -19.5472   23.2964 O   0  0  0  0  0  0  0  0  0  0  0  0
   11.5640  -17.2801   23.2707 C   0  0  2  0  0  0  0  0  0  0  0  0
   10.2014  -16.9305   23.0302 N   0  0  0  0  0  0  0  0  0  0  0  0
   12.3628  -17.1376   22.0508 C   0  0  0  0  0  0  0  0  0  0  0  0
   13.7497  -17.1494   22.0190 O   0  0  0  0  0  0  0  0  0  0  0  0
   11.7820  -16.9931   20.9412 O   0  0  0  0  0  0  0  0  0  0  0  0
  2  1  1  1
  2  4  1  0
  3  2  1  0
  4  5  1  0
  5  6  1  1
  5  7  1  0
  7  8  2  0
  9  7  1  0
  9 10  1  0
 10 11  1  6
 11 12  1  0
 13 10  1  0
 13 19  1  0
 14 13  2  0
 16 15  1  1
 16 17  1  0
 18 19  1  6
 18 16  1  0
 20 18  1  0
 20 21  1  0
 22 20  2  0
M  END
$$$$
