LCT.pdb
     RDKit          3D

 22 21  0  0  1  0  0  0  0  0999 V2000
    8.0591  -13.8518   18.4071 C   0  0  0  0  0  0  0  0  0  0  0  0
    7.8100  -13.3235   19.7820 C   0  0  2  0  0  0  0  0  0  0  0  0
    7.7381  -11.8207   19.7039 C   0  0  0  0  0  0  0  0  0  0  0  0
    8.7315  -13.8218   20.8310 C   0  0  0  0  0  0  0  0  0  0  0  0
    8.6108  -15.2744   21.1720 C   0  0  2  0  0  0  0  0  0  0  0  0
    7.3892  -15.8758   20.7357 N   0  0  0  0  0  0  0  0  0  0  0  0
    8.9612  -15.5613   22.5864 C   0  0  0  0  0  0  0  0  0  0  0  0
    9.3698  -14.5851   23.2715 O   0  0  0  0  0  0  0  0  0  0  0  0
    8.8613  -16.8440   23.1864 N   0  0  0  0  0  0  0  0  0  0  0  0
    9.2914  -17.0166   24.5315 C   0  0  1  0  0  0  0  0  0  0  0  0
    8.3887  -16.1865   25.4336 C   0  0  0  0  0  0  0  0  0  0  0  0
    6.6443  -16.4026   25.0398 S   0  0  0  0  0  0  0  0  0  0  0  0
    9.3338  -18.4302   24.9686 C   0  0  0  0  0  0  0  0  0  0  0  0
    8.3901  -19.2388   24.8542 O   0  0  0  0  0  0  0  0  0  0  0  0
   11.2930  -20.4552   23.2769 C   0  0  0  0  0  0  0  0  0  0  0  0
   11.8767  -20.7602   24.6431 C   0  0  1  0  0  0  0  0  0  0  0  0
   13.0344  -19.9756   24.7557 O   0  0  0  0  0  0  0  0  0  0  0  0
   10.8838  -20.3009   25.6712 C   0  0  2  0  0  0  0  0  0  0  0  0
   10.5272  -18.9232   25.5648 N   0  0  0  0  0  0  0  0  0  0  0  0
   11.2967  -20.6295   27.0380 C   0  0  0  0  0  0  0  0  0  0  0  0
   11.4353  -21.9217   27.5232 O   0  0  0  0  0  0  0  0  0  0  0  0
   11.5498  -19.6997   27.8510 O   0  0  0  0  0  0  0  0  0  0  0  0
  2  1  1  6
  2  4  1  0
  3  2  1  0
  4  5  1  0
  5  6  1  1
  5  7  1  0
  7  8  2  0
  9  7  1  0
  9 10  1  0
 10 11  1  1
 11 12  1  0
 13 10  1  0
 13 19  1  0
 14 13  2  0
 16 15  1  6
 16 17  1  0
 18 19  1  1
 18 16  1  0
 20 18  1  0
 20 21  1  0
 22 20  2  0
M  END
$$$$
