LCT.pdb
     RDKit          3D

 22 21  0  0  1  0  0  0  0  0999 V2000
    7.1951  -13.9165   18.6900 C   0  0  0  0  0  0  0  0  0  0  0  0
    7.7641  -13.2473   19.8982 C   0  0  2  0  0  0  0  0  0  0  0  0
    8.0119  -11.7996   19.5627 C   0  0  0  0  0  0  0  0  0  0  0  0
    8.9323  -13.9252   20.5094 C   0  0  0  0  0  0  0  0  0  0  0  0
    8.6438  -15.2078   21.2257 C   0  0  2  0  0  0  0  0  0  0  0  0
    7.2644  -15.5835   21.2152 N   0  0  0  0  0  0  0  0  0  0  0  0
    9.2838  -15.2721   22.5643 C   0  0  0  0  0  0  0  0  0  0  0  0
   10.5066  -14.9696   22.6159 O   0  0  0  0  0  0  0  0  0  0  0  0
    8.6051  -15.6468   23.7535 N   0  0  0  0  0  0  0  0  0  0  0  0
    9.3321  -15.7198   24.9742 C   0  0  1  0  0  0  0  0  0  0  0  0
    8.6826  -14.7753   25.9761 C   0  0  0  0  0  0  0  0  0  0  0  0
    9.5276  -14.7804   27.5669 S   0  0  0  0  0  0  0  0  0  0  0  0
    9.4434  -17.0902   25.5224 C   0  0  0  0  0  0  0  0  0  0  0  0
    8.4757  -17.8023   25.8596 O   0  0  0  0  0  0  0  0  0  0  0  0
   10.7185  -19.8143   23.7693 C   0  0  0  0  0  0  0  0  0  0  0  0
   11.6516  -19.8219   24.9649 C   0  0  1  0  0  0  0  0  0  0  0  0
   12.8203  -19.1657   24.5507 O   0  0  0  0  0  0  0  0  0  0  0  0
   11.0036  -19.0098   26.0486 C   0  0  2  0  0  0  0  0  0  0  0  0
   10.7383  -17.6556   25.6849 N   0  0  0  0  0  0  0  0  0  0  0  0
   11.7361  -19.0764   27.3157 C   0  0  0  0  0  0  0  0  0  0  0  0
   12.0006  -20.2510   28.0047 O   0  0  0  0  0  0  0  0  0  0  0  0
   12.1676  -18.0143   27.8404 O   0  0  0  0  0  0  0  0  0  0  0  0
  2  1  1  6
  2  4  1  0
  3  2  1  0
  4  5  1  0
  5  6  1  1
  5  7  1  0
  7  8  2  0
  9  7  1  0
  9 10  1  0
 10 11  1  1
 11 12  1  0
 13 10  1  0
 13 19  1  0
 14 13  2  0
 16 15  1  6
 16 17  1  0
 18 19  1  6
 18 16  1  0
 20 18  1  0
 20 21  1  0
 22 20  2  0
M  END
$$$$
