LCT.pdb
     RDKit          3D

 22 21  0  0  1  0  0  0  0  0999 V2000
    9.0937  -13.5630   18.8954 C   0  0  0  0  0  0  0  0  0  0  0  0
    7.7799  -13.5048   19.6038 C   0  0  2  0  0  0  0  0  0  0  0  0
    7.2931  -12.0792   19.5780 C   0  0  0  0  0  0  0  0  0  0  0  0
    7.7577  -14.1172   20.9536 C   0  0  0  0  0  0  0  0  0  0  0  0
    8.2012  -15.5449   21.0320 C   0  0  2  0  0  0  0  0  0  0  0  0
    7.4062  -16.4453   20.2565 N   0  0  0  0  0  0  0  0  0  0  0  0
    8.4454  -15.9926   22.4268 C   0  0  0  0  0  0  0  0  0  0  0  0
    7.4276  -16.1261   23.1587 O   0  0  0  0  0  0  0  0  0  0  0  0
    9.7317  -16.2692   22.9600 N   0  0  0  0  0  0  0  0  0  0  0  0
    9.8456  -16.6945   24.3129 C   0  0  1  0  0  0  0  0  0  0  0  0
   10.7903  -17.8873   24.3623 C   0  0  0  0  0  0  0  0  0  0  0  0
   10.1870  -19.2773   23.3884 S   0  0  0  0  0  0  0  0  0  0  0  0
   10.2805  -15.6262   25.2405 C   0  0  0  0  0  0  0  0  0  0  0  0
   11.1860  -14.8015   25.0012 O   0  0  0  0  0  0  0  0  0  0  0  0
    8.6127  -12.7410   26.3885 C   0  0  0  0  0  0  0  0  0  0  0  0
    8.7668  -13.5328   27.6728 C   0  0  1  0  0  0  0  0  0  0  0  0
    7.5758  -14.2575   27.8286 O   0  0  0  0  0  0  0  0  0  0  0  0
    9.8958  -14.5020   27.4730 C   0  0  2  0  0  0  0  0  0  0  0  0
    9.6325  -15.5138   26.5016 N   0  0  0  0  0  0  0  0  0  0  0  0
   10.3584  -15.0936   28.7310 C   0  0  0  0  0  0  0  0  0  0  0  0
   10.8099  -14.3615   29.8195 O   0  0  0  0  0  0  0  0  0  0  0  0
   10.3587  -16.3472   28.8649 O   0  0  0  0  0  0  0  0  0  0  0  0
  2  1  1  1
  2  4  1  0
  3  2  1  0
  4  5  1  0
  5  6  1  1
  5  7  1  0
  7  8  2  0
  9  7  1  0
  9 10  1  0
 10 11  1  6
 11 12  1  0
 13 10  1  0
 13 19  1  0
 14 13  2  0
 16 15  1  6
 16 17  1  0
 18 19  1  6
 18 16  1  0
 20 18  1  0
 20 21  1  0
 22 20  2  0
M  END
$$$$
