LCT.pdb
     RDKit          3D

 22 21  0  0  1  0  0  0  0  0999 V2000
    8.3639  -12.1231   18.7375 C   0  0  0  0  0  0  0  0  0  0  0  0
    8.0673  -13.4389   19.3795 C   0  0  2  0  0  0  0  0  0  0  0  0
    6.5747  -13.6434   19.3678 C   0  0  0  0  0  0  0  0  0  0  0  0
    8.6870  -13.6514   20.7093 C   0  0  0  0  0  0  0  0  0  0  0  0
    8.4793  -15.0024   21.3198 C   0  0  2  0  0  0  0  0  0  0  0  0
    7.1888  -15.5637   21.0673 N   0  0  0  0  0  0  0  0  0  0  0  0
    8.9016  -15.0586   22.7425 C   0  0  0  0  0  0  0  0  0  0  0  0
    9.4378  -14.0175   23.2093 O   0  0  0  0  0  0  0  0  0  0  0  0
    8.7356  -16.1947   23.5775 N   0  0  0  0  0  0  0  0  0  0  0  0
    9.1564  -16.1261   24.9348 C   0  0  1  0  0  0  0  0  0  0  0  0
    8.2351  -15.1658   25.6742 C   0  0  0  0  0  0  0  0  0  0  0  0
    6.4991  -15.4493   25.2860 S   0  0  0  0  0  0  0  0  0  0  0  0
    9.2137  -17.4422   25.6098 C   0  0  0  0  0  0  0  0  0  0  0  0
    8.2169  -18.1180   25.9367 O   0  0  0  0  0  0  0  0  0  0  0  0
   12.0584  -20.0644   24.6824 C   0  0  0  0  0  0  0  0  0  0  0  0
   12.0181  -19.8999   26.1895 C   0  0  1  0  0  0  0  0  0  0  0  0
   13.0513  -19.0071   26.5114 O   0  0  0  0  0  0  0  0  0  0  0  0
   10.7053  -19.2609   26.5391 C   0  0  2  0  0  0  0  0  0  0  0  0
   10.4876  -17.9948   25.9174 N   0  0  0  0  0  0  0  0  0  0  0  0
   10.4882  -19.1765   27.9856 C   0  0  0  0  0  0  0  0  0  0  0  0
   10.4731  -20.2705   28.8386 O   0  0  0  0  0  0  0  0  0  0  0  0
   10.2999  -18.0508   28.5210 O   0  0  0  0  0  0  0  0  0  0  0  0
  2  1  1  1
  2  4  1  0
  3  2  1  0
  4  5  1  0
  5  6  1  1
  5  7  1  0
  7  8  2  0
  9  7  1  0
  9 10  1  0
 10 11  1  1
 11 12  1  0
 13 10  1  0
 13 19  1  0
 14 13  2  0
 16 15  1  6
 16 17  1  0
 18 19  1  1
 18 16  1  0
 20 18  1  0
 20 21  1  0
 22 20  2  0
M  END
$$$$
