GSG.pdb
     RDKit          3D

 15 14  0  0  1  0  0  0  0  0999 V2000
   16.1484  -11.4614  -15.0555 N   0  0  0  0  0  0  0  0  0  0  0  0
   16.4855  -10.0671  -14.9618 C   0  0  0  0  0  0  0  0  0  0  0  0
   17.9352   -9.8476  -14.7613 C   0  0  0  0  0  0  0  0  0  0  0  0
   18.6178  -10.5657  -13.9924 O   0  0  0  0  0  0  0  0  0  0  0  0
   20.7711   -9.6761  -17.3433 O   0  0  0  0  0  0  0  0  0  0  0  0
   20.4928   -8.4337  -16.8264 C   0  0  0  0  0  0  0  0  0  0  0  0
   20.0168   -8.5782  -15.3888 C   0  0  2  0  0  0  0  0  0  0  0  0
   18.5853   -8.8045  -15.4470 N   0  0  0  0  0  0  0  0  0  0  0  0
   20.3512   -7.3759  -14.5848 C   0  0  0  0  0  0  0  0  0  0  0  0
   19.6134   -6.3582  -14.6115 O   0  0  0  0  0  0  0  0  0  0  0  0
   21.5049   -7.3142  -13.7562 N   0  0  0  0  0  0  0  0  0  0  0  0
   21.7574   -6.1657  -12.9123 C   0  0  0  0  0  0  0  0  0  0  0  0
   22.0074   -4.9555  -13.7732 C   0  0  0  0  0  0  0  0  0  0  0  0
   22.9089   -4.9563  -14.6451 O   0  0  0  0  0  0  0  0  0  0  0  0
   21.2509   -3.7951  -13.6347 O   0  0  0  0  0  0  0  0  0  0  0  0
  2  1  1  0
  3  8  1  0
  3  2  1  0
  4  3  2  0
  5  6  1  0
  7  6  1  6
  7  8  1  0
  9  7  1  0
  9 10  2  0
 11  9  1  0
 12 11  1  0
 12 13  1  0
 13 15  1  0
 14 13  2  0
M  END
$$$$
