GSG.pdb
     RDKit          3D

 15 14  0  0  1  0  0  0  0  0999 V2000
   27.7531  -10.5708  -16.1939 N   0  0  0  0  0  0  0  0  0  0  0  0
   26.4118  -10.9342  -15.8257 C   0  0  0  0  0  0  0  0  0  0  0  0
   25.4239   -9.8935  -16.1873 C   0  0  0  0  0  0  0  0  0  0  0  0
   25.7555   -8.8337  -16.7701 O   0  0  0  0  0  0  0  0  0  0  0  0
   21.9730  -11.0504  -17.1868 O   0  0  0  0  0  0  0  0  0  0  0  0
   21.7401   -9.9585  -16.3856 C   0  0  0  0  0  0  0  0  0  0  0  0
   23.0201   -9.1478  -16.2495 C   0  0  2  0  0  0  0  0  0  0  0  0
   24.0645  -10.0820  -15.8750 N   0  0  0  0  0  0  0  0  0  0  0  0
   22.8688   -8.0619  -15.2486 C   0  0  0  0  0  0  0  0  0  0  0  0
   22.9416   -8.3067  -14.0175 O   0  0  0  0  0  0  0  0  0  0  0  0
   22.6374   -6.7104  -15.6246 N   0  0  0  0  0  0  0  0  0  0  0  0
   22.4283   -5.6832  -14.6266 C   0  0  0  0  0  0  0  0  0  0  0  0
   22.2455   -4.3521  -15.3068 C   0  0  0  0  0  0  0  0  0  0  0  0
   22.3349   -4.2442  -16.5530 O   0  0  0  0  0  0  0  0  0  0  0  0
   21.9716   -3.1958  -14.5815 O   0  0  0  0  0  0  0  0  0  0  0  0
  2  1  1  0
  3  8  1  0
  3  2  1  0
  4  3  2  0
  5  6  1  0
  7  6  1  1
  7  8  1  0
  9  7  1  0
  9 10  2  0
 11  9  1  0
 12 11  1  0
 12 13  1  0
 13 15  1  0
 14 13  2  0
M  END
$$$$
