GSG.pdb
     RDKit          3D

 15 14  0  0  1  0  0  0  0  0999 V2000
   17.5766  -12.9178  -15.1371 N   0  0  0  0  0  0  0  0  0  0  0  0
   17.2126  -11.5407  -14.9431 C   0  0  0  0  0  0  0  0  0  0  0  0
   18.2075  -10.6063  -15.5152 C   0  0  0  0  0  0  0  0  0  0  0  0
   19.2503  -11.0092  -16.0836 O   0  0  0  0  0  0  0  0  0  0  0  0
   17.9036   -8.3880  -18.1056 O   0  0  0  0  0  0  0  0  0  0  0  0
   18.1598   -7.5094  -17.0806 C   0  0  0  0  0  0  0  0  0  0  0  0
   18.9076   -8.2312  -15.9697 C   0  0  2  0  0  0  0  0  0  0  0  0
   17.9932   -9.2181  -15.4278 N   0  0  0  0  0  0  0  0  0  0  0  0
   19.3744   -7.2830  -14.9271 C   0  0  0  0  0  0  0  0  0  0  0  0
   18.6498   -7.0068  -13.9375 O   0  0  0  0  0  0  0  0  0  0  0  0
   20.6450   -6.6484  -14.9930 N   0  0  0  0  0  0  0  0  0  0  0  0
   21.1034   -5.7833  -13.9270 C   0  0  0  0  0  0  0  0  0  0  0  0
   22.4716   -5.2522  -14.2647 C   0  0  0  0  0  0  0  0  0  0  0  0
   23.4270   -6.0289  -14.5028 O   0  0  0  0  0  0  0  0  0  0  0  0
   22.7268   -3.8850  -14.3253 O   0  0  0  0  0  0  0  0  0  0  0  0
  2  1  1  0
  3  8  1  0
  3  2  1  0
  4  3  2  0
  5  6  1  0
  7  6  1  6
  7  8  1  0
  9  7  1  0
  9 10  2  0
 11  9  1  0
 12 11  1  0
 12 13  1  0
 13 15  1  0
 14 13  2  0
M  END
$$$$
