GSG.pdb
     RDKit          3D

 15 14  0  0  1  0  0  0  0  0999 V2000
   17.4366   -9.1566  -16.1990 N   0  0  0  0  0  0  0  0  0  0  0  0
   18.2801   -7.9938  -16.2544 C   0  0  0  0  0  0  0  0  0  0  0  0
   19.2044   -7.9097  -15.1018 C   0  0  0  0  0  0  0  0  0  0  0  0
   18.8479   -8.2126  -13.9382 O   0  0  0  0  0  0  0  0  0  0  0  0
   22.3251   -9.4397  -14.6094 O   0  0  0  0  0  0  0  0  0  0  0  0
   22.6939   -8.1181  -14.5343 C   0  0  0  0  0  0  0  0  0  0  0  0
   21.4726   -7.2685  -14.2170 C   0  0  2  0  0  0  0  0  0  0  0  0
   20.5295   -7.4781  -15.2989 N   0  0  0  0  0  0  0  0  0  0  0  0
   21.8331   -5.8358  -14.0715 C   0  0  0  0  0  0  0  0  0  0  0  0
   22.5812   -5.4522  -13.1367 O   0  0  0  0  0  0  0  0  0  0  0  0
   21.3584   -4.8393  -14.9677 N   0  0  0  0  0  0  0  0  0  0  0  0
   21.7758   -3.4594  -14.8386 C   0  0  0  0  0  0  0  0  0  0  0  0
   20.6992   -2.6727  -14.1388 C   0  0  0  0  0  0  0  0  0  0  0  0
   19.6849   -3.2403  -13.6678 O   0  0  0  0  0  0  0  0  0  0  0  0
   20.7883   -1.2915  -13.9886 O   0  0  0  0  0  0  0  0  0  0  0  0
  2  1  1  0
  3  8  1  0
  3  2  1  0
  4  3  2  0
  5  6  1  0
  7  6  1  6
  7  8  1  0
  9  7  1  0
  9 10  2  0
 11  9  1  0
 12 11  1  0
 12 13  1  0
 13 15  1  0
 14 13  2  0
M  END
$$$$
