GSG.pdb
     RDKit          3D

 15 14  0  0  1  0  0  0  0  0999 V2000
   12.2059  -10.6589   -8.7244 N   0  0  0  0  0  0  0  0  0  0  0  0
   13.5804  -10.2503   -8.6232 C   0  0  0  0  0  0  0  0  0  0  0  0
   13.8190   -8.9153   -9.2153 C   0  0  0  0  0  0  0  0  0  0  0  0
   12.9071   -8.2625   -9.7766 O   0  0  0  0  0  0  0  0  0  0  0  0
   16.3010   -6.3997   -7.6990 O   0  0  0  0  0  0  0  0  0  0  0  0
   15.4442   -6.0286   -8.7071 C   0  0  0  0  0  0  0  0  0  0  0  0
   15.4534   -7.0906   -9.7963 C   0  0  2  0  0  0  0  0  0  0  0  0
   15.1040   -8.3442   -9.1559 N   0  0  0  0  0  0  0  0  0  0  0  0
   16.7754   -7.1656  -10.4676 C   0  0  0  0  0  0  0  0  0  0  0  0
   17.7476   -7.7374   -9.9121 O   0  0  0  0  0  0  0  0  0  0  0  0
   17.0065   -6.6036  -11.7529 N   0  0  0  0  0  0  0  0  0  0  0  0
   18.3202   -6.6425  -12.3594 C   0  0  0  0  0  0  0  0  0  0  0  0
   18.2693   -5.9785  -13.7102 C   0  0  0  0  0  0  0  0  0  0  0  0
   17.1791   -5.6156  -14.2126 O   0  0  0  0  0  0  0  0  0  0  0  0
   19.4254   -5.7434  -14.4493 O   0  0  0  0  0  0  0  0  0  0  0  0
  2  1  1  0
  3  8  1  0
  3  2  1  0
  4  3  2  0
  5  6  1  0
  7  6  1  1
  7  8  1  0
  9  7  1  0
  9 10  2  0
 11  9  1  0
 12 11  1  0
 12 13  1  0
 13 15  1  0
 14 13  2  0
M  END
$$$$
