GSG.pdb
     RDKit          3D

 15 14  0  0  1  0  0  0  0  0999 V2000
   16.4844  -10.5487  -14.8577 N   0  0  0  0  0  0  0  0  0  0  0  0
   17.2665   -9.7345  -15.7476 C   0  0  0  0  0  0  0  0  0  0  0  0
   18.6623   -9.5698  -15.2845 C   0  0  0  0  0  0  0  0  0  0  0  0
   18.9619   -9.5453  -14.0669 O   0  0  0  0  0  0  0  0  0  0  0  0
   21.7534  -11.4253  -16.6400 O   0  0  0  0  0  0  0  0  0  0  0  0
   21.8959  -10.0812  -16.8875 C   0  0  0  0  0  0  0  0  0  0  0  0
   21.0964   -9.2899  -15.8634 C   0  0  2  0  0  0  0  0  0  0  0  0
   19.6996   -9.4351  -16.2262 N   0  0  0  0  0  0  0  0  0  0  0  0
   21.5122   -7.8651  -15.8360 C   0  0  0  0  0  0  0  0  0  0  0  0
   21.1056   -7.0591  -16.7110 O   0  0  0  0  0  0  0  0  0  0  0  0
   22.3781   -7.3467  -14.8345 N   0  0  0  0  0  0  0  0  0  0  0  0
   22.7285   -5.9426  -14.8045 C   0  0  0  0  0  0  0  0  0  0  0  0
   21.7144   -5.1896  -13.9844 C   0  0  0  0  0  0  0  0  0  0  0  0
   21.7607   -5.1973  -12.7312 O   0  0  0  0  0  0  0  0  0  0  0  0
   20.6916   -4.4595  -14.5834 O   0  0  0  0  0  0  0  0  0  0  0  0
  2  1  1  0
  3  8  1  0
  3  2  1  0
  4  3  2  0
  5  6  1  0
  7  6  1  6
  7  8  1  0
  9  7  1  0
  9 10  2  0
 11  9  1  0
 12 11  1  0
 12 13  1  0
 13 15  1  0
 14 13  2  0
M  END
$$$$
