GSG.pdb
     RDKit          3D

 15 14  0  0  1  0  0  0  0  0999 V2000
   24.6906  -13.5415  -20.1050 N   0  0  0  0  0  0  0  0  0  0  0  0
   25.1639  -12.3092  -19.5357 C   0  0  0  0  0  0  0  0  0  0  0  0
   25.0763  -12.2978  -18.0585 C   0  0  0  0  0  0  0  0  0  0  0  0
   24.4396  -13.1708  -17.4219 O   0  0  0  0  0  0  0  0  0  0  0  0
   27.1005   -9.3106  -16.0756 O   0  0  0  0  0  0  0  0  0  0  0  0
   26.8832  -10.4897  -15.4043 C   0  0  0  0  0  0  0  0  0  0  0  0
   25.5877  -11.1197  -15.8931 C   0  0  2  0  0  0  0  0  0  0  0  0
   25.7217  -11.2825  -17.3282 N   0  0  0  0  0  0  0  0  0  0  0  0
   24.4129  -10.2828  -15.5419 C   0  0  0  0  0  0  0  0  0  0  0  0
   24.0756  -10.1184  -14.3419 O   0  0  0  0  0  0  0  0  0  0  0  0
   23.6212   -9.6344  -16.5288 N   0  0  0  0  0  0  0  0  0  0  0  0
   22.4766   -8.8300  -16.1575 C   0  0  0  0  0  0  0  0  0  0  0  0
   22.9364   -7.4461  -15.7814 C   0  0  0  0  0  0  0  0  0  0  0  0
   24.1511   -7.1361  -15.8144 O   0  0  0  0  0  0  0  0  0  0  0  0
   22.0346   -6.4625  -15.3847 O   0  0  0  0  0  0  0  0  0  0  0  0
  2  1  1  0
  3  8  1  0
  3  2  1  0
  4  3  2  0
  5  6  1  0
  7  6  1  6
  7  8  1  0
  9  7  1  0
  9 10  2  0
 11  9  1  0
 12 11  1  0
 12 13  1  0
 13 15  1  0
 14 13  2  0
M  END
$$$$
