GSG.pdb
     RDKit          3D

 15 14  0  0  1  0  0  0  0  0999 V2000
   18.9363  -12.6942  -17.1497 N   0  0  0  0  0  0  0  0  0  0  0  0
   19.3440  -11.3417  -17.4165 C   0  0  0  0  0  0  0  0  0  0  0  0
   19.9007  -10.6719  -16.2202 C   0  0  0  0  0  0  0  0  0  0  0  0
   19.3599  -10.7643  -15.0925 O   0  0  0  0  0  0  0  0  0  0  0  0
   23.8047   -9.4475  -16.1446 O   0  0  0  0  0  0  0  0  0  0  0  0
   23.0502   -9.6796  -15.0199 C   0  0  0  0  0  0  0  0  0  0  0  0
   21.6425   -9.1444  -15.2347 C   0  0  2  0  0  0  0  0  0  0  0  0
   21.0740   -9.9027  -16.3327 N   0  0  0  0  0  0  0  0  0  0  0  0
   21.6553   -7.6878  -15.5208 C   0  0  0  0  0  0  0  0  0  0  0  0
   21.5449   -7.2623  -16.6987 O   0  0  0  0  0  0  0  0  0  0  0  0
   21.7910   -6.7141  -14.4936 N   0  0  0  0  0  0  0  0  0  0  0  0
   21.8471   -5.3020  -14.8064 C   0  0  0  0  0  0  0  0  0  0  0  0
   22.1256   -4.5203  -13.5497 C   0  0  0  0  0  0  0  0  0  0  0  0
   22.3087   -3.2801  -13.5858 O   0  0  0  0  0  0  0  0  0  0  0  0
   22.1901   -5.1415  -12.3055 O   0  0  0  0  0  0  0  0  0  0  0  0
  2  1  1  0
  3  8  1  0
  3  2  1  0
  4  3  2  0
  5  6  1  0
  7  6  1  6
  7  8  1  0
  9  7  1  0
  9 10  2  0
 11  9  1  0
 12 11  1  0
 12 13  1  0
 13 15  1  0
 14 13  2  0
M  END
$$$$
