GSG.pdb
     RDKit          3D

 15 14  0  0  1  0  0  0  0  0999 V2000
   14.7313  -10.6437  -14.6066 N   0  0  0  0  0  0  0  0  0  0  0  0
   15.5958   -9.9460  -15.5189 C   0  0  0  0  0  0  0  0  0  0  0  0
   16.9795   -9.8266  -15.0081 C   0  0  0  0  0  0  0  0  0  0  0  0
   17.2571   -9.9771  -13.7944 O   0  0  0  0  0  0  0  0  0  0  0  0
   20.8959  -11.1780  -15.8398 O   0  0  0  0  0  0  0  0  0  0  0  0
   20.2591  -10.1434  -16.4818 C   0  0  0  0  0  0  0  0  0  0  0  0
   19.4101   -9.3728  -15.4820 C   0  0  2  0  0  0  0  0  0  0  0  0
   18.0302   -9.5352  -15.8981 N   0  0  0  0  0  0  0  0  0  0  0  0
   19.8033   -7.9423  -15.4275 C   0  0  0  0  0  0  0  0  0  0  0  0
   19.3793   -7.1253  -16.2839 O   0  0  0  0  0  0  0  0  0  0  0  0
   20.6661   -7.4306  -14.4199 N   0  0  0  0  0  0  0  0  0  0  0  0
   21.0853   -6.0453  -14.4291 C   0  0  0  0  0  0  0  0  0  0  0  0
   21.8565   -5.7458  -13.1707 C   0  0  0  0  0  0  0  0  0  0  0  0
   22.4226   -4.6389  -13.0062 O   0  0  0  0  0  0  0  0  0  0  0  0
   21.9699   -6.6820  -12.1466 O   0  0  0  0  0  0  0  0  0  0  0  0
  2  1  1  0
  3  8  1  0
  3  2  1  0
  4  3  2  0
  5  6  1  0
  7  6  1  6
  7  8  1  0
  9  7  1  0
  9 10  2  0
 11  9  1  0
 12 11  1  0
 12 13  1  0
 13 15  1  0
 14 13  2  0
M  END
$$$$
