GSG.pdb
     RDKit          3D

 15 14  0  0  1  0  0  0  0  0999 V2000
   22.3632  -12.1655  -19.0707 N   0  0  0  0  0  0  0  0  0  0  0  0
   22.8460  -11.4124  -17.9454 C   0  0  0  0  0  0  0  0  0  0  0  0
   22.0257  -10.2110  -17.6745 C   0  0  0  0  0  0  0  0  0  0  0  0
   21.5633   -9.4979  -18.5968 O   0  0  0  0  0  0  0  0  0  0  0  0
   18.7505   -8.1805  -15.2507 O   0  0  0  0  0  0  0  0  0  0  0  0
   19.6035   -9.2287  -15.4992 C   0  0  0  0  0  0  0  0  0  0  0  0
   20.9395   -8.6897  -15.9880 C   0  0  2  0  0  0  0  0  0  0  0  0
   21.7452   -9.8415  -16.3457 N   0  0  0  0  0  0  0  0  0  0  0  0
   21.5994   -7.8577  -14.9506 C   0  0  0  0  0  0  0  0  0  0  0  0
   22.3268   -8.3839  -14.0704 O   0  0  0  0  0  0  0  0  0  0  0  0
   21.4453   -6.4452  -14.8998 N   0  0  0  0  0  0  0  0  0  0  0  0
   22.1535   -5.6519  -13.9179 C   0  0  0  0  0  0  0  0  0  0  0  0
   21.8535   -4.1930  -14.1404 C   0  0  0  0  0  0  0  0  0  0  0  0
   21.1242   -3.8193  -15.0897 O   0  0  0  0  0  0  0  0  0  0  0  0
   22.3719   -3.2078  -13.3044 O   0  0  0  0  0  0  0  0  0  0  0  0
  2  1  1  0
  3  8  1  0
  3  2  1  0
  4  3  2  0
  5  6  1  0
  7  6  1  1
  7  8  1  0
  9  7  1  0
  9 10  2  0
 11  9  1  0
 12 11  1  0
 12 13  1  0
 13 15  1  0
 14 13  2  0
M  END
$$$$
