PEC.pdb
     RDKit          3D

 23 23  0  0  1  0  0  0  0  0999 V2000
   27.5946  -18.7941   -6.4839 N   0  0  0  0  0  0  0  0  0  0  0  0
   27.9961  -18.6858   -5.0812 C   0  0  0  0  0  0  0  0  0  0  0  0
   29.0019  -19.7770   -4.8586 C   0  0  0  0  0  0  0  0  0  0  0  0
   28.4992  -20.8449   -5.8426 C   0  0  0  0  0  0  0  0  0  0  0  0
   28.2845  -19.9121   -7.0235 C   0  0  1  0  0  0  0  0  0  0  0  0
   27.7186  -20.5497   -8.2103 C   0  0  0  0  0  0  0  0  0  0  0  0
   28.2782  -21.5329   -8.7782 O   0  0  0  0  0  0  0  0  0  0  0  0
   26.5077  -20.0892   -8.7827 N   0  0  0  0  0  0  0  0  0  0  0  0
   25.8884  -20.5176   -9.9830 C   0  0  1  0  0  0  0  0  0  0  0  0
   24.4115  -20.8374   -9.9315 C   0  0  0  0  0  0  0  0  0  0  0  0
   23.8498  -21.2964  -11.2521 C   0  0  0  0  0  0  0  0  0  0  0  0
   22.3642  -21.3111  -11.2159 C   0  0  0  0  0  0  0  0  0  0  0  0
   21.7833  -20.9197  -10.1929 O   0  0  0  0  0  0  0  0  0  0  0  0
   26.3215  -19.8523  -11.2202 C   0  0  0  0  0  0  0  0  0  0  0  0
   26.7678  -18.6562  -11.1434 O   0  0  0  0  0  0  0  0  0  0  0  0
   21.6344  -21.7494  -12.2931 O   0  0  0  0  0  0  0  0  0  0  0  0
   26.2681  -20.4722  -12.4924 N   0  0  0  0  0  0  0  0  0  0  0  0
   26.8066  -19.8146  -13.6546 C   0  0  1  0  0  0  0  0  0  0  0  0
   28.3134  -19.6642  -13.5399 C   0  0  0  0  0  0  0  0  0  0  0  0
   28.9064  -18.9870  -15.1372 S   0  0  0  0  0  0  0  0  0  0  0  0
   26.4087  -20.5665  -14.8593 C   0  0  0  0  0  0  0  0  0  0  0  0
   26.5035  -19.9654  -16.0992 O   0  0  0  0  0  0  0  0  0  0  0  0
   25.9787  -21.7522  -14.8160 O   0  0  0  0  0  0  0  0  0  0  0  0
  1  2  1  0
  2  3  1  0
  4  3  1  0
  5  4  1  0
  5  1  1  0
  6  7  2  0
  5  6  1  6
  8  6  1  0
  9 14  1  0
  9  8  1  0
  9 10  1  1
 11 12  1  0
 11 10  1  0
 12 13  2  0
 14 17  1  0
 15 14  2  0
 16 12  1  0
 17 18  1  0
 18 21  1  0
 18 19  1  1
 19 20  1  0
 21 23  2  0
 21 22  1  0
M  END
$$$$
