PEC.pdb
     RDKit          3D

 23 23  0  0  1  0  0  0  0  0999 V2000
   19.0318   -9.5725  -16.5072 N   0  0  0  0  0  0  0  0  0  0  0  0
   19.5459  -10.5365  -17.4803 C   0  0  0  0  0  0  0  0  0  0  0  0
   19.5831  -11.8564  -16.7675 C   0  0  0  0  0  0  0  0  0  0  0  0
   19.8596  -11.4037  -15.3253 C   0  0  0  0  0  0  0  0  0  0  0  0
   18.8357  -10.2806  -15.2918 C   0  0  1  0  0  0  0  0  0  0  0  0
   18.8180   -9.5073  -14.0520 C   0  0  0  0  0  0  0  0  0  0  0  0
   18.6711  -10.0535  -12.9196 O   0  0  0  0  0  0  0  0  0  0  0  0
   18.9646   -8.0986  -14.0647 N   0  0  0  0  0  0  0  0  0  0  0  0
   18.9719   -7.2095  -12.9615 C   0  0  1  0  0  0  0  0  0  0  0  0
   19.8071   -5.9547  -13.0811 C   0  0  0  0  0  0  0  0  0  0  0  0
   21.2797   -6.2267  -13.2465 C   0  0  0  0  0  0  0  0  0  0  0  0
   22.0207   -4.9671  -13.5167 C   0  0  0  0  0  0  0  0  0  0  0  0
   22.8149   -4.9285  -14.4680 O   0  0  0  0  0  0  0  0  0  0  0  0
   17.6940   -7.0221  -12.2595 C   0  0  0  0  0  0  0  0  0  0  0  0
   16.6546   -6.7459  -12.9516 O   0  0  0  0  0  0  0  0  0  0  0  0
   21.8372   -3.8559  -12.7316 O   0  0  0  0  0  0  0  0  0  0  0  0
   17.5590   -7.1327  -10.8541 N   0  0  0  0  0  0  0  0  0  0  0  0
   16.2789   -6.9489  -10.2211 C   0  0  1  0  0  0  0  0  0  0  0  0
   16.1150   -7.9003   -9.0488 C   0  0  0  0  0  0  0  0  0  0  0  0
   14.4237   -7.6478   -8.3874 S   0  0  0  0  0  0  0  0  0  0  0  0
   16.1399   -5.5366   -9.8200 C   0  0  0  0  0  0  0  0  0  0  0  0
   14.8802   -4.9801   -9.7131 O   0  0  0  0  0  0  0  0  0  0  0  0
   17.1294   -4.7963   -9.5645 O   0  0  0  0  0  0  0  0  0  0  0  0
  1  2  1  0
  2  3  1  0
  4  3  1  0
  5  4  1  0
  5  1  1  0
  6  7  2  0
  5  6  1  1
  8  6  1  0
  9 14  1  0
  9  8  1  0
  9 10  1  6
 11 12  1  0
 11 10  1  0
 12 13  2  0
 14 17  1  0
 15 14  2  0
 16 12  1  0
 17 18  1  0
 18 21  1  0
 18 19  1  1
 19 20  1  0
 21 23  2  0
 21 22  1  0
M  END
$$$$
