PEC.pdb
     RDKit          3D

 23 23  0  0  1  0  0  0  0  0999 V2000
   18.2184  -10.5468  -16.6318 N   0  0  0  0  0  0  0  0  0  0  0  0
   18.4152  -11.6760  -17.5409 C   0  0  0  0  0  0  0  0  0  0  0  0
   18.2699  -12.9092  -16.6983 C   0  0  0  0  0  0  0  0  0  0  0  0
   18.7942  -12.4038  -15.3452 C   0  0  0  0  0  0  0  0  0  0  0  0
   18.0255  -11.0924  -15.3348 C   0  0  1  0  0  0  0  0  0  0  0  0
   18.3042  -10.2303  -14.1884 C   0  0  0  0  0  0  0  0  0  0  0  0
   18.1081  -10.6098  -12.9968 O   0  0  0  0  0  0  0  0  0  0  0  0
   18.8098   -8.9188  -14.3633 N   0  0  0  0  0  0  0  0  0  0  0  0
   19.1125   -7.9575  -13.3674 C   0  0  1  0  0  0  0  0  0  0  0  0
   20.2332   -6.9838  -13.6541 C   0  0  0  0  0  0  0  0  0  0  0  0
   20.4820   -6.0074  -12.5339 C   0  0  0  0  0  0  0  0  0  0  0  0
   21.5787   -5.0688  -12.8874 C   0  0  0  0  0  0  0  0  0  0  0  0
   21.8173   -4.1119  -12.1360 O   0  0  0  0  0  0  0  0  0  0  0  0
   17.9710   -7.3728  -12.6492 C   0  0  0  0  0  0  0  0  0  0  0  0
   17.0538   -6.7978  -13.3302 O   0  0  0  0  0  0  0  0  0  0  0  0
   22.3239   -5.2480  -14.0265 O   0  0  0  0  0  0  0  0  0  0  0  0
   17.8384   -7.4159  -11.2398 N   0  0  0  0  0  0  0  0  0  0  0  0
   16.6993   -6.8221  -10.5894 C   0  0  1  0  0  0  0  0  0  0  0  0
   16.2346   -7.6798   -9.4255 C   0  0  0  0  0  0  0  0  0  0  0  0
   14.7277   -6.8872   -8.7453 S   0  0  0  0  0  0  0  0  0  0  0  0
   17.0458   -5.4508  -10.1715 C   0  0  0  0  0  0  0  0  0  0  0  0
   16.0399   -4.5261   -9.9696 O   0  0  0  0  0  0  0  0  0  0  0  0
   18.2348   -5.0712   -9.9851 O   0  0  0  0  0  0  0  0  0  0  0  0
  1  2  1  0
  2  3  1  0
  4  3  1  0
  5  4  1  0
  5  1  1  0
  6  7  2  0
  5  6  1  1
  8  6  1  0
  9 14  1  0
  9  8  1  0
  9 10  1  6
 11 12  1  0
 11 10  1  0
 12 13  2  0
 14 17  1  0
 15 14  2  0
 16 12  1  0
 17 18  1  0
 18 21  1  0
 18 19  1  1
 19 20  1  0
 21 23  2  0
 21 22  1  0
M  END
$$$$
