PEC.pdb
     RDKit          3D

 23 23  0  0  1  0  0  0  0  0999 V2000
   24.5901  -20.1247  -10.6211 N   0  0  0  0  0  0  0  0  0  0  0  0
   24.8244  -21.0439   -9.5073 C   0  0  0  0  0  0  0  0  0  0  0  0
   26.0431  -21.8359   -9.8805 C   0  0  0  0  0  0  0  0  0  0  0  0
   25.9092  -21.8773  -11.4107 C   0  0  0  0  0  0  0  0  0  0  0  0
   25.5793  -20.4056  -11.6007 C   0  0  1  0  0  0  0  0  0  0  0  0
   25.2969  -20.0163  -12.9805 C   0  0  0  0  0  0  0  0  0  0  0  0
   26.1056  -20.2512  -13.9256 O   0  0  0  0  0  0  0  0  0  0  0  0
   24.0941  -19.3513  -13.3228 N   0  0  0  0  0  0  0  0  0  0  0  0
   23.5985  -19.0490  -14.6153 C   0  0  1  0  0  0  0  0  0  0  0  0
   22.1292  -19.2941  -14.8750 C   0  0  0  0  0  0  0  0  0  0  0  0
   21.6986  -20.7113  -14.5990 C   0  0  0  0  0  0  0  0  0  0  0  0
   20.2555  -20.8922  -14.9048 C   0  0  0  0  0  0  0  0  0  0  0  0
   19.4290  -20.7954  -13.9858 O   0  0  0  0  0  0  0  0  0  0  0  0
   24.1342  -17.8410  -15.2591 C   0  0  0  0  0  0  0  0  0  0  0  0
   23.8731  -16.7048  -14.7333 O   0  0  0  0  0  0  0  0  0  0  0  0
   19.8314  -21.1628  -16.1822 O   0  0  0  0  0  0  0  0  0  0  0  0
   24.9253  -17.8752  -16.4333 N   0  0  0  0  0  0  0  0  0  0  0  0
   25.5204  -16.6724  -16.9550 C   0  0  1  0  0  0  0  0  0  0  0  0
   27.0357  -16.7451  -16.8836 C   0  0  0  0  0  0  0  0  0  0  0  0
   27.4629  -17.3690  -15.2133 S   0  0  0  0  0  0  0  0  0  0  0  0
   25.0343  -16.4534  -18.3300 C   0  0  0  0  0  0  0  0  0  0  0  0
   25.4379  -15.3294  -19.0239 O   0  0  0  0  0  0  0  0  0  0  0  0
   24.2548  -17.2539  -18.9168 O   0  0  0  0  0  0  0  0  0  0  0  0
  1  2  1  0
  2  3  1  0
  4  3  1  0
  5  4  1  0
  5  1  1  0
  6  7  2  0
  5  6  1  6
  8  6  1  0
  9 14  1  0
  9  8  1  0
  9 10  1  1
 11 12  1  0
 11 10  1  0
 12 13  2  0
 14 17  1  0
 15 14  2  0
 16 12  1  0
 17 18  1  0
 18 21  1  0
 18 19  1  6
 19 20  1  0
 21 23  2  0
 21 22  1  0
M  END
$$$$
