PEC.pdb
     RDKit          3D

 23 23  0  0  1  0  0  0  0  0999 V2000
   17.6996  -10.2810  -16.3331 N   0  0  0  0  0  0  0  0  0  0  0  0
   17.9155  -11.2497  -17.4080 C   0  0  0  0  0  0  0  0  0  0  0  0
   18.3524  -12.5173  -16.7342 C   0  0  0  0  0  0  0  0  0  0  0  0
   19.0936  -11.9585  -15.5096 C   0  0  0  0  0  0  0  0  0  0  0  0
   18.0428  -10.9320  -15.1184 C   0  0  1  0  0  0  0  0  0  0  0  0
   18.4037  -10.0928  -13.9779 C   0  0  0  0  0  0  0  0  0  0  0  0
   18.6811  -10.5811  -12.8435 O   0  0  0  0  0  0  0  0  0  0  0  0
   18.4579   -8.6823  -14.0940 N   0  0  0  0  0  0  0  0  0  0  0  0
   18.8339   -7.7368  -13.1079 C   0  0  1  0  0  0  0  0  0  0  0  0
   19.9886   -6.8147  -13.4285 C   0  0  0  0  0  0  0  0  0  0  0  0
   20.4055   -5.9483  -12.2685 C   0  0  0  0  0  0  0  0  0  0  0  0
   21.5677   -5.0985  -12.6370 C   0  0  0  0  0  0  0  0  0  0  0  0
   22.4602   -4.9034  -11.7989 O   0  0  0  0  0  0  0  0  0  0  0  0
   17.7423   -7.1016  -12.3558 C   0  0  0  0  0  0  0  0  0  0  0  0
   16.9369   -6.3329  -12.9851 O   0  0  0  0  0  0  0  0  0  0  0  0
   21.6630   -4.5321  -13.8840 O   0  0  0  0  0  0  0  0  0  0  0  0
   17.5399   -7.3002  -10.9682 N   0  0  0  0  0  0  0  0  0  0  0  0
   16.4144   -6.7047  -10.2961 C   0  0  1  0  0  0  0  0  0  0  0  0
   16.0174   -7.5230   -9.0798 C   0  0  0  0  0  0  0  0  0  0  0  0
   15.6617   -9.2216   -9.6710 S   0  0  0  0  0  0  0  0  0  0  0  0
   16.7452   -5.3100   -9.9493 C   0  0  0  0  0  0  0  0  0  0  0  0
   17.9976   -4.8121  -10.2517 O   0  0  0  0  0  0  0  0  0  0  0  0
   15.9292   -4.5332   -9.3807 O   0  0  0  0  0  0  0  0  0  0  0  0
  1  2  1  0
  2  3  1  0
  4  3  1  0
  5  4  1  0
  5  1  1  0
  6  7  2  0
  5  6  1  1
  8  6  1  0
  9 14  1  0
  9  8  1  0
  9 10  1  6
 11 12  1  0
 11 10  1  0
 12 13  2  0
 14 17  1  0
 15 14  2  0
 16 12  1  0
 17 18  1  0
 18 21  1  0
 18 19  1  1
 19 20  1  0
 21 23  2  0
 21 22  1  0
M  END
$$$$
