PEC.pdb
     RDKit          3D

 23 23  0  0  1  0  0  0  0  0999 V2000
   19.7413  -11.1690  -17.3506 N   0  0  0  0  0  0  0  0  0  0  0  0
   19.9429  -12.5837  -17.6640 C   0  0  0  0  0  0  0  0  0  0  0  0
   19.1730  -13.3461  -16.6258 C   0  0  0  0  0  0  0  0  0  0  0  0
   19.2838  -12.3970  -15.4223 C   0  0  0  0  0  0  0  0  0  0  0  0
   18.9493  -11.1179  -16.1727 C   0  0  1  0  0  0  0  0  0  0  0  0
   19.0128   -9.9018  -15.3652 C   0  0  0  0  0  0  0  0  0  0  0  0
   18.2836   -9.7321  -14.3446 O   0  0  0  0  0  0  0  0  0  0  0  0
   19.9015   -8.8491  -15.6943 N   0  0  0  0  0  0  0  0  0  0  0  0
   20.0420   -7.5912  -15.0576 C   0  0  1  0  0  0  0  0  0  0  0  0
   21.4316   -7.1763  -14.6293 C   0  0  0  0  0  0  0  0  0  0  0  0
   21.7850   -5.7653  -15.0220 C   0  0  0  0  0  0  0  0  0  0  0  0
   22.0457   -4.9334  -13.8184 C   0  0  0  0  0  0  0  0  0  0  0  0
   22.3901   -3.7517  -13.9669 O   0  0  0  0  0  0  0  0  0  0  0  0
   19.2163   -6.4934  -15.5810 C   0  0  0  0  0  0  0  0  0  0  0  0
   19.2740   -6.2317  -16.8315 O   0  0  0  0  0  0  0  0  0  0  0  0
   21.9106   -5.4543  -12.5554 O   0  0  0  0  0  0  0  0  0  0  0  0
   18.3605   -5.7120  -14.7669 N   0  0  0  0  0  0  0  0  0  0  0  0
   17.5836   -4.6397  -15.3327 C   0  0  1  0  0  0  0  0  0  0  0  0
   16.1154   -5.0200  -15.4107 C   0  0  0  0  0  0  0  0  0  0  0  0
   15.1988   -3.5134  -15.9124 S   0  0  0  0  0  0  0  0  0  0  0  0
   17.8042   -3.4165  -14.5390 C   0  0  0  0  0  0  0  0  0  0  0  0
   18.5551   -3.4821  -13.3816 O   0  0  0  0  0  0  0  0  0  0  0  0
   17.3346   -2.2922  -14.8680 O   0  0  0  0  0  0  0  0  0  0  0  0
  1  2  1  0
  2  3  1  0
  4  3  1  0
  5  4  1  0
  5  1  1  0
  6  7  2  0
  5  6  1  1
  8  6  1  0
  9 14  1  0
  9  8  1  0
  9 10  1  6
 11 12  1  0
 11 10  1  0
 12 13  2  0
 14 17  1  0
 15 14  2  0
 16 12  1  0
 17 18  1  0
 18 21  1  0
 18 19  1  1
 19 20  1  0
 21 23  2  0
 21 22  1  0
M  END
$$$$
