PEC.pdb
     RDKit          3D

 23 23  0  0  1  0  0  0  0  0999 V2000
   21.5285  -12.5658  -15.7271 N   0  0  0  0  0  0  0  0  0  0  0  0
   21.7379  -13.9167  -16.2485 C   0  0  0  0  0  0  0  0  0  0  0  0
   22.8058  -13.7899  -17.2950 C   0  0  0  0  0  0  0  0  0  0  0  0
   22.5342  -12.3720  -17.8215 C   0  0  0  0  0  0  0  0  0  0  0  0
   22.3833  -11.7039  -16.4644 C   0  0  1  0  0  0  0  0  0  0  0  0
   22.0342  -10.2859  -16.5173 C   0  0  0  0  0  0  0  0  0  0  0  0
   22.7785   -9.4296  -17.0786 O   0  0  0  0  0  0  0  0  0  0  0  0
   20.8362   -9.8039  -15.9355 N   0  0  0  0  0  0  0  0  0  0  0  0
   20.3316   -8.4799  -15.9409 C   0  0  1  0  0  0  0  0  0  0  0  0
   18.8358   -8.3018  -15.8102 C   0  0  0  0  0  0  0  0  0  0  0  0
   18.3753   -6.8884  -16.0555 C   0  0  0  0  0  0  0  0  0  0  0  0
   16.9047   -6.7747  -15.8741 C   0  0  0  0  0  0  0  0  0  0  0  0
   16.2443   -6.1301  -16.7020 O   0  0  0  0  0  0  0  0  0  0  0  0
   21.1265   -7.4703  -15.2271 C   0  0  0  0  0  0  0  0  0  0  0  0
   21.4877   -7.7185  -14.0256 O   0  0  0  0  0  0  0  0  0  0  0  0
   16.2750   -7.3701  -14.8092 O   0  0  0  0  0  0  0  0  0  0  0  0
   21.5114   -6.2364  -15.8060 N   0  0  0  0  0  0  0  0  0  0  0  0
   22.3407   -5.3098  -15.0800 C   0  0  1  0  0  0  0  0  0  0  0  0
   22.8874   -4.2362  -16.0045 C   0  0  0  0  0  0  0  0  0  0  0  0
   23.9636   -3.1535  -14.9892 S   0  0  0  0  0  0  0  0  0  0  0  0
   21.5630   -4.7436  -13.9621 C   0  0  0  0  0  0  0  0  0  0  0  0
   22.1136   -4.7147  -12.6957 O   0  0  0  0  0  0  0  0  0  0  0  0
   20.3998   -4.2754  -14.1045 O   0  0  0  0  0  0  0  0  0  0  0  0
  1  2  1  0
  2  3  1  0
  4  3  1  0
  5  4  1  0
  5  1  1  0
  6  7  2  0
  5  6  1  6
  8  6  1  0
  9 14  1  0
  9  8  1  0
  9 10  1  1
 11 12  1  0
 11 10  1  0
 12 13  2  0
 14 17  1  0
 15 14  2  0
 16 12  1  0
 17 18  1  0
 18 21  1  0
 18 19  1  6
 19 20  1  0
 21 23  2  0
 21 22  1  0
M  END
$$$$
