PEC.pdb
     RDKit          3D

 23 23  0  0  1  0  0  0  0  0999 V2000
   24.0436  -12.8063  -15.6355 N   0  0  0  0  0  0  0  0  0  0  0  0
   24.5723  -14.0663  -16.1584 C   0  0  0  0  0  0  0  0  0  0  0  0
   25.2718  -13.7160  -17.4389 C   0  0  0  0  0  0  0  0  0  0  0  0
   24.4286  -12.5238  -17.9175 C   0  0  0  0  0  0  0  0  0  0  0  0
   24.3703  -11.7994  -16.5823 C   0  0  1  0  0  0  0  0  0  0  0  0
   23.5624  -10.5817  -16.5830 C   0  0  0  0  0  0  0  0  0  0  0  0
   23.8984   -9.5510  -17.2366 O   0  0  0  0  0  0  0  0  0  0  0  0
   22.3571  -10.5015  -15.8437 N   0  0  0  0  0  0  0  0  0  0  0  0
   21.4449   -9.4196  -15.7717 C   0  0  1  0  0  0  0  0  0  0  0  0
   19.9977   -9.7445  -15.4778 C   0  0  0  0  0  0  0  0  0  0  0  0
   19.0780   -8.5578  -15.6042 C   0  0  0  0  0  0  0  0  0  0  0  0
   17.6792   -8.9384  -15.2769 C   0  0  0  0  0  0  0  0  0  0  0  0
   17.1732   -8.5229  -14.2240 O   0  0  0  0  0  0  0  0  0  0  0  0
   21.9322   -8.1903  -15.1299 C   0  0  0  0  0  0  0  0  0  0  0  0
   22.4881   -8.2827  -13.9818 O   0  0  0  0  0  0  0  0  0  0  0  0
   16.9477   -9.7379  -16.1199 O   0  0  0  0  0  0  0  0  0  0  0  0
   21.8156   -6.9090  -15.7219 N   0  0  0  0  0  0  0  0  0  0  0  0
   22.3566   -5.7449  -15.0695 C   0  0  1  0  0  0  0  0  0  0  0  0
   23.0186   -4.8207  -16.0764 C   0  0  0  0  0  0  0  0  0  0  0  0
   23.6221   -3.3606  -15.1460 S   0  0  0  0  0  0  0  0  0  0  0  0
   21.2813   -5.0739  -14.3155 C   0  0  0  0  0  0  0  0  0  0  0  0
   21.5686   -4.4818  -13.1012 O   0  0  0  0  0  0  0  0  0  0  0  0
   20.0908   -5.0108  -14.7294 O   0  0  0  0  0  0  0  0  0  0  0  0
  1  2  1  0
  2  3  1  0
  4  3  1  0
  5  4  1  0
  5  1  1  0
  6  7  2  0
  5  6  1  6
  8  6  1  0
  9 14  1  0
  9  8  1  0
  9 10  1  1
 11 12  1  0
 11 10  1  0
 12 13  2  0
 14 17  1  0
 15 14  2  0
 16 12  1  0
 17 18  1  0
 18 21  1  0
 18 19  1  6
 19 20  1  0
 21 23  2  0
 21 22  1  0
M  END
$$$$
