PEC.pdb
     RDKit          3D

 23 23  0  0  1  0  0  0  0  0999 V2000
   26.5870  -17.5361  -17.6878 N   0  0  0  0  0  0  0  0  0  0  0  0
   27.9878  -17.8515  -17.9685 C   0  0  0  0  0  0  0  0  0  0  0  0
   28.2162  -19.2268  -17.4135 C   0  0  0  0  0  0  0  0  0  0  0  0
   27.2419  -19.2295  -16.2253 C   0  0  0  0  0  0  0  0  0  0  0  0
   26.0543  -18.6380  -16.9673 C   0  0  1  0  0  0  0  0  0  0  0  0
   24.8739  -18.3998  -16.1394 C   0  0  0  0  0  0  0  0  0  0  0  0
   24.7578  -17.3700  -15.4125 O   0  0  0  0  0  0  0  0  0  0  0  0
   23.7987  -19.3214  -16.1137 N   0  0  0  0  0  0  0  0  0  0  0  0
   22.6159  -19.2646  -15.3357 C   0  0  1  0  0  0  0  0  0  0  0  0
   21.3023  -19.1215  -16.0708 C   0  0  0  0  0  0  0  0  0  0  0  0
   20.1041  -19.0841  -15.1582 C   0  0  0  0  0  0  0  0  0  0  0  0
   18.8474  -18.9714  -15.9435 C   0  0  0  0  0  0  0  0  0  0  0  0
   17.9377  -19.7897  -15.7437 O   0  0  0  0  0  0  0  0  0  0  0  0
   22.5593  -20.1452  -14.1600 C   0  0  0  0  0  0  0  0  0  0  0  0
   22.7151  -21.4026  -14.3337 O   0  0  0  0  0  0  0  0  0  0  0  0
   18.6842  -17.9802  -16.8793 O   0  0  0  0  0  0  0  0  0  0  0  0
   22.3406  -19.6678  -12.8447 N   0  0  0  0  0  0  0  0  0  0  0  0
   22.3444  -20.5715  -11.7237 C   0  0  1  0  0  0  0  0  0  0  0  0
   22.8790  -19.8851  -10.4790 C   0  0  0  0  0  0  0  0  0  0  0  0
   22.6231  -21.0411   -9.0791 S   0  0  0  0  0  0  0  0  0  0  0  0
   20.9819  -21.1016  -11.5297 C   0  0  0  0  0  0  0  0  0  0  0  0
   19.9045  -20.4211  -12.0625 O   0  0  0  0  0  0  0  0  0  0  0  0
   20.7444  -22.1639  -10.8912 O   0  0  0  0  0  0  0  0  0  0  0  0
  1  2  1  0
  2  3  1  0
  4  3  1  0
  5  4  1  0
  5  1  1  0
  6  7  2  0
  5  6  1  1
  8  6  1  0
  9 14  1  0
  9  8  1  0
  9 10  1  6
 11 12  1  0
 11 10  1  0
 12 13  2  0
 14 17  1  0
 15 14  2  0
 16 12  1  0
 17 18  1  0
 18 21  1  0
 18 19  1  1
 19 20  1  0
 21 23  2  0
 21 22  1  0
M  END
$$$$
