PEC.pdb
     RDKit          3D

 23 23  0  0  1  0  0  0  0  0999 V2000
   23.9359  -22.4769  -14.5525 N   0  0  0  0  0  0  0  0  0  0  0  0
   24.9678  -22.1812  -15.5466 C   0  0  0  0  0  0  0  0  0  0  0  0
   25.5444  -20.8525  -15.1544 C   0  0  0  0  0  0  0  0  0  0  0  0
   24.3198  -20.1776  -14.5171 C   0  0  0  0  0  0  0  0  0  0  0  0
   23.8822  -21.3634  -13.6725 C   0  0  1  0  0  0  0  0  0  0  0  0
   22.6481  -21.1539  -12.9187 C   0  0  0  0  0  0  0  0  0  0  0  0
   22.5478  -20.2634  -12.0246 O   0  0  0  0  0  0  0  0  0  0  0  0
   21.4996  -21.9476  -13.1578 N   0  0  0  0  0  0  0  0  0  0  0  0
   20.2132  -21.8229  -12.5769 C   0  0  1  0  0  0  0  0  0  0  0  0
   19.0848  -21.3608  -13.4710 C   0  0  0  0  0  0  0  0  0  0  0  0
   17.7720  -21.2030  -12.7486 C   0  0  0  0  0  0  0  0  0  0  0  0
   16.6950  -20.8084  -13.6936 C   0  0  0  0  0  0  0  0  0  0  0  0
   16.8644  -20.9891  -14.9084 O   0  0  0  0  0  0  0  0  0  0  0  0
   19.8298  -22.8531  -11.6010 C   0  0  0  0  0  0  0  0  0  0  0  0
   20.0090  -24.0810  -11.9105 O   0  0  0  0  0  0  0  0  0  0  0  0
   15.5251  -20.2510  -13.2403 O   0  0  0  0  0  0  0  0  0  0  0  0
   19.2717  -22.5510  -10.3349 N   0  0  0  0  0  0  0  0  0  0  0  0
   18.9777  -23.5983   -9.3914 C   0  0  1  0  0  0  0  0  0  0  0  0
   19.1806  -23.1136   -7.9666 C   0  0  0  0  0  0  0  0  0  0  0  0
   18.9333  -24.5612   -6.8689 S   0  0  0  0  0  0  0  0  0  0  0  0
   17.6061  -24.0860   -9.6274 C   0  0  0  0  0  0  0  0  0  0  0  0
   17.3364  -25.4366   -9.5229 O   0  0  0  0  0  0  0  0  0  0  0  0
   16.6482  -23.3201   -9.9248 O   0  0  0  0  0  0  0  0  0  0  0  0
  1  2  1  0
  2  3  1  0
  4  3  1  0
  5  4  1  0
  5  1  1  0
  6  7  2  0
  5  6  1  6
  8  6  1  0
  9 14  1  0
  9  8  1  0
  9 10  1  6
 11 12  1  0
 11 10  1  0
 12 13  2  0
 14 17  1  0
 15 14  2  0
 16 12  1  0
 17 18  1  0
 18 21  1  0
 18 19  1  1
 19 20  1  0
 21 23  2  0
 21 22  1  0
M  END
$$$$
