DEQ.pdb
     RDKit          3D

 27 26  0  0  1  0  0  0  0  0999 V2000
   19.3631  -23.1230  -16.0759 N   0  0  0  0  0  0  0  0  0  0  0  0
   20.5961  -23.6791  -15.5867 C   0  0  1  0  0  0  0  0  0  0  0  0
   21.6801  -22.6370  -15.8420 C   0  0  0  0  0  0  0  0  0  0  0  0
   21.9829  -22.5847  -17.2785 C   0  0  0  0  0  0  0  0  0  0  0  0
   21.3668  -23.3321  -18.0728 O   0  0  0  0  0  0  0  0  0  0  0  0
   20.5499  -24.1014  -14.1876 C   0  0  0  0  0  0  0  0  0  0  0  0
   21.5767  -24.6044  -13.6809 O   0  0  0  0  0  0  0  0  0  0  0  0
   22.9403  -21.7303  -17.8260 O   0  0  0  0  0  0  0  0  0  0  0  0
   19.4001  -23.9617  -13.4012 N   0  0  0  0  0  0  0  0  0  0  0  0
   19.3214  -24.3519  -11.9864 C   0  0  1  0  0  0  0  0  0  0  0  0
   18.2348  -23.6402  -11.2877 C   0  0  0  0  0  0  0  0  0  0  0  0
   16.9268  -23.7416  -12.0046 C   0  0  0  0  0  0  0  0  0  0  0  0
   15.8219  -22.9735  -11.3870 C   0  0  0  0  0  0  0  0  0  0  0  0
   14.7177  -22.8136  -11.9302 O   0  0  0  0  0  0  0  0  0  0  0  0
   19.1506  -25.8199  -11.9209 C   0  0  0  0  0  0  0  0  0  0  0  0
   18.3615  -26.4665  -12.6524 O   0  0  0  0  0  0  0  0  0  0  0  0
   15.9852  -22.3749  -10.1189 O   0  0  0  0  0  0  0  0  0  0  0  0
   23.1135  -29.6555   -8.8671 N   0  0  0  0  0  0  0  0  0  0  0  0
   22.1527  -30.5613   -9.3802 C   0  0  0  0  0  0  0  0  0  0  0  0
   22.2352  -31.7878   -9.1868 O   0  0  0  0  0  0  0  0  0  0  0  0
   21.0008  -30.0483  -10.1784 C   0  0  0  0  0  0  0  0  0  0  0  0
   21.0225  -28.5589  -10.2712 C   0  0  0  0  0  0  0  0  0  0  0  0
   19.8239  -28.0387  -10.9903 C   0  0  2  0  0  0  0  0  0  0  0  0
   19.9128  -26.5776  -10.9812 N   0  0  0  0  0  0  0  0  0  0  0  0
   18.5231  -28.4644  -10.4412 C   0  0  0  0  0  0  0  0  0  0  0  0
   17.9889  -27.7408   -9.3503 O   0  0  0  0  0  0  0  0  0  0  0  0
   17.8488  -29.4255  -10.8700 O   0  0  0  0  0  0  0  0  0  0  0  0
  2  1  1  1
  3  2  1  0
  4  3  1  0
  5  4  2  0
  6  7  2  0
  6  2  1  0
  8  4  1  0
  9  6  1  0
 10 11  1  6
 10  9  1  0
 11 12  1  0
 13 17  1  0
 13 12  1  0
 14 13  2  0
 15 10  1  0
 15 16  2  0
 19 18  1  0
 20 19  2  0
 21 19  1  0
 22 21  1  0
 23 22  1  1
 23 24  1  0
 24 15  1  0
 25 23  1  0
 26 25  1  0
 27 25  2  0
M  END
$$$$
