DEQ.pdb
     RDKit          3D

 27 26  0  0  1  0  0  0  0  0999 V2000
   19.5970  -12.5891  -16.3955 N   0  0  0  0  0  0  0  0  0  0  0  0
   19.2776  -11.2788  -16.8954 C   0  0  1  0  0  0  0  0  0  0  0  0
   18.5479  -10.5465  -15.7740 C   0  0  0  0  0  0  0  0  0  0  0  0
   17.3362  -11.2917  -15.4075 C   0  0  0  0  0  0  0  0  0  0  0  0
   16.5137  -11.6186  -16.2939 O   0  0  0  0  0  0  0  0  0  0  0  0
   20.4308  -10.5285  -17.3905 C   0  0  0  0  0  0  0  0  0  0  0  0
   21.5075  -10.6017  -16.7586 O   0  0  0  0  0  0  0  0  0  0  0  0
   17.0384  -11.6675  -14.0973 O   0  0  0  0  0  0  0  0  0  0  0  0
   20.3692   -9.7353  -18.5425 N   0  0  0  0  0  0  0  0  0  0  0  0
   21.4761   -8.8946  -19.0199 C   0  0  1  0  0  0  0  0  0  0  0  0
   21.3768   -8.6397  -20.4693 C   0  0  0  0  0  0  0  0  0  0  0  0
   21.6805   -9.8528  -21.2886 C   0  0  0  0  0  0  0  0  0  0  0  0
   21.2249   -9.7787  -22.6956 C   0  0  0  0  0  0  0  0  0  0  0  0
   20.3657  -10.5360  -23.1732 O   0  0  0  0  0  0  0  0  0  0  0  0
   21.4730   -7.6389  -18.2377 C   0  0  0  0  0  0  0  0  0  0  0  0
   20.4619   -7.1820  -17.6506 O   0  0  0  0  0  0  0  0  0  0  0  0
   21.7654   -8.8159  -23.5752 O   0  0  0  0  0  0  0  0  0  0  0  0
   22.2356   -7.0931  -13.2296 N   0  0  0  0  0  0  0  0  0  0  0  0
   22.3149   -5.6944  -13.4395 C   0  0  0  0  0  0  0  0  0  0  0  0
   22.2461   -4.8827  -12.4988 O   0  0  0  0  0  0  0  0  0  0  0  0
   22.4860   -5.1598  -14.8223 C   0  0  0  0  0  0  0  0  0  0  0  0
   22.4555   -6.2537  -15.8371 C   0  0  0  0  0  0  0  0  0  0  0  0
   22.7196   -5.7333  -17.2096 C   0  0  2  0  0  0  0  0  0  0  0  0
   22.6744   -6.8763  -18.1230 N   0  0  0  0  0  0  0  0  0  0  0  0
   23.9933   -5.0090  -17.3769 C   0  0  0  0  0  0  0  0  0  0  0  0
   24.0301   -3.6354  -17.0438 O   0  0  0  0  0  0  0  0  0  0  0  0
   25.0543   -5.5206  -17.7950 O   0  0  0  0  0  0  0  0  0  0  0  0
  2  1  1  1
  3  2  1  0
  4  3  1  0
  5  4  2  0
  6  7  2  0
  6  2  1  0
  8  4  1  0
  9  6  1  0
 10 11  1  6
 10  9  1  0
 11 12  1  0
 13 17  1  0
 13 12  1  0
 14 13  2  0
 15 10  1  0
 15 16  2  0
 19 18  1  0
 20 19  2  0
 21 19  1  0
 22 21  1  0
 23 22  1  1
 23 24  1  0
 24 15  1  0
 25 23  1  0
 26 25  1  0
 27 25  2  0
M  END
$$$$
