DEQ.pdb
     RDKit          3D

 27 26  0  0  1  0  0  0  0  0999 V2000
   21.6488  -12.5886  -19.1108 N   0  0  0  0  0  0  0  0  0  0  0  0
   21.7225  -11.5969  -18.0716 C   0  0  1  0  0  0  0  0  0  0  0  0
   22.8116  -10.6110  -18.4816 C   0  0  0  0  0  0  0  0  0  0  0  0
   24.1313  -11.2206  -18.2700 C   0  0  0  0  0  0  0  0  0  0  0  0
   24.2167  -12.3564  -17.7490 O   0  0  0  0  0  0  0  0  0  0  0  0
   20.4516  -10.9332  -17.7850 C   0  0  0  0  0  0  0  0  0  0  0  0
   19.8686  -10.3319  -18.7137 O   0  0  0  0  0  0  0  0  0  0  0  0
   25.3267  -10.5944  -18.6238 O   0  0  0  0  0  0  0  0  0  0  0  0
   19.8693  -10.9490  -16.5118 N   0  0  0  0  0  0  0  0  0  0  0  0
   18.6111  -10.2675  -16.1766 C   0  0  1  0  0  0  0  0  0  0  0  0
   17.6156  -11.2070  -15.6274 C   0  0  0  0  0  0  0  0  0  0  0  0
   16.3070  -10.5486  -15.3287 C   0  0  0  0  0  0  0  0  0  0  0  0
   15.2280  -11.4754  -14.9173 C   0  0  0  0  0  0  0  0  0  0  0  0
   14.1513  -11.5789  -15.5255 O   0  0  0  0  0  0  0  0  0  0  0  0
   18.9170   -9.1725  -15.2300 C   0  0  0  0  0  0  0  0  0  0  0  0
   19.7406   -9.2708  -14.2877 O   0  0  0  0  0  0  0  0  0  0  0  0
   15.3856  -12.3022  -13.7839 O   0  0  0  0  0  0  0  0  0  0  0  0
   22.8907   -6.3348  -14.8902 N   0  0  0  0  0  0  0  0  0  0  0  0
   22.1786   -5.3316  -14.1877 C   0  0  0  0  0  0  0  0  0  0  0  0
   22.7550   -4.3650  -13.6565 O   0  0  0  0  0  0  0  0  0  0  0  0
   20.6935   -5.4194  -14.0708 C   0  0  0  0  0  0  0  0  0  0  0  0
   20.1631   -6.6304  -14.7633 C   0  0  0  0  0  0  0  0  0  0  0  0
   18.6927   -6.7759  -14.5601 C   0  0  2  0  0  0  0  0  0  0  0  0
   18.2540   -7.9156  -15.3673 N   0  0  0  0  0  0  0  0  0  0  0  0
   17.8875   -5.5865  -14.8943 C   0  0  0  0  0  0  0  0  0  0  0  0
   17.9004   -4.4960  -13.9943 O   0  0  0  0  0  0  0  0  0  0  0  0
   17.1869   -5.4661  -15.9223 O   0  0  0  0  0  0  0  0  0  0  0  0
  2  1  1  6
  3  2  1  0
  4  3  1  0
  5  4  2  0
  6  7  2  0
  6  2  1  0
  8  4  1  0
  9  6  1  0
 10 11  1  1
 10  9  1  0
 11 12  1  0
 13 17  1  0
 13 12  1  0
 14 13  2  0
 15 10  1  0
 15 16  2  0
 19 18  1  0
 20 19  2  0
 21 19  1  0
 22 21  1  0
 23 22  1  6
 23 24  1  0
 24 15  1  0
 25 23  1  0
 26 25  1  0
 27 25  2  0
M  END
$$$$
