DEQ.pdb
     RDKit          3D

 27 26  0  0  1  0  0  0  0  0999 V2000
   16.8614  -12.5979  -14.3101 N   0  0  0  0  0  0  0  0  0  0  0  0
   16.7034  -11.1744  -14.4432 C   0  0  1  0  0  0  0  0  0  0  0  0
   15.2038  -10.9027  -14.5045 C   0  0  0  0  0  0  0  0  0  0  0  0
   14.6366  -11.5438  -15.6983 C   0  0  0  0  0  0  0  0  0  0  0  0
   15.3883  -11.8773  -16.6431 O   0  0  0  0  0  0  0  0  0  0  0  0
   17.3666  -10.3972  -13.3973 C   0  0  0  0  0  0  0  0  0  0  0  0
   17.3496  -10.8348  -12.2259 O   0  0  0  0  0  0  0  0  0  0  0  0
   13.2754  -11.8109  -15.8471 O   0  0  0  0  0  0  0  0  0  0  0  0
   18.0163   -9.1858  -13.6630 N   0  0  0  0  0  0  0  0  0  0  0  0
   18.6265   -8.3381  -12.6291 C   0  0  1  0  0  0  0  0  0  0  0  0
   19.7513   -7.5509  -13.1682 C   0  0  0  0  0  0  0  0  0  0  0  0
   20.4220   -6.7169  -12.1243 C   0  0  0  0  0  0  0  0  0  0  0  0
   21.5335   -5.8762  -12.6244 C   0  0  0  0  0  0  0  0  0  0  0  0
   22.0339   -4.9493  -11.9685 O   0  0  0  0  0  0  0  0  0  0  0  0
   17.5707   -7.4725  -12.0593 C   0  0  0  0  0  0  0  0  0  0  0  0
   16.4524   -7.2847  -12.5979 O   0  0  0  0  0  0  0  0  0  0  0  0
   22.0842   -6.1020  -13.9046 O   0  0  0  0  0  0  0  0  0  0  0  0
   13.8537   -9.1521   -9.0711 N   0  0  0  0  0  0  0  0  0  0  0  0
   13.6503   -7.8439   -8.5671 C   0  0  0  0  0  0  0  0  0  0  0  0
   12.7042   -7.5715   -7.8061 O   0  0  0  0  0  0  0  0  0  0  0  0
   14.5878   -6.7473   -8.9488 C   0  0  0  0  0  0  0  0  0  0  0  0
   15.7234   -7.2620   -9.7689 C   0  0  0  0  0  0  0  0  0  0  0  0
   16.6822   -6.1743  -10.1182 C   0  0  2  0  0  0  0  0  0  0  0  0
   17.8041   -6.7952  -10.8244 N   0  0  0  0  0  0  0  0  0  0  0  0
   17.1839   -5.3837   -8.9788 C   0  0  0  0  0  0  0  0  0  0  0  0
   16.3895   -4.3140   -8.5059 O   0  0  0  0  0  0  0  0  0  0  0  0
   18.2687   -5.5880   -8.3925 O   0  0  0  0  0  0  0  0  0  0  0  0
  2  1  1  1
  3  2  1  0
  4  3  1  0
  5  4  2  0
  6  7  2  0
  6  2  1  0
  8  4  1  0
  9  6  1  0
 10 11  1  6
 10  9  1  0
 11 12  1  0
 13 17  1  0
 13 12  1  0
 14 13  2  0
 15 10  1  0
 15 16  2  0
 19 18  1  0
 20 19  2  0
 21 19  1  0
 22 21  1  0
 23 22  1  1
 23 24  1  0
 24 15  1  0
 25 23  1  0
 26 25  1  0
 27 25  2  0
M  END
$$$$
