DEQ.pdb
     RDKit          3D

 27 26  0  0  1  0  0  0  0  0999 V2000
   16.9094  -12.2037  -11.3976 N   0  0  0  0  0  0  0  0  0  0  0  0
   16.3572  -10.9685  -11.8858 C   0  0  1  0  0  0  0  0  0  0  0  0
   14.9132  -10.9098  -11.3985 C   0  0  0  0  0  0  0  0  0  0  0  0
   14.1673  -12.0572  -11.9324 C   0  0  0  0  0  0  0  0  0  0  0  0
   14.4879  -12.5483  -13.0392 O   0  0  0  0  0  0  0  0  0  0  0  0
   17.1200   -9.7798  -11.5075 C   0  0  0  0  0  0  0  0  0  0  0  0
   17.3630   -9.5861  -10.2962 O   0  0  0  0  0  0  0  0  0  0  0  0
   13.0952  -12.6486  -11.2636 O   0  0  0  0  0  0  0  0  0  0  0  0
   17.5845   -8.8566  -12.4520 N   0  0  0  0  0  0  0  0  0  0  0  0
   18.2717   -7.6044  -12.1061 C   0  0  1  0  0  0  0  0  0  0  0  0
   19.2709   -7.2350  -13.1262 C   0  0  0  0  0  0  0  0  0  0  0  0
   20.4964   -8.0892  -13.0666 C   0  0  0  0  0  0  0  0  0  0  0  0
   21.5498   -7.7285  -14.0426 C   0  0  0  0  0  0  0  0  0  0  0  0
   22.3462   -8.5519  -14.5196 O   0  0  0  0  0  0  0  0  0  0  0  0
   17.2490   -6.5502  -11.9287 C   0  0  0  0  0  0  0  0  0  0  0  0
   16.0628   -6.6509  -12.3271 O   0  0  0  0  0  0  0  0  0  0  0  0
   21.6945   -6.3947  -14.4821 O   0  0  0  0  0  0  0  0  0  0  0  0
   14.4120   -6.8892   -7.8590 N   0  0  0  0  0  0  0  0  0  0  0  0
   14.1802   -5.4916   -7.8509 C   0  0  0  0  0  0  0  0  0  0  0  0
   13.4129   -4.9565   -7.0303 O   0  0  0  0  0  0  0  0  0  0  0  0
   14.8674   -4.6195   -8.8480 C   0  0  0  0  0  0  0  0  0  0  0  0
   15.8179   -5.4011   -9.6922 C   0  0  0  0  0  0  0  0  0  0  0  0
   16.5492   -4.5215  -10.6492 C   0  0  2  0  0  0  0  0  0  0  0  0
   17.5979   -5.3328  -11.2696 N   0  0  0  0  0  0  0  0  0  0  0  0
   17.1393   -3.3033  -10.0640 C   0  0  0  0  0  0  0  0  0  0  0  0
   16.2948   -2.1909   -9.8434 O   0  0  0  0  0  0  0  0  0  0  0  0
   18.3409   -3.1764   -9.7443 O   0  0  0  0  0  0  0  0  0  0  0  0
  2  1  1  1
  3  2  1  0
  4  3  1  0
  5  4  2  0
  6  7  2  0
  6  2  1  0
  8  4  1  0
  9  6  1  0
 10 11  1  6
 10  9  1  0
 11 12  1  0
 13 17  1  0
 13 12  1  0
 14 13  2  0
 15 10  1  0
 15 16  2  0
 19 18  1  0
 20 19  2  0
 21 19  1  0
 22 21  1  0
 23 22  1  1
 23 24  1  0
 24 15  1  0
 25 23  1  0
 26 25  1  0
 27 25  2  0
M  END
$$$$
