DEQ.pdb
     RDKit          3D

 27 26  0  0  1  0  0  0  0  0999 V2000
   19.0296  -11.0946  -15.3008 N   0  0  0  0  0  0  0  0  0  0  0  0
   18.0051  -10.1514  -14.9407 C   0  0  1  0  0  0  0  0  0  0  0  0
   16.7337  -10.9568  -14.6936 C   0  0  0  0  0  0  0  0  0  0  0  0
   16.2821  -11.5614  -15.9539 C   0  0  0  0  0  0  0  0  0  0  0  0
   16.6145  -11.0463  -17.0463 O   0  0  0  0  0  0  0  0  0  0  0  0
   18.3499   -9.2956  -13.8065 C   0  0  0  0  0  0  0  0  0  0  0  0
   18.7359   -9.8350  -12.7464 O   0  0  0  0  0  0  0  0  0  0  0  0
   15.4845  -12.7047  -16.0092 O   0  0  0  0  0  0  0  0  0  0  0  0
   18.2625   -7.8996  -13.8684 N   0  0  0  0  0  0  0  0  0  0  0  0
   18.6378   -7.0044  -12.7649 C   0  0  1  0  0  0  0  0  0  0  0  0
   19.4694   -5.8815  -13.2371 C   0  0  0  0  0  0  0  0  0  0  0  0
   20.9047   -6.2623  -13.4110 C   0  0  0  0  0  0  0  0  0  0  0  0
   21.7922   -5.8533  -12.2986 C   0  0  0  0  0  0  0  0  0  0  0  0
   22.2951   -6.6576  -11.4985 O   0  0  0  0  0  0  0  0  0  0  0  0
   17.3977   -6.5346  -12.1091 C   0  0  0  0  0  0  0  0  0  0  0  0
   16.3140   -6.3454  -12.7138 O   0  0  0  0  0  0  0  0  0  0  0  0
   22.1108   -4.4927  -12.0978 O   0  0  0  0  0  0  0  0  0  0  0  0
   12.8360   -8.3107  -10.0124 N   0  0  0  0  0  0  0  0  0  0  0  0
   13.9522   -8.7068   -9.2352 C   0  0  0  0  0  0  0  0  0  0  0  0
   13.9232   -9.7166   -8.5085 O   0  0  0  0  0  0  0  0  0  0  0  0
   15.2084   -7.9022   -9.2762 C   0  0  0  0  0  0  0  0  0  0  0  0
   15.1183   -6.8020  -10.2806 C   0  0  0  0  0  0  0  0  0  0  0  0
   16.1791   -5.7762  -10.0641 C   0  0  2  0  0  0  0  0  0  0  0  0
   17.3982   -6.2708  -10.7061 N   0  0  0  0  0  0  0  0  0  0  0  0
   16.4562   -5.4410   -8.6549 C   0  0  0  0  0  0  0  0  0  0  0  0
   15.4730   -4.7274   -7.9317 O   0  0  0  0  0  0  0  0  0  0  0  0
   17.5041   -5.7419   -8.0437 O   0  0  0  0  0  0  0  0  0  0  0  0
  2  1  1  1
  3  2  1  0
  4  3  1  0
  5  4  2  0
  6  7  2  0
  6  2  1  0
  8  4  1  0
  9  6  1  0
 10 11  1  6
 10  9  1  0
 11 12  1  0
 13 17  1  0
 13 12  1  0
 14 13  2  0
 15 10  1  0
 15 16  2  0
 19 18  1  0
 20 19  2  0
 21 19  1  0
 22 21  1  0
 23 22  1  1
 23 24  1  0
 24 15  1  0
 25 23  1  0
 26 25  1  0
 27 25  2  0
M  END
$$$$
