DEQ.pdb
     RDKit          3D

 27 26  0  0  1  0  0  0  0  0999 V2000
   17.5477  -12.5322  -15.2857 N   0  0  0  0  0  0  0  0  0  0  0  0
   17.3521  -11.1141  -15.4260 C   0  0  1  0  0  0  0  0  0  0  0  0
   16.1276  -10.7547  -14.5908 C   0  0  0  0  0  0  0  0  0  0  0  0
   14.9413  -11.4188  -15.1469 C   0  0  0  0  0  0  0  0  0  0  0  0
   14.2224  -12.1311  -14.4086 O   0  0  0  0  0  0  0  0  0  0  0  0
   18.5210  -10.3098  -15.0730 C   0  0  0  0  0  0  0  0  0  0  0  0
   19.0021  -10.4266  -13.9245 O   0  0  0  0  0  0  0  0  0  0  0  0
   14.5566  -11.3011  -16.4828 O   0  0  0  0  0  0  0  0  0  0  0  0
   19.1160   -9.4183  -15.9737 N   0  0  0  0  0  0  0  0  0  0  0  0
   20.3352   -8.6505  -15.6838 C   0  0  1  0  0  0  0  0  0  0  0  0
   21.1119   -8.3840  -16.9089 C   0  0  0  0  0  0  0  0  0  0  0  0
   21.8137   -9.6008  -17.4209 C   0  0  0  0  0  0  0  0  0  0  0  0
   22.6648   -9.3693  -18.6103 C   0  0  0  0  0  0  0  0  0  0  0  0
   23.8771   -9.1139  -18.5401 O   0  0  0  0  0  0  0  0  0  0  0  0
   19.9414   -7.4004  -14.9976 C   0  0  0  0  0  0  0  0  0  0  0  0
   19.0868   -6.5961  -15.4432 O   0  0  0  0  0  0  0  0  0  0  0  0
   22.1151   -9.4317  -19.9091 O   0  0  0  0  0  0  0  0  0  0  0  0
   17.6545   -6.7934   -9.7803 N   0  0  0  0  0  0  0  0  0  0  0  0
   17.9579   -5.4270   -9.9987 C   0  0  0  0  0  0  0  0  0  0  0  0
   17.4644   -4.5234   -9.2999 O   0  0  0  0  0  0  0  0  0  0  0  0
   18.8948   -5.0406  -11.0942 C   0  0  0  0  0  0  0  0  0  0  0  0
   19.3125   -6.2268  -11.8978 C   0  0  0  0  0  0  0  0  0  0  0  0
   20.1481   -5.8280  -13.0670 C   0  0  2  0  0  0  0  0  0  0  0  0
   20.5499   -7.0574  -13.7525 N   0  0  0  0  0  0  0  0  0  0  0  0
   21.3403   -5.0213  -12.7463 C   0  0  0  0  0  0  0  0  0  0  0  0
   21.2069   -3.6140  -12.7160 O   0  0  0  0  0  0  0  0  0  0  0  0
   22.4717   -5.4900  -12.4965 O   0  0  0  0  0  0  0  0  0  0  0  0
  2  1  1  1
  3  2  1  0
  4  3  1  0
  5  4  2  0
  6  7  2  0
  6  2  1  0
  8  4  1  0
  9  6  1  0
 10 11  1  6
 10  9  1  0
 11 12  1  0
 13 17  1  0
 13 12  1  0
 14 13  2  0
 15 10  1  0
 15 16  2  0
 19 18  1  0
 20 19  2  0
 21 19  1  0
 22 21  1  0
 23 22  1  1
 23 24  1  0
 24 15  1  0
 25 23  1  0
 26 25  1  0
 27 25  2  0
M  END
$$$$
