DEQ.pdb
     RDKit          3D

 27 26  0  0  1  0  0  0  0  0999 V2000
   16.9397  -13.3990  -14.4863 N   0  0  0  0  0  0  0  0  0  0  0  0
   16.2895  -12.1161  -14.5064 C   0  0  1  0  0  0  0  0  0  0  0  0
   14.8690  -12.3356  -13.9962 C   0  0  0  0  0  0  0  0  0  0  0  0
   14.1449  -13.2165  -14.9221 C   0  0  0  0  0  0  0  0  0  0  0  0
   14.6023  -13.4258  -16.0693 O   0  0  0  0  0  0  0  0  0  0  0  0
   16.9936  -11.0752  -13.7590 C   0  0  0  0  0  0  0  0  0  0  0  0
   17.3462  -11.3179  -12.5840 O   0  0  0  0  0  0  0  0  0  0  0  0
   12.9469  -13.8511  -14.5923 O   0  0  0  0  0  0  0  0  0  0  0  0
   17.2844   -9.8228  -14.3130 N   0  0  0  0  0  0  0  0  0  0  0  0
   18.0954   -8.7971  -13.6419 C   0  0  1  0  0  0  0  0  0  0  0  0
   19.1633   -8.2885  -14.5230 C   0  0  0  0  0  0  0  0  0  0  0  0
   20.0481   -7.2956  -13.8400 C   0  0  0  0  0  0  0  0  0  0  0  0
   21.1321   -6.7479  -14.6871 C   0  0  0  0  0  0  0  0  0  0  0  0
   21.2983   -7.0719  -15.8733 O   0  0  0  0  0  0  0  0  0  0  0  0
   17.1917   -7.7165  -13.1901 C   0  0  0  0  0  0  0  0  0  0  0  0
   16.2820   -7.2216  -13.8997 O   0  0  0  0  0  0  0  0  0  0  0  0
   22.0463   -5.8080  -14.1637 O   0  0  0  0  0  0  0  0  0  0  0  0
   15.3119   -7.0437   -7.4476 N   0  0  0  0  0  0  0  0  0  0  0  0
   14.3891   -7.3462   -8.4790 C   0  0  0  0  0  0  0  0  0  0  0  0
   13.2972   -7.8954   -8.2450 O   0  0  0  0  0  0  0  0  0  0  0  0
   14.7186   -7.0038   -9.8937 C   0  0  0  0  0  0  0  0  0  0  0  0
   16.0814   -6.4062  -10.0065 C   0  0  0  0  0  0  0  0  0  0  0  0
   16.4354   -6.1168  -11.4261 C   0  0  2  0  0  0  0  0  0  0  0  0
   17.3350   -7.1810  -11.8744 N   0  0  0  0  0  0  0  0  0  0  0  0
   17.0570   -4.8014  -11.6672 C   0  0  0  0  0  0  0  0  0  0  0  0
   16.2648   -3.6443  -11.4860 O   0  0  0  0  0  0  0  0  0  0  0  0
   18.2425   -4.6280  -12.0232 O   0  0  0  0  0  0  0  0  0  0  0  0
  2  1  1  1
  3  2  1  0
  4  3  1  0
  5  4  2  0
  6  7  2  0
  6  2  1  0
  8  4  1  0
  9  6  1  0
 10 11  1  6
 10  9  1  0
 11 12  1  0
 13 17  1  0
 13 12  1  0
 14 13  2  0
 15 10  1  0
 15 16  2  0
 19 18  1  0
 20 19  2  0
 21 19  1  0
 22 21  1  0
 23 22  1  1
 23 24  1  0
 24 15  1  0
 25 23  1  0
 26 25  1  0
 27 25  2  0
M  END
$$$$
