DEQ.pdb
     RDKit          3D

 27 26  0  0  1  0  0  0  0  0999 V2000
   17.8694  -13.2501  -15.1508 N   0  0  0  0  0  0  0  0  0  0  0  0
   16.9956  -12.1481  -15.4526 C   0  0  1  0  0  0  0  0  0  0  0  0
   15.5734  -12.6285  -15.1830 C   0  0  0  0  0  0  0  0  0  0  0  0
   15.2564  -13.7512  -16.0758 C   0  0  0  0  0  0  0  0  0  0  0  0
   15.7398  -13.7844  -17.2309 O   0  0  0  0  0  0  0  0  0  0  0  0
   17.3123  -10.9167  -14.7306 C   0  0  0  0  0  0  0  0  0  0  0  0
   17.1151  -10.8801  -13.4962 O   0  0  0  0  0  0  0  0  0  0  0  0
   14.4278  -14.8106  -15.7051 O   0  0  0  0  0  0  0  0  0  0  0  0
   17.8262   -9.7837  -15.3726 N   0  0  0  0  0  0  0  0  0  0  0  0
   18.1861   -8.5395  -14.6779 C   0  0  1  0  0  0  0  0  0  0  0  0
   19.6431   -8.4351  -14.4734 C   0  0  0  0  0  0  0  0  0  0  0  0
   20.4180   -8.6600  -15.7319 C   0  0  0  0  0  0  0  0  0  0  0  0
   21.8860   -8.5338  -15.5852 C   0  0  0  0  0  0  0  0  0  0  0  0
   22.6571   -9.5059  -15.5979 O   0  0  0  0  0  0  0  0  0  0  0  0
   17.6565   -7.4027  -15.4625 C   0  0  0  0  0  0  0  0  0  0  0  0
   17.5416   -7.4075  -16.7126 O   0  0  0  0  0  0  0  0  0  0  0  0
   22.4843   -7.2657  -15.4202 O   0  0  0  0  0  0  0  0  0  0  0  0
   13.0842   -3.7958  -13.7558 N   0  0  0  0  0  0  0  0  0  0  0  0
   13.5333   -3.0987  -14.9044 C   0  0  0  0  0  0  0  0  0  0  0  0
   12.9048   -2.1339  -15.3763 O   0  0  0  0  0  0  0  0  0  0  0  0
   14.7949   -3.5190  -15.5817 C   0  0  0  0  0  0  0  0  0  0  0  0
   15.4361   -4.6669  -14.8757 C   0  0  0  0  0  0  0  0  0  0  0  0
   16.6853   -5.1029  -15.5640 C   0  0  2  0  0  0  0  0  0  0  0  0
   17.2421   -6.2136  -14.7899 N   0  0  0  0  0  0  0  0  0  0  0  0
   17.7077   -4.0550  -15.7422 C   0  0  0  0  0  0  0  0  0  0  0  0
   18.8027   -4.0304  -14.8482 O   0  0  0  0  0  0  0  0  0  0  0  0
   17.6810   -3.1775  -16.6319 O   0  0  0  0  0  0  0  0  0  0  0  0
  2  1  1  1
  3  2  1  0
  4  3  1  0
  5  4  2  0
  6  7  2  0
  6  2  1  0
  8  4  1  0
  9  6  1  0
 10 11  1  6
 10  9  1  0
 11 12  1  0
 13 17  1  0
 13 12  1  0
 14 13  2  0
 15 10  1  0
 15 16  2  0
 19 18  1  0
 20 19  2  0
 21 19  1  0
 22 21  1  0
 23 22  1  1
 23 24  1  0
 24 15  1  0
 25 23  1  0
 26 25  1  0
 27 25  2  0
M  END
$$$$
