DEQ.pdb
     RDKit          3D

 27 26  0  0  1  0  0  0  0  0999 V2000
   16.9184  -11.0967  -15.4400 N   0  0  0  0  0  0  0  0  0  0  0  0
   17.0273   -9.8856  -16.2084 C   0  0  1  0  0  0  0  0  0  0  0  0
   15.6874   -9.6882  -16.9096 C   0  0  0  0  0  0  0  0  0  0  0  0
   15.4347  -10.8181  -17.8137 C   0  0  0  0  0  0  0  0  0  0  0  0
   16.3012  -11.1483  -18.6557 O   0  0  0  0  0  0  0  0  0  0  0  0
   17.4241   -8.7143  -15.4283 C   0  0  0  0  0  0  0  0  0  0  0  0
   16.7433   -8.4054  -14.4257 O   0  0  0  0  0  0  0  0  0  0  0  0
   14.2568  -11.5654  -17.7904 O   0  0  0  0  0  0  0  0  0  0  0  0
   18.5349   -7.9317  -15.7653 N   0  0  0  0  0  0  0  0  0  0  0  0
   18.9450   -6.7284  -15.0278 C   0  0  1  0  0  0  0  0  0  0  0  0
   20.3930   -6.7319  -14.7473 C   0  0  0  0  0  0  0  0  0  0  0  0
   20.8452   -5.4933  -14.0428 C   0  0  0  0  0  0  0  0  0  0  0  0
   22.2713   -5.4943  -13.6441 C   0  0  0  0  0  0  0  0  0  0  0  0
   22.8362   -4.5135  -13.1354 O   0  0  0  0  0  0  0  0  0  0  0  0
   18.5385   -5.5435  -15.8149 C   0  0  0  0  0  0  0  0  0  0  0  0
   18.7669   -5.4054  -17.0415 O   0  0  0  0  0  0  0  0  0  0  0  0
   23.0682   -6.6444  -13.8323 O   0  0  0  0  0  0  0  0  0  0  0  0
   13.5915   -3.8819  -17.6714 N   0  0  0  0  0  0  0  0  0  0  0  0
   13.7043   -4.0306  -16.2671 C   0  0  0  0  0  0  0  0  0  0  0  0
   12.7219   -4.3017  -15.5530 O   0  0  0  0  0  0  0  0  0  0  0  0
   15.0319   -3.8611  -15.6070 C   0  0  0  0  0  0  0  0  0  0  0  0
   16.1214   -3.6844  -16.6116 C   0  0  0  0  0  0  0  0  0  0  0  0
   17.4117   -3.3182  -15.9595 C   0  0  2  0  0  0  0  0  0  0  0  0
   17.8436   -4.4746  -15.1726 N   0  0  0  0  0  0  0  0  0  0  0  0
   17.3694   -2.1180  -15.1036 C   0  0  0  0  0  0  0  0  0  0  0  0
   17.1148   -0.8691  -15.7157 O   0  0  0  0  0  0  0  0  0  0  0  0
   17.5430   -2.1190  -13.8659 O   0  0  0  0  0  0  0  0  0  0  0  0
  2  1  1  1
  3  2  1  0
  4  3  1  0
  5  4  2  0
  6  7  2  0
  6  2  1  0
  8  4  1  0
  9  6  1  0
 10 11  1  6
 10  9  1  0
 11 12  1  0
 13 17  1  0
 13 12  1  0
 14 13  2  0
 15 10  1  0
 15 16  2  0
 19 18  1  0
 20 19  2  0
 21 19  1  0
 22 21  1  0
 23 22  1  1
 23 24  1  0
 24 15  1  0
 25 23  1  0
 26 25  1  0
 27 25  2  0
M  END
$$$$
