DEQ.pdb
     RDKit          3D

 27 26  0  0  1  0  0  0  0  0999 V2000
   22.0094  -10.3608  -15.9943 N   0  0  0  0  0  0  0  0  0  0  0  0
   22.3602   -9.4274  -17.0310 C   0  0  1  0  0  0  0  0  0  0  0  0
   22.8746  -10.2504  -18.2075 C   0  0  0  0  0  0  0  0  0  0  0  0
   24.0866  -10.9769  -17.8064 C   0  0  0  0  0  0  0  0  0  0  0  0
   24.5095  -10.8825  -16.6311 O   0  0  0  0  0  0  0  0  0  0  0  0
   21.2768   -8.5242  -17.4162 C   0  0  0  0  0  0  0  0  0  0  0  0
   20.3786   -8.9563  -18.1716 O   0  0  0  0  0  0  0  0  0  0  0  0
   24.8144  -11.7873  -18.6783 O   0  0  0  0  0  0  0  0  0  0  0  0
   21.2126   -7.1989  -16.9694 N   0  0  0  0  0  0  0  0  0  0  0  0
   20.0788   -6.3001  -17.2277 C   0  0  1  0  0  0  0  0  0  0  0  0
   18.8303   -6.8200  -16.6393 C   0  0  0  0  0  0  0  0  0  0  0  0
   17.6750   -5.8898  -16.8274 C   0  0  0  0  0  0  0  0  0  0  0  0
   16.8504   -5.6750  -15.6164 C   0  0  0  0  0  0  0  0  0  0  0  0
   16.4382   -4.5592  -15.2631 O   0  0  0  0  0  0  0  0  0  0  0  0
   20.4215   -4.9612  -16.7000 C   0  0  0  0  0  0  0  0  0  0  0  0
   21.3398   -4.7490  -15.8708 O   0  0  0  0  0  0  0  0  0  0  0  0
   16.4901   -6.7626  -14.7915 O   0  0  0  0  0  0  0  0  0  0  0  0
   24.1081   -2.6073  -18.9202 N   0  0  0  0  0  0  0  0  0  0  0  0
   23.6042   -1.3418  -18.5308 C   0  0  0  0  0  0  0  0  0  0  0  0
   24.2398   -0.2907  -18.7298 O   0  0  0  0  0  0  0  0  0  0  0  0
   22.2740   -1.2467  -17.8610 C   0  0  0  0  0  0  0  0  0  0  0  0
   21.6258   -2.5858  -17.7440 C   0  0  0  0  0  0  0  0  0  0  0  0
   20.2984   -2.4933  -17.0703 C   0  0  2  0  0  0  0  0  0  0  0  0
   19.6839   -3.8202  -17.1386 N   0  0  0  0  0  0  0  0  0  0  0  0
   19.3762   -1.4855  -17.6260 C   0  0  0  0  0  0  0  0  0  0  0  0
   19.2115   -0.2701  -16.9226 O   0  0  0  0  0  0  0  0  0  0  0  0
   18.7218   -1.6239  -18.6819 O   0  0  0  0  0  0  0  0  0  0  0  0
  2  1  1  1
  3  2  1  0
  4  3  1  0
  5  4  2  0
  6  7  2  0
  6  2  1  0
  8  4  1  0
  9  6  1  0
 10 11  1  1
 10  9  1  0
 11 12  1  0
 13 17  1  0
 13 12  1  0
 14 13  2  0
 15 10  1  0
 15 16  2  0
 19 18  1  0
 20 19  2  0
 21 19  1  0
 22 21  1  0
 23 22  1  6
 23 24  1  0
 24 15  1  0
 25 23  1  0
 26 25  1  0
 27 25  2  0
M  END
$$$$
