CNP.pdb
     RDKit          3D

 22 22  0  0  1  0  0  0  0  0999 V2000
    8.0192  -15.8175   18.5247 N   0  0  0  0  0  0  0  0  0  0  0  0
    8.3231  -14.8419   19.5256 C   0  0  1  0  0  0  0  0  0  0  0  0
    8.0512  -13.4612   18.9856 C   0  0  0  0  0  0  0  0  0  0  0  0
    8.3870  -12.2562   20.2913 S   0  0  0  0  0  0  0  0  0  0  0  0
    7.4996  -15.0714   20.7669 C   0  0  0  0  0  0  0  0  0  0  0  0
    6.2878  -15.3980   20.6859 O   0  0  0  0  0  0  0  0  0  0  0  0
    7.4743  -17.8272   25.5857 N   0  0  0  0  0  0  0  0  0  0  0  0
    6.6725  -17.1363   24.6370 C   0  0  0  0  0  0  0  0  0  0  0  0
    5.4732  -16.8878   24.8665 O   0  0  0  0  0  0  0  0  0  0  0  0
    7.2830  -16.7177   23.3755 C   0  0  0  0  0  0  0  0  0  0  0  0
    7.3337  -15.1940   23.2973 C   0  0  2  0  0  0  0  0  0  0  0  0
    8.0597  -14.9279   22.0592 N   0  0  0  0  0  0  0  0  0  0  0  0
    8.2236  -14.7796   24.4200 C   0  0  0  0  0  0  0  0  0  0  0  0
    9.4569  -15.1075   24.2932 O   0  0  0  0  0  0  0  0  0  0  0  0
    7.7874  -14.0776   25.5550 N   0  0  0  0  0  0  0  0  0  0  0  0
    6.3751  -13.8855   25.9031 C   0  0  0  0  0  0  0  0  0  0  0  0
    6.3607  -12.8675   27.0247 C   0  0  0  0  0  0  0  0  0  0  0  0
    7.7061  -12.2009   26.8327 C   0  0  0  0  0  0  0  0  0  0  0  0
    8.5734  -13.4492   26.5853 C   0  0  1  0  0  0  0  0  0  0  0  0
    8.4951  -14.2133   27.8675 C   0  0  0  0  0  0  0  0  0  0  0  0
    7.7698  -15.3908   27.9138 O   0  0  0  0  0  0  0  0  0  0  0  0
    9.0669  -13.8151   28.8940 O   0  0  0  0  0  0  0  0  0  0  0  0
  2  1  1  6
  2  3  1  0
  2  5  1  0
  3  4  1  0
  5 12  1  0
  5  6  2  0
  8  7  1  0
  8 10  1  0
  9  8  2  0
 11 10  1  1
 11 13  1  0
 12 11  1  0
 13 14  2  0
 13 15  1  0
 15 16  1  0
 16 17  1  0
 18 17  1  0
 19 15  1  0
 19 18  1  0
 19 20  1  1
 21 20  1  0
 22 20  2  0
M  END
$$$$
