CNP.pdb
     RDKit          3D

 22 22  0  0  1  0  0  0  0  0999 V2000
    4.4823  -19.6831   18.9633 N   0  0  0  0  0  0  0  0  0  0  0  0
    5.6093  -19.9467   19.8038 C   0  0  1  0  0  0  0  0  0  0  0  0
    6.8732  -19.9046   18.9837 C   0  0  0  0  0  0  0  0  0  0  0  0
    7.0440  -18.2502   18.2744 S   0  0  0  0  0  0  0  0  0  0  0  0
    5.6954  -18.9368   20.9192 C   0  0  0  0  0  0  0  0  0  0  0  0
    5.1335  -17.8160   20.8194 O   0  0  0  0  0  0  0  0  0  0  0  0
    6.2594  -17.5708   26.2109 N   0  0  0  0  0  0  0  0  0  0  0  0
    7.2483  -18.3651   25.5691 C   0  0  0  0  0  0  0  0  0  0  0  0
    8.4283  -18.3719   25.9692 O   0  0  0  0  0  0  0  0  0  0  0  0
    6.8551  -19.1817   24.4211 C   0  0  0  0  0  0  0  0  0  0  0  0
    6.5147  -18.2864   23.2324 C   0  0  2  0  0  0  0  0  0  0  0  0
    6.4080  -19.2142   22.1106 N   0  0  0  0  0  0  0  0  0  0  0  0
    7.7396  -17.4672   23.0033 C   0  0  0  0  0  0  0  0  0  0  0  0
    8.6561  -18.0325   22.3067 O   0  0  0  0  0  0  0  0  0  0  0  0
    7.9213  -16.1645   23.4943 N   0  0  0  0  0  0  0  0  0  0  0  0
    6.9827  -15.4965   24.4031 C   0  0  0  0  0  0  0  0  0  0  0  0
    7.4204  -14.0474   24.4572 C   0  0  0  0  0  0  0  0  0  0  0  0
    8.2204  -13.9349   23.1771 C   0  0  0  0  0  0  0  0  0  0  0  0
    9.0114  -15.2539   23.2569 C   0  0  1  0  0  0  0  0  0  0  0  0
    9.8634  -15.1003   24.4753 C   0  0  0  0  0  0  0  0  0  0  0  0
    9.4642  -15.6886   25.6624 O   0  0  0  0  0  0  0  0  0  0  0  0
   10.9232  -14.4558   24.4469 O   0  0  0  0  0  0  0  0  0  0  0  0
  2  1  1  6
  2  3  1  0
  2  5  1  0
  3  4  1  0
  5 12  1  0
  5  6  2  0
  8  7  1  0
  8 10  1  0
  9  8  2  0
 11 10  1  1
 11 13  1  0
 12 11  1  0
 13 14  2  0
 13 15  1  0
 15 16  1  0
 16 17  1  0
 18 17  1  0
 19 15  1  0
 19 18  1  0
 19 20  1  1
 21 20  1  0
 22 20  2  0
M  END
$$$$
