CNP.pdb
     RDKit          3D

 22 22  0  0  1  0  0  0  0  0999 V2000
    7.7653  -15.6615   18.9196 N   0  0  0  0  0  0  0  0  0  0  0  0
    8.5883  -15.3332   20.0425 C   0  0  1  0  0  0  0  0  0  0  0  0
    9.3819  -14.0877   19.7415 C   0  0  0  0  0  0  0  0  0  0  0  0
    8.2280  -12.7260   19.4524 S   0  0  0  0  0  0  0  0  0  0  0  0
    7.7510  -15.1143   21.2764 C   0  0  0  0  0  0  0  0  0  0  0  0
    6.7077  -14.4134   21.2321 O   0  0  0  0  0  0  0  0  0  0  0  0
    5.6279  -17.1073   22.3711 N   0  0  0  0  0  0  0  0  0  0  0  0
    6.2283  -17.7289   23.4997 C   0  0  0  0  0  0  0  0  0  0  0  0
    5.9293  -18.8929   23.8289 O   0  0  0  0  0  0  0  0  0  0  0  0
    7.2116  -16.9736   24.2755 C   0  0  0  0  0  0  0  0  0  0  0  0
    7.3193  -15.5481   23.7403 C   0  0  2  0  0  0  0  0  0  0  0  0
    8.1089  -15.6874   22.5205 N   0  0  0  0  0  0  0  0  0  0  0  0
    8.1721  -14.8281   24.7295 C   0  0  0  0  0  0  0  0  0  0  0  0
    9.4311  -14.8467   24.4858 O   0  0  0  0  0  0  0  0  0  0  0  0
    7.6767  -14.1617   25.8617 N   0  0  0  0  0  0  0  0  0  0  0  0
    6.2621  -14.1560   26.2515 C   0  0  0  0  0  0  0  0  0  0  0  0
    6.1402  -13.1192   27.3490 C   0  0  0  0  0  0  0  0  0  0  0  0
    7.3742  -12.2796   27.0975 C   0  0  0  0  0  0  0  0  0  0  0  0
    8.3981  -13.4033   26.8508 C   0  0  1  0  0  0  0  0  0  0  0  0
    8.4639  -14.1353   28.1522 C   0  0  0  0  0  0  0  0  0  0  0  0
    9.2568  -13.6390   29.1718 O   0  0  0  0  0  0  0  0  0  0  0  0
    7.8222  -15.1804   28.3400 O   0  0  0  0  0  0  0  0  0  0  0  0
  2  1  1  6
  2  3  1  0
  2  5  1  0
  3  4  1  0
  5 12  1  0
  5  6  2  0
  8  7  1  0
  8 10  1  0
  9  8  2  0
 11 10  1  1
 11 13  1  0
 12 11  1  0
 13 14  2  0
 13 15  1  0
 15 16  1  0
 16 17  1  0
 18 17  1  0
 19 15  1  0
 19 18  1  0
 19 20  1  1
 21 20  1  0
 22 20  2  0
M  END
$$$$
