CNP.pdb
     RDKit          3D

 22 22  0  0  1  0  0  0  0  0999 V2000
    7.3234  -16.0864   19.0763 N   0  0  0  0  0  0  0  0  0  0  0  0
    7.8967  -15.1490   19.9921 C   0  0  1  0  0  0  0  0  0  0  0  0
    7.6837  -13.7471   19.4812 C   0  0  0  0  0  0  0  0  0  0  0  0
    8.3111  -12.5835   20.7147 S   0  0  0  0  0  0  0  0  0  0  0  0
    7.2797  -15.2886   21.3601 C   0  0  0  0  0  0  0  0  0  0  0  0
    6.0331  -15.3794   21.4994 O   0  0  0  0  0  0  0  0  0  0  0  0
    5.8815  -17.9261   25.5424 N   0  0  0  0  0  0  0  0  0  0  0  0
    7.2240  -17.4983   25.3545 C   0  0  0  0  0  0  0  0  0  0  0  0
    8.0280  -17.4633   26.3059 O   0  0  0  0  0  0  0  0  0  0  0  0
    7.6507  -17.0963   24.0146 C   0  0  0  0  0  0  0  0  0  0  0  0
    7.5564  -15.5798   23.8669 C   0  0  2  0  0  0  0  0  0  0  0  0
    8.0786  -15.3221   22.5284 N   0  0  0  0  0  0  0  0  0  0  0  0
    8.5528  -15.0354   24.8339 C   0  0  0  0  0  0  0  0  0  0  0  0
    9.7817  -15.2433   24.5318 O   0  0  0  0  0  0  0  0  0  0  0  0
    8.2165  -14.3371   26.0046 N   0  0  0  0  0  0  0  0  0  0  0  0
    6.8393  -14.1421   26.4715 C   0  0  0  0  0  0  0  0  0  0  0  0
    6.9233  -13.1290   27.5945 C   0  0  0  0  0  0  0  0  0  0  0  0
    8.2499  -12.4658   27.2923 C   0  0  0  0  0  0  0  0  0  0  0  0
    9.0889  -13.7157   26.9674 C   0  0  1  0  0  0  0  0  0  0  0  0
    9.1165  -14.4852   28.2484 C   0  0  0  0  0  0  0  0  0  0  0  0
    9.9930  -14.1066   29.2500 O   0  0  0  0  0  0  0  0  0  0  0  0
    8.3696  -15.4581   28.4352 O   0  0  0  0  0  0  0  0  0  0  0  0
  2  1  1  6
  2  3  1  0
  2  5  1  0
  3  4  1  0
  5 12  1  0
  5  6  2  0
  8  7  1  0
  8 10  1  0
  9  8  2  0
 11 10  1  1
 11 13  1  0
 12 11  1  0
 13 14  2  0
 13 15  1  0
 15 16  1  0
 16 17  1  0
 18 17  1  0
 19 15  1  0
 19 18  1  0
 19 20  1  1
 21 20  1  0
 22 20  2  0
M  END
$$$$
