CNP.pdb
     RDKit          3D

 22 22  0  0  1  0  0  0  0  0999 V2000
    9.3794  -17.5664   19.5955 N   0  0  0  0  0  0  0  0  0  0  0  0
   10.0112  -16.8157   20.6363 C   0  0  1  0  0  0  0  0  0  0  0  0
   10.8745  -15.7387   20.0310 C   0  0  0  0  0  0  0  0  0  0  0  0
   11.8065  -14.9358   21.3562 S   0  0  0  0  0  0  0  0  0  0  0  0
    8.9852  -16.1906   21.5463 C   0  0  0  0  0  0  0  0  0  0  0  0
    7.8752  -15.8046   21.0982 O   0  0  0  0  0  0  0  0  0  0  0  0
    6.7066  -16.4340   26.1202 N   0  0  0  0  0  0  0  0  0  0  0  0
    6.8155  -17.5261   25.2169 C   0  0  0  0  0  0  0  0  0  0  0  0
    6.2080  -18.5945   25.4218 O   0  0  0  0  0  0  0  0  0  0  0  0
    7.6597  -17.3744   24.0321 C   0  0  0  0  0  0  0  0  0  0  0  0
    8.1889  -15.9453   23.9445 C   0  0  2  0  0  0  0  0  0  0  0  0
    9.2350  -16.0177   22.9290 N   0  0  0  0  0  0  0  0  0  0  0  0
    8.8675  -15.7044   25.2504 C   0  0  0  0  0  0  0  0  0  0  0  0
    9.9286  -16.3953   25.4538 O   0  0  0  0  0  0  0  0  0  0  0  0
    8.4145  -14.7949   26.2194 N   0  0  0  0  0  0  0  0  0  0  0  0
    7.0110  -14.3944   26.3700 C   0  0  0  0  0  0  0  0  0  0  0  0
    7.0163  -13.2241   27.3318 C   0  0  0  0  0  0  0  0  0  0  0  0
    8.4485  -12.7502   27.2090 C   0  0  0  0  0  0  0  0  0  0  0  0
    9.1683  -14.1114   27.2386 C   0  0  1  0  0  0  0  0  0  0  0  0
    8.8652  -14.6600   28.5954 C   0  0  0  0  0  0  0  0  0  0  0  0
    7.9863  -15.7216   28.7185 O   0  0  0  0  0  0  0  0  0  0  0  0
    9.3848  -14.1843   29.6167 O   0  0  0  0  0  0  0  0  0  0  0  0
  2  1  1  6
  2  3  1  0
  2  5  1  0
  3  4  1  0
  5 12  1  0
  5  6  2  0
  8  7  1  0
  8 10  1  0
  9  8  2  0
 11 10  1  1
 11 13  1  0
 12 11  1  0
 13 14  2  0
 13 15  1  0
 15 16  1  0
 16 17  1  0
 18 17  1  0
 19 15  1  0
 19 18  1  0
 19 20  1  1
 21 20  1  0
 22 20  2  0
M  END
$$$$
