CNP.pdb
     RDKit          3D

 22 22  0  0  1  0  0  0  0  0999 V2000
    7.4747  -15.7012   19.1813 N   0  0  0  0  0  0  0  0  0  0  0  0
    8.0442  -14.7974   20.1325 C   0  0  1  0  0  0  0  0  0  0  0  0
    7.8551  -13.3790   19.6591 C   0  0  0  0  0  0  0  0  0  0  0  0
    9.1081  -13.0184   18.4064 S   0  0  0  0  0  0  0  0  0  0  0  0
    7.4045  -14.9691   21.4862 C   0  0  0  0  0  0  0  0  0  0  0  0
    6.1917  -14.6892   21.6668 O   0  0  0  0  0  0  0  0  0  0  0  0
    5.4720  -17.4323   23.4931 N   0  0  0  0  0  0  0  0  0  0  0  0
    6.8042  -17.9231   23.5620 C   0  0  0  0  0  0  0  0  0  0  0  0
    7.1116  -19.0238   23.0653 O   0  0  0  0  0  0  0  0  0  0  0  0
    7.8178  -17.1083   24.2313 C   0  0  0  0  0  0  0  0  0  0  0  0
    7.5848  -15.6299   23.9309 C   0  0  2  0  0  0  0  0  0  0  0  0
    8.1434  -15.4487   22.5945 N   0  0  0  0  0  0  0  0  0  0  0  0
    8.4762  -14.8989   24.8769 C   0  0  0  0  0  0  0  0  0  0  0  0
    9.7272  -14.9425   24.5977 O   0  0  0  0  0  0  0  0  0  0  0  0
    8.0236  -14.1974   26.0057 N   0  0  0  0  0  0  0  0  0  0  0  0
    6.6125  -14.1041   26.3970 C   0  0  0  0  0  0  0  0  0  0  0  0
    6.5550  -13.0557   27.4888 C   0  0  0  0  0  0  0  0  0  0  0  0
    7.8372  -12.2936   27.2313 C   0  0  0  0  0  0  0  0  0  0  0  0
    8.7910  -13.4785   26.9897 C   0  0  1  0  0  0  0  0  0  0  0  0
    8.8142  -14.2058   28.2952 C   0  0  0  0  0  0  0  0  0  0  0  0
    8.1298  -15.4021   28.4191 O   0  0  0  0  0  0  0  0  0  0  0  0
    9.4346  -13.7607   29.2732 O   0  0  0  0  0  0  0  0  0  0  0  0
  2  1  1  6
  2  3  1  0
  2  5  1  0
  3  4  1  0
  5 12  1  0
  5  6  2  0
  8  7  1  0
  8 10  1  0
  9  8  2  0
 11 10  1  1
 11 13  1  0
 12 11  1  0
 13 14  2  0
 13 15  1  0
 15 16  1  0
 16 17  1  0
 18 17  1  0
 19 15  1  0
 19 18  1  0
 19 20  1  1
 21 20  1  0
 22 20  2  0
M  END
$$$$
