CNP.pdb
     RDKit          3D

 22 22  0  0  1  0  0  0  0  0999 V2000
    7.6850  -15.7893   19.1761 N   0  0  0  0  0  0  0  0  0  0  0  0
    8.1351  -14.7911   20.0964 C   0  0  1  0  0  0  0  0  0  0  0  0
    7.8982  -13.4215   19.5135 C   0  0  0  0  0  0  0  0  0  0  0  0
    9.2947  -13.0017   18.4444 S   0  0  0  0  0  0  0  0  0  0  0  0
    7.4145  -14.9120   21.4146 C   0  0  0  0  0  0  0  0  0  0  0  0
    6.2296  -14.5099   21.5414 O   0  0  0  0  0  0  0  0  0  0  0  0
    5.6181  -17.1928   22.7494 N   0  0  0  0  0  0  0  0  0  0  0  0
    6.5238  -17.8321   23.6391 C   0  0  0  0  0  0  0  0  0  0  0  0
    6.4256  -19.0476   23.8947 O   0  0  0  0  0  0  0  0  0  0  0  0
    7.5826  -17.0331   24.2553 C   0  0  0  0  0  0  0  0  0  0  0  0
    7.4250  -15.5650   23.8680 C   0  0  2  0  0  0  0  0  0  0  0  0
    8.0439  -15.4793   22.5488 N   0  0  0  0  0  0  0  0  0  0  0  0
    8.3082  -14.8202   24.8110 C   0  0  0  0  0  0  0  0  0  0  0  0
    9.5509  -14.7943   24.4954 O   0  0  0  0  0  0  0  0  0  0  0  0
    7.8562  -14.1762   25.9739 N   0  0  0  0  0  0  0  0  0  0  0  0
    6.4685  -14.2261   26.4476 C   0  0  0  0  0  0  0  0  0  0  0  0
    6.3727  -13.1974   27.5553 C   0  0  0  0  0  0  0  0  0  0  0  0
    7.5562  -12.3100   27.2343 C   0  0  0  0  0  0  0  0  0  0  0  0
    8.6060  -13.3926   26.9215 C   0  0  1  0  0  0  0  0  0  0  0  0
    8.7778  -14.1245   28.2133 C   0  0  0  0  0  0  0  0  0  0  0  0
    9.6085  -13.5988   29.1871 O   0  0  0  0  0  0  0  0  0  0  0  0
    8.1913  -15.1955   28.4333 O   0  0  0  0  0  0  0  0  0  0  0  0
  2  1  1  6
  2  3  1  0
  2  5  1  0
  3  4  1  0
  5 12  1  0
  5  6  2  0
  8  7  1  0
  8 10  1  0
  9  8  2  0
 11 10  1  1
 11 13  1  0
 12 11  1  0
 13 14  2  0
 13 15  1  0
 15 16  1  0
 16 17  1  0
 18 17  1  0
 19 15  1  0
 19 18  1  0
 19 20  1  1
 21 20  1  0
 22 20  2  0
M  END
$$$$
