CNP.pdb
     RDKit          3D

 22 22  0  0  1  0  0  0  0  0999 V2000
    7.8776  -16.5237   19.2751 N   0  0  0  0  0  0  0  0  0  0  0  0
    8.2588  -15.3578   20.0110 C   0  0  1  0  0  0  0  0  0  0  0  0
    8.0105  -14.1282   19.1755 C   0  0  0  0  0  0  0  0  0  0  0  0
    8.6356  -12.6876   20.0717 S   0  0  0  0  0  0  0  0  0  0  0  0
    7.4839  -15.2592   21.3000 C   0  0  0  0  0  0  0  0  0  0  0  0
    6.2909  -14.8613   21.3067 O   0  0  0  0  0  0  0  0  0  0  0  0
    5.6175  -17.2216   22.7319 N   0  0  0  0  0  0  0  0  0  0  0  0
    6.4681  -17.8000   23.7130 C   0  0  0  0  0  0  0  0  0  0  0  0
    6.3825  -19.0074   24.0087 O   0  0  0  0  0  0  0  0  0  0  0  0
    7.4545  -16.9475   24.3760 C   0  0  0  0  0  0  0  0  0  0  0  0
    7.3771  -15.5271   23.8223 C   0  0  2  0  0  0  0  0  0  0  0  0
    8.0700  -15.6094   22.5402 N   0  0  0  0  0  0  0  0  0  0  0  0
    8.2365  -14.7123   24.7288 C   0  0  0  0  0  0  0  0  0  0  0  0
    9.4856  -14.7013   24.4382 O   0  0  0  0  0  0  0  0  0  0  0  0
    7.7569  -13.9906   25.8334 N   0  0  0  0  0  0  0  0  0  0  0  0
    6.3377  -13.8981   26.1942 C   0  0  0  0  0  0  0  0  0  0  0  0
    6.2519  -12.8277   27.2626 C   0  0  0  0  0  0  0  0  0  0  0  0
    7.5345  -12.0630   27.0150 C   0  0  0  0  0  0  0  0  0  0  0  0
    8.5000  -13.2465   26.8175 C   0  0  1  0  0  0  0  0  0  0  0  0
    8.5011  -13.9465   28.1381 C   0  0  0  0  0  0  0  0  0  0  0  0
    9.2524  -13.4315   29.1797 O   0  0  0  0  0  0  0  0  0  0  0  0
    7.8422  -14.9814   28.3225 O   0  0  0  0  0  0  0  0  0  0  0  0
  2  1  1  6
  2  3  1  0
  2  5  1  0
  3  4  1  0
  5 12  1  0
  5  6  2  0
  8  7  1  0
  8 10  1  0
  9  8  2  0
 11 10  1  1
 11 13  1  0
 12 11  1  0
 13 14  2  0
 13 15  1  0
 15 16  1  0
 16 17  1  0
 18 17  1  0
 19 15  1  0
 19 18  1  0
 19 20  1  1
 21 20  1  0
 22 20  2  0
M  END
$$$$
