CNP.pdb
     RDKit          3D

 22 22  0  0  1  0  0  0  0  0999 V2000
    5.9253  -21.2386   26.6377 N   0  0  0  0  0  0  0  0  0  0  0  0
    6.4740  -19.9320   26.8325 C   0  0  1  0  0  0  0  0  0  0  0  0
    7.6446  -20.0105   27.7788 C   0  0  0  0  0  0  0  0  0  0  0  0
    7.8710  -18.3908   28.5497 S   0  0  0  0  0  0  0  0  0  0  0  0
    6.9211  -19.3364   25.5222 C   0  0  0  0  0  0  0  0  0  0  0  0
    7.4533  -20.0528   24.6361 O   0  0  0  0  0  0  0  0  0  0  0  0
    6.5066  -15.3251   21.7098 N   0  0  0  0  0  0  0  0  0  0  0  0
    7.1291  -15.1054   22.9687 C   0  0  0  0  0  0  0  0  0  0  0  0
    8.0360  -14.2611   23.1002 O   0  0  0  0  0  0  0  0  0  0  0  0
    6.6841  -15.8933   24.1178 C   0  0  0  0  0  0  0  0  0  0  0  0
    7.2847  -17.2954   24.0568 C   0  0  2  0  0  0  0  0  0  0  0  0
    6.7578  -17.9575   25.2462 N   0  0  0  0  0  0  0  0  0  0  0  0
    8.7460  -17.0992   24.2805 C   0  0  0  0  0  0  0  0  0  0  0  0
    9.0786  -16.7593   25.4716 O   0  0  0  0  0  0  0  0  0  0  0  0
    9.7257  -17.2648   23.2885 N   0  0  0  0  0  0  0  0  0  0  0  0
    9.4224  -17.4523   21.8652 C   0  0  0  0  0  0  0  0  0  0  0  0
   10.7301  -17.8517   21.2133 C   0  0  0  0  0  0  0  0  0  0  0  0
   11.5086  -18.3624   22.4067 C   0  0  0  0  0  0  0  0  0  0  0  0
   11.1593  -17.2618   23.4258 C   0  0  1  0  0  0  0  0  0  0  0  0
   11.7558  -16.0197   22.8469 C   0  0  0  0  0  0  0  0  0  0  0  0
   10.9418  -15.1225   22.1782 O   0  0  0  0  0  0  0  0  0  0  0  0
   12.9673  -15.7737   22.9523 O   0  0  0  0  0  0  0  0  0  0  0  0
  2  1  1  6
  2  3  1  0
  2  5  1  0
  3  4  1  0
  5 12  1  0
  5  6  2  0
  8  7  1  0
  8 10  1  0
  9  8  2  0
 11 10  1  1
 11 13  1  0
 12 11  1  0
 13 14  2  0
 13 15  1  0
 15 16  1  0
 16 17  1  0
 18 17  1  0
 19 15  1  0
 19 18  1  0
 19 20  1  6
 21 20  1  0
 22 20  2  0
M  END
$$$$
