CNP.pdb
     RDKit          3D

 22 22  0  0  1  0  0  0  0  0999 V2000
    8.2097  -16.8115   19.0637 N   0  0  0  0  0  0  0  0  0  0  0  0
    8.7231  -16.9150   20.3948 C   0  0  1  0  0  0  0  0  0  0  0  0
   10.1900  -16.5688   20.3998 C   0  0  0  0  0  0  0  0  0  0  0  0
   10.8617  -16.9331   22.0386 S   0  0  0  0  0  0  0  0  0  0  0  0
    7.9821  -15.9934   21.3293 C   0  0  0  0  0  0  0  0  0  0  0  0
    7.6851  -14.8225   20.9795 O   0  0  0  0  0  0  0  0  0  0  0  0
    7.1829  -18.7445   24.0706 N   0  0  0  0  0  0  0  0  0  0  0  0
    6.8505  -17.6371   24.8975 C   0  0  0  0  0  0  0  0  0  0  0  0
    7.2693  -17.5590   26.0684 O   0  0  0  0  0  0  0  0  0  0  0  0
    6.0013  -16.5812   24.3470 C   0  0  0  0  0  0  0  0  0  0  0  0
    6.8483  -15.5819   23.5632 C   0  0  2  0  0  0  0  0  0  0  0  0
    7.5975  -16.4127   22.6257 N   0  0  0  0  0  0  0  0  0  0  0  0
    7.8299  -15.0494   24.5516 C   0  0  0  0  0  0  0  0  0  0  0  0
    9.0290  -15.4860   24.4248 O   0  0  0  0  0  0  0  0  0  0  0  0
    7.5104  -14.1325   25.5659 N   0  0  0  0  0  0  0  0  0  0  0  0
    6.1385  -13.7471   25.9152 C   0  0  0  0  0  0  0  0  0  0  0  0
    6.2676  -12.5642   26.8525 C   0  0  0  0  0  0  0  0  0  0  0  0
    7.6598  -12.0746   26.5165 C   0  0  0  0  0  0  0  0  0  0  0  0
    8.3952  -13.4264   26.4562 C   0  0  1  0  0  0  0  0  0  0  0  0
    8.3008  -13.9605   27.8490 C   0  0  0  0  0  0  0  0  0  0  0  0
    9.1866  -13.5091   28.8114 O   0  0  0  0  0  0  0  0  0  0  0  0
    7.4444  -14.8014   28.1630 O   0  0  0  0  0  0  0  0  0  0  0  0
  2  1  1  6
  2  3  1  0
  2  5  1  0
  3  4  1  0
  5 12  1  0
  5  6  2  0
  8  7  1  0
  8 10  1  0
  9  8  2  0
 11 10  1  1
 11 13  1  0
 12 11  1  0
 13 14  2  0
 13 15  1  0
 15 16  1  0
 16 17  1  0
 18 17  1  0
 19 15  1  0
 19 18  1  0
 19 20  1  1
 21 20  1  0
 22 20  2  0
M  END
$$$$
