CNP.pdb
     RDKit          3D

 22 22  0  0  1  0  0  0  0  0999 V2000
    7.4784  -15.6114   19.2400 N   0  0  0  0  0  0  0  0  0  0  0  0
    8.0809  -14.7481   20.2084 C   0  0  1  0  0  0  0  0  0  0  0  0
    7.9151  -13.3127   19.7795 C   0  0  0  0  0  0  0  0  0  0  0  0
    9.2204  -12.9118   18.5942 S   0  0  0  0  0  0  0  0  0  0  0  0
    7.4574  -14.9463   21.5661 C   0  0  0  0  0  0  0  0  0  0  0  0
    6.2572  -14.6349   21.7766 O   0  0  0  0  0  0  0  0  0  0  0  0
    6.6513  -18.2333   22.2009 N   0  0  0  0  0  0  0  0  0  0  0  0
    6.4052  -17.6147   23.4568 C   0  0  0  0  0  0  0  0  0  0  0  0
    5.2475  -17.5037   23.9043 O   0  0  0  0  0  0  0  0  0  0  0  0
    7.5426  -17.1058   24.2225 C   0  0  0  0  0  0  0  0  0  0  0  0
    7.6887  -15.6015   24.0080 C   0  0  2  0  0  0  0  0  0  0  0  0
    8.1980  -15.4868   22.6449 N   0  0  0  0  0  0  0  0  0  0  0  0
    8.7931  -15.1871   24.9204 C   0  0  0  0  0  0  0  0  0  0  0  0
    9.9736  -15.5066   24.5343 O   0  0  0  0  0  0  0  0  0  0  0  0
    8.6026  -14.4938   26.1263 N   0  0  0  0  0  0  0  0  0  0  0  0
    7.2878  -14.0877   26.6353 C   0  0  0  0  0  0  0  0  0  0  0  0
    7.5642  -13.1540   27.7956 C   0  0  0  0  0  0  0  0  0  0  0  0
    8.9792  -12.7139   27.4869 C   0  0  0  0  0  0  0  0  0  0  0  0
    9.5857  -14.0730   27.0910 C   0  0  1  0  0  0  0  0  0  0  0  0
    9.5041  -14.8914   28.3390 C   0  0  0  0  0  0  0  0  0  0  0  0
    8.5723  -15.9109   28.4236 O   0  0  0  0  0  0  0  0  0  0  0  0
   10.2546  -14.6772   29.3035 O   0  0  0  0  0  0  0  0  0  0  0  0
  2  1  1  6
  2  3  1  0
  2  5  1  0
  3  4  1  0
  5 12  1  0
  5  6  2  0
  8  7  1  0
  8 10  1  0
  9  8  2  0
 11 10  1  1
 11 13  1  0
 12 11  1  0
 13 14  2  0
 13 15  1  0
 15 16  1  0
 16 17  1  0
 18 17  1  0
 19 15  1  0
 19 18  1  0
 19 20  1  1
 21 20  1  0
 22 20  2  0
M  END
$$$$
