CNP.pdb
     RDKit          3D

 22 22  0  0  1  0  0  0  0  0999 V2000
    7.5661  -15.0974   18.5839 N   0  0  0  0  0  0  0  0  0  0  0  0
    8.0539  -14.3974   19.7320 C   0  0  1  0  0  0  0  0  0  0  0  0
    7.9200  -12.9121   19.5139 C   0  0  0  0  0  0  0  0  0  0  0  0
    9.0844  -12.4125   18.2240 S   0  0  0  0  0  0  0  0  0  0  0  0
    7.2922  -14.7984   20.9691 C   0  0  0  0  0  0  0  0  0  0  0  0
    6.1713  -15.3619   20.8823 O   0  0  0  0  0  0  0  0  0  0  0  0
    6.4690  -16.6438   25.5538 N   0  0  0  0  0  0  0  0  0  0  0  0
    7.0435  -17.3768   24.4800 C   0  0  0  0  0  0  0  0  0  0  0  0
    7.1166  -18.6202   24.5152 O   0  0  0  0  0  0  0  0  0  0  0  0
    7.5522  -16.6417   23.3223 C   0  0  0  0  0  0  0  0  0  0  0  0
    7.2714  -15.1499   23.4834 C   0  0  2  0  0  0  0  0  0  0  0  0
    7.8103  -14.5553   22.2641 N   0  0  0  0  0  0  0  0  0  0  0  0
    8.1501  -14.7109   24.6055 C   0  0  0  0  0  0  0  0  0  0  0  0
    9.4034  -14.9249   24.4379 O   0  0  0  0  0  0  0  0  0  0  0  0
    7.6838  -14.1009   25.7810 N   0  0  0  0  0  0  0  0  0  0  0  0
    6.2655  -14.0091   26.1457 C   0  0  0  0  0  0  0  0  0  0  0  0
    6.2025  -13.0597   27.3243 C   0  0  0  0  0  0  0  0  0  0  0  0
    7.5068  -12.3083   27.1654 C   0  0  0  0  0  0  0  0  0  0  0  0
    8.4410  -13.4894   26.8426 C   0  0  1  0  0  0  0  0  0  0  0  0
    8.4153  -14.3290   28.0788 C   0  0  0  0  0  0  0  0  0  0  0  0
    9.1981  -13.9687   29.1615 O   0  0  0  0  0  0  0  0  0  0  0  0
    7.7065  -15.3443   28.1570 O   0  0  0  0  0  0  0  0  0  0  0  0
  2  1  1  6
  2  3  1  0
  2  5  1  0
  3  4  1  0
  5 12  1  0
  5  6  2  0
  8  7  1  0
  8 10  1  0
  9  8  2  0
 11 10  1  6
 11 13  1  0
 12 11  1  0
 13 14  2  0
 13 15  1  0
 15 16  1  0
 16 17  1  0
 18 17  1  0
 19 15  1  0
 19 18  1  0
 19 20  1  1
 21 20  1  0
 22 20  2  0
M  END
$$$$
