QTE.pdb
     RDKit          3D

 26 25  0  0  1  0  0  0  0  0999 V2000
   15.3027  -14.5749   20.1375 N   0  0  0  0  0  0  0  0  0  0  0  0
   15.1613  -15.0041   18.7620 C   0  0  0  0  0  0  0  0  0  0  0  0
   16.1194  -15.6833   18.3228 O   0  0  0  0  0  0  0  0  0  0  0  0
   13.9682  -14.6412   17.9799 C   0  0  0  0  0  0  0  0  0  0  0  0
   12.9193  -13.8520   18.6890 C   0  0  0  0  0  0  0  0  0  0  0  0
   11.5583  -14.3586   18.3908 C   0  0  2  0  0  0  0  0  0  0  0  0
   11.0587  -13.9367   17.1129 N   0  0  0  0  0  0  0  0  0  0  0  0
   10.5614  -14.0690   19.4291 C   0  0  0  0  0  0  0  0  0  0  0  0
    9.8948  -12.9975   19.3935 O   0  0  0  0  0  0  0  0  0  0  0  0
    7.9158  -13.5448   19.7871 C   0  0  0  0  0  0  0  0  0  0  0  0
    7.9388  -14.6050   20.8701 C   0  0  1  0  0  0  0  0  0  0  0  0
    7.5377  -15.7984   20.2733 O   0  0  0  0  0  0  0  0  0  0  0  0
    9.3068  -14.7182   21.4971 C   0  0  2  0  0  0  0  0  0  0  0  0
   10.3333  -14.9822   20.4837 N   0  0  0  0  0  0  0  0  0  0  0  0
    9.3620  -15.7093   22.5852 C   0  0  0  0  0  0  0  0  0  0  0  0
   10.0716  -16.7509   22.4207 O   0  0  0  0  0  0  0  0  0  0  0  0
    8.6639  -15.5644   23.8121 N   0  0  0  0  0  0  0  0  0  0  0  0
    9.1342  -16.1670   25.0664 C   0  0  1  0  0  0  0  0  0  0  0  0
    9.3831  -17.6211   24.9047 C   0  0  0  0  0  0  0  0  0  0  0  0
    9.8367  -18.2374   26.1968 C   0  0  0  0  0  0  0  0  0  0  0  0
   10.2018  -19.6800   26.0050 C   0  0  0  0  0  0  0  0  0  0  0  0
   11.1905  -19.9424   25.2764 O   0  0  0  0  0  0  0  0  0  0  0  0
   10.2752  -15.4179   25.6110 C   0  0  0  0  0  0  0  0  0  0  0  0
   10.2521  -15.1517   26.8627 O   0  0  0  0  0  0  0  0  0  0  0  0
    9.4701  -20.6795   26.6125 O   0  0  0  0  0  0  0  0  0  0  0  0
   11.3779  -14.9649   24.9351 O   0  0  0  0  0  0  0  0  0  0  0  0
  2  1  1  0
  2  3  2  0
  4  5  1  0
  4  2  1  0
  6  5  1  0
  6  7  1  6
  8  6  1  0
  9  8  2  0
 11 10  1  6
 11 12  1  0
 13 11  1  0
 13 14  1  6
 14  8  1  0
 15 13  1  0
 15 17  1  0
 16 15  2  0
 18 17  1  0
 18 19  1  6
 19 20  1  0
 20 21  1  0
 21 25  1  0
 21 22  2  0
 23 26  1  0
 23 18  1  0
 24 23  2  0
M  END
$$$$
