QTE.pdb
     RDKit          3D

 26 25  0  0  1  0  0  0  0  0999 V2000
   10.3822  -18.2374   13.6502 N   0  0  0  0  0  0  0  0  0  0  0  0
    9.6767  -17.2182   12.9021 C   0  0  0  0  0  0  0  0  0  0  0  0
    9.7111  -17.3625   11.6569 O   0  0  0  0  0  0  0  0  0  0  0  0
    8.9919  -16.1150   13.5955 C   0  0  0  0  0  0  0  0  0  0  0  0
    9.0400  -16.1312   15.0865 C   0  0  0  0  0  0  0  0  0  0  0  0
    8.3275  -14.9691   15.6696 C   0  0  2  0  0  0  0  0  0  0  0  0
    8.0308  -13.9415   14.7122 N   0  0  0  0  0  0  0  0  0  0  0  0
    8.9877  -14.3763   16.8394 C   0  0  0  0  0  0  0  0  0  0  0  0
    9.9113  -13.5286   16.6903 O   0  0  0  0  0  0  0  0  0  0  0  0
    7.2789  -12.6888   19.7398 C   0  0  0  0  0  0  0  0  0  0  0  0
    8.2423  -13.6948   20.3375 C   0  0  1  0  0  0  0  0  0  0  0  0
    7.4726  -14.7513   20.8199 O   0  0  0  0  0  0  0  0  0  0  0  0
    9.2573  -14.1535   19.3192 C   0  0  2  0  0  0  0  0  0  0  0  0
    8.6020  -14.7451   18.1483 N   0  0  0  0  0  0  0  0  0  0  0  0
   10.2687  -15.0637   19.8830 C   0  0  0  0  0  0  0  0  0  0  0  0
   10.3120  -16.2602   19.4566 O   0  0  0  0  0  0  0  0  0  0  0  0
   11.2014  -14.6764   20.8799 N   0  0  0  0  0  0  0  0  0  0  0  0
   12.1831  -15.6084   21.4503 C   0  0  1  0  0  0  0  0  0  0  0  0
   13.5609  -15.0660   21.3509 C   0  0  0  0  0  0  0  0  0  0  0  0
   14.5553  -16.0028   21.9744 C   0  0  0  0  0  0  0  0  0  0  0  0
   15.9422  -15.4336   21.9117 C   0  0  0  0  0  0  0  0  0  0  0  0
   16.6751  -15.7802   20.9526 O   0  0  0  0  0  0  0  0  0  0  0  0
   11.7922  -16.0138   22.8076 C   0  0  0  0  0  0  0  0  0  0  0  0
   10.8887  -15.3156   23.3857 O   0  0  0  0  0  0  0  0  0  0  0  0
   16.3899  -14.5589   22.8801 O   0  0  0  0  0  0  0  0  0  0  0  0
   12.2807  -17.0638   23.5403 O   0  0  0  0  0  0  0  0  0  0  0  0
  2  1  1  0
  2  3  2  0
  4  5  1  0
  4  2  1  0
  6  5  1  0
  6  7  1  6
  8  6  1  0
  9  8  2  0
 11 10  1  6
 11 12  1  0
 13 11  1  0
 13 14  1  6
 14  8  1  0
 15 13  1  0
 15 17  1  0
 16 15  2  0
 18 17  1  0
 18 19  1  1
 19 20  1  0
 20 21  1  0
 21 25  1  0
 21 22  2  0
 23 26  1  0
 23 18  1  0
 24 23  2  0
M  END
$$$$
