QTE.pdb
     RDKit          3D

 26 25  0  0  1  0  0  0  0  0999 V2000
   12.2060  -16.9800   12.9509 N   0  0  0  0  0  0  0  0  0  0  0  0
   10.8160  -17.1594   12.5878 C   0  0  0  0  0  0  0  0  0  0  0  0
   10.6288  -17.8083   11.5313 O   0  0  0  0  0  0  0  0  0  0  0  0
    9.7420  -16.5998   13.4245 C   0  0  0  0  0  0  0  0  0  0  0  0
   10.1618  -15.6907   14.5304 C   0  0  0  0  0  0  0  0  0  0  0  0
    8.9976  -15.1945   15.3027 C   0  0  2  0  0  0  0  0  0  0  0  0
    8.0338  -14.4976   14.4992 N   0  0  0  0  0  0  0  0  0  0  0  0
    9.3476  -14.3772   16.4712 C   0  0  0  0  0  0  0  0  0  0  0  0
    9.1483  -13.1306   16.4615 O   0  0  0  0  0  0  0  0  0  0  0  0
    8.1813  -12.7422   18.2845 C   0  0  0  0  0  0  0  0  0  0  0  0
    8.8590  -13.5812   19.3496 C   0  0  1  0  0  0  0  0  0  0  0  0
    7.9430  -14.5577   19.7356 O   0  0  0  0  0  0  0  0  0  0  0  0
   10.1447  -14.1830   18.8374 C   0  0  2  0  0  0  0  0  0  0  0  0
    9.9132  -14.9710   17.6225 N   0  0  0  0  0  0  0  0  0  0  0  0
   10.8594  -14.9695   19.8570 C   0  0  0  0  0  0  0  0  0  0  0  0
   10.5254  -16.1835   20.0300 O   0  0  0  0  0  0  0  0  0  0  0  0
   11.9050  -14.4442   20.6599 N   0  0  0  0  0  0  0  0  0  0  0  0
   12.9034  -15.2979   21.3173 C   0  0  1  0  0  0  0  0  0  0  0  0
   14.2651  -14.7190   21.2033 C   0  0  0  0  0  0  0  0  0  0  0  0
   15.2956  -15.6474   21.7791 C   0  0  0  0  0  0  0  0  0  0  0  0
   16.6794  -15.1007   21.5853 C   0  0  0  0  0  0  0  0  0  0  0  0
   17.6262  -15.9208   21.4956 O   0  0  0  0  0  0  0  0  0  0  0  0
   12.4968  -15.6136   22.6937 C   0  0  0  0  0  0  0  0  0  0  0  0
   11.6040  -14.8646   23.2228 O   0  0  0  0  0  0  0  0  0  0  0  0
   16.8960  -13.7403   21.5094 O   0  0  0  0  0  0  0  0  0  0  0  0
   12.9603  -16.6271   23.4912 O   0  0  0  0  0  0  0  0  0  0  0  0
  2  1  1  0
  2  3  2  0
  4  5  1  0
  4  2  1  0
  6  5  1  0
  6  7  1  6
  8  6  1  0
  9  8  2  0
 11 10  1  6
 11 12  1  0
 13 11  1  0
 13 14  1  6
 14  8  1  0
 15 13  1  0
 15 17  1  0
 16 15  2  0
 18 17  1  0
 18 19  1  1
 19 20  1  0
 20 21  1  0
 21 25  1  0
 21 22  2  0
 23 26  1  0
 23 18  1  0
 24 23  2  0
M  END
$$$$
