QTE.pdb
     RDKit          3D

 26 25  0  0  1  0  0  0  0  0999 V2000
    7.6601  -20.7408   20.2909 N   0  0  0  0  0  0  0  0  0  0  0  0
    8.2786  -20.4999   19.0041 C   0  0  0  0  0  0  0  0  0  0  0  0
    8.5104  -21.5324   18.3315 O   0  0  0  0  0  0  0  0  0  0  0  0
    8.5957  -19.1306   18.5668 C   0  0  0  0  0  0  0  0  0  0  0  0
    8.1363  -18.0227   19.4541 C   0  0  0  0  0  0  0  0  0  0  0  0
    9.0677  -16.8699   19.4170 C   0  0  2  0  0  0  0  0  0  0  0  0
   10.2029  -17.0796   18.5639 N   0  0  0  0  0  0  0  0  0  0  0  0
    9.5212  -16.4127   20.7365 C   0  0  0  0  0  0  0  0  0  0  0  0
   10.7528  -16.3766   21.0114 O   0  0  0  0  0  0  0  0  0  0  0  0
    7.9653  -13.3055   22.7045 C   0  0  0  0  0  0  0  0  0  0  0  0
    8.0799  -14.5203   23.6037 C   0  0  1  0  0  0  0  0  0  0  0  0
    6.7941  -15.0378   23.7465 O   0  0  0  0  0  0  0  0  0  0  0  0
    9.0382  -15.5366   23.0324 C   0  0  2  0  0  0  0  0  0  0  0  0
    8.5886  -16.0078   21.7185 N   0  0  0  0  0  0  0  0  0  0  0  0
    9.2956  -16.6632   23.9454 C   0  0  0  0  0  0  0  0  0  0  0  0
    8.9387  -17.8287   23.5853 O   0  0  0  0  0  0  0  0  0  0  0  0
    9.9229  -16.5183   25.2100 N   0  0  0  0  0  0  0  0  0  0  0  0
   10.1864  -17.6583   26.0981 C   0  0  1  0  0  0  0  0  0  0  0  0
   10.9872  -18.7019   25.4110 C   0  0  0  0  0  0  0  0  0  0  0  0
   11.6634  -19.6033   26.4036 C   0  0  0  0  0  0  0  0  0  0  0  0
   12.5257  -20.6161   25.7093 C   0  0  0  0  0  0  0  0  0  0  0  0
   13.4378  -20.1922   24.9575 O   0  0  0  0  0  0  0  0  0  0  0  0
   10.7561  -17.2059   27.3749 C   0  0  0  0  0  0  0  0  0  0  0  0
   10.8499  -18.0744   28.3103 O   0  0  0  0  0  0  0  0  0  0  0  0
   12.3166  -21.9669   25.8961 O   0  0  0  0  0  0  0  0  0  0  0  0
   11.2081  -15.9515   27.6916 O   0  0  0  0  0  0  0  0  0  0  0  0
  2  1  1  0
  2  3  2  0
  4  5  1  0
  4  2  1  0
  6  5  1  0
  6  7  1  6
  8  6  1  0
  9  8  2  0
 11 10  1  6
 11 12  1  0
 13 11  1  0
 13 14  1  6
 14  8  1  0
 15 13  1  0
 15 17  1  0
 16 15  2  0
 18 17  1  0
 18 19  1  6
 19 20  1  0
 20 21  1  0
 21 25  1  0
 21 22  2  0
 23 26  1  0
 23 18  1  0
 24 23  2  0
M  END
$$$$
