QTE.pdb
     RDKit          3D

 26 25  0  0  1  0  0  0  0  0999 V2000
    9.9381  -20.0557   15.0490 N   0  0  0  0  0  0  0  0  0  0  0  0
    9.2205  -18.9076   14.5362 C   0  0  0  0  0  0  0  0  0  0  0  0
    8.4825  -19.1468   13.5511 O   0  0  0  0  0  0  0  0  0  0  0  0
    9.3822  -17.5819   15.1551 C   0  0  0  0  0  0  0  0  0  0  0  0
   10.3781  -17.4780   16.2611 C   0  0  0  0  0  0  0  0  0  0  0  0
    9.8006  -17.9017   17.5591 C   0  0  2  0  0  0  0  0  0  0  0  0
    8.4301  -18.3184   17.4660 N   0  0  0  0  0  0  0  0  0  0  0  0
    9.9432  -16.9161   18.6380 C   0  0  0  0  0  0  0  0  0  0  0  0
   11.0694  -16.4050   18.8915 O   0  0  0  0  0  0  0  0  0  0  0  0
    7.8299  -13.9762   22.0428 C   0  0  0  0  0  0  0  0  0  0  0  0
    7.6609  -14.9785   20.9185 C   0  0  1  0  0  0  0  0  0  0  0  0
    7.0918  -14.2908   19.8486 O   0  0  0  0  0  0  0  0  0  0  0  0
    8.9791  -15.6121   20.5464 C   0  0  2  0  0  0  0  0  0  0  0  0
    8.8251  -16.5254   19.4094 N   0  0  0  0  0  0  0  0  0  0  0  0
    9.6395  -16.2782   21.6819 C   0  0  0  0  0  0  0  0  0  0  0  0
    9.2834  -17.4610   21.9811 O   0  0  0  0  0  0  0  0  0  0  0  0
   10.6558  -15.6695   22.4631 N   0  0  0  0  0  0  0  0  0  0  0  0
   11.2059  -16.2953   23.6728 C   0  0  1  0  0  0  0  0  0  0  0  0
   12.6610  -16.0328   23.8003 C   0  0  0  0  0  0  0  0  0  0  0  0
   13.4035  -16.5113   22.5858 C   0  0  0  0  0  0  0  0  0  0  0  0
   14.8573  -16.1490   22.6675 C   0  0  0  0  0  0  0  0  0  0  0  0
   15.2428  -15.4945   23.6676 O   0  0  0  0  0  0  0  0  0  0  0  0
   10.4209  -15.9224   24.8578 C   0  0  0  0  0  0  0  0  0  0  0  0
   10.7255  -16.4952   25.9611 O   0  0  0  0  0  0  0  0  0  0  0  0
   15.7351  -16.5262   21.6723 O   0  0  0  0  0  0  0  0  0  0  0  0
    9.3900  -15.0224   24.9291 O   0  0  0  0  0  0  0  0  0  0  0  0
  2  1  1  0
  2  3  2  0
  4  5  1  0
  4  2  1  0
  6  5  1  0
  6  7  1  6
  8  6  1  0
  9  8  2  0
 11 10  1  1
 11 12  1  0
 13 11  1  0
 13 14  1  6
 14  8  1  0
 15 13  1  0
 15 17  1  0
 16 15  2  0
 18 17  1  0
 18 19  1  1
 19 20  1  0
 20 21  1  0
 21 25  1  0
 21 22  2  0
 23 26  1  0
 23 18  1  0
 24 23  2  0
M  END
$$$$
