QTE.pdb
     RDKit          3D

 26 25  0  0  1  0  0  0  0  0999 V2000
    7.4975  -12.0470   18.4247 N   0  0  0  0  0  0  0  0  0  0  0  0
    7.6366  -13.3354   17.7791 C   0  0  0  0  0  0  0  0  0  0  0  0
    7.2795  -13.3618   16.5774 O   0  0  0  0  0  0  0  0  0  0  0  0
    8.1571  -14.4957   18.5204 C   0  0  0  0  0  0  0  0  0  0  0  0
    8.4954  -14.2739   19.9564 C   0  0  0  0  0  0  0  0  0  0  0  0
    9.0250  -15.5049   20.5904 C   0  0  2  0  0  0  0  0  0  0  0  0
    8.5407  -16.7131   19.9851 N   0  0  0  0  0  0  0  0  0  0  0  0
    8.8315  -15.5709   22.0443 C   0  0  0  0  0  0  0  0  0  0  0  0
    9.1138  -14.5786   22.7720 O   0  0  0  0  0  0  0  0  0  0  0  0
    6.6164  -17.0944   26.0234 C   0  0  0  0  0  0  0  0  0  0  0  0
    6.7669  -17.0817   24.5152 C   0  0  1  0  0  0  0  0  0  0  0  0
    5.9133  -16.0910   24.0341 O   0  0  0  0  0  0  0  0  0  0  0  0
    8.2001  -16.8391   24.1095 C   0  0  2  0  0  0  0  0  0  0  0  0
    8.3286  -16.7440   22.6518 N   0  0  0  0  0  0  0  0  0  0  0  0
    9.1328  -17.8345   24.6649 C   0  0  0  0  0  0  0  0  0  0  0  0
    8.9162  -19.0647   24.4307 O   0  0  0  0  0  0  0  0  0  0  0  0
   10.2647  -17.4938   25.4500 N   0  0  0  0  0  0  0  0  0  0  0  0
   11.1967  -18.5011   25.9740 C   0  0  1  0  0  0  0  0  0  0  0  0
   12.4230  -18.5840   25.1422 C   0  0  0  0  0  0  0  0  0  0  0  0
   13.3770  -17.4733   25.4761 C   0  0  0  0  0  0  0  0  0  0  0  0
   14.2160  -17.1098   24.2864 C   0  0  0  0  0  0  0  0  0  0  0  0
   13.9286  -17.6373   23.1836 O   0  0  0  0  0  0  0  0  0  0  0  0
   11.4532  -18.2825   27.4043 C   0  0  0  0  0  0  0  0  0  0  0  0
   12.1358  -19.1758   28.0160 O   0  0  0  0  0  0  0  0  0  0  0  0
   15.2669  -16.2244   24.4086 O   0  0  0  0  0  0  0  0  0  0  0  0
   11.0480  -17.2240   28.1746 O   0  0  0  0  0  0  0  0  0  0  0  0
  2  1  1  0
  2  3  2  0
  4  5  1  0
  4  2  1  0
  6  5  1  0
  6  7  1  6
  8  6  1  0
  9  8  2  0
 11 10  1  1
 11 12  1  0
 13 11  1  0
 13 14  1  6
 14  8  1  0
 15 13  1  0
 15 17  1  0
 16 15  2  0
 18 17  1  0
 18 19  1  6
 19 20  1  0
 20 21  1  0
 21 25  1  0
 21 22  2  0
 23 26  1  0
 23 18  1  0
 24 23  2  0
M  END
$$$$
