QTE.pdb
     RDKit          3D

 26 25  0  0  1  0  0  0  0  0999 V2000
    7.2718  -12.9435   15.1779 N   0  0  0  0  0  0  0  0  0  0  0  0
    7.7076  -14.2522   14.7377 C   0  0  0  0  0  0  0  0  0  0  0  0
    7.3792  -14.5477   13.5642 O   0  0  0  0  0  0  0  0  0  0  0  0
    8.4702  -15.1328   15.6375 C   0  0  0  0  0  0  0  0  0  0  0  0
    8.8458  -14.5668   16.9658 C   0  0  0  0  0  0  0  0  0  0  0  0
    8.7756  -15.5901   18.0363 C   0  0  2  0  0  0  0  0  0  0  0  0
    7.5951  -16.4041   17.9722 N   0  0  0  0  0  0  0  0  0  0  0  0
    8.9341  -15.0587   19.3958 C   0  0  0  0  0  0  0  0  0  0  0  0
    8.5295  -13.8968   19.6787 O   0  0  0  0  0  0  0  0  0  0  0  0
    7.6937  -13.8064   21.2616 C   0  0  0  0  0  0  0  0  0  0  0  0
    8.2019  -14.8651   22.2198 C   0  0  1  0  0  0  0  0  0  0  0  0
    7.2450  -15.8776   22.2450 O   0  0  0  0  0  0  0  0  0  0  0  0
    9.5575  -15.3787   21.8001 C   0  0  2  0  0  0  0  0  0  0  0  0
    9.5419  -15.8369   20.4072 N   0  0  0  0  0  0  0  0  0  0  0  0
   10.0835  -16.4195   22.6997 C   0  0  0  0  0  0  0  0  0  0  0  0
    9.9754  -17.6359   22.3477 O   0  0  0  0  0  0  0  0  0  0  0  0
   10.7071  -16.1375   23.9428 N   0  0  0  0  0  0  0  0  0  0  0  0
   11.4022  -17.1641   24.7306 C   0  0  1  0  0  0  0  0  0  0  0  0
   12.8206  -17.2936   24.3137 C   0  0  0  0  0  0  0  0  0  0  0  0
   13.5473  -15.9877   24.4612 C   0  0  0  0  0  0  0  0  0  0  0  0
   14.9913  -16.1303   24.0794 C   0  0  0  0  0  0  0  0  0  0  0  0
   15.3631  -15.6219   22.9930 O   0  0  0  0  0  0  0  0  0  0  0  0
   11.2165  -16.9338   26.1700 C   0  0  0  0  0  0  0  0  0  0  0  0
   10.5945  -15.8692   26.5133 O   0  0  0  0  0  0  0  0  0  0  0  0
   15.8751  -16.7996   24.9006 O   0  0  0  0  0  0  0  0  0  0  0  0
   11.6306  -17.7309   27.2050 O   0  0  0  0  0  0  0  0  0  0  0  0
  2  1  1  0
  2  3  2  0
  4  5  1  0
  4  2  1  0
  6  5  1  0
  6  7  1  1
  8  6  1  0
  9  8  2  0
 11 10  1  6
 11 12  1  0
 13 11  1  0
 13 14  1  6
 14  8  1  0
 15 13  1  0
 15 17  1  0
 16 15  2  0
 18 17  1  0
 18 19  1  1
 19 20  1  0
 20 21  1  0
 21 25  1  0
 21 22  2  0
 23 26  1  0
 23 18  1  0
 24 23  2  0
M  END
$$$$
