QTE.pdb
     RDKit          3D

 26 25  0  0  1  0  0  0  0  0999 V2000
   13.2795  -18.8166   16.9354 N   0  0  0  0  0  0  0  0  0  0  0  0
   14.4686  -17.9992   17.0542 C   0  0  0  0  0  0  0  0  0  0  0  0
   15.5494  -18.6307   16.9803 O   0  0  0  0  0  0  0  0  0  0  0  0
   14.3644  -16.5441   17.2507 C   0  0  0  0  0  0  0  0  0  0  0  0
   12.9885  -15.9673   17.2533 C   0  0  0  0  0  0  0  0  0  0  0  0
   13.0016  -14.5220   17.5831 C   0  0  2  0  0  0  0  0  0  0  0  0
   14.3231  -13.9826   17.7359 N   0  0  0  0  0  0  0  0  0  0  0  0
   12.1834  -14.1569   18.7463 C   0  0  0  0  0  0  0  0  0  0  0  0
   12.7229  -13.6738   19.7804 O   0  0  0  0  0  0  0  0  0  0  0  0
    7.7685  -13.3003   20.7835 C   0  0  0  0  0  0  0  0  0  0  0  0
    8.5524  -13.7484   19.5661 C   0  0  1  0  0  0  0  0  0  0  0  0
    8.4866  -12.7091   18.6404 O   0  0  0  0  0  0  0  0  0  0  0  0
    9.9762  -14.0940   19.9279 C   0  0  2  0  0  0  0  0  0  0  0  0
   10.7821  -14.3412   18.7280 N   0  0  0  0  0  0  0  0  0  0  0  0
   10.0737  -15.2151   20.8780 C   0  0  0  0  0  0  0  0  0  0  0  0
   10.3095  -16.3776   20.4214 O   0  0  0  0  0  0  0  0  0  0  0  0
    9.9184  -15.0681   22.2809 N   0  0  0  0  0  0  0  0  0  0  0  0
    9.8922  -16.2145   23.1988 C   0  0  1  0  0  0  0  0  0  0  0  0
    9.9339  -15.7714   24.6146 C   0  0  0  0  0  0  0  0  0  0  0  0
   11.0659  -16.4275   25.3517 C   0  0  0  0  0  0  0  0  0  0  0  0
   10.7069  -16.6609   26.7898 C   0  0  0  0  0  0  0  0  0  0  0  0
    9.6517  -17.2963   27.0347 O   0  0  0  0  0  0  0  0  0  0  0  0
    8.7732  -17.1128   22.8820 C   0  0  0  0  0  0  0  0  0  0  0  0
    7.6628  -16.5662   22.5559 O   0  0  0  0  0  0  0  0  0  0  0  0
   11.5150  -16.1896   27.8038 O   0  0  0  0  0  0  0  0  0  0  0  0
    8.7724  -18.4832   22.8903 O   0  0  0  0  0  0  0  0  0  0  0  0
  2  1  1  0
  2  3  2  0
  4  5  1  0
  4  2  1  0
  6  5  1  0
  6  7  1  1
  8  6  1  0
  9  8  2  0
 11 10  1  1
 11 12  1  0
 13 11  1  0
 13 14  1  6
 14  8  1  0
 15 13  1  0
 15 17  1  0
 16 15  2  0
 18 17  1  0
 18 19  1  1
 19 20  1  0
 20 21  1  0
 21 25  1  0
 21 22  2  0
 23 26  1  0
 23 18  1  0
 24 23  2  0
M  END
$$$$
