QTE.pdb
     RDKit          3D

 26 25  0  0  1  0  0  0  0  0999 V2000
   16.0925  -19.4476   11.4368 N   0  0  0  0  0  0  0  0  0  0  0  0
   14.8853  -19.0931   10.7203 C   0  0  0  0  0  0  0  0  0  0  0  0
   15.0238  -18.9870    9.4786 O   0  0  0  0  0  0  0  0  0  0  0  0
   13.6190  -18.8795   11.4398 C   0  0  0  0  0  0  0  0  0  0  0  0
   13.6439  -19.0993   12.9152 C   0  0  0  0  0  0  0  0  0  0  0  0
   12.3124  -18.8692   13.5252 C   0  0  2  0  0  0  0  0  0  0  0  0
   11.5516  -17.8450   12.8672 N   0  0  0  0  0  0  0  0  0  0  0  0
   12.3429  -18.6083   14.9697 C   0  0  0  0  0  0  0  0  0  0  0  0
   12.3171  -17.4238   15.4056 O   0  0  0  0  0  0  0  0  0  0  0  0
    9.9849  -18.9081   17.4261 C   0  0  0  0  0  0  0  0  0  0  0  0
   11.1048  -19.7695   17.9748 C   0  0  1  0  0  0  0  0  0  0  0  0
   10.7454  -21.0948   17.7389 O   0  0  0  0  0  0  0  0  0  0  0  0
   12.4274  -19.4202   17.3373 C   0  0  2  0  0  0  0  0  0  0  0  0
   12.4030  -19.6764   15.8937 N   0  0  0  0  0  0  0  0  0  0  0  0
   13.5715  -20.0889   17.9800 C   0  0  0  0  0  0  0  0  0  0  0  0
   14.4401  -20.6486   17.2400 O   0  0  0  0  0  0  0  0  0  0  0  0
   13.7582  -20.1426   19.3857 N   0  0  0  0  0  0  0  0  0  0  0  0
   15.0840  -20.2776   20.0036 C   0  0  1  0  0  0  0  0  0  0  0  0
   16.0129  -19.2264   19.5193 C   0  0  0  0  0  0  0  0  0  0  0  0
   17.3851  -19.4098   20.1011 C   0  0  0  0  0  0  0  0  0  0  0  0
   18.3154  -18.3289   19.6346 C   0  0  0  0  0  0  0  0  0  0  0  0
   19.5252  -18.4163   19.9600 O   0  0  0  0  0  0  0  0  0  0  0  0
   14.9736  -20.3558   21.4668 C   0  0  0  0  0  0  0  0  0  0  0  0
   15.8117  -21.1089   22.0739 O   0  0  0  0  0  0  0  0  0  0  0  0
   17.8489  -17.2769   18.8737 O   0  0  0  0  0  0  0  0  0  0  0  0
   14.0730  -19.7107   22.2735 O   0  0  0  0  0  0  0  0  0  0  0  0
  2  1  1  0
  2  3  2  0
  4  5  1  0
  4  2  1  0
  6  5  1  0
  6  7  1  6
  8  6  1  0
  9  8  2  0
 11 10  1  6
 11 12  1  0
 13 11  1  0
 13 14  1  6
 14  8  1  0
 15 13  1  0
 15 17  1  0
 16 15  2  0
 18 17  1  0
 18 19  1  1
 19 20  1  0
 20 21  1  0
 21 25  1  0
 21 22  2  0
 23 26  1  0
 23 18  1  0
 24 23  2  0
M  END
$$$$
