QTE.pdb
     RDKit          3D

 26 25  0  0  1  0  0  0  0  0999 V2000
    8.8767  -19.1536   12.4894 N   0  0  0  0  0  0  0  0  0  0  0  0
   10.1304  -19.1032   13.2118 C   0  0  0  0  0  0  0  0  0  0  0  0
   11.0663  -19.7503   12.6850 O   0  0  0  0  0  0  0  0  0  0  0  0
   10.2455  -18.3415   14.4662 C   0  0  0  0  0  0  0  0  0  0  0  0
    8.9940  -17.7170   14.9856 C   0  0  0  0  0  0  0  0  0  0  0  0
    8.9232  -16.2742   14.6521 C   0  0  2  0  0  0  0  0  0  0  0  0
    9.6177  -15.9323   13.4432 N   0  0  0  0  0  0  0  0  0  0  0  0
    9.3497  -15.3789   15.7348 C   0  0  0  0  0  0  0  0  0  0  0  0
   10.5018  -14.8629   15.7205 O   0  0  0  0  0  0  0  0  0  0  0  0
    8.2440  -12.9284   19.9289 C   0  0  0  0  0  0  0  0  0  0  0  0
    7.7732  -13.7275   18.7301 C   0  0  1  0  0  0  0  0  0  0  0  0
    6.9861  -12.8729   17.9609 O   0  0  0  0  0  0  0  0  0  0  0  0
    8.9393  -14.2798   17.9474 C   0  0  2  0  0  0  0  0  0  0  0  0
    8.4801  -15.0820   16.8089 N   0  0  0  0  0  0  0  0  0  0  0  0
    9.8898  -15.0327   18.7834 C   0  0  0  0  0  0  0  0  0  0  0  0
    9.6958  -16.2776   18.9505 O   0  0  0  0  0  0  0  0  0  0  0  0
   11.0151  -14.4420   19.4148 N   0  0  0  0  0  0  0  0  0  0  0  0
   11.9551  -15.2127   20.2395 C   0  0  1  0  0  0  0  0  0  0  0  0
   13.3505  -14.7475   20.0422 C   0  0  0  0  0  0  0  0  0  0  0  0
   14.3155  -15.5900   20.8259 C   0  0  0  0  0  0  0  0  0  0  0  0
   15.7318  -15.1697   20.5632 C   0  0  0  0  0  0  0  0  0  0  0  0
   16.0003  -13.9445   20.6242 O   0  0  0  0  0  0  0  0  0  0  0  0
   11.5213  -15.2365   21.6433 C   0  0  0  0  0  0  0  0  0  0  0  0
   10.7783  -14.2725   22.0390 O   0  0  0  0  0  0  0  0  0  0  0  0
   16.7011  -16.1050   20.2651 O   0  0  0  0  0  0  0  0  0  0  0  0
   11.8162  -16.1784   22.5941 O   0  0  0  0  0  0  0  0  0  0  0  0
  2  1  1  0
  2  3  2  0
  4  5  1  0
  4  2  1  0
  6  5  1  0
  6  7  1  6
  8  6  1  0
  9  8  2  0
 11 10  1  1
 11 12  1  0
 13 11  1  0
 13 14  1  6
 14  8  1  0
 15 13  1  0
 15 17  1  0
 16 15  2  0
 18 17  1  0
 18 19  1  1
 19 20  1  0
 20 21  1  0
 21 25  1  0
 21 22  2  0
 23 26  1  0
 23 18  1  0
 24 23  2  0
M  END
$$$$
