GTS.pdb
     RDKit          3D

 18 17  0  0  1  0  0  0  0  0999 V2000
   22.2752  -18.7380  -16.2269 N   0  0  0  0  0  0  0  0  0  0  0  0
   21.9559  -17.5848  -17.0253 C   0  0  0  0  0  0  0  0  0  0  0  0
   21.8339  -16.3969  -16.1400 C   0  0  0  0  0  0  0  0  0  0  0  0
   21.1963  -16.4865  -15.0578 O   0  0  0  0  0  0  0  0  0  0  0  0
   24.5902  -14.3745  -14.6629 C   0  0  0  0  0  0  0  0  0  0  0  0
   23.7036  -13.3720  -15.3690 C   0  0  1  0  0  0  0  0  0  0  0  0
   24.2562  -12.9280  -16.5465 O   0  0  0  0  0  0  0  0  0  0  0  0
   22.3489  -14.0004  -15.6254 C   0  0  2  0  0  0  0  0  0  0  0  0
   22.4256  -15.1396  -16.4840 N   0  0  0  0  0  0  0  0  0  0  0  0
   21.3839  -13.0004  -16.1516 C   0  0  0  0  0  0  0  0  0  0  0  0
   21.0967  -12.9192  -17.3600 O   0  0  0  0  0  0  0  0  0  0  0  0
   17.9719   -9.6742  -15.0859 O   0  0  0  0  0  0  0  0  0  0  0  0
   18.8383  -10.6554  -14.6280 C   0  0  0  0  0  0  0  0  0  0  0  0
   19.8239  -11.0658  -15.6891 C   0  0  2  0  0  0  0  0  0  0  0  0
   20.7359  -12.0754  -15.2731 N   0  0  0  0  0  0  0  0  0  0  0  0
   20.4627   -9.8539  -16.2171 C   0  0  0  0  0  0  0  0  0  0  0  0
   21.5900   -9.5132  -15.7939 O   0  0  0  0  0  0  0  0  0  0  0  0
   19.8293   -9.0968  -17.1697 O   0  0  0  0  0  0  0  0  0  0  0  0
  2  1  1  0
  3  2  1  0
  4  3  2  0
  6  5  1  6
  6  7  1  0
  6  8  1  0
  8  9  1  6
  9  3  1  0
 10  8  1  0
 10 15  1  0
 11 10  2  0
 12 13  1  0
 14 15  1  0
 14 13  1  1
 14 16  1  0
 16 18  1  0
 17 16  2  0
M  END
$$$$
