GTS.pdb
     RDKit          3D

 18 17  0  0  1  0  0  0  0  0999 V2000
   17.8506  -13.8909  -15.4098 N   0  0  0  0  0  0  0  0  0  0  0  0
   17.9251  -12.7656  -16.3029 C   0  0  0  0  0  0  0  0  0  0  0  0
   18.5616  -11.6230  -15.5965 C   0  0  0  0  0  0  0  0  0  0  0  0
   18.2620  -11.3844  -14.3969 O   0  0  0  0  0  0  0  0  0  0  0  0
   21.9444  -10.8227  -14.5748 C   0  0  0  0  0  0  0  0  0  0  0  0
   21.5680   -9.6749  -15.4861 C   0  0  1  0  0  0  0  0  0  0  0  0
   22.1496   -9.7839  -16.7267 O   0  0  0  0  0  0  0  0  0  0  0  0
   20.0593   -9.6156  -15.6136 C   0  0  2  0  0  0  0  0  0  0  0  0
   19.5156  -10.7758  -16.2455 N   0  0  0  0  0  0  0  0  0  0  0  0
   19.6276   -8.3769  -16.3115 C   0  0  0  0  0  0  0  0  0  0  0  0
   19.2925   -8.3663  -17.5102 O   0  0  0  0  0  0  0  0  0  0  0  0
   17.3054   -5.6622  -14.7138 O   0  0  0  0  0  0  0  0  0  0  0  0
   18.3944   -5.0035  -15.2643 C   0  0  0  0  0  0  0  0  0  0  0  0
   19.1675   -5.8937  -16.2001 C   0  0  2  0  0  0  0  0  0  0  0  0
   19.5797   -7.1253  -15.6196 N   0  0  0  0  0  0  0  0  0  0  0  0
   20.2590   -5.1065  -16.7872 C   0  0  0  0  0  0  0  0  0  0  0  0
   21.4434   -5.4823  -16.6385 O   0  0  0  0  0  0  0  0  0  0  0  0
   19.9849   -3.9643  -17.4956 O   0  0  0  0  0  0  0  0  0  0  0  0
  2  1  1  0
  3  2  1  0
  4  3  2  0
  6  5  1  1
  6  7  1  0
  6  8  1  0
  8  9  1  6
  9  3  1  0
 10  8  1  0
 10 15  1  0
 11 10  2  0
 12 13  1  0
 14 15  1  0
 14 13  1  1
 14 16  1  0
 16 18  1  0
 17 16  2  0
M  END
$$$$
