GTS.pdb
     RDKit          3D

 18 17  0  0  1  0  0  0  0  0999 V2000
   13.3021   -9.4879   -8.0748 N   0  0  0  0  0  0  0  0  0  0  0  0
   14.5032   -8.7405   -7.8140 C   0  0  0  0  0  0  0  0  0  0  0  0
   14.9173   -8.0335   -9.0543 C   0  0  0  0  0  0  0  0  0  0  0  0
   14.2967   -8.2426  -10.1299 O   0  0  0  0  0  0  0  0  0  0  0  0
   16.7208   -4.1948  -11.3159 C   0  0  0  0  0  0  0  0  0  0  0  0
   16.4850   -4.8963   -9.9961 C   0  0  1  0  0  0  0  0  0  0  0  0
   15.3544   -4.4415   -9.3604 O   0  0  0  0  0  0  0  0  0  0  0  0
   16.3910   -6.3894  -10.2366 C   0  0  2  0  0  0  0  0  0  0  0  0
   16.0125   -7.1118   -9.0637 N   0  0  0  0  0  0  0  0  0  0  0  0
   17.6559   -6.9223  -10.8058 C   0  0  0  0  0  0  0  0  0  0  0  0
   18.7342   -6.8918  -10.1849 O   0  0  0  0  0  0  0  0  0  0  0  0
   19.7414   -9.3185  -14.5387 O   0  0  0  0  0  0  0  0  0  0  0  0
   18.5843   -8.7502  -14.0278 C   0  0  0  0  0  0  0  0  0  0  0  0
   18.8556   -7.9768  -12.7652 C   0  0  2  0  0  0  0  0  0  0  0  0
   17.6834   -7.5017  -12.1139 N   0  0  0  0  0  0  0  0  0  0  0  0
   19.8442   -6.9343  -13.0677 C   0  0  0  0  0  0  0  0  0  0  0  0
   19.4895   -5.9042  -13.6834 O   0  0  0  0  0  0  0  0  0  0  0  0
   21.1508   -7.0860  -12.6787 O   0  0  0  0  0  0  0  0  0  0  0  0
  2  1  1  0
  3  2  1  0
  4  3  2  0
  6  5  1  6
  6  7  1  0
  6  8  1  0
  8  9  1  1
  9  3  1  0
 10  8  1  0
 10 15  1  0
 11 10  2  0
 12 13  1  0
 14 15  1  0
 14 13  1  6
 14 16  1  0
 16 18  1  0
 17 16  2  0
M  END
$$$$
