GTS.pdb
     RDKit          3D

 18 17  0  0  1  0  0  0  0  0999 V2000
   16.0741  -14.0811  -15.4260 N   0  0  0  0  0  0  0  0  0  0  0  0
   16.1447  -12.8294  -16.1314 C   0  0  0  0  0  0  0  0  0  0  0  0
   17.5350  -12.3079  -16.0626 C   0  0  0  0  0  0  0  0  0  0  0  0
   18.3601  -12.8307  -15.2679 O   0  0  0  0  0  0  0  0  0  0  0  0
   20.1172  -12.1557  -18.6295 C   0  0  0  0  0  0  0  0  0  0  0  0
   20.0014  -10.7227  -18.1576 C   0  0  1  0  0  0  0  0  0  0  0  0
   19.3364   -9.9297  -19.0621 O   0  0  0  0  0  0  0  0  0  0  0  0
   19.2984  -10.6966  -16.8155 C   0  0  2  0  0  0  0  0  0  0  0  0
   17.9697  -11.2171  -16.8814 N   0  0  0  0  0  0  0  0  0  0  0  0
   19.3073   -9.3304  -16.2311 C   0  0  0  0  0  0  0  0  0  0  0  0
   18.3323   -8.5611  -16.3134 O   0  0  0  0  0  0  0  0  0  0  0  0
   21.0009   -8.2250  -12.7347 O   0  0  0  0  0  0  0  0  0  0  0  0
   21.4767   -7.4531  -13.7838 C   0  0  0  0  0  0  0  0  0  0  0  0
   20.5742   -7.5319  -14.9859 C   0  0  2  0  0  0  0  0  0  0  0  0
   20.4584   -8.8377  -15.5385 N   0  0  0  0  0  0  0  0  0  0  0  0
   20.9957   -6.5040  -15.9458 C   0  0  0  0  0  0  0  0  0  0  0  0
   21.3896   -6.8436  -17.0840 O   0  0  0  0  0  0  0  0  0  0  0  0
   20.9590   -5.1772  -15.5994 O   0  0  0  0  0  0  0  0  0  0  0  0
  2  1  1  0
  3  2  1  0
  4  3  2  0
  6  5  1  6
  6  7  1  0
  6  8  1  0
  8  9  1  6
  9  3  1  0
 10  8  1  0
 10 15  1  0
 11 10  2  0
 12 13  1  0
 14 15  1  0
 14 13  1  1
 14 16  1  0
 16 18  1  0
 17 16  2  0
M  END
$$$$
