GTS.pdb
     RDKit          3D

 18 17  0  0  1  0  0  0  0  0999 V2000
   14.5325  -11.6318  -14.2351 N   0  0  0  0  0  0  0  0  0  0  0  0
   14.9110  -10.3294  -14.7145 C   0  0  0  0  0  0  0  0  0  0  0  0
   16.3922  -10.2588  -14.8181 C   0  0  0  0  0  0  0  0  0  0  0  0
   17.1070  -10.9212  -14.0207 O   0  0  0  0  0  0  0  0  0  0  0  0
   18.6031  -10.9030  -17.7807 C   0  0  0  0  0  0  0  0  0  0  0  0
   18.9864   -9.5233  -17.2918 C   0  0  1  0  0  0  0  0  0  0  0  0
   18.5178   -8.5302  -18.1186 O   0  0  0  0  0  0  0  0  0  0  0  0
   18.4599   -9.3306  -15.8841 C   0  0  2  0  0  0  0  0  0  0  0  0
   17.0385   -9.4516  -15.8081 N   0  0  0  0  0  0  0  0  0  0  0  0
   18.9160   -8.0371  -15.3125 C   0  0  0  0  0  0  0  0  0  0  0  0
   18.1923   -7.0248  -15.2864 O   0  0  0  0  0  0  0  0  0  0  0  0
   22.4506   -5.7079  -12.8407 O   0  0  0  0  0  0  0  0  0  0  0  0
   22.0029   -6.9008  -13.3880 C   0  0  0  0  0  0  0  0  0  0  0  0
   20.7589   -6.7020  -14.2120 C   0  0  2  0  0  0  0  0  0  0  0  0
   20.2290   -7.9032  -14.7599 N   0  0  0  0  0  0  0  0  0  0  0  0
   21.0263   -5.6517  -15.2025 C   0  0  0  0  0  0  0  0  0  0  0  0
   21.1808   -4.4687  -14.8247 O   0  0  0  0  0  0  0  0  0  0  0  0
   21.1069   -5.9627  -16.5361 O   0  0  0  0  0  0  0  0  0  0  0  0
  2  1  1  0
  3  2  1  0
  4  3  2  0
  6  5  1  6
  6  7  1  0
  6  8  1  0
  8  9  1  6
  9  3  1  0
 10  8  1  0
 10 15  1  0
 11 10  2  0
 12 13  1  0
 14 15  1  0
 14 13  1  6
 14 16  1  0
 16 18  1  0
 17 16  2  0
M  END
$$$$
