GTS.pdb
     RDKit          3D

 18 17  0  0  1  0  0  0  0  0999 V2000
   23.0142  -13.2449  -18.8116 N   0  0  0  0  0  0  0  0  0  0  0  0
   23.1988  -11.8183  -18.8155 C   0  0  0  0  0  0  0  0  0  0  0  0
   22.3037  -11.2074  -17.7981 C   0  0  0  0  0  0  0  0  0  0  0  0
   21.2862  -11.8352  -17.4030 O   0  0  0  0  0  0  0  0  0  0  0  0
   22.4941  -10.4987  -14.3970 C   0  0  0  0  0  0  0  0  0  0  0  0
   22.2068   -9.1224  -14.9565 C   0  0  1  0  0  0  0  0  0  0  0  0
   23.3220   -8.3189  -14.9584 O   0  0  0  0  0  0  0  0  0  0  0  0
   21.6542   -9.2620  -16.3605 C   0  0  2  0  0  0  0  0  0  0  0  0
   22.5660   -9.9123  -17.2473 N   0  0  0  0  0  0  0  0  0  0  0  0
   21.2294   -7.9458  -16.9037 C   0  0  0  0  0  0  0  0  0  0  0  0
   21.9260   -7.2964  -17.7052 O   0  0  0  0  0  0  0  0  0  0  0  0
   17.5390   -4.7328  -17.2673 O   0  0  0  0  0  0  0  0  0  0  0  0
   18.0000   -5.9258  -16.7315 C   0  0  0  0  0  0  0  0  0  0  0  0
   19.4543   -6.1518  -17.0473 C   0  0  2  0  0  0  0  0  0  0  0  0
   19.9801   -7.3637  -16.5193 N   0  0  0  0  0  0  0  0  0  0  0  0
   20.2014   -4.9487  -16.6599 C   0  0  0  0  0  0  0  0  0  0  0  0
   20.7411   -4.8910  -15.5323 O   0  0  0  0  0  0  0  0  0  0  0  0
   20.3090   -3.8917  -17.5275 O   0  0  0  0  0  0  0  0  0  0  0  0
  2  1  1  0
  3  2  1  0
  4  3  2  0
  6  5  1  6
  6  7  1  0
  6  8  1  0
  8  9  1  6
  9  3  1  0
 10  8  1  0
 10 15  1  0
 11 10  2  0
 12 13  1  0
 14 15  1  0
 14 13  1  1
 14 16  1  0
 16 18  1  0
 17 16  2  0
M  END
$$$$
