GTS.pdb
     RDKit          3D

 18 17  0  0  1  0  0  0  0  0999 V2000
   16.1606  -11.0601  -15.0507 N   0  0  0  0  0  0  0  0  0  0  0  0
   15.8498   -9.6556  -15.0440 C   0  0  0  0  0  0  0  0  0  0  0  0
   17.0509   -8.8877  -15.4651 C   0  0  0  0  0  0  0  0  0  0  0  0
   18.1484   -9.4833  -15.6274 O   0  0  0  0  0  0  0  0  0  0  0  0
   18.9095   -5.0009  -17.7735 C   0  0  0  0  0  0  0  0  0  0  0  0
   17.6781   -5.6596  -17.1910 C   0  0  1  0  0  0  0  0  0  0  0  0
   16.8565   -6.1776  -18.1636 O   0  0  0  0  0  0  0  0  0  0  0  0
   18.1053   -6.7473  -16.2264 C   0  0  2  0  0  0  0  0  0  0  0  0
   16.9976   -7.4757  -15.6945 N   0  0  0  0  0  0  0  0  0  0  0  0
   18.9535   -6.1967  -15.1376 C   0  0  0  0  0  0  0  0  0  0  0  0
   18.4918   -5.4922  -14.2211 O   0  0  0  0  0  0  0  0  0  0  0  0
   21.9792   -8.2877  -13.5831 O   0  0  0  0  0  0  0  0  0  0  0  0
   22.3968   -6.9895  -13.8347 C   0  0  0  0  0  0  0  0  0  0  0  0
   21.2307   -6.0620  -14.0484 C   0  0  2  0  0  0  0  0  0  0  0  0
   20.3594   -6.4599  -15.1003 N   0  0  0  0  0  0  0  0  0  0  0  0
   21.7484   -4.6941  -14.1766 C   0  0  0  0  0  0  0  0  0  0  0  0
   21.6959   -4.1130  -15.2837 O   0  0  0  0  0  0  0  0  0  0  0  0
   22.2876   -4.0537  -13.0899 O   0  0  0  0  0  0  0  0  0  0  0  0
  2  1  1  0
  3  2  1  0
  4  3  2  0
  6  5  1  6
  6  7  1  0
  6  8  1  0
  8  9  1  1
  9  3  1  0
 10  8  1  0
 10 15  1  0
 11 10  2  0
 12 13  1  0
 14 15  1  0
 14 13  1  6
 14 16  1  0
 16 18  1  0
 17 16  2  0
M  END
$$$$
