GTS.pdb
     RDKit          3D

 18 17  0  0  1  0  0  0  0  0999 V2000
   18.9019  -13.2457  -16.9948 N   0  0  0  0  0  0  0  0  0  0  0  0
   18.3193  -11.9626  -16.7059 C   0  0  0  0  0  0  0  0  0  0  0  0
   19.3471  -10.9057  -16.8961 C   0  0  0  0  0  0  0  0  0  0  0  0
   20.5640  -11.2221  -16.9641 O   0  0  0  0  0  0  0  0  0  0  0  0
   19.8403   -8.8093  -19.7120 C   0  0  0  0  0  0  0  0  0  0  0  0
   19.7256   -7.8030  -18.5878 C   0  0  1  0  0  0  0  0  0  0  0  0
   18.5074   -7.1663  -18.5824 O   0  0  0  0  0  0  0  0  0  0  0  0
   19.9601   -8.5056  -17.2660 C   0  0  2  0  0  0  0  0  0  0  0  0
   18.9919   -9.5233  -17.0057 N   0  0  0  0  0  0  0  0  0  0  0  0
   20.0253   -7.5326  -16.1448 C   0  0  0  0  0  0  0  0  0  0  0  0
   19.0620   -7.3214  -15.3853 O   0  0  0  0  0  0  0  0  0  0  0  0
   22.8692   -4.6674  -13.3965 O   0  0  0  0  0  0  0  0  0  0  0  0
   22.7902   -5.5674  -14.4485 C   0  0  0  0  0  0  0  0  0  0  0  0
   21.3644   -5.8135  -14.8635 C   0  0  2  0  0  0  0  0  0  0  0  0
   21.2199   -6.7873  -15.8905 N   0  0  0  0  0  0  0  0  0  0  0  0
   20.7435   -4.5180  -15.1667 C   0  0  0  0  0  0  0  0  0  0  0  0
   20.7891   -4.0670  -16.3332 O   0  0  0  0  0  0  0  0  0  0  0  0
   20.1157   -3.8034  -14.1783 O   0  0  0  0  0  0  0  0  0  0  0  0
  2  1  1  0
  3  2  1  0
  4  3  2  0
  6  5  1  6
  6  7  1  0
  6  8  1  0
  8  9  1  1
  9  3  1  0
 10  8  1  0
 10 15  1  0
 11 10  2  0
 12 13  1  0
 14 15  1  0
 14 13  1  6
 14 16  1  0
 16 18  1  0
 17 16  2  0
M  END
$$$$
