GTS.pdb
     RDKit          3D

 18 17  0  0  1  0  0  0  0  0999 V2000
   18.3526  -13.1990  -16.2418 N   0  0  0  0  0  0  0  0  0  0  0  0
   19.3568  -12.4366  -15.5493 C   0  0  0  0  0  0  0  0  0  0  0  0
   19.4900  -11.1043  -16.1950 C   0  0  0  0  0  0  0  0  0  0  0  0
   19.0122  -10.9163  -17.3448 O   0  0  0  0  0  0  0  0  0  0  0  0
   17.8414   -9.0289  -17.0273 C   0  0  0  0  0  0  0  0  0  0  0  0
   18.6412   -8.1637  -16.0778 C   0  0  1  0  0  0  0  0  0  0  0  0
   18.0944   -8.1328  -14.8172 O   0  0  0  0  0  0  0  0  0  0  0  0
   20.0671   -8.6732  -16.0226 C   0  0  2  0  0  0  0  0  0  0  0  0
   20.1523  -10.0159  -15.5423 N   0  0  0  0  0  0  0  0  0  0  0  0
   20.9311   -7.7656  -15.2240 C   0  0  0  0  0  0  0  0  0  0  0  0
   21.1485   -7.9440  -14.0115 O   0  0  0  0  0  0  0  0  0  0  0  0
   23.9994   -3.9391  -15.3723 O   0  0  0  0  0  0  0  0  0  0  0  0
   23.0553   -4.6961  -16.0495 C   0  0  0  0  0  0  0  0  0  0  0  0
   22.4179   -5.7225  -15.1516 C   0  0  2  0  0  0  0  0  0  0  0  0
   21.5580   -6.6308  -15.8294 N   0  0  0  0  0  0  0  0  0  0  0  0
   21.7898   -5.0213  -14.0249 C   0  0  0  0  0  0  0  0  0  0  0  0
   20.5959   -4.6562  -14.1103 O   0  0  0  0  0  0  0  0  0  0  0  0
   22.5057   -4.7663  -12.8829 O   0  0  0  0  0  0  0  0  0  0  0  0
  2  1  1  0
  3  2  1  0
  4  3  2  0
  6  5  1  6
  6  7  1  0
  6  8  1  0
  8  9  1  1
  9  3  1  0
 10  8  1  0
 10 15  1  0
 11 10  2  0
 12 13  1  0
 14 15  1  0
 14 13  1  6
 14 16  1  0
 16 18  1  0
 17 16  2  0
M  END
$$$$
