GTS.pdb
     RDKit          3D

 18 17  0  0  1  0  0  0  0  0999 V2000
   19.6825  -13.4228  -16.9773 N   0  0  0  0  0  0  0  0  0  0  0  0
   19.5425  -12.0290  -17.3047 C   0  0  0  0  0  0  0  0  0  0  0  0
   20.2383  -11.2134  -16.2750 C   0  0  0  0  0  0  0  0  0  0  0  0
   19.9407  -11.3545  -15.0597 O   0  0  0  0  0  0  0  0  0  0  0  0
   23.6976  -11.0912  -15.2958 C   0  0  0  0  0  0  0  0  0  0  0  0
   23.3977   -9.6455  -15.6269 C   0  0  1  0  0  0  0  0  0  0  0  0
   23.9534   -9.2602  -16.8235 O   0  0  0  0  0  0  0  0  0  0  0  0
   21.8963   -9.4425  -15.6523 C   0  0  2  0  0  0  0  0  0  0  0  0
   21.2479  -10.2614  -16.6268 N   0  0  0  0  0  0  0  0  0  0  0  0
   21.5513   -8.0101  -15.8450 C   0  0  0  0  0  0  0  0  0  0  0  0
   21.0241   -7.5834  -16.8887 O   0  0  0  0  0  0  0  0  0  0  0  0
   19.7640   -4.0150  -14.9719 O   0  0  0  0  0  0  0  0  0  0  0  0
   20.0209   -5.3734  -14.8639 C   0  0  0  0  0  0  0  0  0  0  0  0
   21.4971   -5.6648  -14.9033 C   0  0  2  0  0  0  0  0  0  0  0  0
   21.8168   -7.0485  -14.8193 N   0  0  0  0  0  0  0  0  0  0  0  0
   22.1581   -4.8288  -13.8935 C   0  0  0  0  0  0  0  0  0  0  0  0
   22.5008   -5.3323  -12.8002 O   0  0  0  0  0  0  0  0  0  0  0  0
   22.4002   -3.5021  -14.1442 O   0  0  0  0  0  0  0  0  0  0  0  0
  2  1  1  0
  3  2  1  0
  4  3  2  0
  6  5  1  6
  6  7  1  0
  6  8  1  0
  8  9  1  6
  9  3  1  0
 10  8  1  0
 10 15  1  0
 11 10  2  0
 12 13  1  0
 14 15  1  0
 14 13  1  1
 14 16  1  0
 16 18  1  0
 17 16  2  0
M  END
$$$$
