GYG.pdb
     RDKit          3D

 21 21  0  0  1  0  0  0  0  0999 V2000
    4.9835  -18.6858   22.1499 N   0  0  0  0  0  0  0  0  0  0  0  0
    5.5499  -18.3903   23.4439 C   0  0  0  0  0  0  0  0  0  0  0  0
    6.6091  -17.3396   23.3458 C   0  0  0  0  0  0  0  0  0  0  0  0
    6.8331  -16.7246   22.2733 O   0  0  0  0  0  0  0  0  0  0  0  0
    5.2392  -10.8857   26.9944 O   0  0  0  0  0  0  0  0  0  0  0  0
    6.0810  -11.9709   26.6972 C   0  0  0  0  0  0  0  0  0  0  0  0
    7.3774  -11.7788   26.2749 C   0  0  0  0  0  0  0  0  0  0  0  0
    8.1915  -12.8603   25.9869 C   0  0  0  0  0  0  0  0  0  0  0  0
    7.7568  -14.1594   26.1052 C   0  0  0  0  0  0  0  0  0  0  0  0
    8.6032  -15.3061   25.8054 C   0  0  0  0  0  0  0  0  0  0  0  0
    8.3749  -15.8957   24.4331 C   0  0  2  0  0  0  0  0  0  0  0  0
    7.4181  -16.9846   24.4689 N   0  0  0  0  0  0  0  0  0  0  0  0
    9.6798  -16.4490   23.9806 C   0  0  0  0  0  0  0  0  0  0  0  0
   10.6702  -15.6849   23.7371 O   0  0  0  0  0  0  0  0  0  0  0  0
    6.4609  -14.3479   26.5276 C   0  0  0  0  0  0  0  0  0  0  0  0
    5.6260  -13.2650   26.8224 C   0  0  0  0  0  0  0  0  0  0  0  0
    9.9066  -17.8311   23.7933 N   0  0  0  0  0  0  0  0  0  0  0  0
   11.1769  -18.3438   23.2582 C   0  0  0  0  0  0  0  0  0  0  0  0
   12.0930  -18.7357   24.3258 C   0  0  0  0  0  0  0  0  0  0  0  0
   11.7685  -18.6353   25.5318 O   0  0  0  0  0  0  0  0  0  0  0  0
   13.3450  -19.2282   24.0083 O   0  0  0  0  0  0  0  0  0  0  0  0
  1  2  1  0
  3  4  2  0
  3  2  1  0
  6  5  1  0
  6  7  2  0
  8  7  1  0
  9  8  2  0
 10  9  1  0
 11 12  1  0
 11 10  1  1
 12  3  1  0
 13 11  1  0
 14 13  2  0
 15 16  2  0
 15  9  1  0
 16  6  1  0
 17 13  1  0
 18 17  1  0
 19 18  1  0
 19 21  1  0
 20 19  2  0
M  END
$$$$
