GYG.pdb
     RDKit          3D

 21 21  0  0  1  0  0  0  0  0999 V2000
    9.3158  -16.4184   17.8361 N   0  0  0  0  0  0  0  0  0  0  0  0
    8.2119  -16.5227   18.7597 C   0  0  0  0  0  0  0  0  0  0  0  0
    8.4745  -15.7452   20.0095 C   0  0  0  0  0  0  0  0  0  0  0  0
    9.6135  -15.2865   20.2759 O   0  0  0  0  0  0  0  0  0  0  0  0
    7.3194  -11.9516   27.9699 O   0  0  0  0  0  0  0  0  0  0  0  0
    7.0966  -12.5715   26.7287 C   0  0  0  0  0  0  0  0  0  0  0  0
    6.4733  -13.7959   26.6397 C   0  0  0  0  0  0  0  0  0  0  0  0
    6.2627  -14.3908   25.4080 C   0  0  0  0  0  0  0  0  0  0  0  0
    6.6574  -13.8014   24.2301 C   0  0  0  0  0  0  0  0  0  0  0  0
    6.4418  -14.4166   22.9277 C   0  0  0  0  0  0  0  0  0  0  0  0
    7.7047  -14.9250   22.2722 C   0  0  2  0  0  0  0  0  0  0  0  0
    7.4409  -15.4867   20.9618 N   0  0  0  0  0  0  0  0  0  0  0  0
    8.2299  -16.0144   23.1388 C   0  0  0  0  0  0  0  0  0  0  0  0
    7.5535  -17.0742   23.3472 O   0  0  0  0  0  0  0  0  0  0  0  0
    7.2800  -12.5778   24.3226 C   0  0  0  0  0  0  0  0  0  0  0  0
    7.5000  -11.9639   25.5601 C   0  0  0  0  0  0  0  0  0  0  0  0
    9.4888  -15.9508   23.7775 N   0  0  0  0  0  0  0  0  0  0  0  0
    9.9927  -17.0523   24.6115 C   0  0  0  0  0  0  0  0  0  0  0  0
   11.2971  -16.7389   25.1884 C   0  0  0  0  0  0  0  0  0  0  0  0
   12.3408  -17.3007   24.7824 O   0  0  0  0  0  0  0  0  0  0  0  0
   11.3912  -15.8049   26.2032 O   0  0  0  0  0  0  0  0  0  0  0  0
  1  2  1  0
  3  4  2  0
  3  2  1  0
  6  5  1  0
  6  7  2  0
  8  7  1  0
  9  8  2  0
 10  9  1  0
 11 12  1  0
 11 10  1  1
 12  3  1  0
 13 11  1  0
 14 13  2  0
 15 16  2  0
 15  9  1  0
 16  6  1  0
 17 13  1  0
 18 17  1  0
 19 18  1  0
 19 21  1  0
 20 19  2  0
M  END
$$$$
