GYG.pdb
     RDKit          3D

 21 21  0  0  1  0  0  0  0  0999 V2000
    7.7967  -19.9724   17.0991 N   0  0  0  0  0  0  0  0  0  0  0  0
    9.0703  -19.7879   16.4460 C   0  0  0  0  0  0  0  0  0  0  0  0
    9.8907  -18.7483   17.1399 C   0  0  0  0  0  0  0  0  0  0  0  0
    9.3958  -17.9859   18.0075 O   0  0  0  0  0  0  0  0  0  0  0  0
   11.0139  -21.1475   22.7835 O   0  0  0  0  0  0  0  0  0  0  0  0
   11.5411  -20.4382   21.6910 C   0  0  0  0  0  0  0  0  0  0  0  0
   11.7266  -21.0403   20.4667 C   0  0  0  0  0  0  0  0  0  0  0  0
   12.2473  -20.3253   19.4022 C   0  0  0  0  0  0  0  0  0  0  0  0
   12.6002  -19.0006   19.5092 C   0  0  0  0  0  0  0  0  0  0  0  0
   13.1491  -18.2369   18.3971 C   0  0  0  0  0  0  0  0  0  0  0  0
   12.1021  -17.5872   17.5226 C   0  0  2  0  0  0  0  0  0  0  0  0
   11.2785  -18.5722   16.8489 N   0  0  0  0  0  0  0  0  0  0  0  0
   12.8315  -16.8132   16.4821 C   0  0  0  0  0  0  0  0  0  0  0  0
   13.6836  -15.9210   16.8014 O   0  0  0  0  0  0  0  0  0  0  0  0
   12.4136  -18.4020   20.7340 C   0  0  0  0  0  0  0  0  0  0  0  0
   11.8884  -19.1114   21.8192 C   0  0  0  0  0  0  0  0  0  0  0  0
   12.6342  -17.0096   15.0968 N   0  0  0  0  0  0  0  0  0  0  0  0
   13.4505  -16.3146   14.0901 C   0  0  0  0  0  0  0  0  0  0  0  0
   13.0838  -16.7087   12.7326 C   0  0  0  0  0  0  0  0  0  0  0  0
   12.6328  -17.8511   12.4856 O   0  0  0  0  0  0  0  0  0  0  0  0
   13.2340  -15.8094   11.6935 O   0  0  0  0  0  0  0  0  0  0  0  0
  1  2  1  0
  3  4  2  0
  3  2  1  0
  6  5  1  0
  6  7  2  0
  8  7  1  0
  9  8  2  0
 10  9  1  0
 11 12  1  0
 11 10  1  1
 12  3  1  0
 13 11  1  0
 14 13  2  0
 15 16  2  0
 15  9  1  0
 16  6  1  0
 17 13  1  0
 18 17  1  0
 19 18  1  0
 19 21  1  0
 20 19  2  0
M  END
$$$$
