GYG.pdb
     RDKit          3D

 21 21  0  0  1  0  0  0  0  0999 V2000
    6.3765  -15.0909   20.0985 N   0  0  0  0  0  0  0  0  0  0  0  0
    6.4945  -15.7078   21.3978 C   0  0  0  0  0  0  0  0  0  0  0  0
    7.7160  -15.2311   22.1162 C   0  0  0  0  0  0  0  0  0  0  0  0
    8.5133  -14.4126   21.5936 O   0  0  0  0  0  0  0  0  0  0  0  0
    5.5493  -11.0979   27.4815 O   0  0  0  0  0  0  0  0  0  0  0  0
    6.3877  -12.1307   27.0288 C   0  0  0  0  0  0  0  0  0  0  0  0
    5.9067  -13.4024   26.8114 C   0  0  0  0  0  0  0  0  0  0  0  0
    6.7480  -14.4066   26.3653 C   0  0  0  0  0  0  0  0  0  0  0  0
    8.0837  -14.1914   26.1202 C   0  0  0  0  0  0  0  0  0  0  0  0
    8.9797  -15.2393   25.6507 C   0  0  0  0  0  0  0  0  0  0  0  0
    9.2062  -15.2296   24.1568 C   0  0  2  0  0  0  0  0  0  0  0  0
    8.0350  -15.6845   23.4332 N   0  0  0  0  0  0  0  0  0  0  0  0
   10.3122  -16.1867   23.8837 C   0  0  0  0  0  0  0  0  0  0  0  0
   10.2455  -17.3984   24.2726 O   0  0  0  0  0  0  0  0  0  0  0  0
    8.5613  -12.9195   26.3385 C   0  0  0  0  0  0  0  0  0  0  0  0
    7.7234  -11.8941   26.7892 C   0  0  0  0  0  0  0  0  0  0  0  0
   11.4884  -15.8259   23.1888 N   0  0  0  0  0  0  0  0  0  0  0  0
   12.5358  -16.8087   22.8730 C   0  0  0  0  0  0  0  0  0  0  0  0
   13.7863  -16.5051   23.5634 C   0  0  0  0  0  0  0  0  0  0  0  0
   13.8002  -16.1827   24.7739 O   0  0  0  0  0  0  0  0  0  0  0  0
   14.9832  -16.5722   22.8748 O   0  0  0  0  0  0  0  0  0  0  0  0
  1  2  1  0
  3  4  2  0
  3  2  1  0
  6  5  1  0
  6  7  2  0
  8  7  1  0
  9  8  2  0
 10  9  1  0
 11 12  1  0
 11 10  1  1
 12  3  1  0
 13 11  1  0
 14 13  2  0
 15 16  2  0
 15  9  1  0
 16  6  1  0
 17 13  1  0
 18 17  1  0
 19 18  1  0
 19 21  1  0
 20 19  2  0
M  END
$$$$
