GYG.pdb
     RDKit          3D

 21 21  0  0  1  0  0  0  0  0999 V2000
    7.4411  -13.8977   19.7297 N   0  0  0  0  0  0  0  0  0  0  0  0
    7.1111  -14.6515   20.9153 C   0  0  0  0  0  0  0  0  0  0  0  0
    8.1908  -14.5458   21.9440 C   0  0  0  0  0  0  0  0  0  0  0  0
    9.2417  -13.8894   21.7347 O   0  0  0  0  0  0  0  0  0  0  0  0
    5.5605  -10.4353   27.3046 O   0  0  0  0  0  0  0  0  0  0  0  0
    6.2658  -11.5811   26.8993 C   0  0  0  0  0  0  0  0  0  0  0  0
    7.6243  -11.6934   27.0929 C   0  0  0  0  0  0  0  0  0  0  0  0
    8.3018  -12.8299   26.6869 C   0  0  0  0  0  0  0  0  0  0  0  0
    7.6656  -13.8872   26.0801 C   0  0  0  0  0  0  0  0  0  0  0  0
    8.3666  -15.0886   25.6482 C   0  0  0  0  0  0  0  0  0  0  0  0
    9.0231  -14.9627   24.2932 C   0  0  2  0  0  0  0  0  0  0  0  0
    8.0788  -15.1871   23.2160 N   0  0  0  0  0  0  0  0  0  0  0  0
   10.0619  -16.0253   24.2187 C   0  0  0  0  0  0  0  0  0  0  0  0
   10.9421  -16.1510   25.1316 O   0  0  0  0  0  0  0  0  0  0  0  0
    6.3079  -13.7718   25.8882 C   0  0  0  0  0  0  0  0  0  0  0  0
    5.6094  -12.6295   26.2930 C   0  0  0  0  0  0  0  0  0  0  0  0
   10.1427  -16.9495   23.1528 N   0  0  0  0  0  0  0  0  0  0  0  0
   11.1468  -18.0238   23.1313 C   0  0  0  0  0  0  0  0  0  0  0  0
   12.4401  -17.5438   22.6520 C   0  0  0  0  0  0  0  0  0  0  0  0
   12.5521  -16.9713   21.5433 O   0  0  0  0  0  0  0  0  0  0  0  0
   13.5683  -17.7206   23.4310 O   0  0  0  0  0  0  0  0  0  0  0  0
  1  2  1  0
  3  4  2  0
  3  2  1  0
  6  5  1  0
  6  7  2  0
  8  7  1  0
  9  8  2  0
 10  9  1  0
 11 12  1  0
 11 10  1  1
 12  3  1  0
 13 11  1  0
 14 13  2  0
 15 16  2  0
 15  9  1  0
 16  6  1  0
 17 13  1  0
 18 17  1  0
 19 18  1  0
 19 21  1  0
 20 19  2  0
M  END
$$$$
