GYG.pdb
     RDKit          3D

 21 21  0  0  1  0  0  0  0  0999 V2000
   16.5647  -20.2660   43.7093 N   0  0  0  0  0  0  0  0  0  0  0  0
   15.5282  -19.2766   43.5381 C   0  0  0  0  0  0  0  0  0  0  0  0
   15.6017  -18.6417   42.1864 C   0  0  0  0  0  0  0  0  0  0  0  0
   14.7820  -18.9251   41.2773 O   0  0  0  0  0  0  0  0  0  0  0  0
   12.4206  -13.2263   43.6882 O   0  0  0  0  0  0  0  0  0  0  0  0
   13.4850  -13.7827   42.9588 C   0  0  0  0  0  0  0  0  0  0  0  0
   13.4497  -13.8610   41.5846 C   0  0  0  0  0  0  0  0  0  0  0  0
   14.5078  -14.4125   40.8835 C   0  0  0  0  0  0  0  0  0  0  0  0
   15.6293  -14.9021   41.5107 C   0  0  0  0  0  0  0  0  0  0  0  0
   16.7495  -15.4848   40.7848 C   0  0  0  0  0  0  0  0  0  0  0  0
   16.6470  -16.9803   40.5952 C   0  0  2  0  0  0  0  0  0  0  0  0
   16.6092  -17.6811   41.8640 N   0  0  0  0  0  0  0  0  0  0  0  0
   17.8764  -17.4072   39.8741 C   0  0  0  0  0  0  0  0  0  0  0  0
   18.8292  -17.9920   40.4859 O   0  0  0  0  0  0  0  0  0  0  0  0
   15.6614  -14.8223   42.8840 C   0  0  0  0  0  0  0  0  0  0  0  0
   14.5998  -14.2677   43.6065 C   0  0  0  0  0  0  0  0  0  0  0  0
   18.0688  -17.1981   38.4899 N   0  0  0  0  0  0  0  0  0  0  0  0
   19.2442  -17.7260   37.7811 C   0  0  0  0  0  0  0  0  0  0  0  0
   20.4231  -16.8911   37.9953 C   0  0  0  0  0  0  0  0  0  0  0  0
   20.3965  -15.9161   38.7817 O   0  0  0  0  0  0  0  0  0  0  0  0
   21.5960  -17.1753   37.3210 O   0  0  0  0  0  0  0  0  0  0  0  0
  1  2  1  0
  3  4  2  0
  3  2  1  0
  6  5  1  0
  6  7  2  0
  8  7  1  0
  9  8  2  0
 10  9  1  0
 11 12  1  0
 11 10  1  1
 12  3  1  0
 13 11  1  0
 14 13  2  0
 15 16  2  0
 15  9  1  0
 16  6  1  0
 17 13  1  0
 18 17  1  0
 19 18  1  0
 19 21  1  0
 20 19  2  0
M  END
$$$$
