GYG.pdb
     RDKit          3D

 21 21  0  0  1  0  0  0  0  0999 V2000
    4.7527  -18.7040   22.8732 N   0  0  0  0  0  0  0  0  0  0  0  0
    5.7311  -18.4924   23.9128 C   0  0  0  0  0  0  0  0  0  0  0  0
    6.6616  -17.3755   23.5634 C   0  0  0  0  0  0  0  0  0  0  0  0
    6.5837  -16.7687   22.4659 O   0  0  0  0  0  0  0  0  0  0  0  0
    5.2615  -11.1705   26.8682 O   0  0  0  0  0  0  0  0  0  0  0  0
    6.2031  -12.1367   26.4754 C   0  0  0  0  0  0  0  0  0  0  0  0
    6.9287  -12.0007   25.3132 C   0  0  0  0  0  0  0  0  0  0  0  0
    7.8518  -12.9630   24.9429 C   0  0  0  0  0  0  0  0  0  0  0  0
    8.0886  -14.0848   25.7020 C   0  0  0  0  0  0  0  0  0  0  0  0
    9.0570  -15.1048   25.3237 C   0  0  0  0  0  0  0  0  0  0  0  0
    8.6511  -15.9196   24.1177 C   0  0  2  0  0  0  0  0  0  0  0  0
    7.6852  -16.9445   24.4625 N   0  0  0  0  0  0  0  0  0  0  0  0
    9.8799  -16.5977   23.6240 C   0  0  0  0  0  0  0  0  0  0  0  0
   10.2649  -17.7066   24.1203 O   0  0  0  0  0  0  0  0  0  0  0  0
    7.3619  -14.2177   26.8628 C   0  0  0  0  0  0  0  0  0  0  0  0
    6.4254  -13.2536   27.2504 C   0  0  0  0  0  0  0  0  0  0  0  0
   10.6884  -16.0703   22.5920 N   0  0  0  0  0  0  0  0  0  0  0  0
   11.7810  -16.8475   21.9878 C   0  0  0  0  0  0  0  0  0  0  0  0
   13.0446  -16.6367   22.6888 C   0  0  0  0  0  0  0  0  0  0  0  0
   13.0810  -16.0896   23.8153 O   0  0  0  0  0  0  0  0  0  0  0  0
   14.2290  -17.0459   22.1049 O   0  0  0  0  0  0  0  0  0  0  0  0
  1  2  1  0
  3  4  2  0
  3  2  1  0
  6  5  1  0
  6  7  2  0
  8  7  1  0
  9  8  2  0
 10  9  1  0
 11 12  1  0
 11 10  1  1
 12  3  1  0
 13 11  1  0
 14 13  2  0
 15 16  2  0
 15  9  1  0
 16  6  1  0
 17 13  1  0
 18 17  1  0
 19 18  1  0
 19 21  1  0
 20 19  2  0
M  END
$$$$
