GYG.pdb
     RDKit          3D

 21 21  0  0  1  0  0  0  0  0999 V2000
    5.5298  -19.0613   23.3095 N   0  0  0  0  0  0  0  0  0  0  0  0
    6.2618  -18.4579   24.3970 C   0  0  0  0  0  0  0  0  0  0  0  0
    7.1922  -17.3971   23.9025 C   0  0  0  0  0  0  0  0  0  0  0  0
    7.2673  -17.0988   22.6842 O   0  0  0  0  0  0  0  0  0  0  0  0
    5.0542  -11.1510   26.8724 O   0  0  0  0  0  0  0  0  0  0  0  0
    6.0960  -12.0205   26.5073 C   0  0  0  0  0  0  0  0  0  0  0  0
    6.1846  -12.5401   25.2353 C   0  0  0  0  0  0  0  0  0  0  0  0
    7.2181  -13.3950   24.8944 C   0  0  0  0  0  0  0  0  0  0  0  0
    8.1928  -13.7638   25.7914 C   0  0  0  0  0  0  0  0  0  0  0  0
    9.2856  -14.6625   25.4456 C   0  0  0  0  0  0  0  0  0  0  0  0
    8.9522  -15.6377   24.3407 C   0  0  2  0  0  0  0  0  0  0  0  0
    8.0415  -16.6712   24.7933 N   0  0  0  0  0  0  0  0  0  0  0  0
   10.2283  -16.2938   23.9472 C   0  0  0  0  0  0  0  0  0  0  0  0
   11.2086  -15.6128   23.5008 O   0  0  0  0  0  0  0  0  0  0  0  0
    8.1014  -13.2428   27.0617 C   0  0  0  0  0  0  0  0  0  0  0  0
    7.0628  -12.3776   27.4212 C   0  0  0  0  0  0  0  0  0  0  0  0
   10.4373  -17.6883   24.0392 N   0  0  0  0  0  0  0  0  0  0  0  0
   11.7039  -18.3122   23.6278 C   0  0  0  0  0  0  0  0  0  0  0  0
   11.6734  -18.7213   22.2262 C   0  0  0  0  0  0  0  0  0  0  0  0
   10.8673  -19.5895   21.8187 O   0  0  0  0  0  0  0  0  0  0  0  0
   12.5479  -18.1442   21.3245 O   0  0  0  0  0  0  0  0  0  0  0  0
  1  2  1  0
  3  4  2  0
  3  2  1  0
  6  5  1  0
  6  7  2  0
  8  7  1  0
  9  8  2  0
 10  9  1  0
 11 12  1  0
 11 10  1  1
 12  3  1  0
 13 11  1  0
 14 13  2  0
 15 16  2  0
 15  9  1  0
 16  6  1  0
 17 13  1  0
 18 17  1  0
 19 18  1  0
 19 21  1  0
 20 19  2  0
M  END
$$$$
