GYG.pdb
     RDKit          3D

 21 21  0  0  1  0  0  0  0  0999 V2000
    9.6295  -18.7198   20.1649 N   0  0  0  0  0  0  0  0  0  0  0  0
    8.4476  -18.3868   20.9232 C   0  0  0  0  0  0  0  0  0  0  0  0
    8.7283  -17.3092   21.9208 C   0  0  0  0  0  0  0  0  0  0  0  0
    9.8780  -16.8223   22.0624 O   0  0  0  0  0  0  0  0  0  0  0  0
    8.3443  -12.5899   18.0304 O   0  0  0  0  0  0  0  0  0  0  0  0
    8.0359  -13.0557   19.3197 C   0  0  0  0  0  0  0  0  0  0  0  0
    6.9350  -13.8494   19.5516 C   0  0  0  0  0  0  0  0  0  0  0  0
    6.6474  -14.2987   20.8287 C   0  0  0  0  0  0  0  0  0  0  0  0
    7.4313  -13.9819   21.9130 C   0  0  0  0  0  0  0  0  0  0  0  0
    7.1399  -14.4480   23.2618 C   0  0  0  0  0  0  0  0  0  0  0  0
    7.9235  -15.6734   23.6706 C   0  0  2  0  0  0  0  0  0  0  0  0
    7.7009  -16.7811   22.7618 N   0  0  0  0  0  0  0  0  0  0  0  0
    7.4226  -16.0759   25.0125 C   0  0  0  0  0  0  0  0  0  0  0  0
    7.5356  -15.3004   26.0174 O   0  0  0  0  0  0  0  0  0  0  0  0
    8.5307  -13.1885   21.6778 C   0  0  0  0  0  0  0  0  0  0  0  0
    8.8344  -12.7268   20.3928 C   0  0  0  0  0  0  0  0  0  0  0  0
    6.7997  -17.3197   25.2605 N   0  0  0  0  0  0  0  0  0  0  0  0
    7.5624  -18.5767   25.2948 C   0  0  0  0  0  0  0  0  0  0  0  0
    8.2474  -18.7573   26.5718 C   0  0  0  0  0  0  0  0  0  0  0  0
    7.9156  -19.6680   27.3656 O   0  0  0  0  0  0  0  0  0  0  0  0
    9.2837  -17.9110   26.9195 O   0  0  0  0  0  0  0  0  0  0  0  0
  1  2  1  0
  3  4  2  0
  3  2  1  0
  6  5  1  0
  6  7  2  0
  8  7  1  0
  9  8  2  0
 10  9  1  0
 11 12  1  0
 11 10  1  6
 12  3  1  0
 13 11  1  0
 14 13  2  0
 15 16  2  0
 15  9  1  0
 16  6  1  0
 17 13  1  0
 18 17  1  0
 19 18  1  0
 19 21  1  0
 20 19  2  0
M  END
$$$$
