GYG.pdb
     RDKit          3D

 21 21  0  0  1  0  0  0  0  0999 V2000
    6.5278  -19.6688   20.4726 N   0  0  0  0  0  0  0  0  0  0  0  0
    6.4577  -18.6758   21.5174 C   0  0  0  0  0  0  0  0  0  0  0  0
    7.7289  -17.8941   21.6096 C   0  0  0  0  0  0  0  0  0  0  0  0
    8.7108  -18.1381   20.8644 O   0  0  0  0  0  0  0  0  0  0  0  0
    6.9292  -12.5327   17.4704 O   0  0  0  0  0  0  0  0  0  0  0  0
    7.3260  -13.0160   18.7288 C   0  0  0  0  0  0  0  0  0  0  0  0
    6.4013  -13.3867   19.6793 C   0  0  0  0  0  0  0  0  0  0  0  0
    6.8114  -13.8604   20.9133 C   0  0  0  0  0  0  0  0  0  0  0  0
    8.1391  -13.9837   21.2489 C   0  0  0  0  0  0  0  0  0  0  0  0
    8.5840  -14.4807   22.5437 C   0  0  0  0  0  0  0  0  0  0  0  0
    9.0212  -15.9269   22.5289 C   0  0  2  0  0  0  0  0  0  0  0  0
    7.8877  -16.8309   22.5509 N   0  0  0  0  0  0  0  0  0  0  0  0
    9.8079  -16.1506   23.7718 C   0  0  0  0  0  0  0  0  0  0  0  0
    9.2427  -16.1742   24.9137 O   0  0  0  0  0  0  0  0  0  0  0  0
    9.0606  -13.6124   20.2968 C   0  0  0  0  0  0  0  0  0  0  0  0
    8.6616  -13.1318   19.0453 C   0  0  0  0  0  0  0  0  0  0  0  0
   11.2071  -16.3483   23.7721 N   0  0  0  0  0  0  0  0  0  0  0  0
   11.9575  -16.5836   25.0148 C   0  0  0  0  0  0  0  0  0  0  0  0
   13.3997  -16.5664   24.7854 C   0  0  0  0  0  0  0  0  0  0  0  0
   14.2112  -16.6866   25.7324 O   0  0  0  0  0  0  0  0  0  0  0  0
   13.8877  -16.4151   23.5009 O   0  0  0  0  0  0  0  0  0  0  0  0
  1  2  1  0
  3  4  2  0
  3  2  1  0
  6  5  1  0
  6  7  2  0
  8  7  1  0
  9  8  2  0
 10  9  1  0
 11 12  1  0
 11 10  1  1
 12  3  1  0
 13 11  1  0
 14 13  2  0
 15 16  2  0
 15  9  1  0
 16  6  1  0
 17 13  1  0
 18 17  1  0
 19 18  1  0
 19 21  1  0
 20 19  2  0
M  END
$$$$
