GYG.pdb
     RDKit          3D

 21 21  0  0  1  0  0  0  0  0999 V2000
    7.3701  -14.6022   19.6490 N   0  0  0  0  0  0  0  0  0  0  0  0
    7.1075  -15.2668   20.9028 C   0  0  0  0  0  0  0  0  0  0  0  0
    8.1147  -14.8864   21.9403 C   0  0  0  0  0  0  0  0  0  0  0  0
    9.0080  -14.0326   21.7129 O   0  0  0  0  0  0  0  0  0  0  0  0
    5.5714  -10.5941   27.5629 O   0  0  0  0  0  0  0  0  0  0  0  0
    6.2380  -11.7363   27.0880 C   0  0  0  0  0  0  0  0  0  0  0  0
    5.6009  -12.6585   26.2884 C   0  0  0  0  0  0  0  0  0  0  0  0
    6.2742  -13.7775   25.8303 C   0  0  0  0  0  0  0  0  0  0  0  0
    7.5904  -14.0227   26.1437 C   0  0  0  0  0  0  0  0  0  0  0  0
    8.3104  -15.1961   25.6682 C   0  0  0  0  0  0  0  0  0  0  0  0
    8.9620  -15.0111   24.3176 C   0  0  2  0  0  0  0  0  0  0  0  0
    8.1091  -15.4768   23.2415 N   0  0  0  0  0  0  0  0  0  0  0  0
   10.1942  -15.8449   24.3172 C   0  0  0  0  0  0  0  0  0  0  0  0
   11.1038  -15.6763   25.1938 O   0  0  0  0  0  0  0  0  0  0  0  0
    8.2241  -13.0991   26.9429 C   0  0  0  0  0  0  0  0  0  0  0  0
    7.5571  -11.9634   27.4136 C   0  0  0  0  0  0  0  0  0  0  0  0
   10.4364  -16.8603   23.3648 N   0  0  0  0  0  0  0  0  0  0  0  0
   11.6753  -17.6527   23.3728 C   0  0  0  0  0  0  0  0  0  0  0  0
   11.6368  -18.7239   22.3811 C   0  0  0  0  0  0  0  0  0  0  0  0
   12.5762  -19.5460   22.2737 O   0  0  0  0  0  0  0  0  0  0  0  0
   10.5460  -18.8406   21.5401 O   0  0  0  0  0  0  0  0  0  0  0  0
  1  2  1  0
  3  4  2  0
  3  2  1  0
  6  5  1  0
  6  7  2  0
  8  7  1  0
  9  8  2  0
 10  9  1  0
 11 12  1  0
 11 10  1  1
 12  3  1  0
 13 11  1  0
 14 13  2  0
 15 16  2  0
 15  9  1  0
 16  6  1  0
 17 13  1  0
 18 17  1  0
 19 18  1  0
 19 21  1  0
 20 19  2  0
M  END
$$$$
