GYG.pdb
     RDKit          3D

 21 21  0  0  1  0  0  0  0  0999 V2000
    6.3354  -14.7402   20.3303 N   0  0  0  0  0  0  0  0  0  0  0  0
    6.3811  -15.5273   21.5391 C   0  0  0  0  0  0  0  0  0  0  0  0
    7.5601  -15.1597   22.3820 C   0  0  0  0  0  0  0  0  0  0  0  0
    8.4290  -14.3440   21.9839 O   0  0  0  0  0  0  0  0  0  0  0  0
    5.4164  -10.6569   27.1540 O   0  0  0  0  0  0  0  0  0  0  0  0
    6.1725  -11.8032   26.8560 C   0  0  0  0  0  0  0  0  0  0  0  0
    5.5928  -12.9198   26.2965 C   0  0  0  0  0  0  0  0  0  0  0  0
    6.3540  -14.0396   26.0100 C   0  0  0  0  0  0  0  0  0  0  0  0
    7.7042  -14.0950   26.2643 C   0  0  0  0  0  0  0  0  0  0  0  0
    8.5166  -15.2669   25.9677 C   0  0  0  0  0  0  0  0  0  0  0  0
    8.8993  -15.3962   24.5117 C   0  0  2  0  0  0  0  0  0  0  0  0
    7.7547  -15.7194   23.6822 N   0  0  0  0  0  0  0  0  0  0  0  0
    9.8635  -16.5255   24.4195 C   0  0  0  0  0  0  0  0  0  0  0  0
    9.7230  -17.5715   25.1338 O   0  0  0  0  0  0  0  0  0  0  0  0
    8.2804  -12.9775   26.8234 C   0  0  0  0  0  0  0  0  0  0  0  0
    7.5243  -11.8383   27.1186 C   0  0  0  0  0  0  0  0  0  0  0  0
   10.9787  -16.5167   23.5518 N   0  0  0  0  0  0  0  0  0  0  0  0
   12.3104  -16.9563   23.9946 C   0  0  0  0  0  0  0  0  0  0  0  0
   13.2802  -16.9224   22.9033 C   0  0  0  0  0  0  0  0  0  0  0  0
   12.9713  -16.4841   21.7710 O   0  0  0  0  0  0  0  0  0  0  0  0
   14.5670  -17.3810   23.1153 O   0  0  0  0  0  0  0  0  0  0  0  0
  1  2  1  0
  3  4  2  0
  3  2  1  0
  6  5  1  0
  6  7  2  0
  8  7  1  0
  9  8  2  0
 10  9  1  0
 11 12  1  0
 11 10  1  1
 12  3  1  0
 13 11  1  0
 14 13  2  0
 15 16  2  0
 15  9  1  0
 16  6  1  0
 17 13  1  0
 18 17  1  0
 19 18  1  0
 19 21  1  0
 20 19  2  0
M  END
$$$$
