GYG.pdb
     RDKit          3D

 21 21  0  0  1  0  0  0  0  0999 V2000
    6.4867  -14.7037   19.9371 N   0  0  0  0  0  0  0  0  0  0  0  0
    6.4177  -15.3793   21.2104 C   0  0  0  0  0  0  0  0  0  0  0  0
    7.6391  -15.1161   22.0316 C   0  0  0  0  0  0  0  0  0  0  0  0
    8.5874  -14.4137   21.6000 O   0  0  0  0  0  0  0  0  0  0  0  0
    5.5216  -10.8748   27.3148 O   0  0  0  0  0  0  0  0  0  0  0  0
    6.2863  -11.9796   26.9033 C   0  0  0  0  0  0  0  0  0  0  0  0
    7.6326  -11.8623   26.6398 C   0  0  0  0  0  0  0  0  0  0  0  0
    8.3693  -12.9620   26.2355 C   0  0  0  0  0  0  0  0  0  0  0  0
    7.8059  -14.2064   26.0785 C   0  0  0  0  0  0  0  0  0  0  0  0
    8.5697  -15.3715   25.6537 C   0  0  0  0  0  0  0  0  0  0  0  0
    8.9336  -15.3658   24.1873 C   0  0  2  0  0  0  0  0  0  0  0  0
    7.7862  -15.6517   23.3481 N   0  0  0  0  0  0  0  0  0  0  0  0
    9.9283  -16.4541   23.9871 C   0  0  0  0  0  0  0  0  0  0  0  0
    9.6006  -17.6784   24.1202 O   0  0  0  0  0  0  0  0  0  0  0  0
    6.4603  -14.3202   26.3426 C   0  0  0  0  0  0  0  0  0  0  0  0
    5.7026  -13.2180   26.7521 C   0  0  0  0  0  0  0  0  0  0  0  0
   11.2769  -16.2106   23.6428 N   0  0  0  0  0  0  0  0  0  0  0  0
   12.1998  -17.3030   23.2994 C   0  0  0  0  0  0  0  0  0  0  0  0
   13.5654  -16.8183   23.1178 C   0  0  0  0  0  0  0  0  0  0  0  0
   13.8362  -15.9371   22.2695 O   0  0  0  0  0  0  0  0  0  0  0  0
   14.5855  -17.3370   23.8933 O   0  0  0  0  0  0  0  0  0  0  0  0
  1  2  1  0
  3  4  2  0
  3  2  1  0
  6  5  1  0
  6  7  2  0
  8  7  1  0
  9  8  2  0
 10  9  1  0
 11 12  1  0
 11 10  1  1
 12  3  1  0
 13 11  1  0
 14 13  2  0
 15 16  2  0
 15  9  1  0
 16  6  1  0
 17 13  1  0
 18 17  1  0
 19 18  1  0
 19 21  1  0
 20 19  2  0
M  END
$$$$
