GYG.pdb
     RDKit          3D

 21 21  0  0  1  0  0  0  0  0999 V2000
    4.8268  -19.2071   20.2901 N   0  0  0  0  0  0  0  0  0  0  0  0
    4.5875  -18.2418   21.3358 C   0  0  0  0  0  0  0  0  0  0  0  0
    5.8552  -17.8797   22.0409 C   0  0  0  0  0  0  0  0  0  0  0  0
    6.9085  -18.5485   21.8927 O   0  0  0  0  0  0  0  0  0  0  0  0
    8.7945  -12.8372   18.3998 O   0  0  0  0  0  0  0  0  0  0  0  0
    8.4216  -13.3312   19.6614 C   0  0  0  0  0  0  0  0  0  0  0  0
    7.0982  -13.4811   20.0108 C   0  0  0  0  0  0  0  0  0  0  0  0
    6.7504  -13.9693   21.2582 C   0  0  0  0  0  0  0  0  0  0  0  0
    7.6906  -14.3237   22.1969 C   0  0  0  0  0  0  0  0  0  0  0  0
    7.3380  -14.8386   23.5129 C   0  0  0  0  0  0  0  0  0  0  0  0
    7.1618  -16.3386   23.5584 C   0  0  2  0  0  0  0  0  0  0  0  0
    5.9291  -16.7542   22.9181 N   0  0  0  0  0  0  0  0  0  0  0  0
    7.0812  -16.7184   24.9947 C   0  0  0  0  0  0  0  0  0  0  0  0
    6.0324  -16.4846   25.6798 O   0  0  0  0  0  0  0  0  0  0  0  0
    9.0121  -14.1727   21.8446 C   0  0  0  0  0  0  0  0  0  0  0  0
    9.3793  -13.6806   20.5877 C   0  0  0  0  0  0  0  0  0  0  0  0
    8.1397  -17.3515   25.6842 N   0  0  0  0  0  0  0  0  0  0  0  0
    7.9924  -17.8211   27.0700 C   0  0  0  0  0  0  0  0  0  0  0  0
    9.2254  -18.4236   27.5693 C   0  0  0  0  0  0  0  0  0  0  0  0
   10.2481  -18.5051   26.8501 O   0  0  0  0  0  0  0  0  0  0  0  0
    9.2738  -18.9163   28.8600 O   0  0  0  0  0  0  0  0  0  0  0  0
  1  2  1  0
  3  4  2  0
  3  2  1  0
  6  5  1  0
  6  7  2  0
  8  7  1  0
  9  8  2  0
 10  9  1  0
 11 12  1  0
 11 10  1  1
 12  3  1  0
 13 11  1  0
 14 13  2  0
 15 16  2  0
 15  9  1  0
 16  6  1  0
 17 13  1  0
 18 17  1  0
 19 18  1  0
 19 21  1  0
 20 19  2  0
M  END
$$$$
