WYY.pdb
     RDKit          3D

 39 42  0  0  1  0  0  0  0  0999 V2000
   25.2564  -19.1192  -19.2921 N   0  0  0  0  0  0  0  0  0  0  0  0
   24.4279  -18.5114  -18.2583 C   0  0  1  0  0  0  0  0  0  0  0  0
   23.1143  -17.9817  -18.8524 C   0  0  0  0  0  0  0  0  0  0  0  0
   23.4657  -16.8686  -19.7438 C   0  0  0  0  0  0  0  0  0  0  0  0
   23.4748  -16.8962  -21.1165 C   0  0  0  0  0  0  0  0  0  0  0  0
   23.8572  -15.6610  -21.5434 N   0  0  0  0  0  0  0  0  0  0  0  0
   24.0896  -14.8556  -20.4863 C   0  0  0  0  0  0  0  0  0  0  0  0
   24.4874  -13.5495  -20.3147 C   0  0  0  0  0  0  0  0  0  0  0  0
   24.6413  -12.9977  -19.0682 C   0  0  0  0  0  0  0  0  0  0  0  0
   24.3974  -13.7508  -17.9444 C   0  0  0  0  0  0  0  0  0  0  0  0
   23.9986  -15.0583  -18.0811 C   0  0  0  0  0  0  0  0  0  0  0  0
   23.8453  -15.6087  -19.3608 C   0  0  0  0  0  0  0  0  0  0  0  0
   24.0893  -19.5371  -17.2709 C   0  0  0  0  0  0  0  0  0  0  0  0
   23.7411  -20.6863  -17.6163 O   0  0  0  0  0  0  0  0  0  0  0  0
   29.7386  -22.0671  -16.8103 O   0  0  0  0  0  0  0  0  0  0  0  0
   28.5834  -21.6908  -16.1253 C   0  0  0  0  0  0  0  0  0  0  0  0
   28.4239  -20.3558  -15.8160 C   0  0  0  0  0  0  0  0  0  0  0  0
   27.2900  -19.9908  -15.1437 C   0  0  0  0  0  0  0  0  0  0  0  0
   26.3059  -20.9086  -14.7664 C   0  0  0  0  0  0  0  0  0  0  0  0
   25.1075  -20.4388  -14.0373 C   0  0  0  0  0  0  0  0  0  0  0  0
   23.9000  -20.2750  -14.9240 C   0  0  2  0  0  0  0  0  0  0  0  0
   24.1506  -19.2360  -15.8698 N   0  0  0  0  0  0  0  0  0  0  0  0
   22.7358  -19.9661  -14.0425 C   0  0  0  0  0  0  0  0  0  0  0  0
   22.6494  -18.9234  -13.3416 O   0  0  0  0  0  0  0  0  0  0  0  0
   26.5147  -22.2234  -15.0988 C   0  0  0  0  0  0  0  0  0  0  0  0
   27.6387  -22.6461  -15.7758 C   0  0  0  0  0  0  0  0  0  0  0  0
   18.3992  -26.0262  -16.1596 O   0  0  0  0  0  0  0  0  0  0  0  0
   18.5903  -24.7689  -15.6249 C   0  0  0  0  0  0  0  0  0  0  0  0
   18.0027  -24.3501  -14.4519 C   0  0  0  0  0  0  0  0  0  0  0  0
   18.2120  -23.0860  -13.9397 C   0  0  0  0  0  0  0  0  0  0  0  0
   19.0213  -22.1904  -14.5870 C   0  0  0  0  0  0  0  0  0  0  0  0
   19.3057  -20.8313  -14.1336 C   0  0  0  0  0  0  0  0  0  0  0  0
   20.4637  -20.6802  -13.2020 C   0  0  2  0  0  0  0  0  0  0  0  0
   21.6766  -20.9085  -14.0030 N   0  0  0  0  0  0  0  0  0  0  0  0
   20.4313  -21.7512  -12.1749 C   0  0  0  0  0  0  0  0  0  0  0  0
   21.1832  -22.7806  -12.2415 O   0  0  0  0  0  0  0  0  0  0  0  0
   19.6126  -22.6241  -15.7759 C   0  0  0  0  0  0  0  0  0  0  0  0
   19.4081  -23.8842  -16.2920 C   0  0  0  0  0  0  0  0  0  0  0  0
   19.5784  -21.7117  -11.0624 O   0  0  0  0  0  0  0  0  0  0  0  0
  2  3  1  0
  2  1  1  6
  4  5  2  0
  4  3  1  0
  6  5  1  0
  7 12  2  0
  7  6  1  0
  8  7  1  0
  9 10  1  0
  9  8  2  0
 10 11  2  0
 11 12  1  0
 12  4  1  0
 13  2  1  0
 14 13  2  0
 16 15  1  0
 17 16  2  0
 18 17  1  0
 19 18  2  0
 19 25  1  0
 20 19  1  0
 21 20  1  1
 21 22  1  0
 22 13  1  0
 23 21  1  0
 23 34  1  0
 24 23  2  0
 25 26  2  0
 26 16  1  0
 28 38  2  0
 28 27  1  0
 29 28  1  0
 30 31  1  0
 30 29  2  0
 31 37  2  0
 32 31  1  0
 33 34  1  0
 33 32  1  6
 35 33  1  0
 36 35  2  0
 37 38  1  0
 39 35  1  0
M  END
$$$$
