WYY.pdb
     RDKit          3D

 39 42  0  0  1  0  0  0  0  0999 V2000
   28.3930  -20.5937   -8.4393 N   0  0  0  0  0  0  0  0  0  0  0  0
   27.0235  -20.8834   -8.8457 C   0  0  1  0  0  0  0  0  0  0  0  0
   26.0190  -20.1832   -7.9184 C   0  0  0  0  0  0  0  0  0  0  0  0
   26.3186  -20.6258   -6.5504 C   0  0  0  0  0  0  0  0  0  0  0  0
   25.5897  -21.5198   -5.8056 C   0  0  0  0  0  0  0  0  0  0  0  0
   26.2131  -21.6464   -4.6017 N   0  0  0  0  0  0  0  0  0  0  0  0
   27.3104  -20.8624   -4.5622 C   0  0  0  0  0  0  0  0  0  0  0  0
   28.2914  -20.5910   -3.6361 C   0  0  0  0  0  0  0  0  0  0  0  0
   29.3128  -19.7140   -3.8998 C   0  0  0  0  0  0  0  0  0  0  0  0
   29.3792  -19.0764   -5.1157 C   0  0  0  0  0  0  0  0  0  0  0  0
   28.4153  -19.3253   -6.0624 C   0  0  0  0  0  0  0  0  0  0  0  0
   27.3778  -20.2239   -5.7792 C   0  0  0  0  0  0  0  0  0  0  0  0
   26.8197  -20.3629  -10.1982 C   0  0  0  0  0  0  0  0  0  0  0  0
   26.8716  -19.1385  -10.4414 O   0  0  0  0  0  0  0  0  0  0  0  0
   27.3555  -18.7707  -18.5897 O   0  0  0  0  0  0  0  0  0  0  0  0
   27.3962  -19.3545  -17.3237 C   0  0  0  0  0  0  0  0  0  0  0  0
   27.9544  -18.6239  -16.2951 C   0  0  0  0  0  0  0  0  0  0  0  0
   27.9931  -19.2001  -15.0551 C   0  0  0  0  0  0  0  0  0  0  0  0
   27.4952  -20.4809  -14.8003 C   0  0  0  0  0  0  0  0  0  0  0  0
   27.5757  -21.0390  -13.4328 C   0  0  0  0  0  0  0  0  0  0  0  0
   26.3615  -20.7323  -12.5944 C   0  0  2  0  0  0  0  0  0  0  0  0
   26.5516  -21.2623  -11.2830 N   0  0  0  0  0  0  0  0  0  0  0  0
   25.1802  -21.3343  -13.2800 C   0  0  0  0  0  0  0  0  0  0  0  0
   24.8536  -22.5457  -13.1712 O   0  0  0  0  0  0  0  0  0  0  0  0
   26.9508  -21.1636  -15.8587 C   0  0  0  0  0  0  0  0  0  0  0  0
   26.8859  -20.6308  -17.1285 C   0  0  0  0  0  0  0  0  0  0  0  0
   16.6655  -21.6722  -13.6613 O   0  0  0  0  0  0  0  0  0  0  0  0
   17.9990  -21.3269  -13.5833 C   0  0  0  0  0  0  0  0  0  0  0  0
   18.4855  -20.1004  -13.9776 C   0  0  0  0  0  0  0  0  0  0  0  0
   19.8251  -19.7818  -13.8881 C   0  0  0  0  0  0  0  0  0  0  0  0
   20.7311  -20.6846  -13.3981 C   0  0  0  0  0  0  0  0  0  0  0  0
   22.1666  -20.4498  -13.2648 C   0  0  0  0  0  0  0  0  0  0  0  0
   23.0027  -20.8129  -14.4484 C   0  0  2  0  0  0  0  0  0  0  0  0
   24.3923  -20.4823  -14.0953 N   0  0  0  0  0  0  0  0  0  0  0  0
   22.6471  -19.9517  -15.6038 C   0  0  0  0  0  0  0  0  0  0  0  0
   21.9186  -20.3695  -16.5651 O   0  0  0  0  0  0  0  0  0  0  0  0
   20.2284  -21.9259  -13.0009 C   0  0  0  0  0  0  0  0  0  0  0  0
   18.8928  -22.2497  -13.0874 C   0  0  0  0  0  0  0  0  0  0  0  0
   23.0817  -18.6237  -15.7239 O   0  0  0  0  0  0  0  0  0  0  0  0
  2  3  1  0
  2  1  1  1
  4  5  2  0
  4  3  1  0
  6  5  1  0
  7 12  2  0
  7  6  1  0
  8  7  1  0
  9 10  1  0
  9  8  2  0
 10 11  2  0
 11 12  1  0
 12  4  1  0
 13  2  1  0
 14 13  2  0
 16 15  1  0
 17 16  2  0
 18 17  1  0
 19 18  2  0
 19 25  1  0
 20 19  1  0
 21 20  1  6
 21 22  1  0
 22 13  1  0
 23 21  1  0
 23 34  1  0
 24 23  2  0
 25 26  2  0
 26 16  1  0
 28 38  2  0
 28 27  1  0
 29 28  1  0
 30 31  1  0
 30 29  2  0
 31 37  2  0
 32 31  1  0
 33 34  1  0
 33 32  1  1
 35 33  1  0
 36 35  2  0
 37 38  1  0
 39 35  1  0
M  END
$$$$
