WYY.pdb
     RDKit          3D

 39 42  0  0  1  0  0  0  0  0999 V2000
   24.4087  -20.2180   -8.8960 N   0  0  0  0  0  0  0  0  0  0  0  0
   25.7958  -20.1018   -9.3284 C   0  0  1  0  0  0  0  0  0  0  0  0
   26.6460  -21.2421   -8.7487 C   0  0  0  0  0  0  0  0  0  0  0  0
   26.7295  -21.0197   -7.2994 C   0  0  0  0  0  0  0  0  0  0  0  0
   25.8026  -21.4033   -6.3619 C   0  0  0  0  0  0  0  0  0  0  0  0
   26.2680  -21.0044   -5.1460 N   0  0  0  0  0  0  0  0  0  0  0  0
   27.4570  -20.3822   -5.2852 C   0  0  0  0  0  0  0  0  0  0  0  0
   28.3619  -19.7902   -4.4341 C   0  0  0  0  0  0  0  0  0  0  0  0
   29.5223  -19.2210   -4.8938 C   0  0  0  0  0  0  0  0  0  0  0  0
   29.8110  -19.2299   -6.2377 C   0  0  0  0  0  0  0  0  0  0  0  0
   28.9284  -19.8131   -7.1142 C   0  0  0  0  0  0  0  0  0  0  0  0
   27.7469  -20.3909   -6.6303 C   0  0  0  0  0  0  0  0  0  0  0  0
   25.8388  -20.2106  -10.7872 C   0  0  0  0  0  0  0  0  0  0  0  0
   24.8679  -20.6523  -11.4380 O   0  0  0  0  0  0  0  0  0  0  0  0
   28.2954  -17.9190  -18.9201 O   0  0  0  0  0  0  0  0  0  0  0  0
   28.2316  -18.0961  -17.5381 C   0  0  0  0  0  0  0  0  0  0  0  0
   28.9078  -19.1686  -16.9942 C   0  0  0  0  0  0  0  0  0  0  0  0
   28.8423  -19.3392  -15.6386 C   0  0  0  0  0  0  0  0  0  0  0  0
   28.1260  -18.4791  -14.8017 C   0  0  0  0  0  0  0  0  0  0  0  0
   28.0985  -18.7306  -13.3442 C   0  0  0  0  0  0  0  0  0  0  0  0
   26.9213  -19.5645  -12.9082 C   0  0  2  0  0  0  0  0  0  0  0  0
   27.0135  -19.8078  -11.5050 N   0  0  0  0  0  0  0  0  0  0  0  0
   26.9489  -20.8280  -13.7025 C   0  0  0  0  0  0  0  0  0  0  0  0
   27.7380  -21.7812  -13.4688 O   0  0  0  0  0  0  0  0  0  0  0  0
   27.4719  -17.4287  -15.3946 C   0  0  0  0  0  0  0  0  0  0  0  0
   27.5046  -17.2096  -16.7553 C   0  0  0  0  0  0  0  0  0  0  0  0
   21.9759  -27.6325  -14.8702 O   0  0  0  0  0  0  0  0  0  0  0  0
   22.5992  -26.4194  -14.6624 C   0  0  0  0  0  0  0  0  0  0  0  0
   21.9261  -25.2181  -14.6444 C   0  0  0  0  0  0  0  0  0  0  0  0
   22.5754  -24.0190  -14.4338 C   0  0  0  0  0  0  0  0  0  0  0  0
   23.9296  -23.9788  -14.2327 C   0  0  0  0  0  0  0  0  0  0  0  0
   24.7119  -22.7664  -14.0048 C   0  0  0  0  0  0  0  0  0  0  0  0
   25.4720  -22.2463  -15.1810 C   0  0  2  0  0  0  0  0  0  0  0  0
   26.0297  -20.9463  -14.7761 N   0  0  0  0  0  0  0  0  0  0  0  0
   24.5420  -21.9722  -16.3049 C   0  0  0  0  0  0  0  0  0  0  0  0
   24.3322  -22.8193  -17.2364 O   0  0  0  0  0  0  0  0  0  0  0  0
   24.6038  -25.2021  -14.2529 C   0  0  0  0  0  0  0  0  0  0  0  0
   23.9615  -26.4020  -14.4622 C   0  0  0  0  0  0  0  0  0  0  0  0
   23.8292  -20.7705  -16.4254 O   0  0  0  0  0  0  0  0  0  0  0  0
  2  3  1  0
  2  1  1  1
  4  5  2  0
  4  3  1  0
  6  5  1  0
  7 12  2  0
  7  6  1  0
  8  7  1  0
  9 10  1  0
  9  8  2  0
 10 11  2  0
 11 12  1  0
 12  4  1  0
 13  2  1  0
 14 13  2  0
 16 15  1  0
 17 16  2  0
 18 17  1  0
 19 18  2  0
 19 25  1  0
 20 19  1  0
 21 20  1  6
 21 22  1  0
 22 13  1  0
 23 21  1  0
 23 34  1  0
 24 23  2  0
 25 26  2  0
 26 16  1  0
 28 38  2  0
 28 27  1  0
 29 28  1  0
 30 31  1  0
 30 29  2  0
 31 37  2  0
 32 31  1  0
 33 34  1  0
 33 32  1  1
 35 33  1  0
 36 35  2  0
 37 38  1  0
 39 35  1  0
M  END
$$$$
