WYY.pdb
     RDKit          3D

 39 42  0  0  1  0  0  0  0  0999 V2000
   26.8047  -22.0725  -13.5994 N   0  0  0  0  0  0  0  0  0  0  0  0
   26.0786  -21.5855  -12.4331 C   0  0  1  0  0  0  0  0  0  0  0  0
   26.6355  -20.2312  -11.9693 C   0  0  0  0  0  0  0  0  0  0  0  0
   27.7554  -20.5166  -11.0630 C   0  0  0  0  0  0  0  0  0  0  0  0
   29.0789  -20.6236  -11.4122 C   0  0  0  0  0  0  0  0  0  0  0  0
   29.7769  -20.8940  -10.2748 N   0  0  0  0  0  0  0  0  0  0  0  0
   28.9383  -20.9612   -9.2202 C   0  0  0  0  0  0  0  0  0  0  0  0
   29.0727  -21.1976   -7.8712 C   0  0  0  0  0  0  0  0  0  0  0  0
   27.9921  -21.2023   -7.0261 C   0  0  0  0  0  0  0  0  0  0  0  0
   26.7300  -20.9671   -7.5172 C   0  0  0  0  0  0  0  0  0  0  0  0
   26.5614  -20.7276   -8.8594 C   0  0  0  0  0  0  0  0  0  0  0  0
   27.6745  -20.7256   -9.7109 C   0  0  0  0  0  0  0  0  0  0  0  0
   24.6777  -21.3872  -12.8069 C   0  0  0  0  0  0  0  0  0  0  0  0
   24.3381  -21.2081  -13.9959 O   0  0  0  0  0  0  0  0  0  0  0  0
   15.8990  -21.9778  -12.1732 O   0  0  0  0  0  0  0  0  0  0  0  0
   17.2678  -21.9022  -11.9168 C   0  0  0  0  0  0  0  0  0  0  0  0
   17.7158  -22.3199  -10.6806 C   0  0  0  0  0  0  0  0  0  0  0  0
   19.0588  -22.2437  -10.4328 C   0  0  0  0  0  0  0  0  0  0  0  0
   19.9755  -21.7651  -11.3730 C   0  0  0  0  0  0  0  0  0  0  0  0
   21.4135  -21.7089  -11.0306 C   0  0  0  0  0  0  0  0  0  0  0  0
   22.2871  -21.3298  -12.1986 C   0  0  2  0  0  0  0  0  0  0  0  0
   23.6559  -21.3936  -11.8001 N   0  0  0  0  0  0  0  0  0  0  0  0
   21.8886  -19.9572  -12.6290 C   0  0  0  0  0  0  0  0  0  0  0  0
   21.8603  -18.9646  -11.8546 O   0  0  0  0  0  0  0  0  0  0  0  0
   19.4765  -21.3627  -12.5862 C   0  0  0  0  0  0  0  0  0  0  0  0
   18.1328  -21.4182  -12.8890 C   0  0  0  0  0  0  0  0  0  0  0  0
   21.9009  -21.7469  -20.0100 O   0  0  0  0  0  0  0  0  0  0  0  0
   22.0048  -20.9026  -18.9238 C   0  0  0  0  0  0  0  0  0  0  0  0
   22.9709  -21.0385  -17.9518 C   0  0  0  0  0  0  0  0  0  0  0  0
   23.0515  -20.1788  -16.8756 C   0  0  0  0  0  0  0  0  0  0  0  0
   22.1629  -19.1463  -16.7325 C   0  0  0  0  0  0  0  0  0  0  0  0
   22.1585  -18.1848  -15.6329 C   0  0  0  0  0  0  0  0  0  0  0  0
   21.1851  -18.4530  -14.5319 C   0  0  2  0  0  0  0  0  0  0  0  0
   21.5244  -19.7773  -13.9879 N   0  0  0  0  0  0  0  0  0  0  0  0
   19.8123  -18.5658  -15.0851 C   0  0  0  0  0  0  0  0  0  0  0  0
   19.1541  -17.5478  -15.4848 O   0  0  0  0  0  0  0  0  0  0  0  0
   21.1866  -19.0167  -17.7231 C   0  0  0  0  0  0  0  0  0  0  0  0
   21.1010  -19.8711  -18.7996 C   0  0  0  0  0  0  0  0  0  0  0  0
   19.1414  -19.7910  -15.2092 O   0  0  0  0  0  0  0  0  0  0  0  0
  2  3  1  0
  2  1  1  6
  4  5  2  0
  4  3  1  0
  6  5  1  0
  7 12  2  0
  7  6  1  0
  8  7  1  0
  9 10  1  0
  9  8  2  0
 10 11  2  0
 11 12  1  0
 12  4  1  0
 13  2  1  0
 14 13  2  0
 16 15  1  0
 17 16  2  0
 18 17  1  0
 19 18  2  0
 19 25  1  0
 20 19  1  0
 21 20  1  1
 21 22  1  0
 22 13  1  0
 23 21  1  0
 23 34  1  0
 24 23  2  0
 25 26  2  0
 26 16  1  0
 28 38  2  0
 28 27  1  0
 29 28  1  0
 30 31  1  0
 30 29  2  0
 31 37  2  0
 32 31  1  0
 33 34  1  0
 33 32  1  6
 35 33  1  0
 36 35  2  0
 37 38  1  0
 39 35  1  0
M  END
$$$$
