WYY.pdb
     RDKit          3D

 39 42  0  0  1  0  0  0  0  0999 V2000
   31.5113  -29.2050  -19.1147 N   0  0  0  0  0  0  0  0  0  0  0  0
   32.6867  -30.0376  -18.8910 C   0  0  1  0  0  0  0  0  0  0  0  0
   33.8676  -29.1922  -18.3909 C   0  0  0  0  0  0  0  0  0  0  0  0
   34.3585  -28.4203  -19.5398 C   0  0  0  0  0  0  0  0  0  0  0  0
   34.0125  -27.1314  -19.8627 C   0  0  0  0  0  0  0  0  0  0  0  0
   34.6919  -26.8019  -20.9958 N   0  0  0  0  0  0  0  0  0  0  0  0
   35.4545  -27.8395  -21.3984 C   0  0  0  0  0  0  0  0  0  0  0  0
   36.3213  -28.0759  -22.4407 C   0  0  0  0  0  0  0  0  0  0  0  0
   36.9680  -29.2769  -22.5860 C   0  0  0  0  0  0  0  0  0  0  0  0
   36.7602  -30.2876  -21.6778 C   0  0  0  0  0  0  0  0  0  0  0  0
   35.9009  -30.0839  -20.6255 C   0  0  0  0  0  0  0  0  0  0  0  0
   35.2474  -28.8517  -20.4895 C   0  0  0  0  0  0  0  0  0  0  0  0
   32.3702  -31.0197  -17.8533 C   0  0  0  0  0  0  0  0  0  0  0  0
   31.4212  -30.8477  -17.0590 O   0  0  0  0  0  0  0  0  0  0  0  0
   27.0343  -30.4083  -16.3868 O   0  0  0  0  0  0  0  0  0  0  0  0
   28.1186  -31.2455  -16.6488 C   0  0  0  0  0  0  0  0  0  0  0  0
   28.6702  -31.9358  -15.5893 C   0  0  0  0  0  0  0  0  0  0  0  0
   29.7338  -32.7554  -15.8502 C   0  0  0  0  0  0  0  0  0  0  0  0
   30.2706  -32.9135  -17.1309 C   0  0  0  0  0  0  0  0  0  0  0  0
   31.4251  -33.8157  -17.3345 C   0  0  0  0  0  0  0  0  0  0  0  0
   32.7243  -33.2388  -16.8343 C   0  0  2  0  0  0  0  0  0  0  0  0
   33.1562  -32.2130  -17.7275 N   0  0  0  0  0  0  0  0  0  0  0  0
   33.7067  -34.3590  -16.7449 C   0  0  0  0  0  0  0  0  0  0  0  0
   33.5656  -35.3508  -15.9818 O   0  0  0  0  0  0  0  0  0  0  0  0
   29.6841  -32.2038  -18.1482 C   0  0  0  0  0  0  0  0  0  0  0  0
   28.6104  -31.3642  -17.9417 C   0  0  0  0  0  0  0  0  0  0  0  0
   32.5425  -40.8340  -17.6488 O   0  0  0  0  0  0  0  0  0  0  0  0
   33.2465  -39.6871  -17.9530 C   0  0  0  0  0  0  0  0  0  0  0  0
   32.7704  -38.7116  -18.8005 C   0  0  0  0  0  0  0  0  0  0  0  0
   33.4965  -37.5737  -19.0870 C   0  0  0  0  0  0  0  0  0  0  0  0
   34.7322  -37.3702  -18.5325 C   0  0  0  0  0  0  0  0  0  0  0  0
   35.5815  -36.2061  -18.7715 C   0  0  0  0  0  0  0  0  0  0  0  0
   35.8732  -35.3523  -17.5809 C   0  0  2  0  0  0  0  0  0  0  0  0
   34.8572  -34.2880  -17.5713 N   0  0  0  0  0  0  0  0  0  0  0  0
   37.1851  -34.6786  -17.7491 C   0  0  0  0  0  0  0  0  0  0  0  0
   37.2930  -33.4091  -17.8260 O   0  0  0  0  0  0  0  0  0  0  0  0
   35.2068  -38.3651  -17.6744 C   0  0  0  0  0  0  0  0  0  0  0  0
   34.4870  -39.5026  -17.3844 C   0  0  0  0  0  0  0  0  0  0  0  0
   38.3951  -35.3823  -17.8350 O   0  0  0  0  0  0  0  0  0  0  0  0
  2  3  1  0
  2  1  1  1
  4  5  2  0
  4  3  1  0
  6  5  1  0
  7 12  2  0
  7  6  1  0
  8  7  1  0
  9 10  1  0
  9  8  2  0
 10 11  2  0
 11 12  1  0
 12  4  1  0
 13  2  1  0
 14 13  2  0
 16 15  1  0
 17 16  2  0
 18 17  1  0
 19 18  2  0
 19 25  1  0
 20 19  1  0
 21 20  1  6
 21 22  1  0
 22 13  1  0
 23 21  1  0
 23 34  1  0
 24 23  2  0
 25 26  2  0
 26 16  1  0
 28 38  2  0
 28 27  1  0
 29 28  1  0
 30 31  1  0
 30 29  2  0
 31 37  2  0
 32 31  1  0
 33 34  1  0
 33 32  1  6
 35 33  1  0
 36 35  2  0
 37 38  1  0
 39 35  1  0
M  END
$$$$
