WYY.pdb
     RDKit          3D

 39 42  0  0  1  0  0  0  0  0999 V2000
   28.5509  -21.4333  -13.8282 N   0  0  0  0  0  0  0  0  0  0  0  0
   27.3479  -21.0673  -13.0909 C   0  0  1  0  0  0  0  0  0  0  0  0
   27.5738  -19.7822  -12.2804 C   0  0  0  0  0  0  0  0  0  0  0  0
   28.4484  -20.1345  -11.1543 C   0  0  0  0  0  0  0  0  0  0  0  0
   29.8160  -20.2502  -11.1904 C   0  0  0  0  0  0  0  0  0  0  0  0
   30.2265  -20.5906   -9.9375 N   0  0  0  0  0  0  0  0  0  0  0  0
   29.1639  -20.6935   -9.1127 C   0  0  0  0  0  0  0  0  0  0  0  0
   28.9772  -20.9992   -7.7840 C   0  0  0  0  0  0  0  0  0  0  0  0
   27.7289  -21.0245   -7.2157 C   0  0  0  0  0  0  0  0  0  0  0  0
   26.6185  -20.7401   -7.9745 C   0  0  0  0  0  0  0  0  0  0  0  0
   26.7705  -20.4309   -9.3044 C   0  0  0  0  0  0  0  0  0  0  0  0
   28.0518  -20.4087   -9.8714 C   0  0  0  0  0  0  0  0  0  0  0  0
   26.2752  -20.8060  -14.0514 C   0  0  0  0  0  0  0  0  0  0  0  0
   26.3976  -19.9453  -14.9489 O   0  0  0  0  0  0  0  0  0  0  0  0
   27.4853  -23.2123  -19.9464 O   0  0  0  0  0  0  0  0  0  0  0  0
   26.5868  -23.0599  -18.8907 C   0  0  0  0  0  0  0  0  0  0  0  0
   25.3942  -22.4157  -19.1476 C   0  0  0  0  0  0  0  0  0  0  0  0
   24.5158  -22.2677  -18.1095 C   0  0  0  0  0  0  0  0  0  0  0  0
   24.7817  -22.7386  -16.8208 C   0  0  0  0  0  0  0  0  0  0  0  0
   23.7836  -22.5378  -15.7476 C   0  0  0  0  0  0  0  0  0  0  0  0
   24.0244  -21.2885  -14.9397 C   0  0  2  0  0  0  0  0  0  0  0  0
   25.0468  -21.5429  -13.9771 N   0  0  0  0  0  0  0  0  0  0  0  0
   22.7292  -20.9121  -14.3004 C   0  0  0  0  0  0  0  0  0  0  0  0
   22.2446  -21.5091  -13.3031 O   0  0  0  0  0  0  0  0  0  0  0  0
   25.9823  -23.3718  -16.6203 C   0  0  0  0  0  0  0  0  0  0  0  0
   26.9037  -23.5483  -17.6304 C   0  0  0  0  0  0  0  0  0  0  0  0
   15.6772  -15.4669  -13.3657 O   0  0  0  0  0  0  0  0  0  0  0  0
   16.7955  -16.1436  -13.8071 C   0  0  0  0  0  0  0  0  0  0  0  0
   16.7408  -17.1901  -14.7007 C   0  0  0  0  0  0  0  0  0  0  0  0
   17.8762  -17.8491  -15.1255 C   0  0  0  0  0  0  0  0  0  0  0  0
   19.1142  -17.4825  -14.6684 C   0  0  0  0  0  0  0  0  0  0  0  0
   20.3745  -18.1142  -15.0509 C   0  0  0  0  0  0  0  0  0  0  0  0
   20.7763  -19.3113  -14.2527 C   0  0  2  0  0  0  0  0  0  0  0  0
   22.0170  -19.8200  -14.8584 N   0  0  0  0  0  0  0  0  0  0  0  0
   19.7636  -20.3857  -14.4053 C   0  0  0  0  0  0  0  0  0  0  0  0
   19.6951  -21.1122  -15.4525 O   0  0  0  0  0  0  0  0  0  0  0  0
   19.1597  -16.4204  -13.7624 C   0  0  0  0  0  0  0  0  0  0  0  0
   18.0304  -15.7585  -13.3349 C   0  0  0  0  0  0  0  0  0  0  0  0
   18.8137  -20.6806  -13.4166 O   0  0  0  0  0  0  0  0  0  0  0  0
  2  3  1  0
  2  1  1  6
  4  5  2  0
  4  3  1  0
  6  5  1  0
  7 12  2  0
  7  6  1  0
  8  7  1  0
  9 10  1  0
  9  8  2  0
 10 11  2  0
 11 12  1  0
 12  4  1  0
 13  2  1  0
 14 13  2  0
 16 15  1  0
 17 16  2  0
 18 17  1  0
 19 18  2  0
 19 25  1  0
 20 19  1  0
 21 20  1  1
 21 22  1  0
 22 13  1  0
 23 21  1  0
 23 34  1  0
 24 23  2  0
 25 26  2  0
 26 16  1  0
 28 38  2  0
 28 27  1  0
 29 28  1  0
 30 31  1  0
 30 29  2  0
 31 37  2  0
 32 31  1  0
 33 34  1  0
 33 32  1  6
 35 33  1  0
 36 35  2  0
 37 38  1  0
 39 35  1  0
M  END
$$$$
