WYY.pdb
     RDKit          3D

 39 42  0  0  1  0  0  0  0  0999 V2000
   26.1276   -9.8972  -19.0928 N   0  0  0  0  0  0  0  0  0  0  0  0
   25.8312   -8.5135  -19.4424 C   0  0  1  0  0  0  0  0  0  0  0  0
   24.8538   -8.4464  -20.6254 C   0  0  0  0  0  0  0  0  0  0  0  0
   25.6207   -8.7767  -21.8336 C   0  0  0  0  0  0  0  0  0  0  0  0
   25.9419  -10.0365  -22.2752 C   0  0  0  0  0  0  0  0  0  0  0  0
   26.6555   -9.8921  -23.4259 N   0  0  0  0  0  0  0  0  0  0  0  0
   26.7952   -8.5839  -23.7246 C   0  0  0  0  0  0  0  0  0  0  0  0
   27.3991   -7.8646  -24.7304 C   0  0  0  0  0  0  0  0  0  0  0  0
   27.3688   -6.4934  -24.7581 C   0  0  0  0  0  0  0  0  0  0  0  0
   26.7234   -5.7965  -23.7645 C   0  0  0  0  0  0  0  0  0  0  0  0
   26.1102   -6.4846  -22.7458 C   0  0  0  0  0  0  0  0  0  0  0  0
   26.1491   -7.8854  -22.7306 C   0  0  0  0  0  0  0  0  0  0  0  0
   25.1879   -7.8717  -18.2953 C   0  0  0  0  0  0  0  0  0  0  0  0
   24.4821   -8.5213  -17.4946 O   0  0  0  0  0  0  0  0  0  0  0  0
   28.3877   -1.3603  -19.5978 O   0  0  0  0  0  0  0  0  0  0  0  0
   27.7246   -2.2688  -18.7730 C   0  0  0  0  0  0  0  0  0  0  0  0
   26.5669   -1.8484  -18.1513 C   0  0  0  0  0  0  0  0  0  0  0  0
   25.9199   -2.7420  -17.3427 C   0  0  0  0  0  0  0  0  0  0  0  0
   26.3842   -4.0428  -17.1292 C   0  0  0  0  0  0  0  0  0  0  0  0
   25.6315   -4.9516  -16.2371 C   0  0  0  0  0  0  0  0  0  0  0  0
   24.6743   -5.8504  -16.9767 C   0  0  2  0  0  0  0  0  0  0  0  0
   25.3576   -6.4656  -18.0682 N   0  0  0  0  0  0  0  0  0  0  0  0
   23.5292   -5.0077  -17.4313 C   0  0  0  0  0  0  0  0  0  0  0  0
   23.3643   -4.6408  -18.6246 O   0  0  0  0  0  0  0  0  0  0  0  0
   27.5400   -4.4090  -17.7717 C   0  0  0  0  0  0  0  0  0  0  0  0
   28.2320   -3.5491  -18.5976 C   0  0  0  0  0  0  0  0  0  0  0  0
   15.5181   -2.3076  -18.8557 O   0  0  0  0  0  0  0  0  0  0  0  0
   16.7034   -2.9207  -18.5057 C   0  0  0  0  0  0  0  0  0  0  0  0
   16.7735   -3.9906  -17.6415 C   0  0  0  0  0  0  0  0  0  0  0  0
   17.9737   -4.5849  -17.3091 C   0  0  0  0  0  0  0  0  0  0  0  0
   19.1536   -4.1269  -17.8326 C   0  0  0  0  0  0  0  0  0  0  0  0
   20.4742   -4.6805  -17.5445 C   0  0  0  0  0  0  0  0  0  0  0  0
   21.4106   -3.7873  -16.7982 C   0  0  2  0  0  0  0  0  0  0  0  0
   22.5834   -4.6063  -16.4536 N   0  0  0  0  0  0  0  0  0  0  0  0
   20.7973   -3.3707  -15.5124 C   0  0  0  0  0  0  0  0  0  0  0  0
   20.9640   -4.0318  -14.4333 O   0  0  0  0  0  0  0  0  0  0  0  0
   19.0725   -3.0413  -18.7079 C   0  0  0  0  0  0  0  0  0  0  0  0
   17.8781   -2.4442  -19.0438 C   0  0  0  0  0  0  0  0  0  0  0  0
   19.9951   -2.2271  -15.3884 O   0  0  0  0  0  0  0  0  0  0  0  0
  2  3  1  0
  2  1  1  1
  4  5  2  0
  4  3  1  0
  6  5  1  0
  7 12  2  0
  7  6  1  0
  8  7  1  0
  9 10  1  0
  9  8  2  0
 10 11  2  0
 11 12  1  0
 12  4  1  0
 13  2  1  0
 14 13  2  0
 16 15  1  0
 17 16  2  0
 18 17  1  0
 19 18  2  0
 19 25  1  0
 20 19  1  0
 21 20  1  6
 21 22  1  0
 22 13  1  0
 23 21  1  0
 23 34  1  0
 24 23  2  0
 25 26  2  0
 26 16  1  0
 28 38  2  0
 28 27  1  0
 29 28  1  0
 30 31  1  0
 30 29  2  0
 31 37  2  0
 32 31  1  0
 33 34  1  0
 33 32  1  6
 35 33  1  0
 36 35  2  0
 37 38  1  0
 39 35  1  0
M  END
$$$$
