WYY.pdb
     RDKit          3D

 39 42  0  0  1  0  0  0  0  0999 V2000
   28.0150  -21.1623  -16.7953 N   0  0  0  0  0  0  0  0  0  0  0  0
   27.3947  -20.3426  -15.7619 C   0  0  1  0  0  0  0  0  0  0  0  0
   26.3047  -19.4412  -16.3609 C   0  0  0  0  0  0  0  0  0  0  0  0
   26.9888  -18.3127  -17.0054 C   0  0  0  0  0  0  0  0  0  0  0  0
   27.3963  -18.2478  -18.3150 C   0  0  0  0  0  0  0  0  0  0  0  0
   27.9840  -17.0329  -18.4960 N   0  0  0  0  0  0  0  0  0  0  0  0
   27.9610  -16.3297  -17.3449 C   0  0  0  0  0  0  0  0  0  0  0  0
   28.3942  -15.0867  -16.9438 C   0  0  0  0  0  0  0  0  0  0  0  0
   28.2208  -14.6398  -15.6584 C   0  0  0  0  0  0  0  0  0  0  0  0
   27.6000  -15.4381  -14.7274 C   0  0  0  0  0  0  0  0  0  0  0  0
   27.1555  -16.6847  -15.0956 C   0  0  0  0  0  0  0  0  0  0  0  0
   27.3393  -17.1280  -16.4123 C   0  0  0  0  0  0  0  0  0  0  0  0
   26.7557  -21.2277  -14.7874 C   0  0  0  0  0  0  0  0  0  0  0  0
   26.0767  -22.2131  -15.1469 O   0  0  0  0  0  0  0  0  0  0  0  0
   25.4856  -19.0568   -6.6504 O   0  0  0  0  0  0  0  0  0  0  0  0
   25.8058  -19.7972   -7.7882 C   0  0  0  0  0  0  0  0  0  0  0  0
   27.1393  -19.9301   -8.1161 C   0  0  0  0  0  0  0  0  0  0  0  0
   27.4493  -20.6564   -9.2330 C   0  0  0  0  0  0  0  0  0  0  0  0
   26.4778  -21.2571  -10.0383 C   0  0  0  0  0  0  0  0  0  0  0  0
   26.8901  -22.0247  -11.2337 C   0  0  0  0  0  0  0  0  0  0  0  0
   26.0799  -21.6930  -12.4604 C   0  0  2  0  0  0  0  0  0  0  0  0
   26.8986  -20.9749  -13.3827 N   0  0  0  0  0  0  0  0  0  0  0  0
   24.8993  -20.8955  -12.0151 C   0  0  0  0  0  0  0  0  0  0  0  0
   24.9833  -19.7338  -11.5364 O   0  0  0  0  0  0  0  0  0  0  0  0
   25.1671  -21.0936   -9.6666 C   0  0  0  0  0  0  0  0  0  0  0  0
   24.7986  -20.3723   -8.5511 C   0  0  0  0  0  0  0  0  0  0  0  0
   17.1013  -17.7277  -14.3213 O   0  0  0  0  0  0  0  0  0  0  0  0
   18.3322  -18.3096  -14.0984 C   0  0  0  0  0  0  0  0  0  0  0  0
   19.4148  -17.6190  -13.6008 C   0  0  0  0  0  0  0  0  0  0  0  0
   20.6349  -18.2269  -13.3873 C   0  0  0  0  0  0  0  0  0  0  0  0
   20.8165  -19.5556  -13.6660 C   0  0  0  0  0  0  0  0  0  0  0  0
   22.0640  -20.2925  -13.4802 C   0  0  0  0  0  0  0  0  0  0  0  0
   22.3821  -20.6995  -12.0784 C   0  0  2  0  0  0  0  0  0  0  0  0
   23.6195  -21.4929  -12.1446 N   0  0  0  0  0  0  0  0  0  0  0  0
   21.3280  -21.6083  -11.5627 C   0  0  0  0  0  0  0  0  0  0  0  0
   21.3185  -22.8574  -11.8251 O   0  0  0  0  0  0  0  0  0  0  0  0
   19.7130  -20.2477  -14.1704 C   0  0  0  0  0  0  0  0  0  0  0  0
   18.4929  -19.6469  -14.3854 C   0  0  0  0  0  0  0  0  0  0  0  0
   20.2717  -21.1650  -10.7537 O   0  0  0  0  0  0  0  0  0  0  0  0
  2  3  1  0
  2  1  1  6
  4  5  2  0
  4  3  1  0
  6  5  1  0
  7 12  2  0
  7  6  1  0
  8  7  1  0
  9 10  1  0
  9  8  2  0
 10 11  2  0
 11 12  1  0
 12  4  1  0
 13  2  1  0
 14 13  2  0
 16 15  1  0
 17 16  2  0
 18 17  1  0
 19 18  2  0
 19 25  1  0
 20 19  1  0
 21 20  1  1
 21 22  1  0
 22 13  1  0
 23 21  1  0
 23 34  1  0
 24 23  2  0
 25 26  2  0
 26 16  1  0
 28 38  2  0
 28 27  1  0
 29 28  1  0
 30 31  1  0
 30 29  2  0
 31 37  2  0
 32 31  1  0
 33 34  1  0
 33 32  1  6
 35 33  1  0
 36 35  2  0
 37 38  1  0
 39 35  1  0
M  END
$$$$
