WYY.pdb
     RDKit          3D

 39 42  0  0  1  0  0  0  0  0999 V2000
   26.8393  -20.8443  -14.9260 N   0  0  0  0  0  0  0  0  0  0  0  0
   26.0395  -20.8453  -13.7073 C   0  0  1  0  0  0  0  0  0  0  0  0
   26.5442  -19.7806  -12.7220 C   0  0  0  0  0  0  0  0  0  0  0  0
   27.7699  -20.3102  -12.1102 C   0  0  0  0  0  0  0  0  0  0  0  0
   28.9768  -20.4995  -12.7369 C   0  0  0  0  0  0  0  0  0  0  0  0
   29.8382  -21.0052  -11.8116 N   0  0  0  0  0  0  0  0  0  0  0  0
   29.2153  -21.1413  -10.6227 C   0  0  0  0  0  0  0  0  0  0  0  0
   29.5734  -21.5870   -9.3710 C   0  0  0  0  0  0  0  0  0  0  0  0
   28.6831  -21.6058   -8.3274 C   0  0  0  0  0  0  0  0  0  0  0  0
   27.3920  -21.1724   -8.5130 C   0  0  0  0  0  0  0  0  0  0  0  0
   27.0024  -20.7210   -9.7506 C   0  0  0  0  0  0  0  0  0  0  0  0
   27.9226  -20.7073  -10.8074 C   0  0  0  0  0  0  0  0  0  0  0  0
   24.6586  -20.5104  -14.0572 C   0  0  0  0  0  0  0  0  0  0  0  0
   24.3537  -19.3862  -14.5094 O   0  0  0  0  0  0  0  0  0  0  0  0
   24.3508  -18.2226  -19.4383 O   0  0  0  0  0  0  0  0  0  0  0  0
   23.7228  -19.0062  -18.4704 C   0  0  0  0  0  0  0  0  0  0  0  0
   24.3145  -20.2047  -18.1287 C   0  0  0  0  0  0  0  0  0  0  0  0
   23.6953  -20.9707  -17.1794 C   0  0  0  0  0  0  0  0  0  0  0  0
   22.5049  -20.5866  -16.5560 C   0  0  0  0  0  0  0  0  0  0  0  0
   21.8921  -21.4705  -15.5405 C   0  0  0  0  0  0  0  0  0  0  0  0
   22.2632  -21.0980  -14.1281 C   0  0  2  0  0  0  0  0  0  0  0  0
   23.6161  -21.4802  -13.8829 N   0  0  0  0  0  0  0  0  0  0  0  0
   21.3071  -21.7921  -13.2160 C   0  0  0  0  0  0  0  0  0  0  0  0
   21.3369  -23.0299  -12.9858 O   0  0  0  0  0  0  0  0  0  0  0  0
   21.9593  -19.3854  -16.9331 C   0  0  0  0  0  0  0  0  0  0  0  0
   22.5410  -18.5742  -17.8838 C   0  0  0  0  0  0  0  0  0  0  0  0
   16.7639  -16.1042  -13.7872 O   0  0  0  0  0  0  0  0  0  0  0  0
   17.3219  -17.1343  -13.0585 C   0  0  0  0  0  0  0  0  0  0  0  0
   18.6547  -17.1804  -12.7149 C   0  0  0  0  0  0  0  0  0  0  0  0
   19.1860  -18.2236  -11.9846 C   0  0  0  0  0  0  0  0  0  0  0  0
   18.3981  -19.2643  -11.5698 C   0  0  0  0  0  0  0  0  0  0  0  0
   18.8600  -20.4151  -10.7977 C   0  0  0  0  0  0  0  0  0  0  0  0
   19.3879  -21.5664  -11.5898 C   0  0  2  0  0  0  0  0  0  0  0  0
   20.3163  -21.0004  -12.5812 N   0  0  0  0  0  0  0  0  0  0  0  0
   18.2876  -22.1997  -12.3588 C   0  0  0  0  0  0  0  0  0  0  0  0
   17.3804  -22.9002  -11.7971 O   0  0  0  0  0  0  0  0  0  0  0  0
   17.0478  -19.2089  -11.9232 C   0  0  0  0  0  0  0  0  0  0  0  0
   16.5115  -18.1706  -12.6514 C   0  0  0  0  0  0  0  0  0  0  0  0
   18.1638  -22.0757  -13.7502 O   0  0  0  0  0  0  0  0  0  0  0  0
  2  3  1  0
  2  1  1  6
  4  5  2  0
  4  3  1  0
  6  5  1  0
  7 12  2  0
  7  6  1  0
  8  7  1  0
  9 10  1  0
  9  8  2  0
 10 11  2  0
 11 12  1  0
 12  4  1  0
 13  2  1  0
 14 13  2  0
 16 15  1  0
 17 16  2  0
 18 17  1  0
 19 18  2  0
 19 25  1  0
 20 19  1  0
 21 20  1  6
 21 22  1  0
 22 13  1  0
 23 21  1  0
 23 34  1  0
 24 23  2  0
 25 26  2  0
 26 16  1  0
 28 38  2  0
 28 27  1  0
 29 28  1  0
 30 31  1  0
 30 29  2  0
 31 37  2  0
 32 31  1  0
 33 34  1  0
 33 32  1  1
 35 33  1  0
 36 35  2  0
 37 38  1  0
 39 35  1  0
M  END
$$$$
