WYY.pdb
     RDKit          3D

 39 42  0  0  1  0  0  0  0  0999 V2000
   26.7295  -35.4228  -15.4361 N   0  0  0  0  0  0  0  0  0  0  0  0
   27.2256  -34.5609  -14.3703 C   0  0  1  0  0  0  0  0  0  0  0  0
   26.5999  -33.1613  -14.4639 C   0  0  0  0  0  0  0  0  0  0  0  0
   27.2275  -32.4874  -15.6080 C   0  0  0  0  0  0  0  0  0  0  0  0
   28.5665  -32.2276  -15.7659 C   0  0  0  0  0  0  0  0  0  0  0  0
   28.7171  -31.5916  -16.9604 N   0  0  0  0  0  0  0  0  0  0  0  0
   27.5183  -31.4414  -17.5610 C   0  0  0  0  0  0  0  0  0  0  0  0
   27.0723  -30.8910  -18.7407 C   0  0  0  0  0  0  0  0  0  0  0  0
   25.7436  -30.8903  -19.0821 C   0  0  0  0  0  0  0  0  0  0  0  0
   24.8133  -31.4491  -18.2385 C   0  0  0  0  0  0  0  0  0  0  0  0
   25.2257  -32.0071  -17.0529 C   0  0  0  0  0  0  0  0  0  0  0  0
   26.5863  -32.0008  -16.7172 C   0  0  0  0  0  0  0  0  0  0  0  0
   26.8341  -35.1395  -13.0844 C   0  0  0  0  0  0  0  0  0  0  0  0
   25.7416  -35.7281  -12.9386 O   0  0  0  0  0  0  0  0  0  0  0  0
   26.6403  -39.7151   -5.8522 O   0  0  0  0  0  0  0  0  0  0  0  0
   26.9436  -39.0556   -7.0431 C   0  0  0  0  0  0  0  0  0  0  0  0
   25.9731  -39.0164   -8.0230 C   0  0  0  0  0  0  0  0  0  0  0  0
   26.2746  -38.3691   -9.1897 C   0  0  0  0  0  0  0  0  0  0  0  0
   27.5104  -37.7576   -9.4179 C   0  0  0  0  0  0  0  0  0  0  0  0
   27.7644  -37.0792  -10.7077 C   0  0  0  0  0  0  0  0  0  0  0  0
   27.3216  -35.6387  -10.7177 C   0  0  2  0  0  0  0  0  0  0  0  0
   27.7095  -35.0378  -11.9527 N   0  0  0  0  0  0  0  0  0  0  0  0
   27.9516  -34.9685   -9.5422 C   0  0  0  0  0  0  0  0  0  0  0  0
   29.1908  -34.7727   -9.4327 O   0  0  0  0  0  0  0  0  0  0  0  0
   28.4392  -37.8264   -8.4103 C   0  0  0  0  0  0  0  0  0  0  0  0
   28.1884  -38.4653   -7.2148 C   0  0  0  0  0  0  0  0  0  0  0  0
   21.8376  -31.6457   -9.2399 O   0  0  0  0  0  0  0  0  0  0  0  0
   23.1105  -31.8497   -8.7483 C   0  0  0  0  0  0  0  0  0  0  0  0
   23.3643  -32.2709   -7.4619 C   0  0  0  0  0  0  0  0  0  0  0  0
   24.6484  -32.4671   -6.9966 C   0  0  0  0  0  0  0  0  0  0  0  0
   25.7308  -32.2474   -7.8066 C   0  0  0  0  0  0  0  0  0  0  0  0
   27.1267  -32.4214   -7.4130 C   0  0  0  0  0  0  0  0  0  0  0  0
   27.6084  -33.8319   -7.3130 C   0  0  2  0  0  0  0  0  0  0  0  0
   27.0941  -34.5340   -8.4994 N   0  0  0  0  0  0  0  0  0  0  0  0
   26.9956  -34.4946   -6.1347 C   0  0  0  0  0  0  0  0  0  0  0  0
   27.4295  -34.3107   -4.9485 O   0  0  0  0  0  0  0  0  0  0  0  0
   25.4635  -31.8203   -9.1094 C   0  0  0  0  0  0  0  0  0  0  0  0
   24.1845  -31.6229   -9.5798 C   0  0  0  0  0  0  0  0  0  0  0  0
   25.9013  -35.3658   -6.2366 O   0  0  0  0  0  0  0  0  0  0  0  0
  2  3  1  0
  2  1  1  6
  4  5  2  0
  4  3  1  0
  6  5  1  0
  7 12  2  0
  7  6  1  0
  8  7  1  0
  9 10  1  0
  9  8  2  0
 10 11  2  0
 11 12  1  0
 12  4  1  0
 13  2  1  0
 14 13  2  0
 16 15  1  0
 17 16  2  0
 18 17  1  0
 19 18  2  0
 19 25  1  0
 20 19  1  0
 21 20  1  6
 21 22  1  0
 22 13  1  0
 23 21  1  0
 23 34  1  0
 24 23  2  0
 25 26  2  0
 26 16  1  0
 28 38  2  0
 28 27  1  0
 29 28  1  0
 30 31  1  0
 30 29  2  0
 31 37  2  0
 32 31  1  0
 33 34  1  0
 33 32  1  6
 35 33  1  0
 36 35  2  0
 37 38  1  0
 39 35  1  0
M  END
$$$$
