WYY.pdb
     RDKit          3D

 39 42  0  0  1  0  0  0  0  0999 V2000
   20.3205  -15.4600  -20.0971 N   0  0  0  0  0  0  0  0  0  0  0  0
   21.2905  -16.2147  -19.3134 C   0  0  1  0  0  0  0  0  0  0  0  0
   22.2894  -15.2718  -18.6261 C   0  0  0  0  0  0  0  0  0  0  0  0
   23.2249  -14.8114  -19.6605 C   0  0  0  0  0  0  0  0  0  0  0  0
   23.0776  -13.7022  -20.4563 C   0  0  0  0  0  0  0  0  0  0  0  0
   24.1657  -13.6428  -21.2727 N   0  0  0  0  0  0  0  0  0  0  0  0
   24.9940  -14.6770  -21.0187 C   0  0  0  0  0  0  0  0  0  0  0  0
   26.1997  -15.1155  -21.5163 C   0  0  0  0  0  0  0  0  0  0  0  0
   26.8133  -16.2444  -21.0358 C   0  0  0  0  0  0  0  0  0  0  0  0
   26.2267  -16.9745  -20.0297 C   0  0  0  0  0  0  0  0  0  0  0  0
   25.0228  -16.5637  -19.5109 C   0  0  0  0  0  0  0  0  0  0  0  0
   24.4076  -15.4083  -20.0114 C   0  0  0  0  0  0  0  0  0  0  0  0
   20.5750  -16.9460  -18.2671 C   0  0  0  0  0  0  0  0  0  0  0  0
   19.7741  -16.3710  -17.4996 O   0  0  0  0  0  0  0  0  0  0  0  0
   14.4839  -17.9132  -19.5759 O   0  0  0  0  0  0  0  0  0  0  0  0
   15.6726  -18.4477  -19.0797 C   0  0  0  0  0  0  0  0  0  0  0  0
   15.7399  -18.7260  -17.7301 C   0  0  0  0  0  0  0  0  0  0  0  0
   16.9076  -19.2497  -17.2471 C   0  0  0  0  0  0  0  0  0  0  0  0
   18.0146  -19.5071  -18.0604 C   0  0  0  0  0  0  0  0  0  0  0  0
   19.2455  -20.0712  -17.4646 C   0  0  0  0  0  0  0  0  0  0  0  0
   20.2058  -19.0168  -16.9773 C   0  0  2  0  0  0  0  0  0  0  0  0
   20.7851  -18.3552  -18.1013 N   0  0  0  0  0  0  0  0  0  0  0  0
   21.2313  -19.7001  -16.1350 C   0  0  0  0  0  0  0  0  0  0  0  0
   22.2530  -20.2676  -16.6040 O   0  0  0  0  0  0  0  0  0  0  0  0
   17.8939  -19.2118  -19.3950 C   0  0  0  0  0  0  0  0  0  0  0  0
   16.7408  -18.6833  -19.9347 C   0  0  0  0  0  0  0  0  0  0  0  0
   26.3184  -20.9265   -9.0920 O   0  0  0  0  0  0  0  0  0  0  0  0
   25.3734  -20.5179  -10.0105 C   0  0  0  0  0  0  0  0  0  0  0  0
   24.0552  -20.2870   -9.6856 C   0  0  0  0  0  0  0  0  0  0  0  0
   23.1311  -19.8784  -10.6253 C   0  0  0  0  0  0  0  0  0  0  0  0
   23.4951  -19.6853  -11.9315 C   0  0  0  0  0  0  0  0  0  0  0  0
   22.5976  -19.2586  -13.0020 C   0  0  0  0  0  0  0  0  0  0  0  0
   21.9775  -20.3504  -13.8114 C   0  0  2  0  0  0  0  0  0  0  0  0
   21.0298  -19.7016  -14.7311 N   0  0  0  0  0  0  0  0  0  0  0  0
   21.1717  -21.2365  -12.9348 C   0  0  0  0  0  0  0  0  0  0  0  0
   19.9690  -20.9599  -12.6088 O   0  0  0  0  0  0  0  0  0  0  0  0
   24.8341  -19.9222  -12.2515 C   0  0  0  0  0  0  0  0  0  0  0  0
   25.7610  -20.3298  -11.3185 C   0  0  0  0  0  0  0  0  0  0  0  0
   21.6685  -22.4356  -12.4036 O   0  0  0  0  0  0  0  0  0  0  0  0
  2  3  1  0
  2  1  1  1
  4  5  2  0
  4  3  1  0
  6  5  1  0
  7 12  2  0
  7  6  1  0
  8  7  1  0
  9 10  1  0
  9  8  2  0
 10 11  2  0
 11 12  1  0
 12  4  1  0
 13  2  1  0
 14 13  2  0
 16 15  1  0
 17 16  2  0
 18 17  1  0
 19 18  2  0
 19 25  1  0
 20 19  1  0
 21 20  1  6
 21 22  1  0
 22 13  1  0
 23 21  1  0
 23 34  1  0
 24 23  2  0
 25 26  2  0
 26 16  1  0
 28 38  2  0
 28 27  1  0
 29 28  1  0
 30 31  1  0
 30 29  2  0
 31 37  2  0
 32 31  1  0
 33 34  1  0
 33 32  1  1
 35 33  1  0
 36 35  2  0
 37 38  1  0
 39 35  1  0
M  END
$$$$
