WYY.pdb
     RDKit          3D

 39 42  0  0  1  0  0  0  0  0999 V2000
   28.6911  -19.9718   -9.5578 N   0  0  0  0  0  0  0  0  0  0  0  0
   27.4329  -20.6581   -9.2920 C   0  0  1  0  0  0  0  0  0  0  0  0
   26.6186  -19.9119   -8.2247 C   0  0  0  0  0  0  0  0  0  0  0  0
   27.5440  -19.5826   -7.1328 C   0  0  0  0  0  0  0  0  0  0  0  0
   28.1056  -18.3547   -6.8836 C   0  0  0  0  0  0  0  0  0  0  0  0
   28.8967  -18.4874   -5.7833 N   0  0  0  0  0  0  0  0  0  0  0  0
   28.8529  -19.7575   -5.3303 C   0  0  0  0  0  0  0  0  0  0  0  0
   29.4295  -20.4504   -4.2906 C   0  0  0  0  0  0  0  0  0  0  0  0
   29.1818  -21.7838   -4.0841 C   0  0  0  0  0  0  0  0  0  0  0  0
   28.3379  -22.4681   -4.9260 C   0  0  0  0  0  0  0  0  0  0  0  0
   27.7459  -21.8055   -5.9738 C   0  0  0  0  0  0  0  0  0  0  0  0
   28.0079  -20.4433   -6.1725 C   0  0  0  0  0  0  0  0  0  0  0  0
   26.6433  -20.6754  -10.5241 C   0  0  0  0  0  0  0  0  0  0  0  0
   26.4090  -19.6282  -11.1643 O   0  0  0  0  0  0  0  0  0  0  0  0
   22.7075  -23.7118  -17.7683 O   0  0  0  0  0  0  0  0  0  0  0  0
   23.3595  -23.6046  -16.5401 C   0  0  0  0  0  0  0  0  0  0  0  0
   22.7057  -24.0761  -15.4204 C   0  0  0  0  0  0  0  0  0  0  0  0
   23.3481  -23.9686  -14.2175 C   0  0  0  0  0  0  0  0  0  0  0  0
   24.6213  -23.4071  -14.0876 C   0  0  0  0  0  0  0  0  0  0  0  0
   25.2510  -23.3218  -12.7517 C   0  0  0  0  0  0  0  0  0  0  0  0
   25.3726  -21.9087  -12.2424 C   0  0  2  0  0  0  0  0  0  0  0  0
   26.1161  -21.9121  -11.0242 N   0  0  0  0  0  0  0  0  0  0  0  0
   23.9896  -21.3788  -12.0573 C   0  0  0  0  0  0  0  0  0  0  0  0
   23.2669  -21.6490  -11.0620 O   0  0  0  0  0  0  0  0  0  0  0  0
   25.2263  -22.9540  -15.2328 C   0  0  0  0  0  0  0  0  0  0  0  0
   24.6248  -23.0377  -16.4704 C   0  0  0  0  0  0  0  0  0  0  0  0
   17.3298  -15.7561  -14.0077 O   0  0  0  0  0  0  0  0  0  0  0  0
   18.5230  -16.4293  -13.8443 C   0  0  0  0  0  0  0  0  0  0  0  0
   19.2335  -16.4308  -12.6646 C   0  0  0  0  0  0  0  0  0  0  0  0
   20.4249  -17.1136  -12.5293 C   0  0  0  0  0  0  0  0  0  0  0  0
   20.9511  -17.8234  -13.5759 C   0  0  0  0  0  0  0  0  0  0  0  0
   22.2027  -18.5755  -13.5391 C   0  0  0  0  0  0  0  0  0  0  0  0
   22.1180  -19.9621  -12.9896 C   0  0  2  0  0  0  0  0  0  0  0  0
   23.4752  -20.5253  -13.0665 N   0  0  0  0  0  0  0  0  0  0  0  0
   21.2644  -20.8033  -13.8654 C   0  0  0  0  0  0  0  0  0  0  0  0
   21.6793  -21.2629  -14.9815 O   0  0  0  0  0  0  0  0  0  0  0  0
   20.2235  -17.8158  -14.7683 C   0  0  0  0  0  0  0  0  0  0  0  0
   19.0340  -17.1367  -14.9096 C   0  0  0  0  0  0  0  0  0  0  0  0
   19.9476  -21.1535  -13.5333 O   0  0  0  0  0  0  0  0  0  0  0  0
  2  3  1  0
  2  1  1  6
  4  5  2  0
  4  3  1  0
  6  5  1  0
  7 12  2  0
  7  6  1  0
  8  7  1  0
  9 10  1  0
  9  8  2  0
 10 11  2  0
 11 12  1  0
 12  4  1  0
 13  2  1  0
 14 13  2  0
 16 15  1  0
 17 16  2  0
 18 17  1  0
 19 18  2  0
 19 25  1  0
 20 19  1  0
 21 20  1  1
 21 22  1  0
 22 13  1  0
 23 21  1  0
 23 34  1  0
 24 23  2  0
 25 26  2  0
 26 16  1  0
 28 38  2  0
 28 27  1  0
 29 28  1  0
 30 31  1  0
 30 29  2  0
 31 37  2  0
 32 31  1  0
 33 34  1  0
 33 32  1  6
 35 33  1  0
 36 35  2  0
 37 38  1  0
 39 35  1  0
M  END
$$$$
