AYM.pdb
     RDKit          3D

 26 26  0  0  1  0  0  0  0  0999 V2000
   22.8016  -15.5197  -17.5994 C   0  0  0  0  0  0  0  0  0  0  0  0
   24.1944  -16.1664  -17.5370 C   0  0  2  0  0  0  0  0  0  0  0  0
   24.7828  -15.9529  -18.8233 N   0  0  0  0  0  0  0  0  0  0  0  0
   23.9773  -17.6052  -17.2411 C   0  0  0  0  0  0  0  0  0  0  0  0
   23.4486  -18.3365  -18.1219 O   0  0  0  0  0  0  0  0  0  0  0  0
   24.5796  -25.8595  -14.4545 O   0  0  0  0  0  0  0  0  0  0  0  0
   24.7099  -24.4794  -14.5476 C   0  0  0  0  0  0  0  0  0  0  0  0
   24.2686  -23.6567  -13.5443 C   0  0  0  0  0  0  0  0  0  0  0  0
   24.4076  -22.2864  -13.6557 C   0  0  0  0  0  0  0  0  0  0  0  0
   24.9834  -21.6901  -14.7548 C   0  0  0  0  0  0  0  0  0  0  0  0
   25.1627  -20.2545  -14.9355 C   0  0  0  0  0  0  0  0  0  0  0  0
   24.1106  -19.5956  -15.7839 C   0  0  2  0  0  0  0  0  0  0  0  0
   24.3353  -18.2079  -16.0111 N   0  0  0  0  0  0  0  0  0  0  0  0
   22.8181  -19.7781  -15.0830 C   0  0  0  0  0  0  0  0  0  0  0  0
   22.6231  -19.1739  -14.0048 O   0  0  0  0  0  0  0  0  0  0  0  0
   25.4208  -22.5356  -15.7530 C   0  0  0  0  0  0  0  0  0  0  0  0
   25.2938  -23.9109  -15.6671 C   0  0  0  0  0  0  0  0  0  0  0  0
   15.2789  -22.1645  -15.1509 C   0  0  0  0  0  0  0  0  0  0  0  0
   16.8513  -22.1645  -16.0918 S   0  0  0  0  0  0  0  0  0  0  0  0
   18.1661  -21.4778  -15.0402 C   0  0  0  0  0  0  0  0  0  0  0  0
   19.4191  -21.2661  -15.8571 C   0  0  0  0  0  0  0  0  0  0  0  0
   20.5315  -20.8704  -14.9017 C   0  0  2  0  0  0  0  0  0  0  0  0
   21.7818  -20.6107  -15.5776 N   0  0  0  0  0  0  0  0  0  0  0  0
   20.7682  -21.9294  -13.8898 C   0  0  0  0  0  0  0  0  0  0  0  0
   21.4496  -22.9211  -14.2302 O   0  0  0  0  0  0  0  0  0  0  0  0
   20.2826  -21.8886  -12.5946 O   0  0  0  0  0  0  0  0  0  0  0  0
  2  1  1  6
  3  2  1  0
  4  2  1  0
  4 13  1  0
  5  4  2  0
  7  8  2  0
  7  6  1  0
  9  8  1  0
 10  9  2  0
 11 10  1  0
 12 11  1  1
 12 13  1  0
 14 12  1  0
 15 14  2  0
 16 10  1  0
 16 17  2  0
 17  7  1  0
 19 20  1  0
 19 18  1  0
 20 21  1  0
 22 21  1  6
 22 23  1  0
 22 24  1  0
 23 14  1  0
 24 26  1  0
 25 24  2  0
M  END
$$$$
