AYM.pdb
     RDKit          3D

 26 26  0  0  1  0  0  0  0  0999 V2000
   20.8543  -11.5643  -19.9619 C   0  0  0  0  0  0  0  0  0  0  0  0
   21.8364  -10.4338  -19.6164 C   0  0  2  0  0  0  0  0  0  0  0  0
   23.0148  -11.0767  -19.1219 N   0  0  0  0  0  0  0  0  0  0  0  0
   21.1691   -9.5967  -18.5874 C   0  0  0  0  0  0  0  0  0  0  0  0
   20.1326   -8.9518  -18.9034 O   0  0  0  0  0  0  0  0  0  0  0  0
   15.9162  -12.6117  -16.1006 O   0  0  0  0  0  0  0  0  0  0  0  0
   17.0122  -11.7948  -15.8523 C   0  0  0  0  0  0  0  0  0  0  0  0
   16.8504  -10.4861  -15.4788 C   0  0  0  0  0  0  0  0  0  0  0  0
   17.9533   -9.6900  -15.2359 C   0  0  0  0  0  0  0  0  0  0  0  0
   19.2423  -10.1591  -15.3535 C   0  0  0  0  0  0  0  0  0  0  0  0
   20.4479   -9.3758  -15.1108 C   0  0  0  0  0  0  0  0  0  0  0  0
   20.9710   -8.6450  -16.3163 C   0  0  2  0  0  0  0  0  0  0  0  0
   21.6376   -9.4816  -17.2564 N   0  0  0  0  0  0  0  0  0  0  0  0
   21.9120   -7.6146  -15.8184 C   0  0  0  0  0  0  0  0  0  0  0  0
   23.1199   -7.6935  -16.1354 O   0  0  0  0  0  0  0  0  0  0  0  0
   19.3832  -11.4784  -15.7303 C   0  0  0  0  0  0  0  0  0  0  0  0
   18.2961  -12.2975  -15.9797 C   0  0  0  0  0  0  0  0  0  0  0  0
   24.8094   -1.1049  -17.1288 C   0  0  0  0  0  0  0  0  0  0  0  0
   23.8603   -2.6297  -17.4926 S   0  0  0  0  0  0  0  0  0  0  0  0
   23.3759   -3.4095  -15.9231 C   0  0  0  0  0  0  0  0  0  0  0  0
   22.6126   -4.6841  -16.1971 C   0  0  0  0  0  0  0  0  0  0  0  0
   22.2179   -5.2825  -14.8581 C   0  0  2  0  0  0  0  0  0  0  0  0
   21.5084   -6.5339  -14.9933 N   0  0  0  0  0  0  0  0  0  0  0  0
   21.3592   -4.3489  -14.0883 C   0  0  0  0  0  0  0  0  0  0  0  0
   20.1207   -4.4375  -14.2361 O   0  0  0  0  0  0  0  0  0  0  0  0
   21.8425   -3.3875  -13.2182 O   0  0  0  0  0  0  0  0  0  0  0  0
  2  1  1  1
  3  2  1  0
  4  2  1  0
  4 13  1  0
  5  4  2  0
  7  8  2  0
  7  6  1  0
  9  8  1  0
 10  9  2  0
 11 10  1  0
 12 11  1  1
 12 13  1  0
 14 12  1  0
 15 14  2  0
 16 10  1  0
 16 17  2  0
 17  7  1  0
 19 20  1  0
 19 18  1  0
 20 21  1  0
 22 21  1  6
 22 23  1  0
 22 24  1  0
 23 14  1  0
 24 26  1  0
 25 24  2  0
M  END
$$$$
