AYM.pdb
     RDKit          3D

 26 26  0  0  1  0  0  0  0  0999 V2000
   29.1628  -22.3050  -17.9933 C   0  0  0  0  0  0  0  0  0  0  0  0
   29.0365  -22.6930  -16.5115 C   0  0  2  0  0  0  0  0  0  0  0  0
   29.0206  -24.1232  -16.4817 N   0  0  0  0  0  0  0  0  0  0  0  0
   27.7648  -22.0985  -16.0278 C   0  0  0  0  0  0  0  0  0  0  0  0
   26.7246  -22.8112  -16.0129 O   0  0  0  0  0  0  0  0  0  0  0  0
   23.9090  -21.3162   -9.2471 O   0  0  0  0  0  0  0  0  0  0  0  0
   24.5929  -20.8510  -10.3633 C   0  0  0  0  0  0  0  0  0  0  0  0
   25.9552  -20.9664  -10.4588 C   0  0  0  0  0  0  0  0  0  0  0  0
   26.6170  -20.4977  -11.5776 C   0  0  0  0  0  0  0  0  0  0  0  0
   25.9576  -19.9041  -12.6302 C   0  0  0  0  0  0  0  0  0  0  0  0
   26.5923  -19.3907  -13.8383 C   0  0  0  0  0  0  0  0  0  0  0  0
   26.4279  -20.2655  -15.0502 C   0  0  2  0  0  0  0  0  0  0  0  0
   27.6545  -20.7609  -15.5774 N   0  0  0  0  0  0  0  0  0  0  0  0
   25.7424  -19.4489  -16.0790 C   0  0  0  0  0  0  0  0  0  0  0  0
   26.3729  -18.5226  -16.6361 O   0  0  0  0  0  0  0  0  0  0  0  0
   24.5872  -19.7977  -12.5144 C   0  0  0  0  0  0  0  0  0  0  0  0
   23.8998  -20.2585  -11.4054 C   0  0  0  0  0  0  0  0  0  0  0  0
   20.8067  -18.3651  -21.9752 C   0  0  0  0  0  0  0  0  0  0  0  0
   21.7192  -19.5530  -20.9196 S   0  0  0  0  0  0  0  0  0  0  0  0
   22.4337  -18.6570  -19.5079 C   0  0  0  0  0  0  0  0  0  0  0  0
   23.1876  -19.6176  -18.6185 C   0  0  0  0  0  0  0  0  0  0  0  0
   23.6568  -18.8448  -17.3980 C   0  0  2  0  0  0  0  0  0  0  0  0
   24.3958  -19.6665  -16.4671 N   0  0  0  0  0  0  0  0  0  0  0  0
   22.5099  -18.2463  -16.6715 C   0  0  0  0  0  0  0  0  0  0  0  0
   22.1731  -17.0798  -16.9707 O   0  0  0  0  0  0  0  0  0  0  0  0
   21.7905  -18.8972  -15.6847 O   0  0  0  0  0  0  0  0  0  0  0  0
  2  1  1  6
  3  2  1  0
  4  2  1  0
  4 13  1  0
  5  4  2  0
  7  8  2  0
  7  6  1  0
  9  8  1  0
 10  9  2  0
 11 10  1  0
 12 11  1  1
 12 13  1  0
 14 12  1  0
 15 14  2  0
 16 10  1  0
 16 17  2  0
 17  7  1  0
 19 20  1  0
 19 18  1  0
 20 21  1  0
 22 21  1  6
 22 23  1  0
 22 24  1  0
 23 14  1  0
 24 26  1  0
 25 24  2  0
M  END
$$$$
