AYM.pdb
     RDKit          3D

 26 26  0  0  1  0  0  0  0  0999 V2000
   26.4626  -19.4774  -16.2040 C   0  0  0  0  0  0  0  0  0  0  0  0
   26.9324  -20.2176  -14.9417 C   0  0  2  0  0  0  0  0  0  0  0  0
   27.8447  -21.2224  -15.3941 N   0  0  0  0  0  0  0  0  0  0  0  0
   25.7158  -20.7930  -14.3142 C   0  0  0  0  0  0  0  0  0  0  0  0
   25.3528  -21.9558  -14.6400 O   0  0  0  0  0  0  0  0  0  0  0  0
   28.4259  -21.1057   -8.1282 O   0  0  0  0  0  0  0  0  0  0  0  0
   27.2723  -20.8815   -8.8691 C   0  0  0  0  0  0  0  0  0  0  0  0
   26.4358  -19.8354   -8.5788 C   0  0  0  0  0  0  0  0  0  0  0  0
   25.2932  -19.6290   -9.3280 C   0  0  0  0  0  0  0  0  0  0  0  0
   24.9437  -20.4446  -10.3806 C   0  0  0  0  0  0  0  0  0  0  0  0
   23.7566  -20.2831  -11.2116 C   0  0  0  0  0  0  0  0  0  0  0  0
   23.9130  -20.7707  -12.6253 C   0  0  2  0  0  0  0  0  0  0  0  0
   24.9326  -20.1004  -13.3596 N   0  0  0  0  0  0  0  0  0  0  0  0
   22.6075  -20.5680  -13.2959 C   0  0  0  0  0  0  0  0  0  0  0  0
   22.3460  -19.4469  -13.7864 O   0  0  0  0  0  0  0  0  0  0  0  0
   25.7986  -21.4913  -10.6561 C   0  0  0  0  0  0  0  0  0  0  0  0
   26.9490  -21.7207   -9.9219 C   0  0  0  0  0  0  0  0  0  0  0  0
   18.9585  -25.3898  -15.7321 C   0  0  0  0  0  0  0  0  0  0  0  0
   17.6739  -24.0841  -15.6781 S   0  0  0  0  0  0  0  0  0  0  0  0
   18.4492  -22.5164  -15.1807 C   0  0  0  0  0  0  0  0  0  0  0  0
   19.7483  -22.7917  -14.4606 C   0  0  0  0  0  0  0  0  0  0  0  0
   20.3613  -21.4533  -14.0867 C   0  0  2  0  0  0  0  0  0  0  0  0
   21.6309  -21.5901  -13.4107 N   0  0  0  0  0  0  0  0  0  0  0  0
   19.4535  -20.6777  -13.2057 C   0  0  0  0  0  0  0  0  0  0  0  0
   18.7325  -19.8033  -13.7342 O   0  0  0  0  0  0  0  0  0  0  0  0
   19.3550  -20.8612  -11.8377 O   0  0  0  0  0  0  0  0  0  0  0  0
  2  1  1  6
  3  2  1  0
  4  2  1  0
  4 13  1  0
  5  4  2  0
  7  8  2  0
  7  6  1  0
  9  8  1  0
 10  9  2  0
 11 10  1  0
 12 11  1  1
 12 13  1  0
 14 12  1  0
 15 14  2  0
 16 10  1  0
 16 17  2  0
 17  7  1  0
 19 20  1  0
 19 18  1  0
 20 21  1  0
 22 21  1  1
 22 23  1  0
 22 24  1  0
 23 14  1  0
 24 26  1  0
 25 24  2  0
M  END
$$$$
