AYM.pdb
     RDKit          3D

 26 26  0  0  1  0  0  0  0  0999 V2000
   19.1840  -13.1746    4.0098 C   0  0  0  0  0  0  0  0  0  0  0  0
   17.8153  -13.7880    3.6747 C   0  0  2  0  0  0  0  0  0  0  0  0
   16.8425  -12.9171    4.2593 N   0  0  0  0  0  0  0  0  0  0  0  0
   17.8027  -15.1442    4.2791 C   0  0  0  0  0  0  0  0  0  0  0  0
   17.3777  -15.2830    5.4582 O   0  0  0  0  0  0  0  0  0  0  0  0
   12.9266  -19.7585    1.2722 O   0  0  0  0  0  0  0  0  0  0  0  0
   14.2020  -19.4826    1.7490 C   0  0  0  0  0  0  0  0  0  0  0  0
   14.8584  -18.3333    1.3932 C   0  0  0  0  0  0  0  0  0  0  0  0
   16.1265  -18.0770    1.8785 C   0  0  0  0  0  0  0  0  0  0  0  0
   16.7815  -18.9427    2.7251 C   0  0  0  0  0  0  0  0  0  0  0  0
   18.1158  -18.7336    3.2745 C   0  0  0  0  0  0  0  0  0  0  0  0
   18.2235  -17.5780    4.2304 C   0  0  2  0  0  0  0  0  0  0  0  0
   18.2464  -16.3027    3.5971 N   0  0  0  0  0  0  0  0  0  0  0  0
   19.4766  -17.7709    4.9971 C   0  0  0  0  0  0  0  0  0  0  0  0
   20.5599  -17.4042    4.4894 O   0  0  0  0  0  0  0  0  0  0  0  0
   16.1037  -20.0932    3.0709 C   0  0  0  0  0  0  0  0  0  0  0  0
   14.8336  -20.3745    2.5993 C   0  0  0  0  0  0  0  0  0  0  0  0
   23.9976  -15.9599   10.6534 C   0  0  0  0  0  0  0  0  0  0  0  0
   22.4679  -15.7405    9.6687 S   0  0  0  0  0  0  0  0  0  0  0  0
   22.1460  -17.2666    8.7341 C   0  0  0  0  0  0  0  0  0  0  0  0
   20.9321  -17.0833    7.8538 C   0  0  0  0  0  0  0  0  0  0  0  0
   20.6696  -18.4030    7.1492 C   0  0  2  0  0  0  0  0  0  0  0  0
   19.5097  -18.3554    6.2889 N   0  0  0  0  0  0  0  0  0  0  0  0
   20.4705  -19.5004    8.1277 C   0  0  0  0  0  0  0  0  0  0  0  0
   19.3205  -19.6712    8.5883 O   0  0  0  0  0  0  0  0  0  0  0  0
   21.4763  -20.3457    8.5621 O   0  0  0  0  0  0  0  0  0  0  0  0
  2  1  1  1
  3  2  1  0
  4  2  1  0
  4 13  1  0
  5  4  2  0
  7  8  2  0
  7  6  1  0
  9  8  1  0
 10  9  2  0
 11 10  1  0
 12 11  1  6
 12 13  1  0
 14 12  1  0
 15 14  2  0
 16 10  1  0
 16 17  2  0
 17  7  1  0
 19 20  1  0
 19 18  1  0
 20 21  1  0
 22 21  1  1
 22 23  1  0
 22 24  1  0
 23 14  1  0
 24 26  1  0
 25 24  2  0
M  END
$$$$
