AYM.pdb
     RDKit          3D

 26 26  0  0  1  0  0  0  0  0999 V2000
   28.9077  -20.1570  -18.0906 C   0  0  0  0  0  0  0  0  0  0  0  0
   27.4192  -20.3236  -17.7464 C   0  0  2  0  0  0  0  0  0  0  0  0
   26.7016  -19.6116  -18.7585 N   0  0  0  0  0  0  0  0  0  0  0  0
   27.2317  -19.7374  -16.3951 C   0  0  0  0  0  0  0  0  0  0  0  0
   28.0061  -18.8171  -16.0162 O   0  0  0  0  0  0  0  0  0  0  0  0
   20.2050  -19.5080  -17.1502 O   0  0  0  0  0  0  0  0  0  0  0  0
   21.3771  -19.2174  -16.4633 C   0  0  0  0  0  0  0  0  0  0  0  0
   21.4989  -19.4852  -15.1247 C   0  0  0  0  0  0  0  0  0  0  0  0
   22.6733  -19.1891  -14.4595 C   0  0  0  0  0  0  0  0  0  0  0  0
   23.7570  -18.6229  -15.0920 C   0  0  0  0  0  0  0  0  0  0  0  0
   25.0236  -18.2875  -14.4524 C   0  0  0  0  0  0  0  0  0  0  0  0
   25.9684  -19.4461  -14.2922 C   0  0  2  0  0  0  0  0  0  0  0  0
   26.2202  -20.1592  -15.4989 N   0  0  0  0  0  0  0  0  0  0  0  0
   25.3616  -20.3600  -13.2963 C   0  0  0  0  0  0  0  0  0  0  0  0
   24.8083  -21.4092  -13.6950 O   0  0  0  0  0  0  0  0  0  0  0  0
   23.6139  -18.3615  -16.4388 C   0  0  0  0  0  0  0  0  0  0  0  0
   22.4493  -18.6478  -17.1290 C   0  0  0  0  0  0  0  0  0  0  0  0
   29.3248  -20.6605   -8.0560 C   0  0  0  0  0  0  0  0  0  0  0  0
   27.5090  -20.4439   -7.9391 S   0  0  0  0  0  0  0  0  0  0  0  0
   26.7475  -21.0155   -9.4881 C   0  0  0  0  0  0  0  0  0  0  0  0
   25.2790  -20.6611   -9.4998 C   0  0  0  0  0  0  0  0  0  0  0  0
   24.7501  -20.9317  -10.8976 C   0  0  2  0  0  0  0  0  0  0  0  0
   25.3766  -20.1027  -11.9016 N   0  0  0  0  0  0  0  0  0  0  0  0
   23.2850  -20.7081  -10.9667 C   0  0  0  0  0  0  0  0  0  0  0  0
   22.8766  -19.6933  -11.5725 O   0  0  0  0  0  0  0  0  0  0  0  0
   22.3432  -21.5513  -10.4036 O   0  0  0  0  0  0  0  0  0  0  0  0
  2  1  1  6
  3  2  1  0
  4  2  1  0
  4 13  1  0
  5  4  2  0
  7  8  2  0
  7  6  1  0
  9  8  1  0
 10  9  2  0
 11 10  1  0
 12 11  1  6
 12 13  1  0
 14 12  1  0
 15 14  2  0
 16 10  1  0
 16 17  2  0
 17  7  1  0
 19 20  1  0
 19 18  1  0
 20 21  1  0
 22 21  1  1
 22 23  1  0
 22 24  1  0
 23 14  1  0
 24 26  1  0
 25 24  2  0
M  END
$$$$
