AYM.pdb
     RDKit          3D

 26 26  0  0  1  0  0  0  0  0999 V2000
   25.8044  -25.1636  -15.5046 C   0  0  0  0  0  0  0  0  0  0  0  0
   25.2281  -24.0138  -16.3459 C   0  0  2  0  0  0  0  0  0  0  0  0
   26.3560  -23.3382  -16.9098 N   0  0  0  0  0  0  0  0  0  0  0  0
   24.4571  -23.1545  -15.4121 C   0  0  0  0  0  0  0  0  0  0  0  0
   23.4108  -23.6161  -14.8808 O   0  0  0  0  0  0  0  0  0  0  0  0
   25.3941  -21.2683   -7.9333 O   0  0  0  0  0  0  0  0  0  0  0  0
   25.2841  -20.9667   -9.2850 C   0  0  0  0  0  0  0  0  0  0  0  0
   26.3708  -21.0363  -10.1173 C   0  0  0  0  0  0  0  0  0  0  0  0
   26.2406  -20.7327  -11.4590 C   0  0  0  0  0  0  0  0  0  0  0  0
   25.0405  -20.3534  -12.0167 C   0  0  0  0  0  0  0  0  0  0  0  0
   24.8331  -20.0219  -13.4214 C   0  0  0  0  0  0  0  0  0  0  0  0
   24.0474  -21.0443  -14.1948 C   0  0  2  0  0  0  0  0  0  0  0  0
   24.8363  -21.8312  -15.0817 N   0  0  0  0  0  0  0  0  0  0  0  0
   23.0248  -20.3032  -14.9696 C   0  0  0  0  0  0  0  0  0  0  0  0
   23.3807  -19.6589  -15.9815 O   0  0  0  0  0  0  0  0  0  0  0  0
   23.9596  -20.2896  -11.1622 C   0  0  0  0  0  0  0  0  0  0  0  0
   24.0622  -20.5881   -9.8149 C   0  0  0  0  0  0  0  0  0  0  0  0
   20.9701  -21.0848  -20.0004 C   0  0  0  0  0  0  0  0  0  0  0  0
   19.3445  -21.2608  -19.1732 S   0  0  0  0  0  0  0  0  0  0  0  0
   19.3771  -20.3346  -17.6089 C   0  0  0  0  0  0  0  0  0  0  0  0
   20.5424  -20.7939  -16.7643 C   0  0  0  0  0  0  0  0  0  0  0  0
   20.5697  -19.9369  -15.5106 C   0  0  2  0  0  0  0  0  0  0  0  0
   21.6508  -20.2874  -14.6183 N   0  0  0  0  0  0  0  0  0  0  0  0
   19.2968  -20.0526  -14.7570 C   0  0  0  0  0  0  0  0  0  0  0  0
   18.4446  -19.1499  -14.9074 O   0  0  0  0  0  0  0  0  0  0  0  0
   18.9940  -21.0954  -13.8992 O   0  0  0  0  0  0  0  0  0  0  0  0
  2  1  1  1
  3  2  1  0
  4  2  1  0
  4 13  1  0
  5  4  2  0
  7  8  2  0
  7  6  1  0
  9  8  1  0
 10  9  2  0
 11 10  1  0
 12 11  1  6
 12 13  1  0
 14 12  1  0
 15 14  2  0
 16 10  1  0
 16 17  2  0
 17  7  1  0
 19 20  1  0
 19 18  1  0
 20 21  1  0
 22 21  1  6
 22 23  1  0
 22 24  1  0
 23 14  1  0
 24 26  1  0
 25 24  2  0
M  END
$$$$
