AYM.pdb
     RDKit          3D

 26 26  0  0  1  0  0  0  0  0999 V2000
   31.3286  -16.0123  -20.1829 C   0  0  0  0  0  0  0  0  0  0  0  0
   31.8237  -14.5620  -20.2988 C   0  0  2  0  0  0  0  0  0  0  0  0
   33.0642  -14.5140  -19.5881 N   0  0  0  0  0  0  0  0  0  0  0  0
   30.7779  -13.7096  -19.6785 C   0  0  0  0  0  0  0  0  0  0  0  0
   30.6605  -13.7041  -18.4230 O   0  0  0  0  0  0  0  0  0  0  0  0
   33.7169   -8.6897  -17.0609 O   0  0  0  0  0  0  0  0  0  0  0  0
   32.5996   -9.1465  -17.7486 C   0  0  0  0  0  0  0  0  0  0  0  0
   31.3469   -9.0664  -17.1983 C   0  0  0  0  0  0  0  0  0  0  0  0
   30.2481   -9.5261  -17.8987 C   0  0  0  0  0  0  0  0  0  0  0  0
   30.3519  -10.0756  -19.1567 C   0  0  0  0  0  0  0  0  0  0  0  0
   29.2362  -10.5770  -19.9503 C   0  0  0  0  0  0  0  0  0  0  0  0
   28.9561  -12.0440  -19.7769 C   0  0  2  0  0  0  0  0  0  0  0  0
   29.8958  -12.8938  -20.4272 N   0  0  0  0  0  0  0  0  0  0  0  0
   27.6033  -12.2906  -20.3287 C   0  0  0  0  0  0  0  0  0  0  0  0
   27.4908  -12.6297  -21.5279 O   0  0  0  0  0  0  0  0  0  0  0  0
   31.6210  -10.1470  -19.6924 C   0  0  0  0  0  0  0  0  0  0  0  0
   32.7381   -9.6944  -19.0127 C   0  0  0  0  0  0  0  0  0  0  0  0
   20.9023  -15.2807  -20.5756 C   0  0  0  0  0  0  0  0  0  0  0  0
   22.5043  -15.0072  -19.7290 S   0  0  0  0  0  0  0  0  0  0  0  0
   22.8154  -13.2190  -19.6222 C   0  0  0  0  0  0  0  0  0  0  0  0
   24.1604  -12.9691  -18.9813 C   0  0  0  0  0  0  0  0  0  0  0  0
   25.0808  -12.4000  -20.0471 C   0  0  2  0  0  0  0  0  0  0  0  0
   26.4194  -12.1604  -19.5587 N   0  0  0  0  0  0  0  0  0  0  0  0
   24.5518  -11.1212  -20.5821 C   0  0  0  0  0  0  0  0  0  0  0  0
   25.1183  -10.0626  -20.2327 O   0  0  0  0  0  0  0  0  0  0  0  0
   23.4719  -11.0267  -21.4424 O   0  0  0  0  0  0  0  0  0  0  0  0
  2  1  1  1
  3  2  1  0
  4  2  1  0
  4 13  1  0
  5  4  2  0
  7  8  2  0
  7  6  1  0
  9  8  1  0
 10  9  2  0
 11 10  1  0
 12 11  1  6
 12 13  1  0
 14 12  1  0
 15 14  2  0
 16 10  1  0
 16 17  2  0
 17  7  1  0
 19 20  1  0
 19 18  1  0
 20 21  1  0
 22 21  1  1
 22 23  1  0
 22 24  1  0
 23 14  1  0
 24 26  1  0
 25 24  2  0
M  END
$$$$
