AYM.pdb
     RDKit          3D

 26 26  0  0  1  0  0  0  0  0999 V2000
   24.4498  -18.1357  -16.5655 C   0  0  0  0  0  0  0  0  0  0  0  0
   25.2906  -18.7205  -15.4196 C   0  0  2  0  0  0  0  0  0  0  0  0
   26.4919  -19.2073  -16.0250 N   0  0  0  0  0  0  0  0  0  0  0  0
   24.4781  -19.8050  -14.8126 C   0  0  0  0  0  0  0  0  0  0  0  0
   24.4661  -20.9396  -15.3628 O   0  0  0  0  0  0  0  0  0  0  0  0
   28.0967  -21.5274   -9.0989 O   0  0  0  0  0  0  0  0  0  0  0  0
   26.8681  -21.3462   -9.7218 C   0  0  0  0  0  0  0  0  0  0  0  0
   26.6269  -21.8504  -10.9733 C   0  0  0  0  0  0  0  0  0  0  0  0
   25.3981  -21.6598  -11.5757 C   0  0  0  0  0  0  0  0  0  0  0  0
   24.3757  -20.9697  -10.9643 C   0  0  0  0  0  0  0  0  0  0  0  0
   23.0573  -20.7343  -11.5408 C   0  0  0  0  0  0  0  0  0  0  0  0
   23.0242  -20.7330  -13.0440 C   0  0  2  0  0  0  0  0  0  0  0  0
   23.7078  -19.6335  -13.6373 N   0  0  0  0  0  0  0  0  0  0  0  0
   21.5973  -20.6996  -13.4417 C   0  0  0  0  0  0  0  0  0  0  0  0
   20.9925  -19.6042  -13.4368 O   0  0  0  0  0  0  0  0  0  0  0  0
   24.6388  -20.4707   -9.7056 C   0  0  0  0  0  0  0  0  0  0  0  0
   25.8602  -20.6469   -9.0796 C   0  0  0  0  0  0  0  0  0  0  0  0
   15.4897  -24.2441  -17.0252 C   0  0  0  0  0  0  0  0  0  0  0  0
   17.2345  -24.4303  -16.4973 S   0  0  0  0  0  0  0  0  0  0  0  0
   17.7349  -22.9399  -15.5840 C   0  0  0  0  0  0  0  0  0  0  0  0
   19.1833  -23.0535  -15.1697 C   0  0  0  0  0  0  0  0  0  0  0  0
   19.5010  -21.8696  -14.2729 C   0  0  2  0  0  0  0  0  0  0  0  0
   20.8766  -21.8575  -13.8310 N   0  0  0  0  0  0  0  0  0  0  0  0
   18.6324  -21.8626  -13.0700 C   0  0  0  0  0  0  0  0  0  0  0  0
   17.5324  -21.2729  -13.1470 O   0  0  0  0  0  0  0  0  0  0  0  0
   18.9628  -22.4671  -11.8699 O   0  0  0  0  0  0  0  0  0  0  0  0
  2  1  1  6
  3  2  1  0
  4  2  1  0
  4 13  1  0
  5  4  2  0
  7  8  2  0
  7  6  1  0
  9  8  1  0
 10  9  2  0
 11 10  1  0
 12 11  1  1
 12 13  1  0
 14 12  1  0
 15 14  2  0
 16 10  1  0
 16 17  2  0
 17  7  1  0
 19 20  1  0
 19 18  1  0
 20 21  1  0
 22 21  1  1
 22 23  1  0
 22 24  1  0
 23 14  1  0
 24 26  1  0
 25 24  2  0
M  END
$$$$
