AYM.pdb
     RDKit          3D

 26 26  0  0  1  0  0  0  0  0999 V2000
   19.4574  -18.6938  -17.5935 C   0  0  0  0  0  0  0  0  0  0  0  0
   19.0988  -19.3253  -16.2390 C   0  0  2  0  0  0  0  0  0  0  0  0
   18.0271  -18.5380  -15.7118 N   0  0  0  0  0  0  0  0  0  0  0  0
   20.3241  -19.2529  -15.4035 C   0  0  0  0  0  0  0  0  0  0  0  0
   20.8649  -18.1304  -15.2092 O   0  0  0  0  0  0  0  0  0  0  0  0
   26.9608  -20.7197   -9.8601 O   0  0  0  0  0  0  0  0  0  0  0  0
   25.8532  -20.9060  -10.6779 C   0  0  0  0  0  0  0  0  0  0  0  0
   25.9043  -21.7460  -11.7597 C   0  0  0  0  0  0  0  0  0  0  0  0
   24.7915  -21.9181  -12.5606 C   0  0  0  0  0  0  0  0  0  0  0  0
   23.6012  -21.2699  -12.3192 C   0  0  0  0  0  0  0  0  0  0  0  0
   22.3911  -21.4071  -13.1208 C   0  0  0  0  0  0  0  0  0  0  0  0
   22.1391  -20.2693  -14.0710 C   0  0  2  0  0  0  0  0  0  0  0  0
   20.9252  -20.3870  -14.8062 N   0  0  0  0  0  0  0  0  0  0  0  0
   23.2839  -20.2337  -15.0108 C   0  0  0  0  0  0  0  0  0  0  0  0
   23.3410  -21.0827  -15.9284 O   0  0  0  0  0  0  0  0  0  0  0  0
   23.5709  -20.4294  -11.2259 C   0  0  0  0  0  0  0  0  0  0  0  0
   24.6704  -20.2388  -10.4077 C   0  0  0  0  0  0  0  0  0  0  0  0
   29.7539  -16.4940  -17.6938 C   0  0  0  0  0  0  0  0  0  0  0  0
   28.2335  -16.3379  -16.6830 S   0  0  0  0  0  0  0  0  0  0  0  0
   27.3587  -17.9319  -16.6862 C   0  0  0  0  0  0  0  0  0  0  0  0
   26.2199  -17.8948  -15.6942 C   0  0  0  0  0  0  0  0  0  0  0  0
   25.4714  -19.2120  -15.8015 C   0  0  2  0  0  0  0  0  0  0  0  0
   24.3272  -19.2771  -14.9216 N   0  0  0  0  0  0  0  0  0  0  0  0
   26.3593  -20.3580  -15.4853 C   0  0  0  0  0  0  0  0  0  0  0  0
   26.5631  -20.6243  -14.2807 O   0  0  0  0  0  0  0  0  0  0  0  0
   26.9751  -21.1496  -16.4388 O   0  0  0  0  0  0  0  0  0  0  0  0
  2  1  1  6
  3  2  1  0
  4  2  1  0
  4 13  1  0
  5  4  2  0
  7  8  2  0
  7  6  1  0
  9  8  1  0
 10  9  2  0
 11 10  1  0
 12 11  1  1
 12 13  1  0
 14 12  1  0
 15 14  2  0
 16 10  1  0
 16 17  2  0
 17  7  1  0
 19 20  1  0
 19 18  1  0
 20 21  1  0
 22 21  1  1
 22 23  1  0
 22 24  1  0
 23 14  1  0
 24 26  1  0
 25 24  2  0
M  END
$$$$
