AYM.pdb
     RDKit          3D

 26 26  0  0  1  0  0  0  0  0999 V2000
   29.1338  -19.4931  -14.2976 C   0  0  0  0  0  0  0  0  0  0  0  0
   27.7394  -19.9690  -14.7348 C   0  0  2  0  0  0  0  0  0  0  0  0
   27.3934  -19.1732  -15.8721 N   0  0  0  0  0  0  0  0  0  0  0  0
   26.8347  -19.7374  -13.5804 C   0  0  0  0  0  0  0  0  0  0  0  0
   26.5517  -18.5525  -13.2549 O   0  0  0  0  0  0  0  0  0  0  0  0
   20.7325  -18.9821  -15.9612 O   0  0  0  0  0  0  0  0  0  0  0  0
   21.5309  -19.4985  -14.9483 C   0  0  0  0  0  0  0  0  0  0  0  0
   21.5609  -18.9212  -13.7056 C   0  0  0  0  0  0  0  0  0  0  0  0
   22.3615  -19.4501  -12.7113 C   0  0  0  0  0  0  0  0  0  0  0  0
   23.1522  -20.5590  -12.9124 C   0  0  0  0  0  0  0  0  0  0  0  0
   24.0168  -21.1687  -11.9091 C   0  0  0  0  0  0  0  0  0  0  0  0
   25.3582  -20.5070  -11.7554 C   0  0  2  0  0  0  0  0  0  0  0  0
   26.2661  -20.7851  -12.8168 N   0  0  0  0  0  0  0  0  0  0  0  0
   25.9307  -20.9896  -10.4770 C   0  0  0  0  0  0  0  0  0  0  0  0
   26.2806  -22.1874  -10.3838 O   0  0  0  0  0  0  0  0  0  0  0  0
   23.1074  -21.1248  -14.1696 C   0  0  0  0  0  0  0  0  0  0  0  0
   22.3149  -20.6154  -15.1831 C   0  0  0  0  0  0  0  0  0  0  0  0
   29.2289  -19.5013   -3.4525 C   0  0  0  0  0  0  0  0  0  0  0  0
   28.7559  -18.8078   -5.0814 S   0  0  0  0  0  0  0  0  0  0  0  0
   27.7344  -20.0252   -5.9648 C   0  0  0  0  0  0  0  0  0  0  0  0
   27.3929  -19.5064   -7.3419 C   0  0  0  0  0  0  0  0  0  0  0  0
   26.6072  -20.5891   -8.0611 C   0  0  2  0  0  0  0  0  0  0  0  0
   26.1033  -20.1545   -9.3437 N   0  0  0  0  0  0  0  0  0  0  0  0
   25.4542  -21.0435   -7.2452 C   0  0  0  0  0  0  0  0  0  0  0  0
   24.3145  -20.6454   -7.5712 O   0  0  0  0  0  0  0  0  0  0  0  0
   25.5610  -21.8792   -6.1474 O   0  0  0  0  0  0  0  0  0  0  0  0
  2  1  1  1
  3  2  1  0
  4  2  1  0
  4 13  1  0
  5  4  2  0
  7  8  2  0
  7  6  1  0
  9  8  1  0
 10  9  2  0
 11 10  1  0
 12 11  1  6
 12 13  1  0
 14 12  1  0
 15 14  2  0
 16 10  1  0
 16 17  2  0
 17  7  1  0
 19 20  1  0
 19 18  1  0
 20 21  1  0
 22 21  1  1
 22 23  1  0
 22 24  1  0
 23 14  1  0
 24 26  1  0
 25 24  2  0
M  END
$$$$
