AYM.pdb
     RDKit          3D

 26 26  0  0  1  0  0  0  0  0999 V2000
   28.2969  -26.3702  -16.5920 C   0  0  0  0  0  0  0  0  0  0  0  0
   29.4709  -26.0343  -17.5252 C   0  0  2  0  0  0  0  0  0  0  0  0
   29.0213  -24.9517  -18.3452 N   0  0  0  0  0  0  0  0  0  0  0  0
   29.7511  -27.2644  -18.3083 C   0  0  0  0  0  0  0  0  0  0  0  0
   29.0871  -27.4845  -19.3574 O   0  0  0  0  0  0  0  0  0  0  0  0
   34.0625  -26.0095  -23.2770 O   0  0  0  0  0  0  0  0  0  0  0  0
   33.6762  -26.8540  -22.2437 C   0  0  0  0  0  0  0  0  0  0  0  0
   34.0443  -26.6026  -20.9477 C   0  0  0  0  0  0  0  0  0  0  0  0
   33.6495  -27.4546  -19.9340 C   0  0  0  0  0  0  0  0  0  0  0  0
   32.8835  -28.5743  -20.1677 C   0  0  0  0  0  0  0  0  0  0  0  0
   32.4315  -29.5122  -19.1469 C   0  0  0  0  0  0  0  0  0  0  0  0
   30.9898  -29.3558  -18.7495 C   0  0  2  0  0  0  0  0  0  0  0  0
   30.7336  -28.2140  -17.9379 N   0  0  0  0  0  0  0  0  0  0  0  0
   30.6134  -30.5824  -18.0087 C   0  0  0  0  0  0  0  0  0  0  0  0
   30.9873  -30.7119  -16.8216 O   0  0  0  0  0  0  0  0  0  0  0  0
   32.5238  -28.8093  -21.4784 C   0  0  0  0  0  0  0  0  0  0  0  0
   32.9056  -27.9727  -22.5123 C   0  0  0  0  0  0  0  0  0  0  0  0
   25.0636  -35.9268  -16.7084 C   0  0  0  0  0  0  0  0  0  0  0  0
   25.5459  -34.3107  -17.4249 S   0  0  0  0  0  0  0  0  0  0  0  0
   27.3513  -34.1300  -17.3063 C   0  0  0  0  0  0  0  0  0  0  0  0
   27.7946  -32.8978  -18.0595 C   0  0  0  0  0  0  0  0  0  0  0  0
   29.2924  -32.7472  -17.8570 C   0  0  2  0  0  0  0  0  0  0  0  0
   29.8438  -31.6262  -18.5830 N   0  0  0  0  0  0  0  0  0  0  0  0
   30.0147  -33.9708  -18.2842 C   0  0  0  0  0  0  0  0  0  0  0  0
   30.6060  -33.9457  -19.3858 O   0  0  0  0  0  0  0  0  0  0  0  0
   30.0751  -35.1365  -17.5409 O   0  0  0  0  0  0  0  0  0  0  0  0
  2  1  1  1
  3  2  1  0
  4  2  1  0
  4 13  1  0
  5  4  2  0
  7  8  2  0
  7  6  1  0
  9  8  1  0
 10  9  2  0
 11 10  1  0
 12 11  1  1
 12 13  1  0
 14 12  1  0
 15 14  2  0
 16 10  1  0
 16 17  2  0
 17  7  1  0
 19 20  1  0
 19 18  1  0
 20 21  1  0
 22 21  1  6
 22 23  1  0
 22 24  1  0
 23 14  1  0
 24 26  1  0
 25 24  2  0
M  END
$$$$
