AYM.pdb
     RDKit          3D

 26 26  0  0  1  0  0  0  0  0999 V2000
   29.0353  -23.2618  -17.1923 C   0  0  0  0  0  0  0  0  0  0  0  0
   28.3401  -24.4486  -16.5066 C   0  0  2  0  0  0  0  0  0  0  0  0
   28.4348  -25.5414  -17.4249 N   0  0  0  0  0  0  0  0  0  0  0  0
   26.9367  -24.0297  -16.2616 C   0  0  0  0  0  0  0  0  0  0  0  0
   26.1169  -24.0525  -17.2195 O   0  0  0  0  0  0  0  0  0  0  0  0
   19.2050  -21.8450  -12.6840 O   0  0  0  0  0  0  0  0  0  0  0  0
   20.5417  -22.1839  -12.8530 C   0  0  0  0  0  0  0  0  0  0  0  0
   21.5406  -21.2876  -12.5752 C   0  0  0  0  0  0  0  0  0  0  0  0
   22.8642  -21.6441  -12.7495 C   0  0  0  0  0  0  0  0  0  0  0  0
   23.2398  -22.8893  -13.2008 C   0  0  0  0  0  0  0  0  0  0  0  0
   24.6143  -23.3307  -13.4047 C   0  0  0  0  0  0  0  0  0  0  0  0
   25.1059  -23.2087  -14.8204 C   0  0  2  0  0  0  0  0  0  0  0  0
   26.4632  -23.6016  -14.9980 N   0  0  0  0  0  0  0  0  0  0  0  0
   24.9487  -21.7874  -15.2081 C   0  0  0  0  0  0  0  0  0  0  0  0
   25.7424  -20.9406  -14.7404 O   0  0  0  0  0  0  0  0  0  0  0  0
   22.2195  -23.7762  -13.4745 C   0  0  0  0  0  0  0  0  0  0  0  0
   20.8862  -23.4452  -13.3089 C   0  0  0  0  0  0  0  0  0  0  0  0
   23.1787  -16.1236  -20.2379 C   0  0  0  0  0  0  0  0  0  0  0  0
   23.3787  -17.9258  -19.9739 S   0  0  0  0  0  0  0  0  0  0  0  0
   23.4960  -18.2494  -18.1886 C   0  0  0  0  0  0  0  0  0  0  0  0
   23.7225  -19.7234  -17.9476 C   0  0  0  0  0  0  0  0  0  0  0  0
   23.6993  -19.9545  -16.4466 C   0  0  2  0  0  0  0  0  0  0  0  0
   23.9348  -21.3349  -16.0906 N   0  0  0  0  0  0  0  0  0  0  0  0
   22.3975  -19.5459  -15.8635 C   0  0  0  0  0  0  0  0  0  0  0  0
   21.4795  -20.3944  -15.8314 O   0  0  0  0  0  0  0  0  0  0  0  0
   22.1359  -18.2863  -15.3537 O   0  0  0  0  0  0  0  0  0  0  0  0
  2  1  1  6
  3  2  1  0
  4  2  1  0
  4 13  1  0
  5  4  2  0
  7  8  2  0
  7  6  1  0
  9  8  1  0
 10  9  2  0
 11 10  1  0
 12 11  1  1
 12 13  1  0
 14 12  1  0
 15 14  2  0
 16 10  1  0
 16 17  2  0
 17  7  1  0
 19 20  1  0
 19 18  1  0
 20 21  1  0
 22 21  1  6
 22 23  1  0
 22 24  1  0
 23 14  1  0
 24 26  1  0
 25 24  2  0
M  END
$$$$
