FTL.pdb
     RDKit          3D

 27 27  0  0  1  0  0  0  0  0999 V2000
   16.1021  -10.7104  -12.1729 N   0  0  0  0  0  0  0  0  0  0  0  0
   15.1034   -9.8670  -11.5898 C   0  0  1  0  0  0  0  0  0  0  0  0
   14.5392  -10.4159  -10.3001 C   0  0  0  0  0  0  0  0  0  0  0  0
   13.5796  -11.4939  -10.6389 C   0  0  0  0  0  0  0  0  0  0  0  0
   14.0125  -12.7963  -10.6266 C   0  0  0  0  0  0  0  0  0  0  0  0
   13.1085  -13.7892  -10.9441 C   0  0  0  0  0  0  0  0  0  0  0  0
   11.7879  -13.4666  -11.2687 C   0  0  0  0  0  0  0  0  0  0  0  0
   11.3778  -12.1594  -11.2747 C   0  0  0  0  0  0  0  0  0  0  0  0
   12.2771  -11.1843  -10.9598 C   0  0  0  0  0  0  0  0  0  0  0  0
   15.6729   -8.5310  -11.3187 C   0  0  0  0  0  0  0  0  0  0  0  0
   16.7610   -8.4420  -10.6960 O   0  0  0  0  0  0  0  0  0  0  0  0
   16.7671   -6.0602  -13.6252 C   0  0  0  0  0  0  0  0  0  0  0  0
   15.7836   -5.3056  -12.7595 C   0  0  1  0  0  0  0  0  0  0  0  0
   14.6293   -5.1278  -13.5090 O   0  0  0  0  0  0  0  0  0  0  0  0
   15.5471   -6.0390  -11.4800 C   0  0  2  0  0  0  0  0  0  0  0  0
   15.0123   -7.3693  -11.7483 N   0  0  0  0  0  0  0  0  0  0  0  0
   14.6603   -5.2807  -10.5784 C   0  0  0  0  0  0  0  0  0  0  0  0
   13.5742   -5.7527  -10.1479 O   0  0  0  0  0  0  0  0  0  0  0  0
   12.6117   -3.9819   -6.0086 C   0  0  0  0  0  0  0  0  0  0  0  0
   13.2332   -3.0139   -7.0240 C   0  0  1  0  0  0  0  0  0  0  0  0
   13.9219   -1.9347   -6.2743 C   0  0  0  0  0  0  0  0  0  0  0  0
   14.0430   -3.7705   -8.0113 C   0  0  0  0  0  0  0  0  0  0  0  0
   14.2725   -3.1225   -9.3279 C   0  0  2  0  0  0  0  0  0  0  0  0
   15.0365   -3.9793  -10.1804 N   0  0  0  0  0  0  0  0  0  0  0  0
   14.9066   -1.7797   -9.1678 C   0  0  0  0  0  0  0  0  0  0  0  0
   16.1480   -1.6681   -9.0340 O   0  0  0  0  0  0  0  0  0  0  0  0
   14.1403   -0.6278   -9.1633 O   0  0  0  0  0  0  0  0  0  0  0  0
  2  1  1  1
  2  3  1  0
  4  9  2  0
  4  3  1  0
  5  4  1  0
  6  7  1  0
  6  5  2  0
  7  8  2  0
  8  9  1  0
 10  2  1  0
 11 10  2  0
 13 15  1  0
 13 12  1  6
 14 13  1  0
 15 16  1  6
 16 10  1  0
 17 24  1  0
 17 15  1  0
 18 17  2  0
 20 19  1  1
 21 20  1  0
 23 22  1  1
 22 20  1  0
 23 24  1  0
 25 23  1  0
 26 25  2  0
 27 25  1  0
M  END
$$$$
