FTL.pdb
     RDKit          3D

 27 27  0  0  1  0  0  0  0  0999 V2000
   21.9608  -20.6624  -13.5776 N   0  0  0  0  0  0  0  0  0  0  0  0
   23.3397  -20.2784  -13.5791 C   0  0  1  0  0  0  0  0  0  0  0  0
   23.6838  -19.2981  -14.6761 C   0  0  0  0  0  0  0  0  0  0  0  0
   23.4091  -19.9495  -15.9790 C   0  0  0  0  0  0  0  0  0  0  0  0
   22.1215  -19.9679  -16.4539 C   0  0  0  0  0  0  0  0  0  0  0  0
   21.8806  -20.5778  -17.6680 C   0  0  0  0  0  0  0  0  0  0  0  0
   22.9279  -21.1592  -18.3881 C   0  0  0  0  0  0  0  0  0  0  0  0
   24.2056  -21.1290  -17.8946 C   0  0  0  0  0  0  0  0  0  0  0  0
   24.4353  -20.5245  -16.6944 C   0  0  0  0  0  0  0  0  0  0  0  0
   23.6903  -19.6675  -12.2804 C   0  0  0  0  0  0  0  0  0  0  0  0
   23.1712  -18.5692  -11.9583 O   0  0  0  0  0  0  0  0  0  0  0  0
   22.1410  -19.6806  -10.1253 C   0  0  0  0  0  0  0  0  0  0  0  0
   23.2469  -20.4105   -9.3971 C   0  0  1  0  0  0  0  0  0  0  0  0
   22.9663  -21.7670   -9.4782 O   0  0  0  0  0  0  0  0  0  0  0  0
   24.5765  -20.0492   -9.9738 C   0  0  2  0  0  0  0  0  0  0  0  0
   24.5922  -20.3002  -11.4106 N   0  0  0  0  0  0  0  0  0  0  0  0
   25.6724  -20.7665   -9.2962 C   0  0  0  0  0  0  0  0  0  0  0  0
   26.7350  -21.0899   -9.8911 O   0  0  0  0  0  0  0  0  0  0  0  0
   28.9405  -18.0033   -7.1457 C   0  0  0  0  0  0  0  0  0  0  0  0
   28.4076  -19.3868   -7.5408 C   0  0  1  0  0  0  0  0  0  0  0  0
   29.4786  -20.3838   -7.2953 C   0  0  0  0  0  0  0  0  0  0  0  0
   27.0987  -19.6293   -6.8843 C   0  0  0  0  0  0  0  0  0  0  0  0
   26.5628  -21.0130   -6.9471 C   0  0  2  0  0  0  0  0  0  0  0  0
   25.5311  -21.1053   -7.9328 N   0  0  0  0  0  0  0  0  0  0  0  0
   26.0997  -21.4763   -5.6048 C   0  0  0  0  0  0  0  0  0  0  0  0
   24.8886  -21.4143   -5.2873 O   0  0  0  0  0  0  0  0  0  0  0  0
   26.9949  -21.9843   -4.6804 O   0  0  0  0  0  0  0  0  0  0  0  0
  2  1  1  1
  2  3  1  0
  4  9  2  0
  4  3  1  0
  5  4  1  0
  6  7  1  0
  6  5  2  0
  7  8  2  0
  8  9  1  0
 10  2  1  0
 11 10  2  0
 13 15  1  0
 13 12  1  6
 14 13  1  0
 15 16  1  6
 16 10  1  0
 17 24  1  0
 17 15  1  0
 18 17  2  0
 20 19  1  1
 21 20  1  0
 23 22  1  1
 22 20  1  0
 23 24  1  0
 25 23  1  0
 26 25  2  0
 27 25  1  0
M  END
$$$$
