FTL.pdb
     RDKit          3D

 27 27  0  0  1  0  0  0  0  0999 V2000
   28.3498  -21.6971   -9.1256 N   0  0  0  0  0  0  0  0  0  0  0  0
   27.0772  -21.0490   -9.0305 C   0  0  1  0  0  0  0  0  0  0  0  0
   27.1333  -19.7316   -8.2930 C   0  0  0  0  0  0  0  0  0  0  0  0
   27.6331  -19.9921   -6.9219 C   0  0  0  0  0  0  0  0  0  0  0  0
   26.7306  -20.0791   -5.8915 C   0  0  0  0  0  0  0  0  0  0  0  0
   27.2100  -20.3219   -4.6206 C   0  0  0  0  0  0  0  0  0  0  0  0
   28.5815  -20.4738   -4.3986 C   0  0  0  0  0  0  0  0  0  0  0  0
   29.4642  -20.3830   -5.4423 C   0  0  0  0  0  0  0  0  0  0  0  0
   28.9826  -20.1429   -6.6949 C   0  0  0  0  0  0  0  0  0  0  0  0
   26.5384  -20.8034  -10.3841 C   0  0  0  0  0  0  0  0  0  0  0  0
   27.3272  -20.7663  -11.3617 O   0  0  0  0  0  0  0  0  0  0  0  0
   26.4814  -21.7828  -12.8165 C   0  0  0  0  0  0  0  0  0  0  0  0
   24.9775  -21.6324  -12.7757 C   0  0  1  0  0  0  0  0  0  0  0  0
   24.4565  -22.8375  -12.3261 O   0  0  0  0  0  0  0  0  0  0  0  0
   24.5938  -20.4698  -11.9201 C   0  0  2  0  0  0  0  0  0  0  0  0
   25.1622  -20.6126  -10.5843 N   0  0  0  0  0  0  0  0  0  0  0  0
   23.1300  -20.3024  -11.8605 C   0  0  0  0  0  0  0  0  0  0  0  0
   22.4657  -20.5476  -10.8182 O   0  0  0  0  0  0  0  0  0  0  0  0
   20.6946  -16.7489  -15.6486 C   0  0  0  0  0  0  0  0  0  0  0  0
   20.9824  -17.3675  -14.2743 C   0  0  1  0  0  0  0  0  0  0  0  0
   20.2576  -16.5773  -13.2490 C   0  0  0  0  0  0  0  0  0  0  0  0
   20.7153  -18.8270  -14.3125 C   0  0  0  0  0  0  0  0  0  0  0  0
   21.0380  -19.6004  -13.0862 C   0  0  2  0  0  0  0  0  0  0  0  0
   22.4434  -19.8519  -13.0091 N   0  0  0  0  0  0  0  0  0  0  0  0
   20.2376  -20.8593  -13.0132 C   0  0  0  0  0  0  0  0  0  0  0  0
   19.0732  -20.8533  -12.5487 O   0  0  0  0  0  0  0  0  0  0  0  0
   20.7609  -22.0610  -13.4557 O   0  0  0  0  0  0  0  0  0  0  0  0
  2  1  1  6
  2  3  1  0
  4  9  2  0
  4  3  1  0
  5  4  1  0
  6  7  1  0
  6  5  2  0
  7  8  2  0
  8  9  1  0
 10  2  1  0
 11 10  2  0
 13 15  1  0
 13 12  1  1
 14 13  1  0
 15 16  1  1
 16 10  1  0
 17 24  1  0
 17 15  1  0
 18 17  2  0
 20 19  1  6
 21 20  1  0
 23 22  1  6
 22 20  1  0
 23 24  1  0
 25 23  1  0
 26 25  2  0
 27 25  1  0
M  END
$$$$
