FTL.pdb
     RDKit          3D

 27 27  0  0  1  0  0  0  0  0999 V2000
   23.1742  -12.8451  -17.7623 N   0  0  0  0  0  0  0  0  0  0  0  0
   23.3569  -12.1222  -16.5405 C   0  0  1  0  0  0  0  0  0  0  0  0
   24.7922  -11.7182  -16.2964 C   0  0  0  0  0  0  0  0  0  0  0  0
   25.5933  -12.9521  -16.1137 C   0  0  0  0  0  0  0  0  0  0  0  0
   25.6272  -13.5447  -14.8762 C   0  0  0  0  0  0  0  0  0  0  0  0
   26.3771  -14.6925  -14.7208 C   0  0  0  0  0  0  0  0  0  0  0  0
   27.0806  -15.2301  -15.8022 C   0  0  0  0  0  0  0  0  0  0  0  0
   27.0323  -14.6215  -17.0287 C   0  0  0  0  0  0  0  0  0  0  0  0
   26.2892  -13.4879  -17.1740 C   0  0  0  0  0  0  0  0  0  0  0  0
   22.5242  -10.9018  -16.5519 C   0  0  0  0  0  0  0  0  0  0  0  0
   22.3207  -10.3073  -17.6403 O   0  0  0  0  0  0  0  0  0  0  0  0
   18.9806   -8.1859  -14.7972 C   0  0  0  0  0  0  0  0  0  0  0  0
   19.8175   -9.4449  -14.7734 C   0  0  1  0  0  0  0  0  0  0  0  0
   19.1133  -10.4191  -15.4668 O   0  0  0  0  0  0  0  0  0  0  0  0
   21.1723   -9.1800  -15.3438 C   0  0  2  0  0  0  0  0  0  0  0  0
   21.9631  -10.4055  -15.3648 N   0  0  0  0  0  0  0  0  0  0  0  0
   21.8690   -8.1095  -14.6070 C   0  0  0  0  0  0  0  0  0  0  0  0
   22.8004   -8.3482  -13.7926 O   0  0  0  0  0  0  0  0  0  0  0  0
   22.5614   -4.1143  -16.8474 C   0  0  0  0  0  0  0  0  0  0  0  0
   23.4341   -5.2987  -16.4115 C   0  0  1  0  0  0  0  0  0  0  0  0
   24.7493   -5.1791  -17.0875 C   0  0  0  0  0  0  0  0  0  0  0  0
   23.4448   -5.3989  -14.9307 C   0  0  0  0  0  0  0  0  0  0  0  0
   22.1366   -5.6230  -14.2641 C   0  0  2  0  0  0  0  0  0  0  0  0
   21.4829   -6.7678  -14.8177 N   0  0  0  0  0  0  0  0  0  0  0  0
   21.2794   -4.4015  -14.3281 C   0  0  0  0  0  0  0  0  0  0  0  0
   21.5979   -3.3609  -13.7059 O   0  0  0  0  0  0  0  0  0  0  0  0
   20.1148   -4.3888  -15.0746 O   0  0  0  0  0  0  0  0  0  0  0  0
  2  1  1  6
  2  3  1  0
  4  9  2  0
  4  3  1  0
  5  4  1  0
  6  7  1  0
  6  5  2  0
  7  8  2  0
  8  9  1  0
 10  2  1  0
 11 10  2  0
 13 15  1  0
 13 12  1  6
 14 13  1  0
 15 16  1  1
 16 10  1  0
 17 24  1  0
 17 15  1  0
 18 17  2  0
 20 19  1  1
 21 20  1  0
 23 22  1  6
 22 20  1  0
 23 24  1  0
 25 23  1  0
 26 25  2  0
 27 25  1  0
M  END
$$$$
