FTL.pdb
     RDKit          3D

 27 27  0  0  1  0  0  0  0  0999 V2000
   25.6926   -8.7671  -18.6354 N   0  0  0  0  0  0  0  0  0  0  0  0
   24.9721   -8.4618  -17.4369 C   0  0  1  0  0  0  0  0  0  0  0  0
   25.8704   -8.2361  -16.2431 C   0  0  0  0  0  0  0  0  0  0  0  0
   26.6443   -9.4783  -16.0075 C   0  0  0  0  0  0  0  0  0  0  0  0
   26.0794  -10.4807  -15.2593 C   0  0  0  0  0  0  0  0  0  0  0  0
   26.8112  -11.6313  -15.0480 C   0  0  0  0  0  0  0  0  0  0  0  0
   28.0942  -11.7628  -15.5864 C   0  0  0  0  0  0  0  0  0  0  0  0
   28.6382  -10.7491  -16.3303 C   0  0  0  0  0  0  0  0  0  0  0  0
   27.9087   -9.6156  -16.5345 C   0  0  0  0  0  0  0  0  0  0  0  0
   24.1532   -7.2490  -17.6406 C   0  0  0  0  0  0  0  0  0  0  0  0
   24.6586   -6.2578  -18.2249 O   0  0  0  0  0  0  0  0  0  0  0  0
   21.8899   -6.5227  -19.8954 C   0  0  0  0  0  0  0  0  0  0  0  0
   21.0723   -6.3516  -18.6351 C   0  0  1  0  0  0  0  0  0  0  0  0
   20.3258   -7.5096  -18.4698 O   0  0  0  0  0  0  0  0  0  0  0  0
   21.9629   -6.0548  -17.4734 C   0  0  2  0  0  0  0  0  0  0  0  0
   22.8251   -7.1966  -17.1894 N   0  0  0  0  0  0  0  0  0  0  0  0
   21.1857   -5.6655  -16.2822 C   0  0  0  0  0  0  0  0  0  0  0  0
   21.0447   -6.4298  -15.2904 O   0  0  0  0  0  0  0  0  0  0  0  0
   20.3900   -0.0935  -15.3759 C   0  0  0  0  0  0  0  0  0  0  0  0
   20.7546   -1.5561  -15.0893 C   0  0  1  0  0  0  0  0  0  0  0  0
   21.3869   -1.6224  -13.7488 C   0  0  0  0  0  0  0  0  0  0  0  0
   19.5734   -2.4247  -15.3203 C   0  0  0  0  0  0  0  0  0  0  0  0
   19.7779   -3.8883  -15.1726 C   0  0  2  0  0  0  0  0  0  0  0  0
   20.5758   -4.3926  -16.2465 N   0  0  0  0  0  0  0  0  0  0  0  0
   18.4746   -4.6085  -15.0555 C   0  0  0  0  0  0  0  0  0  0  0  0
   17.9448   -5.1434  -16.0578 O   0  0  0  0  0  0  0  0  0  0  0  0
   17.8213   -4.7026  -13.8396 O   0  0  0  0  0  0  0  0  0  0  0  0
  2  1  1  6
  2  3  1  0
  4  9  2  0
  4  3  1  0
  5  4  1  0
  6  7  1  0
  6  5  2  0
  7  8  2  0
  8  9  1  0
 10  2  1  0
 11 10  2  0
 13 15  1  0
 13 12  1  6
 14 13  1  0
 15 16  1  1
 16 10  1  0
 17 24  1  0
 17 15  1  0
 18 17  2  0
 20 19  1  1
 21 20  1  0
 23 22  1  6
 22 20  1  0
 23 24  1  0
 25 23  1  0
 26 25  2  0
 27 25  1  0
M  END
$$$$
