FTL.pdb
     RDKit          3D

 27 27  0  0  1  0  0  0  0  0999 V2000
   23.1972  -30.0987    5.8108 N   0  0  0  0  0  0  0  0  0  0  0  0
   24.5154  -30.1360    6.3671 C   0  0  1  0  0  0  0  0  0  0  0  0
   25.5349  -29.3954    5.5336 C   0  0  0  0  0  0  0  0  0  0  0  0
   26.0257  -30.3162    4.4805 C   0  0  0  0  0  0  0  0  0  0  0  0
   27.0544  -31.1752    4.7763 C   0  0  0  0  0  0  0  0  0  0  0  0
   27.5011  -32.0265    3.7865 C   0  0  0  0  0  0  0  0  0  0  0  0
   26.9143  -32.0068    2.5182 C   0  0  0  0  0  0  0  0  0  0  0  0
   25.8885  -31.1407    2.2453 C   0  0  0  0  0  0  0  0  0  0  0  0
   25.4530  -30.3028    3.2286 C   0  0  0  0  0  0  0  0  0  0  0  0
   24.5036  -29.5470    7.7220 C   0  0  0  0  0  0  0  0  0  0  0  0
   23.7311  -28.5865    7.9673 O   0  0  0  0  0  0  0  0  0  0  0  0
   25.6090  -30.0121   12.4804 C   0  0  0  0  0  0  0  0  0  0  0  0
   25.6811  -30.5624   11.0739 C   0  0  1  0  0  0  0  0  0  0  0  0
   24.8386  -31.6637   11.0204 O   0  0  0  0  0  0  0  0  0  0  0  0
   25.3284  -29.5029   10.0819 C   0  0  2  0  0  0  0  0  0  0  0  0
   25.3428  -30.0485    8.7292 N   0  0  0  0  0  0  0  0  0  0  0  0
   26.2239  -28.3369   10.1951 C   0  0  0  0  0  0  0  0  0  0  0  0
   27.4090  -28.3535    9.7673 O   0  0  0  0  0  0  0  0  0  0  0  0
   27.1699  -23.0558    9.5969 C   0  0  0  0  0  0  0  0  0  0  0  0
   26.3709  -23.4497   10.8461 C   0  0  1  0  0  0  0  0  0  0  0  0
   25.4853  -22.3155   11.2071 C   0  0  0  0  0  0  0  0  0  0  0  0
   25.7237  -24.7687   10.6354 C   0  0  0  0  0  0  0  0  0  0  0  0
   26.5059  -25.9697   11.0248 C   0  0  2  0  0  0  0  0  0  0  0  0
   25.7416  -27.1576   10.8036 N   0  0  0  0  0  0  0  0  0  0  0  0
   26.9897  -25.8678   12.4342 C   0  0  0  0  0  0  0  0  0  0  0  0
   28.1137  -25.3766   12.6929 O   0  0  0  0  0  0  0  0  0  0  0  0
   26.2103  -26.3124   13.4872 O   0  0  0  0  0  0  0  0  0  0  0  0
  2  1  1  6
  2  3  1  0
  4  9  2  0
  4  3  1  0
  5  4  1  0
  6  7  1  0
  6  5  2  0
  7  8  2  0
  8  9  1  0
 10  2  1  0
 11 10  2  0
 13 15  1  0
 13 12  1  1
 14 13  1  0
 15 16  1  6
 16 10  1  0
 17 24  1  0
 17 15  1  0
 18 17  2  0
 20 19  1  6
 21 20  1  0
 23 22  1  1
 22 20  1  0
 23 24  1  0
 25 23  1  0
 26 25  2  0
 27 25  1  0
M  END
$$$$
