FTL.pdb
     RDKit          3D

 27 27  0  0  1  0  0  0  0  0999 V2000
   24.6329  -18.9253  -15.0294 N   0  0  0  0  0  0  0  0  0  0  0  0
   23.7645  -18.0337  -15.7363 C   0  0  1  0  0  0  0  0  0  0  0  0
   22.3000  -18.3517  -15.5443 C   0  0  0  0  0  0  0  0  0  0  0  0
   21.9898  -19.5786  -16.3164 C   0  0  0  0  0  0  0  0  0  0  0  0
   21.6064  -19.4581  -17.6288 C   0  0  0  0  0  0  0  0  0  0  0  0
   21.3208  -20.6085  -18.3351 C   0  0  0  0  0  0  0  0  0  0  0  0
   21.4223  -21.8598  -17.7208 C   0  0  0  0  0  0  0  0  0  0  0  0
   21.8070  -21.9561  -16.4095 C   0  0  0  0  0  0  0  0  0  0  0  0
   22.0874  -20.8149  -15.7185 C   0  0  0  0  0  0  0  0  0  0  0  0
   24.0028  -16.6452  -15.2910 C   0  0  0  0  0  0  0  0  0  0  0  0
   24.8859  -16.4210  -14.4253 O   0  0  0  0  0  0  0  0  0  0  0  0
   25.9758  -14.8764  -15.4407 C   0  0  0  0  0  0  0  0  0  0  0  0
   24.9908  -13.9060  -16.0524 C   0  0  1  0  0  0  0  0  0  0  0  0
   25.1165  -14.0076  -17.4306 O   0  0  0  0  0  0  0  0  0  0  0  0
   23.6081  -14.1916  -15.5651 C   0  0  2  0  0  0  0  0  0  0  0  0
   23.2555  -15.5831  -15.8237 N   0  0  0  0  0  0  0  0  0  0  0  0
   22.6231  -13.2726  -16.1651 C   0  0  0  0  0  0  0  0  0  0  0  0
   21.9582  -13.5747  -17.1920 O   0  0  0  0  0  0  0  0  0  0  0  0
   18.6712  -10.8572  -17.5617 C   0  0  0  0  0  0  0  0  0  0  0  0
   18.8200  -11.0029  -16.0416 C   0  0  1  0  0  0  0  0  0  0  0  0
   17.5320  -11.4959  -15.4947 C   0  0  0  0  0  0  0  0  0  0  0  0
   20.0333  -11.7980  -15.7278 C   0  0  0  0  0  0  0  0  0  0  0  0
   21.3426  -11.1152  -15.8869 C   0  0  2  0  0  0  0  0  0  0  0  0
   22.4138  -12.0085  -15.5722 N   0  0  0  0  0  0  0  0  0  0  0  0
   21.4016   -9.8610  -15.0779 C   0  0  0  0  0  0  0  0  0  0  0  0
   21.7908   -9.8837  -13.8865 O   0  0  0  0  0  0  0  0  0  0  0  0
   21.0285   -8.6454  -15.6230 O   0  0  0  0  0  0  0  0  0  0  0  0
  2  1  1  1
  2  3  1  0
  4  9  2  0
  4  3  1  0
  5  4  1  0
  6  7  1  0
  6  5  2  0
  7  8  2  0
  8  9  1  0
 10  2  1  0
 11 10  2  0
 13 15  1  0
 13 12  1  1
 14 13  1  0
 15 16  1  6
 16 10  1  0
 17 24  1  0
 17 15  1  0
 18 17  2  0
 20 19  1  6
 21 20  1  0
 23 22  1  1
 22 20  1  0
 23 24  1  0
 25 23  1  0
 26 25  2  0
 27 25  1  0
M  END
$$$$
