FTL.pdb
     RDKit          3D

 27 27  0  0  1  0  0  0  0  0999 V2000
   35.4537  -37.6941   -9.7959 N   0  0  0  0  0  0  0  0  0  0  0  0
   34.7349  -36.5763   -9.2644 C   0  0  1  0  0  0  0  0  0  0  0  0
   34.0788  -35.7292  -10.3296 C   0  0  0  0  0  0  0  0  0  0  0  0
   35.1279  -34.9010  -10.9707 C   0  0  0  0  0  0  0  0  0  0  0  0
   35.9304  -35.4698  -11.9278 C   0  0  0  0  0  0  0  0  0  0  0  0
   36.9027  -34.6871  -12.5159 C   0  0  0  0  0  0  0  0  0  0  0  0
   37.0584  -33.3501  -12.1396 C   0  0  0  0  0  0  0  0  0  0  0  0
   36.2458  -32.8032  -11.1818 C   0  0  0  0  0  0  0  0  0  0  0  0
   35.2876  -33.5832  -10.6055 C   0  0  0  0  0  0  0  0  0  0  0  0
   33.6887  -37.0503   -8.3351 C   0  0  0  0  0  0  0  0  0  0  0  0
   33.5601  -38.2839   -8.1326 O   0  0  0  0  0  0  0  0  0  0  0  0
   33.7025  -36.6757   -5.0128 C   0  0  0  0  0  0  0  0  0  0  0  0
   32.5512  -37.4233   -5.6465 C   0  0  1  0  0  0  0  0  0  0  0  0
   31.7011  -37.8132   -4.6214 O   0  0  0  0  0  0  0  0  0  0  0  0
   31.8812  -36.5722   -6.6749 C   0  0  2  0  0  0  0  0  0  0  0  0
   32.8438  -36.1394   -7.6817 N   0  0  0  0  0  0  0  0  0  0  0  0
   31.1988  -35.4185   -6.0603 C   0  0  0  0  0  0  0  0  0  0  0  0
   31.8186  -34.3813   -5.7026 O   0  0  0  0  0  0  0  0  0  0  0  0
   26.3672  -34.0021   -8.2097 C   0  0  0  0  0  0  0  0  0  0  0  0
   27.7516  -33.8669   -7.5621 C   0  0  1  0  0  0  0  0  0  0  0  0
   28.2282  -32.4777   -7.7722 C   0  0  0  0  0  0  0  0  0  0  0  0
   27.7034  -34.3577   -6.1622 C   0  0  0  0  0  0  0  0  0  0  0  0
   28.9875  -34.3855   -5.4164 C   0  0  2  0  0  0  0  0  0  0  0  0
   29.8018  -35.4725   -5.8633 N   0  0  0  0  0  0  0  0  0  0  0  0
   28.7567  -34.4264   -3.9413 C   0  0  0  0  0  0  0  0  0  0  0  0
   28.8518  -35.5033   -3.3067 O   0  0  0  0  0  0  0  0  0  0  0  0
   28.4328  -33.2785   -3.2404 O   0  0  0  0  0  0  0  0  0  0  0  0
  2  1  1  6
  2  3  1  0
  4  9  2  0
  4  3  1  0
  5  4  1  0
  6  7  1  0
  6  5  2  0
  7  8  2  0
  8  9  1  0
 10  2  1  0
 11 10  2  0
 13 15  1  0
 13 12  1  1
 14 13  1  0
 15 16  1  6
 16 10  1  0
 17 24  1  0
 17 15  1  0
 18 17  2  0
 20 19  1  1
 21 20  1  0
 23 22  1  6
 22 20  1  0
 23 24  1  0
 25 23  1  0
 26 25  2  0
 27 25  1  0
M  END
$$$$
