FTL.pdb
     RDKit          3D

 27 27  0  0  1  0  0  0  0  0999 V2000
   28.9848  -18.3720  -18.8719 N   0  0  0  0  0  0  0  0  0  0  0  0
   28.2810  -19.4095  -18.1813 C   0  0  1  0  0  0  0  0  0  0  0  0
   29.1439  -20.6104  -17.8715 C   0  0  0  0  0  0  0  0  0  0  0  0
   29.4004  -21.3331  -19.1402 C   0  0  0  0  0  0  0  0  0  0  0  0
   28.4210  -22.1487  -19.6494 C   0  0  0  0  0  0  0  0  0  0  0  0
   28.6736  -22.8153  -20.8309 C   0  0  0  0  0  0  0  0  0  0  0  0
   29.8986  -22.6572  -21.4847 C   0  0  0  0  0  0  0  0  0  0  0  0
   30.8618  -21.8377  -20.9579 C   0  0  0  0  0  0  0  0  0  0  0  0
   30.6046  -21.1827  -19.7903 C   0  0  0  0  0  0  0  0  0  0  0  0
   27.7370  -18.8856  -16.9115 C   0  0  0  0  0  0  0  0  0  0  0  0
   28.1184  -17.7621  -16.4971 O   0  0  0  0  0  0  0  0  0  0  0  0
   25.9481  -16.9303  -16.4450 C   0  0  0  0  0  0  0  0  0  0  0  0
   25.1164  -17.9524  -15.7036 C   0  0  1  0  0  0  0  0  0  0  0  0
   24.1774  -18.4448  -16.5988 O   0  0  0  0  0  0  0  0  0  0  0  0
   25.9921  -19.0153  -15.1254 C   0  0  2  0  0  0  0  0  0  0  0  0
   26.8046  -19.6283  -16.1703 N   0  0  0  0  0  0  0  0  0  0  0  0
   25.2044  -20.0291  -14.4001 C   0  0  0  0  0  0  0  0  0  0  0  0
   24.8087  -21.0930  -14.9473 O   0  0  0  0  0  0  0  0  0  0  0  0
   26.3663  -20.3007   -9.0812 C   0  0  0  0  0  0  0  0  0  0  0  0
   26.0734  -20.6291  -10.5511 C   0  0  1  0  0  0  0  0  0  0  0  0
   26.7740  -21.8914  -10.8929 C   0  0  0  0  0  0  0  0  0  0  0  0
   24.6102  -20.5836  -10.7959 C   0  0  0  0  0  0  0  0  0  0  0  0
   24.1615  -20.7136  -12.2057 C   0  0  2  0  0  0  0  0  0  0  0  0
   24.8790  -19.8049  -13.0446 N   0  0  0  0  0  0  0  0  0  0  0  0
   22.6829  -20.5371  -12.3224 C   0  0  0  0  0  0  0  0  0  0  0  0
   22.1973  -19.4713  -12.7694 O   0  0  0  0  0  0  0  0  0  0  0  0
   21.8145  -21.5440  -11.9404 O   0  0  0  0  0  0  0  0  0  0  0  0
  2  1  1  1
  2  3  1  0
  4  9  2  0
  4  3  1  0
  5  4  1  0
  6  7  1  0
  6  5  2  0
  7  8  2  0
  8  9  1  0
 10  2  1  0
 11 10  2  0
 13 15  1  0
 13 12  1  6
 14 13  1  0
 15 16  1  6
 16 10  1  0
 17 24  1  0
 17 15  1  0
 18 17  2  0
 20 19  1  1
 21 20  1  0
 23 22  1  1
 22 20  1  0
 23 24  1  0
 25 23  1  0
 26 25  2  0
 27 25  1  0
M  END
$$$$
