FTL.pdb
     RDKit          3D

 27 27  0  0  1  0  0  0  0  0999 V2000
   16.2812  -12.3169  -14.5306 N   0  0  0  0  0  0  0  0  0  0  0  0
   15.4550  -11.1898  -14.2213 C   0  0  1  0  0  0  0  0  0  0  0  0
   14.2024  -11.5601  -13.4619 C   0  0  0  0  0  0  0  0  0  0  0  0
   13.2580  -12.1944  -14.4124 C   0  0  0  0  0  0  0  0  0  0  0  0
   13.0683  -13.5524  -14.3534 C   0  0  0  0  0  0  0  0  0  0  0  0
   12.1865  -14.1292  -15.2442 C   0  0  0  0  0  0  0  0  0  0  0  0
   11.5085  -13.3419  -16.1790 C   0  0  0  0  0  0  0  0  0  0  0  0
   11.7134  -11.9879  -16.2197 C   0  0  0  0  0  0  0  0  0  0  0  0
   12.5862  -11.4257  -15.3362 C   0  0  0  0  0  0  0  0  0  0  0  0
   16.2189  -10.2158  -13.4147 C   0  0  0  0  0  0  0  0  0  0  0  0
   17.1212  -10.6300  -12.6442 O   0  0  0  0  0  0  0  0  0  0  0  0
   18.7408   -8.3728  -14.2133 C   0  0  0  0  0  0  0  0  0  0  0  0
   17.7900   -7.2891  -13.7578 C   0  0  1  0  0  0  0  0  0  0  0  0
   17.2329   -6.7262  -14.8973 O   0  0  0  0  0  0  0  0  0  0  0  0
   16.7714   -7.8507  -12.8208 C   0  0  2  0  0  0  0  0  0  0  0  0
   15.9459   -8.8417  -13.5021 N   0  0  0  0  0  0  0  0  0  0  0  0
   15.9424   -6.7875  -12.2233 C   0  0  0  0  0  0  0  0  0  0  0  0
   14.8633   -6.4006  -12.7463 O   0  0  0  0  0  0  0  0  0  0  0  0
   15.1915   -6.2612   -6.7445 C   0  0  0  0  0  0  0  0  0  0  0  0
   14.9055   -6.2008   -8.2507 C   0  0  1  0  0  0  0  0  0  0  0  0
   13.4488   -5.9912   -8.4381 C   0  0  0  0  0  0  0  0  0  0  0  0
   15.8152   -5.2226   -8.8977 C   0  0  0  0  0  0  0  0  0  0  0  0
   15.7133   -5.0858  -10.3731 C   0  0  2  0  0  0  0  0  0  0  0  0
   16.3682   -6.1782  -11.0229 N   0  0  0  0  0  0  0  0  0  0  0  0
   16.2364   -3.7643  -10.8322 C   0  0  0  0  0  0  0  0  0  0  0  0
   17.3878   -3.6635  -11.3176 O   0  0  0  0  0  0  0  0  0  0  0  0
   15.4640   -2.6208  -10.7332 O   0  0  0  0  0  0  0  0  0  0  0  0
  2  1  1  1
  2  3  1  0
  4  9  2  0
  4  3  1  0
  5  4  1  0
  6  7  1  0
  6  5  2  0
  7  8  2  0
  8  9  1  0
 10  2  1  0
 11 10  2  0
 13 15  1  0
 13 12  1  6
 14 13  1  0
 15 16  1  6
 16 10  1  0
 17 24  1  0
 17 15  1  0
 18 17  2  0
 20 19  1  1
 21 20  1  0
 23 22  1  1
 22 20  1  0
 23 24  1  0
 25 23  1  0
 26 25  2  0
 27 25  1  0
M  END
$$$$
