FTL.pdb
     RDKit          3D

 27 27  0  0  1  0  0  0  0  0999 V2000
   39.1259   -2.1189   -4.3311 N   0  0  0  0  0  0  0  0  0  0  0  0
   39.0172   -3.5457   -4.3648 C   0  0  1  0  0  0  0  0  0  0  0  0
   37.6143   -4.0425   -4.1044 C   0  0  0  0  0  0  0  0  0  0  0  0
   37.2110   -3.5949   -2.7499 C   0  0  0  0  0  0  0  0  0  0  0  0
   36.5705   -2.3888   -2.6124 C   0  0  0  0  0  0  0  0  0  0  0  0
   36.2011   -1.9849   -1.3458 C   0  0  0  0  0  0  0  0  0  0  0  0
   36.4767   -2.7905   -0.2375 C   0  0  0  0  0  0  0  0  0  0  0  0
   37.1171   -3.9908   -0.3985 C   0  0  0  0  0  0  0  0  0  0  0  0
   37.4788   -4.3828   -1.6531 C   0  0  0  0  0  0  0  0  0  0  0  0
   39.4535   -4.0498   -5.6833 C   0  0  0  0  0  0  0  0  0  0  0  0
   39.5269   -3.2524   -6.6520 O   0  0  0  0  0  0  0  0  0  0  0  0
   42.5940   -5.3986   -6.2417 C   0  0  0  0  0  0  0  0  0  0  0  0
   41.6437   -5.2299   -7.4055 C   0  0  1  0  0  0  0  0  0  0  0  0
   42.2785   -5.7367   -8.5306 O   0  0  0  0  0  0  0  0  0  0  0  0
   40.3402   -5.8986   -7.1141 C   0  0  2  0  0  0  0  0  0  0  0  0
   39.7839   -5.4025   -5.8603 N   0  0  0  0  0  0  0  0  0  0  0  0
   40.4791   -7.3664   -7.0909 C   0  0  0  0  0  0  0  0  0  0  0  0
   40.9795   -7.9804   -6.1108 O   0  0  0  0  0  0  0  0  0  0  0  0
   36.5561  -10.3907   -9.4497 C   0  0  0  0  0  0  0  0  0  0  0  0
   37.6318   -9.7730   -8.5466 C   0  0  1  0  0  0  0  0  0  0  0  0
   37.3619  -10.1935   -7.1496 C   0  0  0  0  0  0  0  0  0  0  0  0
   38.9798  -10.0719   -9.0912 C   0  0  0  0  0  0  0  0  0  0  0  0
   40.1418   -9.5350   -8.3380 C   0  0  2  0  0  0  0  0  0  0  0  0
   40.0377   -8.1153   -8.2035 N   0  0  0  0  0  0  0  0  0  0  0  0
   41.4324   -9.9461   -8.9674 C   0  0  0  0  0  0  0  0  0  0  0  0
   41.8523   -9.3754  -10.0016 O   0  0  0  0  0  0  0  0  0  0  0  0
   42.1948  -10.9653   -8.4252 O   0  0  0  0  0  0  0  0  0  0  0  0
  2  1  1  6
  2  3  1  0
  4  9  2  0
  4  3  1  0
  5  4  1  0
  6  7  1  0
  6  5  2  0
  7  8  2  0
  8  9  1  0
 10  2  1  0
 11 10  2  0
 13 15  1  0
 13 12  1  1
 14 13  1  0
 15 16  1  1
 16 10  1  0
 17 24  1  0
 17 15  1  0
 18 17  2  0
 20 19  1  6
 21 20  1  0
 23 22  1  6
 22 20  1  0
 23 24  1  0
 25 23  1  0
 26 25  2  0
 27 25  1  0
M  END
$$$$
