FTL.pdb
     RDKit          3D

 27 27  0  0  1  0  0  0  0  0999 V2000
   21.0497   -7.6446  -22.7715 N   0  0  0  0  0  0  0  0  0  0  0  0
   21.3134   -8.4183  -21.5965 C   0  0  1  0  0  0  0  0  0  0  0  0
   22.6578   -9.1072  -21.6263 C   0  0  0  0  0  0  0  0  0  0  0  0
   22.6151  -10.1558  -22.6733 C   0  0  0  0  0  0  0  0  0  0  0  0
   22.3556  -11.4521  -22.3047 C   0  0  0  0  0  0  0  0  0  0  0  0
   22.3190  -12.4176  -23.2898 C   0  0  0  0  0  0  0  0  0  0  0  0
   22.5419  -12.0741  -24.6261 C   0  0  0  0  0  0  0  0  0  0  0  0
   22.7992  -10.7734  -24.9711 C   0  0  0  0  0  0  0  0  0  0  0  0
   22.8336   -9.8254  -23.9919 C   0  0  0  0  0  0  0  0  0  0  0  0
   21.2608   -7.5492  -20.4029 C   0  0  0  0  0  0  0  0  0  0  0  0
   21.6435   -6.3557  -20.4949 O   0  0  0  0  0  0  0  0  0  0  0  0
   20.3801   -5.1906  -19.4312 C   0  0  0  0  0  0  0  0  0  0  0  0
   19.7808   -6.0149  -18.3143 C   0  0  1  0  0  0  0  0  0  0  0  0
   18.5022   -6.3782  -18.7127 O   0  0  0  0  0  0  0  0  0  0  0  0
   20.6554   -7.1854  -18.0044 C   0  0  2  0  0  0  0  0  0  0  0  0
   20.7899   -8.0434  -19.1764 N   0  0  0  0  0  0  0  0  0  0  0  0
   20.1521   -7.9440  -16.8444 C   0  0  0  0  0  0  0  0  0  0  0  0
   19.2783   -8.8449  -16.9563 O   0  0  0  0  0  0  0  0  0  0  0  0
   23.5764  -10.1535  -13.4099 C   0  0  0  0  0  0  0  0  0  0  0  0
   22.3017   -9.9030  -14.2264 C   0  0  1  0  0  0  0  0  0  0  0  0
   21.5882  -11.1946  -14.3804 C   0  0  0  0  0  0  0  0  0  0  0  0
   21.5366   -8.7776  -13.6339 C   0  0  0  0  0  0  0  0  0  0  0  0
   20.3144   -8.3430  -14.3572 C   0  0  2  0  0  0  0  0  0  0  0  0
   20.6638   -7.6546  -15.5607 N   0  0  0  0  0  0  0  0  0  0  0  0
   19.4275   -7.5229  -13.4787 C   0  0  0  0  0  0  0  0  0  0  0  0
   19.3466   -6.2810  -13.6288 O   0  0  0  0  0  0  0  0  0  0  0  0
   18.6748   -8.1131  -12.4791 O   0  0  0  0  0  0  0  0  0  0  0  0
  2  1  1  6
  2  3  1  0
  4  9  2  0
  4  3  1  0
  5  4  1  0
  6  7  1  0
  6  5  2  0
  7  8  2  0
  8  9  1  0
 10  2  1  0
 11 10  2  0
 13 15  1  0
 13 12  1  6
 14 13  1  0
 15 16  1  6
 16 10  1  0
 17 24  1  0
 17 15  1  0
 18 17  2  0
 20 19  1  1
 21 20  1  0
 23 22  1  1
 22 20  1  0
 23 24  1  0
 25 23  1  0
 26 25  2  0
 27 25  1  0
M  END
$$$$
