VPA.pdb
     RDKit          3D

 20 20  0  0  1  0  0  0  0  0999 V2000
    8.4827  -12.5062   25.9371 C   0  0  0  0  0  0  0  0  0  0  0  0
    7.1957  -12.9546   26.5205 C   0  0  1  0  0  0  0  0  0  0  0  0
    6.3732  -11.7769   27.0023 C   0  0  0  0  0  0  0  0  0  0  0  0
    6.3263  -13.7415   25.5676 C   0  0  2  0  0  0  0  0  0  0  0  0
    5.1875  -14.1600   26.3128 N   0  0  0  0  0  0  0  0  0  0  0  0
    7.0435  -14.7420   24.8039 C   0  0  0  0  0  0  0  0  0  0  0  0
    7.3868  -15.7806   25.4271 O   0  0  0  0  0  0  0  0  0  0  0  0
    7.4065  -14.6765   23.4050 N   0  0  0  0  0  0  0  0  0  0  0  0
    7.0153  -13.7101   22.4380 C   0  0  0  0  0  0  0  0  0  0  0  0
    8.1538  -13.6605   21.4606 C   0  0  0  0  0  0  0  0  0  0  0  0
    8.4327  -15.1749   21.3547 C   0  0  0  0  0  0  0  0  0  0  0  0
    8.2489  -15.6487   22.7683 C   0  0  1  0  0  0  0  0  0  0  0  0
    9.5504  -15.8186   23.4612 C   0  0  0  0  0  0  0  0  0  0  0  0
   10.1299  -14.8227   23.9302 O   0  0  0  0  0  0  0  0  0  0  0  0
   11.3788  -18.8372   24.6508 C   0  0  0  0  0  0  0  0  0  0  0  0
   11.3864  -17.3636   24.2228 C   0  0  2  0  0  0  0  0  0  0  0  0
   10.0963  -17.1177   23.5680 N   0  0  0  0  0  0  0  0  0  0  0  0
   12.4944  -17.2157   23.2562 C   0  0  0  0  0  0  0  0  0  0  0  0
   12.2252  -17.1874   22.0369 O   0  0  0  0  0  0  0  0  0  0  0  0
   13.8107  -17.1082   23.6521 O   0  0  0  0  0  0  0  0  0  0  0  0
  2  1  1  6
  3  2  1  0
  4  5  1  1
  4  2  1  0
  6  4  1  0
  7  6  2  0
  8 12  1  0
  8  6  1  0
  9  8  1  0
 10 11  1  0
 10  9  1  0
 11 12  1  0
 12 13  1  1
 13 14  2  0
 13 17  1  0
 16 15  1  6
 17 16  1  0
 18 20  1  0
 18 16  1  0
 19 18  2  0
M  END
$$$$
