VPA.pdb
     RDKit          3D

 20 20  0  0  1  0  0  0  0  0999 V2000
    8.4242  -12.1129   25.7096 C   0  0  0  0  0  0  0  0  0  0  0  0
    7.2212  -12.6211   26.4113 C   0  0  1  0  0  0  0  0  0  0  0  0
    6.3179  -11.4839   26.8428 C   0  0  0  0  0  0  0  0  0  0  0  0
    6.3790  -13.5671   25.5874 C   0  0  2  0  0  0  0  0  0  0  0  0
    5.3174  -14.0009   26.4311 N   0  0  0  0  0  0  0  0  0  0  0  0
    7.1432  -14.5768   24.8836 C   0  0  0  0  0  0  0  0  0  0  0  0
    7.6280  -15.5017   25.5869 O   0  0  0  0  0  0  0  0  0  0  0  0
    7.4084  -14.6369   23.4627 N   0  0  0  0  0  0  0  0  0  0  0  0
    6.9296  -13.7724   22.4402 C   0  0  0  0  0  0  0  0  0  0  0  0
    7.9973  -13.7955   21.3850 C   0  0  0  0  0  0  0  0  0  0  0  0
    8.3038  -15.3082   21.4005 C   0  0  0  0  0  0  0  0  0  0  0  0
    8.2279  -15.6501   22.8612 C   0  0  1  0  0  0  0  0  0  0  0  0
    9.5772  -15.7321   23.4739 C   0  0  0  0  0  0  0  0  0  0  0  0
    9.8929  -14.9302   24.3712 O   0  0  0  0  0  0  0  0  0  0  0  0
   11.2587  -17.7691   25.0319 C   0  0  0  0  0  0  0  0  0  0  0  0
   11.6993  -17.0593   23.7448 C   0  0  2  0  0  0  0  0  0  0  0  0
   10.4701  -16.7270   23.0155 N   0  0  0  0  0  0  0  0  0  0  0  0
   12.5047  -18.0372   22.9839 C   0  0  0  0  0  0  0  0  0  0  0  0
   11.9453  -18.7073   22.0905 O   0  0  0  0  0  0  0  0  0  0  0  0
   13.8477  -18.2352   23.2250 O   0  0  0  0  0  0  0  0  0  0  0  0
  2  1  1  6
  3  2  1  0
  4  5  1  1
  4  2  1  0
  6  4  1  0
  7  6  2  0
  8 12  1  0
  8  6  1  0
  9  8  1  0
 10 11  1  0
 10  9  1  0
 11 12  1  0
 12 13  1  1
 13 14  2  0
 13 17  1  0
 16 15  1  1
 17 16  1  0
 18 20  1  0
 18 16  1  0
 19 18  2  0
M  END
$$$$
