VPA.pdb
     RDKit          3D

 20 20  0  0  1  0  0  0  0  0999 V2000
    6.1779  -15.0971   20.8574 C   0  0  0  0  0  0  0  0  0  0  0  0
    6.8584  -15.2089   22.1698 C   0  0  1  0  0  0  0  0  0  0  0  0
    7.5359  -16.5554   22.3223 C   0  0  0  0  0  0  0  0  0  0  0  0
    7.9122  -14.1532   22.4111 C   0  0  2  0  0  0  0  0  0  0  0  0
    8.8624  -14.2841   21.3589 N   0  0  0  0  0  0  0  0  0  0  0  0
    8.4070  -14.1138   23.7721 C   0  0  0  0  0  0  0  0  0  0  0  0
    9.4555  -14.7708   24.0048 O   0  0  0  0  0  0  0  0  0  0  0  0
    7.8276  -13.4018   24.8903 N   0  0  0  0  0  0  0  0  0  0  0  0
    6.6715  -12.5738   24.9034 C   0  0  0  0  0  0  0  0  0  0  0  0
    6.1228  -12.7006   26.2951 C   0  0  0  0  0  0  0  0  0  0  0  0
    7.4532  -12.6312   27.0746 C   0  0  0  0  0  0  0  0  0  0  0  0
    8.3890  -13.4279   26.2110 C   0  0  1  0  0  0  0  0  0  0  0  0
    8.5691  -14.8073   26.7283 C   0  0  0  0  0  0  0  0  0  0  0  0
    7.6327  -15.6216   26.6419 O   0  0  0  0  0  0  0  0  0  0  0  0
   11.3616  -16.9907   27.3368 C   0  0  0  0  0  0  0  0  0  0  0  0
   10.0372  -16.4737   27.9140 C   0  0  2  0  0  0  0  0  0  0  0  0
    9.8095  -15.1566   27.3084 N   0  0  0  0  0  0  0  0  0  0  0  0
   10.2396  -16.3453   29.3723 C   0  0  0  0  0  0  0  0  0  0  0  0
   10.2829  -15.2015   29.8722 O   0  0  0  0  0  0  0  0  0  0  0  0
   10.3819  -17.4405   30.1977 O   0  0  0  0  0  0  0  0  0  0  0  0
  2  1  1  6
  3  2  1  0
  4  5  1  6
  4  2  1  0
  6  4  1  0
  7  6  2  0
  8 12  1  0
  8  6  1  0
  9  8  1  0
 10 11  1  0
 10  9  1  0
 11 12  1  0
 12 13  1  1
 13 14  2  0
 13 17  1  0
 16 15  1  6
 17 16  1  0
 18 20  1  0
 18 16  1  0
 19 18  2  0
M  END
$$$$
