VPA.pdb
     RDKit          3D

 20 20  0  0  1  0  0  0  0  0999 V2000
    6.1969  -15.4283   21.0528 C   0  0  0  0  0  0  0  0  0  0  0  0
    6.9534  -15.3974   22.3274 C   0  0  1  0  0  0  0  0  0  0  0  0
    7.8089  -16.6377   22.4865 C   0  0  0  0  0  0  0  0  0  0  0  0
    7.8706  -14.2054   22.4727 C   0  0  2  0  0  0  0  0  0  0  0  0
    8.7403  -14.2261   21.3456 N   0  0  0  0  0  0  0  0  0  0  0  0
    8.4652  -14.0753   23.7873 C   0  0  0  0  0  0  0  0  0  0  0  0
    9.5750  -14.6448   23.9574 O   0  0  0  0  0  0  0  0  0  0  0  0
    7.9224  -13.3624   24.9231 N   0  0  0  0  0  0  0  0  0  0  0  0
    6.7713  -12.5289   24.9716 C   0  0  0  0  0  0  0  0  0  0  0  0
    6.2632  -12.6554   26.3787 C   0  0  0  0  0  0  0  0  0  0  0  0
    7.6163  -12.5936   27.1187 C   0  0  0  0  0  0  0  0  0  0  0  0
    8.5225  -13.3933   26.2267 C   0  0  1  0  0  0  0  0  0  0  0  0
    8.7111  -14.7744   26.7364 C   0  0  0  0  0  0  0  0  0  0  0  0
    7.7606  -15.5762   26.7009 O   0  0  0  0  0  0  0  0  0  0  0  0
   11.6106  -16.8970   27.3623 C   0  0  0  0  0  0  0  0  0  0  0  0
   10.2189  -16.4615   27.8401 C   0  0  2  0  0  0  0  0  0  0  0  0
    9.9755  -15.1397   27.2510 N   0  0  0  0  0  0  0  0  0  0  0  0
   10.2945  -16.3663   29.3129 C   0  0  0  0  0  0  0  0  0  0  0  0
   10.4517  -17.4148   29.9732 O   0  0  0  0  0  0  0  0  0  0  0  0
   10.1978  -15.1644   29.9815 O   0  0  0  0  0  0  0  0  0  0  0  0
  2  1  1  6
  3  2  1  0
  4  5  1  6
  4  2  1  0
  6  4  1  0
  7  6  2  0
  8 12  1  0
  8  6  1  0
  9  8  1  0
 10 11  1  0
 10  9  1  0
 11 12  1  0
 12 13  1  1
 13 14  2  0
 13 17  1  0
 16 15  1  6
 17 16  1  0
 18 20  1  0
 18 16  1  0
 19 18  2  0
M  END
$$$$
