VPA.pdb
     RDKit          3D

 20 20  0  0  1  0  0  0  0  0999 V2000
    6.5243  -13.3670   19.9300 C   0  0  0  0  0  0  0  0  0  0  0  0
    6.9464  -13.9706   21.2166 C   0  0  1  0  0  0  0  0  0  0  0  0
    7.2537  -15.4453   21.0547 C   0  0  0  0  0  0  0  0  0  0  0  0
    8.1694  -13.3281   21.8287 C   0  0  2  0  0  0  0  0  0  0  0  0
    9.2006  -13.4111   20.8505 N   0  0  0  0  0  0  0  0  0  0  0  0
    8.4674  -13.7860   23.1704 C   0  0  0  0  0  0  0  0  0  0  0  0
    9.3957  -14.6293   23.2797 O   0  0  0  0  0  0  0  0  0  0  0  0
    7.8148  -13.3790   24.3957 N   0  0  0  0  0  0  0  0  0  0  0  0
    6.8080  -12.3901   24.5708 C   0  0  0  0  0  0  0  0  0  0  0  0
    6.0150  -12.8539   25.7583 C   0  0  0  0  0  0  0  0  0  0  0  0
    7.1867  -13.3066   26.6553 C   0  0  0  0  0  0  0  0  0  0  0  0
    8.1302  -13.9452   25.6764 C   0  0  1  0  0  0  0  0  0  0  0  0
    8.0140  -15.4248   25.6914 C   0  0  0  0  0  0  0  0  0  0  0  0
    6.9744  -15.9625   25.2698 O   0  0  0  0  0  0  0  0  0  0  0  0
   10.0994  -18.2389   25.4477 C   0  0  0  0  0  0  0  0  0  0  0  0
    9.0119  -17.6404   26.3498 C   0  0  2  0  0  0  0  0  0  0  0  0
    9.0972  -16.1844   26.1883 N   0  0  0  0  0  0  0  0  0  0  0  0
    9.3570  -18.0291   27.7332 C   0  0  0  0  0  0  0  0  0  0  0  0
    9.7854  -17.1518   28.5123 O   0  0  0  0  0  0  0  0  0  0  0  0
    9.2230  -19.3222   28.1926 O   0  0  0  0  0  0  0  0  0  0  0  0
  2  1  1  6
  3  2  1  0
  4  5  1  6
  4  2  1  0
  6  4  1  0
  7  6  2  0
  8 12  1  0
  8  6  1  0
  9  8  1  0
 10 11  1  0
 10  9  1  0
 11 12  1  0
 12 13  1  6
 13 14  2  0
 13 17  1  0
 16 15  1  6
 17 16  1  0
 18 20  1  0
 18 16  1  0
 19 18  2  0
M  END
$$$$
