VPA.pdb
     RDKit          3D

 20 20  0  0  1  0  0  0  0  0999 V2000
    6.0942  -15.0557   21.0185 C   0  0  0  0  0  0  0  0  0  0  0  0
    6.8502  -15.2094   22.2845 C   0  0  1  0  0  0  0  0  0  0  0  0
    7.5129  -16.5695   22.3648 C   0  0  0  0  0  0  0  0  0  0  0  0
    7.9342  -14.1762   22.4861 C   0  0  2  0  0  0  0  0  0  0  0  0
    8.8226  -14.3030   21.3807 N   0  0  0  0  0  0  0  0  0  0  0  0
    8.5036  -14.1707   23.8181 C   0  0  0  0  0  0  0  0  0  0  0  0
    9.5531  -14.8471   23.9800 O   0  0  0  0  0  0  0  0  0  0  0  0
    7.9976  -13.4726   24.9799 N   0  0  0  0  0  0  0  0  0  0  0  0
    6.8901  -12.5843   25.0604 C   0  0  0  0  0  0  0  0  0  0  0  0
    6.3764  -12.7355   26.4629 C   0  0  0  0  0  0  0  0  0  0  0  0
    7.7309  -12.7688   27.2022 C   0  0  0  0  0  0  0  0  0  0  0  0
    8.5954  -13.5807   26.2803 C   0  0  1  0  0  0  0  0  0  0  0  0
    8.7139  -14.9870   26.7397 C   0  0  0  0  0  0  0  0  0  0  0  0
    7.7491  -15.7602   26.6026 O   0  0  0  0  0  0  0  0  0  0  0  0
   11.4955  -17.2307   27.3645 C   0  0  0  0  0  0  0  0  0  0  0  0
   10.1100  -16.7713   27.8377 C   0  0  2  0  0  0  0  0  0  0  0  0
    9.9297  -15.4086   27.3240 N   0  0  0  0  0  0  0  0  0  0  0  0
   10.1541  -16.7664   29.3148 C   0  0  0  0  0  0  0  0  0  0  0  0
   10.1113  -15.6698   29.9113 O   0  0  0  0  0  0  0  0  0  0  0  0
   10.2406  -17.9262   30.0553 O   0  0  0  0  0  0  0  0  0  0  0  0
  2  1  1  6
  3  2  1  0
  4  5  1  6
  4  2  1  0
  6  4  1  0
  7  6  2  0
  8 12  1  0
  8  6  1  0
  9  8  1  0
 10 11  1  0
 10  9  1  0
 11 12  1  0
 12 13  1  1
 13 14  2  0
 13 17  1  0
 16 15  1  6
 17 16  1  0
 18 20  1  0
 18 16  1  0
 19 18  2  0
M  END
$$$$
