VPA.pdb
     RDKit          3D

 20 20  0  0  1  0  0  0  0  0999 V2000
    8.2400  -12.1236   25.9623 C   0  0  0  0  0  0  0  0  0  0  0  0
    7.0698  -12.7145   26.6547 C   0  0  1  0  0  0  0  0  0  0  0  0
    6.1238  -11.6382   27.1466 C   0  0  0  0  0  0  0  0  0  0  0  0
    6.2586  -13.6600   25.7997 C   0  0  2  0  0  0  0  0  0  0  0  0
    5.2178  -14.1630   26.6308 N   0  0  0  0  0  0  0  0  0  0  0  0
    7.0555  -14.6144   25.0564 C   0  0  0  0  0  0  0  0  0  0  0  0
    7.5380  -15.5727   25.7152 O   0  0  0  0  0  0  0  0  0  0  0  0
    7.3557  -14.5855   23.6414 N   0  0  0  0  0  0  0  0  0  0  0  0
    6.9184  -13.6461   22.6675 C   0  0  0  0  0  0  0  0  0  0  0  0
    8.0121  -13.6200   21.6393 C   0  0  0  0  0  0  0  0  0  0  0  0
    8.2913  -15.1360   21.5614 C   0  0  0  0  0  0  0  0  0  0  0  0
    8.1722  -15.5724   22.9937 C   0  0  1  0  0  0  0  0  0  0  0  0
    9.5038  -15.7208   23.6322 C   0  0  0  0  0  0  0  0  0  0  0  0
   10.0814  -14.7169   24.0862 O   0  0  0  0  0  0  0  0  0  0  0  0
   11.5382  -18.7252   24.5437 C   0  0  0  0  0  0  0  0  0  0  0  0
   11.4284  -17.2245   24.2430 C   0  0  2  0  0  0  0  0  0  0  0  0
   10.0800  -17.0092   23.7055 N   0  0  0  0  0  0  0  0  0  0  0  0
   12.4488  -16.9292   23.2156 C   0  0  0  0  0  0  0  0  0  0  0  0
   12.1047  -16.9224   22.0149 O   0  0  0  0  0  0  0  0  0  0  0  0
   13.7630  -16.6617   23.5351 O   0  0  0  0  0  0  0  0  0  0  0  0
  2  1  1  6
  3  2  1  0
  4  5  1  1
  4  2  1  0
  6  4  1  0
  7  6  2  0
  8 12  1  0
  8  6  1  0
  9  8  1  0
 10 11  1  0
 10  9  1  0
 11 12  1  0
 12 13  1  1
 13 14  2  0
 13 17  1  0
 16 15  1  6
 17 16  1  0
 18 20  1  0
 18 16  1  0
 19 18  2  0
M  END
$$$$
