VPA.pdb
     RDKit          3D

 20 20  0  0  1  0  0  0  0  0999 V2000
    6.1311  -14.8733   20.7814 C   0  0  0  0  0  0  0  0  0  0  0  0
    6.7988  -15.0663   22.0910 C   0  0  1  0  0  0  0  0  0  0  0  0
    7.4139  -16.4470   22.1937 C   0  0  0  0  0  0  0  0  0  0  0  0
    7.8980  -14.0696   22.3768 C   0  0  2  0  0  0  0  0  0  0  0  0
    8.8234  -14.1700   21.2994 N   0  0  0  0  0  0  0  0  0  0  0  0
    8.4179  -14.1358   23.7273 C   0  0  0  0  0  0  0  0  0  0  0  0
    9.4325  -14.8608   23.9004 O   0  0  0  0  0  0  0  0  0  0  0  0
    7.8982  -13.4596   24.8959 N   0  0  0  0  0  0  0  0  0  0  0  0
    6.8044  -12.5545   24.9759 C   0  0  0  0  0  0  0  0  0  0  0  0
    6.2572  -12.7333   26.3625 C   0  0  0  0  0  0  0  0  0  0  0  0
    7.5943  -12.8096   27.1298 C   0  0  0  0  0  0  0  0  0  0  0  0
    8.4651  -13.6121   26.2057 C   0  0  1  0  0  0  0  0  0  0  0  0
    8.5496  -15.0318   26.6301 C   0  0  0  0  0  0  0  0  0  0  0  0
    7.5598  -15.7728   26.4926 O   0  0  0  0  0  0  0  0  0  0  0  0
   11.1979  -17.4285   27.1175 C   0  0  0  0  0  0  0  0  0  0  0  0
    9.8963  -16.8672   27.7052 C   0  0  2  0  0  0  0  0  0  0  0  0
    9.7623  -15.5028   27.1822 N   0  0  0  0  0  0  0  0  0  0  0  0
   10.0766  -16.8444   29.1718 C   0  0  0  0  0  0  0  0  0  0  0  0
   10.1420  -15.7390   29.7497 O   0  0  0  0  0  0  0  0  0  0  0  0
   10.1747  -17.9969   29.9222 O   0  0  0  0  0  0  0  0  0  0  0  0
  2  1  1  6
  3  2  1  0
  4  5  1  6
  4  2  1  0
  6  4  1  0
  7  6  2  0
  8 12  1  0
  8  6  1  0
  9  8  1  0
 10 11  1  0
 10  9  1  0
 11 12  1  0
 12 13  1  1
 13 14  2  0
 13 17  1  0
 16 15  1  6
 17 16  1  0
 18 20  1  0
 18 16  1  0
 19 18  2  0
M  END
$$$$
