VPA.pdb
     RDKit          3D

 20 20  0  0  1  0  0  0  0  0999 V2000
    5.9856  -15.3368   20.9890 C   0  0  0  0  0  0  0  0  0  0  0  0
    6.7608  -15.3699   22.2523 C   0  0  1  0  0  0  0  0  0  0  0  0
    7.6336  -16.6061   22.3269 C   0  0  0  0  0  0  0  0  0  0  0  0
    7.6656  -14.1765   22.4534 C   0  0  2  0  0  0  0  0  0  0  0  0
    8.5130  -14.1159   21.3109 N   0  0  0  0  0  0  0  0  0  0  0  0
    8.2844  -14.1191   23.7620 C   0  0  0  0  0  0  0  0  0  0  0  0
    9.3914  -14.7065   23.8828 O   0  0  0  0  0  0  0  0  0  0  0  0
    7.7687  -13.4605   24.9424 N   0  0  0  0  0  0  0  0  0  0  0  0
    6.5800  -12.6911   25.0731 C   0  0  0  0  0  0  0  0  0  0  0  0
    6.1578  -12.8744   26.5021 C   0  0  0  0  0  0  0  0  0  0  0  0
    7.5446  -12.7559   27.1691 C   0  0  0  0  0  0  0  0  0  0  0  0
    8.4407  -13.4869   26.2104 C   0  0  1  0  0  0  0  0  0  0  0  0
    8.7291  -14.8664   26.6758 C   0  0  0  0  0  0  0  0  0  0  0  0
    7.8528  -15.7435   26.5743 O   0  0  0  0  0  0  0  0  0  0  0  0
   11.7906  -16.7342   27.4342 C   0  0  0  0  0  0  0  0  0  0  0  0
   10.3270  -16.4540   27.8003 C   0  0  2  0  0  0  0  0  0  0  0  0
   10.0014  -15.1440   27.2247 N   0  0  0  0  0  0  0  0  0  0  0  0
   10.2691  -16.4002   29.2760 C   0  0  0  0  0  0  0  0  0  0  0  0
   10.0896  -15.2943   29.8281 O   0  0  0  0  0  0  0  0  0  0  0  0
   10.4059  -17.5245   30.0622 O   0  0  0  0  0  0  0  0  0  0  0  0
  2  1  1  6
  3  2  1  0
  4  5  1  6
  4  2  1  0
  6  4  1  0
  7  6  2  0
  8 12  1  0
  8  6  1  0
  9  8  1  0
 10 11  1  0
 10  9  1  0
 11 12  1  0
 12 13  1  1
 13 14  2  0
 13 17  1  0
 16 15  1  1
 17 16  1  0
 18 20  1  0
 18 16  1  0
 19 18  2  0
M  END
$$$$
