VPA.pdb
     RDKit          3D

 20 20  0  0  1  0  0  0  0  0999 V2000
    6.5472  -11.4410   26.6159 C   0  0  0  0  0  0  0  0  0  0  0  0
    7.3043  -12.6076   26.1022 C   0  0  1  0  0  0  0  0  0  0  0  0
    8.1914  -13.2011   27.1775 C   0  0  0  0  0  0  0  0  0  0  0  0
    6.4344  -13.7267   25.5785 C   0  0  2  0  0  0  0  0  0  0  0  0
    5.6858  -14.2091   26.6894 N   0  0  0  0  0  0  0  0  0  0  0  0
    7.1431  -14.6938   24.7655 C   0  0  0  0  0  0  0  0  0  0  0  0
    7.5874  -15.7083   25.3641 O   0  0  0  0  0  0  0  0  0  0  0  0
    7.3944  -14.6197   23.3427 N   0  0  0  0  0  0  0  0  0  0  0  0
    6.9552  -13.6297   22.4212 C   0  0  0  0  0  0  0  0  0  0  0  0
    8.0125  -13.5991   21.3558 C   0  0  0  0  0  0  0  0  0  0  0  0
    8.2376  -15.1192   21.2109 C   0  0  0  0  0  0  0  0  0  0  0  0
    8.1541  -15.6066   22.6293 C   0  0  1  0  0  0  0  0  0  0  0  0
    9.5015  -15.8226   23.2130 C   0  0  0  0  0  0  0  0  0  0  0  0
   10.1355  -14.8534   23.6671 O   0  0  0  0  0  0  0  0  0  0  0  0
   11.3273  -18.9435   24.1358 C   0  0  0  0  0  0  0  0  0  0  0  0
   11.3268  -17.4364   23.8474 C   0  0  2  0  0  0  0  0  0  0  0  0
   10.0277  -17.1340   23.2354 N   0  0  0  0  0  0  0  0  0  0  0  0
   12.4216  -17.1956   22.8844 C   0  0  0  0  0  0  0  0  0  0  0  0
   12.1421  -17.1074   21.6702 O   0  0  0  0  0  0  0  0  0  0  0  0
   13.7365  -17.0654   23.2780 O   0  0  0  0  0  0  0  0  0  0  0  0
  2  1  1  1
  3  2  1  0
  4  5  1  1
  4  2  1  0
  6  4  1  0
  7  6  2  0
  8 12  1  0
  8  6  1  0
  9  8  1  0
 10 11  1  0
 10  9  1  0
 11 12  1  0
 12 13  1  1
 13 14  2  0
 13 17  1  0
 16 15  1  6
 17 16  1  0
 18 20  1  0
 18 16  1  0
 19 18  2  0
M  END
$$$$
