VPA.pdb
     RDKit          3D

 20 20  0  0  1  0  0  0  0  0999 V2000
    6.3895  -16.3503   23.2550 C   0  0  0  0  0  0  0  0  0  0  0  0
    7.3043  -15.8629   22.1950 C   0  0  1  0  0  0  0  0  0  0  0  0
    6.6061  -15.8088   20.8516 C   0  0  0  0  0  0  0  0  0  0  0  0
    7.8728  -14.4872   22.4542 C   0  0  2  0  0  0  0  0  0  0  0  0
    8.7093  -14.1807   21.3436 N   0  0  0  0  0  0  0  0  0  0  0  0
    8.4203  -14.3161   23.7845 C   0  0  0  0  0  0  0  0  0  0  0  0
    9.5222  -14.8809   24.0122 O   0  0  0  0  0  0  0  0  0  0  0  0
    7.8387  -13.5671   24.8771 N   0  0  0  0  0  0  0  0  0  0  0  0
    6.6419  -12.7991   24.8797 C   0  0  0  0  0  0  0  0  0  0  0  0
    6.1431  -12.8681   26.2940 C   0  0  0  0  0  0  0  0  0  0  0  0
    7.4910  -12.6843   27.0230 C   0  0  0  0  0  0  0  0  0  0  0  0
    8.4406  -13.4842   26.1775 C   0  0  1  0  0  0  0  0  0  0  0  0
    8.7081  -14.8186   26.7697 C   0  0  0  0  0  0  0  0  0  0  0  0
    7.7948  -15.6619   26.8185 O   0  0  0  0  0  0  0  0  0  0  0  0
   11.7238  -16.7612   27.4376 C   0  0  0  0  0  0  0  0  0  0  0  0
   10.3257  -16.3615   27.9276 C   0  0  2  0  0  0  0  0  0  0  0  0
   10.0032  -15.0929   27.2642 N   0  0  0  0  0  0  0  0  0  0  0  0
   10.4351  -16.1687   29.3887 C   0  0  0  0  0  0  0  0  0  0  0  0
   10.6580  -17.1646   30.1088 O   0  0  0  0  0  0  0  0  0  0  0  0
   10.3001  -14.9319   29.9829 O   0  0  0  0  0  0  0  0  0  0  0  0
  2  1  1  1
  3  2  1  0
  4  5  1  6
  4  2  1  0
  6  4  1  0
  7  6  2  0
  8 12  1  0
  8  6  1  0
  9  8  1  0
 10 11  1  0
 10  9  1  0
 11 12  1  0
 12 13  1  1
 13 14  2  0
 13 17  1  0
 16 15  1  6
 17 16  1  0
 18 20  1  0
 18 16  1  0
 19 18  2  0
M  END
$$$$
