VPA.pdb
     RDKit          3D

 20 20  0  0  1  0  0  0  0  0999 V2000
    6.2032  -16.0221   21.0861 C   0  0  0  0  0  0  0  0  0  0  0  0
    7.0155  -15.7841   22.3033 C   0  0  1  0  0  0  0  0  0  0  0  0
    8.1558  -16.7766   22.4032 C   0  0  0  0  0  0  0  0  0  0  0  0
    7.6230  -14.4027   22.3802 C   0  0  2  0  0  0  0  0  0  0  0  0
    8.3818  -14.2290   21.1881 N   0  0  0  0  0  0  0  0  0  0  0  0
    8.2677  -14.1112   23.6443 C   0  0  0  0  0  0  0  0  0  0  0  0
    9.4802  -14.4359   23.7411 O   0  0  0  0  0  0  0  0  0  0  0  0
    7.6696  -13.4881   24.8049 N   0  0  0  0  0  0  0  0  0  0  0  0
    6.3769  -12.9079   24.9250 C   0  0  0  0  0  0  0  0  0  0  0  0
    6.0058  -13.0897   26.3684 C   0  0  0  0  0  0  0  0  0  0  0  0
    7.3650  -12.7267   27.0033 C   0  0  0  0  0  0  0  0  0  0  0  0
    8.3527  -13.3521   26.0600 C   0  0  1  0  0  0  0  0  0  0  0  0
    8.8588  -14.6473   26.5786 C   0  0  0  0  0  0  0  0  0  0  0  0
    8.1648  -15.6719   26.4515 O   0  0  0  0  0  0  0  0  0  0  0  0
   12.1170  -15.5935   28.1887 C   0  0  0  0  0  0  0  0  0  0  0  0
   10.6678  -15.9075   27.7942 C   0  0  2  0  0  0  0  0  0  0  0  0
   10.1246  -14.6776   27.2063 N   0  0  0  0  0  0  0  0  0  0  0  0
    9.9574  -16.2406   29.0465 C   0  0  0  0  0  0  0  0  0  0  0  0
   10.1221  -17.3741   29.5448 O   0  0  0  0  0  0  0  0  0  0  0  0
    9.1218  -15.3469   29.6821 O   0  0  0  0  0  0  0  0  0  0  0  0
  2  1  1  6
  3  2  1  0
  4  5  1  6
  4  2  1  0
  6  4  1  0
  7  6  2  0
  8 12  1  0
  8  6  1  0
  9  8  1  0
 10 11  1  0
 10  9  1  0
 11 12  1  0
 12 13  1  1
 13 14  2  0
 13 17  1  0
 16 15  1  1
 17 16  1  0
 18 20  1  0
 18 16  1  0
 19 18  2  0
M  END
$$$$
