PDN.pdb
     RDKit          3D

 24 24  0  0  1  0  0  0  0  0999 V2000
   25.5099  -34.0175   -8.2226 N   0  0  0  0  0  0  0  0  0  0  0  0
   25.7388  -33.8016   -9.6463 C   0  0  0  0  0  0  0  0  0  0  0  0
   25.6869  -32.3093   -9.8498 C   0  0  0  0  0  0  0  0  0  0  0  0
   25.6491  -31.7369   -8.4431 C   0  0  0  0  0  0  0  0  0  0  0  0
   26.1847  -32.8869   -7.6200 C   0  0  1  0  0  0  0  0  0  0  0  0
   25.8318  -32.7324   -6.1883 C   0  0  0  0  0  0  0  0  0  0  0  0
   26.3584  -31.7895   -5.5530 O   0  0  0  0  0  0  0  0  0  0  0  0
   24.9412  -33.5991   -5.5433 N   0  0  0  0  0  0  0  0  0  0  0  0
   24.5351  -33.4920   -4.1703 C   0  0  1  0  0  0  0  0  0  0  0  0
   23.0610  -33.5985   -3.9400 C   0  0  0  0  0  0  0  0  0  0  0  0
   22.7112  -33.4201   -2.5113 C   0  0  0  0  0  0  0  0  0  0  0  0
   22.1087  -34.3058   -1.8547 O   0  0  0  0  0  0  0  0  0  0  0  0
   25.2535  -34.5142   -3.3386 C   0  0  0  0  0  0  0  0  0  0  0  0
   24.9146  -35.7249   -3.3938 O   0  0  0  0  0  0  0  0  0  0  0  0
   23.0509  -32.2453   -1.8606 O   0  0  0  0  0  0  0  0  0  0  0  0
   29.5801  -34.3139   -4.0953 N   0  0  0  0  0  0  0  0  0  0  0  0
   29.0022  -35.3199   -3.2933 C   0  0  0  0  0  0  0  0  0  0  0  0
   28.8801  -36.4610   -3.7829 O   0  0  0  0  0  0  0  0  0  0  0  0
   28.5660  -35.0296   -1.9422 C   0  0  0  0  0  0  0  0  0  0  0  0
   27.0695  -35.1269   -1.7393 C   0  0  2  0  0  0  0  0  0  0  0  0
   26.3206  -34.1570   -2.4761 N   0  0  0  0  0  0  0  0  0  0  0  0
   26.7171  -35.1436   -0.2899 C   0  0  0  0  0  0  0  0  0  0  0  0
   25.8311  -34.4054    0.2142 O   0  0  0  0  0  0  0  0  0  0  0  0
   27.3756  -36.0012    0.5774 O   0  0  0  0  0  0  0  0  0  0  0  0
  1  5  1  0
  2  1  1  0
  2  3  1  0
  3  4  1  0
  5  4  1  0
  6  8  1  0
  5  6  1  1
  7  6  2  0
  9  8  1  0
  9 10  1  6
 11 10  1  0
 11 15  1  0
 12 11  2  0
 13 21  1  0
 13  9  1  0
 14 13  2  0
 17 16  1  0
 18 17  2  0
 19 17  1  0
 20 21  1  0
 20 19  1  1
 22 20  1  0
 23 22  2  0
 24 22  1  0
M  END
$$$$
