PDN.pdb
     RDKit          3D

 24 24  0  0  1  0  0  0  0  0999 V2000
   18.9774  -13.1908  -15.8414 N   0  0  0  0  0  0  0  0  0  0  0  0
   19.0192  -14.6481  -15.8253 C   0  0  0  0  0  0  0  0  0  0  0  0
   19.2853  -15.0680  -17.2479 C   0  0  0  0  0  0  0  0  0  0  0  0
   19.6080  -13.7714  -17.9708 C   0  0  0  0  0  0  0  0  0  0  0  0
   19.9851  -12.8576  -16.8264 C   0  0  1  0  0  0  0  0  0  0  0  0
   19.9120  -11.4330  -17.2307 C   0  0  0  0  0  0  0  0  0  0  0  0
   20.7753  -11.0059  -18.0321 O   0  0  0  0  0  0  0  0  0  0  0  0
   18.9200  -10.5716  -16.7466 N   0  0  0  0  0  0  0  0  0  0  0  0
   18.7751   -9.1914  -17.1147 C   0  0  1  0  0  0  0  0  0  0  0  0
   17.4132   -8.8097  -17.6014 C   0  0  0  0  0  0  0  0  0  0  0  0
   17.3717   -7.4090  -18.0829 C   0  0  0  0  0  0  0  0  0  0  0  0
   16.8276   -6.4902  -17.4208 O   0  0  0  0  0  0  0  0  0  0  0  0
   19.1699   -8.3075  -15.9677 C   0  0  0  0  0  0  0  0  0  0  0  0
   18.7772   -8.5723  -14.8017 O   0  0  0  0  0  0  0  0  0  0  0  0
   17.9457   -7.0821  -19.3005 O   0  0  0  0  0  0  0  0  0  0  0  0
   22.5014   -5.8407  -12.5938 N   0  0  0  0  0  0  0  0  0  0  0  0
   22.3613   -5.3223  -13.8980 C   0  0  0  0  0  0  0  0  0  0  0  0
   22.6304   -4.1179  -14.0814 O   0  0  0  0  0  0  0  0  0  0  0  0
   21.9179   -6.1691  -14.9872 C   0  0  0  0  0  0  0  0  0  0  0  0
   20.4166   -6.3412  -15.0673 C   0  0  2  0  0  0  0  0  0  0  0  0
   19.9847   -7.1624  -16.1552 N   0  0  0  0  0  0  0  0  0  0  0  0
   19.7153   -5.0252  -15.0284 C   0  0  0  0  0  0  0  0  0  0  0  0
   19.6215   -4.2626  -16.0252 O   0  0  0  0  0  0  0  0  0  0  0  0
   19.1244   -4.5850  -13.8542 O   0  0  0  0  0  0  0  0  0  0  0  0
  1  5  1  0
  2  1  1  0
  2  3  1  0
  3  4  1  0
  5  4  1  0
  6  8  1  0
  5  6  1  6
  7  6  2  0
  9  8  1  0
  9 10  1  1
 11 10  1  0
 11 15  1  0
 12 11  2  0
 13 21  1  0
 13  9  1  0
 14 13  2  0
 17 16  1  0
 18 17  2  0
 19 17  1  0
 20 21  1  0
 20 19  1  6
 22 20  1  0
 23 22  2  0
 24 22  1  0
M  END
$$$$
