PDN.pdb
     RDKit          3D

 24 24  0  0  1  0  0  0  0  0999 V2000
   17.6916  -12.6437  -17.4950 N   0  0  0  0  0  0  0  0  0  0  0  0
   17.1346  -13.9496  -17.8266 C   0  0  0  0  0  0  0  0  0  0  0  0
   17.5709  -14.8760  -16.7210 C   0  0  0  0  0  0  0  0  0  0  0  0
   18.1863  -13.9577  -15.6790 C   0  0  0  0  0  0  0  0  0  0  0  0
   17.5936  -12.6170  -16.0505 C   0  0  1  0  0  0  0  0  0  0  0  0
   18.3770  -11.5029  -15.4645 C   0  0  0  0  0  0  0  0  0  0  0  0
   18.2831  -11.3055  -14.2308 O   0  0  0  0  0  0  0  0  0  0  0  0
   19.2026  -10.6830  -16.2433 N   0  0  0  0  0  0  0  0  0  0  0  0
   19.9792   -9.5832  -15.7445 C   0  0  1  0  0  0  0  0  0  0  0  0
   21.4502   -9.6868  -15.9950 C   0  0  0  0  0  0  0  0  0  0  0  0
   22.1942   -8.5578  -15.3890 C   0  0  0  0  0  0  0  0  0  0  0  0
   22.6942   -7.6374  -16.0828 O   0  0  0  0  0  0  0  0  0  0  0  0
   19.4596   -8.2901  -16.3020 C   0  0  0  0  0  0  0  0  0  0  0  0
   18.9748   -8.2521  -17.4627 O   0  0  0  0  0  0  0  0  0  0  0  0
   22.3546   -8.4976  -14.0144 O   0  0  0  0  0  0  0  0  0  0  0  0
   15.4088   -4.4816  -15.4006 N   0  0  0  0  0  0  0  0  0  0  0  0
   16.4512   -4.9846  -16.2067 C   0  0  0  0  0  0  0  0  0  0  0  0
   16.6734   -4.4194  -17.2966 O   0  0  0  0  0  0  0  0  0  0  0  0
   17.2363   -6.1236  -15.7754 C   0  0  0  0  0  0  0  0  0  0  0  0
   18.7313   -5.9344  -15.9132 C   0  0  2  0  0  0  0  0  0  0  0  0
   19.4970   -7.0869  -15.5529 N   0  0  0  0  0  0  0  0  0  0  0  0
   19.1901   -4.6993  -15.2136 C   0  0  0  0  0  0  0  0  0  0  0  0
   20.0572   -4.7036  -14.3015 O   0  0  0  0  0  0  0  0  0  0  0  0
   18.6588   -3.4659  -15.5570 O   0  0  0  0  0  0  0  0  0  0  0  0
  1  5  1  0
  2  1  1  0
  2  3  1  0
  3  4  1  0
  5  4  1  0
  6  8  1  0
  5  6  1  1
  7  6  2  0
  9  8  1  0
  9 10  1  6
 11 10  1  0
 11 15  1  0
 12 11  2  0
 13 21  1  0
 13  9  1  0
 14 13  2  0
 17 16  1  0
 18 17  2  0
 19 17  1  0
 20 21  1  0
 20 19  1  1
 22 20  1  0
 23 22  2  0
 24 22  1  0
M  END
$$$$
