PDN.pdb
     RDKit          3D

 24 24  0  0  1  0  0  0  0  0999 V2000
   16.8430  -12.6641  -14.7537 N   0  0  0  0  0  0  0  0  0  0  0  0
   16.0187  -13.8609  -14.6357 C   0  0  0  0  0  0  0  0  0  0  0  0
   15.9461  -14.4490  -16.0213 C   0  0  0  0  0  0  0  0  0  0  0  0
   16.9502  -13.6428  -16.8273 C   0  0  0  0  0  0  0  0  0  0  0  0
   17.8254  -13.0545  -15.7433 C   0  0  1  0  0  0  0  0  0  0  0  0
   18.5943  -11.8911  -16.2468 C   0  0  0  0  0  0  0  0  0  0  0  0
   19.8386  -12.0060  -16.3387 O   0  0  0  0  0  0  0  0  0  0  0  0
   17.9735  -10.6911  -16.6143 N   0  0  0  0  0  0  0  0  0  0  0  0
   18.6376   -9.5705  -17.2183 C   0  0  1  0  0  0  0  0  0  0  0  0
   17.9313   -8.9814  -18.3978 C   0  0  0  0  0  0  0  0  0  0  0  0
   18.7018   -7.8707  -19.0045 C   0  0  0  0  0  0  0  0  0  0  0  0
   18.1606   -6.7890  -19.3445 O   0  0  0  0  0  0  0  0  0  0  0  0
   18.8870   -8.5042  -16.1919 C   0  0  0  0  0  0  0  0  0  0  0  0
   17.9565   -8.1286  -15.4323 O   0  0  0  0  0  0  0  0  0  0  0  0
   20.0643   -8.0105  -19.2118 O   0  0  0  0  0  0  0  0  0  0  0  0
   22.6094   -4.5184  -13.9185 N   0  0  0  0  0  0  0  0  0  0  0  0
   22.1206   -5.8058  -13.6139 C   0  0  0  0  0  0  0  0  0  0  0  0
   21.9143   -6.0854  -12.4155 O   0  0  0  0  0  0  0  0  0  0  0  0
   21.8677   -6.7695  -14.6661 C   0  0  0  0  0  0  0  0  0  0  0  0
   20.4138   -6.8778  -15.0716 C   0  0  2  0  0  0  0  0  0  0  0  0
   20.1579   -7.8931  -16.0455 N   0  0  0  0  0  0  0  0  0  0  0  0
   19.8590   -5.5508  -15.4671 C   0  0  0  0  0  0  0  0  0  0  0  0
   20.0737   -5.0181  -16.5870 O   0  0  0  0  0  0  0  0  0  0  0  0
   19.0625   -4.8376  -14.5847 O   0  0  0  0  0  0  0  0  0  0  0  0
  1  5  1  0
  2  1  1  0
  2  3  1  0
  3  4  1  0
  5  4  1  0
  6  8  1  0
  5  6  1  6
  7  6  2  0
  9  8  1  0
  9 10  1  6
 11 10  1  0
 11 15  1  0
 12 11  2  0
 13 21  1  0
 13  9  1  0
 14 13  2  0
 17 16  1  0
 18 17  2  0
 19 17  1  0
 20 21  1  0
 20 19  1  6
 22 20  1  0
 23 22  2  0
 24 22  1  0
M  END
$$$$
