PDN.pdb
     RDKit          3D

 24 24  0  0  1  0  0  0  0  0999 V2000
   23.8547  -11.8316  -15.7240 N   0  0  0  0  0  0  0  0  0  0  0  0
   24.8311  -12.9101  -15.8189 C   0  0  0  0  0  0  0  0  0  0  0  0
   24.6695  -13.4912  -17.1999 C   0  0  0  0  0  0  0  0  0  0  0  0
   23.7292  -12.5302  -17.9069 C   0  0  0  0  0  0  0  0  0  0  0  0
   23.8612  -11.2818  -17.0635 C   0  0  1  0  0  0  0  0  0  0  0  0
   22.7219  -10.3599  -17.2875 C   0  0  0  0  0  0  0  0  0  0  0  0
   22.8154   -9.5277  -18.2195 O   0  0  0  0  0  0  0  0  0  0  0  0
   21.5671  -10.3975  -16.4965 N   0  0  0  0  0  0  0  0  0  0  0  0
   20.4248   -9.5440  -16.6642 C   0  0  1  0  0  0  0  0  0  0  0  0
   19.1028  -10.2391  -16.5831 C   0  0  0  0  0  0  0  0  0  0  0  0
   18.9389  -11.2413  -17.6620 C   0  0  0  0  0  0  0  0  0  0  0  0
   19.1582  -10.9669  -18.8684 O   0  0  0  0  0  0  0  0  0  0  0  0
   20.4693   -8.4212  -15.6692 C   0  0  0  0  0  0  0  0  0  0  0  0
   20.7899   -8.6488  -14.4738 O   0  0  0  0  0  0  0  0  0  0  0  0
   18.5312  -12.5280  -17.3507 O   0  0  0  0  0  0  0  0  0  0  0  0
   21.6755   -4.3922  -12.8828 N   0  0  0  0  0  0  0  0  0  0  0  0
   22.3474   -4.7528  -14.0692 C   0  0  0  0  0  0  0  0  0  0  0  0
   23.2794   -4.0210  -14.4599 O   0  0  0  0  0  0  0  0  0  0  0  0
   21.9616   -5.9390  -14.8068 C   0  0  0  0  0  0  0  0  0  0  0  0
   20.5065   -5.9657  -15.2213 C   0  0  2  0  0  0  0  0  0  0  0  0
   20.1564   -7.0877  -16.0356 N   0  0  0  0  0  0  0  0  0  0  0  0
   20.0886   -4.6668  -15.8242 C   0  0  0  0  0  0  0  0  0  0  0  0
   20.2548   -4.3839  -17.0392 O   0  0  0  0  0  0  0  0  0  0  0  0
   19.4837   -3.6972  -15.0397 O   0  0  0  0  0  0  0  0  0  0  0  0
  1  5  1  0
  2  1  1  0
  2  3  1  0
  3  4  1  0
  5  4  1  0
  6  8  1  0
  5  6  1  1
  7  6  2  0
  9  8  1  0
  9 10  1  1
 11 10  1  0
 11 15  1  0
 12 11  2  0
 13 21  1  0
 13  9  1  0
 14 13  2  0
 17 16  1  0
 18 17  2  0
 19 17  1  0
 20 21  1  0
 20 19  1  6
 22 20  1  0
 23 22  2  0
 24 22  1  0
M  END
$$$$
