PDN.pdb
     RDKit          3D

 24 24  0  0  1  0  0  0  0  0999 V2000
   21.1769  -12.4434  -17.2956 N   0  0  0  0  0  0  0  0  0  0  0  0
   21.3630  -13.5929  -18.1729 C   0  0  0  0  0  0  0  0  0  0  0  0
   20.1016  -13.6946  -18.9912 C   0  0  0  0  0  0  0  0  0  0  0  0
   19.3397  -12.4198  -18.6716 C   0  0  0  0  0  0  0  0  0  0  0  0
   20.4336  -11.5252  -18.1328 C   0  0  1  0  0  0  0  0  0  0  0  0
   19.8693  -10.3987  -17.3512 C   0  0  0  0  0  0  0  0  0  0  0  0
   19.2459   -9.5075  -17.9733 O   0  0  0  0  0  0  0  0  0  0  0  0
   20.0148  -10.3103  -15.9614 N   0  0  0  0  0  0  0  0  0  0  0  0
   19.5333   -9.2287  -15.1492 C   0  0  1  0  0  0  0  0  0  0  0  0
   18.8472   -9.6464  -13.8873 C   0  0  0  0  0  0  0  0  0  0  0  0
   18.3759   -8.4807  -13.1034 C   0  0  0  0  0  0  0  0  0  0  0  0
   17.8743   -7.4664  -13.6495 O   0  0  0  0  0  0  0  0  0  0  0  0
   20.6559   -8.2856  -14.8278 C   0  0  0  0  0  0  0  0  0  0  0  0
   21.7233   -8.7223  -14.3243 O   0  0  0  0  0  0  0  0  0  0  0  0
   18.4836   -8.4905  -11.7224 O   0  0  0  0  0  0  0  0  0  0  0  0
   23.9349   -4.3773  -14.8200 N   0  0  0  0  0  0  0  0  0  0  0  0
   23.5479   -4.8588  -16.0879 C   0  0  0  0  0  0  0  0  0  0  0  0
   24.2221   -4.5090  -17.0779 O   0  0  0  0  0  0  0  0  0  0  0  0
   22.4010   -5.7332  -16.2290 C   0  0  0  0  0  0  0  0  0  0  0  0
   21.6655   -6.0051  -14.9348 C   0  0  2  0  0  0  0  0  0  0  0  0
   20.5538   -6.8933  -15.0757 N   0  0  0  0  0  0  0  0  0  0  0  0
   21.3018   -4.7368  -14.2389 C   0  0  0  0  0  0  0  0  0  0  0  0
   20.1787   -4.1812  -14.3575 O   0  0  0  0  0  0  0  0  0  0  0  0
   22.2193   -4.1081  -13.4117 O   0  0  0  0  0  0  0  0  0  0  0  0
  1  5  1  0
  2  1  1  0
  2  3  1  0
  3  4  1  0
  5  4  1  0
  6  8  1  0
  5  6  1  1
  7  6  2  0
  9  8  1  0
  9 10  1  1
 11 10  1  0
 11 15  1  0
 12 11  2  0
 13 21  1  0
 13  9  1  0
 14 13  2  0
 17 16  1  0
 18 17  2  0
 19 17  1  0
 20 21  1  0
 20 19  1  6
 22 20  1  0
 23 22  2  0
 24 22  1  0
M  END
$$$$
