PDN.pdb
     RDKit          3D

 24 24  0  0  1  0  0  0  0  0999 V2000
   16.5318   -5.0442  -13.7947 N   0  0  0  0  0  0  0  0  0  0  0  0
   16.0382   -5.4748  -15.0973 C   0  0  0  0  0  0  0  0  0  0  0  0
   14.5517   -5.2279  -15.0763 C   0  0  0  0  0  0  0  0  0  0  0  0
   14.3172   -4.4402  -13.7987 C   0  0  0  0  0  0  0  0  0  0  0  0
   15.6976   -3.8965  -13.5054 C   0  0  1  0  0  0  0  0  0  0  0  0
   15.8169   -3.4700  -12.0904 C   0  0  0  0  0  0  0  0  0  0  0  0
   15.0385   -2.5785  -11.6791 O   0  0  0  0  0  0  0  0  0  0  0  0
   16.7612   -4.0297  -11.2212 N   0  0  0  0  0  0  0  0  0  0  0  0
   16.9074   -3.6908   -9.8337 C   0  0  1  0  0  0  0  0  0  0  0  0
   17.5803   -4.7336   -8.9987 C   0  0  0  0  0  0  0  0  0  0  0  0
   16.8410   -6.0175   -9.0175 C   0  0  0  0  0  0  0  0  0  0  0  0
   17.4162   -7.1175   -9.2121 O   0  0  0  0  0  0  0  0  0  0  0  0
   17.6333   -2.3844   -9.6956 C   0  0  0  0  0  0  0  0  0  0  0  0
   18.5523   -2.0840  -10.5012 O   0  0  0  0  0  0  0  0  0  0  0  0
   15.4705   -6.0260   -8.8164 O   0  0  0  0  0  0  0  0  0  0  0  0
   17.4974    3.1659  -10.0562 N   0  0  0  0  0  0  0  0  0  0  0  0
   18.2544    2.0151   -9.7534 C   0  0  0  0  0  0  0  0  0  0  0  0
   19.4493    2.1688   -9.4289 O   0  0  0  0  0  0  0  0  0  0  0  0
   17.6557    0.6971   -9.8192 C   0  0  0  0  0  0  0  0  0  0  0  0
   17.9057   -0.1595   -8.5970 C   0  0  2  0  0  0  0  0  0  0  0  0
   17.3144   -1.4593   -8.6695 N   0  0  0  0  0  0  0  0  0  0  0  0
   17.5477    0.5645   -7.3428 C   0  0  0  0  0  0  0  0  0  0  0  0
   16.4226    0.4688   -6.7871 O   0  0  0  0  0  0  0  0  0  0  0  0
   18.4733    1.3934   -6.7284 O   0  0  0  0  0  0  0  0  0  0  0  0
  1  5  1  0
  2  1  1  0
  2  3  1  0
  3  4  1  0
  5  4  1  0
  6  8  1  0
  5  6  1  1
  7  6  2  0
  9  8  1  0
  9 10  1  1
 11 10  1  0
 11 15  1  0
 12 11  2  0
 13 21  1  0
 13  9  1  0
 14 13  2  0
 17 16  1  0
 18 17  2  0
 19 17  1  0
 20 21  1  0
 20 19  1  6
 22 20  1  0
 23 22  2  0
 24 22  1  0
M  END
$$$$
