PDN.pdb
     RDKit          3D

 24 24  0  0  1  0  0  0  0  0999 V2000
   28.6289  -20.7620   -7.6687 N   0  0  0  0  0  0  0  0  0  0  0  0
   29.3305  -20.5293   -6.4120 C   0  0  0  0  0  0  0  0  0  0  0  0
   28.6683  -19.3285   -5.7871 C   0  0  0  0  0  0  0  0  0  0  0  0
   27.4454  -19.0779   -6.6528 C   0  0  0  0  0  0  0  0  0  0  0  0
   27.2631  -20.4147   -7.3360 C   0  0  1  0  0  0  0  0  0  0  0  0
   26.4153  -20.2880   -8.5457 C   0  0  0  0  0  0  0  0  0  0  0  0
   25.5075  -19.4244   -8.5378 O   0  0  0  0  0  0  0  0  0  0  0  0
   26.6026  -21.0957   -9.6740 N   0  0  0  0  0  0  0  0  0  0  0  0
   26.0914  -20.8117  -10.9853 C   0  0  1  0  0  0  0  0  0  0  0  0
   26.8435  -21.4551  -12.1068 C   0  0  0  0  0  0  0  0  0  0  0  0
   27.9202  -20.5784  -12.6239 C   0  0  0  0  0  0  0  0  0  0  0  0
   27.8024  -19.3281  -12.6651 O   0  0  0  0  0  0  0  0  0  0  0  0
   24.6407  -21.1879  -11.0660 C   0  0  0  0  0  0  0  0  0  0  0  0
   24.2304  -22.2437  -10.5176 O   0  0  0  0  0  0  0  0  0  0  0  0
   29.1026  -21.1364  -13.0816 O   0  0  0  0  0  0  0  0  0  0  0  0
   19.5471  -21.1509  -11.7524 N   0  0  0  0  0  0  0  0  0  0  0  0
   19.9865  -19.8258  -11.5517 C   0  0  0  0  0  0  0  0  0  0  0  0
   19.1236  -18.9463  -11.3551 O   0  0  0  0  0  0  0  0  0  0  0  0
   21.3990  -19.5031  -11.5743 C   0  0  0  0  0  0  0  0  0  0  0  0
   22.3042  -20.6957  -11.7939 C   0  0  2  0  0  0  0  0  0  0  0  0
   23.6983  -20.3807  -11.7519 N   0  0  0  0  0  0  0  0  0  0  0  0
   21.9232  -21.4487  -13.0240 C   0  0  0  0  0  0  0  0  0  0  0  0
   22.4098  -21.2086  -14.1596 O   0  0  0  0  0  0  0  0  0  0  0  0
   20.9899  -22.4713  -12.9539 O   0  0  0  0  0  0  0  0  0  0  0  0
  1  5  1  0
  2  1  1  0
  2  3  1  0
  3  4  1  0
  5  4  1  0
  6  8  1  0
  5  6  1  6
  7  6  2  0
  9  8  1  0
  9 10  1  6
 11 10  1  0
 11 15  1  0
 12 11  2  0
 13 21  1  0
 13  9  1  0
 14 13  2  0
 17 16  1  0
 18 17  2  0
 19 17  1  0
 20 21  1  0
 20 19  1  6
 22 20  1  0
 23 22  2  0
 24 22  1  0
M  END
$$$$
