PDN.pdb
     RDKit          3D

 24 24  0  0  1  0  0  0  0  0999 V2000
   18.7029   -9.6049  -16.8456 N   0  0  0  0  0  0  0  0  0  0  0  0
   18.7300  -10.4976  -17.9980 C   0  0  0  0  0  0  0  0  0  0  0  0
   19.9612  -11.3501  -17.8294 C   0  0  0  0  0  0  0  0  0  0  0  0
   20.4558  -11.0275  -16.4297 C   0  0  0  0  0  0  0  0  0  0  0  0
   19.2185  -10.4446  -15.7845 C   0  0  1  0  0  0  0  0  0  0  0  0
   19.5634   -9.6578  -14.5761 C   0  0  0  0  0  0  0  0  0  0  0  0
   19.8161  -10.2843  -13.5208 O   0  0  0  0  0  0  0  0  0  0  0  0
   19.6118   -8.2585  -14.5875 N   0  0  0  0  0  0  0  0  0  0  0  0
   19.9419   -7.4357  -13.4582 C   0  0  1  0  0  0  0  0  0  0  0  0
   20.7375   -6.2114  -13.7827 C   0  0  0  0  0  0  0  0  0  0  0  0
   21.0951   -5.4466  -12.5651 C   0  0  0  0  0  0  0  0  0  0  0  0
   21.1224   -5.9770  -11.4264 O   0  0  0  0  0  0  0  0  0  0  0  0
   18.6938   -7.0485  -12.7198 C   0  0  0  0  0  0  0  0  0  0  0  0
   17.7604   -6.4580  -13.3230 O   0  0  0  0  0  0  0  0  0  0  0  0
   21.4126   -4.1019  -12.6648 O   0  0  0  0  0  0  0  0  0  0  0  0
   15.0012   -6.4046   -9.2048 N   0  0  0  0  0  0  0  0  0  0  0  0
   15.1716   -7.7178   -9.6902 C   0  0  0  0  0  0  0  0  0  0  0  0
   14.2498   -8.5368   -9.4995 O   0  0  0  0  0  0  0  0  0  0  0  0
   16.3833   -8.0972  -10.3885 C   0  0  0  0  0  0  0  0  0  0  0  0
   17.3502   -6.9560  -10.6180 C   0  0  2  0  0  0  0  0  0  0  0  0
   18.5265   -7.3293  -11.3402 N   0  0  0  0  0  0  0  0  0  0  0  0
   17.6606   -6.2418   -9.3457 C   0  0  0  0  0  0  0  0  0  0  0  0
   18.8253   -6.1318   -8.8816 O   0  0  0  0  0  0  0  0  0  0  0  0
   16.6427   -5.6566   -8.6090 O   0  0  0  0  0  0  0  0  0  0  0  0
  1  5  1  0
  2  1  1  0
  2  3  1  0
  3  4  1  0
  5  4  1  0
  6  8  1  0
  5  6  1  1
  7  6  2  0
  9  8  1  0
  9 10  1  6
 11 10  1  0
 11 15  1  0
 12 11  2  0
 13 21  1  0
 13  9  1  0
 14 13  2  0
 17 16  1  0
 18 17  2  0
 19 17  1  0
 20 21  1  0
 20 19  1  1
 22 20  1  0
 23 22  2  0
 24 22  1  0
M  END
$$$$
