PDN.pdb
     RDKit          3D

 24 24  0  0  1  0  0  0  0  0999 V2000
   18.7766  -13.5684  -15.8028 N   0  0  0  0  0  0  0  0  0  0  0  0
   18.9344  -15.0042  -16.0011 C   0  0  0  0  0  0  0  0  0  0  0  0
   19.2227  -15.1876  -17.4689 C   0  0  0  0  0  0  0  0  0  0  0  0
   19.4359  -13.7773  -17.9915 C   0  0  0  0  0  0  0  0  0  0  0  0
   19.7474  -13.0145  -16.7233 C   0  0  1  0  0  0  0  0  0  0  0  0
   19.5583  -11.5564  -16.9139 C   0  0  0  0  0  0  0  0  0  0  0  0
   20.3809  -10.9480  -17.6372 O   0  0  0  0  0  0  0  0  0  0  0  0
   18.5025  -10.8581  -16.3155 N   0  0  0  0  0  0  0  0  0  0  0  0
   18.1895   -9.4767  -16.5505 C   0  0  1  0  0  0  0  0  0  0  0  0
   16.7281   -9.1666  -16.6256 C   0  0  0  0  0  0  0  0  0  0  0  0
   16.0807   -9.8343  -17.7791 C   0  0  0  0  0  0  0  0  0  0  0  0
   16.4466   -9.6274  -18.9631 O   0  0  0  0  0  0  0  0  0  0  0  0
   18.8375   -8.6159  -15.5056 C   0  0  0  0  0  0  0  0  0  0  0  0
   18.7209   -8.9063  -14.2866 O   0  0  0  0  0  0  0  0  0  0  0  0
   15.0361  -10.7187  -17.5655 O   0  0  0  0  0  0  0  0  0  0  0  0
   21.4640   -4.9194  -13.0467 N   0  0  0  0  0  0  0  0  0  0  0  0
   22.1819   -5.3004  -14.1994 C   0  0  0  0  0  0  0  0  0  0  0  0
   23.3224   -4.8218  -14.3638 O   0  0  0  0  0  0  0  0  0  0  0  0
   21.6060   -6.2205  -15.1595 C   0  0  0  0  0  0  0  0  0  0  0  0
   20.1723   -6.6058  -14.8662 C   0  0  2  0  0  0  0  0  0  0  0  0
   19.5904   -7.4649  -15.8500 N   0  0  0  0  0  0  0  0  0  0  0  0
   19.3330   -5.4052  -14.5846 C   0  0  0  0  0  0  0  0  0  0  0  0
   19.0542   -5.0146  -13.4211 O   0  0  0  0  0  0  0  0  0  0  0  0
   18.8159   -4.6558  -15.6298 O   0  0  0  0  0  0  0  0  0  0  0  0
  1  5  1  0
  2  1  1  0
  2  3  1  0
  3  4  1  0
  5  4  1  0
  6  8  1  0
  5  6  1  6
  7  6  2  0
  9  8  1  0
  9 10  1  1
 11 10  1  0
 11 15  1  0
 12 11  2  0
 13 21  1  0
 13  9  1  0
 14 13  2  0
 17 16  1  0
 18 17  2  0
 19 17  1  0
 20 21  1  0
 20 19  1  6
 22 20  1  0
 23 22  2  0
 24 22  1  0
M  END
$$$$
