PDN.pdb
     RDKit          3D

 24 24  0  0  1  0  0  0  0  0999 V2000
   19.7997  -12.6068  -15.8163 N   0  0  0  0  0  0  0  0  0  0  0  0
   20.1793  -13.9899  -16.0785 C   0  0  0  0  0  0  0  0  0  0  0  0
   20.1179  -14.1570  -17.5749 C   0  0  0  0  0  0  0  0  0  0  0  0
   19.9131  -12.7480  -18.1046 C   0  0  0  0  0  0  0  0  0  0  0  0
   20.3795  -11.9024  -16.9408 C   0  0  1  0  0  0  0  0  0  0  0  0
   19.8677  -10.5149  -17.0464 C   0  0  0  0  0  0  0  0  0  0  0  0
   20.4481   -9.7344  -17.8363 O   0  0  0  0  0  0  0  0  0  0  0  0
   18.7726  -10.0663  -16.2981 N   0  0  0  0  0  0  0  0  0  0  0  0
   18.2053   -8.7496  -16.3750 C   0  0  1  0  0  0  0  0  0  0  0  0
   16.7318   -8.6838  -16.1261 C   0  0  0  0  0  0  0  0  0  0  0  0
   15.9746   -9.5461  -17.0633 C   0  0  0  0  0  0  0  0  0  0  0  0
   16.0760   -9.4289  -18.3101 O   0  0  0  0  0  0  0  0  0  0  0  0
   18.9204   -7.8241  -15.4344 C   0  0  0  0  0  0  0  0  0  0  0  0
   19.2975   -8.2368  -14.3069 O   0  0  0  0  0  0  0  0  0  0  0  0
   15.1218  -10.5188  -16.5680 O   0  0  0  0  0  0  0  0  0  0  0  0
   23.2072   -4.4948  -14.5239 N   0  0  0  0  0  0  0  0  0  0  0  0
   22.2198   -5.2839  -13.8983 C   0  0  0  0  0  0  0  0  0  0  0  0
   22.0961   -5.1941  -12.6599 O   0  0  0  0  0  0  0  0  0  0  0  0
   21.3777   -6.1699  -14.6767 C   0  0  0  0  0  0  0  0  0  0  0  0
   19.9961   -5.6219  -14.9605 C   0  0  2  0  0  0  0  0  0  0  0  0
   19.1908   -6.4753  -15.7777 N   0  0  0  0  0  0  0  0  0  0  0  0
   20.0610   -4.2249  -15.4797 C   0  0  0  0  0  0  0  0  0  0  0  0
   20.1647   -3.9465  -16.7027 O   0  0  0  0  0  0  0  0  0  0  0  0
   20.0073   -3.1526  -14.6029 O   0  0  0  0  0  0  0  0  0  0  0  0
  1  5  1  0
  2  1  1  0
  2  3  1  0
  3  4  1  0
  5  4  1  0
  6  8  1  0
  5  6  1  6
  7  6  2  0
  9  8  1  0
  9 10  1  1
 11 10  1  0
 11 15  1  0
 12 11  2  0
 13 21  1  0
 13  9  1  0
 14 13  2  0
 17 16  1  0
 18 17  2  0
 19 17  1  0
 20 21  1  0
 20 19  1  6
 22 20  1  0
 23 22  2  0
 24 22  1  0
M  END
$$$$
