YVN.pdb
     RDKit          3D

 28 28  0  0  1  0  0  0  0  0999 V2000
   10.6835  -15.0719   30.5708 O   0  0  0  0  0  0  0  0  0  0  0  0
   10.4031  -15.0120   29.2192 C   0  0  0  0  0  0  0  0  0  0  0  0
   11.2240  -14.2592   28.4067 C   0  0  0  0  0  0  0  0  0  0  0  0
   10.9589  -14.1882   27.0543 C   0  0  0  0  0  0  0  0  0  0  0  0
    9.9054  -14.8341   26.4515 C   0  0  0  0  0  0  0  0  0  0  0  0
    9.5919  -14.7823   25.0095 C   0  0  0  0  0  0  0  0  0  0  0  0
    8.5850  -15.8320   24.5984 C   0  0  2  0  0  0  0  0  0  0  0  0
    9.0356  -17.1205   25.0376 N   0  0  0  0  0  0  0  0  0  0  0  0
    8.2977  -15.7919   23.1419 C   0  0  0  0  0  0  0  0  0  0  0  0
    8.0769  -16.8435   22.4736 O   0  0  0  0  0  0  0  0  0  0  0  0
    9.0817  -15.5913   27.2775 C   0  0  0  0  0  0  0  0  0  0  0  0
    9.3408  -15.6671   28.6318 C   0  0  0  0  0  0  0  0  0  0  0  0
    7.1688  -13.0913   19.0870 C   0  0  0  0  0  0  0  0  0  0  0  0
    7.4947  -13.1484   20.5593 C   0  0  2  0  0  0  0  0  0  0  0  0
    8.4852  -12.0724   20.9732 C   0  0  0  0  0  0  0  0  0  0  0  0
    7.9795  -14.5226   20.9872 C   0  0  2  0  0  0  0  0  0  0  0  0
    8.2506  -14.5770   22.4046 N   0  0  0  0  0  0  0  0  0  0  0  0
    9.1413  -14.9241   20.1617 C   0  0  0  0  0  0  0  0  0  0  0  0
    9.1016  -15.0708   18.9132 O   0  0  0  0  0  0  0  0  0  0  0  0
   13.8429  -14.5565   17.9587 N   0  0  0  0  0  0  0  0  0  0  0  0
   13.7847  -14.6506   19.3695 C   0  0  0  0  0  0  0  0  0  0  0  0
   14.8007  -14.9682   20.0261 O   0  0  0  0  0  0  0  0  0  0  0  0
   12.5270  -14.3762   20.0870 C   0  0  0  0  0  0  0  0  0  0  0  0
   11.5857  -15.5623   20.0376 C   0  0  2  0  0  0  0  0  0  0  0  0
   10.3876  -15.1631   20.7969 N   0  0  0  0  0  0  0  0  0  0  0  0
   12.1532  -16.8041   20.5600 C   0  0  0  0  0  0  0  0  0  0  0  0
   11.9004  -17.2287   21.7115 O   0  0  0  0  0  0  0  0  0  0  0  0
   13.0157  -17.5848   19.7864 O   0  0  0  0  0  0  0  0  0  0  0  0
  2  1  1  0
  3  2  2  0
  4  3  1  0
  5 11  1  0
  5  4  2  0
  6  7  1  0
  6  5  1  0
  7  8  1  6
  7  9  1  0
  9 10  2  0
 11 12  2  0
 12  2  1  0
 14 16  1  0
 14 13  1  6
 14 15  1  0
 17  9  1  0
 16 17  1  1
 18 16  1  0
 18 19  2  0
 20 21  1  0
 21 23  1  0
 21 22  2  0
 24 23  1  1
 24 25  1  0
 25 18  1  0
 26 24  1  0
 26 28  1  0
 27 26  2  0
M  END
$$$$
