YVN.pdb
     RDKit          3D

 28 28  0  0  1  0  0  0  0  0999 V2000
    5.5407  -10.7710   28.7078 O   0  0  0  0  0  0  0  0  0  0  0  0
    6.1006  -11.6532   27.8038 C   0  0  0  0  0  0  0  0  0  0  0  0
    6.9839  -12.6041   28.2688 C   0  0  0  0  0  0  0  0  0  0  0  0
    7.5526  -13.4934   27.3799 C   0  0  0  0  0  0  0  0  0  0  0  0
    7.2893  -13.4921   26.0305 C   0  0  0  0  0  0  0  0  0  0  0  0
    7.8772  -14.4276   25.0508 C   0  0  0  0  0  0  0  0  0  0  0  0
    6.8280  -15.2278   24.3134 C   0  0  2  0  0  0  0  0  0  0  0  0
    6.3019  -16.2382   25.1844 N   0  0  0  0  0  0  0  0  0  0  0  0
    7.3435  -15.7844   23.0367 C   0  0  0  0  0  0  0  0  0  0  0  0
    7.3682  -17.0291   22.8102 O   0  0  0  0  0  0  0  0  0  0  0  0
    6.3975  -12.5300   25.5689 C   0  0  0  0  0  0  0  0  0  0  0  0
    5.8245  -11.6368   26.4524 C   0  0  0  0  0  0  0  0  0  0  0  0
    9.1854  -13.3756   19.7599 C   0  0  0  0  0  0  0  0  0  0  0  0
    8.0071  -14.3093   19.6299 C   0  0  2  0  0  0  0  0  0  0  0  0
    6.6783  -13.5750   19.7020 C   0  0  0  0  0  0  0  0  0  0  0  0
    8.0555  -15.4395   20.6431 C   0  0  2  0  0  0  0  0  0  0  0  0
    7.8402  -14.9616   21.9887 N   0  0  0  0  0  0  0  0  0  0  0  0
    9.3215  -16.1928   20.4940 C   0  0  0  0  0  0  0  0  0  0  0  0
    9.7612  -16.6218   19.3966 O   0  0  0  0  0  0  0  0  0  0  0  0
   12.8766  -18.4488   19.6327 N   0  0  0  0  0  0  0  0  0  0  0  0
   13.0306  -17.0434   19.6954 C   0  0  0  0  0  0  0  0  0  0  0  0
   13.8065  -16.4551   18.9105 O   0  0  0  0  0  0  0  0  0  0  0  0
   12.2800  -16.2513   20.6858 C   0  0  0  0  0  0  0  0  0  0  0  0
   11.4130  -17.1310   21.5632 C   0  0  2  0  0  0  0  0  0  0  0  0
   10.1045  -16.4587   21.6473 N   0  0  0  0  0  0  0  0  0  0  0  0
   11.9635  -17.3845   22.8935 C   0  0  0  0  0  0  0  0  0  0  0  0
   13.0887  -17.9074   23.0690 O   0  0  0  0  0  0  0  0  0  0  0  0
   11.2486  -17.0496   24.0461 O   0  0  0  0  0  0  0  0  0  0  0  0
  2  1  1  0
  3  2  2  0
  4  3  1  0
  5 11  1  0
  5  4  2  0
  6  7  1  0
  6  5  1  0
  7  8  1  1
  7  9  1  0
  9 10  2  0
 11 12  2  0
 12  2  1  0
 14 16  1  0
 14 13  1  1
 14 15  1  0
 17  9  1  0
 16 17  1  1
 18 16  1  0
 18 19  2  0
 20 21  1  0
 21 23  1  0
 21 22  2  0
 24 23  1  6
 24 25  1  0
 25 18  1  0
 26 24  1  0
 26 28  1  0
 27 26  2  0
M  END
$$$$
