YVN.pdb
     RDKit          3D

 28 28  0  0  1  0  0  0  0  0999 V2000
    5.5491  -10.7874   29.0462 O   0  0  0  0  0  0  0  0  0  0  0  0
    6.1315  -11.5748   28.0717 C   0  0  0  0  0  0  0  0  0  0  0  0
    7.2185  -12.3516   28.4120 C   0  0  0  0  0  0  0  0  0  0  0  0
    7.8127  -13.1442   27.4513 C   0  0  0  0  0  0  0  0  0  0  0  0
    7.3810  -13.2107   26.1476 C   0  0  0  0  0  0  0  0  0  0  0  0
    7.9902  -14.0470   25.0941 C   0  0  0  0  0  0  0  0  0  0  0  0
    7.0253  -15.0679   24.5358 C   0  0  2  0  0  0  0  0  0  0  0  0
    6.8147  -16.1028   25.5057 N   0  0  0  0  0  0  0  0  0  0  0  0
    7.4692  -15.5971   23.2211 C   0  0  0  0  0  0  0  0  0  0  0  0
    7.9923  -16.7431   23.1025 O   0  0  0  0  0  0  0  0  0  0  0  0
    6.2843  -12.4242   25.8118 C   0  0  0  0  0  0  0  0  0  0  0  0
    5.6845  -11.6285   26.7678 C   0  0  0  0  0  0  0  0  0  0  0  0
    7.8717  -14.9129   18.2646 C   0  0  0  0  0  0  0  0  0  0  0  0
    7.5089  -14.3556   19.6192 C   0  0  2  0  0  0  0  0  0  0  0  0
    8.1274  -12.9893   19.8655 C   0  0  0  0  0  0  0  0  0  0  0  0
    7.8520  -15.3150   20.7454 C   0  0  2  0  0  0  0  0  0  0  0  0
    7.3363  -14.8571   22.0142 N   0  0  0  0  0  0  0  0  0  0  0  0
    9.3124  -15.5581   20.7698 C   0  0  0  0  0  0  0  0  0  0  0  0
   10.1111  -14.9741   21.5461 O   0  0  0  0  0  0  0  0  0  0  0  0
   13.7001  -17.8789   21.3804 N   0  0  0  0  0  0  0  0  0  0  0  0
   12.4553  -18.4959   21.6494 C   0  0  0  0  0  0  0  0  0  0  0  0
   12.4101  -19.6587   22.1078 O   0  0  0  0  0  0  0  0  0  0  0  0
   11.1934  -17.7788   21.3940 C   0  0  0  0  0  0  0  0  0  0  0  0
   11.2194  -17.0606   20.0602 C   0  0  2  0  0  0  0  0  0  0  0  0
    9.8679  -16.5050   19.8706 N   0  0  0  0  0  0  0  0  0  0  0  0
   11.6083  -17.9023   18.9301 C   0  0  0  0  0  0  0  0  0  0  0  0
   10.8144  -18.6997   18.3789 O   0  0  0  0  0  0  0  0  0  0  0  0
   12.9026  -17.8540   18.4061 O   0  0  0  0  0  0  0  0  0  0  0  0
  2  1  1  0
  3  2  2  0
  4  3  1  0
  5 11  1  0
  5  4  2  0
  6  7  1  0
  6  5  1  0
  7  8  1  1
  7  9  1  0
  9 10  2  0
 11 12  2  0
 12  2  1  0
 14 16  1  0
 14 13  1  6
 14 15  1  0
 17  9  1  0
 16 17  1  1
 18 16  1  0
 18 19  2  0
 20 21  1  0
 21 23  1  0
 21 22  2  0
 24 23  1  1
 24 25  1  0
 25 18  1  0
 26 24  1  0
 26 28  1  0
 27 26  2  0
M  END
$$$$
