YVN.pdb
     RDKit          3D

 28 28  0  0  1  0  0  0  0  0999 V2000
    8.2349  -13.7827   15.8674 O   0  0  0  0  0  0  0  0  0  0  0  0
    8.1548  -13.7239   17.2454 C   0  0  0  0  0  0  0  0  0  0  0  0
    6.9284  -13.4809   17.8264 C   0  0  0  0  0  0  0  0  0  0  0  0
    6.8299  -13.4189   19.2015 C   0  0  0  0  0  0  0  0  0  0  0  0
    7.8998  -13.5877   20.0482 C   0  0  0  0  0  0  0  0  0  0  0  0
    7.8323  -13.5296   21.5222 C   0  0  0  0  0  0  0  0  0  0  0  0
    8.9142  -14.3522   22.1838 C   0  0  2  0  0  0  0  0  0  0  0  0
    8.7361  -15.7336   21.8430 N   0  0  0  0  0  0  0  0  0  0  0  0
    8.9704  -14.1270   23.6506 C   0  0  0  0  0  0  0  0  0  0  0  0
    8.8780  -12.9700   24.1546 O   0  0  0  0  0  0  0  0  0  0  0  0
    9.1336  -13.8324   19.4550 C   0  0  0  0  0  0  0  0  0  0  0  0
    9.2399  -13.8958   18.0796 C   0  0  0  0  0  0  0  0  0  0  0  0
    7.6736  -13.8626   27.8062 C   0  0  0  0  0  0  0  0  0  0  0  0
    7.6847  -14.3534   26.3792 C   0  0  2  0  0  0  0  0  0  0  0  0
    6.5132  -15.2731   26.0762 C   0  0  0  0  0  0  0  0  0  0  0  0
    9.0007  -15.0150   26.0098 C   0  0  2  0  0  0  0  0  0  0  0  0
    9.1298  -15.1895   24.5821 N   0  0  0  0  0  0  0  0  0  0  0  0
    9.1542  -16.2811   26.7621 C   0  0  0  0  0  0  0  0  0  0  0  0
    8.8347  -16.4264   27.9698 O   0  0  0  0  0  0  0  0  0  0  0  0
   10.4416  -18.9952   23.3564 N   0  0  0  0  0  0  0  0  0  0  0  0
    9.8010  -19.4598   24.5295 C   0  0  0  0  0  0  0  0  0  0  0  0
    8.5828  -19.7431   24.5168 O   0  0  0  0  0  0  0  0  0  0  0  0
   10.5582  -19.6172   25.7840 C   0  0  0  0  0  0  0  0  0  0  0  0
   10.1115  -18.6212   26.8346 C   0  0  2  0  0  0  0  0  0  0  0  0
    9.6925  -17.4148   26.0996 N   0  0  0  0  0  0  0  0  0  0  0  0
   11.1289  -18.3038   27.8352 C   0  0  0  0  0  0  0  0  0  0  0  0
   11.6113  -17.1547   27.9651 O   0  0  0  0  0  0  0  0  0  0  0  0
   11.6157  -19.2829   28.7049 O   0  0  0  0  0  0  0  0  0  0  0  0
  2  1  1  0
  3  2  2  0
  4  3  1  0
  5 11  1  0
  5  4  2  0
  6  7  1  0
  6  5  1  0
  7  8  1  1
  7  9  1  0
  9 10  2  0
 11 12  2  0
 12  2  1  0
 14 16  1  0
 14 13  1  1
 14 15  1  0
 17  9  1  0
 16 17  1  6
 18 16  1  0
 18 19  2  0
 20 21  1  0
 21 23  1  0
 21 22  2  0
 24 23  1  6
 24 25  1  0
 25 18  1  0
 26 24  1  0
 26 28  1  0
 27 26  2  0
M  END
$$$$
