YVN.pdb
     RDKit          3D

 28 28  0  0  1  0  0  0  0  0999 V2000
    9.6269  -14.5922   30.4182 O   0  0  0  0  0  0  0  0  0  0  0  0
    9.6301  -14.7509   29.0457 C   0  0  0  0  0  0  0  0  0  0  0  0
    8.9965  -13.8040   28.2693 C   0  0  0  0  0  0  0  0  0  0  0  0
    8.9899  -13.9467   26.8968 C   0  0  0  0  0  0  0  0  0  0  0  0
    9.5876  -14.9955   26.2389 C   0  0  0  0  0  0  0  0  0  0  0  0
    9.6019  -15.1803   24.7739 C   0  0  0  0  0  0  0  0  0  0  0  0
    8.2553  -15.5998   24.2305 C   0  0  2  0  0  0  0  0  0  0  0  0
    7.8085  -16.7738   24.9222 N   0  0  0  0  0  0  0  0  0  0  0  0
    8.2773  -15.7775   22.7563 C   0  0  0  0  0  0  0  0  0  0  0  0
    8.1257  -16.9116   22.2161 O   0  0  0  0  0  0  0  0  0  0  0  0
   10.2246  -15.9467   27.0286 C   0  0  0  0  0  0  0  0  0  0  0  0
   10.2354  -15.8107   28.4027 C   0  0  0  0  0  0  0  0  0  0  0  0
    9.0337  -12.4692   19.8611 C   0  0  0  0  0  0  0  0  0  0  0  0
    7.9570  -13.5218   19.7633 C   0  0  2  0  0  0  0  0  0  0  0  0
    6.6239  -13.0361   20.3084 C   0  0  0  0  0  0  0  0  0  0  0  0
    8.3676  -14.8264   20.4234 C   0  0  2  0  0  0  0  0  0  0  0  0
    8.4679  -14.6921   21.8577 N   0  0  0  0  0  0  0  0  0  0  0  0
    9.6131  -15.3323   19.8026 C   0  0  0  0  0  0  0  0  0  0  0  0
    9.7110  -15.6734   18.5960 O   0  0  0  0  0  0  0  0  0  0  0  0
   14.0756  -15.3383   18.3036 N   0  0  0  0  0  0  0  0  0  0  0  0
   14.1913  -14.8308   19.6196 C   0  0  0  0  0  0  0  0  0  0  0  0
   15.1850  -14.1469   19.9501 O   0  0  0  0  0  0  0  0  0  0  0  0
   13.1438  -15.0996   20.6207 C   0  0  0  0  0  0  0  0  0  0  0  0
   12.0454  -15.9780   20.0574 C   0  0  2  0  0  0  0  0  0  0  0  0
   10.7819  -15.4476   20.5992 N   0  0  0  0  0  0  0  0  0  0  0  0
   12.1953  -17.4000   20.3616 C   0  0  0  0  0  0  0  0  0  0  0  0
   11.5051  -17.9796   21.2321 O   0  0  0  0  0  0  0  0  0  0  0  0
   13.1293  -18.1881   19.6845 O   0  0  0  0  0  0  0  0  0  0  0  0
  2  1  1  0
  3  2  2  0
  4  3  1  0
  5 11  1  0
  5  4  2  0
  6  7  1  0
  6  5  1  0
  7  8  1  1
  7  9  1  0
  9 10  2  0
 11 12  2  0
 12  2  1  0
 14 16  1  0
 14 13  1  1
 14 15  1  0
 17  9  1  0
 16 17  1  1
 18 16  1  0
 18 19  2  0
 20 21  1  0
 21 23  1  0
 21 22  2  0
 24 23  1  1
 24 25  1  0
 25 18  1  0
 26 24  1  0
 26 28  1  0
 27 26  2  0
M  END
$$$$
