YVN.pdb
     RDKit          3D

 28 28  0  0  1  0  0  0  0  0999 V2000
   20.5430  -26.6958   37.8534 O   0  0  0  0  0  0  0  0  0  0  0  0
   19.4877  -25.9817   37.3193 C   0  0  0  0  0  0  0  0  0  0  0  0
   18.7306  -25.1933   38.1596 C   0  0  0  0  0  0  0  0  0  0  0  0
   17.6728  -24.4732   37.6431 C   0  0  0  0  0  0  0  0  0  0  0  0
   17.3172  -24.4917   36.3152 C   0  0  0  0  0  0  0  0  0  0  0  0
   16.1940  -23.7344   35.7273 C   0  0  0  0  0  0  0  0  0  0  0  0
   16.6453  -22.7704   34.6540 C   0  0  2  0  0  0  0  0  0  0  0  0
   17.5772  -21.8364   35.2155 N   0  0  0  0  0  0  0  0  0  0  0  0
   15.5003  -22.1036   33.9832 C   0  0  0  0  0  0  0  0  0  0  0  0
   14.7306  -21.3119   34.6013 O   0  0  0  0  0  0  0  0  0  0  0  0
   18.0853  -25.2893   35.4738 C   0  0  0  0  0  0  0  0  0  0  0  0
   19.1454  -26.0128   35.9834 C   0  0  0  0  0  0  0  0  0  0  0  0
   15.0880  -21.8820   29.6458 C   0  0  0  0  0  0  0  0  0  0  0  0
   14.5392  -20.9352   30.6849 C   0  0  2  0  0  0  0  0  0  0  0  0
   15.5157  -19.8208   31.0232 C   0  0  0  0  0  0  0  0  0  0  0  0
   14.0897  -21.6598   31.9416 C   0  0  2  0  0  0  0  0  0  0  0  0
   15.1939  -22.3076   32.6098 N   0  0  0  0  0  0  0  0  0  0  0  0
   12.9856  -22.5911   31.6158 C   0  0  0  0  0  0  0  0  0  0  0  0
   11.8791  -22.2325   31.1376 O   0  0  0  0  0  0  0  0  0  0  0  0
   10.7556  -27.1432   30.4582 N   0  0  0  0  0  0  0  0  0  0  0  0
   11.9591  -27.4258   31.1470 C   0  0  0  0  0  0  0  0  0  0  0  0
   12.3217  -28.6087   31.3305 O   0  0  0  0  0  0  0  0  0  0  0  0
   12.8038  -26.3318   31.6586 C   0  0  0  0  0  0  0  0  0  0  0  0
   12.1703  -24.9771   31.4162 C   0  0  2  0  0  0  0  0  0  0  0  0
   13.1647  -23.9795   31.8488 N   0  0  0  0  0  0  0  0  0  0  0  0
   10.8920  -24.7791   32.0972 C   0  0  0  0  0  0  0  0  0  0  0  0
   10.7891  -24.7613   33.3459 O   0  0  0  0  0  0  0  0  0  0  0  0
    9.7100  -24.5978   31.3747 O   0  0  0  0  0  0  0  0  0  0  0  0
  2  1  1  0
  3  2  2  0
  4  3  1  0
  5 11  1  0
  5  4  2  0
  6  7  1  0
  6  5  1  0
  7  8  1  1
  7  9  1  0
  9 10  2  0
 11 12  2  0
 12  2  1  0
 14 16  1  0
 14 13  1  6
 14 15  1  0
 17  9  1  0
 16 17  1  6
 18 16  1  0
 18 19  2  0
 20 21  1  0
 21 23  1  0
 21 22  2  0
 24 23  1  1
 24 25  1  0
 25 18  1  0
 26 24  1  0
 26 28  1  0
 27 26  2  0
M  END
$$$$
