YVN.pdb
     RDKit          3D

 28 28  0  0  1  0  0  0  0  0999 V2000
    6.5720  -10.9557   27.4128 O   0  0  0  0  0  0  0  0  0  0  0  0
    6.8544  -12.2503   27.0213 C   0  0  0  0  0  0  0  0  0  0  0  0
    5.8354  -13.1790   27.0246 C   0  0  0  0  0  0  0  0  0  0  0  0
    6.0994  -14.4766   26.6365 C   0  0  0  0  0  0  0  0  0  0  0  0
    7.3408  -14.9129   26.2378 C   0  0  0  0  0  0  0  0  0  0  0  0
    7.6600  -16.2913   25.8151 C   0  0  0  0  0  0  0  0  0  0  0  0
    6.8091  -16.7520   24.6539 C   0  0  2  0  0  0  0  0  0  0  0  0
    6.3857  -18.1030   24.8816 N   0  0  0  0  0  0  0  0  0  0  0  0
    7.5005  -16.5806   23.3508 C   0  0  0  0  0  0  0  0  0  0  0  0
    7.8674  -17.5698   22.6522 O   0  0  0  0  0  0  0  0  0  0  0  0
    8.3636  -13.9706   26.2372 C   0  0  0  0  0  0  0  0  0  0  0  0
    8.1070  -12.6701   26.6243 C   0  0  0  0  0  0  0  0  0  0  0  0
    6.6704  -13.1819   21.0514 C   0  0  0  0  0  0  0  0  0  0  0  0
    8.1014  -13.6589   21.0075 C   0  0  2  0  0  0  0  0  0  0  0  0
    8.7409  -13.4406   19.6461 C   0  0  0  0  0  0  0  0  0  0  0  0
    8.2374  -15.1076   21.4424 C   0  0  2  0  0  0  0  0  0  0  0  0
    7.7942  -15.3018   22.8030 N   0  0  0  0  0  0  0  0  0  0  0  0
    9.6253  -15.5710   21.2158 C   0  0  0  0  0  0  0  0  0  0  0  0
   10.2045  -15.5425   20.0998 O   0  0  0  0  0  0  0  0  0  0  0  0
   14.8545  -15.5520   21.5848 N   0  0  0  0  0  0  0  0  0  0  0  0
   14.0504  -15.7731   22.7281 C   0  0  0  0  0  0  0  0  0  0  0  0
   14.5420  -16.2797   23.7605 O   0  0  0  0  0  0  0  0  0  0  0  0
   12.6220  -15.4102   22.7205 C   0  0  0  0  0  0  0  0  0  0  0  0
   11.7645  -16.5295   22.1660 C   0  0  2  0  0  0  0  0  0  0  0  0
   10.3679  -16.0826   22.3115 N   0  0  0  0  0  0  0  0  0  0  0  0
   11.9748  -17.8251   22.8097 C   0  0  0  0  0  0  0  0  0  0  0  0
   12.7997  -18.6650   22.3805 O   0  0  0  0  0  0  0  0  0  0  0  0
   11.2543  -18.1898   23.9497 O   0  0  0  0  0  0  0  0  0  0  0  0
  2  1  1  0
  3  2  2  0
  4  3  1  0
  5 11  1  0
  5  4  2  0
  6  7  1  0
  6  5  1  0
  7  8  1  1
  7  9  1  0
  9 10  2  0
 11 12  2  0
 12  2  1  0
 14 16  1  0
 14 13  1  6
 14 15  1  0
 17  9  1  0
 16 17  1  1
 18 16  1  0
 18 19  2  0
 20 21  1  0
 21 23  1  0
 21 22  2  0
 24 23  1  1
 24 25  1  0
 25 18  1  0
 26 24  1  0
 26 28  1  0
 27 26  2  0
M  END
$$$$
