YVN.pdb
     RDKit          3D

 28 28  0  0  1  0  0  0  0  0999 V2000
   11.1778  -19.6512   11.5055 O   0  0  0  0  0  0  0  0  0  0  0  0
   11.1170  -19.1160   12.7778 C   0  0  0  0  0  0  0  0  0  0  0  0
   10.0587  -18.2927   13.0986 C   0  0  0  0  0  0  0  0  0  0  0  0
    9.9820  -17.7494   14.3648 C   0  0  0  0  0  0  0  0  0  0  0  0
   10.9136  -17.9814   15.3489 C   0  0  0  0  0  0  0  0  0  0  0  0
   10.8637  -17.4193   16.7135 C   0  0  0  0  0  0  0  0  0  0  0  0
   10.9103  -15.9085   16.7189 C   0  0  2  0  0  0  0  0  0  0  0  0
   12.1038  -15.4675   16.0575 N   0  0  0  0  0  0  0  0  0  0  0  0
   10.7745  -15.3492   18.0879 C   0  0  0  0  0  0  0  0  0  0  0  0
   11.7727  -15.1927   18.8495 O   0  0  0  0  0  0  0  0  0  0  0  0
   11.9783  -18.8127   15.0179 C   0  0  0  0  0  0  0  0  0  0  0  0
   12.0618  -19.3599   13.7529 C   0  0  0  0  0  0  0  0  0  0  0  0
    6.9001  -13.9652   19.8591 C   0  0  0  0  0  0  0  0  0  0  0  0
    8.2671  -13.3391   19.9873 C   0  0  2  0  0  0  0  0  0  0  0  0
    8.5026  -12.2508   18.9527 C   0  0  0  0  0  0  0  0  0  0  0  0
    9.3785  -14.3732   19.9464 C   0  0  2  0  0  0  0  0  0  0  0  0
    9.5217  -14.9533   18.6317 N   0  0  0  0  0  0  0  0  0  0  0  0
    9.1599  -15.3865   21.0036 C   0  0  0  0  0  0  0  0  0  0  0  0
    8.3219  -16.3208   20.9218 O   0  0  0  0  0  0  0  0  0  0  0  0
    9.8413  -19.4237   21.7374 N   0  0  0  0  0  0  0  0  0  0  0  0
   11.0679  -18.7620   21.9832 C   0  0  0  0  0  0  0  0  0  0  0  0
   12.0662  -19.4035   22.3782 O   0  0  0  0  0  0  0  0  0  0  0  0
   11.1884  -17.3076   21.7778 C   0  0  0  0  0  0  0  0  0  0  0  0
   10.4552  -16.5295   22.8512 C   0  0  2  0  0  0  0  0  0  0  0  0
    9.9328  -15.3196   22.1919 N   0  0  0  0  0  0  0  0  0  0  0  0
   11.2742  -16.1867   24.0126 C   0  0  0  0  0  0  0  0  0  0  0  0
   11.8329  -15.0722   24.1382 O   0  0  0  0  0  0  0  0  0  0  0  0
   11.4730  -17.1008   25.0504 O   0  0  0  0  0  0  0  0  0  0  0  0
  2  1  1  0
  3  2  2  0
  4  3  1  0
  5 11  1  0
  5  4  2  0
  6  7  1  0
  6  5  1  0
  7  8  1  1
  7  9  1  0
  9 10  2  0
 11 12  2  0
 12  2  1  0
 14 16  1  0
 14 13  1  6
 14 15  1  0
 17  9  1  0
 16 17  1  6
 18 16  1  0
 18 19  2  0
 20 21  1  0
 21 23  1  0
 21 22  2  0
 24 23  1  6
 24 25  1  0
 25 18  1  0
 26 24  1  0
 26 28  1  0
 27 26  2  0
M  END
$$$$
