YVN.pdb
     RDKit          3D

 28 28  0  0  1  0  0  0  0  0999 V2000
    4.9289  -18.3496   16.3620 O   0  0  0  0  0  0  0  0  0  0  0  0
    5.6789  -17.8806   17.4233 C   0  0  0  0  0  0  0  0  0  0  0  0
    6.9907  -17.5212   17.1978 C   0  0  0  0  0  0  0  0  0  0  0  0
    7.7545  -17.0506   18.2463 C   0  0  0  0  0  0  0  0  0  0  0  0
    7.2812  -16.9140   19.5299 C   0  0  0  0  0  0  0  0  0  0  0  0
    8.0677  -16.4135   20.6751 C   0  0  0  0  0  0  0  0  0  0  0  0
    7.7646  -14.9682   20.9976 C   0  0  2  0  0  0  0  0  0  0  0  0
    8.1097  -14.1479   19.8732 N   0  0  0  0  0  0  0  0  0  0  0  0
    8.4226  -14.5249   22.2530 C   0  0  0  0  0  0  0  0  0  0  0  0
    9.6405  -14.1834   22.2862 O   0  0  0  0  0  0  0  0  0  0  0  0
    5.9572  -17.2785   19.7497 C   0  0  0  0  0  0  0  0  0  0  0  0
    5.1867  -17.7503   18.7053 C   0  0  0  0  0  0  0  0  0  0  0  0
    8.2196  -12.6409   26.7879 C   0  0  0  0  0  0  0  0  0  0  0  0
    7.5118  -13.1324   25.5491 C   0  0  2  0  0  0  0  0  0  0  0  0
    6.1647  -13.7611   25.8654 C   0  0  0  0  0  0  0  0  0  0  0  0
    8.3730  -14.0813   24.7341 C   0  0  2  0  0  0  0  0  0  0  0  0
    7.7329  -14.4538   23.4944 N   0  0  0  0  0  0  0  0  0  0  0  0
    8.7532  -15.2492   25.5610 C   0  0  0  0  0  0  0  0  0  0  0  0
    7.9276  -16.0369   26.0900 O   0  0  0  0  0  0  0  0  0  0  0  0
   12.7834  -19.0425   26.8853 N   0  0  0  0  0  0  0  0  0  0  0  0
   12.6783  -17.7155   27.3655 C   0  0  0  0  0  0  0  0  0  0  0  0
   13.0829  -17.4224   28.5121 O   0  0  0  0  0  0  0  0  0  0  0  0
   12.0909  -16.6586   26.5230 C   0  0  0  0  0  0  0  0  0  0  0  0
   10.5788  -16.6457   26.6167 C   0  0  2  0  0  0  0  0  0  0  0  0
   10.1289  -15.5165   25.7838 N   0  0  0  0  0  0  0  0  0  0  0  0
   10.0604  -16.5371   27.9792 C   0  0  0  0  0  0  0  0  0  0  0  0
    9.9913  -15.4447   28.5891 O   0  0  0  0  0  0  0  0  0  0  0  0
    9.6118  -17.6640   28.6726 O   0  0  0  0  0  0  0  0  0  0  0  0
  2  1  1  0
  3  2  2  0
  4  3  1  0
  5 11  1  0
  5  4  2  0
  6  7  1  0
  6  5  1  0
  7  8  1  6
  7  9  1  0
  9 10  2  0
 11 12  2  0
 12  2  1  0
 14 16  1  0
 14 13  1  1
 14 15  1  0
 17  9  1  0
 16 17  1  6
 18 16  1  0
 18 19  2  0
 20 21  1  0
 21 23  1  0
 21 22  2  0
 24 23  1  1
 24 25  1  0
 25 18  1  0
 26 24  1  0
 26 28  1  0
 27 26  2  0
M  END
$$$$
