YVN.pdb
     RDKit          3D

 28 28  0  0  1  0  0  0  0  0999 V2000
   10.1548  -14.3955   30.9537 O   0  0  0  0  0  0  0  0  0  0  0  0
    9.9738  -14.5956   29.5987 C   0  0  0  0  0  0  0  0  0  0  0  0
    9.4237  -13.5785   28.8480 C   0  0  0  0  0  0  0  0  0  0  0  0
    9.2358  -13.7611   27.4932 C   0  0  0  0  0  0  0  0  0  0  0  0
    9.5693  -14.9176   26.8288 C   0  0  0  0  0  0  0  0  0  0  0  0
    9.3843  -15.1482   25.3820 C   0  0  0  0  0  0  0  0  0  0  0  0
    7.9630  -15.5269   25.0337 C   0  0  2  0  0  0  0  0  0  0  0  0
    7.5756  -16.6750   25.8005 N   0  0  0  0  0  0  0  0  0  0  0  0
    7.7784  -15.7249   23.5735 C   0  0  0  0  0  0  0  0  0  0  0  0
    7.4727  -16.8508   23.0837 O   0  0  0  0  0  0  0  0  0  0  0  0
   10.1235  -15.9392   27.5926 C   0  0  0  0  0  0  0  0  0  0  0  0
   10.3145  -15.7638   28.9489 C   0  0  0  0  0  0  0  0  0  0  0  0
    7.2778  -13.6539   19.0378 C   0  0  0  0  0  0  0  0  0  0  0  0
    7.5707  -13.4952   20.5096 C   0  0  2  0  0  0  0  0  0  0  0  0
    8.7929  -12.6284   20.7646 C   0  0  0  0  0  0  0  0  0  0  0  0
    7.6998  -14.8328   21.2170 C   0  0  2  0  0  0  0  0  0  0  0  0
    7.9308  -14.6694   22.6330 N   0  0  0  0  0  0  0  0  0  0  0  0
    8.7390  -15.6528   20.5535 C   0  0  0  0  0  0  0  0  0  0  0  0
    8.7649  -15.8942   19.3195 O   0  0  0  0  0  0  0  0  0  0  0  0
   12.6490  -17.7946   18.2461 N   0  0  0  0  0  0  0  0  0  0  0  0
   12.7409  -16.7069   19.1466 C   0  0  0  0  0  0  0  0  0  0  0  0
   13.8573  -16.2489   19.4756 O   0  0  0  0  0  0  0  0  0  0  0  0
   11.5237  -16.0969   19.7109 C   0  0  0  0  0  0  0  0  0  0  0  0
   10.8725  -16.9987   20.7394 C   0  0  2  0  0  0  0  0  0  0  0  0
    9.7810  -16.2108   21.3388 N   0  0  0  0  0  0  0  0  0  0  0  0
   11.7857  -17.5019   21.7640 C   0  0  0  0  0  0  0  0  0  0  0  0
   11.6407  -17.2438   22.9816 O   0  0  0  0  0  0  0  0  0  0  0  0
   12.8773  -18.3055   21.4260 O   0  0  0  0  0  0  0  0  0  0  0  0
  2  1  1  0
  3  2  2  0
  4  3  1  0
  5 11  1  0
  5  4  2  0
  6  7  1  0
  6  5  1  0
  7  8  1  1
  7  9  1  0
  9 10  2  0
 11 12  2  0
 12  2  1  0
 14 16  1  0
 14 13  1  6
 14 15  1  0
 17  9  1  0
 16 17  1  1
 18 16  1  0
 18 19  2  0
 20 21  1  0
 21 23  1  0
 21 22  2  0
 24 23  1  6
 24 25  1  0
 25 18  1  0
 26 24  1  0
 26 28  1  0
 27 26  2  0
M  END
$$$$
