GWP.pdb
     RDKit          3D

 26 28  0  0  1  0  0  0  0  0999 V2000
    4.6749  -20.1564   22.8374 N   0  0  0  0  0  0  0  0  0  0  0  0
    5.9466  -19.6744   23.3584 C   0  0  0  0  0  0  0  0  0  0  0  0
    6.0851  -18.2329   23.1239 C   0  0  0  0  0  0  0  0  0  0  0  0
    5.2561  -17.6626   22.3797 O   0  0  0  0  0  0  0  0  0  0  0  0
    7.1604  -17.5001   23.7456 N   0  0  0  0  0  0  0  0  0  0  0  0
    7.4986  -16.2018   23.3362 C   0  0  1  0  0  0  0  0  0  0  0  0
    8.3294  -15.4243   24.3673 C   0  0  0  0  0  0  0  0  0  0  0  0
    7.3728  -14.7133   25.2460 C   0  0  0  0  0  0  0  0  0  0  0  0
    6.2060  -15.2558   25.7598 C   0  0  0  0  0  0  0  0  0  0  0  0
    5.6140  -14.3439   26.5431 N   0  0  0  0  0  0  0  0  0  0  0  0
    6.3514  -13.2068   26.5670 C   0  0  0  0  0  0  0  0  0  0  0  0
    6.1852  -11.9920   27.1977 C   0  0  0  0  0  0  0  0  0  0  0  0
    7.1232  -11.0011   27.0148 C   0  0  0  0  0  0  0  0  0  0  0  0
    8.2281  -11.1876   26.2164 C   0  0  0  0  0  0  0  0  0  0  0  0
    8.3781  -12.4156   25.5909 C   0  0  0  0  0  0  0  0  0  0  0  0
    7.4606  -13.4449   25.7457 C   0  0  0  0  0  0  0  0  0  0  0  0
    8.2375  -16.1236   22.0801 C   0  0  0  0  0  0  0  0  0  0  0  0
    8.7974  -17.2479   21.6745 O   0  0  0  0  0  0  0  0  0  0  0  0
    8.4346  -15.0233   21.2467 N   0  0  0  0  0  0  0  0  0  0  0  0
    8.0162  -13.6567   21.6137 C   0  0  0  0  0  0  0  0  0  0  0  0
    7.8652  -12.9070   20.3284 C   0  0  0  0  0  0  0  0  0  0  0  0
    8.0995  -13.9273   19.2397 C   0  0  0  0  0  0  0  0  0  0  0  0
    9.0067  -14.9333   19.9523 C   0  0  1  0  0  0  0  0  0  0  0  0
   10.4096  -14.4399   19.9565 C   0  0  0  0  0  0  0  0  0  0  0  0
   10.9985  -14.4130   18.8452 O   0  0  0  0  0  0  0  0  0  0  0  0
   11.1027  -14.0178   21.0607 O   0  0  0  0  0  0  0  0  0  0  0  0
  2  1  1  0
  3  2  1  0
  4  3  2  0
  5  3  1  0
  6  5  1  0
  7  8  1  0
  6  7  1  1
  8  9  2  0
 10  9  1  0
 11 10  1  0
 12 11  2  0
 13 12  1  0
 14 15  1  0
 14 13  2  0
 15 16  2  0
 16 11  1  0
 16  8  1  0
 17 19  1  0
 17  6  1  0
 18 17  2  0
 19 20  1  0
 21 20  1  0
 22 21  1  0
 23 19  1  0
 23 22  1  0
 24 26  1  0
 23 24  1  1
 25 24  2  0
M  END
$$$$
