GWP.pdb
     RDKit          3D

 26 28  0  0  1  0  0  0  0  0999 V2000
    7.9624  -20.4729   20.3562 N   0  0  0  0  0  0  0  0  0  0  0  0
    7.5111  -20.3943   21.7386 C   0  0  0  0  0  0  0  0  0  0  0  0
    7.9242  -19.1230   22.3428 C   0  0  0  0  0  0  0  0  0  0  0  0
    8.8616  -18.4833   21.8151 O   0  0  0  0  0  0  0  0  0  0  0  0
    7.2543  -18.6322   23.5218 N   0  0  0  0  0  0  0  0  0  0  0  0
    7.7170  -17.5035   24.2144 C   0  0  1  0  0  0  0  0  0  0  0  0
    6.6114  -16.7321   24.9497 C   0  0  0  0  0  0  0  0  0  0  0  0
    6.8786  -15.2905   24.7419 C   0  0  0  0  0  0  0  0  0  0  0  0
    6.7674  -14.6243   23.5322 C   0  0  0  0  0  0  0  0  0  0  0  0
    7.0437  -13.3275   23.7262 N   0  0  0  0  0  0  0  0  0  0  0  0
    7.3373  -13.1079   25.0313 C   0  0  0  0  0  0  0  0  0  0  0  0
    7.6911  -11.9778   25.7376 C   0  0  0  0  0  0  0  0  0  0  0  0
    7.9455  -12.0758   27.0870 C   0  0  0  0  0  0  0  0  0  0  0  0
    7.8569  -13.2749   27.7560 C   0  0  0  0  0  0  0  0  0  0  0  0
    7.4995  -14.3999   27.0290 C   0  0  0  0  0  0  0  0  0  0  0  0
    7.2324  -14.3508   25.6682 C   0  0  0  0  0  0  0  0  0  0  0  0
    8.7524  -17.7706   25.2077 C   0  0  0  0  0  0  0  0  0  0  0  0
    8.5102  -18.7729   26.0315 O   0  0  0  0  0  0  0  0  0  0  0  0
    9.9652  -17.1124   25.4077 N   0  0  0  0  0  0  0  0  0  0  0  0
   10.2315  -15.7536   24.8976 C   0  0  0  0  0  0  0  0  0  0  0  0
   11.7186  -15.6285   24.7995 C   0  0  0  0  0  0  0  0  0  0  0  0
   12.2598  -16.9919   25.1595 C   0  0  0  0  0  0  0  0  0  0  0  0
   11.1497  -17.5336   26.0635 C   0  0  1  0  0  0  0  0  0  0  0  0
   11.2965  -16.9815   27.4365 C   0  0  0  0  0  0  0  0  0  0  0  0
   10.5075  -16.0554   27.7566 O   0  0  0  0  0  0  0  0  0  0  0  0
   12.2113  -17.3963   28.3687 O   0  0  0  0  0  0  0  0  0  0  0  0
  2  1  1  0
  3  2  1  0
  4  3  2  0
  5  3  1  0
  6  5  1  0
  7  8  1  0
  6  7  1  1
  8  9  2  0
 10  9  1  0
 11 10  1  0
 12 11  2  0
 13 12  1  0
 14 15  1  0
 14 13  2  0
 15 16  2  0
 16 11  1  0
 16  8  1  0
 17 19  1  0
 17  6  1  0
 18 17  2  0
 19 20  1  0
 21 20  1  0
 22 21  1  0
 23 19  1  0
 23 22  1  0
 24 26  1  0
 23 24  1  1
 25 24  2  0
M  END
$$$$
