GWP.pdb
     RDKit          3D

 26 28  0  0  1  0  0  0  0  0999 V2000
    5.1340  -20.2384   23.0905 N   0  0  0  0  0  0  0  0  0  0  0  0
    6.3897  -19.5710   23.4042 C   0  0  0  0  0  0  0  0  0  0  0  0
    6.2666  -18.1231   23.2035 C   0  0  0  0  0  0  0  0  0  0  0  0
    5.2915  -17.6875   22.5510 O   0  0  0  0  0  0  0  0  0  0  0  0
    7.2573  -17.2309   23.7532 N   0  0  0  0  0  0  0  0  0  0  0  0
    7.5049  -15.9702   23.1901 C   0  0  1  0  0  0  0  0  0  0  0  0
    8.3161  -15.0349   24.0986 C   0  0  0  0  0  0  0  0  0  0  0  0
    7.3911  -14.5362   25.1418 C   0  0  0  0  0  0  0  0  0  0  0  0
    6.3840  -15.2788   25.7369 C   0  0  0  0  0  0  0  0  0  0  0  0
    5.7778  -14.5217   26.6615 N   0  0  0  0  0  0  0  0  0  0  0  0
    6.3504  -13.2936   26.7010 C   0  0  0  0  0  0  0  0  0  0  0  0
    6.1018  -12.1645   27.4523 C   0  0  0  0  0  0  0  0  0  0  0  0
    6.8651  -11.0367   27.2510 C   0  0  0  0  0  0  0  0  0  0  0  0
    7.8745  -11.0020   26.3166 C   0  0  0  0  0  0  0  0  0  0  0  0
    8.1097  -12.1469   25.5712 C   0  0  0  0  0  0  0  0  0  0  0  0
    7.3681  -13.3077   25.7389 C   0  0  0  0  0  0  0  0  0  0  0  0
    8.2022  -15.9932   21.9082 C   0  0  0  0  0  0  0  0  0  0  0  0
    8.7135  -17.1576   21.5555 O   0  0  0  0  0  0  0  0  0  0  0  0
    8.4037  -14.9529   21.0018 N   0  0  0  0  0  0  0  0  0  0  0  0
    8.0883  -13.5460   21.3157 C   0  0  0  0  0  0  0  0  0  0  0  0
    7.8928  -12.8588   20.0018 C   0  0  0  0  0  0  0  0  0  0  0  0
    7.9955  -13.9483   18.9609 C   0  0  0  0  0  0  0  0  0  0  0  0
    8.8911  -14.9669   19.6703 C   0  0  1  0  0  0  0  0  0  0  0  0
   10.3164  -14.5586   19.5556 C   0  0  0  0  0  0  0  0  0  0  0  0
   10.8316  -14.6339   18.4104 O   0  0  0  0  0  0  0  0  0  0  0  0
   11.1030  -14.1125   20.5853 O   0  0  0  0  0  0  0  0  0  0  0  0
  2  1  1  0
  3  2  1  0
  4  3  2  0
  5  3  1  0
  6  5  1  0
  7  8  1  0
  6  7  1  1
  8  9  2  0
 10  9  1  0
 11 10  1  0
 12 11  2  0
 13 12  1  0
 14 15  1  0
 14 13  2  0
 15 16  2  0
 16 11  1  0
 16  8  1  0
 17 19  1  0
 17  6  1  0
 18 17  2  0
 19 20  1  0
 21 20  1  0
 22 21  1  0
 23 19  1  0
 23 22  1  0
 24 26  1  0
 23 24  1  1
 25 24  2  0
M  END
$$$$
