GWP.pdb
     RDKit          3D

 26 28  0  0  1  0  0  0  0  0999 V2000
   10.4756  -15.9839   20.3747 N   0  0  0  0  0  0  0  0  0  0  0  0
   10.0208  -16.8659   21.4406 C   0  0  0  0  0  0  0  0  0  0  0  0
    9.9442  -16.1385   22.7122 C   0  0  0  0  0  0  0  0  0  0  0  0
   10.5311  -15.0375   22.8112 O   0  0  0  0  0  0  0  0  0  0  0  0
    9.2035  -16.6934   23.8182 N   0  0  0  0  0  0  0  0  0  0  0  0
    9.2005  -16.0832   25.0813 C   0  0  1  0  0  0  0  0  0  0  0  0
    7.9351  -16.3680   25.9033 C   0  0  0  0  0  0  0  0  0  0  0  0
    6.9504  -15.3169   25.5593 C   0  0  0  0  0  0  0  0  0  0  0  0
    5.7284  -15.5383   24.9450 C   0  0  0  0  0  0  0  0  0  0  0  0
    5.0859  -14.3683   24.8273 N   0  0  0  0  0  0  0  0  0  0  0  0
    5.8440  -13.3708   25.3446 C   0  0  0  0  0  0  0  0  0  0  0  0
    5.6540  -12.0101   25.4618 C   0  0  0  0  0  0  0  0  0  0  0  0
    6.6366  -11.2372   26.0382 C   0  0  0  0  0  0  0  0  0  0  0  0
    7.8099  -11.7850   26.5034 C   0  0  0  0  0  0  0  0  0  0  0  0
    7.9825  -13.1547   26.3772 C   0  0  0  0  0  0  0  0  0  0  0  0
    7.0207  -13.9749   25.8049 C   0  0  0  0  0  0  0  0  0  0  0  0
   10.3275  -16.4352   25.9393 C   0  0  0  0  0  0  0  0  0  0  0  0
   11.2169  -17.2533   25.4088 O   0  0  0  0  0  0  0  0  0  0  0  0
   10.5956  -16.0261   27.2449 N   0  0  0  0  0  0  0  0  0  0  0  0
    9.7302  -15.0855   27.9823 C   0  0  0  0  0  0  0  0  0  0  0  0
   10.5878  -14.4734   29.0437 C   0  0  0  0  0  0  0  0  0  0  0  0
   11.9761  -15.0156   28.7988 C   0  0  0  0  0  0  0  0  0  0  0  0
   11.6681  -16.3495   28.1144 C   0  0  1  0  0  0  0  0  0  0  0  0
   11.3180  -17.3754   29.1326 C   0  0  0  0  0  0  0  0  0  0  0  0
   10.0992  -17.6680   29.2387 O   0  0  0  0  0  0  0  0  0  0  0  0
   12.2066  -18.0187   29.9539 O   0  0  0  0  0  0  0  0  0  0  0  0
  2  1  1  0
  3  2  1  0
  4  3  2  0
  5  3  1  0
  6  5  1  0
  7  8  1  0
  6  7  1  1
  8  9  2  0
 10  9  1  0
 11 10  1  0
 12 11  2  0
 13 12  1  0
 14 15  1  0
 14 13  2  0
 15 16  2  0
 16 11  1  0
 16  8  1  0
 17 19  1  0
 17  6  1  0
 18 17  2  0
 19 20  1  0
 21 20  1  0
 22 21  1  0
 23 19  1  0
 23 22  1  0
 24 26  1  0
 23 24  1  1
 25 24  2  0
M  END
$$$$
