GWP.pdb
     RDKit          3D

 26 28  0  0  1  0  0  0  0  0999 V2000
    4.2618  -19.9434   22.9215 N   0  0  0  0  0  0  0  0  0  0  0  0
    5.6706  -19.6474   22.7018 C   0  0  0  0  0  0  0  0  0  0  0  0
    5.9016  -18.1989   22.7272 C   0  0  0  0  0  0  0  0  0  0  0  0
    5.1459  -17.4579   22.0592 O   0  0  0  0  0  0  0  0  0  0  0  0
    6.9823  -17.6535   23.5111 N   0  0  0  0  0  0  0  0  0  0  0  0
    7.4558  -16.3495   23.3040 C   0  0  1  0  0  0  0  0  0  0  0  0
    8.3018  -15.8065   24.4648 C   0  0  0  0  0  0  0  0  0  0  0  0
    7.3849  -15.0590   25.3554 C   0  0  0  0  0  0  0  0  0  0  0  0
    6.2635  -15.5888   25.9728 C   0  0  0  0  0  0  0  0  0  0  0  0
    5.7003  -14.6403   26.7334 N   0  0  0  0  0  0  0  0  0  0  0  0
    6.4129  -13.4908   26.6415 C   0  0  0  0  0  0  0  0  0  0  0  0
    6.2588  -12.2419   27.2051 C   0  0  0  0  0  0  0  0  0  0  0  0
    7.1622  -11.2478   26.9038 C   0  0  0  0  0  0  0  0  0  0  0  0
    8.2206  -11.4644   26.0516 C   0  0  0  0  0  0  0  0  0  0  0  0
    8.3592  -12.7264   25.4950 C   0  0  0  0  0  0  0  0  0  0  0  0
    7.4753  -13.7602   25.7694 C   0  0  0  0  0  0  0  0  0  0  0  0
    8.2595  -16.1689   22.0992 C   0  0  0  0  0  0  0  0  0  0  0  0
    8.8250  -17.2606   21.6195 O   0  0  0  0  0  0  0  0  0  0  0  0
    8.5134  -15.0001   21.3826 N   0  0  0  0  0  0  0  0  0  0  0  0
    8.1144  -13.6636   21.8645 C   0  0  0  0  0  0  0  0  0  0  0  0
    8.0288  -12.7913   20.6527 C   0  0  0  0  0  0  0  0  0  0  0  0
    8.2789  -13.7094   19.4798 C   0  0  0  0  0  0  0  0  0  0  0  0
    9.1349  -14.8030   20.1234 C   0  0  1  0  0  0  0  0  0  0  0  0
   10.5481  -14.3506   20.2234 C   0  0  0  0  0  0  0  0  0  0  0  0
   10.9488  -14.0090   21.3658 O   0  0  0  0  0  0  0  0  0  0  0  0
   11.4368  -14.2773   19.1829 O   0  0  0  0  0  0  0  0  0  0  0  0
  2  1  1  0
  3  2  1  0
  4  3  2  0
  5  3  1  0
  6  5  1  0
  7  8  1  0
  6  7  1  1
  8  9  2  0
 10  9  1  0
 11 10  1  0
 12 11  2  0
 13 12  1  0
 14 15  1  0
 14 13  2  0
 15 16  2  0
 16 11  1  0
 16  8  1  0
 17 19  1  0
 17  6  1  0
 18 17  2  0
 19 20  1  0
 21 20  1  0
 22 21  1  0
 23 19  1  0
 23 22  1  0
 24 26  1  0
 23 24  1  1
 25 24  2  0
M  END
$$$$
