GWP.pdb
     RDKit          3D

 26 28  0  0  1  0  0  0  0  0999 V2000
    4.8388  -21.6967   24.2826 N   0  0  0  0  0  0  0  0  0  0  0  0
    6.0470  -20.9436   24.5888 C   0  0  0  0  0  0  0  0  0  0  0  0
    5.8627  -19.5238   24.2692 C   0  0  0  0  0  0  0  0  0  0  0  0
    5.0244  -19.2083   23.3951 O   0  0  0  0  0  0  0  0  0  0  0  0
    6.6393  -18.5219   24.9570 N   0  0  0  0  0  0  0  0  0  0  0  0
    6.7045  -17.1983   24.4972 C   0  0  1  0  0  0  0  0  0  0  0  0
    6.4232  -16.1508   25.5843 C   0  0  0  0  0  0  0  0  0  0  0  0
    7.6493  -16.0420   26.4074 C   0  0  0  0  0  0  0  0  0  0  0  0
    8.4431  -17.1068   26.8019 C   0  0  0  0  0  0  0  0  0  0  0  0
    9.4861  -16.6337   27.4975 N   0  0  0  0  0  0  0  0  0  0  0  0
    9.4118  -15.2827   27.5800 C   0  0  0  0  0  0  0  0  0  0  0  0
   10.2112  -14.3324   28.1793 C   0  0  0  0  0  0  0  0  0  0  0  0
    9.8591  -13.0040   28.0985 C   0  0  0  0  0  0  0  0  0  0  0  0
    8.7264  -12.5937   27.4339 C   0  0  0  0  0  0  0  0  0  0  0  0
    7.9355  -13.5636   26.8375 C   0  0  0  0  0  0  0  0  0  0  0  0
    8.2497  -14.9140   26.8907 C   0  0  0  0  0  0  0  0  0  0  0  0
    7.9757  -16.8182   23.8891 C   0  0  0  0  0  0  0  0  0  0  0  0
    8.9962  -17.6127   24.1522 O   0  0  0  0  0  0  0  0  0  0  0  0
    8.2624  -15.7295   23.0666 N   0  0  0  0  0  0  0  0  0  0  0  0
    7.6146  -14.4134   23.2266 C   0  0  0  0  0  0  0  0  0  0  0  0
    7.7249  -13.7298   21.9010 C   0  0  0  0  0  0  0  0  0  0  0  0
    8.3478  -14.7482   20.9758 C   0  0  0  0  0  0  0  0  0  0  0  0
    9.1409  -15.6118   21.9598 C   0  0  1  0  0  0  0  0  0  0  0  0
   10.4303  -14.9501   22.2932 C   0  0  0  0  0  0  0  0  0  0  0  0
   10.5189  -14.4379   23.4388 O   0  0  0  0  0  0  0  0  0  0  0  0
   11.5158  -14.8552   21.4620 O   0  0  0  0  0  0  0  0  0  0  0  0
  2  1  1  0
  3  2  1  0
  4  3  2  0
  5  3  1  0
  6  5  1  0
  7  8  1  0
  6  7  1  1
  8  9  2  0
 10  9  1  0
 11 10  1  0
 12 11  2  0
 13 12  1  0
 14 15  1  0
 14 13  2  0
 15 16  2  0
 16 11  1  0
 16  8  1  0
 17 19  1  0
 17  6  1  0
 18 17  2  0
 19 20  1  0
 21 20  1  0
 22 21  1  0
 23 19  1  0
 23 22  1  0
 24 26  1  0
 23 24  1  1
 25 24  2  0
M  END
$$$$
