GWP.pdb
     RDKit          3D

 26 28  0  0  1  0  0  0  0  0999 V2000
    7.3922  -17.1328   18.5203 N   0  0  0  0  0  0  0  0  0  0  0  0
    6.9129  -17.7422   19.7531 C   0  0  0  0  0  0  0  0  0  0  0  0
    7.4789  -17.0560   20.9197 C   0  0  0  0  0  0  0  0  0  0  0  0
    8.4769  -16.3184   20.7575 O   0  0  0  0  0  0  0  0  0  0  0  0
    6.8864  -17.2373   22.2220 N   0  0  0  0  0  0  0  0  0  0  0  0
    7.4408  -16.6522   23.3700 C   0  0  1  0  0  0  0  0  0  0  0  0
    6.4398  -16.4790   24.5215 C   0  0  0  0  0  0  0  0  0  0  0  0
    7.1317  -15.7151   25.5847 C   0  0  0  0  0  0  0  0  0  0  0  0
    7.9189  -16.2682   26.5817 C   0  0  0  0  0  0  0  0  0  0  0  0
    8.4155  -15.2800   27.3382 N   0  0  0  0  0  0  0  0  0  0  0  0
    7.9820  -14.0817   26.8759 C   0  0  0  0  0  0  0  0  0  0  0  0
    8.1893  -12.7834   27.2911 C   0  0  0  0  0  0  0  0  0  0  0  0
    7.5887  -11.7505   26.6073 C   0  0  0  0  0  0  0  0  0  0  0  0
    6.7825  -11.9764   25.5154 C   0  0  0  0  0  0  0  0  0  0  0  0
    6.5862  -13.2883   25.1127 C   0  0  0  0  0  0  0  0  0  0  0  0
    7.1710  -14.3620   25.7689 C   0  0  0  0  0  0  0  0  0  0  0  0
    8.5853  -17.3617   23.9328 C   0  0  0  0  0  0  0  0  0  0  0  0
    8.4150  -18.6550   24.1329 O   0  0  0  0  0  0  0  0  0  0  0  0
    9.8371  -16.8616   24.2894 N   0  0  0  0  0  0  0  0  0  0  0  0
   10.1021  -15.4208   24.4663 C   0  0  0  0  0  0  0  0  0  0  0  0
   11.5749  -15.2410   24.2780 C   0  0  0  0  0  0  0  0  0  0  0  0
   12.0967  -16.6012   23.8796 C   0  0  0  0  0  0  0  0  0  0  0  0
   11.0657  -17.5275   24.5293 C   0  0  1  0  0  0  0  0  0  0  0  0
   11.3751  -17.7001   25.9737 C   0  0  0  0  0  0  0  0  0  0  0  0
   10.6107  -17.1172   26.7851 O   0  0  0  0  0  0  0  0  0  0  0  0
   12.4136  -18.4343   26.4840 O   0  0  0  0  0  0  0  0  0  0  0  0
  2  1  1  0
  3  2  1  0
  4  3  2  0
  5  3  1  0
  6  5  1  0
  7  8  1  0
  6  7  1  1
  8  9  2  0
 10  9  1  0
 11 10  1  0
 12 11  2  0
 13 12  1  0
 14 15  1  0
 14 13  2  0
 15 16  2  0
 16 11  1  0
 16  8  1  0
 17 19  1  0
 17  6  1  0
 18 17  2  0
 19 20  1  0
 21 20  1  0
 22 21  1  0
 23 19  1  0
 23 22  1  0
 24 26  1  0
 23 24  1  1
 25 24  2  0
M  END
$$$$
