GWP.pdb
     RDKit          3D

 26 28  0  0  1  0  0  0  0  0999 V2000
    5.4575  -20.4735   23.8983 N   0  0  0  0  0  0  0  0  0  0  0  0
    6.2338  -19.3360   24.3720 C   0  0  0  0  0  0  0  0  0  0  0  0
    6.0454  -18.1809   23.4876 C   0  0  0  0  0  0  0  0  0  0  0  0
    5.3055  -18.3052   22.4858 O   0  0  0  0  0  0  0  0  0  0  0  0
    6.7060  -16.9326   23.7792 N   0  0  0  0  0  0  0  0  0  0  0  0
    6.7566  -15.8907   22.8414 C   0  0  1  0  0  0  0  0  0  0  0  0
    6.5771  -14.4951   23.4563 C   0  0  0  0  0  0  0  0  0  0  0  0
    7.2838  -14.5018   24.7575 C   0  0  0  0  0  0  0  0  0  0  0  0
    8.1879  -15.4673   25.1699 C   0  0  0  0  0  0  0  0  0  0  0  0
    8.6586  -15.1303   26.3784 N   0  0  0  0  0  0  0  0  0  0  0  0
    8.0944  -13.9672   26.7861 C   0  0  0  0  0  0  0  0  0  0  0  0
    8.2262  -13.2091   27.9303 C   0  0  0  0  0  0  0  0  0  0  0  0
    7.4923  -12.0519   28.0631 C   0  0  0  0  0  0  0  0  0  0  0  0
    6.6258  -11.6268   27.0825 C   0  0  0  0  0  0  0  0  0  0  0  0
    6.5071  -12.4019   25.9394 C   0  0  0  0  0  0  0  0  0  0  0  0
    7.2264  -13.5748   25.7594 C   0  0  0  0  0  0  0  0  0  0  0  0
    7.9827  -15.8298   22.0521 C   0  0  0  0  0  0  0  0  0  0  0  0
    8.8148  -16.8421   22.2085 O   0  0  0  0  0  0  0  0  0  0  0  0
    8.3980  -14.8482   21.1532 N   0  0  0  0  0  0  0  0  0  0  0  0
    7.9852  -13.4358   21.2639 C   0  0  0  0  0  0  0  0  0  0  0  0
    8.1320  -12.8494   19.8959 C   0  0  0  0  0  0  0  0  0  0  0  0
    8.5264  -14.0039   19.0055 C   0  0  0  0  0  0  0  0  0  0  0  0
    9.2206  -14.9361   20.0016 C   0  0  1  0  0  0  0  0  0  0  0  0
   10.6178  -14.4831   20.2342 C   0  0  0  0  0  0  0  0  0  0  0  0
   10.8219  -13.8026   21.2724 O   0  0  0  0  0  0  0  0  0  0  0  0
   11.6868  -14.7447   19.4177 O   0  0  0  0  0  0  0  0  0  0  0  0
  2  1  1  0
  3  2  1  0
  4  3  2  0
  5  3  1  0
  6  5  1  0
  7  8  1  0
  6  7  1  1
  8  9  2  0
 10  9  1  0
 11 10  1  0
 12 11  2  0
 13 12  1  0
 14 15  1  0
 14 13  2  0
 15 16  2  0
 16 11  1  0
 16  8  1  0
 17 19  1  0
 17  6  1  0
 18 17  2  0
 19 20  1  0
 21 20  1  0
 22 21  1  0
 23 19  1  0
 23 22  1  0
 24 26  1  0
 23 24  1  1
 25 24  2  0
M  END
$$$$
