GWP.pdb
     RDKit          3D

 26 28  0  0  1  0  0  0  0  0999 V2000
    4.6106  -20.3850   23.2807 N   0  0  0  0  0  0  0  0  0  0  0  0
    6.0031  -19.9586   23.2776 C   0  0  0  0  0  0  0  0  0  0  0  0
    6.0926  -18.4952   23.2281 C   0  0  0  0  0  0  0  0  0  0  0  0
    5.2390  -17.8629   22.5665 O   0  0  0  0  0  0  0  0  0  0  0  0
    7.1491  -17.8119   23.9330 N   0  0  0  0  0  0  0  0  0  0  0  0
    7.5148  -16.4959   23.6137 C   0  0  1  0  0  0  0  0  0  0  0  0
    8.3225  -15.7935   24.7147 C   0  0  0  0  0  0  0  0  0  0  0  0
    7.3738  -14.9473   25.4740 C   0  0  0  0  0  0  0  0  0  0  0  0
    6.1490  -15.3666   25.9676 C   0  0  0  0  0  0  0  0  0  0  0  0
    5.5818  -14.3523   26.6347 N   0  0  0  0  0  0  0  0  0  0  0  0
    6.3923  -13.2663   26.6004 C   0  0  0  0  0  0  0  0  0  0  0  0
    6.2775  -11.9914   27.1130 C   0  0  0  0  0  0  0  0  0  0  0  0
    7.2882  -11.0821   26.8968 C   0  0  0  0  0  0  0  0  0  0  0  0
    8.4162  -11.4091   26.1800 C   0  0  0  0  0  0  0  0  0  0  0  0
    8.5138  -12.6956   25.6729 C   0  0  0  0  0  0  0  0  0  0  0  0
    7.5222  -13.6470   25.8656 C   0  0  0  0  0  0  0  0  0  0  0  0
    8.2930  -16.3519   22.3874 C   0  0  0  0  0  0  0  0  0  0  0  0
    8.9263  -17.4360   21.9809 O   0  0  0  0  0  0  0  0  0  0  0  0
    8.4605  -15.2251   21.5835 N   0  0  0  0  0  0  0  0  0  0  0  0
    7.9648  -13.8888   21.9657 C   0  0  0  0  0  0  0  0  0  0  0  0
    7.8155  -13.1189   20.6922 C   0  0  0  0  0  0  0  0  0  0  0  0
    8.1318  -14.1023   19.5903 C   0  0  0  0  0  0  0  0  0  0  0  0
    9.0657  -15.0787   20.3095 C   0  0  1  0  0  0  0  0  0  0  0  0
   10.4420  -14.5182   20.3671 C   0  0  0  0  0  0  0  0  0  0  0  0
   10.8098  -14.0453   21.4732 O   0  0  0  0  0  0  0  0  0  0  0  0
   11.3298  -14.4766   19.3240 O   0  0  0  0  0  0  0  0  0  0  0  0
  2  1  1  0
  3  2  1  0
  4  3  2  0
  5  3  1  0
  6  5  1  0
  7  8  1  0
  6  7  1  1
  8  9  2  0
 10  9  1  0
 11 10  1  0
 12 11  2  0
 13 12  1  0
 14 15  1  0
 14 13  2  0
 15 16  2  0
 16 11  1  0
 16  8  1  0
 17 19  1  0
 17  6  1  0
 18 17  2  0
 19 20  1  0
 21 20  1  0
 22 21  1  0
 23 19  1  0
 23 22  1  0
 24 26  1  0
 23 24  1  1
 25 24  2  0
M  END
$$$$
