GWP.pdb
     RDKit          3D

 26 28  0  0  1  0  0  0  0  0999 V2000
    4.4664  -19.9879   22.8557 N   0  0  0  0  0  0  0  0  0  0  0  0
    5.7156  -19.9663   23.6039 C   0  0  0  0  0  0  0  0  0  0  0  0
    6.3494  -18.6467   23.5084 C   0  0  0  0  0  0  0  0  0  0  0  0
    6.2261  -17.9962   22.4463 O   0  0  0  0  0  0  0  0  0  0  0  0
    7.0968  -18.1219   24.6245 N   0  0  0  0  0  0  0  0  0  0  0  0
    7.9609  -17.0263   24.4809 C   0  0  1  0  0  0  0  0  0  0  0  0
    8.3404  -16.3588   25.8107 C   0  0  0  0  0  0  0  0  0  0  0  0
    7.3104  -15.3319   26.0885 C   0  0  0  0  0  0  0  0  0  0  0  0
    5.9943  -15.5942   26.4333 C   0  0  0  0  0  0  0  0  0  0  0  0
    5.3646  -14.4314   26.6504 N   0  0  0  0  0  0  0  0  0  0  0  0
    6.2221  -13.3990   26.4596 C   0  0  0  0  0  0  0  0  0  0  0  0
    6.0787  -12.0303   26.5445 C   0  0  0  0  0  0  0  0  0  0  0  0
    7.1577  -11.2192   26.2743 C   0  0  0  0  0  0  0  0  0  0  0  0
    8.3823  -11.7365   25.9197 C   0  0  0  0  0  0  0  0  0  0  0  0
    8.5072  -13.1149   25.8400 C   0  0  0  0  0  0  0  0  0  0  0  0
    7.4493  -13.9729   26.1042 C   0  0  0  0  0  0  0  0  0  0  0  0
    9.2193  -17.3178   23.8015 C   0  0  0  0  0  0  0  0  0  0  0  0
    9.7392  -18.5061   24.0451 O   0  0  0  0  0  0  0  0  0  0  0  0
    9.9503  -16.5132   22.9285 N   0  0  0  0  0  0  0  0  0  0  0  0
    9.5500  -15.1348   22.5860 C   0  0  0  0  0  0  0  0  0  0  0  0
   10.1952  -14.8269   21.2723 C   0  0  0  0  0  0  0  0  0  0  0  0
   10.8667  -16.1106   20.8454 C   0  0  0  0  0  0  0  0  0  0  0  0
   11.1343  -16.7805   22.1954 C   0  0  1  0  0  0  0  0  0  0  0  0
   12.3584  -16.2066   22.8148 C   0  0  0  0  0  0  0  0  0  0  0  0
   13.4467  -16.4409   22.2290 O   0  0  0  0  0  0  0  0  0  0  0  0
   12.3943  -15.4525   23.9585 O   0  0  0  0  0  0  0  0  0  0  0  0
  2  1  1  0
  3  2  1  0
  4  3  2  0
  5  3  1  0
  6  5  1  0
  7  8  1  0
  6  7  1  1
  8  9  2  0
 10  9  1  0
 11 10  1  0
 12 11  2  0
 13 12  1  0
 14 15  1  0
 14 13  2  0
 15 16  2  0
 16 11  1  0
 16  8  1  0
 17 19  1  0
 17  6  1  0
 18 17  2  0
 19 20  1  0
 21 20  1  0
 22 21  1  0
 23 19  1  0
 23 22  1  0
 24 26  1  0
 23 24  1  1
 25 24  2  0
M  END
$$$$
