SFW.pdb
     RDKit          3D

 32 34  0  0  1  0  0  0  0  0999 V2000
   24.0448  -21.1134  -16.0249 O   0  0  0  0  0  0  0  0  0  0  0  0
   24.9377  -20.4851  -16.9002 C   0  0  0  0  0  0  0  0  0  0  0  0
   26.2018  -21.2702  -17.0358 C   0  0  2  0  0  0  0  0  0  0  0  0
   25.9832  -22.4430  -17.8317 N   0  0  0  0  0  0  0  0  0  0  0  0
   26.7236  -21.5968  -15.6796 C   0  0  0  0  0  0  0  0  0  0  0  0
   26.6163  -22.7890  -15.2832 O   0  0  0  0  0  0  0  0  0  0  0  0
   27.3260  -20.6636  -14.8167 N   0  0  0  0  0  0  0  0  0  0  0  0
   27.8868  -20.9817  -13.5191 C   0  0  1  0  0  0  0  0  0  0  0  0
   29.0935  -20.1674  -13.1972 C   0  0  0  0  0  0  0  0  0  0  0  0
   29.8561  -20.5806  -12.0295 C   0  0  0  0  0  0  0  0  0  0  0  0
   30.6170  -21.7264  -12.0507 C   0  0  0  0  0  0  0  0  0  0  0  0
   31.3461  -22.1193  -10.9214 C   0  0  0  0  0  0  0  0  0  0  0  0
   31.3097  -21.3598   -9.7711 C   0  0  0  0  0  0  0  0  0  0  0  0
   30.5499  -20.2135   -9.7461 C   0  0  0  0  0  0  0  0  0  0  0  0
   29.8293  -19.8341  -10.8768 C   0  0  0  0  0  0  0  0  0  0  0  0
   26.8675  -21.0312  -12.4532 C   0  0  0  0  0  0  0  0  0  0  0  0
   25.7442  -20.4473  -12.6053 O   0  0  0  0  0  0  0  0  0  0  0  0
   27.0731  -21.7174  -11.2283 N   0  0  0  0  0  0  0  0  0  0  0  0
   25.9749  -21.7872  -10.2295 C   0  0  1  0  0  0  0  0  0  0  0  0
   26.6424  -21.9661   -8.8899 C   0  0  0  0  0  0  0  0  0  0  0  0
   26.7861  -20.7904   -8.0515 C   0  0  0  0  0  0  0  0  0  0  0  0
   26.1189  -19.5901   -8.2610 C   0  0  0  0  0  0  0  0  0  0  0  0
   26.5208  -18.7399   -7.3240 N   0  0  0  0  0  0  0  0  0  0  0  0
   27.4157  -19.3221   -6.5121 C   0  0  0  0  0  0  0  0  0  0  0  0
   28.1125  -18.8758   -5.3896 C   0  0  0  0  0  0  0  0  0  0  0  0
   28.9748  -19.6944   -4.7114 C   0  0  0  0  0  0  0  0  0  0  0  0
   29.1635  -20.9912   -5.1424 C   0  0  0  0  0  0  0  0  0  0  0  0
   28.4805  -21.4278   -6.2436 C   0  0  0  0  0  0  0  0  0  0  0  0
   27.6068  -20.6165   -6.9414 C   0  0  0  0  0  0  0  0  0  0  0  0
   25.2344  -20.5360  -10.2910 C   0  0  0  0  0  0  0  0  0  0  0  0
   25.7749  -19.5051  -10.7580 O   0  0  0  0  0  0  0  0  0  0  0  0
   23.9176  -20.3781   -9.8625 O   0  0  0  0  0  0  0  0  0  0  0  0
  2  1  1  0
  3  2  1  0
  3  4  1  6
  5  3  1  0
  5  6  2  0
  7  5  1  0
  8  7  1  0
  8  9  1  1
 10  9  1  0
 10 15  1  0
 11 10  2  0
 12 11  1  0
 12 13  2  0
 13 14  1  0
 14 15  2  0
 16  8  1  0
 17 16  2  0
 18 16  1  0
 19 20  1  1
 19 18  1  0
 21 20  1  0
 22 21  2  0
 23 24  1  0
 23 22  1  0
 24 29  2  0
 25 26  2  0
 25 24  1  0
 26 27  1  0
 27 28  2  0
 29 28  1  0
 29 21  1  0
 30 32  1  0
 30 19  1  0
 31 30  2  0
M  END
$$$$
