SFW.pdb
     RDKit          3D

 32 34  0  0  1  0  0  0  0  0999 V2000
   25.7964  -21.7237  -18.6846 O   0  0  0  0  0  0  0  0  0  0  0  0
   26.6689  -20.7539  -19.1907 C   0  0  0  0  0  0  0  0  0  0  0  0
   28.0788  -21.0303  -18.7800 C   0  0  2  0  0  0  0  0  0  0  0  0
   28.5306  -22.2729  -19.3353 N   0  0  0  0  0  0  0  0  0  0  0  0
   28.1691  -21.0097  -17.2935 C   0  0  0  0  0  0  0  0  0  0  0  0
   28.5531  -22.0628  -16.7163 O   0  0  0  0  0  0  0  0  0  0  0  0
   27.8543  -19.8944  -16.4962 N   0  0  0  0  0  0  0  0  0  0  0  0
   28.0979  -19.8041  -15.0707 C   0  0  1  0  0  0  0  0  0  0  0  0
   28.3759  -18.4102  -14.6206 C   0  0  0  0  0  0  0  0  0  0  0  0
   27.4115  -17.3990  -15.0245 C   0  0  0  0  0  0  0  0  0  0  0  0
   27.3845  -16.9226  -16.3148 C   0  0  0  0  0  0  0  0  0  0  0  0
   26.4549  -15.9468  -16.6953 C   0  0  0  0  0  0  0  0  0  0  0  0
   25.5527  -15.4503  -15.7783 C   0  0  0  0  0  0  0  0  0  0  0  0
   25.5768  -15.9241  -14.4873 C   0  0  0  0  0  0  0  0  0  0  0  0
   26.5070  -16.8952  -14.1219 C   0  0  0  0  0  0  0  0  0  0  0  0
   27.0884  -20.5258  -14.2722 C   0  0  0  0  0  0  0  0  0  0  0  0
   25.9186  -20.7268  -14.7380 O   0  0  0  0  0  0  0  0  0  0  0  0
   27.3562  -21.0279  -12.9722 N   0  0  0  0  0  0  0  0  0  0  0  0
   26.2781  -21.7083  -12.2085 C   0  0  1  0  0  0  0  0  0  0  0  0
   26.8906  -22.1062  -10.8900 C   0  0  0  0  0  0  0  0  0  0  0  0
   26.7456  -21.1837   -9.7792 C   0  0  0  0  0  0  0  0  0  0  0  0
   25.5741  -20.5038   -9.4707 C   0  0  0  0  0  0  0  0  0  0  0  0
   25.8244  -19.7313   -8.4206 N   0  0  0  0  0  0  0  0  0  0  0  0
   27.0985  -19.8712   -8.0257 C   0  0  0  0  0  0  0  0  0  0  0  0
   27.8391  -19.3085   -6.9866 C   0  0  0  0  0  0  0  0  0  0  0  0
   29.1509  -19.6415   -6.7820 C   0  0  0  0  0  0  0  0  0  0  0  0
   29.7604  -20.5534   -7.6185 C   0  0  0  0  0  0  0  0  0  0  0  0
   29.0339  -21.1042   -8.6375 C   0  0  0  0  0  0  0  0  0  0  0  0
   27.7095  -20.7802   -8.8604 C   0  0  0  0  0  0  0  0  0  0  0  0
   25.1922  -20.7572  -12.0243 C   0  0  0  0  0  0  0  0  0  0  0  0
   25.4216  -19.5244  -12.0510 O   0  0  0  0  0  0  0  0  0  0  0  0
   23.8606  -21.1125  -11.8171 O   0  0  0  0  0  0  0  0  0  0  0  0
  2  1  1  0
  3  2  1  0
  3  4  1  1
  5  3  1  0
  5  6  2  0
  7  5  1  0
  8  7  1  0
  8  9  1  1
 10  9  1  0
 10 15  1  0
 11 10  2  0
 12 11  1  0
 12 13  2  0
 13 14  1  0
 14 15  2  0
 16  8  1  0
 17 16  2  0
 18 16  1  0
 19 20  1  1
 19 18  1  0
 21 20  1  0
 22 21  2  0
 23 24  1  0
 23 22  1  0
 24 29  2  0
 25 26  2  0
 25 24  1  0
 26 27  1  0
 27 28  2  0
 29 28  1  0
 29 21  1  0
 30 32  1  0
 30 19  1  0
 31 30  2  0
M  END
$$$$
