SFW.pdb
     RDKit          3D

 32 34  0  0  1  0  0  0  0  0999 V2000
   27.8811  -19.2892  -13.2165 O   0  0  0  0  0  0  0  0  0  0  0  0
   29.2376  -19.6091  -13.0910 C   0  0  0  0  0  0  0  0  0  0  0  0
   29.4217  -21.0525  -12.7511 C   0  0  2  0  0  0  0  0  0  0  0  0
   28.8313  -21.8860  -13.7577 N   0  0  0  0  0  0  0  0  0  0  0  0
   28.8561  -21.3133  -11.3983 C   0  0  0  0  0  0  0  0  0  0  0  0
   27.7639  -21.9399  -11.3319 O   0  0  0  0  0  0  0  0  0  0  0  0
   29.4605  -20.9067  -10.1950 N   0  0  0  0  0  0  0  0  0  0  0  0
   28.7848  -20.8345   -8.9153 C   0  0  1  0  0  0  0  0  0  0  0  0
   29.6812  -20.3779   -7.8150 C   0  0  0  0  0  0  0  0  0  0  0  0
   29.0568  -20.1806   -6.5161 C   0  0  0  0  0  0  0  0  0  0  0  0
   28.9337  -21.2213   -5.6250 C   0  0  0  0  0  0  0  0  0  0  0  0
   28.3286  -21.0242   -4.3776 C   0  0  0  0  0  0  0  0  0  0  0  0
   27.8476  -19.7805   -4.0265 C   0  0  0  0  0  0  0  0  0  0  0  0
   27.9688  -18.7376   -4.9149 C   0  0  0  0  0  0  0  0  0  0  0  0
   28.5730  -18.9474   -6.1530 C   0  0  0  0  0  0  0  0  0  0  0  0
   27.4886  -20.1335   -8.9929 C   0  0  0  0  0  0  0  0  0  0  0  0
   27.4003  -18.9997   -9.5694 O   0  0  0  0  0  0  0  0  0  0  0  0
   26.2941  -20.6696   -8.4458 N   0  0  0  0  0  0  0  0  0  0  0  0
   24.9814  -20.0903   -8.8328 C   0  0  1  0  0  0  0  0  0  0  0  0
   24.8202  -20.3731  -10.3045 C   0  0  0  0  0  0  0  0  0  0  0  0
   23.5353  -20.0705  -10.9073 C   0  0  0  0  0  0  0  0  0  0  0  0
   22.5104  -19.3840  -10.2687 C   0  0  0  0  0  0  0  0  0  0  0  0
   21.4842  -19.3246  -11.1087 N   0  0  0  0  0  0  0  0  0  0  0  0
   21.7850  -19.9360  -12.2640 C   0  0  0  0  0  0  0  0  0  0  0  0
   21.0759  -20.1322  -13.4487 C   0  0  0  0  0  0  0  0  0  0  0  0
   21.6311  -20.7887  -14.5137 C   0  0  0  0  0  0  0  0  0  0  0  0
   22.9207  -21.2695  -14.4201 C   0  0  0  0  0  0  0  0  0  0  0  0
   23.6151  -21.0775  -13.2580 C   0  0  0  0  0  0  0  0  0  0  0  0
   23.0716  -20.4183  -12.1723 C   0  0  0  0  0  0  0  0  0  0  0  0
   23.9511  -20.7542   -8.0484 C   0  0  0  0  0  0  0  0  0  0  0  0
   24.0545  -21.9735   -7.7736 O   0  0  0  0  0  0  0  0  0  0  0  0
   22.8124  -20.1240   -7.5495 O   0  0  0  0  0  0  0  0  0  0  0  0
  2  1  1  0
  3  2  1  0
  3  4  1  6
  5  3  1  0
  5  6  2  0
  7  5  1  0
  8  7  1  0
  8  9  1  1
 10  9  1  0
 10 15  1  0
 11 10  2  0
 12 11  1  0
 12 13  2  0
 13 14  1  0
 14 15  2  0
 16  8  1  0
 17 16  2  0
 18 16  1  0
 19 20  1  6
 19 18  1  0
 21 20  1  0
 22 21  2  0
 23 24  1  0
 23 22  1  0
 24 29  2  0
 25 26  2  0
 25 24  1  0
 26 27  1  0
 27 28  2  0
 29 28  1  0
 29 21  1  0
 30 32  1  0
 30 19  1  0
 31 30  2  0
M  END
$$$$
