SFW.pdb
     RDKit          3D

 32 34  0  0  1  0  0  0  0  0999 V2000
   21.0423  -23.0778   -9.6666 O   0  0  0  0  0  0  0  0  0  0  0  0
   21.1130  -21.7054   -9.4024 C   0  0  0  0  0  0  0  0  0  0  0  0
   22.4882  -21.3095   -8.9725 C   0  0  2  0  0  0  0  0  0  0  0  0
   22.4387  -20.5721   -7.7435 N   0  0  0  0  0  0  0  0  0  0  0  0
   23.1412  -20.5396  -10.0675 C   0  0  0  0  0  0  0  0  0  0  0  0
   22.8034  -19.3341  -10.2168 O   0  0  0  0  0  0  0  0  0  0  0  0
   24.1069  -21.0700  -10.9420 N   0  0  0  0  0  0  0  0  0  0  0  0
   24.6835  -20.3579  -12.0645 C   0  0  1  0  0  0  0  0  0  0  0  0
   26.1442  -20.6127  -12.2201 C   0  0  0  0  0  0  0  0  0  0  0  0
   26.8202  -19.8635  -13.2676 C   0  0  0  0  0  0  0  0  0  0  0  0
   27.3669  -20.5042  -14.3553 C   0  0  0  0  0  0  0  0  0  0  0  0
   28.0189  -19.7761  -15.3583 C   0  0  0  0  0  0  0  0  0  0  0  0
   28.1208  -18.4040  -15.2673 C   0  0  0  0  0  0  0  0  0  0  0  0
   27.5755  -17.7600  -14.1812 C   0  0  0  0  0  0  0  0  0  0  0  0
   26.9295  -18.4965  -13.1903 C   0  0  0  0  0  0  0  0  0  0  0  0
   23.8915  -20.5042  -13.3010 C   0  0  0  0  0  0  0  0  0  0  0  0
   23.5924  -21.6617  -13.7441 O   0  0  0  0  0  0  0  0  0  0  0  0
   23.4262  -19.3913  -14.0485 N   0  0  0  0  0  0  0  0  0  0  0  0
   22.5420  -19.6101  -15.2228 C   0  0  1  0  0  0  0  0  0  0  0  0
   21.7131  -18.3584  -15.3575 C   0  0  0  0  0  0  0  0  0  0  0  0
   20.6945  -18.3383  -16.3910 C   0  0  0  0  0  0  0  0  0  0  0  0
   19.5634  -19.1447  -16.3947 C   0  0  0  0  0  0  0  0  0  0  0  0
   18.8842  -18.8764  -17.5033 N   0  0  0  0  0  0  0  0  0  0  0  0
   19.5119  -17.9357  -18.2244 C   0  0  0  0  0  0  0  0  0  0  0  0
   19.2120  -17.3056  -19.4318 C   0  0  0  0  0  0  0  0  0  0  0  0
   20.0283  -16.3401  -19.9562 C   0  0  0  0  0  0  0  0  0  0  0  0
   21.1748  -15.9772  -19.2805 C   0  0  0  0  0  0  0  0  0  0  0  0
   21.4687  -16.5960  -18.0971 C   0  0  0  0  0  0  0  0  0  0  0  0
   20.6578  -17.5729  -17.5524 C   0  0  0  0  0  0  0  0  0  0  0  0
   23.3890  -19.8143  -16.3883 C   0  0  0  0  0  0  0  0  0  0  0  0
   24.4748  -19.1960  -16.4955 O   0  0  0  0  0  0  0  0  0  0  0  0
   23.0879  -20.6791  -17.4390 O   0  0  0  0  0  0  0  0  0  0  0  0
  2  1  1  0
  3  2  1  0
  3  4  1  1
  5  3  1  0
  5  6  2  0
  7  5  1  0
  8  7  1  0
  8  9  1  6
 10  9  1  0
 10 15  1  0
 11 10  2  0
 12 11  1  0
 12 13  2  0
 13 14  1  0
 14 15  2  0
 16  8  1  0
 17 16  2  0
 18 16  1  0
 19 20  1  6
 19 18  1  0
 21 20  1  0
 22 21  2  0
 23 24  1  0
 23 22  1  0
 24 29  2  0
 25 26  2  0
 25 24  1  0
 26 27  1  0
 27 28  2  0
 29 28  1  0
 29 21  1  0
 30 32  1  0
 30 19  1  0
 31 30  2  0
M  END
$$$$
