SFW.pdb
     RDKit          3D

 32 34  0  0  1  0  0  0  0  0999 V2000
   26.7500  -18.9994  -18.3753 O   0  0  0  0  0  0  0  0  0  0  0  0
   28.0697  -19.2726  -17.9990 C   0  0  0  0  0  0  0  0  0  0  0  0
   28.2325  -20.7050  -17.6057 C   0  0  2  0  0  0  0  0  0  0  0  0
   27.8996  -21.5687  -18.7010 N   0  0  0  0  0  0  0  0  0  0  0  0
   27.4046  -20.9787  -16.3983 C   0  0  0  0  0  0  0  0  0  0  0  0
   26.3088  -21.5798  -16.5646 O   0  0  0  0  0  0  0  0  0  0  0  0
   27.7661  -20.6105  -15.0897 N   0  0  0  0  0  0  0  0  0  0  0  0
   26.8967  -20.7090  -13.9348 C   0  0  1  0  0  0  0  0  0  0  0  0
   27.6026  -20.4144  -12.6551 C   0  0  0  0  0  0  0  0  0  0  0  0
   26.7980  -20.4846  -11.4453 C   0  0  0  0  0  0  0  0  0  0  0  0
   26.4192  -21.6969  -10.9170 C   0  0  0  0  0  0  0  0  0  0  0  0
   25.6419  -21.7563   -9.7536 C   0  0  0  0  0  0  0  0  0  0  0  0
   25.2459  -20.5964   -9.1217 C   0  0  0  0  0  0  0  0  0  0  0  0
   25.6227  -19.3824   -9.6470 C   0  0  0  0  0  0  0  0  0  0  0  0
   26.3962  -19.3376  -10.8053 C   0  0  0  0  0  0  0  0  0  0  0  0
   25.6191  -19.9939  -14.1192 C   0  0  0  0  0  0  0  0  0  0  0  0
   25.6074  -18.7857  -14.5263 O   0  0  0  0  0  0  0  0  0  0  0  0
   24.3603  -20.5967  -13.8629 N   0  0  0  0  0  0  0  0  0  0  0  0
   23.1160  -19.7992  -14.0192 C   0  0  1  0  0  0  0  0  0  0  0  0
   22.9835  -19.5210  -15.4946 C   0  0  0  0  0  0  0  0  0  0  0  0
   21.7748  -18.8556  -15.9443 C   0  0  0  0  0  0  0  0  0  0  0  0
   21.2194  -17.7386  -15.3331 C   0  0  0  0  0  0  0  0  0  0  0  0
   20.1097  -17.4311  -15.9936 N   0  0  0  0  0  0  0  0  0  0  0  0
   19.9109  -18.2885  -17.0056 C   0  0  0  0  0  0  0  0  0  0  0  0
   18.9245  -18.3897  -17.9862 C   0  0  0  0  0  0  0  0  0  0  0  0
   18.9632  -19.3701  -18.9406 C   0  0  0  0  0  0  0  0  0  0  0  0
   19.9984  -20.2818  -18.9385 C   0  0  0  0  0  0  0  0  0  0  0  0
   20.9649  -20.1825  -17.9763 C   0  0  0  0  0  0  0  0  0  0  0  0
   20.9425  -19.2008  -17.0046 C   0  0  0  0  0  0  0  0  0  0  0  0
   22.0060  -20.6020  -13.5283 C   0  0  0  0  0  0  0  0  0  0  0  0
   22.0720  -21.8541  -13.5557 O   0  0  0  0  0  0  0  0  0  0  0  0
   20.8267  -20.0775  -13.0023 O   0  0  0  0  0  0  0  0  0  0  0  0
  2  1  1  0
  3  2  1  0
  3  4  1  6
  5  3  1  0
  5  6  2  0
  7  5  1  0
  8  7  1  0
  8  9  1  1
 10  9  1  0
 10 15  1  0
 11 10  2  0
 12 11  1  0
 12 13  2  0
 13 14  1  0
 14 15  2  0
 16  8  1  0
 17 16  2  0
 18 16  1  0
 19 20  1  6
 19 18  1  0
 21 20  1  0
 22 21  2  0
 23 24  1  0
 23 22  1  0
 24 29  2  0
 25 26  2  0
 25 24  1  0
 26 27  1  0
 27 28  2  0
 29 28  1  0
 29 21  1  0
 30 32  1  0
 30 19  1  0
 31 30  2  0
M  END
$$$$
