SFW.pdb
     RDKit          3D

 32 34  0  0  1  0  0  0  0  0999 V2000
   23.6031  -35.4310    5.0084 O   0  0  0  0  0  0  0  0  0  0  0  0
   22.5283  -35.5316    4.1180 C   0  0  0  0  0  0  0  0  0  0  0  0
   22.7948  -36.5579    3.0652 C   0  0  2  0  0  0  0  0  0  0  0  0
   23.2443  -37.7834    3.6591 N   0  0  0  0  0  0  0  0  0  0  0  0
   23.7748  -36.0119    2.0856 C   0  0  0  0  0  0  0  0  0  0  0  0
   24.9429  -36.4863    2.1006 O   0  0  0  0  0  0  0  0  0  0  0  0
   23.4810  -35.0047    1.1487 N   0  0  0  0  0  0  0  0  0  0  0  0
   24.4263  -34.4673    0.1911 C   0  0  1  0  0  0  0  0  0  0  0  0
   23.7607  -33.7904   -0.9585 C   0  0  0  0  0  0  0  0  0  0  0  0
   24.6202  -33.4170   -2.0710 C   0  0  0  0  0  0  0  0  0  0  0  0
   24.9754  -32.1047   -2.2810 C   0  0  0  0  0  0  0  0  0  0  0  0
   25.8008  -31.7527   -3.3561 C   0  0  0  0  0  0  0  0  0  0  0  0
   26.2690  -32.7204   -4.2196 C   0  0  0  0  0  0  0  0  0  0  0  0
   25.9159  -34.0336   -4.0128 C   0  0  0  0  0  0  0  0  0  0  0  0
   25.0939  -34.3701   -2.9392 C   0  0  0  0  0  0  0  0  0  0  0  0
   25.5065  -33.6906    0.8295 C   0  0  0  0  0  0  0  0  0  0  0  0
   25.2477  -32.5963    1.4305 O   0  0  0  0  0  0  0  0  0  0  0  0
   26.8625  -34.1087    0.8139 N   0  0  0  0  0  0  0  0  0  0  0  0
   27.8849  -33.3215    1.5511 C   0  0  1  0  0  0  0  0  0  0  0  0
   27.4309  -33.2935    2.9882 C   0  0  0  0  0  0  0  0  0  0  0  0
   26.8373  -32.0635    3.4787 C   0  0  0  0  0  0  0  0  0  0  0  0
   26.5796  -30.9477    2.6923 C   0  0  0  0  0  0  0  0  0  0  0  0
   26.0700  -30.0104    3.4822 N   0  0  0  0  0  0  0  0  0  0  0  0
   25.9802  -30.4555    4.7443 C   0  0  0  0  0  0  0  0  0  0  0  0
   25.5090  -29.8803    5.9240 C   0  0  0  0  0  0  0  0  0  0  0  0
   25.5088  -30.5712    7.1057 C   0  0  0  0  0  0  0  0  0  0  0  0
   25.9838  -31.8658    7.1375 C   0  0  0  0  0  0  0  0  0  0  0  0
   26.4463  -32.4290    5.9805 C   0  0  0  0  0  0  0  0  0  0  0  0
   26.4554  -31.7476    4.7788 C   0  0  0  0  0  0  0  0  0  0  0  0
   29.1620  -34.0048    1.4107 C   0  0  0  0  0  0  0  0  0  0  0  0
   30.1669  -33.6006    2.0430 O   0  0  0  0  0  0  0  0  0  0  0  0
   29.3734  -35.1213    0.6038 O   0  0  0  0  0  0  0  0  0  0  0  0
  2  1  1  0
  3  2  1  0
  3  4  1  1
  5  3  1  0
  5  6  2  0
  7  5  1  0
  8  7  1  0
  8  9  1  6
 10  9  1  0
 10 15  1  0
 11 10  2  0
 12 11  1  0
 12 13  2  0
 13 14  1  0
 14 15  2  0
 16  8  1  0
 17 16  2  0
 18 16  1  0
 19 20  1  1
 19 18  1  0
 21 20  1  0
 22 21  2  0
 23 24  1  0
 23 22  1  0
 24 29  2  0
 25 26  2  0
 25 24  1  0
 26 27  1  0
 27 28  2  0
 29 28  1  0
 29 21  1  0
 30 32  1  0
 30 19  1  0
 31 30  2  0
M  END
$$$$
