SFW.pdb
     RDKit          3D

 32 34  0  0  1  0  0  0  0  0999 V2000
   26.6088  -20.2596  -16.3796 O   0  0  0  0  0  0  0  0  0  0  0  0
   28.0058  -20.1810  -16.3628 C   0  0  0  0  0  0  0  0  0  0  0  0
   28.6090  -21.4265  -15.7989 C   0  0  2  0  0  0  0  0  0  0  0  0
   28.2969  -22.5559  -16.6258 N   0  0  0  0  0  0  0  0  0  0  0  0
   28.1406  -21.6063  -14.3966 C   0  0  0  0  0  0  0  0  0  0  0  0
   27.1833  -22.4023  -14.1972 O   0  0  0  0  0  0  0  0  0  0  0  0
   28.6962  -20.9470  -13.2852 N   0  0  0  0  0  0  0  0  0  0  0  0
   28.1057  -20.9189  -11.9623 C   0  0  1  0  0  0  0  0  0  0  0  0
   29.0049  -20.3071  -10.9425 C   0  0  0  0  0  0  0  0  0  0  0  0
   28.4555  -20.1635   -9.6034 C   0  0  0  0  0  0  0  0  0  0  0  0
   28.7300  -21.0888   -8.6232 C   0  0  0  0  0  0  0  0  0  0  0  0
   28.1948  -20.9452   -7.3370 C   0  0  0  0  0  0  0  0  0  0  0  0
   27.3840  -19.8711   -7.0369 C   0  0  0  0  0  0  0  0  0  0  0  0
   27.1073  -18.9439   -8.0144 C   0  0  0  0  0  0  0  0  0  0  0  0
   27.6462  -19.0988   -9.2901 C   0  0  0  0  0  0  0  0  0  0  0  0
   26.7243  -20.4001  -11.9647 C   0  0  0  0  0  0  0  0  0  0  0  0
   26.4181  -19.3796  -12.6650 O   0  0  0  0  0  0  0  0  0  0  0  0
   25.6817  -20.9949  -11.2078 N   0  0  0  0  0  0  0  0  0  0  0  0
   24.2878  -20.5021  -11.3591 C   0  0  1  0  0  0  0  0  0  0  0  0
   23.8606  -20.8855  -12.7528 C   0  0  0  0  0  0  0  0  0  0  0  0
   22.5071  -20.5498  -13.1541 C   0  0  0  0  0  0  0  0  0  0  0  0
   21.9437  -19.2855  -13.0360 C   0  0  0  0  0  0  0  0  0  0  0  0
   20.6910  -19.3635  -13.4685 N   0  0  0  0  0  0  0  0  0  0  0  0
   20.4062  -20.6130  -13.8642 C   0  0  0  0  0  0  0  0  0  0  0  0
   19.2624  -21.2026  -14.4017 C   0  0  0  0  0  0  0  0  0  0  0  0
   19.2362  -22.5265  -14.7483 C   0  0  0  0  0  0  0  0  0  0  0  0
   20.3629  -23.3009  -14.5644 C   0  0  0  0  0  0  0  0  0  0  0  0
   21.4838  -22.7223  -14.0366 C   0  0  0  0  0  0  0  0  0  0  0  0
   21.5293  -21.3884  -13.6801 C   0  0  0  0  0  0  0  0  0  0  0  0
   23.4691  -21.1609  -10.3525 C   0  0  0  0  0  0  0  0  0  0  0  0
   23.8969  -22.1793   -9.7586 O   0  0  0  0  0  0  0  0  0  0  0  0
   22.1975  -20.7369   -9.9705 O   0  0  0  0  0  0  0  0  0  0  0  0
  2  1  1  0
  3  2  1  0
  3  4  1  6
  5  3  1  0
  5  6  2  0
  7  5  1  0
  8  7  1  0
  8  9  1  1
 10  9  1  0
 10 15  1  0
 11 10  2  0
 12 11  1  0
 12 13  2  0
 13 14  1  0
 14 15  2  0
 16  8  1  0
 17 16  2  0
 18 16  1  0
 19 20  1  6
 19 18  1  0
 21 20  1  0
 22 21  2  0
 23 24  1  0
 23 22  1  0
 24 29  2  0
 25 26  2  0
 25 24  1  0
 26 27  1  0
 27 28  2  0
 29 28  1  0
 29 21  1  0
 30 32  1  0
 30 19  1  0
 31 30  2  0
M  END
$$$$
