SFW.pdb
     RDKit          3D

 32 34  0  0  1  0  0  0  0  0999 V2000
   27.6742  -19.8280  -15.8367 O   0  0  0  0  0  0  0  0  0  0  0  0
   26.6358  -20.4187  -16.5653 C   0  0  0  0  0  0  0  0  0  0  0  0
   25.3860  -19.6040  -16.4798 C   0  0  2  0  0  0  0  0  0  0  0  0
   25.5550  -18.3506  -17.1559 N   0  0  0  0  0  0  0  0  0  0  0  0
   25.0126  -19.4284  -15.0488 C   0  0  0  0  0  0  0  0  0  0  0  0
   25.2104  -18.2975  -14.5273 O   0  0  0  0  0  0  0  0  0  0  0  0
   24.4556  -20.4398  -14.2455 N   0  0  0  0  0  0  0  0  0  0  0  0
   23.9936  -20.2526  -12.8850 C   0  0  1  0  0  0  0  0  0  0  0  0
   22.5617  -20.6269  -12.7057 C   0  0  0  0  0  0  0  0  0  0  0  0
   22.0057  -20.4267  -11.3766 C   0  0  0  0  0  0  0  0  0  0  0  0
   21.9124  -21.4696  -10.4844 C   0  0  0  0  0  0  0  0  0  0  0  0
   21.3731  -21.2696   -9.2075 C   0  0  0  0  0  0  0  0  0  0  0  0
   20.9279  -20.0208   -8.8282 C   0  0  0  0  0  0  0  0  0  0  0  0
   21.0196  -18.9757   -9.7177 C   0  0  0  0  0  0  0  0  0  0  0  0
   21.5582  -19.1885  -10.9851 C   0  0  0  0  0  0  0  0  0  0  0  0
   24.9159  -20.8246  -11.8851 C   0  0  0  0  0  0  0  0  0  0  0  0
   25.4041  -21.9911  -12.0486 O   0  0  0  0  0  0  0  0  0  0  0  0
   25.3052  -20.1247  -10.7137 N   0  0  0  0  0  0  0  0  0  0  0  0
   26.0572  -20.8349   -9.6466 C   0  0  1  0  0  0  0  0  0  0  0  0
   27.0649  -19.8455   -9.1197 C   0  0  0  0  0  0  0  0  0  0  0  0
   28.0106  -20.3185   -8.1259 C   0  0  0  0  0  0  0  0  0  0  0  0
   28.8212  -21.4358   -8.2822 C   0  0  0  0  0  0  0  0  0  0  0  0
   29.5240  -21.5799   -7.1652 N   0  0  0  0  0  0  0  0  0  0  0  0
   29.2158  -20.6142   -6.2868 C   0  0  0  0  0  0  0  0  0  0  0  0
   29.6738  -20.3142   -5.0043 C   0  0  0  0  0  0  0  0  0  0  0  0
   29.1999  -19.2335   -4.3106 C   0  0  0  0  0  0  0  0  0  0  0  0
   28.2478  -18.4186   -4.8872 C   0  0  0  0  0  0  0  0  0  0  0  0
   27.7986  -18.7138   -6.1445 C   0  0  0  0  0  0  0  0  0  0  0  0
   28.2642  -19.8002   -6.8597 C   0  0  0  0  0  0  0  0  0  0  0  0
   25.1078  -21.2263   -8.6155 C   0  0  0  0  0  0  0  0  0  0  0  0
   24.8305  -22.4367   -8.4394 O   0  0  0  0  0  0  0  0  0  0  0  0
   24.4557  -20.3345   -7.7659 O   0  0  0  0  0  0  0  0  0  0  0  0
  2  1  1  0
  3  2  1  0
  3  4  1  1
  5  3  1  0
  5  6  2  0
  7  5  1  0
  8  7  1  0
  8  9  1  6
 10  9  1  0
 10 15  1  0
 11 10  2  0
 12 11  1  0
 12 13  2  0
 13 14  1  0
 14 15  2  0
 16  8  1  0
 17 16  2  0
 18 16  1  0
 19 20  1  1
 19 18  1  0
 21 20  1  0
 22 21  2  0
 23 24  1  0
 23 22  1  0
 24 29  2  0
 25 26  2  0
 25 24  1  0
 26 27  1  0
 27 28  2  0
 29 28  1  0
 29 21  1  0
 30 32  1  0
 30 19  1  0
 31 30  2  0
M  END
$$$$
