SFW.pdb
     RDKit          3D

 32 34  0  0  1  0  0  0  0  0999 V2000
   27.9199  -20.4001  -18.9965 O   0  0  0  0  0  0  0  0  0  0  0  0
   27.1368  -20.6431  -17.8626 C   0  0  0  0  0  0  0  0  0  0  0  0
   27.7434  -21.7071  -17.0065 C   0  0  2  0  0  0  0  0  0  0  0  0
   27.8681  -22.9331  -17.7400 N   0  0  0  0  0  0  0  0  0  0  0  0
   26.9260  -21.8678  -15.7719 C   0  0  0  0  0  0  0  0  0  0  0  0
   25.9646  -22.6827  -15.8090 O   0  0  0  0  0  0  0  0  0  0  0  0
   27.1578  -21.1710  -14.5722 N   0  0  0  0  0  0  0  0  0  0  0  0
   26.2840  -21.2039  -13.4168 C   0  0  1  0  0  0  0  0  0  0  0  0
   26.9717  -20.7857  -12.1618 C   0  0  0  0  0  0  0  0  0  0  0  0
   26.1449  -20.7172  -10.9670 C   0  0  0  0  0  0  0  0  0  0  0  0
   24.7969  -20.9859  -11.0232 C   0  0  0  0  0  0  0  0  0  0  0  0
   24.0069  -20.9148   -9.8691 C   0  0  0  0  0  0  0  0  0  0  0  0
   24.5727  -20.5737   -8.6587 C   0  0  0  0  0  0  0  0  0  0  0  0
   25.9202  -20.3043   -8.5987 C   0  0  0  0  0  0  0  0  0  0  0  0
   26.6947  -20.3786   -9.7547 C   0  0  0  0  0  0  0  0  0  0  0  0
   24.9862  -20.5464  -13.6636 C   0  0  0  0  0  0  0  0  0  0  0  0
   24.9244  -19.2860  -13.8464 O   0  0  0  0  0  0  0  0  0  0  0  0
   23.7621  -21.2624  -13.7131 N   0  0  0  0  0  0  0  0  0  0  0  0
   22.4819  -20.5235  -13.8668 C   0  0  1  0  0  0  0  0  0  0  0  0
   21.8071  -21.1096  -15.0806 C   0  0  0  0  0  0  0  0  0  0  0  0
   20.4928  -20.6008  -15.4267 C   0  0  0  0  0  0  0  0  0  0  0  0
   20.2358  -19.2946  -15.8233 C   0  0  0  0  0  0  0  0  0  0  0  0
   18.9278  -19.1870  -16.0231 N   0  0  0  0  0  0  0  0  0  0  0  0
   18.3161  -20.3553  -15.7785 C   0  0  0  0  0  0  0  0  0  0  0  0
   16.9857  -20.7661  -15.8544 C   0  0  0  0  0  0  0  0  0  0  0  0
   16.6168  -22.0517  -15.5634 C   0  0  0  0  0  0  0  0  0  0  0  0
   17.5775  -22.9668  -15.1860 C   0  0  0  0  0  0  0  0  0  0  0  0
   18.8818  -22.5632  -15.1111 C   0  0  0  0  0  0  0  0  0  0  0  0
   19.2733  -21.2702  -15.4000 C   0  0  0  0  0  0  0  0  0  0  0  0
   21.6929  -20.7413  -12.6635 C   0  0  0  0  0  0  0  0  0  0  0  0
   20.8123  -19.9138  -12.3279 O   0  0  0  0  0  0  0  0  0  0  0  0
   21.8334  -21.8401  -11.8177 O   0  0  0  0  0  0  0  0  0  0  0  0
  2  1  1  0
  3  2  1  0
  3  4  1  6
  5  3  1  0
  5  6  2  0
  7  5  1  0
  8  7  1  0
  8  9  1  1
 10  9  1  0
 10 15  1  0
 11 10  2  0
 12 11  1  0
 12 13  2  0
 13 14  1  0
 14 15  2  0
 16  8  1  0
 17 16  2  0
 18 16  1  0
 19 20  1  6
 19 18  1  0
 21 20  1  0
 22 21  2  0
 23 24  1  0
 23 22  1  0
 24 29  2  0
 25 26  2  0
 25 24  1  0
 26 27  1  0
 27 28  2  0
 29 28  1  0
 29 21  1  0
 30 32  1  0
 30 19  1  0
 31 30  2  0
M  END
$$$$
