SFW.pdb
     RDKit          3D

 32 34  0  0  1  0  0  0  0  0999 V2000
   23.0498  -12.3654  -15.0704 O   0  0  0  0  0  0  0  0  0  0  0  0
   22.4172  -11.1457  -15.3355 C   0  0  0  0  0  0  0  0  0  0  0  0
   21.0536  -11.3591  -15.9081 C   0  0  2  0  0  0  0  0  0  0  0  0
   21.1425  -11.9260  -17.2224 N   0  0  0  0  0  0  0  0  0  0  0  0
   20.3107  -10.0682  -15.8986 C   0  0  0  0  0  0  0  0  0  0  0  0
   20.4051   -9.3317  -16.9176 O   0  0  0  0  0  0  0  0  0  0  0  0
   19.5140   -9.6206  -14.8293 N   0  0  0  0  0  0  0  0  0  0  0  0
   18.8047   -8.3574  -14.8011 C   0  0  1  0  0  0  0  0  0  0  0  0
   17.3384   -8.5242  -14.5896 C   0  0  0  0  0  0  0  0  0  0  0  0
   16.5755   -9.0128  -15.7276 C   0  0  0  0  0  0  0  0  0  0  0  0
   16.0451   -8.1413  -16.6504 C   0  0  0  0  0  0  0  0  0  0  0  0
   15.3091   -8.6192  -17.7418 C   0  0  0  0  0  0  0  0  0  0  0  0
   15.1069   -9.9734  -17.9050 C   0  0  0  0  0  0  0  0  0  0  0  0
   15.6357  -10.8478  -16.9843 C   0  0  0  0  0  0  0  0  0  0  0  0
   16.3659  -10.3589  -15.9029 C   0  0  0  0  0  0  0  0  0  0  0  0
   19.4499   -7.3599  -13.9257 C   0  0  0  0  0  0  0  0  0  0  0  0
   19.3433   -7.4470  -12.6581 O   0  0  0  0  0  0  0  0  0  0  0  0
   20.2100   -6.2740  -14.4324 N   0  0  0  0  0  0  0  0  0  0  0  0
   20.8235   -5.3014  -13.4910 C   0  0  1  0  0  0  0  0  0  0  0  0
   22.2200   -5.8034  -13.2266 C   0  0  0  0  0  0  0  0  0  0  0  0
   23.1099   -5.9369  -14.3651 C   0  0  0  0  0  0  0  0  0  0  0  0
   23.5140   -4.8822  -15.1739 C   0  0  0  0  0  0  0  0  0  0  0  0
   24.2919   -5.3832  -16.1259 N   0  0  0  0  0  0  0  0  0  0  0  0
   24.4183   -6.7106  -15.9811 C   0  0  0  0  0  0  0  0  0  0  0  0
   25.1232   -7.6816  -16.6917 C   0  0  0  0  0  0  0  0  0  0  0  0
   25.1018   -8.9979  -16.3169 C   0  0  0  0  0  0  0  0  0  0  0  0
   24.3686   -9.3796  -15.2125 C   0  0  0  0  0  0  0  0  0  0  0  0
   23.6771   -8.4271  -14.5167 C   0  0  0  0  0  0  0  0  0  0  0  0
   23.6858   -7.0942  -14.8799 C   0  0  0  0  0  0  0  0  0  0  0  0
   20.8414   -3.9999  -14.1418 C   0  0  0  0  0  0  0  0  0  0  0  0
   21.2566   -2.9907  -13.5237 O   0  0  0  0  0  0  0  0  0  0  0  0
   20.4240   -3.7683  -15.4513 O   0  0  0  0  0  0  0  0  0  0  0  0
  2  1  1  0
  3  2  1  0
  3  4  1  6
  5  3  1  0
  5  6  2  0
  7  5  1  0
  8  7  1  0
  8  9  1  1
 10  9  1  0
 10 15  1  0
 11 10  2  0
 12 11  1  0
 12 13  2  0
 13 14  1  0
 14 15  2  0
 16  8  1  0
 17 16  2  0
 18 16  1  0
 19 20  1  6
 19 18  1  0
 21 20  1  0
 22 21  2  0
 23 24  1  0
 23 22  1  0
 24 29  2  0
 25 26  2  0
 25 24  1  0
 26 27  1  0
 27 28  2  0
 29 28  1  0
 29 21  1  0
 30 32  1  0
 30 19  1  0
 31 30  2  0
M  END
$$$$
