SFW.pdb
     RDKit          3D

 32 34  0  0  1  0  0  0  0  0999 V2000
   28.9032  -18.4985  -13.4661 O   0  0  0  0  0  0  0  0  0  0  0  0
   28.1586  -19.0474  -12.4160 C   0  0  0  0  0  0  0  0  0  0  0  0
   28.9611  -20.0510  -11.6533 C   0  0  2  0  0  0  0  0  0  0  0  0
   29.5203  -21.0283  -12.5414 N   0  0  0  0  0  0  0  0  0  0  0  0
   28.1042  -20.6670  -10.6024 C   0  0  0  0  0  0  0  0  0  0  0  0
   28.0324  -21.9254  -10.5698 O   0  0  0  0  0  0  0  0  0  0  0  0
   27.3730  -19.9369   -9.6480 N   0  0  0  0  0  0  0  0  0  0  0  0
   26.1091  -20.3580   -9.0781 C   0  0  1  0  0  0  0  0  0  0  0  0
   25.8960  -19.8346   -7.6984 C   0  0  0  0  0  0  0  0  0  0  0  0
   27.0253  -19.9418   -6.7878 C   0  0  0  0  0  0  0  0  0  0  0  0
   27.8717  -18.8771   -6.5822 C   0  0  0  0  0  0  0  0  0  0  0  0
   28.9586  -18.9890   -5.7063 C   0  0  0  0  0  0  0  0  0  0  0  0
   29.1938  -20.1715   -5.0372 C   0  0  0  0  0  0  0  0  0  0  0  0
   28.3497  -21.2382   -5.2402 C   0  0  0  0  0  0  0  0  0  0  0  0
   27.2719  -21.1134   -6.1147 C   0  0  0  0  0  0  0  0  0  0  0  0
   24.9736  -20.1621   -9.9999 C   0  0  0  0  0  0  0  0  0  0  0  0
   24.7192  -19.0069  -10.4760 O   0  0  0  0  0  0  0  0  0  0  0  0
   24.1216  -21.2233  -10.4018 N   0  0  0  0  0  0  0  0  0  0  0  0
   23.0449  -20.9685  -11.3939 C   0  0  1  0  0  0  0  0  0  0  0  0
   23.3488  -21.8557  -12.5740 C   0  0  0  0  0  0  0  0  0  0  0  0
   24.0177  -21.2511  -13.7111 C   0  0  0  0  0  0  0  0  0  0  0  0
   23.8104  -19.9468  -14.1417 C   0  0  0  0  0  0  0  0  0  0  0  0
   24.5618  -19.7569  -15.2195 N   0  0  0  0  0  0  0  0  0  0  0  0
   25.2505  -20.8692  -15.5156 C   0  0  0  0  0  0  0  0  0  0  0  0
   26.1710  -21.1793  -16.5162 C   0  0  0  0  0  0  0  0  0  0  0  0
   26.7598  -22.4129  -16.5883 C   0  0  0  0  0  0  0  0  0  0  0  0
   26.4401  -23.3757  -15.6535 C   0  0  0  0  0  0  0  0  0  0  0  0
   25.5368  -23.0711  -14.6731 C   0  0  0  0  0  0  0  0  0  0  0  0
   24.9317  -21.8323  -14.5844 C   0  0  0  0  0  0  0  0  0  0  0  0
   21.7755  -21.3222  -10.7766 C   0  0  0  0  0  0  0  0  0  0  0  0
   21.7537  -21.8857   -9.6563 O   0  0  0  0  0  0  0  0  0  0  0  0
   20.5271  -21.0733  -11.3442 O   0  0  0  0  0  0  0  0  0  0  0  0
  2  1  1  0
  3  2  1  0
  3  4  1  6
  5  3  1  0
  5  6  2  0
  7  5  1  0
  8  7  1  0
  8  9  1  1
 10  9  1  0
 10 15  1  0
 11 10  2  0
 12 11  1  0
 12 13  2  0
 13 14  1  0
 14 15  2  0
 16  8  1  0
 17 16  2  0
 18 16  1  0
 19 20  1  6
 19 18  1  0
 21 20  1  0
 22 21  2  0
 23 24  1  0
 23 22  1  0
 24 29  2  0
 25 26  2  0
 25 24  1  0
 26 27  1  0
 27 28  2  0
 29 28  1  0
 29 21  1  0
 30 32  1  0
 30 19  1  0
 31 30  2  0
M  END
$$$$
