SFW.pdb
     RDKit          3D

 32 34  0  0  1  0  0  0  0  0999 V2000
   26.9371  -19.3459  -14.9336 O   0  0  0  0  0  0  0  0  0  0  0  0
   27.7165  -20.4789  -15.1922 C   0  0  0  0  0  0  0  0  0  0  0  0
   28.6067  -20.7964  -14.0348 C   0  0  2  0  0  0  0  0  0  0  0  0
   29.4172  -21.9438  -14.3229 N   0  0  0  0  0  0  0  0  0  0  0  0
   27.7747  -20.9843  -12.8139 C   0  0  0  0  0  0  0  0  0  0  0  0
   27.2435  -22.1139  -12.6364 O   0  0  0  0  0  0  0  0  0  0  0  0
   27.5451  -19.9856  -11.8503 N   0  0  0  0  0  0  0  0  0  0  0  0
   26.5884  -20.0886  -10.7670 C   0  0  1  0  0  0  0  0  0  0  0  0
   26.8675  -19.1316   -9.6584 C   0  0  0  0  0  0  0  0  0  0  0  0
   27.4310  -19.7003   -8.4439 C   0  0  0  0  0  0  0  0  0  0  0  0
   28.7156  -20.1920   -8.4230 C   0  0  0  0  0  0  0  0  0  0  0  0
   29.2501  -20.7407   -7.2506 C   0  0  0  0  0  0  0  0  0  0  0  0
   28.4927  -20.7946   -6.0996 C   0  0  0  0  0  0  0  0  0  0  0  0
   27.2079  -20.3040   -6.1168 C   0  0  0  0  0  0  0  0  0  0  0  0
   26.6883  -19.7607   -7.2901 C   0  0  0  0  0  0  0  0  0  0  0  0
   25.1904  -20.1026  -11.2393 C   0  0  0  0  0  0  0  0  0  0  0  0
   24.7631  -19.1909  -12.0215 O   0  0  0  0  0  0  0  0  0  0  0  0
   24.2644  -21.1092  -10.8612 N   0  0  0  0  0  0  0  0  0  0  0  0
   22.8546  -21.0248  -11.3238 C   0  0  1  0  0  0  0  0  0  0  0  0
   22.6178  -22.2556  -12.1611 C   0  0  0  0  0  0  0  0  0  0  0  0
   23.1611  -22.2643  -13.5066 C   0  0  0  0  0  0  0  0  0  0  0  0
   24.3433  -22.8957  -13.8721 C   0  0  0  0  0  0  0  0  0  0  0  0
   24.5378  -22.6640  -15.1647 N   0  0  0  0  0  0  0  0  0  0  0  0
   23.5437  -21.9146  -15.6638 C   0  0  0  0  0  0  0  0  0  0  0  0
   23.2740  -21.4206  -16.9397 C   0  0  0  0  0  0  0  0  0  0  0  0
   22.1526  -20.6789  -17.1967 C   0  0  0  0  0  0  0  0  0  0  0  0
   21.2651  -20.4103  -16.1754 C   0  0  0  0  0  0  0  0  0  0  0  0
   21.5305  -20.8945  -14.9245 C   0  0  0  0  0  0  0  0  0  0  0  0
   22.6570  -21.6440  -14.6455 C   0  0  0  0  0  0  0  0  0  0  0  0
   21.9983  -21.0099  -10.1473 C   0  0  0  0  0  0  0  0  0  0  0  0
   20.7594  -20.8586  -10.2702 O   0  0  0  0  0  0  0  0  0  0  0  0
   22.4545  -21.1614   -8.8390 O   0  0  0  0  0  0  0  0  0  0  0  0
  2  1  1  0
  3  2  1  0
  3  4  1  6
  5  3  1  0
  5  6  2  0
  7  5  1  0
  8  7  1  0
  8  9  1  1
 10  9  1  0
 10 15  1  0
 11 10  2  0
 12 11  1  0
 12 13  2  0
 13 14  1  0
 14 15  2  0
 16  8  1  0
 17 16  2  0
 18 16  1  0
 19 20  1  6
 19 18  1  0
 21 20  1  0
 22 21  2  0
 23 24  1  0
 23 22  1  0
 24 29  2  0
 25 26  2  0
 25 24  1  0
 26 27  1  0
 27 28  2  0
 29 28  1  0
 29 21  1  0
 30 32  1  0
 30 19  1  0
 31 30  2  0
M  END
$$$$
