SFW.pdb
     RDKit          3D

 32 34  0  0  1  0  0  0  0  0999 V2000
   26.4915  -18.8939  -16.9174 O   0  0  0  0  0  0  0  0  0  0  0  0
   27.5098  -18.9857  -15.9619 C   0  0  0  0  0  0  0  0  0  0  0  0
   27.9995  -20.3913  -15.8295 C   0  0  2  0  0  0  0  0  0  0  0  0
   28.1332  -21.0016  -17.1203 N   0  0  0  0  0  0  0  0  0  0  0  0
   27.0776  -21.1494  -14.9387 C   0  0  0  0  0  0  0  0  0  0  0  0
   26.5648  -22.2081  -15.3927 O   0  0  0  0  0  0  0  0  0  0  0  0
   26.7441  -20.7608  -13.6286 N   0  0  0  0  0  0  0  0  0  0  0  0
   25.9217  -21.5362  -12.7220 C   0  0  1  0  0  0  0  0  0  0  0  0
   26.6253  -21.8746  -11.4519 C   0  0  0  0  0  0  0  0  0  0  0  0
   26.2929  -21.0582  -10.2948 C   0  0  0  0  0  0  0  0  0  0  0  0
   26.7227  -19.7547  -10.2018 C   0  0  0  0  0  0  0  0  0  0  0  0
   26.4012  -18.9759   -9.0832 C   0  0  0  0  0  0  0  0  0  0  0  0
   25.6475  -19.5081   -8.0585 C   0  0  0  0  0  0  0  0  0  0  0  0
   25.2161  -20.8111   -8.1479 C   0  0  0  0  0  0  0  0  0  0  0  0
   25.5431  -21.5750   -9.2666 C   0  0  0  0  0  0  0  0  0  0  0  0
   24.5695  -20.9703  -12.5522 C   0  0  0  0  0  0  0  0  0  0  0  0
   23.6717  -21.6191  -11.9208 O   0  0  0  0  0  0  0  0  0  0  0  0
   24.2005  -19.7006  -13.0673 N   0  0  0  0  0  0  0  0  0  0  0  0
   22.8226  -19.4859  -13.5810 C   0  0  1  0  0  0  0  0  0  0  0  0
   22.9801  -18.8796  -14.9520 C   0  0  0  0  0  0  0  0  0  0  0  0
   23.7927  -17.6826  -15.0650 C   0  0  0  0  0  0  0  0  0  0  0  0
   24.8417  -17.3621  -14.2126 C   0  0  0  0  0  0  0  0  0  0  0  0
   25.3263  -16.1878  -14.5980 N   0  0  0  0  0  0  0  0  0  0  0  0
   24.6492  -15.7241  -15.6589 C   0  0  0  0  0  0  0  0  0  0  0  0
   24.7705  -14.5715  -16.4345 C   0  0  0  0  0  0  0  0  0  0  0  0
   23.9461  -14.3382  -17.5020 C   0  0  0  0  0  0  0  0  0  0  0  0
   22.9712  -15.2596  -17.8235 C   0  0  0  0  0  0  0  0  0  0  0  0
   22.8524  -16.3892  -17.0622 C   0  0  0  0  0  0  0  0  0  0  0  0
   23.6743  -16.6418  -15.9809 C   0  0  0  0  0  0  0  0  0  0  0  0
   22.1628  -20.7813  -13.6458 C   0  0  0  0  0  0  0  0  0  0  0  0
   21.0955  -20.9782  -13.0172 O   0  0  0  0  0  0  0  0  0  0  0  0
   22.6314  -21.8679  -14.3821 O   0  0  0  0  0  0  0  0  0  0  0  0
  2  1  1  0
  3  2  1  0
  3  4  1  6
  5  3  1  0
  5  6  2  0
  7  5  1  0
  8  7  1  0
  8  9  1  1
 10  9  1  0
 10 15  1  0
 11 10  2  0
 12 11  1  0
 12 13  2  0
 13 14  1  0
 14 15  2  0
 16  8  1  0
 17 16  2  0
 18 16  1  0
 19 20  1  6
 19 18  1  0
 21 20  1  0
 22 21  2  0
 23 24  1  0
 23 22  1  0
 24 29  2  0
 25 26  2  0
 25 24  1  0
 26 27  1  0
 27 28  2  0
 29 28  1  0
 29 21  1  0
 30 32  1  0
 30 19  1  0
 31 30  2  0
M  END
$$$$
