KVH.pdb
     RDKit          3D

 27 27  0  0  1  0  0  0  0  0999 V2000
    9.3248  -17.6792   16.3934 N   0  0  0  0  0  0  0  0  0  0  0  0
    8.2770  -17.4313   17.3988 C   0  0  1  0  0  0  0  0  0  0  0  0
    7.7942  -18.7829   17.8301 C   0  0  0  0  0  0  0  0  0  0  0  0
    6.9591  -19.5086   16.8415 C   0  0  0  0  0  0  0  0  0  0  0  0
    6.4396  -20.8366   17.2618 C   0  0  0  0  0  0  0  0  0  0  0  0
    5.2280  -21.3214   16.5394 C   0  0  0  0  0  0  0  0  0  0  0  0
    4.7369  -22.6011   16.9345 N   0  0  0  0  0  0  0  0  0  0  0  0
    8.7754  -16.6006   18.4986 C   0  0  0  0  0  0  0  0  0  0  0  0
    9.9883  -16.6782   18.8191 O   0  0  0  0  0  0  0  0  0  0  0  0
    7.9509  -13.0669   21.9726 C   0  0  0  0  0  0  0  0  0  0  0  0
    7.4449  -13.8623   20.7918 C   0  0  1  0  0  0  0  0  0  0  0  0
    7.0829  -12.8998   19.6810 C   0  0  0  0  0  0  0  0  0  0  0  0
    8.4402  -14.9075   20.3452 C   0  0  2  0  0  0  0  0  0  0  0  0
    7.9741  -15.6939   19.2472 N   0  0  0  0  0  0  0  0  0  0  0  0
    8.7039  -15.7797   21.5373 C   0  0  0  0  0  0  0  0  0  0  0  0
    7.8110  -16.5283   21.9891 O   0  0  0  0  0  0  0  0  0  0  0  0
    9.9815  -15.7550   22.1597 N   0  0  0  0  0  0  0  0  0  0  0  0
   10.2910  -16.6082   23.3298 C   0  0  1  0  0  0  0  0  0  0  0  0
   11.7086  -17.0641   23.1940 C   0  0  0  0  0  0  0  0  0  0  0  0
   11.9347  -18.1496   22.2459 C   0  0  0  0  0  0  0  0  0  0  0  0
   10.9027  -18.7952   21.5567 C   0  0  0  0  0  0  0  0  0  0  0  0
   11.4315  -19.7429   20.7644 N   0  0  0  0  0  0  0  0  0  0  0  0
   12.7567  -19.6813   20.9620 C   0  0  0  0  0  0  0  0  0  0  0  0
   13.0576  -18.7332   21.8437 N   0  0  0  0  0  0  0  0  0  0  0  0
   10.1594  -15.7515   24.5299 C   0  0  0  0  0  0  0  0  0  0  0  0
    9.8563  -16.2153   25.6432 O   0  0  0  0  0  0  0  0  0  0  0  0
   10.3729  -14.3980   24.4411 O   0  0  0  0  0  0  0  0  0  0  0  0
  2  3  1  0
  2  1  1  6
  4  3  1  0
  4  5  1  0
  5  6  1  0
  7  6  1  0
  8  2  1  0
  9  8  2  0
 11 10  1  1
 11 12  1  0
 13 11  1  0
 13 14  1  6
 14  8  1  0
 15 16  2  0
 15 13  1  0
 17 15  1  0
 18 17  1  0
 18 19  1  6
 20 24  1  0
 20 19  1  0
 21 20  2  0
 22 21  1  0
 22 23  1  0
 23 24  2  0
 25 18  1  0
 25 27  1  0
 26 25  2  0
M  END
$$$$
