KVH.pdb
     RDKit          3D

 27 27  0  0  1  0  0  0  0  0999 V2000
    9.5447  -16.4934   14.8209 N   0  0  0  0  0  0  0  0  0  0  0  0
    8.6212  -16.6069   15.9629 C   0  0  1  0  0  0  0  0  0  0  0  0
    8.4402  -18.0756   16.1998 C   0  0  0  0  0  0  0  0  0  0  0  0
    8.6927  -18.9480   15.0265 C   0  0  0  0  0  0  0  0  0  0  0  0
    8.4648  -20.4038   15.2229 C   0  0  0  0  0  0  0  0  0  0  0  0
    8.4925  -21.2408   13.9885 C   0  0  0  0  0  0  0  0  0  0  0  0
    9.7860  -21.5383   13.4658 N   0  0  0  0  0  0  0  0  0  0  0  0
    9.1200  -15.8748   17.1305 C   0  0  0  0  0  0  0  0  0  0  0  0
   10.3606  -15.7988   17.3172 O   0  0  0  0  0  0  0  0  0  0  0  0
    8.1948  -13.0036   21.1492 C   0  0  0  0  0  0  0  0  0  0  0  0
    7.6695  -13.7470   19.9431 C   0  0  1  0  0  0  0  0  0  0  0  0
    6.9464  -12.7640   19.0475 C   0  0  0  0  0  0  0  0  0  0  0  0
    8.7651  -14.4898   19.2149 C   0  0  2  0  0  0  0  0  0  0  0  0
    8.2895  -15.2298   18.0891 N   0  0  0  0  0  0  0  0  0  0  0  0
    9.3927  -15.4120   20.2185 C   0  0  0  0  0  0  0  0  0  0  0  0
    8.8483  -16.4973   20.5144 O   0  0  0  0  0  0  0  0  0  0  0  0
   10.6185  -15.0486   20.8394 N   0  0  0  0  0  0  0  0  0  0  0  0
   11.3520  -15.9889   21.7173 C   0  0  1  0  0  0  0  0  0  0  0  0
   12.7276  -15.4386   21.9193 C   0  0  0  0  0  0  0  0  0  0  0  0
   13.5928  -16.2109   22.8044 C   0  0  0  0  0  0  0  0  0  0  0  0
   13.2137  -17.4288   23.3789 C   0  0  0  0  0  0  0  0  0  0  0  0
   14.2231  -17.8876   24.1379 N   0  0  0  0  0  0  0  0  0  0  0  0
   15.1992  -16.9737   24.0325 C   0  0  0  0  0  0  0  0  0  0  0  0
   14.8252  -15.9750   23.2389 N   0  0  0  0  0  0  0  0  0  0  0  0
   10.6338  -16.0134   23.0116 C   0  0  0  0  0  0  0  0  0  0  0  0
   10.0044  -15.0290   23.4373 O   0  0  0  0  0  0  0  0  0  0  0  0
   10.6455  -17.1456   23.7885 O   0  0  0  0  0  0  0  0  0  0  0  0
  2  3  1  0
  2  1  1  6
  4  3  1  0
  4  5  1  0
  5  6  1  0
  7  6  1  0
  8  2  1  0
  9  8  2  0
 11 10  1  1
 11 12  1  0
 13 11  1  0
 13 14  1  6
 14  8  1  0
 15 16  2  0
 15 13  1  0
 17 15  1  0
 18 17  1  0
 18 19  1  1
 20 24  1  0
 20 19  1  0
 21 20  2  0
 22 21  1  0
 22 23  1  0
 23 24  2  0
 25 18  1  0
 25 27  1  0
 26 25  2  0
M  END
$$$$
