KVH.pdb
     RDKit          3D

 27 27  0  0  1  0  0  0  0  0999 V2000
    8.5102  -15.0852   20.3808 N   0  0  0  0  0  0  0  0  0  0  0  0
    7.7371  -15.4809   21.5707 C   0  0  1  0  0  0  0  0  0  0  0  0
    7.5724  -16.9675   21.4772 C   0  0  0  0  0  0  0  0  0  0  0  0
    6.7438  -17.4487   20.3444 C   0  0  0  0  0  0  0  0  0  0  0  0
    7.4361  -17.6074   19.0385 C   0  0  0  0  0  0  0  0  0  0  0  0
    6.6170  -18.1804   17.9313 C   0  0  0  0  0  0  0  0  0  0  0  0
    6.6290  -19.6023   17.8182 N   0  0  0  0  0  0  0  0  0  0  0  0
    8.3868  -15.0325   22.8055 C   0  0  0  0  0  0  0  0  0  0  0  0
    9.6405  -15.0763   22.8846 O   0  0  0  0  0  0  0  0  0  0  0  0
    7.2638  -11.9329   25.4074 C   0  0  0  0  0  0  0  0  0  0  0  0
    7.4520  -13.2906   26.0433 C   0  0  1  0  0  0  0  0  0  0  0  0
    6.0886  -13.8815   26.3321 C   0  0  0  0  0  0  0  0  0  0  0  0
    8.3045  -14.2013   25.1912 C   0  0  2  0  0  0  0  0  0  0  0  0
    7.6921  -14.5409   23.9459 N   0  0  0  0  0  0  0  0  0  0  0  0
    8.5512  -15.4372   26.0058 C   0  0  0  0  0  0  0  0  0  0  0  0
    7.6357  -16.2652   26.2006 O   0  0  0  0  0  0  0  0  0  0  0  0
    9.8385  -15.6693   26.5617 N   0  0  0  0  0  0  0  0  0  0  0  0
   10.1262  -16.8718   27.3766 C   0  0  1  0  0  0  0  0  0  0  0  0
   11.5030  -17.3371   27.0247 C   0  0  0  0  0  0  0  0  0  0  0  0
   11.6525  -17.9177   25.6947 C   0  0  0  0  0  0  0  0  0  0  0  0
   10.5835  -18.0988   24.8108 C   0  0  0  0  0  0  0  0  0  0  0  0
   11.0430  -18.6524   23.6759 N   0  0  0  0  0  0  0  0  0  0  0  0
   12.3628  -18.8078   23.8580 C   0  0  0  0  0  0  0  0  0  0  0  0
   12.7269  -18.3708   25.0594 N   0  0  0  0  0  0  0  0  0  0  0  0
   10.0952  -16.4449   28.7938 C   0  0  0  0  0  0  0  0  0  0  0  0
    9.9461  -15.2549   29.1227 O   0  0  0  0  0  0  0  0  0  0  0  0
   10.2330  -17.3704   29.7988 O   0  0  0  0  0  0  0  0  0  0  0  0
  2  3  1  0
  2  1  1  6
  4  3  1  0
  4  5  1  0
  5  6  1  0
  7  6  1  0
  8  2  1  0
  9  8  2  0
 11 10  1  6
 11 12  1  0
 13 11  1  0
 13 14  1  6
 14  8  1  0
 15 16  2  0
 15 13  1  0
 17 15  1  0
 18 17  1  0
 18 19  1  6
 20 24  1  0
 20 19  1  0
 21 20  2  0
 22 21  1  0
 22 23  1  0
 23 24  2  0
 25 18  1  0
 25 27  1  0
 26 25  2  0
M  END
$$$$
