KVH.pdb
     RDKit          3D

 27 27  0  0  1  0  0  0  0  0999 V2000
    8.4133  -15.1300   20.7014 N   0  0  0  0  0  0  0  0  0  0  0  0
    7.6208  -15.4538   21.9002 C   0  0  1  0  0  0  0  0  0  0  0  0
    7.5080  -16.9479   21.9263 C   0  0  0  0  0  0  0  0  0  0  0  0
    7.8436  -17.6363   20.6555 C   0  0  0  0  0  0  0  0  0  0  0  0
    7.6675  -19.1123   20.6359 C   0  0  0  0  0  0  0  0  0  0  0  0
    7.9398  -19.7844   19.3323 C   0  0  0  0  0  0  0  0  0  0  0  0
    7.7450  -21.1973   19.3066 N   0  0  0  0  0  0  0  0  0  0  0  0
    8.2208  -14.8830   23.1095 C   0  0  0  0  0  0  0  0  0  0  0  0
    9.4732  -14.8409   23.2063 O   0  0  0  0  0  0  0  0  0  0  0  0
    7.7200  -12.4719   27.4766 C   0  0  0  0  0  0  0  0  0  0  0  0
    7.0832  -13.0164   26.2191 C   0  0  1  0  0  0  0  0  0  0  0  0
    6.5132  -11.8594   25.4268 C   0  0  0  0  0  0  0  0  0  0  0  0
    8.0509  -13.8466   25.4086 C   0  0  2  0  0  0  0  0  0  0  0  0
    7.4779  -14.3618   24.2056 N   0  0  0  0  0  0  0  0  0  0  0  0
    8.4949  -14.9704   26.2983 C   0  0  0  0  0  0  0  0  0  0  0  0
    7.6931  -15.8646   26.6437 O   0  0  0  0  0  0  0  0  0  0  0  0
    9.8406  -15.0193   26.7533 N   0  0  0  0  0  0  0  0  0  0  0  0
   10.3119  -16.0841   27.6682 C   0  0  1  0  0  0  0  0  0  0  0  0
   11.7004  -16.4536   27.2540 C   0  0  0  0  0  0  0  0  0  0  0  0
   11.8062  -17.2349   26.0265 C   0  0  0  0  0  0  0  0  0  0  0  0
   10.6959  -17.6961   25.3111 C   0  0  0  0  0  0  0  0  0  0  0  0
   11.1216  -18.3792   24.2352 N   0  0  0  0  0  0  0  0  0  0  0  0
   12.4613  -18.3389   24.2880 C   0  0  0  0  0  0  0  0  0  0  0  0
   12.8701  -17.6580   25.3539 N   0  0  0  0  0  0  0  0  0  0  0  0
   10.3403  -15.4979   29.0273 C   0  0  0  0  0  0  0  0  0  0  0  0
   10.6229  -16.1730   30.0327 O   0  0  0  0  0  0  0  0  0  0  0  0
   10.0498  -14.1690   29.2143 O   0  0  0  0  0  0  0  0  0  0  0  0
  2  3  1  0
  2  1  1  6
  4  3  1  0
  4  5  1  0
  5  6  1  0
  7  6  1  0
  8  2  1  0
  9  8  2  0
 11 10  1  1
 11 12  1  0
 13 11  1  0
 13 14  1  6
 14  8  1  0
 15 16  2  0
 15 13  1  0
 17 15  1  0
 18 17  1  0
 18 19  1  6
 20 24  1  0
 20 19  1  0
 21 20  2  0
 22 21  1  0
 22 23  1  0
 23 24  2  0
 25 18  1  0
 25 27  1  0
 26 25  2  0
M  END
$$$$
