KVH.pdb
     RDKit          3D

 27 27  0  0  1  0  0  0  0  0999 V2000
    8.2008  -18.2110   16.6203 N   0  0  0  0  0  0  0  0  0  0  0  0
    7.3542  -17.7159   17.7195 C   0  0  1  0  0  0  0  0  0  0  0  0
    6.7974  -18.9353   18.3896 C   0  0  0  0  0  0  0  0  0  0  0  0
    6.4673  -20.0659   17.4873 C   0  0  0  0  0  0  0  0  0  0  0  0
    5.0435  -20.1931   17.0792 C   0  0  0  0  0  0  0  0  0  0  0  0
    4.6892  -21.4302   16.3249 C   0  0  0  0  0  0  0  0  0  0  0  0
    3.8310  -22.3481   17.0001 N   0  0  0  0  0  0  0  0  0  0  0  0
    8.1045  -16.8350   18.6190 C   0  0  0  0  0  0  0  0  0  0  0  0
    9.3384  -17.0234   18.7663 O   0  0  0  0  0  0  0  0  0  0  0  0
    8.2541  -12.8192   21.6249 C   0  0  0  0  0  0  0  0  0  0  0  0
    7.4804  -13.6791   20.6526 C   0  0  1  0  0  0  0  0  0  0  0  0
    7.1147  -12.8372   19.4489 C   0  0  0  0  0  0  0  0  0  0  0  0
    8.2415  -14.9272   20.2713 C   0  0  2  0  0  0  0  0  0  0  0  0
    7.5305  -15.7601   19.3538 N   0  0  0  0  0  0  0  0  0  0  0  0
    8.5100  -15.6677   21.5485 C   0  0  0  0  0  0  0  0  0  0  0  0
    7.6510  -16.4357   22.0324 O   0  0  0  0  0  0  0  0  0  0  0  0
    9.7532  -15.4948   22.2153 N   0  0  0  0  0  0  0  0  0  0  0  0
   10.3323  -16.5601   23.0654 C   0  0  1  0  0  0  0  0  0  0  0  0
   10.6315  -17.7296   22.1830 C   0  0  0  0  0  0  0  0  0  0  0  0
   11.1728  -18.9056   22.8555 C   0  0  0  0  0  0  0  0  0  0  0  0
   11.3882  -18.9702   24.2362 C   0  0  0  0  0  0  0  0  0  0  0  0
   11.8910  -20.1775   24.5447 N   0  0  0  0  0  0  0  0  0  0  0  0
   11.9825  -20.8390   23.3815 C   0  0  0  0  0  0  0  0  0  0  0  0
   11.5553  -20.0830   22.3751 N   0  0  0  0  0  0  0  0  0  0  0  0
   11.5951  -16.0237   23.6214 C   0  0  0  0  0  0  0  0  0  0  0  0
   12.3142  -15.2329   22.9858 O   0  0  0  0  0  0  0  0  0  0  0  0
   12.0112  -16.3936   24.8767 O   0  0  0  0  0  0  0  0  0  0  0  0
  2  3  1  0
  2  1  1  6
  4  3  1  0
  4  5  1  0
  5  6  1  0
  7  6  1  0
  8  2  1  0
  9  8  2  0
 11 10  1  1
 11 12  1  0
 13 11  1  0
 13 14  1  6
 14  8  1  0
 15 16  2  0
 15 13  1  0
 17 15  1  0
 18 17  1  0
 18 19  1  6
 20 24  1  0
 20 19  1  0
 21 20  2  0
 22 21  1  0
 22 23  1  0
 23 24  2  0
 25 18  1  0
 25 27  1  0
 26 25  2  0
M  END
$$$$
