KVH.pdb
     RDKit          3D

 27 27  0  0  1  0  0  0  0  0999 V2000
    9.1050  -18.3553   17.2291 N   0  0  0  0  0  0  0  0  0  0  0  0
    8.2132  -18.0685   18.3659 C   0  0  1  0  0  0  0  0  0  0  0  0
    7.9452  -19.3895   19.0207 C   0  0  0  0  0  0  0  0  0  0  0  0
    7.3945  -20.4429   18.1327 C   0  0  0  0  0  0  0  0  0  0  0  0
    6.4285  -21.3899   18.7492 C   0  0  0  0  0  0  0  0  0  0  0  0
    5.8789  -22.4415   17.8454 C   0  0  0  0  0  0  0  0  0  0  0  0
    6.6626  -22.7450   16.6927 N   0  0  0  0  0  0  0  0  0  0  0  0
    8.7957  -17.0681   19.2649 C   0  0  0  0  0  0  0  0  0  0  0  0
   10.0466  -16.9858   19.3556 O   0  0  0  0  0  0  0  0  0  0  0  0
    8.2195  -13.2446   22.4606 C   0  0  0  0  0  0  0  0  0  0  0  0
    7.6556  -14.1240   21.3688 C   0  0  1  0  0  0  0  0  0  0  0  0
    7.3285  -13.2573   20.1716 C   0  0  0  0  0  0  0  0  0  0  0  0
    8.5885  -15.2596   21.0185 C   0  0  2  0  0  0  0  0  0  0  0  0
    8.0371  -16.1638   20.0596 N   0  0  0  0  0  0  0  0  0  0  0  0
    8.8849  -15.9772   22.3026 C   0  0  0  0  0  0  0  0  0  0  0  0
    7.9788  -16.5738   22.9229 O   0  0  0  0  0  0  0  0  0  0  0  0
   10.2089  -15.9790   22.8193 N   0  0  0  0  0  0  0  0  0  0  0  0
   10.5544  -16.7013   24.0651 C   0  0  1  0  0  0  0  0  0  0  0  0
   11.9623  -17.1868   23.9300 C   0  0  0  0  0  0  0  0  0  0  0  0
   12.1681  -18.2679   22.9724 C   0  0  0  0  0  0  0  0  0  0  0  0
   11.3300  -19.3844   22.8821 C   0  0  0  0  0  0  0  0  0  0  0  0
   11.7826  -20.1938   21.9097 N   0  0  0  0  0  0  0  0  0  0  0  0
   12.8727  -19.5893   21.4142 C   0  0  0  0  0  0  0  0  0  0  0  0
   13.1033  -18.4427   22.0460 N   0  0  0  0  0  0  0  0  0  0  0  0
   10.4744  -15.7155   25.1666 C   0  0  0  0  0  0  0  0  0  0  0  0
   10.2820  -14.5048   24.9577 O   0  0  0  0  0  0  0  0  0  0  0  0
   10.6134  -16.1218   26.4708 O   0  0  0  0  0  0  0  0  0  0  0  0
  2  3  1  0
  2  1  1  6
  4  3  1  0
  4  5  1  0
  5  6  1  0
  7  6  1  0
  8  2  1  0
  9  8  2  0
 11 10  1  1
 11 12  1  0
 13 11  1  0
 13 14  1  6
 14  8  1  0
 15 16  2  0
 15 13  1  0
 17 15  1  0
 18 17  1  0
 18 19  1  6
 20 24  1  0
 20 19  1  0
 21 20  2  0
 22 21  1  0
 22 23  1  0
 23 24  2  0
 25 18  1  0
 25 27  1  0
 26 25  2  0
M  END
$$$$
