KVH.pdb
     RDKit          3D

 27 27  0  0  1  0  0  0  0  0999 V2000
    6.7593  -16.3298   20.0727 N   0  0  0  0  0  0  0  0  0  0  0  0
    7.8382  -15.5846   20.7441 C   0  0  1  0  0  0  0  0  0  0  0  0
    7.3472  -14.1741   20.8678 C   0  0  0  0  0  0  0  0  0  0  0  0
    7.0888  -13.4726   19.5862 C   0  0  0  0  0  0  0  0  0  0  0  0
    8.1395  -13.5941   18.5416 C   0  0  0  0  0  0  0  0  0  0  0  0
    7.9093  -12.8143   17.2911 C   0  0  0  0  0  0  0  0  0  0  0  0
    8.9279  -12.9143   16.2975 N   0  0  0  0  0  0  0  0  0  0  0  0
    8.1998  -16.2013   22.0235 C   0  0  0  0  0  0  0  0  0  0  0  0
    7.2849  -16.6037   22.7856 O   0  0  0  0  0  0  0  0  0  0  0  0
   11.4902  -18.5893   24.8538 C   0  0  0  0  0  0  0  0  0  0  0  0
   11.1117  -17.9300   23.5479 C   0  0  1  0  0  0  0  0  0  0  0  0
   10.9090  -19.0074   22.5042 C   0  0  0  0  0  0  0  0  0  0  0  0
    9.9020  -17.0370   23.6947 C   0  0  2  0  0  0  0  0  0  0  0  0
    9.5357  -16.3832   22.4784 N   0  0  0  0  0  0  0  0  0  0  0  0
   10.2462  -16.0253   24.7481 C   0  0  0  0  0  0  0  0  0  0  0  0
   11.1540  -15.1883   24.5553 O   0  0  0  0  0  0  0  0  0  0  0  0
    9.5333  -16.0179   25.9777 N   0  0  0  0  0  0  0  0  0  0  0  0
    9.8463  -15.0457   27.0499 C   0  0  1  0  0  0  0  0  0  0  0  0
    8.5589  -14.6776   27.7158 C   0  0  0  0  0  0  0  0  0  0  0  0
    7.7042  -13.7581   26.9726 C   0  0  0  0  0  0  0  0  0  0  0  0
    8.1363  -13.0454   25.8490 C   0  0  0  0  0  0  0  0  0  0  0  0
    7.1227  -12.2897   25.3938 N   0  0  0  0  0  0  0  0  0  0  0  0
    6.0925  -12.5321   26.2178 C   0  0  0  0  0  0  0  0  0  0  0  0
    6.4373  -13.4060   27.1581 N   0  0  0  0  0  0  0  0  0  0  0  0
   10.7219  -15.7442   28.0178 C   0  0  0  0  0  0  0  0  0  0  0  0
   11.3078  -15.1413   28.9342 O   0  0  0  0  0  0  0  0  0  0  0  0
   10.9121  -17.1010   27.9254 O   0  0  0  0  0  0  0  0  0  0  0  0
  2  3  1  0
  2  1  1  1
  4  3  1  0
  4  5  1  0
  5  6  1  0
  7  6  1  0
  8  2  1  0
  9  8  2  0
 11 10  1  1
 11 12  1  0
 13 11  1  0
 13 14  1  6
 14  8  1  0
 15 16  2  0
 15 13  1  0
 17 15  1  0
 18 17  1  0
 18 19  1  1
 20 24  1  0
 20 19  1  0
 21 20  2  0
 22 21  1  0
 22 23  1  0
 23 24  2  0
 25 18  1  0
 25 27  1  0
 26 25  2  0
M  END
$$$$
