KVH.pdb
     RDKit          3D

 27 27  0  0  1  0  0  0  0  0999 V2000
    8.1642  -18.5083   17.9781 N   0  0  0  0  0  0  0  0  0  0  0  0
    7.1444  -17.8459   18.8095 C   0  0  1  0  0  0  0  0  0  0  0  0
    6.2803  -18.9439   19.3514 C   0  0  0  0  0  0  0  0  0  0  0  0
    5.9959  -20.0561   18.4114 C   0  0  0  0  0  0  0  0  0  0  0  0
    7.1750  -20.7236   17.7998 C   0  0  0  0  0  0  0  0  0  0  0  0
    6.8895  -21.9555   17.0085 C   0  0  0  0  0  0  0  0  0  0  0  0
    8.0221  -22.6010   16.4293 N   0  0  0  0  0  0  0  0  0  0  0  0
    7.7578  -17.0083   19.8441 C   0  0  0  0  0  0  0  0  0  0  0  0
    8.8197  -17.3976   20.3924 O   0  0  0  0  0  0  0  0  0  0  0  0
    7.9969  -12.6135   22.2398 C   0  0  0  0  0  0  0  0  0  0  0  0
    7.4125  -13.4691   21.1398 C   0  0  1  0  0  0  0  0  0  0  0  0
    7.7809  -12.8572   19.8052 C   0  0  0  0  0  0  0  0  0  0  0  0
    7.8499  -14.9108   21.2515 C   0  0  2  0  0  0  0  0  0  0  0  0
    7.2318  -15.7617   20.2846 N   0  0  0  0  0  0  0  0  0  0  0  0
    7.4962  -15.3556   22.6404 C   0  0  0  0  0  0  0  0  0  0  0  0
    6.3072  -15.5767   22.9552 O   0  0  0  0  0  0  0  0  0  0  0  0
    8.5229  -15.5273   23.6081 N   0  0  0  0  0  0  0  0  0  0  0  0
    8.3083  -16.3329   24.8320 C   0  0  1  0  0  0  0  0  0  0  0  0
    7.9464  -17.7188   24.4029 C   0  0  0  0  0  0  0  0  0  0  0  0
    7.7185  -18.6744   25.4814 C   0  0  0  0  0  0  0  0  0  0  0  0
    7.7823  -18.3331   26.8366 C   0  0  0  0  0  0  0  0  0  0  0  0
    7.5265  -19.4259   27.5756 N   0  0  0  0  0  0  0  0  0  0  0  0
    7.3108  -20.4150   26.6957 C   0  0  0  0  0  0  0  0  0  0  0  0
    7.4247  -19.9690   25.4487 N   0  0  0  0  0  0  0  0  0  0  0  0
    9.5988  -16.3605   25.5570 C   0  0  0  0  0  0  0  0  0  0  0  0
   10.6904  -16.2770   24.9672 O   0  0  0  0  0  0  0  0  0  0  0  0
    9.6222  -16.4813   26.9246 O   0  0  0  0  0  0  0  0  0  0  0  0
  2  3  1  0
  2  1  1  1
  4  3  1  0
  4  5  1  0
  5  6  1  0
  7  6  1  0
  8  2  1  0
  9  8  2  0
 11 10  1  1
 11 12  1  0
 13 11  1  0
 13 14  1  6
 14  8  1  0
 15 16  2  0
 15 13  1  0
 17 15  1  0
 18 17  1  0
 18 19  1  6
 20 24  1  0
 20 19  1  0
 21 20  2  0
 22 21  1  0
 22 23  1  0
 23 24  2  0
 25 18  1  0
 25 27  1  0
 26 25  2  0
M  END
$$$$
