KVH.pdb
     RDKit          3D

 27 27  0  0  1  0  0  0  0  0999 V2000
    9.2376  -17.7880   16.2081 N   0  0  0  0  0  0  0  0  0  0  0  0
    8.3927  -17.6047   17.4010 C   0  0  1  0  0  0  0  0  0  0  0  0
    8.1993  -18.9729   17.9808 C   0  0  0  0  0  0  0  0  0  0  0  0
    7.3795  -19.9026   17.1653 C   0  0  0  0  0  0  0  0  0  0  0  0
    7.1410  -21.2527   17.7399 C   0  0  0  0  0  0  0  0  0  0  0  0
    6.4319  -22.2221   16.8553 C   0  0  0  0  0  0  0  0  0  0  0  0
    6.6156  -22.0364   15.4530 N   0  0  0  0  0  0  0  0  0  0  0  0
    8.9853  -16.6429   18.3348 C   0  0  0  0  0  0  0  0  0  0  0  0
   10.2343  -16.6186   18.4729 O   0  0  0  0  0  0  0  0  0  0  0  0
    8.3812  -13.0835   21.8275 C   0  0  0  0  0  0  0  0  0  0  0  0
    7.8623  -13.8029   20.6042 C   0  0  1  0  0  0  0  0  0  0  0  0
    7.6585  -12.7894   19.4984 C   0  0  0  0  0  0  0  0  0  0  0  0
    8.7707  -14.9352   20.1859 C   0  0  2  0  0  0  0  0  0  0  0  0
    8.2387  -15.7149   19.1134 N   0  0  0  0  0  0  0  0  0  0  0  0
    8.9721  -15.7899   21.4028 C   0  0  0  0  0  0  0  0  0  0  0  0
    8.0565  -16.5316   21.8191 O   0  0  0  0  0  0  0  0  0  0  0  0
   10.2161  -15.7562   22.0894 N   0  0  0  0  0  0  0  0  0  0  0  0
   10.4902  -16.6446   23.2420 C   0  0  1  0  0  0  0  0  0  0  0  0
   11.9610  -16.9133   23.2654 C   0  0  0  0  0  0  0  0  0  0  0  0
   12.4506  -17.8348   22.2458 C   0  0  0  0  0  0  0  0  0  0  0  0
   11.6314  -18.7581   21.5873 C   0  0  0  0  0  0  0  0  0  0  0  0
   12.3745  -19.4560   20.7119 N   0  0  0  0  0  0  0  0  0  0  0  0
   13.6204  -18.9733   20.8295 C   0  0  0  0  0  0  0  0  0  0  0  0
   13.6671  -18.0082   21.7423 N   0  0  0  0  0  0  0  0  0  0  0  0
   10.1045  -15.8960   24.4595 C   0  0  0  0  0  0  0  0  0  0  0  0
    9.8514  -14.6787   24.4349 O   0  0  0  0  0  0  0  0  0  0  0  0
   10.0150  -16.5400   25.6689 O   0  0  0  0  0  0  0  0  0  0  0  0
  2  3  1  0
  2  1  1  6
  4  3  1  0
  4  5  1  0
  5  6  1  0
  7  6  1  0
  8  2  1  0
  9  8  2  0
 11 10  1  1
 11 12  1  0
 13 11  1  0
 13 14  1  6
 14  8  1  0
 15 16  2  0
 15 13  1  0
 17 15  1  0
 18 17  1  0
 18 19  1  1
 20 24  1  0
 20 19  1  0
 21 20  2  0
 22 21  1  0
 22 23  1  0
 23 24  2  0
 25 18  1  0
 25 27  1  0
 26 25  2  0
M  END
$$$$
