KVH.pdb
     RDKit          3D

 27 27  0  0  1  0  0  0  0  0999 V2000
    8.2137  -15.2930   20.5475 N   0  0  0  0  0  0  0  0  0  0  0  0
    7.1204  -15.2693   21.5345 C   0  0  1  0  0  0  0  0  0  0  0  0
    6.5310  -16.6471   21.5270 C   0  0  0  0  0  0  0  0  0  0  0  0
    6.5474  -17.3421   20.2163 C   0  0  0  0  0  0  0  0  0  0  0  0
    5.8778  -18.6682   20.1618 C   0  0  0  0  0  0  0  0  0  0  0  0
    5.8107  -19.3104   18.8171 C   0  0  0  0  0  0  0  0  0  0  0  0
    7.0550  -19.7429   18.2699 N   0  0  0  0  0  0  0  0  0  0  0  0
    7.5961  -14.8346   22.8508 C   0  0  0  0  0  0  0  0  0  0  0  0
    8.7653  -15.1309   23.2041 O   0  0  0  0  0  0  0  0  0  0  0  0
    6.8744  -12.3069   27.1195 C   0  0  0  0  0  0  0  0  0  0  0  0
    6.4109  -12.6444   25.7215 C   0  0  1  0  0  0  0  0  0  0  0  0
    6.4363  -11.3819   24.8866 C   0  0  0  0  0  0  0  0  0  0  0  0
    7.2287  -13.7562   25.1072 C   0  0  2  0  0  0  0  0  0  0  0  0
    6.8188  -14.0870   23.7791 N   0  0  0  0  0  0  0  0  0  0  0  0
    7.0774  -14.9442   26.0114 C   0  0  0  0  0  0  0  0  0  0  0  0
    5.9715  -15.5124   26.1372 O   0  0  0  0  0  0  0  0  0  0  0  0
    8.2024  -15.4288   26.7323 N   0  0  0  0  0  0  0  0  0  0  0  0
    8.2850  -16.8357   27.1869 C   0  0  1  0  0  0  0  0  0  0  0  0
    8.3082  -17.7032   25.9692 C   0  0  0  0  0  0  0  0  0  0  0  0
    8.3436  -19.1402   26.2184 C   0  0  0  0  0  0  0  0  0  0  0  0
    7.5498  -19.7729   27.1810 C   0  0  0  0  0  0  0  0  0  0  0  0
    7.8122  -21.0907   27.1672 N   0  0  0  0  0  0  0  0  0  0  0  0
    8.7450  -21.2637   26.2189 C   0  0  0  0  0  0  0  0  0  0  0  0
    9.0622  -20.1034   25.6534 N   0  0  0  0  0  0  0  0  0  0  0  0
    9.5651  -16.9740   27.9175 C   0  0  0  0  0  0  0  0  0  0  0  0
    9.7300  -17.8277   28.8066 O   0  0  0  0  0  0  0  0  0  0  0  0
   10.6218  -16.1472   27.6256 O   0  0  0  0  0  0  0  0  0  0  0  0
  2  3  1  0
  2  1  1  6
  4  3  1  0
  4  5  1  0
  5  6  1  0
  7  6  1  0
  8  2  1  0
  9  8  2  0
 11 10  1  1
 11 12  1  0
 13 11  1  0
 13 14  1  6
 14  8  1  0
 15 16  2  0
 15 13  1  0
 17 15  1  0
 18 17  1  0
 18 19  1  6
 20 24  1  0
 20 19  1  0
 21 20  2  0
 22 21  1  0
 22 23  1  0
 23 24  2  0
 25 18  1  0
 25 27  1  0
 26 25  2  0
M  END
$$$$
