KVH.pdb
     RDKit          3D

 27 27  0  0  1  0  0  0  0  0999 V2000
    7.9874  -19.1195   19.2038 N   0  0  0  0  0  0  0  0  0  0  0  0
    7.4951  -18.3722   20.3739 C   0  0  1  0  0  0  0  0  0  0  0  0
    7.5835  -19.3189   21.5323 C   0  0  0  0  0  0  0  0  0  0  0  0
    6.6991  -20.5077   21.4550 C   0  0  0  0  0  0  0  0  0  0  0  0
    6.7546  -21.4498   22.6036 C   0  0  0  0  0  0  0  0  0  0  0  0
    5.8319  -22.6196   22.5329 C   0  0  0  0  0  0  0  0  0  0  0  0
    4.5289  -22.4198   23.0779 N   0  0  0  0  0  0  0  0  0  0  0  0
    8.2425  -17.1264   20.5675 C   0  0  0  0  0  0  0  0  0  0  0  0
    9.4696  -17.1041   20.2963 O   0  0  0  0  0  0  0  0  0  0  0  0
    8.2896  -12.2216   21.5633 C   0  0  0  0  0  0  0  0  0  0  0  0
    7.5693  -13.4636   21.0923 C   0  0  1  0  0  0  0  0  0  0  0  0
    7.1604  -13.2660   19.6483 C   0  0  0  0  0  0  0  0  0  0  0  0
    8.4014  -14.7091   21.2888 C   0  0  2  0  0  0  0  0  0  0  0  0
    7.6730  -15.9146   21.0491 N   0  0  0  0  0  0  0  0  0  0  0  0
    8.8956  -14.6706   22.7052 C   0  0  0  0  0  0  0  0  0  0  0  0
    9.6954  -13.7854   23.0771 O   0  0  0  0  0  0  0  0  0  0  0  0
    8.4503  -15.6503   23.6337 N   0  0  0  0  0  0  0  0  0  0  0  0
    8.7995  -15.5723   25.0707 C   0  0  1  0  0  0  0  0  0  0  0  0
    7.5217  -15.4750   25.8414 C   0  0  0  0  0  0  0  0  0  0  0  0
    6.9099  -14.1513   25.8845 C   0  0  0  0  0  0  0  0  0  0  0  0
    7.6442  -12.9627   25.8137 C   0  0  0  0  0  0  0  0  0  0  0  0
    6.7978  -11.9210   25.8788 N   0  0  0  0  0  0  0  0  0  0  0  0
    5.5729  -12.4565   25.9870 C   0  0  0  0  0  0  0  0  0  0  0  0
    5.6381  -13.7841   25.9905 N   0  0  0  0  0  0  0  0  0  0  0  0
    9.4882  -16.8375   25.4122 C   0  0  0  0  0  0  0  0  0  0  0  0
    9.8983  -17.0777   26.5613 O   0  0  0  0  0  0  0  0  0  0  0  0
    9.6947  -17.7949   24.4498 O   0  0  0  0  0  0  0  0  0  0  0  0
  2  3  1  0
  2  1  1  6
  4  3  1  0
  4  5  1  0
  5  6  1  0
  7  6  1  0
  8  2  1  0
  9  8  2  0
 11 10  1  6
 11 12  1  0
 13 11  1  0
 13 14  1  1
 14  8  1  0
 15 16  2  0
 15 13  1  0
 17 15  1  0
 18 17  1  0
 18 19  1  1
 20 24  1  0
 20 19  1  0
 21 20  2  0
 22 21  1  0
 22 23  1  0
 23 24  2  0
 25 18  1  0
 25 27  1  0
 26 25  2  0
M  END
$$$$
