KVH.pdb
     RDKit          3D

 27 27  0  0  1  0  0  0  0  0999 V2000
    7.3482  -17.6452   17.4181 N   0  0  0  0  0  0  0  0  0  0  0  0
    8.7446  -17.1972   17.2789 C   0  0  1  0  0  0  0  0  0  0  0  0
    8.8484  -16.5973   15.9095 C   0  0  0  0  0  0  0  0  0  0  0  0
    8.4594  -17.4897   14.7897 C   0  0  0  0  0  0  0  0  0  0  0  0
    8.5684  -16.9201   13.4209 C   0  0  0  0  0  0  0  0  0  0  0  0
    8.0881  -17.7931   12.3110 C   0  0  0  0  0  0  0  0  0  0  0  0
    8.4977  -19.1583   12.3695 N   0  0  0  0  0  0  0  0  0  0  0  0
    9.1237  -16.2811   18.3582 C   0  0  0  0  0  0  0  0  0  0  0  0
   10.3175  -15.8963   18.4391 O   0  0  0  0  0  0  0  0  0  0  0  0
    7.9191  -12.9083   21.7856 C   0  0  0  0  0  0  0  0  0  0  0  0
    7.5319  -13.8255   20.6488 C   0  0  1  0  0  0  0  0  0  0  0  0
    7.2515  -12.9828   19.4230 C   0  0  0  0  0  0  0  0  0  0  0  0
    8.5806  -14.8823   20.3922 C   0  0  2  0  0  0  0  0  0  0  0  0
    8.2245  -15.7834   19.3423 N   0  0  0  0  0  0  0  0  0  0  0  0
    8.7569  -15.6277   21.6826 C   0  0  0  0  0  0  0  0  0  0  0  0
    7.7903  -16.2104   22.2191 O   0  0  0  0  0  0  0  0  0  0  0  0
   10.0356  -15.6722   22.3015 N   0  0  0  0  0  0  0  0  0  0  0  0
   10.4315  -16.7932   23.1844 C   0  0  1  0  0  0  0  0  0  0  0  0
   10.9012  -17.9121   22.3107 C   0  0  0  0  0  0  0  0  0  0  0  0
   11.3272  -19.1210   23.0075 C   0  0  0  0  0  0  0  0  0  0  0  0
   11.2964  -19.2568   24.3995 C   0  0  0  0  0  0  0  0  0  0  0  0
   11.7490  -20.4781   24.7302 N   0  0  0  0  0  0  0  0  0  0  0  0
   12.0507  -21.0784   23.5693 C   0  0  0  0  0  0  0  0  0  0  0  0
   11.8001  -20.2716   22.5430 N   0  0  0  0  0  0  0  0  0  0  0  0
   11.5572  -16.3068   24.0137 C   0  0  0  0  0  0  0  0  0  0  0  0
   11.9416  -16.9143   25.0285 O   0  0  0  0  0  0  0  0  0  0  0  0
   12.2170  -15.1509   23.6760 O   0  0  0  0  0  0  0  0  0  0  0  0
  2  3  1  0
  2  1  1  1
  4  3  1  0
  4  5  1  0
  5  6  1  0
  7  6  1  0
  8  2  1  0
  9  8  2  0
 11 10  1  1
 11 12  1  0
 13 11  1  0
 13 14  1  6
 14  8  1  0
 15 16  2  0
 15 13  1  0
 17 15  1  0
 18 17  1  0
 18 19  1  6
 20 24  1  0
 20 19  1  0
 21 20  2  0
 22 21  1  0
 22 23  1  0
 23 24  2  0
 25 18  1  0
 25 27  1  0
 26 25  2  0
M  END
$$$$
