KVH.pdb
     RDKit          3D

 27 27  0  0  1  0  0  0  0  0999 V2000
    8.6064  -15.5363   20.5787 N   0  0  0  0  0  0  0  0  0  0  0  0
    8.0357  -16.0458   21.8376 C   0  0  1  0  0  0  0  0  0  0  0  0
    8.3773  -17.5043   21.8823 C   0  0  0  0  0  0  0  0  0  0  0  0
    7.3350  -18.4211   21.3585 C   0  0  0  0  0  0  0  0  0  0  0  0
    7.5934  -19.8764   21.5169 C   0  0  0  0  0  0  0  0  0  0  0  0
    6.4938  -20.7854   21.0812 C   0  0  0  0  0  0  0  0  0  0  0  0
    5.3495  -20.8321   21.9317 N   0  0  0  0  0  0  0  0  0  0  0  0
    8.5229  -15.2867   22.9928 C   0  0  0  0  0  0  0  0  0  0  0  0
    9.7481  -15.0178   23.0720 O   0  0  0  0  0  0  0  0  0  0  0  0
    7.6186  -12.9149   27.3187 C   0  0  0  0  0  0  0  0  0  0  0  0
    7.1542  -13.3656   25.9532 C   0  0  1  0  0  0  0  0  0  0  0  0
    6.8011  -12.1417   25.1353 C   0  0  0  0  0  0  0  0  0  0  0  0
    8.1779  -14.2396   25.2673 C   0  0  2  0  0  0  0  0  0  0  0  0
    7.6973  -14.8210   24.0540 N   0  0  0  0  0  0  0  0  0  0  0  0
    8.5471  -15.3122   26.2497 C   0  0  0  0  0  0  0  0  0  0  0  0
    7.6656  -16.0226   26.7787 O   0  0  0  0  0  0  0  0  0  0  0  0
    9.9128  -15.5230   26.5824 N   0  0  0  0  0  0  0  0  0  0  0  0
   10.3215  -16.5509   27.5669 C   0  0  1  0  0  0  0  0  0  0  0  0
   11.8133  -16.6456   27.5282 C   0  0  0  0  0  0  0  0  0  0  0  0
   12.4177  -17.5070   28.5387 C   0  0  0  0  0  0  0  0  0  0  0  0
   11.6722  -18.2959   29.4213 C   0  0  0  0  0  0  0  0  0  0  0  0
   12.5139  -18.9695   30.2235 N   0  0  0  0  0  0  0  0  0  0  0  0
   13.7469  -18.6034   29.8431 C   0  0  0  0  0  0  0  0  0  0  0  0
   13.6910  -17.7328   28.8402 N   0  0  0  0  0  0  0  0  0  0  0  0
    9.8909  -16.0638   28.8969 C   0  0  0  0  0  0  0  0  0  0  0  0
    9.4033  -16.8226   29.7529 O   0  0  0  0  0  0  0  0  0  0  0  0
   10.0220  -14.7366   29.2238 O   0  0  0  0  0  0  0  0  0  0  0  0
  2  3  1  0
  2  1  1  6
  4  3  1  0
  4  5  1  0
  5  6  1  0
  7  6  1  0
  8  2  1  0
  9  8  2  0
 11 10  1  1
 11 12  1  0
 13 11  1  0
 13 14  1  6
 14  8  1  0
 15 16  2  0
 15 13  1  0
 17 15  1  0
 18 17  1  0
 18 19  1  1
 20 24  1  0
 20 19  1  0
 21 20  2  0
 22 21  1  0
 22 23  1  0
 23 24  2  0
 25 18  1  0
 25 27  1  0
 26 25  2  0
M  END
$$$$
