KVH.pdb
     RDKit          3D

 27 27  0  0  1  0  0  0  0  0999 V2000
    9.9588  -15.6239   14.1276 N   0  0  0  0  0  0  0  0  0  0  0  0
    9.7095  -16.1677   15.4739 C   0  0  1  0  0  0  0  0  0  0  0  0
   10.5625  -17.3948   15.5850 C   0  0  0  0  0  0  0  0  0  0  0  0
   11.9861  -17.2201   15.2053 C   0  0  0  0  0  0  0  0  0  0  0  0
   12.8317  -18.4425   15.2265 C   0  0  0  0  0  0  0  0  0  0  0  0
   14.3053  -18.2174   15.1733 C   0  0  0  0  0  0  0  0  0  0  0  0
   15.1142  -19.3915   15.1276 N   0  0  0  0  0  0  0  0  0  0  0  0
    9.9708  -15.1675   16.5127 C   0  0  0  0  0  0  0  0  0  0  0  0
   10.8641  -14.3052   16.3170 O   0  0  0  0  0  0  0  0  0  0  0  0
    8.3342  -12.7520   20.5669 C   0  0  0  0  0  0  0  0  0  0  0  0
    8.1283  -13.7614   19.4615 C   0  0  1  0  0  0  0  0  0  0  0  0
    7.0150  -13.2705   18.5609 C   0  0  0  0  0  0  0  0  0  0  0  0
    9.4043  -14.0357   18.7007 C   0  0  2  0  0  0  0  0  0  0  0  0
    9.2757  -15.0964   17.7523 N   0  0  0  0  0  0  0  0  0  0  0  0
   10.4455  -14.3758   19.7263 C   0  0  0  0  0  0  0  0  0  0  0  0
   10.8764  -13.5032   20.5104 O   0  0  0  0  0  0  0  0  0  0  0  0
   10.9474  -15.7030   19.8077 N   0  0  0  0  0  0  0  0  0  0  0  0
   12.0551  -16.0587   20.7239 C   0  0  1  0  0  0  0  0  0  0  0  0
   13.0607  -14.9534   20.6672 C   0  0  0  0  0  0  0  0  0  0  0  0
   13.8322  -14.8647   19.4321 C   0  0  0  0  0  0  0  0  0  0  0  0
   14.5700  -15.9317   18.9087 C   0  0  0  0  0  0  0  0  0  0  0  0
   15.1643  -15.5361   17.7703 N   0  0  0  0  0  0  0  0  0  0  0  0
   14.8004  -14.2565   17.5983 C   0  0  0  0  0  0  0  0  0  0  0  0
   14.0075  -13.8557   18.5869 N   0  0  0  0  0  0  0  0  0  0  0  0
   11.4770  -16.1323   22.0847 C   0  0  0  0  0  0  0  0  0  0  0  0
   10.2706  -15.9234   22.3028 O   0  0  0  0  0  0  0  0  0  0  0  0
   12.2740  -16.4390   23.1599 O   0  0  0  0  0  0  0  0  0  0  0  0
  2  3  1  0
  2  1  1  6
  4  3  1  0
  4  5  1  0
  5  6  1  0
  7  6  1  0
  8  2  1  0
  9  8  2  0
 11 10  1  1
 11 12  1  0
 13 11  1  0
 13 14  1  6
 14  8  1  0
 15 16  2  0
 15 13  1  0
 17 15  1  0
 18 17  1  0
 18 19  1  1
 20 24  1  0
 20 19  1  0
 21 20  2  0
 22 21  1  0
 22 23  1  0
 23 24  2  0
 25 18  1  0
 25 27  1  0
 26 25  2  0
M  END
$$$$
