KVH.pdb
     RDKit          3D

 27 27  0  0  1  0  0  0  0  0999 V2000
    8.4367  -18.1031   16.3786 N   0  0  0  0  0  0  0  0  0  0  0  0
    7.6112  -17.7090   17.5333 C   0  0  1  0  0  0  0  0  0  0  0  0
    7.1513  -18.9880   18.1645 C   0  0  0  0  0  0  0  0  0  0  0  0
    6.3110  -19.8585   17.3056 C   0  0  0  0  0  0  0  0  0  0  0  0
    6.9304  -21.1281   16.8429 C   0  0  0  0  0  0  0  0  0  0  0  0
    6.0233  -22.0755   16.1324 C   0  0  0  0  0  0  0  0  0  0  0  0
    5.5662  -21.6562   14.8479 N   0  0  0  0  0  0  0  0  0  0  0  0
    8.3492  -16.8296   18.4444 C   0  0  0  0  0  0  0  0  0  0  0  0
    9.6012  -16.9245   18.5014 O   0  0  0  0  0  0  0  0  0  0  0  0
    8.3654  -13.0267   21.7216 C   0  0  0  0  0  0  0  0  0  0  0  0
    7.6403  -13.8295   20.6665 C   0  0  1  0  0  0  0  0  0  0  0  0
    7.2729  -12.9057   19.5249 C   0  0  0  0  0  0  0  0  0  0  0  0
    8.4491  -15.0193   20.2056 C   0  0  2  0  0  0  0  0  0  0  0  0
    7.7437  -15.8561   19.2873 N   0  0  0  0  0  0  0  0  0  0  0  0
    8.8127  -15.7899   21.4408 C   0  0  0  0  0  0  0  0  0  0  0  0
    7.9289  -16.3424   22.1303 O   0  0  0  0  0  0  0  0  0  0  0  0
   10.1754  -15.8932   21.8313 N   0  0  0  0  0  0  0  0  0  0  0  0
   10.5800  -16.6372   23.0460 C   0  0  1  0  0  0  0  0  0  0  0  0
   11.7161  -17.5334   22.6693 C   0  0  0  0  0  0  0  0  0  0  0  0
   11.3603  -18.7034   21.8738 C   0  0  0  0  0  0  0  0  0  0  0  0
   10.0458  -19.1564   21.7190 C   0  0  0  0  0  0  0  0  0  0  0  0
   10.0485  -20.2469   20.9338 N   0  0  0  0  0  0  0  0  0  0  0  0
   11.3337  -20.4589   20.6137 C   0  0  0  0  0  0  0  0  0  0  0  0
   12.1156  -19.5408   21.1727 N   0  0  0  0  0  0  0  0  0  0  0  0
   11.0471  -15.6317   24.0271 C   0  0  0  0  0  0  0  0  0  0  0  0
   11.2194  -14.4389   23.7203 O   0  0  0  0  0  0  0  0  0  0  0  0
   11.3065  -15.9988   25.3245 O   0  0  0  0  0  0  0  0  0  0  0  0
  2  3  1  0
  2  1  1  6
  4  3  1  0
  4  5  1  0
  5  6  1  0
  7  6  1  0
  8  2  1  0
  9  8  2  0
 11 10  1  1
 11 12  1  0
 13 11  1  0
 13 14  1  6
 14  8  1  0
 15 16  2  0
 15 13  1  0
 17 15  1  0
 18 17  1  0
 18 19  1  6
 20 24  1  0
 20 19  1  0
 21 20  2  0
 22 21  1  0
 22 23  1  0
 23 24  2  0
 25 18  1  0
 25 27  1  0
 26 25  2  0
M  END
$$$$
