DIL.pdb
     RDKit          3D

 25 24  0  0  1  0  0  0  0  0999 V2000
   28.4188  -26.3320  -22.9010 N   0  0  0  0  0  0  0  0  0  0  0  0
   29.6651  -26.4520  -22.2116 C   0  0  1  0  0  0  0  0  0  0  0  0
   29.5763  -25.6619  -20.9150 C   0  0  0  0  0  0  0  0  0  0  0  0
   29.6804  -24.2292  -21.2832 C   0  0  0  0  0  0  0  0  0  0  0  0
   29.6913  -23.3425  -20.3736 O   0  0  0  0  0  0  0  0  0  0  0  0
   29.9577  -27.9091  -21.8883 C   0  0  0  0  0  0  0  0  0  0  0  0
   29.0032  -28.6964  -21.8332 O   0  0  0  0  0  0  0  0  0  0  0  0
   29.7687  -23.7816  -22.5832 O   0  0  0  0  0  0  0  0  0  0  0  0
   34.6713  -30.0584  -23.7419 C   0  0  0  0  0  0  0  0  0  0  0  0
   33.2540  -29.9491  -23.2686 C   0  0  0  0  0  0  0  0  0  0  0  0
   33.1134  -29.9289  -21.7575 C   0  0  2  0  0  0  0  0  0  0  0  0
   33.5165  -31.3518  -21.3383 C   0  0  0  0  0  0  0  0  0  0  0  0
   31.6835  -29.6974  -21.3315 C   0  0  2  0  0  0  0  0  0  0  0  0
   31.2692  -28.3347  -21.6620 N   0  0  0  0  0  0  0  0  0  0  0  0
   31.5608  -29.9110  -19.8772 C   0  0  0  0  0  0  0  0  0  0  0  0
   32.1687  -29.0912  -19.0881 O   0  0  0  0  0  0  0  0  0  0  0  0
   27.3128  -32.4284  -17.2276 C   0  0  0  0  0  0  0  0  0  0  0  0
   28.3759  -31.4430  -17.5765 C   0  0  1  0  0  0  0  0  0  0  0  0
   28.1221  -30.1018  -16.8815 C   0  0  0  0  0  0  0  0  0  0  0  0
   29.7460  -31.9166  -17.4163 C   0  0  0  0  0  0  0  0  0  0  0  0
   30.9323  -31.0824  -17.7199 C   0  0  2  0  0  0  0  0  0  0  0  0
   30.8380  -30.9222  -19.2267 N   0  0  0  0  0  0  0  0  0  0  0  0
   32.2102  -31.7615  -17.4548 C   0  0  0  0  0  0  0  0  0  0  0  0
   32.6816  -32.6182  -18.3034 O   0  0  0  0  0  0  0  0  0  0  0  0
   33.0282  -31.5913  -16.3594 O   0  0  0  0  0  0  0  0  0  0  0  0
  2  1  1  1
  2  3  1  0
  3  4  1  0
  4  8  1  0
  4  5  2  0
  6  7  2  0
  6  2  1  0
  9 10  1  0
 11 10  1  0
 11 13  1  0
 11 12  1  6
 13 14  1  1
 14  6  1  0
 15 13  1  0
 15 16  2  0
 18 17  1  1
 19 18  1  0
 20 18  1  0
 21 22  1  0
 21 20  1  6
 22 15  1  0
 23 21  1  0
 24 23  2  0
 25 23  1  0
M  END
$$$$
