DIL.pdb
     RDKit          3D

 25 24  0  0  1  0  0  0  0  0999 V2000
   19.2615  -23.5684  -14.4143 N   0  0  0  0  0  0  0  0  0  0  0  0
   18.5501  -23.0589  -13.2841 C   0  0  1  0  0  0  0  0  0  0  0  0
   17.1370  -23.6209  -13.3112 C   0  0  0  0  0  0  0  0  0  0  0  0
   16.3858  -22.8318  -14.3171 C   0  0  0  0  0  0  0  0  0  0  0  0
   16.1692  -23.3202  -15.4697 O   0  0  0  0  0  0  0  0  0  0  0  0
   19.2299  -23.4818  -11.9909 C   0  0  0  0  0  0  0  0  0  0  0  0
   20.2027  -24.2445  -12.0668 O   0  0  0  0  0  0  0  0  0  0  0  0
   15.8922  -21.5677  -14.0794 O   0  0  0  0  0  0  0  0  0  0  0  0
   21.2117  -19.7554   -9.3477 C   0  0  0  0  0  0  0  0  0  0  0  0
   20.8670  -21.1439   -9.7926 C   0  0  0  0  0  0  0  0  0  0  0  0
   19.8316  -21.8272   -8.9181 C   0  0  2  0  0  0  0  0  0  0  0  0
   20.5720  -22.0512   -7.5898 C   0  0  0  0  0  0  0  0  0  0  0  0
   19.4336  -23.1747   -9.4708 C   0  0  2  0  0  0  0  0  0  0  0  0
   18.7612  -23.0167  -10.7596 N   0  0  0  0  0  0  0  0  0  0  0  0
   18.5284  -23.8498   -8.5220 C   0  0  0  0  0  0  0  0  0  0  0  0
   17.3630  -23.3346   -8.3208 O   0  0  0  0  0  0  0  0  0  0  0  0
   15.7622  -28.0645   -6.5817 C   0  0  0  0  0  0  0  0  0  0  0  0
   17.1908  -27.9998   -6.1599 C   0  0  1  0  0  0  0  0  0  0  0  0
   17.8147  -29.3986   -6.1395 C   0  0  0  0  0  0  0  0  0  0  0  0
   18.0093  -27.0219   -6.8679 C   0  0  0  0  0  0  0  0  0  0  0  0
   17.7459  -25.5643   -6.8281 C   0  0  2  0  0  0  0  0  0  0  0  0
   18.7838  -25.0217   -7.7941 N   0  0  0  0  0  0  0  0  0  0  0  0
   18.0351  -24.9515   -5.5222 C   0  0  0  0  0  0  0  0  0  0  0  0
   17.0790  -24.7395   -4.6755 O   0  0  0  0  0  0  0  0  0  0  0  0
   19.2659  -24.5555   -5.0464 O   0  0  0  0  0  0  0  0  0  0  0  0
  2  1  1  6
  2  3  1  0
  3  4  1  0
  4  8  1  0
  4  5  2  0
  6  7  2  0
  6  2  1  0
  9 10  1  0
 11 10  1  0
 11 13  1  0
 11 12  1  1
 13 14  1  6
 14  6  1  0
 15 13  1  0
 15 16  2  0
 18 17  1  6
 19 18  1  0
 20 18  1  0
 21 22  1  0
 21 20  1  1
 22 15  1  0
 23 21  1  0
 24 23  2  0
 25 23  1  0
M  END
$$$$
