DIL.pdb
     RDKit          3D

 25 24  0  0  1  0  0  0  0  0999 V2000
   25.7141  -24.6228  -17.1559 N   0  0  0  0  0  0  0  0  0  0  0  0
   25.0924  -24.1915  -15.9433 C   0  0  1  0  0  0  0  0  0  0  0  0
   24.7319  -25.4208  -15.1233 C   0  0  0  0  0  0  0  0  0  0  0  0
   23.4888  -25.9743  -15.7124 C   0  0  0  0  0  0  0  0  0  0  0  0
   22.9474  -25.3946  -16.7046 O   0  0  0  0  0  0  0  0  0  0  0  0
   26.0415  -23.3166  -15.1391 C   0  0  0  0  0  0  0  0  0  0  0  0
   27.2166  -23.6889  -15.0195 O   0  0  0  0  0  0  0  0  0  0  0  0
   22.8627  -27.1082  -15.2426 O   0  0  0  0  0  0  0  0  0  0  0  0
   27.0343  -17.3952  -14.2037 C   0  0  0  0  0  0  0  0  0  0  0  0
   27.0991  -18.7766  -13.6274 C   0  0  0  0  0  0  0  0  0  0  0  0
   26.2225  -19.7829  -14.3503 C   0  0  2  0  0  0  0  0  0  0  0  0
   24.7942  -19.3196  -14.0214 C   0  0  0  0  0  0  0  0  0  0  0  0
   26.4047  -21.1785  -13.8037 C   0  0  2  0  0  0  0  0  0  0  0  0
   25.5889  -22.1297  -14.5570 N   0  0  0  0  0  0  0  0  0  0  0  0
   26.0103  -21.2077  -12.3828 C   0  0  0  0  0  0  0  0  0  0  0  0
   24.7648  -21.3899  -12.1003 O   0  0  0  0  0  0  0  0  0  0  0  0
   28.5708  -19.8731   -6.9617 C   0  0  0  0  0  0  0  0  0  0  0  0
   27.3282  -20.3863   -7.6064 C   0  0  1  0  0  0  0  0  0  0  0  0
   26.1119  -19.5614   -7.1745 C   0  0  0  0  0  0  0  0  0  0  0  0
   27.4039  -20.5749   -9.0508 C   0  0  0  0  0  0  0  0  0  0  0  0
   26.2634  -21.0546   -9.8660 C   0  0  2  0  0  0  0  0  0  0  0  0
   26.8484  -21.0636  -11.2670 N   0  0  0  0  0  0  0  0  0  0  0  0
   25.1295  -20.1177   -9.8968 C   0  0  0  0  0  0  0  0  0  0  0  0
   25.2552  -18.9603  -10.4632 O   0  0  0  0  0  0  0  0  0  0  0  0
   23.8698  -20.3231   -9.3781 O   0  0  0  0  0  0  0  0  0  0  0  0
  2  1  1  6
  2  3  1  0
  3  4  1  0
  4  8  1  0
  4  5  2  0
  6  7  2  0
  6  2  1  0
  9 10  1  0
 11 10  1  0
 11 13  1  0
 11 12  1  1
 13 14  1  6
 14  6  1  0
 15 13  1  0
 15 16  2  0
 18 17  1  6
 19 18  1  0
 20 18  1  0
 21 22  1  0
 21 20  1  1
 22 15  1  0
 23 21  1  0
 24 23  2  0
 25 23  1  0
M  END
$$$$
