DIL.pdb
     RDKit          3D

 25 24  0  0  1  0  0  0  0  0999 V2000
   13.5365  -13.7808    8.7178 N   0  0  0  0  0  0  0  0  0  0  0  0
   14.9375  -14.0421    8.8265 C   0  0  1  0  0  0  0  0  0  0  0  0
   15.1544  -15.0464    9.9482 C   0  0  0  0  0  0  0  0  0  0  0  0
   15.4821  -14.2616   11.1629 C   0  0  0  0  0  0  0  0  0  0  0  0
   16.3284  -13.3166   11.0951 O   0  0  0  0  0  0  0  0  0  0  0  0
   15.4743  -14.6225    7.5272 C   0  0  0  0  0  0  0  0  0  0  0  0
   14.7140  -15.3214    6.8436 O   0  0  0  0  0  0  0  0  0  0  0  0
   14.9141  -14.4947   12.3963 O   0  0  0  0  0  0  0  0  0  0  0  0
   18.8506  -11.4860    4.7150 C   0  0  0  0  0  0  0  0  0  0  0  0
   17.8480  -12.5271    5.1092 C   0  0  0  0  0  0  0  0  0  0  0  0
   18.4611  -13.8805    5.4194 C   0  0  2  0  0  0  0  0  0  0  0  0
   18.9779  -14.3641    4.0549 C   0  0  0  0  0  0  0  0  0  0  0  0
   17.4262  -14.8647    5.9091 C   0  0  2  0  0  0  0  0  0  0  0  0
   16.7887  -14.3675    7.1274 N   0  0  0  0  0  0  0  0  0  0  0  0
   18.0705  -16.1626    6.1843 C   0  0  0  0  0  0  0  0  0  0  0  0
   18.4131  -16.8972    5.1807 O   0  0  0  0  0  0  0  0  0  0  0  0
   22.1073  -16.0373    8.9920 C   0  0  0  0  0  0  0  0  0  0  0  0
   21.4411  -16.8877    7.9644 C   0  0  1  0  0  0  0  0  0  0  0  0
   22.4651  -17.7672    7.2405 C   0  0  0  0  0  0  0  0  0  0  0  0
   20.2768  -17.6340    8.4280 C   0  0  0  0  0  0  0  0  0  0  0  0
   19.1501  -18.0099    7.5421 C   0  0  2  0  0  0  0  0  0  0  0  0
   18.3713  -16.7106    7.4403 N   0  0  0  0  0  0  0  0  0  0  0  0
   18.2361  -18.9947    8.1415 C   0  0  0  0  0  0  0  0  0  0  0  0
   17.2081  -18.6001    8.8224 O   0  0  0  0  0  0  0  0  0  0  0  0
   18.3290  -20.3670    8.0637 O   0  0  0  0  0  0  0  0  0  0  0  0
  2  1  1  6
  2  3  1  0
  3  4  1  0
  4  8  1  0
  4  5  2  0
  6  7  2  0
  6  2  1  0
  9 10  1  0
 11 10  1  0
 11 13  1  0
 11 12  1  6
 13 14  1  1
 14  6  1  0
 15 13  1  0
 15 16  2  0
 18 17  1  1
 19 18  1  0
 20 18  1  0
 21 22  1  0
 21 20  1  1
 22 15  1  0
 23 21  1  0
 24 23  2  0
 25 23  1  0
M  END
$$$$
