DIL.pdb
     RDKit          3D

 25 24  0  0  1  0  0  0  0  0999 V2000
   22.0458  -19.6627  -18.4301 N   0  0  0  0  0  0  0  0  0  0  0  0
   22.7180  -18.8270  -17.4852 C   0  0  1  0  0  0  0  0  0  0  0  0
   21.6987  -18.3288  -16.4722 C   0  0  0  0  0  0  0  0  0  0  0  0
   20.8341  -17.3563  -17.1834 C   0  0  0  0  0  0  0  0  0  0  0  0
   21.3056  -16.6817  -18.1510 O   0  0  0  0  0  0  0  0  0  0  0  0
   23.8020  -19.6082  -16.7585 C   0  0  0  0  0  0  0  0  0  0  0  0
   23.6882  -20.8397  -16.6939 O   0  0  0  0  0  0  0  0  0  0  0  0
   19.5153  -17.1282  -16.8561 O   0  0  0  0  0  0  0  0  0  0  0  0
   29.0761  -18.2238  -17.2263 C   0  0  0  0  0  0  0  0  0  0  0  0
   27.8237  -19.0062  -16.9733 C   0  0  0  0  0  0  0  0  0  0  0  0
   27.2496  -18.8090  -15.5823 C   0  0  2  0  0  0  0  0  0  0  0  0
   28.3084  -19.4375  -14.6621 C   0  0  0  0  0  0  0  0  0  0  0  0
   25.9551  -19.5643  -15.3988 C   0  0  2  0  0  0  0  0  0  0  0  0
   24.8894  -18.9443  -16.1849 N   0  0  0  0  0  0  0  0  0  0  0  0
   25.5803  -19.5626  -13.9723 C   0  0  0  0  0  0  0  0  0  0  0  0
   25.1994  -18.4489  -13.4442 O   0  0  0  0  0  0  0  0  0  0  0  0
   22.3962  -19.4542  -10.0938 C   0  0  0  0  0  0  0  0  0  0  0  0
   22.4815  -20.6478  -10.9831 C   0  0  1  0  0  0  0  0  0  0  0  0
   21.1002  -21.0136  -11.5349 C   0  0  0  0  0  0  0  0  0  0  0  0
   23.5091  -20.5870  -12.0163 C   0  0  0  0  0  0  0  0  0  0  0  0
   24.9588  -20.5317  -11.7149 C   0  0  2  0  0  0  0  0  0  0  0  0
   25.5810  -20.6566  -13.0941 N   0  0  0  0  0  0  0  0  0  0  0  0
   25.4405  -21.6840  -10.9373 C   0  0  0  0  0  0  0  0  0  0  0  0
   25.3787  -21.6696   -9.6442 O   0  0  0  0  0  0  0  0  0  0  0  0
   25.9748  -22.8534  -11.4323 O   0  0  0  0  0  0  0  0  0  0  0  0
  2  1  1  6
  2  3  1  0
  3  4  1  0
  4  8  1  0
  4  5  2  0
  6  7  2  0
  6  2  1  0
  9 10  1  0
 11 10  1  0
 11 13  1  0
 11 12  1  1
 13 14  1  6
 14  6  1  0
 15 13  1  0
 15 16  2  0
 18 17  1  6
 19 18  1  0
 20 18  1  0
 21 22  1  0
 21 20  1  6
 22 15  1  0
 23 21  1  0
 24 23  2  0
 25 23  1  0
M  END
$$$$
