DIL.pdb
     RDKit          3D

 25 24  0  0  1  0  0  0  0  0999 V2000
   33.3019  -31.4772  -16.5637 N   0  0  0  0  0  0  0  0  0  0  0  0
   32.1720  -32.1557  -17.1169 C   0  0  1  0  0  0  0  0  0  0  0  0
   32.4432  -33.6518  -17.0803 C   0  0  0  0  0  0  0  0  0  0  0  0
   32.3434  -34.1355  -18.4785 C   0  0  0  0  0  0  0  0  0  0  0  0
   32.0994  -33.3130  -19.4154 O   0  0  0  0  0  0  0  0  0  0  0  0
   30.9204  -31.8561  -16.3062 C   0  0  0  0  0  0  0  0  0  0  0  0
   30.9973  -31.9189  -15.0718 O   0  0  0  0  0  0  0  0  0  0  0  0
   32.5020  -35.4552  -18.8410 O   0  0  0  0  0  0  0  0  0  0  0  0
   28.0307  -27.5404  -17.4078 C   0  0  0  0  0  0  0  0  0  0  0  0
   28.5751  -28.7331  -16.6828 C   0  0  0  0  0  0  0  0  0  0  0  0
   27.8062  -30.0143  -16.9488 C   0  0  2  0  0  0  0  0  0  0  0  0
   26.4497  -29.7693  -16.2686 C   0  0  0  0  0  0  0  0  0  0  0  0
   28.4581  -31.2056  -16.2888 C   0  0  2  0  0  0  0  0  0  0  0  0
   29.7249  -31.5211  -16.9472 N   0  0  0  0  0  0  0  0  0  0  0  0
   27.5566  -32.3700  -16.3705 C   0  0  0  0  0  0  0  0  0  0  0  0
   27.2493  -32.8213  -17.5393 O   0  0  0  0  0  0  0  0  0  0  0  0
   28.3263  -37.1870  -14.5428 C   0  0  0  0  0  0  0  0  0  0  0  0
   27.8628  -36.0264  -15.3559 C   0  0  1  0  0  0  0  0  0  0  0  0
   27.7532  -36.4089  -16.8350 C   0  0  0  0  0  0  0  0  0  0  0  0
   26.6744  -35.3452  -14.8547 C   0  0  0  0  0  0  0  0  0  0  0  0
   26.0235  -34.2213  -15.5679 C   0  0  2  0  0  0  0  0  0  0  0  0
   26.9796  -33.0723  -15.3018 N   0  0  0  0  0  0  0  0  0  0  0  0
   24.7308  -33.8276  -14.9862 C   0  0  0  0  0  0  0  0  0  0  0  0
   23.6581  -34.4946  -15.2699 O   0  0  0  0  0  0  0  0  0  0  0  0
   24.4953  -32.7834  -14.1189 O   0  0  0  0  0  0  0  0  0  0  0  0
  2  1  1  1
  2  3  1  0
  3  4  1  0
  4  8  1  0
  4  5  2  0
  6  7  2  0
  6  2  1  0
  9 10  1  0
 11 10  1  0
 11 13  1  0
 11 12  1  1
 13 14  1  6
 14  6  1  0
 15 13  1  0
 15 16  2  0
 18 17  1  1
 19 18  1  0
 20 18  1  0
 21 22  1  0
 21 20  1  1
 22 15  1  0
 23 21  1  0
 24 23  2  0
 25 23  1  0
M  END
$$$$
