DIL.pdb
     RDKit          3D

 25 24  0  0  1  0  0  0  0  0999 V2000
   22.5919  -19.9498  -18.0116 N   0  0  0  0  0  0  0  0  0  0  0  0
   22.9738  -19.5466  -16.6946 C   0  0  1  0  0  0  0  0  0  0  0  0
   21.7854  -19.7457  -15.7664 C   0  0  0  0  0  0  0  0  0  0  0  0
   20.7515  -18.7687  -16.1853 C   0  0  0  0  0  0  0  0  0  0  0  0
   21.0991  -17.6164  -16.5917 O   0  0  0  0  0  0  0  0  0  0  0  0
   24.1407  -20.3858  -16.1972 C   0  0  0  0  0  0  0  0  0  0  0  0
   24.0249  -21.6185  -16.2247 O   0  0  0  0  0  0  0  0  0  0  0  0
   19.3996  -19.0339  -16.1629 O   0  0  0  0  0  0  0  0  0  0  0  0
   29.1245  -17.9299  -16.1778 C   0  0  0  0  0  0  0  0  0  0  0  0
   28.1164  -19.0344  -16.2710 C   0  0  0  0  0  0  0  0  0  0  0  0
   27.5922  -19.4993  -14.9247 C   0  0  2  0  0  0  0  0  0  0  0  0
   28.7736  -20.2806  -14.3273 C   0  0  0  0  0  0  0  0  0  0  0  0
   26.4262  -20.4467  -15.0750 C   0  0  2  0  0  0  0  0  0  0  0  0
   25.3040  -19.7720  -15.7255 N   0  0  0  0  0  0  0  0  0  0  0  0
   26.0077  -20.9295  -13.7456 C   0  0  0  0  0  0  0  0  0  0  0  0
   26.4360  -22.0815  -13.3536 O   0  0  0  0  0  0  0  0  0  0  0  0
   26.2164  -21.7032   -8.6438 C   0  0  0  0  0  0  0  0  0  0  0  0
   25.7004  -20.3844   -9.1104 C   0  0  1  0  0  0  0  0  0  0  0  0
   26.3547  -19.2391   -8.3316 C   0  0  0  0  0  0  0  0  0  0  0  0
   25.7245  -20.1777  -10.5540 C   0  0  0  0  0  0  0  0  0  0  0  0
   24.8474  -20.9157  -11.4928 C   0  0  2  0  0  0  0  0  0  0  0  0
   25.1816  -20.2680  -12.8247 N   0  0  0  0  0  0  0  0  0  0  0  0
   23.4134  -20.6785  -11.2652 C   0  0  0  0  0  0  0  0  0  0  0  0
   22.8343  -19.6414  -11.7802 O   0  0  0  0  0  0  0  0  0  0  0  0
   22.5477  -21.4661  -10.5383 O   0  0  0  0  0  0  0  0  0  0  0  0
  2  1  1  6
  2  3  1  0
  3  4  1  0
  4  8  1  0
  4  5  2  0
  6  7  2  0
  6  2  1  0
  9 10  1  0
 11 10  1  0
 11 13  1  0
 11 12  1  6
 13 14  1  1
 14  6  1  0
 15 13  1  0
 15 16  2  0
 18 17  1  6
 19 18  1  0
 20 18  1  0
 21 22  1  0
 21 20  1  1
 22 15  1  0
 23 21  1  0
 24 23  2  0
 25 23  1  0
M  END
$$$$
