DIL.pdb
     RDKit          3D

 25 24  0  0  1  0  0  0  0  0999 V2000
   22.9050  -25.2629  -15.9835 N   0  0  0  0  0  0  0  0  0  0  0  0
   23.0311  -23.8415  -16.0661 C   0  0  1  0  0  0  0  0  0  0  0  0
   21.7947  -23.2114  -15.4434 C   0  0  0  0  0  0  0  0  0  0  0  0
   20.6420  -23.6200  -16.2820 C   0  0  0  0  0  0  0  0  0  0  0  0
   20.6797  -23.4392  -17.5388 O   0  0  0  0  0  0  0  0  0  0  0  0
   24.2645  -23.3706  -15.3111 C   0  0  0  0  0  0  0  0  0  0  0  0
   24.6337  -24.0300  -14.3300 O   0  0  0  0  0  0  0  0  0  0  0  0
   19.4994  -24.1997  -15.7754 O   0  0  0  0  0  0  0  0  0  0  0  0
   28.4526  -23.2204  -15.9740 C   0  0  0  0  0  0  0  0  0  0  0  0
   27.7705  -22.2129  -16.8483 C   0  0  0  0  0  0  0  0  0  0  0  0
   27.0862  -21.0983  -16.0784 C   0  0  2  0  0  0  0  0  0  0  0  0
   28.2413  -20.4145  -15.3296 C   0  0  0  0  0  0  0  0  0  0  0  0
   26.1143  -21.6384  -15.0570 C   0  0  2  0  0  0  0  0  0  0  0  0
   24.9523  -22.2259  -15.7222 N   0  0  0  0  0  0  0  0  0  0  0  0
   25.6739  -20.5465  -14.1686 C   0  0  0  0  0  0  0  0  0  0  0  0
   24.9002  -19.6378  -14.6583 O   0  0  0  0  0  0  0  0  0  0  0  0
   25.7949  -20.9037   -8.5823 C   0  0  0  0  0  0  0  0  0  0  0  0
   25.2270  -20.6363   -9.9347 C   0  0  1  0  0  0  0  0  0  0  0  0
   23.6976  -20.5733   -9.8785 C   0  0  0  0  0  0  0  0  0  0  0  0
   25.8170  -19.5106  -10.6504 C   0  0  0  0  0  0  0  0  0  0  0  0
   25.4718  -19.1701  -12.0505 C   0  0  2  0  0  0  0  0  0  0  0  0
   25.9973  -20.3722  -12.8147 N   0  0  0  0  0  0  0  0  0  0  0  0
   26.2002  -18.0007  -12.5664 C   0  0  0  0  0  0  0  0  0  0  0  0
   27.4274  -18.1192  -12.9614 O   0  0  0  0  0  0  0  0  0  0  0  0
   25.7185  -16.7170  -12.7016 O   0  0  0  0  0  0  0  0  0  0  0  0
  2  1  1  1
  2  3  1  0
  3  4  1  0
  4  8  1  0
  4  5  2  0
  6  7  2  0
  6  2  1  0
  9 10  1  0
 11 10  1  0
 11 13  1  0
 11 12  1  1
 13 14  1  6
 14  6  1  0
 15 13  1  0
 15 16  2  0
 18 17  1  1
 19 18  1  0
 20 18  1  0
 21 22  1  0
 21 20  1  1
 22 15  1  0
 23 21  1  0
 24 23  2  0
 25 23  1  0
M  END
$$$$
