DIL.pdb
     RDKit          3D

 25 24  0  0  1  0  0  0  0  0999 V2000
   27.2322  -20.7974  -18.6443 N   0  0  0  0  0  0  0  0  0  0  0  0
   27.0944  -19.9405  -17.5087 C   0  0  1  0  0  0  0  0  0  0  0  0
   25.7733  -19.1956  -17.6250 C   0  0  0  0  0  0  0  0  0  0  0  0
   26.0157  -18.0393  -18.5211 C   0  0  0  0  0  0  0  0  0  0  0  0
   27.0127  -18.0483  -19.3083 O   0  0  0  0  0  0  0  0  0  0  0  0
   27.0965  -20.7537  -16.2234 C   0  0  0  0  0  0  0  0  0  0  0  0
   26.5727  -21.8757  -16.2434 O   0  0  0  0  0  0  0  0  0  0  0  0
   25.2090  -16.9229  -18.5589 O   0  0  0  0  0  0  0  0  0  0  0  0
   30.5190  -21.0223  -11.0705 C   0  0  0  0  0  0  0  0  0  0  0  0
   29.1933  -21.2360  -11.7347 C   0  0  0  0  0  0  0  0  0  0  0  0
   29.1233  -20.6922  -13.1500 C   0  0  2  0  0  0  0  0  0  0  0  0
   29.3156  -19.1784  -12.9651 C   0  0  0  0  0  0  0  0  0  0  0  0
   27.7675  -20.9243  -13.7724 C   0  0  2  0  0  0  0  0  0  0  0  0
   27.6758  -20.2389  -15.0607 N   0  0  0  0  0  0  0  0  0  0  0  0
   26.7165  -20.4191  -12.8693 C   0  0  0  0  0  0  0  0  0  0  0  0
   26.5282  -19.1443  -12.8073 O   0  0  0  0  0  0  0  0  0  0  0  0
   21.9018  -19.1207  -11.6210 C   0  0  0  0  0  0  0  0  0  0  0  0
   22.1905  -20.5829  -11.5794 C   0  0  1  0  0  0  0  0  0  0  0  0
   21.1049  -21.3719  -12.3178 C   0  0  0  0  0  0  0  0  0  0  0  0
   23.5410  -20.9662  -11.9751 C   0  0  0  0  0  0  0  0  0  0  0  0
   24.7559  -20.5006  -11.2660 C   0  0  2  0  0  0  0  0  0  0  0  0
   25.8668  -21.1767  -12.0494 N   0  0  0  0  0  0  0  0  0  0  0  0
   24.8579  -21.0015   -9.8865 C   0  0  0  0  0  0  0  0  0  0  0  0
   25.4040  -22.1512   -9.6490 O   0  0  0  0  0  0  0  0  0  0  0  0
   24.4307  -20.3677   -8.7403 O   0  0  0  0  0  0  0  0  0  0  0  0
  2  1  1  6
  2  3  1  0
  3  4  1  0
  4  8  1  0
  4  5  2  0
  6  7  2  0
  6  2  1  0
  9 10  1  0
 11 10  1  0
 11 13  1  0
 11 12  1  1
 13 14  1  6
 14  6  1  0
 15 13  1  0
 15 16  2  0
 18 17  1  6
 19 18  1  0
 20 18  1  0
 21 22  1  0
 21 20  1  6
 22 15  1  0
 23 21  1  0
 24 23  2  0
 25 23  1  0
M  END
$$$$
