DIL.pdb
     RDKit          3D

 25 24  0  0  1  0  0  0  0  0999 V2000
   23.5119  -18.4647  -17.8575 N   0  0  0  0  0  0  0  0  0  0  0  0
   22.7935  -18.7704  -16.6603 C   0  0  1  0  0  0  0  0  0  0  0  0
   21.4820  -19.4390  -17.0431 C   0  0  0  0  0  0  0  0  0  0  0  0
   20.6339  -18.3890  -17.6572 C   0  0  0  0  0  0  0  0  0  0  0  0
   19.8061  -18.6992  -18.5694 O   0  0  0  0  0  0  0  0  0  0  0  0
   23.5978  -19.7169  -15.7825 C   0  0  0  0  0  0  0  0  0  0  0  0
   23.0581  -20.7685  -15.4129 O   0  0  0  0  0  0  0  0  0  0  0  0
   20.6844  -17.0607  -17.2946 O   0  0  0  0  0  0  0  0  0  0  0  0
   29.1646  -19.7751  -16.2757 C   0  0  0  0  0  0  0  0  0  0  0  0
   27.7330  -20.1575  -16.0548 C   0  0  0  0  0  0  0  0  0  0  0  0
   27.2036  -19.7800  -14.6833 C   0  0  2  0  0  0  0  0  0  0  0  0
   28.0526  -20.6278  -13.7225 C   0  0  0  0  0  0  0  0  0  0  0  0
   25.7571  -20.1778  -14.5129 C   0  0  2  0  0  0  0  0  0  0  0  0
   24.9065  -19.3980  -15.4109 N   0  0  0  0  0  0  0  0  0  0  0  0
   25.3425  -19.9462  -13.1165 C   0  0  0  0  0  0  0  0  0  0  0  0
   25.4749  -18.7583  -12.6311 O   0  0  0  0  0  0  0  0  0  0  0  0
   20.7053  -21.3182  -11.2945 C   0  0  0  0  0  0  0  0  0  0  0  0
   21.9647  -20.5333  -11.4392 C   0  0  1  0  0  0  0  0  0  0  0  0
   21.6933  -19.0353  -11.2703 C   0  0  0  0  0  0  0  0  0  0  0  0
   23.0901  -21.0016  -10.6383 C   0  0  0  0  0  0  0  0  0  0  0  0
   24.4695  -20.4851  -10.7994 C   0  0  2  0  0  0  0  0  0  0  0  0
   24.8000  -20.8850  -12.2262 N   0  0  0  0  0  0  0  0  0  0  0  0
   25.4534  -21.1628   -9.9409 C   0  0  0  0  0  0  0  0  0  0  0  0
   26.1401  -22.1606  -10.3982 O   0  0  0  0  0  0  0  0  0  0  0  0
   25.7677  -20.8533   -8.6357 O   0  0  0  0  0  0  0  0  0  0  0  0
  2  1  1  6
  2  3  1  0
  3  4  1  0
  4  8  1  0
  4  5  2  0
  6  7  2  0
  6  2  1  0
  9 10  1  0
 11 10  1  0
 11 13  1  0
 11 12  1  1
 13 14  1  6
 14  6  1  0
 15 13  1  0
 15 16  2  0
 18 17  1  1
 19 18  1  0
 20 18  1  0
 21 22  1  0
 21 20  1  1
 22 15  1  0
 23 21  1  0
 24 23  2  0
 25 23  1  0
M  END
$$$$
