DIL.pdb
     RDKit          3D

 25 24  0  0  1  0  0  0  0  0999 V2000
   28.4854  -21.7364  -15.6838 N   0  0  0  0  0  0  0  0  0  0  0  0
   27.5974  -20.7032  -15.2517 C   0  0  1  0  0  0  0  0  0  0  0  0
   26.9810  -20.0527  -16.4808 C   0  0  0  0  0  0  0  0  0  0  0  0
   28.0963  -19.4358  -17.2386 C   0  0  0  0  0  0  0  0  0  0  0  0
   28.8804  -18.6221  -16.6582 O   0  0  0  0  0  0  0  0  0  0  0  0
   26.4891  -21.2804  -14.3846 C   0  0  0  0  0  0  0  0  0  0  0  0
   26.0711  -22.4149  -14.6527 O   0  0  0  0  0  0  0  0  0  0  0  0
   28.3471  -19.6929  -18.5688 O   0  0  0  0  0  0  0  0  0  0  0  0
   27.0004  -20.8904   -9.1388 C   0  0  0  0  0  0  0  0  0  0  0  0
   26.5219  -21.3426  -10.4846 C   0  0  0  0  0  0  0  0  0  0  0  0
   25.2907  -20.6038  -10.9762 C   0  0  2  0  0  0  0  0  0  0  0  0
   24.1751  -21.0993  -10.0420 C   0  0  0  0  0  0  0  0  0  0  0  0
   24.9316  -20.9933  -12.3901 C   0  0  2  0  0  0  0  0  0  0  0  0
   25.9661  -20.5423  -13.3197 N   0  0  0  0  0  0  0  0  0  0  0  0
   23.6395  -20.3840  -12.7570 C   0  0  0  0  0  0  0  0  0  0  0  0
   23.5088  -19.1075  -12.6244 O   0  0  0  0  0  0  0  0  0  0  0  0
   20.6168  -21.9120  -17.0110 C   0  0  0  0  0  0  0  0  0  0  0  0
   21.3069  -21.0638  -15.9974 C   0  0  1  0  0  0  0  0  0  0  0  0
   21.6282  -19.6817  -16.5740 C   0  0  0  0  0  0  0  0  0  0  0  0
   20.6617  -20.9993  -14.6909 C   0  0  0  0  0  0  0  0  0  0  0  0
   21.2329  -20.2599  -13.5409 C   0  0  2  0  0  0  0  0  0  0  0  0
   22.5030  -21.0402  -13.2532 N   0  0  0  0  0  0  0  0  0  0  0  0
   20.4110  -20.3431  -12.3235 C   0  0  0  0  0  0  0  0  0  0  0  0
   20.5023  -21.3731  -11.5444 O   0  0  0  0  0  0  0  0  0  0  0  0
   19.5061  -19.4093  -11.8684 O   0  0  0  0  0  0  0  0  0  0  0  0
  2  1  1  6
  2  3  1  0
  3  4  1  0
  4  8  1  0
  4  5  2  0
  6  7  2  0
  6  2  1  0
  9 10  1  0
 11 10  1  0
 11 13  1  0
 11 12  1  1
 13 14  1  6
 14  6  1  0
 15 13  1  0
 15 16  2  0
 18 17  1  6
 19 18  1  0
 20 18  1  0
 21 22  1  0
 21 20  1  6
 22 15  1  0
 23 21  1  0
 24 23  2  0
 25 23  1  0
M  END
$$$$
