DIL.pdb
     RDKit          3D

 25 24  0  0  1  0  0  0  0  0999 V2000
   22.6759  -19.7862  -15.5441 N   0  0  0  0  0  0  0  0  0  0  0  0
   22.8813  -19.7846  -14.1296 C   0  0  1  0  0  0  0  0  0  0  0  0
   21.6310  -20.3351  -13.4608 C   0  0  0  0  0  0  0  0  0  0  0  0
   20.5310  -19.3919  -13.7758 C   0  0  0  0  0  0  0  0  0  0  0  0
   19.6096  -19.7412  -14.5774 O   0  0  0  0  0  0  0  0  0  0  0  0
   24.0696  -20.6598  -13.7621 C   0  0  0  0  0  0  0  0  0  0  0  0
   23.9595  -21.8842  -13.9119 O   0  0  0  0  0  0  0  0  0  0  0  0
   20.4380  -18.1250  -13.2422 O   0  0  0  0  0  0  0  0  0  0  0  0
   29.0825  -18.7865  -14.7923 C   0  0  0  0  0  0  0  0  0  0  0  0
   27.9252  -19.7020  -14.5331 C   0  0  0  0  0  0  0  0  0  0  0  0
   27.6733  -19.9677  -13.0602 C   0  0  2  0  0  0  0  0  0  0  0  0
   28.9004  -20.7850  -12.6256 C   0  0  0  0  0  0  0  0  0  0  0  0
   26.4414  -20.8143  -12.8469 C   0  0  2  0  0  0  0  0  0  0  0  0
   25.2457  -20.0873  -13.2707 N   0  0  0  0  0  0  0  0  0  0  0  0
   26.3247  -21.1655  -11.4192 C   0  0  0  0  0  0  0  0  0  0  0  0
   26.8721  -22.2614  -11.0150 O   0  0  0  0  0  0  0  0  0  0  0  0
   27.6846  -18.5331   -7.0583 C   0  0  0  0  0  0  0  0  0  0  0  0
   27.3753  -19.7160   -7.9116 C   0  0  1  0  0  0  0  0  0  0  0  0
   28.1305  -20.9538   -7.4180 C   0  0  0  0  0  0  0  0  0  0  0  0
   25.9574  -19.9687   -8.1417 C   0  0  0  0  0  0  0  0  0  0  0  0
   25.4602  -21.0366   -9.0406 C   0  0  2  0  0  0  0  0  0  0  0  0
   25.6777  -20.4296  -10.4151 N   0  0  0  0  0  0  0  0  0  0  0  0
   24.0143  -21.2794   -8.9192 C   0  0  0  0  0  0  0  0  0  0  0  0
   23.5362  -21.8535   -7.8619 O   0  0  0  0  0  0  0  0  0  0  0  0
   23.0384  -20.9497   -9.8340 O   0  0  0  0  0  0  0  0  0  0  0  0
  2  1  1  6
  2  3  1  0
  3  4  1  0
  4  8  1  0
  4  5  2  0
  6  7  2  0
  6  2  1  0
  9 10  1  0
 11 10  1  0
 11 13  1  0
 11 12  1  6
 13 14  1  1
 14  6  1  0
 15 13  1  0
 15 16  2  0
 18 17  1  1
 19 18  1  0
 20 18  1  0
 21 22  1  0
 21 20  1  1
 22 15  1  0
 23 21  1  0
 24 23  2  0
 25 23  1  0
M  END
$$$$
