WGL.pdb
     RDKit          3D

 27 28  0  0  1  0  0  0  0  0999 V2000
   26.6005  -22.0452  -10.1269 N   0  0  0  0  0  0  0  0  0  0  0  0
   26.1016  -20.8420   -9.5066 C   0  0  1  0  0  0  0  0  0  0  0  0
   27.2144  -19.8227   -9.3970 C   0  0  0  0  0  0  0  0  0  0  0  0
   28.3073  -20.3763   -8.5596 C   0  0  0  0  0  0  0  0  0  0  0  0
   29.3948  -21.1185   -8.9139 C   0  0  0  0  0  0  0  0  0  0  0  0
   30.1087  -21.3927   -7.8140 N   0  0  0  0  0  0  0  0  0  0  0  0
   29.5139  -20.8455   -6.7367 C   0  0  0  0  0  0  0  0  0  0  0  0
   29.8012  -20.8128   -5.4019 C   0  0  0  0  0  0  0  0  0  0  0  0
   28.9627  -20.1448   -4.5341 C   0  0  0  0  0  0  0  0  0  0  0  0
   27.8304  -19.5006   -4.9690 C   0  0  0  0  0  0  0  0  0  0  0  0
   27.5421  -19.5330   -6.3047 C   0  0  0  0  0  0  0  0  0  0  0  0
   28.3779  -20.2023   -7.1930 C   0  0  0  0  0  0  0  0  0  0  0  0
   24.9914  -20.2771  -10.3183 C   0  0  0  0  0  0  0  0  0  0  0  0
   25.3060  -19.3945  -11.1764 O   0  0  0  0  0  0  0  0  0  0  0  0
   23.6725  -20.7297  -10.1103 N   0  0  0  0  0  0  0  0  0  0  0  0
   22.5802  -20.0482  -10.7429 C   0  0  0  0  0  0  0  0  0  0  0  0
   22.2782  -20.7249  -12.0301 C   0  0  0  0  0  0  0  0  0  0  0  0
   21.3405  -20.2867  -12.7363 O   0  0  0  0  0  0  0  0  0  0  0  0
   25.8880  -23.3294  -15.6538 C   0  0  0  0  0  0  0  0  0  0  0  0
   24.7185  -22.4128  -15.2634 C   0  0  2  0  0  0  0  0  0  0  0  0
   25.3239  -21.1346  -14.7817 C   0  0  0  0  0  0  0  0  0  0  0  0
   23.9287  -23.1655  -14.2500 C   0  0  0  0  0  0  0  0  0  0  0  0
   22.7010  -22.4474  -13.7416 C   0  0  2  0  0  0  0  0  0  0  0  0
   23.0233  -21.8543  -12.4811 N   0  0  0  0  0  0  0  0  0  0  0  0
   21.4948  -23.2669  -13.7274 C   0  0  0  0  0  0  0  0  0  0  0  0
   21.1336  -23.8501  -12.6847 O   0  0  0  0  0  0  0  0  0  0  0  0
   20.7352  -23.4082  -14.8708 O   0  0  0  0  0  0  0  0  0  0  0  0
  2  1  1  6
  3  2  1  0
  3  4  1  0
  4  5  2  0
  5  6  1  0
  7  8  2  0
  7  6  1  0
  9  8  1  0
 10  9  2  0
 11 10  1  0
 11 12  2  0
 12  4  1  0
 12  7  1  0
 13  2  1  0
 13 15  1  0
 14 13  2  0
 16 15  1  0
 17 16  1  0
 18 17  2  0
 20 21  1  1
 20 22  1  0
 20 19  1  0
 23 24  1  0
 23 22  1  1
 24 17  1  0
 25 23  1  0
 26 25  2  0
 27 25  1  0
M  END
$$$$
