WGL.pdb
     RDKit          3D

 27 28  0  0  1  0  0  0  0  0999 V2000
   26.8016  -22.2349  -15.8366 N   0  0  0  0  0  0  0  0  0  0  0  0
   25.9870  -22.4221  -14.6607 C   0  0  1  0  0  0  0  0  0  0  0  0
   25.6970  -21.0826  -14.0197 C   0  0  0  0  0  0  0  0  0  0  0  0
   26.9729  -20.4534  -13.5970 C   0  0  0  0  0  0  0  0  0  0  0  0
   27.7474  -19.5276  -14.2308 C   0  0  0  0  0  0  0  0  0  0  0  0
   28.8124  -19.2567  -13.4647 N   0  0  0  0  0  0  0  0  0  0  0  0
   28.7579  -19.9865  -12.3342 C   0  0  0  0  0  0  0  0  0  0  0  0
   29.5588  -20.1030  -11.2340 C   0  0  0  0  0  0  0  0  0  0  0  0
   29.2095  -20.9672  -10.2174 C   0  0  0  0  0  0  0  0  0  0  0  0
   28.0672  -21.7280  -10.2706 C   0  0  0  0  0  0  0  0  0  0  0  0
   27.2652  -21.6120  -11.3713 C   0  0  0  0  0  0  0  0  0  0  0  0
   27.6035  -20.7448  -12.4052 C   0  0  0  0  0  0  0  0  0  0  0  0
   24.7066  -23.0806  -15.0317 C   0  0  0  0  0  0  0  0  0  0  0  0
   24.1405  -22.6673  -16.0914 O   0  0  0  0  0  0  0  0  0  0  0  0
   24.1867  -24.1073  -14.2173 N   0  0  0  0  0  0  0  0  0  0  0  0
   22.9334  -24.7167  -14.5573 C   0  0  0  0  0  0  0  0  0  0  0  0
   21.8439  -23.9845  -13.8622 C   0  0  0  0  0  0  0  0  0  0  0  0
   20.7851  -24.5962  -13.5887 O   0  0  0  0  0  0  0  0  0  0  0  0
   23.4058  -21.2497  -11.0489 C   0  0  0  0  0  0  0  0  0  0  0  0
   22.8696  -20.5116  -12.2850 C   0  0  2  0  0  0  0  0  0  0  0  0
   23.3636  -19.1051  -12.1867 C   0  0  0  0  0  0  0  0  0  0  0  0
   21.3895  -20.6713  -12.2474 C   0  0  0  0  0  0  0  0  0  0  0  0
   20.8741  -21.9518  -12.8608 C   0  0  2  0  0  0  0  0  0  0  0  0
   21.9703  -22.6109  -13.4999 N   0  0  0  0  0  0  0  0  0  0  0  0
   19.7026  -21.7755  -13.7112 C   0  0  0  0  0  0  0  0  0  0  0  0
   18.5588  -21.7169  -13.2150 O   0  0  0  0  0  0  0  0  0  0  0  0
   19.8447  -21.6711  -15.0798 O   0  0  0  0  0  0  0  0  0  0  0  0
  2  1  1  6
  3  2  1  0
  3  4  1  0
  4  5  2  0
  5  6  1  0
  7  8  2  0
  7  6  1  0
  9  8  1  0
 10  9  2  0
 11 10  1  0
 11 12  2  0
 12  4  1  0
 12  7  1  0
 13  2  1  0
 13 15  1  0
 14 13  2  0
 16 15  1  0
 17 16  1  0
 18 17  2  0
 20 21  1  1
 20 22  1  0
 20 19  1  0
 23 24  1  0
 23 22  1  6
 24 17  1  0
 25 23  1  0
 26 25  2  0
 27 25  1  0
M  END
$$$$
