WGL.pdb
     RDKit          3D

 27 28  0  0  1  0  0  0  0  0999 V2000
   24.9705  -21.0932  -10.1962 N   0  0  0  0  0  0  0  0  0  0  0  0
   26.0619  -20.1502  -10.1648 C   0  0  1  0  0  0  0  0  0  0  0  0
   27.1938  -20.7044   -9.3275 C   0  0  0  0  0  0  0  0  0  0  0  0
   26.7894  -20.7155   -7.8998 C   0  0  0  0  0  0  0  0  0  0  0  0
   25.5984  -21.0513   -7.3274 C   0  0  0  0  0  0  0  0  0  0  0  0
   25.7002  -20.9063   -5.9996 N   0  0  0  0  0  0  0  0  0  0  0  0
   26.9375  -20.4804   -5.6813 C   0  0  0  0  0  0  0  0  0  0  0  0
   27.5705  -20.1777   -4.5096 C   0  0  0  0  0  0  0  0  0  0  0  0
   28.8837  -19.7561   -4.5262 C   0  0  0  0  0  0  0  0  0  0  0  0
   29.5907  -19.6269   -5.6966 C   0  0  0  0  0  0  0  0  0  0  0  0
   28.9579  -19.9296   -6.8696 C   0  0  0  0  0  0  0  0  0  0  0  0
   27.6337  -20.3562   -6.8698 C   0  0  0  0  0  0  0  0  0  0  0  0
   26.5482  -19.8928  -11.5461 C   0  0  0  0  0  0  0  0  0  0  0  0
   26.5321  -20.8784  -12.3477 O   0  0  0  0  0  0  0  0  0  0  0  0
   26.9945  -18.6036  -11.9013 N   0  0  0  0  0  0  0  0  0  0  0  0
   26.0624  -17.6512  -12.4322 C   0  0  0  0  0  0  0  0  0  0  0  0
   26.1038  -17.7201  -13.9153 C   0  0  0  0  0  0  0  0  0  0  0  0
   25.4653  -16.8686  -14.5766 O   0  0  0  0  0  0  0  0  0  0  0  0
   28.0117  -16.4739  -17.2775 C   0  0  0  0  0  0  0  0  0  0  0  0
   28.8623  -17.4694  -16.4739 C   0  0  2  0  0  0  0  0  0  0  0  0
   30.2363  -17.4222  -17.0588 C   0  0  0  0  0  0  0  0  0  0  0  0
   28.1681  -18.7823  -16.5826 C   0  0  0  0  0  0  0  0  0  0  0  0
   26.7633  -18.8047  -16.0280 C   0  0  2  0  0  0  0  0  0  0  0  0
   26.8471  -18.7245  -14.6029 N   0  0  0  0  0  0  0  0  0  0  0  0
   25.9466  -19.9085  -16.5192 C   0  0  0  0  0  0  0  0  0  0  0  0
   25.4621  -20.7433  -15.7277 O   0  0  0  0  0  0  0  0  0  0  0  0
   25.6985  -20.0442  -17.8698 O   0  0  0  0  0  0  0  0  0  0  0  0
  2  1  1  6
  3  2  1  0
  3  4  1  0
  4  5  2  0
  5  6  1  0
  7  8  2  0
  7  6  1  0
  9  8  1  0
 10  9  2  0
 11 10  1  0
 11 12  2  0
 12  4  1  0
 12  7  1  0
 13  2  1  0
 13 15  1  0
 14 13  2  0
 16 15  1  0
 17 16  1  0
 18 17  2  0
 20 21  1  6
 20 22  1  0
 20 19  1  0
 23 24  1  0
 23 22  1  6
 24 17  1  0
 25 23  1  0
 26 25  2  0
 27 25  1  0
M  END
$$$$
