WGL.pdb
     RDKit          3D

 27 28  0  0  1  0  0  0  0  0999 V2000
   24.1738  -20.1713  -15.8267 N   0  0  0  0  0  0  0  0  0  0  0  0
   24.3386  -20.1704  -14.3934 C   0  0  1  0  0  0  0  0  0  0  0  0
   23.1877  -20.9079  -13.7448 C   0  0  0  0  0  0  0  0  0  0  0  0
   21.9375  -20.1307  -13.9326 C   0  0  0  0  0  0  0  0  0  0  0  0
   21.1557  -19.9797  -15.0392 C   0  0  0  0  0  0  0  0  0  0  0  0
   20.1242  -19.1811  -14.7348 N   0  0  0  0  0  0  0  0  0  0  0  0
   20.2082  -18.7998  -13.4459 C   0  0  0  0  0  0  0  0  0  0  0  0
   19.4461  -18.0103  -12.6327 C   0  0  0  0  0  0  0  0  0  0  0  0
   19.8177  -17.8150  -11.3189 C   0  0  0  0  0  0  0  0  0  0  0  0
   20.9445  -18.3943  -10.7886 C   0  0  0  0  0  0  0  0  0  0  0  0
   21.7077  -19.1844  -11.6017 C   0  0  0  0  0  0  0  0  0  0  0  0
   21.3464  -19.3914  -12.9292 C   0  0  0  0  0  0  0  0  0  0  0  0
   25.6187  -20.8341  -14.0308 C   0  0  0  0  0  0  0  0  0  0  0  0
   25.8258  -21.9831  -14.5322 O   0  0  0  0  0  0  0  0  0  0  0  0
   26.5255  -20.1818  -13.1708 N   0  0  0  0  0  0  0  0  0  0  0  0
   27.6525  -20.9008  -12.6504 C   0  0  0  0  0  0  0  0  0  0  0  0
   27.4257  -21.1605  -11.2057 C   0  0  0  0  0  0  0  0  0  0  0  0
   27.6990  -22.2938  -10.7465 O   0  0  0  0  0  0  0  0  0  0  0  0
   27.8614  -18.1897   -6.0915 C   0  0  0  0  0  0  0  0  0  0  0  0
   27.2741  -19.4852   -6.6719 C   0  0  2  0  0  0  0  0  0  0  0  0
   27.9898  -20.6128   -6.0021 C   0  0  0  0  0  0  0  0  0  0  0  0
   27.4637  -19.3963   -8.1462 C   0  0  0  0  0  0  0  0  0  0  0  0
   26.7443  -20.4587   -8.9433 C   0  0  2  0  0  0  0  0  0  0  0  0
   26.9079  -20.1593  -10.3319 N   0  0  0  0  0  0  0  0  0  0  0  0
   25.3609  -20.6746   -8.5357 C   0  0  0  0  0  0  0  0  0  0  0  0
   25.0588  -20.7581   -7.3275 O   0  0  0  0  0  0  0  0  0  0  0  0
   24.3652  -20.7898   -9.4841 O   0  0  0  0  0  0  0  0  0  0  0  0
  2  1  1  6
  3  2  1  0
  3  4  1  0
  4  5  2  0
  5  6  1  0
  7  8  2  0
  7  6  1  0
  9  8  1  0
 10  9  2  0
 11 10  1  0
 11 12  2  0
 12  4  1  0
 12  7  1  0
 13  2  1  0
 13 15  1  0
 14 13  2  0
 16 15  1  0
 17 16  1  0
 18 17  2  0
 20 21  1  1
 20 22  1  0
 20 19  1  0
 23 24  1  0
 23 22  1  1
 24 17  1  0
 25 23  1  0
 26 25  2  0
 27 25  1  0
M  END
$$$$
