WGL.pdb
     RDKit          3D

 27 28  0  0  1  0  0  0  0  0999 V2000
   27.4368  -18.7878   -9.4298 N   0  0  0  0  0  0  0  0  0  0  0  0
   27.1014  -20.1910   -9.4231 C   0  0  1  0  0  0  0  0  0  0  0  0
   26.5604  -20.5820   -8.0653 C   0  0  0  0  0  0  0  0  0  0  0  0
   27.3704  -19.9292   -7.0069 C   0  0  0  0  0  0  0  0  0  0  0  0
   27.3246  -18.6537   -6.5277 C   0  0  0  0  0  0  0  0  0  0  0  0
   28.2511  -18.5176   -5.5698 N   0  0  0  0  0  0  0  0  0  0  0  0
   28.9104  -19.6803   -5.4053 C   0  0  0  0  0  0  0  0  0  0  0  0
   29.9235  -20.0955   -4.5888 C   0  0  0  0  0  0  0  0  0  0  0  0
   30.3853  -21.3925   -4.6710 C   0  0  0  0  0  0  0  0  0  0  0  0
   29.8560  -22.2976   -5.5581 C   0  0  0  0  0  0  0  0  0  0  0  0
   28.8421  -21.8829   -6.3755 C   0  0  0  0  0  0  0  0  0  0  0  0
   28.3650  -20.5779   -6.3049 C   0  0  0  0  0  0  0  0  0  0  0  0
   26.0767  -20.4712  -10.4634 C   0  0  0  0  0  0  0  0  0  0  0  0
   25.4288  -19.4725  -10.9074 O   0  0  0  0  0  0  0  0  0  0  0  0
   25.8706  -21.7947  -10.9032 N   0  0  0  0  0  0  0  0  0  0  0  0
   25.1785  -22.0329  -12.1369 C   0  0  0  0  0  0  0  0  0  0  0  0
   23.7626  -21.6133  -11.9772 C   0  0  0  0  0  0  0  0  0  0  0  0
   23.2454  -21.6576  -10.8368 O   0  0  0  0  0  0  0  0  0  0  0  0
   21.3449  -17.9520  -12.4974 C   0  0  0  0  0  0  0  0  0  0  0  0
   21.8108  -18.5393  -13.8384 C   0  0  2  0  0  0  0  0  0  0  0  0
   21.4148  -17.5571  -14.8922 C   0  0  0  0  0  0  0  0  0  0  0  0
   21.1703  -19.8795  -13.9432 C   0  0  0  0  0  0  0  0  0  0  0  0
   21.5950  -20.8699  -12.8848 C   0  0  2  0  0  0  0  0  0  0  0  0
   22.9804  -21.1637  -13.0818 N   0  0  0  0  0  0  0  0  0  0  0  0
   20.7396  -22.0474  -12.7934 C   0  0  0  0  0  0  0  0  0  0  0  0
   21.1499  -23.1633  -13.1734 O   0  0  0  0  0  0  0  0  0  0  0  0
   19.4616  -21.9421  -12.2839 O   0  0  0  0  0  0  0  0  0  0  0  0
  2  1  1  1
  3  2  1  0
  3  4  1  0
  4  5  2  0
  5  6  1  0
  7  8  2  0
  7  6  1  0
  9  8  1  0
 10  9  2  0
 11 10  1  0
 11 12  2  0
 12  4  1  0
 12  7  1  0
 13  2  1  0
 13 15  1  0
 14 13  2  0
 16 15  1  0
 17 16  1  0
 18 17  2  0
 20 21  1  6
 20 22  1  0
 20 19  1  0
 23 24  1  0
 23 22  1  6
 24 17  1  0
 25 23  1  0
 26 25  2  0
 27 25  1  0
M  END
$$$$
