WGL.pdb
     RDKit          3D

 27 28  0  0  1  0  0  0  0  0999 V2000
   27.2577  -21.3303  -10.7401 N   0  0  0  0  0  0  0  0  0  0  0  0
   26.2204  -20.9110   -9.8291 C   0  0  1  0  0  0  0  0  0  0  0  0
   26.7384  -19.8040   -8.9372 C   0  0  0  0  0  0  0  0  0  0  0  0
   27.9805  -20.2566   -8.2630 C   0  0  0  0  0  0  0  0  0  0  0  0
   29.0783  -20.8832   -8.7739 C   0  0  0  0  0  0  0  0  0  0  0  0
   29.9541  -21.0984   -7.7834 N   0  0  0  0  0  0  0  0  0  0  0  0
   29.4565  -20.6256   -6.6247 C   0  0  0  0  0  0  0  0  0  0  0  0
   29.9128  -20.5803   -5.3382 C   0  0  0  0  0  0  0  0  0  0  0  0
   29.1354  -20.0090   -4.3525 C   0  0  0  0  0  0  0  0  0  0  0  0
   27.8988  -19.4749   -4.6204 C   0  0  0  0  0  0  0  0  0  0  0  0
   27.4414  -19.5199   -5.9076 C   0  0  0  0  0  0  0  0  0  0  0  0
   28.2135  -20.0926   -6.9133 C   0  0  0  0  0  0  0  0  0  0  0  0
   25.0434  -20.4205  -10.5938 C   0  0  0  0  0  0  0  0  0  0  0  0
   25.0915  -19.2186  -11.0031 O   0  0  0  0  0  0  0  0  0  0  0  0
   23.9528  -21.2827  -10.8278 N   0  0  0  0  0  0  0  0  0  0  0  0
   22.6862  -20.7347  -11.2193 C   0  0  0  0  0  0  0  0  0  0  0  0
   21.7455  -21.8528  -11.4855 C   0  0  0  0  0  0  0  0  0  0  0  0
   22.1887  -22.9030  -12.0058 O   0  0  0  0  0  0  0  0  0  0  0  0
   19.5327  -24.6386   -9.1527 C   0  0  0  0  0  0  0  0  0  0  0  0
   18.9103  -23.2357   -9.0824 C   0  0  2  0  0  0  0  0  0  0  0  0
   17.8605  -23.2901   -8.0207 C   0  0  0  0  0  0  0  0  0  0  0  0
   18.4141  -22.9385  -10.4546 C   0  0  0  0  0  0  0  0  0  0  0  0
   19.4893  -22.8450  -11.5113 C   0  0  2  0  0  0  0  0  0  0  0  0
   20.3583  -21.7632  -11.1663 N   0  0  0  0  0  0  0  0  0  0  0  0
   18.9797  -22.7924  -12.8766 C   0  0  0  0  0  0  0  0  0  0  0  0
   19.0362  -21.7346  -13.5369 O   0  0  0  0  0  0  0  0  0  0  0  0
   18.4267  -23.9153  -13.4574 O   0  0  0  0  0  0  0  0  0  0  0  0
  2  1  1  6
  3  2  1  0
  3  4  1  0
  4  5  2  0
  5  6  1  0
  7  8  2  0
  7  6  1  0
  9  8  1  0
 10  9  2  0
 11 10  1  0
 11 12  2  0
 12  4  1  0
 12  7  1  0
 13  2  1  0
 13 15  1  0
 14 13  2  0
 16 15  1  0
 17 16  1  0
 18 17  2  0
 20 21  1  1
 20 22  1  0
 20 19  1  0
 23 24  1  0
 23 22  1  1
 24 17  1  0
 25 23  1  0
 26 25  2  0
 27 25  1  0
M  END
$$$$
