WGL.pdb
     RDKit          3D

 27 28  0  0  1  0  0  0  0  0999 V2000
   23.1944  -17.3490  -15.3922 N   0  0  0  0  0  0  0  0  0  0  0  0
   24.4244  -16.9069  -16.0032 C   0  0  1  0  0  0  0  0  0  0  0  0
   24.2942  -15.4608  -16.4286 C   0  0  0  0  0  0  0  0  0  0  0  0
   24.7179  -15.3249  -17.8444 C   0  0  0  0  0  0  0  0  0  0  0  0
   23.9695  -15.2547  -18.9818 C   0  0  0  0  0  0  0  0  0  0  0  0
   24.7906  -15.1370  -20.0336 N   0  0  0  0  0  0  0  0  0  0  0  0
   26.0702  -15.1279  -19.6139 C   0  0  0  0  0  0  0  0  0  0  0  0
   27.2796  -15.0322  -20.2412 C   0  0  0  0  0  0  0  0  0  0  0  0
   28.4426  -15.0539  -19.5000 C   0  0  0  0  0  0  0  0  0  0  0  0
   28.4301  -15.1702  -18.1316 C   0  0  0  0  0  0  0  0  0  0  0  0
   27.2202  -15.2661  -17.5030 C   0  0  0  0  0  0  0  0  0  0  0  0
   26.0381  -15.2456  -18.2364 C   0  0  0  0  0  0  0  0  0  0  0  0
   25.5459  -17.0391  -15.0360 C   0  0  0  0  0  0  0  0  0  0  0  0
   26.1124  -15.9620  -14.6711 O   0  0  0  0  0  0  0  0  0  0  0  0
   25.9251  -18.3165  -14.5755 N   0  0  0  0  0  0  0  0  0  0  0  0
   27.0920  -18.4567  -13.7530 C   0  0  0  0  0  0  0  0  0  0  0  0
   27.2665  -19.8925  -13.4148 C   0  0  0  0  0  0  0  0  0  0  0  0
   28.2211  -20.2262  -12.6750 O   0  0  0  0  0  0  0  0  0  0  0  0
   25.4895  -20.6243   -9.3641 C   0  0  0  0  0  0  0  0  0  0  0  0
   26.1711  -21.3561  -10.5303 C   0  0  2  0  0  0  0  0  0  0  0  0
   27.5961  -20.9073  -10.5379 C   0  0  0  0  0  0  0  0  0  0  0  0
   25.3867  -21.0077  -11.7471 C   0  0  0  0  0  0  0  0  0  0  0  0
   25.7549  -21.7913  -12.9848 C   0  0  2  0  0  0  0  0  0  0  0  0
   26.3808  -20.8960  -13.9075 N   0  0  0  0  0  0  0  0  0  0  0  0
   24.6543  -22.5624  -13.5510 C   0  0  0  0  0  0  0  0  0  0  0  0
   23.9419  -22.0841  -14.4576 O   0  0  0  0  0  0  0  0  0  0  0  0
   24.3856  -23.8349  -13.0897 O   0  0  0  0  0  0  0  0  0  0  0  0
  2  1  1  1
  3  2  1  0
  3  4  1  0
  4  5  2  0
  5  6  1  0
  7  8  2  0
  7  6  1  0
  9  8  1  0
 10  9  2  0
 11 10  1  0
 11 12  2  0
 12  4  1  0
 12  7  1  0
 13  2  1  0
 13 15  1  0
 14 13  2  0
 16 15  1  0
 17 16  1  0
 18 17  2  0
 20 21  1  6
 20 22  1  0
 20 19  1  0
 23 24  1  0
 23 22  1  1
 24 17  1  0
 25 23  1  0
 26 25  2  0
 27 25  1  0
M  END
$$$$
