WGL.pdb
     RDKit          3D

 27 28  0  0  1  0  0  0  0  0999 V2000
   24.2053  -18.7952  -17.6442 N   0  0  0  0  0  0  0  0  0  0  0  0
   25.3773  -19.3540  -18.2732 C   0  0  1  0  0  0  0  0  0  0  0  0
   26.5765  -18.4740  -17.9959 C   0  0  0  0  0  0  0  0  0  0  0  0
   26.5901  -18.1000  -16.5599 C   0  0  0  0  0  0  0  0  0  0  0  0
   26.0052  -17.0469  -15.9214 C   0  0  0  0  0  0  0  0  0  0  0  0
   26.2936  -17.1183  -14.6152 N   0  0  0  0  0  0  0  0  0  0  0  0
   27.0594  -18.1999  -14.3762 C   0  0  0  0  0  0  0  0  0  0  0  0
   27.6255  -18.7398  -13.2566 C   0  0  0  0  0  0  0  0  0  0  0  0
   28.3764  -19.8927  -13.3532 C   0  0  0  0  0  0  0  0  0  0  0  0
   28.5798  -20.5291  -14.5531 C   0  0  0  0  0  0  0  0  0  0  0  0
   28.0137  -19.9895  -15.6740 C   0  0  0  0  0  0  0  0  0  0  0  0
   27.2535  -18.8271  -15.5934 C   0  0  0  0  0  0  0  0  0  0  0  0
   25.6330  -20.7198  -17.7441 C   0  0  0  0  0  0  0  0  0  0  0  0
   26.6414  -21.3327  -18.2150 O   0  0  0  0  0  0  0  0  0  0  0  0
   24.7721  -21.2647  -16.7697 N   0  0  0  0  0  0  0  0  0  0  0  0
   25.0977  -22.5204  -16.1575 C   0  0  0  0  0  0  0  0  0  0  0  0
   24.8539  -22.4150  -14.6961 C   0  0  0  0  0  0  0  0  0  0  0  0
   25.0128  -23.4332  -13.9832 O   0  0  0  0  0  0  0  0  0  0  0  0
   25.3104  -22.1052  -10.7332 C   0  0  0  0  0  0  0  0  0  0  0  0
   25.5162  -20.7199  -11.3646 C   0  0  2  0  0  0  0  0  0  0  0  0
   26.0787  -19.8444  -10.2925 C   0  0  0  0  0  0  0  0  0  0  0  0
   24.1856  -20.3079  -11.8910 C   0  0  0  0  0  0  0  0  0  0  0  0
   23.6017  -21.2328  -12.9327 C   0  0  2  0  0  0  0  0  0  0  0  0
   24.4459  -21.1921  -14.0861 N   0  0  0  0  0  0  0  0  0  0  0  0
   22.1904  -20.9974  -13.2145 C   0  0  0  0  0  0  0  0  0  0  0  0
   21.3321  -21.1256  -12.3173 O   0  0  0  0  0  0  0  0  0  0  0  0
   21.7850  -20.6288  -14.4809 O   0  0  0  0  0  0  0  0  0  0  0  0
  2  1  1  1
  3  2  1  0
  3  4  1  0
  4  5  2  0
  5  6  1  0
  7  8  2  0
  7  6  1  0
  9  8  1  0
 10  9  2  0
 11 10  1  0
 11 12  2  0
 12  4  1  0
 12  7  1  0
 13  2  1  0
 13 15  1  0
 14 13  2  0
 16 15  1  0
 17 16  1  0
 18 17  2  0
 20 21  1  1
 20 22  1  0
 20 19  1  0
 23 24  1  0
 23 22  1  1
 24 17  1  0
 25 23  1  0
 26 25  2  0
 27 25  1  0
M  END
$$$$
