WGL.pdb
     RDKit          3D

 27 28  0  0  1  0  0  0  0  0999 V2000
   30.0841  -19.4410   -0.0491 N   0  0  0  0  0  0  0  0  0  0  0  0
   31.0540  -19.8411   -1.0394 C   0  0  1  0  0  0  0  0  0  0  0  0
   31.4379  -18.6507   -1.8908 C   0  0  0  0  0  0  0  0  0  0  0  0
   30.3754  -18.4025   -2.8966 C   0  0  0  0  0  0  0  0  0  0  0  0
   29.4300  -17.4215   -2.9510 C   0  0  0  0  0  0  0  0  0  0  0  0
   28.6824  -17.6014   -4.0479 N   0  0  0  0  0  0  0  0  0  0  0  0
   29.1152  -18.6841   -4.7218 C   0  0  0  0  0  0  0  0  0  0  0  0
   28.7297  -19.3080   -5.8740 C   0  0  0  0  0  0  0  0  0  0  0  0
   29.4025  -20.4319   -6.3057 C   0  0  0  0  0  0  0  0  0  0  0  0
   30.4634  -20.9563   -5.6088 C   0  0  0  0  0  0  0  0  0  0  0  0
   30.8498  -20.3326   -4.4557 C   0  0  0  0  0  0  0  0  0  0  0  0
   30.1816  -19.1979   -4.0068 C   0  0  0  0  0  0  0  0  0  0  0  0
   32.2663  -20.3826   -0.3705 C   0  0  0  0  0  0  0  0  0  0  0  0
   33.3863  -19.9468   -0.7829 O   0  0  0  0  0  0  0  0  0  0  0  0
   32.1296  -21.3301    0.6645 N   0  0  0  0  0  0  0  0  0  0  0  0
   33.3003  -21.8486    1.3112 C   0  0  0  0  0  0  0  0  0  0  0  0
   33.0452  -21.9189    2.7728 C   0  0  0  0  0  0  0  0  0  0  0  0
   31.8598  -21.9194    3.1787 O   0  0  0  0  0  0  0  0  0  0  0  0
   34.7495  -25.1414    5.1648 C   0  0  0  0  0  0  0  0  0  0  0  0
   35.7013  -23.9450    5.0131 C   0  0  2  0  0  0  0  0  0  0  0  0
   37.0234  -24.3836    5.5533 C   0  0  0  0  0  0  0  0  0  0  0  0
   35.0586  -22.8156    5.7402 C   0  0  0  0  0  0  0  0  0  0  0  0
   33.8083  -22.2722    5.0897 C   0  0  2  0  0  0  0  0  0  0  0  0
   34.1082  -21.9856    3.7213 N   0  0  0  0  0  0  0  0  0  0  0  0
   33.1935  -21.1653    5.8130 C   0  0  0  0  0  0  0  0  0  0  0  0
   33.1088  -20.0337    5.2930 O   0  0  0  0  0  0  0  0  0  0  0  0
   32.6959  -21.3558    7.0859 O   0  0  0  0  0  0  0  0  0  0  0  0
  2  1  1  1
  3  2  1  0
  3  4  1  0
  4  5  2  0
  5  6  1  0
  7  8  2  0
  7  6  1  0
  9  8  1  0
 10  9  2  0
 11 10  1  0
 11 12  2  0
 12  4  1  0
 12  7  1  0
 13  2  1  0
 13 15  1  0
 14 13  2  0
 16 15  1  0
 17 16  1  0
 18 17  2  0
 20 21  1  1
 20 22  1  0
 20 19  1  0
 23 24  1  0
 23 22  1  1
 24 17  1  0
 25 23  1  0
 26 25  2  0
 27 25  1  0
M  END
$$$$
