WGL.pdb
     RDKit          3D

 27 28  0  0  1  0  0  0  0  0999 V2000
   26.1608  -22.2224  -12.4148 N   0  0  0  0  0  0  0  0  0  0  0  0
   25.5794  -21.2730  -11.4971 C   0  0  1  0  0  0  0  0  0  0  0  0
   26.4782  -20.0620  -11.3751 C   0  0  0  0  0  0  0  0  0  0  0  0
   27.6722  -20.4153  -10.5679 C   0  0  0  0  0  0  0  0  0  0  0  0
   28.8925  -20.8787  -10.9617 C   0  0  0  0  0  0  0  0  0  0  0  0
   29.6577  -21.0590   -9.8772 N   0  0  0  0  0  0  0  0  0  0  0  0
   28.9666  -20.7235   -8.7711 C   0  0  0  0  0  0  0  0  0  0  0  0
   29.2505  -20.7127   -7.4352 C   0  0  0  0  0  0  0  0  0  0  0  0
   28.2934  -20.2996   -6.5320 C   0  0  0  0  0  0  0  0  0  0  0  0
   27.0445  -19.8918   -6.9322 C   0  0  0  0  0  0  0  0  0  0  0  0
   26.7596  -19.9024   -8.2689 C   0  0  0  0  0  0  0  0  0  0  0  0
   27.7140  -20.3162   -9.1926 C   0  0  0  0  0  0  0  0  0  0  0  0
   24.2416  -20.8489  -11.9880 C   0  0  0  0  0  0  0  0  0  0  0  0
   24.1876  -20.3984  -13.1748 O   0  0  0  0  0  0  0  0  0  0  0  0
   23.1190  -20.9600  -11.1424 N   0  0  0  0  0  0  0  0  0  0  0  0
   22.2047  -19.8606  -11.0286 C   0  0  0  0  0  0  0  0  0  0  0  0
   21.1350  -20.0236  -12.0461 C   0  0  0  0  0  0  0  0  0  0  0  0
   20.1402  -19.2630  -12.0025 O   0  0  0  0  0  0  0  0  0  0  0  0
   20.2421  -22.7426  -17.3610 C   0  0  0  0  0  0  0  0  0  0  0  0
   19.8619  -21.5152  -16.5189 C   0  0  2  0  0  0  0  0  0  0  0  0
   19.9625  -20.3315  -17.4250 C   0  0  0  0  0  0  0  0  0  0  0  0
   20.7944  -21.5102  -15.3580 C   0  0  0  0  0  0  0  0  0  0  0  0
   20.1716  -21.0945  -14.0462 C   0  0  2  0  0  0  0  0  0  0  0  0
   21.2099  -21.0176  -13.0661 N   0  0  0  0  0  0  0  0  0  0  0  0
   19.0284  -21.9065  -13.6458 C   0  0  0  0  0  0  0  0  0  0  0  0
   19.1870  -23.0829  -13.2599 O   0  0  0  0  0  0  0  0  0  0  0  0
   17.7526  -21.3824  -13.6888 O   0  0  0  0  0  0  0  0  0  0  0  0
  2  1  1  6
  3  2  1  0
  3  4  1  0
  4  5  2  0
  5  6  1  0
  7  8  2  0
  7  6  1  0
  9  8  1  0
 10  9  2  0
 11 10  1  0
 11 12  2  0
 12  4  1  0
 12  7  1  0
 13  2  1  0
 13 15  1  0
 14 13  2  0
 16 15  1  0
 17 16  1  0
 18 17  2  0
 20 21  1  6
 20 22  1  0
 20 19  1  0
 23 24  1  0
 23 22  1  6
 24 17  1  0
 25 23  1  0
 26 25  2  0
 27 25  1  0
M  END
$$$$
