YKM.pdb
     RDKit          3D

 30 30  0  0  1  0  0  0  0  0999 V2000
   18.8062  -18.2103  -15.9533 O   0  0  0  0  0  0  0  0  0  0  0  0
   19.7785  -18.8726  -15.2187 C   0  0  0  0  0  0  0  0  0  0  0  0
   19.5736  -20.1464  -14.7766 C   0  0  0  0  0  0  0  0  0  0  0  0
   20.5478  -20.8059  -14.0423 C   0  0  0  0  0  0  0  0  0  0  0  0
   21.7119  -20.1220  -13.7865 C   0  0  0  0  0  0  0  0  0  0  0  0
   22.7649  -20.8118  -13.0023 C   0  0  0  0  0  0  0  0  0  0  0  0
   23.8806  -21.1493  -13.9819 C   0  0  2  0  0  0  0  0  0  0  0  0
   23.5442  -22.2683  -14.8119 N   0  0  0  0  0  0  0  0  0  0  0  0
   25.0719  -21.4831  -13.1654 C   0  0  0  0  0  0  0  0  0  0  0  0
   25.2761  -22.6976  -12.8396 O   0  0  0  0  0  0  0  0  0  0  0  0
   21.9472  -18.8441  -14.2160 C   0  0  0  0  0  0  0  0  0  0  0  0
   20.9535  -18.2182  -14.9453 C   0  0  0  0  0  0  0  0  0  0  0  0
   25.9482  -20.4731  -12.7666 N   0  0  0  0  0  0  0  0  0  0  0  0
   27.1342  -20.8830  -11.8975 C   0  0  1  0  0  0  0  0  0  0  0  0
   28.2086  -19.9946  -12.3223 C   0  0  0  0  0  0  0  0  0  0  0  0
   29.5701  -20.1722  -11.8117 C   0  0  0  0  0  0  0  0  0  0  0  0
   30.1593  -21.5095  -12.0477 C   0  0  0  0  0  0  0  0  0  0  0  0
   31.5658  -21.4874  -11.4260 C   0  0  0  0  0  0  0  0  0  0  0  0
   32.1546  -22.7838  -11.6641 N   0  0  0  0  0  0  0  0  0  0  0  0
   26.5510  -20.8593  -10.5564 C   0  0  0  0  0  0  0  0  0  0  0  0
   25.4828  -20.1651  -10.3174 O   0  0  0  0  0  0  0  0  0  0  0  0
   30.0672  -19.6549   -5.7253 C   0  0  0  0  0  0  0  0  0  0  0  0
   28.7231  -20.3408   -4.6823 S   0  0  0  0  0  0  0  0  0  0  0  0
   27.3161  -20.6433   -5.8121 C   0  0  0  0  0  0  0  0  0  0  0  0
   27.7901  -20.9984   -7.1788 C   0  0  0  0  0  0  0  0  0  0  0  0
   26.5761  -21.2232   -8.0872 C   0  0  2  0  0  0  0  0  0  0  0  0
   27.0268  -21.5551   -9.4175 N   0  0  0  0  0  0  0  0  0  0  0  0
   25.6625  -20.0891   -8.0533 C   0  0  0  0  0  0  0  0  0  0  0  0
   24.3754  -20.2549   -7.4861 O   0  0  0  0  0  0  0  0  0  0  0  0
   25.8821  -18.9339   -8.4832 O   0  0  0  0  0  0  0  0  0  0  0  0
  2  1  1  0
  3  2  2  0
  4  3  1  0
  5  4  2  0
  5 11  1  0
  6  5  1  0
  7  8  1  1
  7  6  1  0
  9  7  1  0
 10  9  2  0
 11 12  2  0
 12  2  1  0
 13  9  1  0
 14 20  1  0
 14 13  1  0
 14 15  1  1
 16 15  1  0
 17 16  1  0
 18 17  1  0
 19 18  1  0
 20 27  1  0
 21 20  2  0
 22 23  1  0
 23 24  1  0
 24 25  1  0
 26 25  1  1
 26 28  1  0
 27 26  1  0
 28 30  2  0
 28 29  1  0
M  END
$$$$
