YKM.pdb
     RDKit          3D

 30 30  0  0  1  0  0  0  0  0999 V2000
   30.8404  -11.1906  -17.2179 O   0  0  0  0  0  0  0  0  0  0  0  0
   29.5530  -10.7561  -16.9391 C   0  0  0  0  0  0  0  0  0  0  0  0
   28.9450  -11.0820  -15.7627 C   0  0  0  0  0  0  0  0  0  0  0  0
   27.6577  -10.6460  -15.4869 C   0  0  0  0  0  0  0  0  0  0  0  0
   27.0353   -9.8809  -16.4438 C   0  0  0  0  0  0  0  0  0  0  0  0
   25.6581   -9.4059  -16.1659 C   0  0  0  0  0  0  0  0  0  0  0  0
   24.7646  -10.6386  -16.1857 C   0  0  2  0  0  0  0  0  0  0  0  0
   25.2647  -11.6484  -17.0712 N   0  0  0  0  0  0  0  0  0  0  0  0
   23.4335  -10.1870  -16.6565 C   0  0  0  0  0  0  0  0  0  0  0  0
   23.0876  -10.4332  -17.8575 O   0  0  0  0  0  0  0  0  0  0  0  0
   27.6186   -9.5373  -17.6331 C   0  0  0  0  0  0  0  0  0  0  0  0
   28.9025   -9.9898  -17.8736 C   0  0  0  0  0  0  0  0  0  0  0  0
   22.5822   -9.5038  -15.7872 N   0  0  0  0  0  0  0  0  0  0  0  0
   21.1847   -9.1683  -16.3014 C   0  0  1  0  0  0  0  0  0  0  0  0
   20.3102  -10.0744  -15.5679 C   0  0  0  0  0  0  0  0  0  0  0  0
   18.8794  -10.1428  -15.8746 C   0  0  0  0  0  0  0  0  0  0  0  0
   18.4920  -11.2078  -16.8270 C   0  0  0  0  0  0  0  0  0  0  0  0
   16.9906  -11.0250  -17.1056 C   0  0  0  0  0  0  0  0  0  0  0  0
   16.2781  -11.7212  -16.0608 N   0  0  0  0  0  0  0  0  0  0  0  0
   21.1468   -7.7138  -16.1521 C   0  0  0  0  0  0  0  0  0  0  0  0
   21.4841   -7.1602  -15.0296 O   0  0  0  0  0  0  0  0  0  0  0  0
   20.5702   -0.3750  -18.8508 C   0  0  0  0  0  0  0  0  0  0  0  0
   20.5766   -2.1299  -19.3848 S   0  0  0  0  0  0  0  0  0  0  0  0
   20.5475   -3.1220  -17.8478 C   0  0  0  0  0  0  0  0  0  0  0  0
   20.4868   -4.5795  -18.1492 C   0  0  0  0  0  0  0  0  0  0  0  0
   20.6505   -5.3678  -16.8448 C   0  0  2  0  0  0  0  0  0  0  0  0
   20.7797   -6.7732  -17.1461 N   0  0  0  0  0  0  0  0  0  0  0  0
   19.5788   -5.0755  -15.9025 C   0  0  0  0  0  0  0  0  0  0  0  0
   18.3194   -5.7007  -16.0721 O   0  0  0  0  0  0  0  0  0  0  0  0
   19.6336   -4.3049  -14.9172 O   0  0  0  0  0  0  0  0  0  0  0  0
  2  1  1  0
  3  2  2  0
  4  3  1  0
  5  4  2  0
  5 11  1  0
  6  5  1  0
  7  8  1  6
  7  6  1  0
  9  7  1  0
 10  9  2  0
 11 12  2  0
 12  2  1  0
 13  9  1  0
 14 20  1  0
 14 13  1  0
 14 15  1  1
 16 15  1  0
 17 16  1  0
 18 17  1  0
 19 18  1  0
 20 27  1  0
 21 20  2  0
 22 23  1  0
 23 24  1  0
 24 25  1  0
 26 25  1  6
 26 28  1  0
 27 26  1  0
 28 30  2  0
 28 29  1  0
M  END
$$$$
