YKM.pdb
     RDKit          3D

 30 30  0  0  1  0  0  0  0  0999 V2000
   20.7889  -11.9470  -19.7733 O   0  0  0  0  0  0  0  0  0  0  0  0
   20.7994  -13.1456  -19.0753 C   0  0  0  0  0  0  0  0  0  0  0  0
   20.0690  -14.2128  -19.5084 C   0  0  0  0  0  0  0  0  0  0  0  0
   20.0816  -15.4098  -18.8083 C   0  0  0  0  0  0  0  0  0  0  0  0
   20.8549  -15.4657  -17.6738 C   0  0  0  0  0  0  0  0  0  0  0  0
   20.8803  -16.7381  -16.9122 C   0  0  0  0  0  0  0  0  0  0  0  0
   22.1657  -17.4518  -17.3078 C   0  0  2  0  0  0  0  0  0  0  0  0
   22.2076  -17.7411  -18.7110 N   0  0  0  0  0  0  0  0  0  0  0  0
   22.1957  -18.7212  -16.5429 C   0  0  0  0  0  0  0  0  0  0  0  0
   21.5794  -19.7354  -17.0059 O   0  0  0  0  0  0  0  0  0  0  0  0
   21.5984  -14.4128  -17.2139 C   0  0  0  0  0  0  0  0  0  0  0  0
   21.5615  -13.2354  -17.9375 C   0  0  0  0  0  0  0  0  0  0  0  0
   22.8921  -18.7906  -15.3357 N   0  0  0  0  0  0  0  0  0  0  0  0
   22.9165  -20.1397  -14.6222 C   0  0  1  0  0  0  0  0  0  0  0  0
   24.2844  -20.2575  -14.1335 C   0  0  0  0  0  0  0  0  0  0  0  0
   25.3461  -20.7708  -15.0026 C   0  0  0  0  0  0  0  0  0  0  0  0
   24.9138  -21.7872  -15.9882 C   0  0  0  0  0  0  0  0  0  0  0  0
   26.1468  -22.1241  -16.8435 C   0  0  0  0  0  0  0  0  0  0  0  0
   26.8479  -23.1933  -16.1731 N   0  0  0  0  0  0  0  0  0  0  0  0
   21.7519  -20.0398  -13.7430 C   0  0  0  0  0  0  0  0  0  0  0  0
   21.2496  -18.8819  -13.4479 O   0  0  0  0  0  0  0  0  0  0  0  0
   17.0758  -17.7928  -14.8277 C   0  0  0  0  0  0  0  0  0  0  0  0
   16.7792  -19.4965  -15.4395 S   0  0  0  0  0  0  0  0  0  0  0  0
   17.5035  -20.6134  -14.1843 C   0  0  0  0  0  0  0  0  0  0  0  0
   18.9778  -20.7346  -14.3585 C   0  0  0  0  0  0  0  0  0  0  0  0
   19.6130  -21.0983  -13.0116 C   0  0  2  0  0  0  0  0  0  0  0  0
   21.0496  -21.1170  -13.1478 N   0  0  0  0  0  0  0  0  0  0  0  0
   19.0674  -22.3390  -12.4780 C   0  0  0  0  0  0  0  0  0  0  0  0
   17.8777  -22.2976  -11.7107 O   0  0  0  0  0  0  0  0  0  0  0  0
   19.5405  -23.4897  -12.6181 O   0  0  0  0  0  0  0  0  0  0  0  0
  2  1  1  0
  3  2  2  0
  4  3  1  0
  5  4  2  0
  5 11  1  0
  6  5  1  0
  7  8  1  6
  7  6  1  0
  9  7  1  0
 10  9  2  0
 11 12  2  0
 12  2  1  0
 13  9  1  0
 14 20  1  0
 14 13  1  0
 14 15  1  1
 16 15  1  0
 17 16  1  0
 18 17  1  0
 19 18  1  0
 20 27  1  0
 21 20  2  0
 22 23  1  0
 23 24  1  0
 24 25  1  0
 26 25  1  6
 26 28  1  0
 27 26  1  0
 28 30  2  0
 28 29  1  0
M  END
$$$$
