YKM.pdb
     RDKit          3D

 30 30  0  0  1  0  0  0  0  0999 V2000
   29.3798  -19.6979   -3.7604 O   0  0  0  0  0  0  0  0  0  0  0  0
   28.5894  -19.6616   -4.8995 C   0  0  0  0  0  0  0  0  0  0  0  0
   28.8710  -18.7997   -5.9183 C   0  0  0  0  0  0  0  0  0  0  0  0
   28.0787  -18.7659   -7.0560 C   0  0  0  0  0  0  0  0  0  0  0  0
   27.0122  -19.6310   -7.1045 C   0  0  0  0  0  0  0  0  0  0  0  0
   26.1538  -19.6085   -8.3138 C   0  0  0  0  0  0  0  0  0  0  0  0
   26.6782  -20.7014   -9.2351 C   0  0  2  0  0  0  0  0  0  0  0  0
   28.1062  -20.6643   -9.3514 N   0  0  0  0  0  0  0  0  0  0  0  0
   26.0700  -20.4593  -10.5651 C   0  0  0  0  0  0  0  0  0  0  0  0
   26.2344  -19.3253  -11.1216 O   0  0  0  0  0  0  0  0  0  0  0  0
   26.7039  -20.5070   -6.0993 C   0  0  0  0  0  0  0  0  0  0  0  0
   27.5158  -20.5128   -4.9805 C   0  0  0  0  0  0  0  0  0  0  0  0
   25.3312  -21.4668  -11.1869 N   0  0  0  0  0  0  0  0  0  0  0  0
   24.9233  -21.2358  -12.6395 C   0  0  1  0  0  0  0  0  0  0  0  0
   25.5575  -22.3299  -13.3639 C   0  0  0  0  0  0  0  0  0  0  0  0
   25.4833  -22.4000  -14.8252 C   0  0  0  0  0  0  0  0  0  0  0  0
   26.1929  -23.5469  -15.4353 C   0  0  0  0  0  0  0  0  0  0  0  0
   26.0074  -23.4212  -16.9568 C   0  0  0  0  0  0  0  0  0  0  0  0
   26.9038  -24.3706  -17.5726 N   0  0  0  0  0  0  0  0  0  0  0  0
   23.4738  -21.0766  -12.5267 C   0  0  0  0  0  0  0  0  0  0  0  0
   22.7964  -21.8035  -11.6943 O   0  0  0  0  0  0  0  0  0  0  0  0
   19.8195  -15.7925  -13.0297 C   0  0  0  0  0  0  0  0  0  0  0  0
   18.5843  -17.0058  -13.6357 S   0  0  0  0  0  0  0  0  0  0  0  0
   19.2544  -18.6559  -13.2163 C   0  0  0  0  0  0  0  0  0  0  0  0
   20.7269  -18.7100  -13.4342 C   0  0  0  0  0  0  0  0  0  0  0  0
   21.2371  -20.1067  -13.0620 C   0  0  2  0  0  0  0  0  0  0  0  0
   22.6675  -20.1601  -13.2461 N   0  0  0  0  0  0  0  0  0  0  0  0
   20.5226  -21.1499  -13.7851 C   0  0  0  0  0  0  0  0  0  0  0  0
   19.3499  -21.7054  -13.2177 O   0  0  0  0  0  0  0  0  0  0  0  0
   20.8298  -21.6402  -14.8955 O   0  0  0  0  0  0  0  0  0  0  0  0
  2  1  1  0
  3  2  2  0
  4  3  1  0
  5  4  2  0
  5 11  1  0
  6  5  1  0
  7  8  1  6
  7  6  1  0
  9  7  1  0
 10  9  2  0
 11 12  2  0
 12  2  1  0
 13  9  1  0
 14 20  1  0
 14 13  1  0
 14 15  1  6
 16 15  1  0
 17 16  1  0
 18 17  1  0
 19 18  1  0
 20 27  1  0
 21 20  2  0
 22 23  1  0
 23 24  1  0
 24 25  1  0
 26 25  1  6
 26 28  1  0
 27 26  1  0
 28 30  2  0
 28 29  1  0
M  END
$$$$
