YKM.pdb
     RDKit          3D

 30 30  0  0  1  0  0  0  0  0999 V2000
   36.3858  -30.0272  -18.6223 O   0  0  0  0  0  0  0  0  0  0  0  0
   35.0233  -29.7948  -18.5060 C   0  0  0  0  0  0  0  0  0  0  0  0
   34.2257  -30.6511  -17.8055 C   0  0  0  0  0  0  0  0  0  0  0  0
   32.8638  -30.4160  -17.6911 C   0  0  0  0  0  0  0  0  0  0  0  0
   32.3660  -29.2944  -18.3095 C   0  0  0  0  0  0  0  0  0  0  0  0
   30.9115  -29.0271  -18.1978 C   0  0  0  0  0  0  0  0  0  0  0  0
   30.2479  -29.7630  -19.3538 C   0  0  2  0  0  0  0  0  0  0  0  0
   30.5203  -29.1372  -20.6141 N   0  0  0  0  0  0  0  0  0  0  0  0
   28.7890  -29.7293  -19.0932 C   0  0  0  0  0  0  0  0  0  0  0  0
   28.0734  -28.8680  -19.7005 O   0  0  0  0  0  0  0  0  0  0  0  0
   33.1400  -28.4167  -19.0191 C   0  0  0  0  0  0  0  0  0  0  0  0
   34.4934  -28.6832  -19.1118 C   0  0  0  0  0  0  0  0  0  0  0  0
   28.2210  -30.6328  -18.1941 N   0  0  0  0  0  0  0  0  0  0  0  0
   27.1289  -31.5549  -18.7296 C   0  0  1  0  0  0  0  0  0  0  0  0
   27.8345  -32.4496  -19.6381 C   0  0  0  0  0  0  0  0  0  0  0  0
   27.1600  -33.6180  -20.2091 C   0  0  0  0  0  0  0  0  0  0  0  0
   27.0459  -33.6176  -21.6850 C   0  0  0  0  0  0  0  0  0  0  0  0
   26.3448  -34.9303  -22.0731 C   0  0  0  0  0  0  0  0  0  0  0  0
   26.2186  -34.9338  -23.5113 N   0  0  0  0  0  0  0  0  0  0  0  0
   26.4792  -32.0038  -17.4986 C   0  0  0  0  0  0  0  0  0  0  0  0
   27.1597  -32.6232  -16.5855 O   0  0  0  0  0  0  0  0  0  0  0  0
   19.8762  -33.2589  -15.1567 C   0  0  0  0  0  0  0  0  0  0  0  0
   20.8162  -31.9468  -14.2852 S   0  0  0  0  0  0  0  0  0  0  0  0
   22.5826  -32.3836  -14.4768 C   0  0  0  0  0  0  0  0  0  0  0  0
   23.0889  -31.9994  -15.8239 C   0  0  0  0  0  0  0  0  0  0  0  0
   24.5795  -32.3450  -15.9160 C   0  0  2  0  0  0  0  0  0  0  0  0
   25.1182  -31.8226  -17.1487 N   0  0  0  0  0  0  0  0  0  0  0  0
   24.8114  -33.7727  -15.7437 C   0  0  0  0  0  0  0  0  0  0  0  0
   24.7121  -34.6298  -16.8668 O   0  0  0  0  0  0  0  0  0  0  0  0
   25.0997  -34.3643  -14.6786 O   0  0  0  0  0  0  0  0  0  0  0  0
  2  1  1  0
  3  2  2  0
  4  3  1  0
  5  4  2  0
  5 11  1  0
  6  5  1  0
  7  8  1  6
  7  6  1  0
  9  7  1  0
 10  9  2  0
 11 12  2  0
 12  2  1  0
 13  9  1  0
 14 20  1  0
 14 13  1  0
 14 15  1  1
 16 15  1  0
 17 16  1  0
 18 17  1  0
 19 18  1  0
 20 27  1  0
 21 20  2  0
 22 23  1  0
 23 24  1  0
 24 25  1  0
 26 25  1  6
 26 28  1  0
 27 26  1  0
 28 30  2  0
 28 29  1  0
M  END
$$$$
