YKM.pdb
     RDKit          3D

 30 30  0  0  1  0  0  0  0  0999 V2000
   27.7257  -20.1034   -5.3863 O   0  0  0  0  0  0  0  0  0  0  0  0
   27.5808  -20.1026   -6.7657 C   0  0  0  0  0  0  0  0  0  0  0  0
   26.3848  -19.7910   -7.3425 C   0  0  0  0  0  0  0  0  0  0  0  0
   26.2431  -19.7912   -8.7221 C   0  0  0  0  0  0  0  0  0  0  0  0
   27.3510  -20.1161   -9.4671 C   0  0  0  0  0  0  0  0  0  0  0  0
   27.2178  -20.1216  -10.9442 C   0  0  0  0  0  0  0  0  0  0  0  0
   26.3310  -21.3091  -11.2928 C   0  0  2  0  0  0  0  0  0  0  0  0
   27.0392  -22.5518  -11.2005 N   0  0  0  0  0  0  0  0  0  0  0  0
   25.8798  -21.1027  -12.6896 C   0  0  0  0  0  0  0  0  0  0  0  0
   26.7213  -21.2382  -13.6363 O   0  0  0  0  0  0  0  0  0  0  0  0
   28.5639  -20.4332   -8.9183 C   0  0  0  0  0  0  0  0  0  0  0  0
   28.6680  -20.4227   -7.5398 C   0  0  0  0  0  0  0  0  0  0  0  0
   24.5509  -20.7656  -12.9497 N   0  0  0  0  0  0  0  0  0  0  0  0
   24.1544  -20.5727  -14.4110 C   0  0  1  0  0  0  0  0  0  0  0  0
   23.7020  -21.8923  -14.8326 C   0  0  0  0  0  0  0  0  0  0  0  0
   22.6907  -22.6173  -14.0594 C   0  0  0  0  0  0  0  0  0  0  0  0
   22.3776  -23.9767  -14.5546 C   0  0  0  0  0  0  0  0  0  0  0  0
   21.3374  -24.5688  -13.5888 C   0  0  0  0  0  0  0  0  0  0  0  0
   20.9931  -25.8787  -14.0884 N   0  0  0  0  0  0  0  0  0  0  0  0
   23.2767  -19.4051  -14.3364 C   0  0  0  0  0  0  0  0  0  0  0  0
   22.9823  -18.8775  -13.1896 O   0  0  0  0  0  0  0  0  0  0  0  0
   27.3767  -16.9463  -15.1565 C   0  0  0  0  0  0  0  0  0  0  0  0
   26.6311  -15.4134  -15.8343 S   0  0  0  0  0  0  0  0  0  0  0  0
   24.8262  -15.7102  -15.8777 C   0  0  0  0  0  0  0  0  0  0  0  0
   24.5155  -17.1596  -15.7314 C   0  0  0  0  0  0  0  0  0  0  0  0
   22.9942  -17.3469  -15.7199 C   0  0  2  0  0  0  0  0  0  0  0  0
   22.6824  -18.7256  -15.4285 N   0  0  0  0  0  0  0  0  0  0  0  0
   22.3843  -16.8650  -16.9518 C   0  0  0  0  0  0  0  0  0  0  0  0
   22.6549  -17.5398  -18.1673 O   0  0  0  0  0  0  0  0  0  0  0  0
   21.6169  -15.8837  -17.0768 O   0  0  0  0  0  0  0  0  0  0  0  0
  2  1  1  0
  3  2  2  0
  4  3  1  0
  5  4  2  0
  5 11  1  0
  6  5  1  0
  7  8  1  6
  7  6  1  0
  9  7  1  0
 10  9  2  0
 11 12  2  0
 12  2  1  0
 13  9  1  0
 14 20  1  0
 14 13  1  0
 14 15  1  1
 16 15  1  0
 17 16  1  0
 18 17  1  0
 19 18  1  0
 20 27  1  0
 21 20  2  0
 22 23  1  0
 23 24  1  0
 24 25  1  0
 26 25  1  6
 26 28  1  0
 27 26  1  0
 28 30  2  0
 28 29  1  0
M  END
$$$$
