YKM.pdb
     RDKit          3D

 30 30  0  0  1  0  0  0  0  0999 V2000
   19.5533  -10.5108  -17.2995 O   0  0  0  0  0  0  0  0  0  0  0  0
   19.8055  -11.8602  -17.1019 C   0  0  0  0  0  0  0  0  0  0  0  0
   20.9670  -12.2762  -16.5205 C   0  0  0  0  0  0  0  0  0  0  0  0
   21.2162  -13.6263  -16.3243 C   0  0  0  0  0  0  0  0  0  0  0  0
   20.2492  -14.5101  -16.7388 C   0  0  0  0  0  0  0  0  0  0  0  0
   20.4988  -15.9580  -16.5371 C   0  0  0  0  0  0  0  0  0  0  0  0
   21.5572  -16.3591  -17.5555 C   0  0  2  0  0  0  0  0  0  0  0  0
   21.0359  -16.3782  -18.8905 N   0  0  0  0  0  0  0  0  0  0  0  0
   22.0056  -17.7220  -17.1832 C   0  0  0  0  0  0  0  0  0  0  0  0
   21.3505  -18.7262  -17.6134 O   0  0  0  0  0  0  0  0  0  0  0  0
   19.0743  -14.1240  -17.3250 C   0  0  0  0  0  0  0  0  0  0  0  0
   18.8602  -12.7701  -17.5044 C   0  0  0  0  0  0  0  0  0  0  0  0
   23.1297  -17.8884  -16.3733 N   0  0  0  0  0  0  0  0  0  0  0  0
   23.5386  -19.3195  -16.0347 C   0  0  1  0  0  0  0  0  0  0  0  0
   24.9870  -19.2494  -15.8897 C   0  0  0  0  0  0  0  0  0  0  0  0
   25.7447  -20.4019  -15.3963 C   0  0  0  0  0  0  0  0  0  0  0  0
   27.0257  -20.6557  -16.0933 C   0  0  0  0  0  0  0  0  0  0  0  0
   27.4607  -22.0805  -15.7111 C   0  0  0  0  0  0  0  0  0  0  0  0
   28.7672  -22.2933  -16.2871 N   0  0  0  0  0  0  0  0  0  0  0  0
   22.6325  -19.6421  -14.9329 C   0  0  0  0  0  0  0  0  0  0  0  0
   22.4826  -18.8179  -13.9436 O   0  0  0  0  0  0  0  0  0  0  0  0
   18.8623  -24.8887  -14.2660 C   0  0  0  0  0  0  0  0  0  0  0  0
   18.1183  -23.8673  -12.9362 S   0  0  0  0  0  0  0  0  0  0  0  0
   19.2604  -22.4599  -12.6862 C   0  0  0  0  0  0  0  0  0  0  0  0
   20.1885  -22.3083  -13.8414 C   0  0  0  0  0  0  0  0  0  0  0  0
   21.0743  -21.0782  -13.6139 C   0  0  2  0  0  0  0  0  0  0  0  0
   21.8361  -20.8075  -14.8094 N   0  0  0  0  0  0  0  0  0  0  0  0
   21.9008  -21.2242  -12.4233 C   0  0  0  0  0  0  0  0  0  0  0  0
   21.4664  -20.6474  -11.2050 O   0  0  0  0  0  0  0  0  0  0  0  0
   22.9976  -21.8221  -12.3384 O   0  0  0  0  0  0  0  0  0  0  0  0
  2  1  1  0
  3  2  2  0
  4  3  1  0
  5  4  2  0
  5 11  1  0
  6  5  1  0
  7  8  1  6
  7  6  1  0
  9  7  1  0
 10  9  2  0
 11 12  2  0
 12  2  1  0
 13  9  1  0
 14 20  1  0
 14 13  1  0
 14 15  1  1
 16 15  1  0
 17 16  1  0
 18 17  1  0
 19 18  1  0
 20 27  1  0
 21 20  2  0
 22 23  1  0
 23 24  1  0
 24 25  1  0
 26 25  1  6
 26 28  1  0
 27 26  1  0
 28 30  2  0
 28 29  1  0
M  END
$$$$
