YKM.pdb
     RDKit          3D

 30 30  0  0  1  0  0  0  0  0999 V2000
   29.5728  -19.4722   -5.3276 O   0  0  0  0  0  0  0  0  0  0  0  0
   28.6218  -19.7722   -6.2916 C   0  0  0  0  0  0  0  0  0  0  0  0
   28.4684  -21.0479   -6.7487 C   0  0  0  0  0  0  0  0  0  0  0  0
   27.5167  -21.3446   -7.7128 C   0  0  0  0  0  0  0  0  0  0  0  0
   26.7478  -20.3046   -8.1771 C   0  0  0  0  0  0  0  0  0  0  0  0
   25.7248  -20.6034   -9.2085 C   0  0  0  0  0  0  0  0  0  0  0  0
   26.4600  -20.6626  -10.5405 C   0  0  2  0  0  0  0  0  0  0  0  0
   27.2404  -19.4833  -10.7744 N   0  0  0  0  0  0  0  0  0  0  0  0
   25.4207  -20.7808  -11.5908 C   0  0  0  0  0  0  0  0  0  0  0  0
   24.6139  -19.8118  -11.7725 O   0  0  0  0  0  0  0  0  0  0  0  0
   26.8777  -19.0148   -7.7386 C   0  0  0  0  0  0  0  0  0  0  0  0
   27.8368  -18.7564   -6.7770 C   0  0  0  0  0  0  0  0  0  0  0  0
   25.3384  -21.9411  -12.3617 N   0  0  0  0  0  0  0  0  0  0  0  0
   24.6055  -21.8397  -13.6968 C   0  0  1  0  0  0  0  0  0  0  0  0
   25.5312  -22.4302  -14.6550 C   0  0  0  0  0  0  0  0  0  0  0  0
   26.3357  -21.5809  -15.5367 C   0  0  0  0  0  0  0  0  0  0  0  0
   27.3270  -22.3005  -16.3679 C   0  0  0  0  0  0  0  0  0  0  0  0
   28.0911  -21.2315  -17.1670 C   0  0  0  0  0  0  0  0  0  0  0  0
   29.1736  -21.9034  -17.8459 N   0  0  0  0  0  0  0  0  0  0  0  0
   23.3020  -22.4187  -13.3729 C   0  0  0  0  0  0  0  0  0  0  0  0
   23.2229  -23.5104  -12.6786 O   0  0  0  0  0  0  0  0  0  0  0  0
   17.3237  -20.4089  -11.0371 C   0  0  0  0  0  0  0  0  0  0  0  0
   17.0222  -21.2013  -12.6639 S   0  0  0  0  0  0  0  0  0  0  0  0
   18.4210  -22.3505  -12.9290 C   0  0  0  0  0  0  0  0  0  0  0  0
   19.6936  -21.6079  -13.1470 C   0  0  0  0  0  0  0  0  0  0  0  0
   20.8144  -22.6110  -13.4428 C   0  0  2  0  0  0  0  0  0  0  0  0
   22.0346  -21.8963  -13.7312 N   0  0  0  0  0  0  0  0  0  0  0  0
   20.4332  -23.5488  -14.4901 C   0  0  0  0  0  0  0  0  0  0  0  0
   19.8131  -24.7707  -14.1319 O   0  0  0  0  0  0  0  0  0  0  0  0
   20.5933  -23.4041  -15.7234 O   0  0  0  0  0  0  0  0  0  0  0  0
  2  1  1  0
  3  2  2  0
  4  3  1  0
  5  4  2  0
  5 11  1  0
  6  5  1  0
  7  8  1  6
  7  6  1  0
  9  7  1  0
 10  9  2  0
 11 12  2  0
 12  2  1  0
 13  9  1  0
 14 20  1  0
 14 13  1  0
 14 15  1  6
 16 15  1  0
 17 16  1  0
 18 17  1  0
 19 18  1  0
 20 27  1  0
 21 20  2  0
 22 23  1  0
 23 24  1  0
 24 25  1  0
 26 25  1  6
 26 28  1  0
 27 26  1  0
 28 30  2  0
 28 29  1  0
M  END
$$$$
