YKM.pdb
     RDKit          3D

 30 30  0  0  1  0  0  0  0  0999 V2000
   29.3905  -20.3759   -5.9583 O   0  0  0  0  0  0  0  0  0  0  0  0
   28.4814  -20.4789   -7.0007 C   0  0  0  0  0  0  0  0  0  0  0  0
   27.2752  -19.8452   -6.9411 C   0  0  0  0  0  0  0  0  0  0  0  0
   26.3683  -19.9502   -7.9851 C   0  0  0  0  0  0  0  0  0  0  0  0
   26.7405  -20.7130   -9.0658 C   0  0  0  0  0  0  0  0  0  0  0  0
   25.7830  -20.8366  -10.1917 C   0  0  0  0  0  0  0  0  0  0  0  0
   26.5733  -21.3857  -11.3715 C   0  0  2  0  0  0  0  0  0  0  0  0
   27.6159  -20.4913  -11.7805 N   0  0  0  0  0  0  0  0  0  0  0  0
   25.6076  -21.5563  -12.4831 C   0  0  0  0  0  0  0  0  0  0  0  0
   25.3529  -20.5617  -13.2373 O   0  0  0  0  0  0  0  0  0  0  0  0
   27.9427  -21.3606   -9.1552 C   0  0  0  0  0  0  0  0  0  0  0  0
   28.8215  -21.2333   -8.0956 C   0  0  0  0  0  0  0  0  0  0  0  0
   24.9941  -22.7925  -12.6892 N   0  0  0  0  0  0  0  0  0  0  0  0
   24.2080  -22.9726  -13.9852 C   0  0  1  0  0  0  0  0  0  0  0  0
   24.2805  -24.4042  -14.2476 C   0  0  0  0  0  0  0  0  0  0  0  0
   24.2487  -24.9142  -15.6205 C   0  0  0  0  0  0  0  0  0  0  0  0
   25.3017  -24.3794  -16.5131 C   0  0  0  0  0  0  0  0  0  0  0  0
   26.1382  -25.5831  -16.9784 C   0  0  0  0  0  0  0  0  0  0  0  0
   27.2132  -25.0635  -17.7898 N   0  0  0  0  0  0  0  0  0  0  0  0
   22.9610  -22.2700  -13.6845 C   0  0  0  0  0  0  0  0  0  0  0  0
   22.3538  -22.4642  -12.5558 O   0  0  0  0  0  0  0  0  0  0  0  0
   17.8898  -16.8770  -12.9085 C   0  0  0  0  0  0  0  0  0  0  0  0
   19.6334  -17.3478  -13.2293 S   0  0  0  0  0  0  0  0  0  0  0  0
   19.5646  -18.8043  -14.3346 C   0  0  0  0  0  0  0  0  0  0  0  0
   20.9293  -19.3289  -14.6191 C   0  0  0  0  0  0  0  0  0  0  0  0
   21.0087  -20.7906  -14.1646 C   0  0  2  0  0  0  0  0  0  0  0  0
   22.2988  -21.3334  -14.5164 N   0  0  0  0  0  0  0  0  0  0  0  0
   19.8932  -21.5741  -14.6780 C   0  0  0  0  0  0  0  0  0  0  0  0
   18.7136  -21.6883  -13.9025 O   0  0  0  0  0  0  0  0  0  0  0  0
   19.8447  -22.1881  -15.7681 O   0  0  0  0  0  0  0  0  0  0  0  0
  2  1  1  0
  3  2  2  0
  4  3  1  0
  5  4  2  0
  5 11  1  0
  6  5  1  0
  7  8  1  6
  7  6  1  0
  9  7  1  0
 10  9  2  0
 11 12  2  0
 12  2  1  0
 13  9  1  0
 14 20  1  0
 14 13  1  0
 14 15  1  1
 16 15  1  0
 17 16  1  0
 18 17  1  0
 19 18  1  0
 20 27  1  0
 21 20  2  0
 22 23  1  0
 23 24  1  0
 24 25  1  0
 26 25  1  6
 26 28  1  0
 27 26  1  0
 28 30  2  0
 28 29  1  0
M  END
$$$$
