YKM.pdb
     RDKit          3D

 30 30  0  0  1  0  0  0  0  0999 V2000
   19.8530  -11.6062  -18.3329 O   0  0  0  0  0  0  0  0  0  0  0  0
   20.3595  -12.8573  -18.0136 C   0  0  0  0  0  0  0  0  0  0  0  0
   19.9195  -13.9749  -18.6596 C   0  0  0  0  0  0  0  0  0  0  0  0
   20.4279  -15.2245  -18.3380 C   0  0  0  0  0  0  0  0  0  0  0  0
   21.3824  -15.2791  -17.3510 C   0  0  0  0  0  0  0  0  0  0  0  0
   21.9373  -16.6073  -16.9938 C   0  0  0  0  0  0  0  0  0  0  0  0
   23.2759  -16.7221  -17.7102 C   0  0  2  0  0  0  0  0  0  0  0  0
   23.1151  -16.8465  -19.1290 N   0  0  0  0  0  0  0  0  0  0  0  0
   23.9341  -17.9404  -17.1812 C   0  0  0  0  0  0  0  0  0  0  0  0
   23.6139  -19.0744  -17.6653 O   0  0  0  0  0  0  0  0  0  0  0  0
   21.8440  -14.1764  -16.6849 C   0  0  0  0  0  0  0  0  0  0  0  0
   21.3145  -12.9475  -17.0321 C   0  0  0  0  0  0  0  0  0  0  0  0
   24.8881  -17.8328  -16.1685 N   0  0  0  0  0  0  0  0  0  0  0  0
   25.5965  -19.1150  -15.7398 C   0  0  1  0  0  0  0  0  0  0  0  0
   26.9839  -18.7088  -15.5556 C   0  0  0  0  0  0  0  0  0  0  0  0
   28.0082  -19.6920  -15.1952 C   0  0  0  0  0  0  0  0  0  0  0  0
   28.0176  -20.9201  -16.0215 C   0  0  0  0  0  0  0  0  0  0  0  0
   29.0995  -21.8402  -15.4313 C   0  0  0  0  0  0  0  0  0  0  0  0
   29.0480  -23.0809  -16.1675 N   0  0  0  0  0  0  0  0  0  0  0  0
   24.7421  -19.5844  -14.6493 C   0  0  0  0  0  0  0  0  0  0  0  0
   24.4589  -18.8031  -13.6545 O   0  0  0  0  0  0  0  0  0  0  0  0
   19.2008  -24.1065  -11.5286 C   0  0  0  0  0  0  0  0  0  0  0  0
   20.3141  -23.9784  -12.9809 S   0  0  0  0  0  0  0  0  0  0  0  0
   21.4750  -22.6153  -12.6043 C   0  0  0  0  0  0  0  0  0  0  0  0
   22.3001  -22.2669  -13.7945 C   0  0  0  0  0  0  0  0  0  0  0  0
   23.3537  -21.2306  -13.3874 C   0  0  2  0  0  0  0  0  0  0  0  0
   24.1341  -20.8599  -14.5434 N   0  0  0  0  0  0  0  0  0  0  0  0
   24.1630  -21.6979  -12.2701 C   0  0  0  0  0  0  0  0  0  0  0  0
   23.7752  -21.3661  -10.9490 O   0  0  0  0  0  0  0  0  0  0  0  0
   25.2067  -22.3866  -12.3342 O   0  0  0  0  0  0  0  0  0  0  0  0
  2  1  1  0
  3  2  2  0
  4  3  1  0
  5  4  2  0
  5 11  1  0
  6  5  1  0
  7  8  1  6
  7  6  1  0
  9  7  1  0
 10  9  2  0
 11 12  2  0
 12  2  1  0
 13  9  1  0
 14 20  1  0
 14 13  1  0
 14 15  1  1
 16 15  1  0
 17 16  1  0
 18 17  1  0
 19 18  1  0
 20 27  1  0
 21 20  2  0
 22 23  1  0
 23 24  1  0
 24 25  1  0
 26 25  1  6
 26 28  1  0
 27 26  1  0
 28 30  2  0
 28 29  1  0
M  END
$$$$
