YKM.pdb
     RDKit          3D

 30 30  0  0  1  0  0  0  0  0999 V2000
   12.3043  -13.4277  -16.6764 O   0  0  0  0  0  0  0  0  0  0  0  0
   13.1873  -12.4383  -16.2701 C   0  0  0  0  0  0  0  0  0  0  0  0
   13.1502  -11.9479  -14.9981 C   0  0  0  0  0  0  0  0  0  0  0  0
   14.0345  -10.9586  -14.5950 C   0  0  0  0  0  0  0  0  0  0  0  0
   14.9360  -10.5043  -15.5272 C   0  0  0  0  0  0  0  0  0  0  0  0
   15.8894   -9.4462  -15.1137 C   0  0  0  0  0  0  0  0  0  0  0  0
   17.0524  -10.1555  -14.4336 C   0  0  2  0  0  0  0  0  0  0  0  0
   16.7051  -10.6171  -13.1219 N   0  0  0  0  0  0  0  0  0  0  0  0
   18.1495   -9.1639  -14.3315 C   0  0  0  0  0  0  0  0  0  0  0  0
   18.2049   -8.4082  -13.3074 O   0  0  0  0  0  0  0  0  0  0  0  0
   14.9981  -10.9761  -16.8103 C   0  0  0  0  0  0  0  0  0  0  0  0
   14.1011  -11.9621  -17.1766 C   0  0  0  0  0  0  0  0  0  0  0  0
   19.1004   -9.0700  -15.3484 N   0  0  0  0  0  0  0  0  0  0  0  0
   20.1754   -7.9965  -15.1999 C   0  0  1  0  0  0  0  0  0  0  0  0
   21.4074   -8.6732  -15.5847 C   0  0  0  0  0  0  0  0  0  0  0  0
   21.6203   -9.1074  -16.9674 C   0  0  0  0  0  0  0  0  0  0  0  0
   22.9924   -9.5693  -17.2759 C   0  0  0  0  0  0  0  0  0  0  0  0
   23.0166   -9.9080  -18.7759 C   0  0  0  0  0  0  0  0  0  0  0  0
   24.3360  -10.4119  -19.0751 N   0  0  0  0  0  0  0  0  0  0  0  0
   19.5985   -6.8825  -15.9518 C   0  0  0  0  0  0  0  0  0  0  0  0
   18.8379   -7.1066  -16.9772 O   0  0  0  0  0  0  0  0  0  0  0  0
   14.9692   -2.8146  -15.2164 C   0  0  0  0  0  0  0  0  0  0  0  0
   16.3206   -1.6405  -15.6165 S   0  0  0  0  0  0  0  0  0  0  0  0
   17.5719   -2.6098  -16.5344 C   0  0  0  0  0  0  0  0  0  0  0  0
   18.1573   -3.6797  -15.6792 C   0  0  0  0  0  0  0  0  0  0  0  0
   19.1625   -4.4883  -16.5070 C   0  0  2  0  0  0  0  0  0  0  0  0
   19.7637   -5.5027  -15.6748 N   0  0  0  0  0  0  0  0  0  0  0  0
   20.1372   -3.6256  -17.1608 C   0  0  0  0  0  0  0  0  0  0  0  0
   19.7174   -2.7900  -18.2244 O   0  0  0  0  0  0  0  0  0  0  0  0
   21.3553   -3.5265  -16.8887 O   0  0  0  0  0  0  0  0  0  0  0  0
  2  1  1  0
  3  2  2  0
  4  3  1  0
  5  4  2  0
  5 11  1  0
  6  5  1  0
  7  8  1  1
  7  6  1  0
  9  7  1  0
 10  9  2  0
 11 12  2  0
 12  2  1  0
 13  9  1  0
 14 20  1  0
 14 13  1  0
 14 15  1  6
 16 15  1  0
 17 16  1  0
 18 17  1  0
 19 18  1  0
 20 27  1  0
 21 20  2  0
 22 23  1  0
 23 24  1  0
 24 25  1  0
 26 25  1  1
 26 28  1  0
 27 26  1  0
 28 30  2  0
 28 29  1  0
M  END
$$$$
