KSL.pdb
     RDKit          3D

 24 23  0  0  1  0  0  0  0  0999 V2000
   17.4744  -11.3898  -15.4635 N   0  0  0  0  0  0  0  0  0  0  0  0
   18.4401  -10.6158  -16.2178 C   0  0  1  0  0  0  0  0  0  0  0  0
   17.7261   -9.7339  -17.1928 C   0  0  0  0  0  0  0  0  0  0  0  0
   16.9746  -10.4985  -18.2284 C   0  0  0  0  0  0  0  0  0  0  0  0
   16.3489   -9.6365  -19.2908 C   0  0  0  0  0  0  0  0  0  0  0  0
   15.6421  -10.5210  -20.3228 C   0  0  0  0  0  0  0  0  0  0  0  0
   15.0823   -9.6957  -21.3731 N   0  0  0  0  0  0  0  0  0  0  0  0
   19.2877   -9.7984  -15.2793 C   0  0  0  0  0  0  0  0  0  0  0  0
   18.7781   -9.3614  -14.2298 O   0  0  0  0  0  0  0  0  0  0  0  0
   23.2797   -9.1541  -16.2739 O   0  0  0  0  0  0  0  0  0  0  0  0
   22.9062   -9.2187  -14.9489 C   0  0  0  0  0  0  0  0  0  0  0  0
   21.4606   -8.7496  -14.7358 C   0  0  2  0  0  0  0  0  0  0  0  0
   20.6382   -9.5505  -15.6165 N   0  0  0  0  0  0  0  0  0  0  0  0
   21.3445   -7.3037  -15.1246 C   0  0  0  0  0  0  0  0  0  0  0  0
   20.7775   -6.9567  -16.1954 O   0  0  0  0  0  0  0  0  0  0  0  0
   20.5161   -2.5042  -16.5435 C   0  0  0  0  0  0  0  0  0  0  0  0
   20.1597   -2.9563  -15.1473 C   0  0  1  0  0  0  0  0  0  0  0  0
   18.6518   -2.6963  -15.0019 C   0  0  0  0  0  0  0  0  0  0  0  0
   20.3656   -4.4070  -14.8970 C   0  0  0  0  0  0  0  0  0  0  0  0
   21.7549   -4.8596  -14.6391 C   0  0  2  0  0  0  0  0  0  0  0  0
   21.8672   -6.2663  -14.3053 N   0  0  0  0  0  0  0  0  0  0  0  0
   22.5152   -4.0841  -13.6489 C   0  0  0  0  0  0  0  0  0  0  0  0
   23.0192   -2.8049  -13.9135 O   0  0  0  0  0  0  0  0  0  0  0  0
   22.7583   -4.5291  -12.4960 O   0  0  0  0  0  0  0  0  0  0  0  0
  2  1  1  1
  3  2  1  0
  4  3  1  0
  5  4  1  0
  5  6  1  0
  7  6  1  0
  8  2  1  0
  8  9  2  0
 12 11  1  6
 11 10  1  0
 12 13  1  0
 13  8  1  0
 14 12  1  0
 15 14  2  0
 17 16  1  6
 18 17  1  0
 19 17  1  0
 20 19  1  1
 20 21  1  0
 21 14  1  0
 22 20  1  0
 23 22  1  0
 24 22  2  0
M  END
$$$$
