KSL.pdb
     RDKit          3D

 24 23  0  0  1  0  0  0  0  0999 V2000
   28.2749  -20.4376  -14.0204 N   0  0  0  0  0  0  0  0  0  0  0  0
   27.5767  -19.1676  -14.0265 C   0  0  1  0  0  0  0  0  0  0  0  0
   26.8855  -18.9803  -15.3400 C   0  0  0  0  0  0  0  0  0  0  0  0
   27.5530  -19.7049  -16.4586 C   0  0  0  0  0  0  0  0  0  0  0  0
   27.1337  -21.1435  -16.5916 C   0  0  0  0  0  0  0  0  0  0  0  0
   27.7281  -21.7378  -17.8724 C   0  0  0  0  0  0  0  0  0  0  0  0
   27.4610  -23.1605  -17.9215 N   0  0  0  0  0  0  0  0  0  0  0  0
   26.5886  -19.1201  -12.8912 C   0  0  0  0  0  0  0  0  0  0  0  0
   25.6825  -18.2654  -12.9138 O   0  0  0  0  0  0  0  0  0  0  0  0
   25.1636  -22.2363  -11.3701 O   0  0  0  0  0  0  0  0  0  0  0  0
   24.6716  -20.9912  -11.0436 C   0  0  0  0  0  0  0  0  0  0  0  0
   25.7945  -19.9966  -10.7191 C   0  0  2  0  0  0  0  0  0  0  0  0
   26.7180  -20.0474  -11.8318 N   0  0  0  0  0  0  0  0  0  0  0  0
   26.4992  -20.4333   -9.4670 C   0  0  0  0  0  0  0  0  0  0  0  0
   27.4943  -21.2055   -9.5106 O   0  0  0  0  0  0  0  0  0  0  0  0
   28.6392  -18.2641   -5.0405 C   0  0  0  0  0  0  0  0  0  0  0  0
   28.2192  -19.2415   -6.1124 C   0  0  1  0  0  0  0  0  0  0  0  0
   29.2805  -20.3532   -6.0957 C   0  0  0  0  0  0  0  0  0  0  0  0
   26.9101  -19.9016   -5.8671 C   0  0  0  0  0  0  0  0  0  0  0  0
   26.3543  -20.7326   -6.9635 C   0  0  2  0  0  0  0  0  0  0  0  0
   26.0766  -19.9967   -8.1819 N   0  0  0  0  0  0  0  0  0  0  0  0
   25.1735  -21.5408   -6.6285 C   0  0  0  0  0  0  0  0  0  0  0  0
   23.9193  -21.3283   -7.2138 O   0  0  0  0  0  0  0  0  0  0  0  0
   25.2225  -22.4787   -5.7894 O   0  0  0  0  0  0  0  0  0  0  0  0
  2  1  1  6
  3  2  1  0
  4  3  1  0
  5  4  1  0
  5  6  1  0
  7  6  1  0
  8  2  1  0
  8  9  2  0
 12 11  1  6
 11 10  1  0
 12 13  1  0
 13  8  1  0
 14 12  1  0
 15 14  2  0
 17 16  1  1
 18 17  1  0
 19 17  1  0
 20 19  1  1
 20 21  1  0
 21 14  1  0
 22 20  1  0
 23 22  1  0
 24 22  2  0
M  END
$$$$
