KSL.pdb
     RDKit          3D

 24 23  0  0  1  0  0  0  0  0999 V2000
   24.1741  -21.2653  -16.5571 N   0  0  0  0  0  0  0  0  0  0  0  0
   25.4255  -21.1841  -17.2837 C   0  0  1  0  0  0  0  0  0  0  0  0
   25.3783  -22.0953  -18.4692 C   0  0  0  0  0  0  0  0  0  0  0  0
   25.3810  -23.5384  -18.0958 C   0  0  0  0  0  0  0  0  0  0  0  0
   26.6871  -24.0199  -17.5252 C   0  0  0  0  0  0  0  0  0  0  0  0
   26.6338  -25.5376  -17.3238 C   0  0  0  0  0  0  0  0  0  0  0  0
   27.8604  -25.9920  -16.7020 N   0  0  0  0  0  0  0  0  0  0  0  0
   25.6786  -19.7628  -17.7119 C   0  0  0  0  0  0  0  0  0  0  0  0
   24.8742  -19.2131  -18.4882 O   0  0  0  0  0  0  0  0  0  0  0  0
   29.1751  -17.9175  -16.4180 O   0  0  0  0  0  0  0  0  0  0  0  0
   28.0601  -17.1372  -16.6348 C   0  0  0  0  0  0  0  0  0  0  0  0
   27.1214  -17.7543  -17.6805 C   0  0  2  0  0  0  0  0  0  0  0  0
   26.8226  -19.0931  -17.2202 N   0  0  0  0  0  0  0  0  0  0  0  0
   27.8299  -17.8290  -19.0024 C   0  0  0  0  0  0  0  0  0  0  0  0
   28.2715  -18.9221  -19.4482 O   0  0  0  0  0  0  0  0  0  0  0  0
   26.4953  -16.5405  -23.6206 C   0  0  0  0  0  0  0  0  0  0  0  0
   26.7434  -17.4219  -22.4195 C   0  0  1  0  0  0  0  0  0  0  0  0
   26.1980  -18.8064  -22.8041 C   0  0  0  0  0  0  0  0  0  0  0  0
   28.1779  -17.6112  -22.0788 C   0  0  0  0  0  0  0  0  0  0  0  0
   28.7587  -16.7003  -21.0618 C   0  0  2  0  0  0  0  0  0  0  0  0
   28.0331  -16.6745  -19.8065 N   0  0  0  0  0  0  0  0  0  0  0  0
   28.9934  -15.3148  -21.4923 C   0  0  0  0  0  0  0  0  0  0  0  0
   29.8307  -14.9866  -22.5654 O   0  0  0  0  0  0  0  0  0  0  0  0
   28.4499  -14.3355  -20.9162 O   0  0  0  0  0  0  0  0  0  0  0  0
  2  1  1  6
  3  2  1  0
  4  3  1  0
  5  4  1  0
  5  6  1  0
  7  6  1  0
  8  2  1  0
  8  9  2  0
 12 11  1  1
 11 10  1  0
 12 13  1  0
 13  8  1  0
 14 12  1  0
 15 14  2  0
 17 16  1  6
 18 17  1  0
 19 17  1  0
 20 19  1  6
 20 21  1  0
 21 14  1  0
 22 20  1  0
 23 22  1  0
 24 22  2  0
M  END
$$$$
