KSL.pdb
     RDKit          3D

 24 23  0  0  1  0  0  0  0  0999 V2000
   22.0552  -17.5778  -18.3174 N   0  0  0  0  0  0  0  0  0  0  0  0
   22.8016  -17.2617  -17.1160 C   0  0  1  0  0  0  0  0  0  0  0  0
   21.8994  -16.5985  -16.1238 C   0  0  0  0  0  0  0  0  0  0  0  0
   20.5337  -16.3375  -16.6610 C   0  0  0  0  0  0  0  0  0  0  0  0
   19.5168  -17.3778  -16.2777 C   0  0  0  0  0  0  0  0  0  0  0  0
   18.1511  -17.0043  -16.8626 C   0  0  0  0  0  0  0  0  0  0  0  0
   17.1897  -18.0458  -16.5644 N   0  0  0  0  0  0  0  0  0  0  0  0
   23.3997  -18.5172  -16.5386 C   0  0  0  0  0  0  0  0  0  0  0  0
   22.6428  -19.3790  -16.0523 O   0  0  0  0  0  0  0  0  0  0  0  0
   27.4464  -19.3978  -17.2421 O   0  0  0  0  0  0  0  0  0  0  0  0
   26.4377  -20.3295  -17.1258 C   0  0  0  0  0  0  0  0  0  0  0  0
   25.3893  -19.9143  -16.0846 C   0  0  2  0  0  0  0  0  0  0  0  0
   24.8037  -18.6816  -16.5651 N   0  0  0  0  0  0  0  0  0  0  0  0
   26.0676  -19.6634  -14.7685 C   0  0  0  0  0  0  0  0  0  0  0  0
   26.5875  -18.5466  -14.5019 O   0  0  0  0  0  0  0  0  0  0  0  0
   24.7055  -21.3188   -9.5020 C   0  0  0  0  0  0  0  0  0  0  0  0
   25.2970  -20.5241  -10.6420 C   0  0  1  0  0  0  0  0  0  0  0  0
   25.9311  -19.2828   -9.9941 C   0  0  0  0  0  0  0  0  0  0  0  0
   26.3842  -21.2190  -11.3799 C   0  0  0  0  0  0  0  0  0  0  0  0
   26.9485  -20.5271  -12.5649 C   0  0  2  0  0  0  0  0  0  0  0  0
   26.1532  -20.6705  -13.7690 N   0  0  0  0  0  0  0  0  0  0  0  0
   28.3473  -20.8385  -12.8912 C   0  0  0  0  0  0  0  0  0  0  0  0
   28.7232  -21.4839  -14.0756 O   0  0  0  0  0  0  0  0  0  0  0  0
   29.2957  -20.5397  -12.1183 O   0  0  0  0  0  0  0  0  0  0  0  0
  2  1  1  6
  3  2  1  0
  4  3  1  0
  5  4  1  0
  5  6  1  0
  7  6  1  0
  8  2  1  0
  8  9  2  0
 12 11  1  6
 11 10  1  0
 12 13  1  0
 13  8  1  0
 14 12  1  0
 15 14  2  0
 17 16  1  1
 18 17  1  0
 19 17  1  0
 20 19  1  1
 20 21  1  0
 21 14  1  0
 22 20  1  0
 23 22  1  0
 24 22  2  0
M  END
$$$$
