KSL.pdb
     RDKit          3D

 24 23  0  0  1  0  0  0  0  0999 V2000
   19.0364  -11.5170  -15.4825 N   0  0  0  0  0  0  0  0  0  0  0  0
   18.2469  -10.3018  -15.5035 C   0  0  1  0  0  0  0  0  0  0  0  0
   16.8029  -10.6438  -15.6934 C   0  0  0  0  0  0  0  0  0  0  0  0
   16.4572  -12.0076  -15.2010 C   0  0  0  0  0  0  0  0  0  0  0  0
   15.0072  -12.3700  -15.3720 C   0  0  0  0  0  0  0  0  0  0  0  0
   14.7772  -13.8111  -14.9060 C   0  0  0  0  0  0  0  0  0  0  0  0
   13.8009  -13.8295  -13.8362 N   0  0  0  0  0  0  0  0  0  0  0  0
   18.4507   -9.5356  -14.2233 C   0  0  0  0  0  0  0  0  0  0  0  0
   18.7894  -10.1540  -13.1962 O   0  0  0  0  0  0  0  0  0  0  0  0
   18.0033   -5.3638  -14.2464 O   0  0  0  0  0  0  0  0  0  0  0  0
   18.8851   -5.9896  -13.3922 C   0  0  0  0  0  0  0  0  0  0  0  0
   18.4022   -7.3907  -12.9931 C   0  0  2  0  0  0  0  0  0  0  0  0
   18.2516   -8.1358  -14.2241 N   0  0  0  0  0  0  0  0  0  0  0  0
   17.0688   -7.2815  -12.3110 C   0  0  0  0  0  0  0  0  0  0  0  0
   15.9922   -7.3413  -12.9637 O   0  0  0  0  0  0  0  0  0  0  0  0
   13.2762   -7.7543   -8.2628 C   0  0  0  0  0  0  0  0  0  0  0  0
   14.4795   -6.8762   -8.0137 C   0  0  1  0  0  0  0  0  0  0  0  0
   14.8449   -7.0868   -6.5357 C   0  0  0  0  0  0  0  0  0  0  0  0
   15.6842   -7.2414   -8.8042 C   0  0  0  0  0  0  0  0  0  0  0  0
   15.7058   -6.8375  -10.2318 C   0  0  2  0  0  0  0  0  0  0  0  0
   16.9621   -7.1066  -10.9044 N   0  0  0  0  0  0  0  0  0  0  0  0
   15.3121   -5.4508  -10.5184 C   0  0  0  0  0  0  0  0  0  0  0  0
   16.2397   -4.4487  -10.8278 O   0  0  0  0  0  0  0  0  0  0  0  0
   14.1081   -5.0817  -10.5025 O   0  0  0  0  0  0  0  0  0  0  0  0
  2  1  1  1
  3  2  1  0
  4  3  1  0
  5  4  1  0
  5  6  1  0
  7  6  1  0
  8  2  1  0
  8  9  2  0
 12 11  1  6
 11 10  1  0
 12 13  1  0
 13  8  1  0
 14 12  1  0
 15 14  2  0
 17 16  1  6
 18 17  1  0
 19 17  1  0
 20 19  1  1
 20 21  1  0
 21 14  1  0
 22 20  1  0
 23 22  1  0
 24 22  2  0
M  END
$$$$
