KSL.pdb
     RDKit          3D

 24 23  0  0  1  0  0  0  0  0999 V2000
   26.0563  -22.7229  -14.5375 N   0  0  0  0  0  0  0  0  0  0  0  0
   25.7167  -21.3150  -14.4825 C   0  0  1  0  0  0  0  0  0  0  0  0
   25.9070  -20.8061  -13.0886 C   0  0  0  0  0  0  0  0  0  0  0  0
   24.6212  -20.5896  -12.3664 C   0  0  0  0  0  0  0  0  0  0  0  0
   23.5931  -21.6596  -12.6140 C   0  0  0  0  0  0  0  0  0  0  0  0
   22.2760  -21.2773  -11.9315 C   0  0  0  0  0  0  0  0  0  0  0  0
   21.2803  -22.2988  -12.1827 N   0  0  0  0  0  0  0  0  0  0  0  0
   26.5697  -20.5433  -15.4542 C   0  0  0  0  0  0  0  0  0  0  0  0
   27.6317  -21.0512  -15.8619 O   0  0  0  0  0  0  0  0  0  0  0  0
   25.4182  -19.4044  -18.6729 O   0  0  0  0  0  0  0  0  0  0  0  0
   26.7082  -19.4292  -18.1889 C   0  0  0  0  0  0  0  0  0  0  0  0
   26.8635  -18.5754  -16.9231 C   0  0  2  0  0  0  0  0  0  0  0  0
   26.1405  -19.2639  -15.8759 N   0  0  0  0  0  0  0  0  0  0  0  0
   26.2427  -17.2275  -17.1532 C   0  0  0  0  0  0  0  0  0  0  0  0
   25.0068  -17.0394  -16.9929 O   0  0  0  0  0  0  0  0  0  0  0  0
   29.2211  -12.5083  -16.3889 C   0  0  0  0  0  0  0  0  0  0  0  0
   28.1620  -13.5846  -16.4129 C   0  0  1  0  0  0  0  0  0  0  0  0
   27.1437  -13.1855  -15.3331 C   0  0  0  0  0  0  0  0  0  0  0  0
   27.4088  -13.6807  -17.6908 C   0  0  0  0  0  0  0  0  0  0  0  0
   26.4473  -14.8025  -17.8279 C   0  0  2  0  0  0  0  0  0  0  0  0
   27.0186  -16.1082  -17.5604 N   0  0  0  0  0  0  0  0  0  0  0  0
   25.7069  -14.8693  -19.0957 C   0  0  0  0  0  0  0  0  0  0  0  0
   24.7219  -13.9384  -19.4476 O   0  0  0  0  0  0  0  0  0  0  0  0
   25.9180  -15.7747  -19.9453 O   0  0  0  0  0  0  0  0  0  0  0  0
  2  1  1  1
  3  2  1  0
  4  3  1  0
  5  4  1  0
  5  6  1  0
  7  6  1  0
  8  2  1  0
  8  9  2  0
 12 11  1  6
 11 10  1  0
 12 13  1  0
 13  8  1  0
 14 12  1  0
 15 14  2  0
 17 16  1  6
 18 17  1  0
 19 17  1  0
 20 19  1  6
 20 21  1  0
 21 14  1  0
 22 20  1  0
 23 22  1  0
 24 22  2  0
M  END
$$$$
