KSL.pdb
     RDKit          3D

 24 23  0  0  1  0  0  0  0  0999 V2000
   20.6475  -17.1896  -17.4345 N   0  0  0  0  0  0  0  0  0  0  0  0
   21.7668  -16.9286  -16.5516 C   0  0  1  0  0  0  0  0  0  0  0  0
   21.2906  -16.8923  -15.1337 C   0  0  0  0  0  0  0  0  0  0  0  0
   20.4457  -18.0659  -14.7723 C   0  0  0  0  0  0  0  0  0  0  0  0
   21.1655  -19.1122  -13.9659 C   0  0  0  0  0  0  0  0  0  0  0  0
   20.2351  -20.3041  -13.7197 C   0  0  0  0  0  0  0  0  0  0  0  0
   20.9124  -21.2939  -12.9075 N   0  0  0  0  0  0  0  0  0  0  0  0
   22.8217  -17.9874  -16.7340 C   0  0  0  0  0  0  0  0  0  0  0  0
   22.4686  -19.1556  -16.9846 O   0  0  0  0  0  0  0  0  0  0  0  0
   26.8581  -16.8433  -16.7663 O   0  0  0  0  0  0  0  0  0  0  0  0
   26.3635  -17.8550  -17.5606 C   0  0  0  0  0  0  0  0  0  0  0  0
   25.2113  -18.6076  -16.8812 C   0  0  2  0  0  0  0  0  0  0  0  0
   24.1832  -17.6250  -16.6155 N   0  0  0  0  0  0  0  0  0  0  0  0
   25.6934  -19.1873  -15.5824 C   0  0  0  0  0  0  0  0  0  0  0  0
   25.2729  -18.7548  -14.4758 O   0  0  0  0  0  0  0  0  0  0  0  0
   24.3556  -20.8409  -11.5564 C   0  0  0  0  0  0  0  0  0  0  0  0
   25.4662  -20.3232  -12.4392 C   0  0  1  0  0  0  0  0  0  0  0  0
   26.6313  -20.0006  -11.4900 C   0  0  0  0  0  0  0  0  0  0  0  0
   25.9826  -21.3099  -13.4238 C   0  0  0  0  0  0  0  0  0  0  0  0
   27.0861  -20.8674  -14.3114 C   0  0  2  0  0  0  0  0  0  0  0  0
   26.6418  -20.2455  -15.5438 N   0  0  0  0  0  0  0  0  0  0  0  0
   28.0985  -21.8808  -14.6402 C   0  0  0  0  0  0  0  0  0  0  0  0
   29.0849  -22.2880  -13.7336 O   0  0  0  0  0  0  0  0  0  0  0  0
   28.1369  -22.4459  -15.7651 O   0  0  0  0  0  0  0  0  0  0  0  0
  2  1  1  6
  3  2  1  0
  4  3  1  0
  5  4  1  0
  5  6  1  0
  7  6  1  0
  8  2  1  0
  8  9  2  0
 12 11  1  1
 11 10  1  0
 12 13  1  0
 13  8  1  0
 14 12  1  0
 15 14  2  0
 17 16  1  1
 18 17  1  0
 19 17  1  0
 20 19  1  6
 20 21  1  0
 21 14  1  0
 22 20  1  0
 23 22  1  0
 24 22  2  0
M  END
$$$$
