KSL.pdb
     RDKit          3D

 24 23  0  0  1  0  0  0  0  0999 V2000
   28.0265  -22.9114  -18.1191 N   0  0  0  0  0  0  0  0  0  0  0  0
   26.6484  -23.0512  -17.6926 C   0  0  1  0  0  0  0  0  0  0  0  0
   26.4797  -24.3404  -16.9525 C   0  0  0  0  0  0  0  0  0  0  0  0
   27.3396  -25.4352  -17.4853 C   0  0  0  0  0  0  0  0  0  0  0  0
   26.9979  -26.7979  -16.9471 C   0  0  0  0  0  0  0  0  0  0  0  0
   27.9149  -27.8481  -17.5820 C   0  0  0  0  0  0  0  0  0  0  0  0
   27.7028  -29.1317  -16.9456 N   0  0  0  0  0  0  0  0  0  0  0  0
   26.2586  -21.8828  -16.8264 C   0  0  0  0  0  0  0  0  0  0  0  0
   27.1045  -21.0006  -16.5849 O   0  0  0  0  0  0  0  0  0  0  0  0
   22.4721  -20.6058  -16.7108 O   0  0  0  0  0  0  0  0  0  0  0  0
   23.5682  -19.8691  -16.3173 C   0  0  0  0  0  0  0  0  0  0  0  0
   24.5508  -20.7019  -15.4828 C   0  0  2  0  0  0  0  0  0  0  0  0
   24.9431  -21.8208  -16.3119 N   0  0  0  0  0  0  0  0  0  0  0  0
   23.8522  -21.2127  -14.2555 C   0  0  0  0  0  0  0  0  0  0  0  0
   23.1497  -22.2586  -14.2890 O   0  0  0  0  0  0  0  0  0  0  0  0
   25.8222  -20.1416   -9.1231 C   0  0  0  0  0  0  0  0  0  0  0  0
   25.2203  -20.7826  -10.3510 C   0  0  1  0  0  0  0  0  0  0  0  0
   25.3399  -22.2983  -10.1258 C   0  0  0  0  0  0  0  0  0  0  0  0
   23.7753  -20.4967  -10.5510 C   0  0  0  0  0  0  0  0  0  0  0  0
   23.1739  -20.9157  -11.8410 C   0  0  2  0  0  0  0  0  0  0  0  0
   23.9519  -20.5417  -13.0063 N   0  0  0  0  0  0  0  0  0  0  0  0
   21.7779  -20.5146  -12.0651 C   0  0  0  0  0  0  0  0  0  0  0  0
   20.7058  -21.0785  -11.3629 O   0  0  0  0  0  0  0  0  0  0  0  0
   21.4635  -19.6333  -12.9081 O   0  0  0  0  0  0  0  0  0  0  0  0
  2  1  1  1
  3  2  1  0
  4  3  1  0
  5  4  1  0
  5  6  1  0
  7  6  1  0
  8  2  1  0
  8  9  2  0
 12 11  1  6
 11 10  1  0
 12 13  1  0
 13  8  1  0
 14 12  1  0
 15 14  2  0
 17 16  1  1
 18 17  1  0
 19 17  1  0
 20 19  1  1
 20 21  1  0
 21 14  1  0
 22 20  1  0
 23 22  1  0
 24 22  2  0
M  END
$$$$
