KSL.pdb
     RDKit          3D

 24 23  0  0  1  0  0  0  0  0999 V2000
   28.5424  -29.6321  -16.5744 N   0  0  0  0  0  0  0  0  0  0  0  0
   29.5364  -28.5841  -16.6933 C   0  0  1  0  0  0  0  0  0  0  0  0
   30.1966  -28.6673  -18.0332 C   0  0  0  0  0  0  0  0  0  0  0  0
   31.1366  -29.8183  -18.1494 C   0  0  0  0  0  0  0  0  0  0  0  0
   31.8664  -29.8814  -19.4634 C   0  0  0  0  0  0  0  0  0  0  0  0
   32.7772  -31.1129  -19.4890 C   0  0  0  0  0  0  0  0  0  0  0  0
   33.4465  -31.2000  -20.7705 N   0  0  0  0  0  0  0  0  0  0  0  0
   28.8888  -27.2386  -16.4993 C   0  0  0  0  0  0  0  0  0  0  0  0
   27.6703  -27.1852  -16.2454 O   0  0  0  0  0  0  0  0  0  0  0  0
   31.4223  -24.0613  -16.2268 O   0  0  0  0  0  0  0  0  0  0  0  0
   30.2250  -24.0071  -15.5465 C   0  0  0  0  0  0  0  0  0  0  0  0
   29.1179  -24.7869  -16.2689 C   0  0  2  0  0  0  0  0  0  0  0  0
   29.6829  -26.0742  -16.6110 N   0  0  0  0  0  0  0  0  0  0  0  0
   28.7374  -24.0601  -17.5267 C   0  0  0  0  0  0  0  0  0  0  0  0
   29.4090  -24.1874  -18.5856 O   0  0  0  0  0  0  0  0  0  0  0  0
   23.5499  -23.6681  -19.1523 C   0  0  0  0  0  0  0  0  0  0  0  0
   25.0522  -23.7641  -19.0312 C   0  0  1  0  0  0  0  0  0  0  0  0
   25.5215  -24.5025  -20.2949 C   0  0  0  0  0  0  0  0  0  0  0  0
   25.7553  -22.4544  -19.0199 C   0  0  0  0  0  0  0  0  0  0  0  0
   27.2180  -22.4728  -18.7716 C   0  0  2  0  0  0  0  0  0  0  0  0
   27.6070  -23.1997  -17.5786 N   0  0  0  0  0  0  0  0  0  0  0  0
   27.8891  -21.1654  -18.7595 C   0  0  0  0  0  0  0  0  0  0  0  0
   28.5099  -20.6432  -17.6183 O   0  0  0  0  0  0  0  0  0  0  0  0
   27.9452  -20.4341  -19.7834 O   0  0  0  0  0  0  0  0  0  0  0  0
  2  1  1  6
  3  2  1  0
  4  3  1  0
  5  4  1  0
  5  6  1  0
  7  6  1  0
  8  2  1  0
  8  9  2  0
 12 11  1  6
 11 10  1  0
 12 13  1  0
 13  8  1  0
 14 12  1  0
 15 14  2  0
 17 16  1  6
 18 17  1  0
 19 17  1  0
 20 19  1  1
 20 21  1  0
 21 14  1  0
 22 20  1  0
 23 22  1  0
 24 22  2  0
M  END
$$$$
