KSL.pdb
     RDKit          3D

 24 23  0  0  1  0  0  0  0  0999 V2000
   18.6958  -12.7666  -15.3012 N   0  0  0  0  0  0  0  0  0  0  0  0
   18.7344  -11.6130  -16.1776 C   0  0  1  0  0  0  0  0  0  0  0  0
   17.4452  -11.5097  -16.9295 C   0  0  0  0  0  0  0  0  0  0  0  0
   17.0329  -12.7963  -17.5592 C   0  0  0  0  0  0  0  0  0  0  0  0
   15.7276  -12.7222  -18.3034 C   0  0  0  0  0  0  0  0  0  0  0  0
   15.3890  -14.0966  -18.8893 C   0  0  0  0  0  0  0  0  0  0  0  0
   14.1369  -14.0247  -19.6137 N   0  0  0  0  0  0  0  0  0  0  0  0
   18.9848  -10.3654  -15.3724 C   0  0  0  0  0  0  0  0  0  0  0  0
   18.6544  -10.3447  -14.1714 O   0  0  0  0  0  0  0  0  0  0  0  0
   21.5319   -7.4589  -13.5374 O   0  0  0  0  0  0  0  0  0  0  0  0
   20.9451   -8.5291  -14.1772 C   0  0  0  0  0  0  0  0  0  0  0  0
   19.9164   -8.0793  -15.2237 C   0  0  2  0  0  0  0  0  0  0  0  0
   19.5880   -9.2531  -16.0031 N   0  0  0  0  0  0  0  0  0  0  0  0
   20.5369   -7.0451  -16.1184 C   0  0  0  0  0  0  0  0  0  0  0  0
   21.4361   -7.3503  -16.9472 O   0  0  0  0  0  0  0  0  0  0  0  0
   18.3851   -4.0560  -19.1488 C   0  0  0  0  0  0  0  0  0  0  0  0
   19.2402   -5.2850  -18.9510 C   0  0  1  0  0  0  0  0  0  0  0  0
   19.4523   -5.8705  -20.3562 C   0  0  0  0  0  0  0  0  0  0  0  0
   20.5923   -5.0133  -18.3965 C   0  0  0  0  0  0  0  0  0  0  0  0
   20.6770   -4.6668  -16.9563 C   0  0  2  0  0  0  0  0  0  0  0  0
   20.1391   -5.6813  -16.0705 N   0  0  0  0  0  0  0  0  0  0  0  0
   20.1145   -3.3653  -16.5693 C   0  0  0  0  0  0  0  0  0  0  0  0
   20.5822   -2.1529  -17.0907 O   0  0  0  0  0  0  0  0  0  0  0  0
   19.1716   -3.2653  -15.7404 O   0  0  0  0  0  0  0  0  0  0  0  0
  2  1  1  1
  3  2  1  0
  4  3  1  0
  5  4  1  0
  5  6  1  0
  7  6  1  0
  8  2  1  0
  8  9  2  0
 12 11  1  1
 11 10  1  0
 12 13  1  0
 13  8  1  0
 14 12  1  0
 15 14  2  0
 17 16  1  6
 18 17  1  0
 19 17  1  0
 20 19  1  6
 20 21  1  0
 21 14  1  0
 22 20  1  0
 23 22  1  0
 24 22  2  0
M  END
$$$$
