KSL.pdb
     RDKit          3D

 24 23  0  0  1  0  0  0  0  0999 V2000
   24.9154  -19.4792  -18.9303 N   0  0  0  0  0  0  0  0  0  0  0  0
   24.3316  -19.1590  -17.6430 C   0  0  1  0  0  0  0  0  0  0  0  0
   22.8520  -19.3742  -17.6947 C   0  0  0  0  0  0  0  0  0  0  0  0
   22.1408  -18.3432  -18.5029 C   0  0  0  0  0  0  0  0  0  0  0  0
   20.6413  -18.4540  -18.4525 C   0  0  0  0  0  0  0  0  0  0  0  0
   20.0125  -17.3146  -19.2607 C   0  0  0  0  0  0  0  0  0  0  0  0
   18.5726  -17.3418  -19.1060 N   0  0  0  0  0  0  0  0  0  0  0  0
   24.9580  -20.0095  -16.5699 C   0  0  0  0  0  0  0  0  0  0  0  0
   24.5864  -21.1916  -16.4416 O   0  0  0  0  0  0  0  0  0  0  0  0
   28.2191  -18.4998  -14.6161 O   0  0  0  0  0  0  0  0  0  0  0  0
   28.0276  -19.8643  -14.6400 C   0  0  0  0  0  0  0  0  0  0  0  0
   26.5389  -20.2349  -14.6813 C   0  0  2  0  0  0  0  0  0  0  0  0
   25.9505  -19.4414  -15.7385 N   0  0  0  0  0  0  0  0  0  0  0  0
   25.8995  -19.8720  -13.3718 C   0  0  0  0  0  0  0  0  0  0  0  0
   25.5742  -18.6830  -13.1089 O   0  0  0  0  0  0  0  0  0  0  0  0
   21.4498  -21.8296  -11.7711 C   0  0  0  0  0  0  0  0  0  0  0  0
   22.6461  -20.9133  -11.8709 C   0  0  1  0  0  0  0  0  0  0  0  0
   22.1112  -19.5029  -11.5757 C   0  0  0  0  0  0  0  0  0  0  0  0
   23.7129  -21.1799  -10.8706 C   0  0  0  0  0  0  0  0  0  0  0  0
   25.0292  -20.5331  -11.0951 C   0  0  2  0  0  0  0  0  0  0  0  0
   25.6339  -20.8496  -12.3747 N   0  0  0  0  0  0  0  0  0  0  0  0
   26.0359  -20.7313  -10.0429 C   0  0  0  0  0  0  0  0  0  0  0  0
   25.9470  -20.1222   -8.7853 O   0  0  0  0  0  0  0  0  0  0  0  0
   27.0440  -21.4668  -10.2132 O   0  0  0  0  0  0  0  0  0  0  0  0
  2  1  1  6
  3  2  1  0
  4  3  1  0
  5  4  1  0
  5  6  1  0
  7  6  1  0
  8  2  1  0
  8  9  2  0
 12 11  1  1
 11 10  1  0
 12 13  1  0
 13  8  1  0
 14 12  1  0
 15 14  2  0
 17 16  1  1
 18 17  1  0
 19 17  1  0
 20 19  1  1
 20 21  1  0
 21 14  1  0
 22 20  1  0
 23 22  1  0
 24 22  2  0
M  END
$$$$
