KSL.pdb
     RDKit          3D

 24 23  0  0  1  0  0  0  0  0999 V2000
   18.8311  -15.4804  -17.4888 N   0  0  0  0  0  0  0  0  0  0  0  0
   18.4573  -14.1725  -17.9891 C   0  0  1  0  0  0  0  0  0  0  0  0
   17.0336  -14.1980  -18.4481 C   0  0  0  0  0  0  0  0  0  0  0  0
   16.8675  -14.8058  -19.7990 C   0  0  0  0  0  0  0  0  0  0  0  0
   17.0485  -16.2990  -19.8241 C   0  0  0  0  0  0  0  0  0  0  0  0
   16.8326  -16.8209  -21.2481 C   0  0  0  0  0  0  0  0  0  0  0  0
   16.9895  -18.2606  -21.2706 N   0  0  0  0  0  0  0  0  0  0  0  0
   18.6536  -13.1368  -16.9139 C   0  0  0  0  0  0  0  0  0  0  0  0
   18.1551  -13.3315  -15.7889 O   0  0  0  0  0  0  0  0  0  0  0  0
   21.7487  -10.4652  -17.0671 O   0  0  0  0  0  0  0  0  0  0  0  0
   21.0417  -10.8043  -15.9339 C   0  0  0  0  0  0  0  0  0  0  0  0
   19.5382  -10.9362  -16.2126 C   0  0  2  0  0  0  0  0  0  0  0  0
   19.3985  -11.9727  -17.2124 N   0  0  0  0  0  0  0  0  0  0  0  0
   19.0190   -9.6395  -16.7640 C   0  0  0  0  0  0  0  0  0  0  0  0
   19.1409   -9.3511  -17.9849 O   0  0  0  0  0  0  0  0  0  0  0  0
   14.1458   -7.3739  -15.6580 C   0  0  0  0  0  0  0  0  0  0  0  0
   15.4439   -7.7644  -16.3239 C   0  0  1  0  0  0  0  0  0  0  0  0
   15.2346   -7.4989  -17.8232 C   0  0  0  0  0  0  0  0  0  0  0  0
   16.6184   -6.9528  -15.9098 C   0  0  0  0  0  0  0  0  0  0  0  0
   17.9479   -7.3797  -16.4116 C   0  0  2  0  0  0  0  0  0  0  0  0
   18.3695   -8.6834  -15.9365 N   0  0  0  0  0  0  0  0  0  0  0  0
   19.0518   -6.4310  -16.2085 C   0  0  0  0  0  0  0  0  0  0  0  0
   19.0924   -5.1734  -16.8227 O   0  0  0  0  0  0  0  0  0  0  0  0
   20.0322   -6.6968  -15.4639 O   0  0  0  0  0  0  0  0  0  0  0  0
  2  1  1  1
  3  2  1  0
  4  3  1  0
  5  4  1  0
  5  6  1  0
  7  6  1  0
  8  2  1  0
  8  9  2  0
 12 11  1  6
 11 10  1  0
 12 13  1  0
 13  8  1  0
 14 12  1  0
 15 14  2  0
 17 16  1  1
 18 17  1  0
 19 17  1  0
 20 19  1  1
 20 21  1  0
 21 14  1  0
 22 20  1  0
 23 22  1  0
 24 22  2  0
M  END
$$$$
