KSL.pdb
     RDKit          3D

 24 23  0  0  1  0  0  0  0  0999 V2000
   20.1702  -13.0650  -17.4280 N   0  0  0  0  0  0  0  0  0  0  0  0
   19.7645  -11.7316  -17.8252 C   0  0  1  0  0  0  0  0  0  0  0  0
   18.4048  -11.4354  -17.2759 C   0  0  0  0  0  0  0  0  0  0  0  0
   17.5664  -12.6561  -17.1055 C   0  0  0  0  0  0  0  0  0  0  0  0
   16.4593  -12.7834  -18.1161 C   0  0  0  0  0  0  0  0  0  0  0  0
   15.6248  -14.0317  -17.8125 C   0  0  0  0  0  0  0  0  0  0  0  0
   14.5625  -14.1594  -18.7887 N   0  0  0  0  0  0  0  0  0  0  0  0
   20.7696  -10.7226  -17.3362 C   0  0  0  0  0  0  0  0  0  0  0  0
   21.2850  -10.8784  -16.2127 O   0  0  0  0  0  0  0  0  0  0  0  0
   21.2414   -7.1519  -19.4532 O   0  0  0  0  0  0  0  0  0  0  0  0
   22.3578   -7.7316  -18.8906 C   0  0  0  0  0  0  0  0  0  0  0  0
   22.0029   -8.6067  -17.6808 C   0  0  2  0  0  0  0  0  0  0  0  0
   21.0996   -9.6271  -18.1669 N   0  0  0  0  0  0  0  0  0  0  0  0
   21.3005   -7.7698  -16.6506 C   0  0  0  0  0  0  0  0  0  0  0  0
   20.0651   -7.5334  -16.7301 O   0  0  0  0  0  0  0  0  0  0  0  0
   21.2728   -8.8452  -11.4679 C   0  0  0  0  0  0  0  0  0  0  0  0
   21.0113   -8.3403  -12.8670 C   0  0  1  0  0  0  0  0  0  0  0  0
   19.4820   -8.2598  -12.9973 C   0  0  0  0  0  0  0  0  0  0  0  0
   21.5322   -6.9746  -13.1376 C   0  0  0  0  0  0  0  0  0  0  0  0
   21.3412   -6.4356  -14.5067 C   0  0  2  0  0  0  0  0  0  0  0  0
   21.9952   -7.2094  -15.5443 N   0  0  0  0  0  0  0  0  0  0  0  0
   21.6818   -5.0188  -14.6981 C   0  0  0  0  0  0  0  0  0  0  0  0
   21.0504   -3.9863  -13.9940 O   0  0  0  0  0  0  0  0  0  0  0  0
   22.5686   -4.6494  -15.5125 O   0  0  0  0  0  0  0  0  0  0  0  0
  2  1  1  1
  3  2  1  0
  4  3  1  0
  5  4  1  0
  5  6  1  0
  7  6  1  0
  8  2  1  0
  8  9  2  0
 12 11  1  6
 11 10  1  0
 12 13  1  0
 13  8  1  0
 14 12  1  0
 15 14  2  0
 17 16  1  1
 18 17  1  0
 19 17  1  0
 20 19  1  1
 20 21  1  0
 21 14  1  0
 22 20  1  0
 23 22  1  0
 24 22  2  0
M  END
$$$$
