NMQ.pdb
     RDKit          3D

 26 25  0  0  1  0  0  0  0  0999 V2000
    8.2373  -12.2136   18.0329 N   0  0  0  0  0  0  0  0  0  0  0  0
    7.8219  -13.4035   18.6898 C   0  0  0  0  0  0  0  0  0  0  0  0
    7.7037  -14.4560   17.9911 O   0  0  0  0  0  0  0  0  0  0  0  0
    7.5372  -13.3891   20.1692 C   0  0  0  0  0  0  0  0  0  0  0  0
    8.5856  -14.2112   20.8395 C   0  0  2  0  0  0  0  0  0  0  0  0
    8.6294  -15.5657   20.3579 N   0  0  0  0  0  0  0  0  0  0  0  0
    8.5319  -14.1699   22.3063 C   0  0  0  0  0  0  0  0  0  0  0  0
    8.3681  -13.0673   22.8682 O   0  0  0  0  0  0  0  0  0  0  0  0
    7.1896  -11.5512   27.2243 C   0  0  0  0  0  0  0  0  0  0  0  0
    6.2853  -12.2405   25.8078 S   0  0  0  0  0  0  0  0  0  0  0  0
    7.4348  -13.1529   24.7035 C   0  0  0  0  0  0  0  0  0  0  0  0
    7.7080  -14.5065   25.2666 C   0  0  0  0  0  0  0  0  0  0  0  0
    8.6895  -15.3446   24.5495 C   0  0  2  0  0  0  0  0  0  0  0  0
    8.6570  -15.3309   23.1271 N   0  0  0  0  0  0  0  0  0  0  0  0
    8.8594  -16.7282   25.1325 C   0  0  0  0  0  0  0  0  0  0  0  0
    8.5432  -17.7185   24.4190 O   0  0  0  0  0  0  0  0  0  0  0  0
   11.6655  -16.8610   22.9651 N   0  0  0  0  0  0  0  0  0  0  0  0
   11.6883  -18.2280   23.3300 C   0  0  0  0  0  0  0  0  0  0  0  0
   12.3622  -19.0123   22.5835 O   0  0  0  0  0  0  0  0  0  0  0  0
   10.9969  -18.7673   24.4996 C   0  0  0  0  0  0  0  0  0  0  0  0
   11.3493  -18.1760   25.8190 C   0  0  0  0  0  0  0  0  0  0  0  0
   10.2541  -18.0457   26.7962 C   0  0  2  0  0  0  0  0  0  0  0  0
    9.3417  -16.9570   26.4168 N   0  0  0  0  0  0  0  0  0  0  0  0
   10.5281  -17.9971   28.2181 C   0  0  0  0  0  0  0  0  0  0  0  0
   11.2655  -19.0300   28.8458 O   0  0  0  0  0  0  0  0  0  0  0  0
   10.1712  -17.0897   29.0308 O   0  0  0  0  0  0  0  0  0  0  0  0
  2  1  1  0
  3  2  2  0
  4  2  1  0
  5  4  1  0
  5  7  1  0
  5  6  1  6
  7  8  2  0
  7 14  1  0
 10  9  1  0
 11 12  1  0
 11 10  1  0
 13 12  1  1
 14 13  1  0
 15 13  1  0
 15 23  1  0
 16 15  2  0
 17 18  1  0
 18 20  1  0
 19 18  2  0
 20 21  1  0
 22 21  1  6
 22 23  1  0
 22 24  1  0
 24 25  1  0
 26 24  2  0
M  END
$$$$
