NMQ.pdb
     RDKit          3D

 26 25  0  0  1  0  0  0  0  0999 V2000
    7.7617  -12.0967   18.7253 N   0  0  0  0  0  0  0  0  0  0  0  0
    8.0115  -13.4916   18.6169 C   0  0  0  0  0  0  0  0  0  0  0  0
    9.0010  -13.8639   17.9153 O   0  0  0  0  0  0  0  0  0  0  0  0
    7.1153  -14.4761   19.3224 C   0  0  0  0  0  0  0  0  0  0  0  0
    7.9829  -15.3707   20.1418 C   0  0  2  0  0  0  0  0  0  0  0  0
    7.4691  -16.7102   20.2442 N   0  0  0  0  0  0  0  0  0  0  0  0
    8.3225  -14.8289   21.4636 C   0  0  0  0  0  0  0  0  0  0  0  0
    9.3707  -14.1621   21.5855 O   0  0  0  0  0  0  0  0  0  0  0  0
    6.3527  -10.7182   26.4621 C   0  0  0  0  0  0  0  0  0  0  0  0
    5.9629  -12.4461   26.8644 S   0  0  0  0  0  0  0  0  0  0  0  0
    7.2278  -13.5666   26.1448 C   0  0  0  0  0  0  0  0  0  0  0  0
    6.8701  -13.8921   24.7341 C   0  0  0  0  0  0  0  0  0  0  0  0
    7.8596  -14.6600   23.9523 C   0  0  2  0  0  0  0  0  0  0  0  0
    7.5118  -15.0253   22.6219 N   0  0  0  0  0  0  0  0  0  0  0  0
    8.5238  -15.7748   24.7264 C   0  0  0  0  0  0  0  0  0  0  0  0
    7.9610  -16.9029   24.7481 O   0  0  0  0  0  0  0  0  0  0  0  0
   14.5323  -16.7446   23.9835 N   0  0  0  0  0  0  0  0  0  0  0  0
   14.1569  -17.7163   24.9412 C   0  0  0  0  0  0  0  0  0  0  0  0
   15.0406  -18.5769   25.2656 O   0  0  0  0  0  0  0  0  0  0  0  0
   12.8363  -17.7726   25.5654 C   0  0  0  0  0  0  0  0  0  0  0  0
   11.8665  -16.7115   25.1803 C   0  0  0  0  0  0  0  0  0  0  0  0
   10.5774  -16.7066   25.8941 C   0  0  2  0  0  0  0  0  0  0  0  0
    9.7199  -15.6117   25.4171 N   0  0  0  0  0  0  0  0  0  0  0  0
   10.5275  -16.7885   27.3397 C   0  0  0  0  0  0  0  0  0  0  0  0
   10.7524  -18.0206   28.0001 O   0  0  0  0  0  0  0  0  0  0  0  0
   10.2938  -15.8379   28.1477 O   0  0  0  0  0  0  0  0  0  0  0  0
  2  1  1  0
  3  2  2  0
  4  2  1  0
  5  4  1  0
  5  7  1  0
  5  6  1  1
  7  8  2  0
  7 14  1  0
 10  9  1  0
 11 12  1  0
 11 10  1  0
 13 12  1  1
 14 13  1  0
 15 13  1  0
 15 23  1  0
 16 15  2  0
 17 18  1  0
 18 20  1  0
 19 18  2  0
 20 21  1  0
 22 21  1  1
 22 23  1  0
 22 24  1  0
 24 25  1  0
 26 24  2  0
M  END
$$$$
