NMQ.pdb
     RDKit          3D

 26 25  0  0  1  0  0  0  0  0999 V2000
    9.2970  -15.7572   16.8697 N   0  0  0  0  0  0  0  0  0  0  0  0
    8.5043  -16.1187   17.9925 C   0  0  0  0  0  0  0  0  0  0  0  0
    7.7665  -17.1461   17.8913 O   0  0  0  0  0  0  0  0  0  0  0  0
    8.5564  -15.2920   19.2511 C   0  0  0  0  0  0  0  0  0  0  0  0
    8.7872  -16.2221   20.3939 C   0  0  2  0  0  0  0  0  0  0  0  0
    7.7895  -17.2537   20.4879 N   0  0  0  0  0  0  0  0  0  0  0  0
    8.9790  -15.5487   21.6846 C   0  0  0  0  0  0  0  0  0  0  0  0
   10.0373  -14.9151   21.8774 O   0  0  0  0  0  0  0  0  0  0  0  0
    7.3026  -11.1608   27.6259 C   0  0  0  0  0  0  0  0  0  0  0  0
    6.9598  -11.8647   25.9869 S   0  0  0  0  0  0  0  0  0  0  0  0
    7.3444  -13.6605   25.9738 C   0  0  0  0  0  0  0  0  0  0  0  0
    7.1251  -14.2139   24.6064 C   0  0  0  0  0  0  0  0  0  0  0  0
    8.1954  -15.0642   24.0484 C   0  0  2  0  0  0  0  0  0  0  0  0
    8.0132  -15.5801   22.7350 N   0  0  0  0  0  0  0  0  0  0  0  0
    8.7431  -16.0816   25.0220 C   0  0  0  0  0  0  0  0  0  0  0  0
    8.0414  -17.0967   25.2811 O   0  0  0  0  0  0  0  0  0  0  0  0
   13.9762  -15.3995   24.6799 N   0  0  0  0  0  0  0  0  0  0  0  0
   13.2664  -16.3837   23.9519 C   0  0  0  0  0  0  0  0  0  0  0  0
   13.5076  -16.4614   22.7020 O   0  0  0  0  0  0  0  0  0  0  0  0
   12.2978  -17.2977   24.5547 C   0  0  0  0  0  0  0  0  0  0  0  0
   12.0517  -17.1470   26.0146 C   0  0  0  0  0  0  0  0  0  0  0  0
   10.6473  -16.9930   26.4335 C   0  0  2  0  0  0  0  0  0  0  0  0
    9.9787  -15.9468   25.6463 N   0  0  0  0  0  0  0  0  0  0  0  0
   10.2989  -16.8659   27.8341 C   0  0  0  0  0  0  0  0  0  0  0  0
   10.7563  -17.8152   28.7798 O   0  0  0  0  0  0  0  0  0  0  0  0
    9.5903  -15.9545   28.3618 O   0  0  0  0  0  0  0  0  0  0  0  0
  2  1  1  0
  3  2  2  0
  4  2  1  0
  5  4  1  0
  5  7  1  0
  5  6  1  1
  7  8  2  0
  7 14  1  0
 10  9  1  0
 11 12  1  0
 11 10  1  0
 13 12  1  1
 14 13  1  0
 15 13  1  0
 15 23  1  0
 16 15  2  0
 17 18  1  0
 18 20  1  0
 19 18  2  0
 20 21  1  0
 22 21  1  1
 22 23  1  0
 22 24  1  0
 24 25  1  0
 26 24  2  0
M  END
$$$$
