NMQ.pdb
     RDKit          3D

 26 25  0  0  1  0  0  0  0  0999 V2000
    7.5495  -12.2538   18.9342 N   0  0  0  0  0  0  0  0  0  0  0  0
    7.6694  -13.6468   18.6790 C   0  0  0  0  0  0  0  0  0  0  0  0
    6.6334  -14.2703   18.2943 O   0  0  0  0  0  0  0  0  0  0  0  0
    8.9952  -14.3373   18.8670 C   0  0  0  0  0  0  0  0  0  0  0  0
    8.8208  -15.3696   19.9292 C   0  0  2  0  0  0  0  0  0  0  0  0
    7.5873  -16.0987   19.8057 N   0  0  0  0  0  0  0  0  0  0  0  0
    9.0033  -14.8607   21.2945 C   0  0  0  0  0  0  0  0  0  0  0  0
   10.0853  -14.3119   21.5887 O   0  0  0  0  0  0  0  0  0  0  0  0
    7.0616  -11.5045   27.8854 C   0  0  0  0  0  0  0  0  0  0  0  0
    6.7606  -11.9200   26.1429 S   0  0  0  0  0  0  0  0  0  0  0  0
    7.2155  -13.6698   25.8194 C   0  0  0  0  0  0  0  0  0  0  0  0
    7.0369  -13.9784   24.3714 C   0  0  0  0  0  0  0  0  0  0  0  0
    8.1708  -14.6228   23.6792 C   0  0  2  0  0  0  0  0  0  0  0  0
    8.0026  -14.9604   22.3073 N   0  0  0  0  0  0  0  0  0  0  0  0
    8.8479  -15.7067   24.4852 C   0  0  0  0  0  0  0  0  0  0  0  0
    8.2127  -16.7744   24.7003 O   0  0  0  0  0  0  0  0  0  0  0  0
   15.4354  -18.2023   23.5796 N   0  0  0  0  0  0  0  0  0  0  0  0
   14.7243  -17.2711   24.3730 C   0  0  0  0  0  0  0  0  0  0  0  0
   15.2978  -16.1559   24.6056 O   0  0  0  0  0  0  0  0  0  0  0  0
   13.3915  -17.5209   24.9191 C   0  0  0  0  0  0  0  0  0  0  0  0
   12.3631  -16.4710   24.6852 C   0  0  0  0  0  0  0  0  0  0  0  0
   11.0416  -16.6952   25.2973 C   0  0  2  0  0  0  0  0  0  0  0  0
   10.1326  -15.5780   25.0024 N   0  0  0  0  0  0  0  0  0  0  0  0
   10.9226  -17.0844   26.6878 C   0  0  0  0  0  0  0  0  0  0  0  0
   10.1144  -16.3376   27.5788 O   0  0  0  0  0  0  0  0  0  0  0  0
   11.4842  -18.0734   27.2515 O   0  0  0  0  0  0  0  0  0  0  0  0
  2  1  1  0
  3  2  2  0
  4  2  1  0
  5  4  1  0
  5  7  1  0
  5  6  1  1
  7  8  2  0
  7 14  1  0
 10  9  1  0
 11 12  1  0
 11 10  1  0
 13 12  1  1
 14 13  1  0
 15 13  1  0
 15 23  1  0
 16 15  2  0
 17 18  1  0
 18 20  1  0
 19 18  2  0
 20 21  1  0
 22 21  1  1
 22 23  1  0
 22 24  1  0
 24 25  1  0
 26 24  2  0
M  END
$$$$
