NMQ.pdb
     RDKit          3D

 26 25  0  0  1  0  0  0  0  0999 V2000
    6.8387  -17.3918   18.5765 N   0  0  0  0  0  0  0  0  0  0  0  0
    8.1252  -16.8749   18.8886 C   0  0  0  0  0  0  0  0  0  0  0  0
    9.1282  -17.3897   18.3066 O   0  0  0  0  0  0  0  0  0  0  0  0
    8.2665  -15.7512   19.8823 C   0  0  0  0  0  0  0  0  0  0  0  0
    8.7361  -16.3416   21.1689 C   0  0  2  0  0  0  0  0  0  0  0  0
    7.9465  -17.4673   21.5907 N   0  0  0  0  0  0  0  0  0  0  0  0
    8.8920  -15.3650   22.2543 C   0  0  0  0  0  0  0  0  0  0  0  0
    9.8463  -14.5617   22.2037 O   0  0  0  0  0  0  0  0  0  0  0  0
    5.4092  -11.0350   25.9701 C   0  0  0  0  0  0  0  0  0  0  0  0
    7.0404  -11.5667   26.5668 S   0  0  0  0  0  0  0  0  0  0  0  0
    7.1512  -13.4000   26.5637 C   0  0  0  0  0  0  0  0  0  0  0  0
    6.9931  -13.9130   25.1724 C   0  0  0  0  0  0  0  0  0  0  0  0
    8.1937  -14.4812   24.5275 C   0  0  2  0  0  0  0  0  0  0  0  0
    8.0044  -15.2853   23.3691 N   0  0  0  0  0  0  0  0  0  0  0  0
    9.2000  -15.0544   25.4979 C   0  0  0  0  0  0  0  0  0  0  0  0
    9.0964  -14.7454   26.7159 O   0  0  0  0  0  0  0  0  0  0  0  0
    7.5399  -20.2427   26.4202 N   0  0  0  0  0  0  0  0  0  0  0  0
    8.2468  -19.6663   27.5021 C   0  0  0  0  0  0  0  0  0  0  0  0
    8.0356  -20.1624   28.6579 O   0  0  0  0  0  0  0  0  0  0  0  0
    9.1903  -18.5592   27.3571 C   0  0  0  0  0  0  0  0  0  0  0  0
    9.3138  -17.9561   26.0022 C   0  0  0  0  0  0  0  0  0  0  0  0
   10.5460  -17.1954   25.7294 C   0  0  2  0  0  0  0  0  0  0  0  0
   10.2338  -15.8996   25.1089 N   0  0  0  0  0  0  0  0  0  0  0  0
   11.6690  -17.8157   25.0563 C   0  0  0  0  0  0  0  0  0  0  0  0
   11.4635  -18.6524   23.9327 O   0  0  0  0  0  0  0  0  0  0  0  0
   12.8960  -17.7004   25.3603 O   0  0  0  0  0  0  0  0  0  0  0  0
  2  1  1  0
  3  2  2  0
  4  2  1  0
  5  4  1  0
  5  7  1  0
  5  6  1  1
  7  8  2  0
  7 14  1  0
 10  9  1  0
 11 12  1  0
 11 10  1  0
 13 12  1  1
 14 13  1  0
 15 13  1  0
 15 23  1  0
 16 15  2  0
 17 18  1  0
 18 20  1  0
 19 18  2  0
 20 21  1  0
 22 21  1  6
 22 23  1  0
 22 24  1  0
 24 25  1  0
 26 24  2  0
M  END
$$$$
