NMQ.pdb
     RDKit          3D

 26 25  0  0  1  0  0  0  0  0999 V2000
   10.2651  -17.6090   17.5093 N   0  0  0  0  0  0  0  0  0  0  0  0
    9.2290  -16.7331   17.9326 C   0  0  0  0  0  0  0  0  0  0  0  0
    8.1516  -16.7218   17.2626 O   0  0  0  0  0  0  0  0  0  0  0  0
    9.4286  -15.8564   19.1416 C   0  0  0  0  0  0  0  0  0  0  0  0
    8.7499  -16.5150   20.2948 C   0  0  2  0  0  0  0  0  0  0  0  0
    7.3557  -16.7723   20.0529 N   0  0  0  0  0  0  0  0  0  0  0  0
    8.9493  -15.8295   21.5780 C   0  0  0  0  0  0  0  0  0  0  0  0
   10.0967  -15.8006   22.0689 O   0  0  0  0  0  0  0  0  0  0  0  0
    7.2471  -11.4775   27.6041 C   0  0  0  0  0  0  0  0  0  0  0  0
    7.1564  -11.9178   25.8441 S   0  0  0  0  0  0  0  0  0  0  0  0
    6.8183  -13.7131   25.6551 C   0  0  0  0  0  0  0  0  0  0  0  0
    6.7773  -14.0694   24.2075 C   0  0  0  0  0  0  0  0  0  0  0  0
    7.9233  -14.8314   23.6727 C   0  0  2  0  0  0  0  0  0  0  0  0
    7.8943  -15.1905   22.2962 N   0  0  0  0  0  0  0  0  0  0  0  0
    8.3936  -15.9488   24.5744 C   0  0  0  0  0  0  0  0  0  0  0  0
    7.6950  -16.9964   24.6394 O   0  0  0  0  0  0  0  0  0  0  0  0
   13.7544  -18.2524   23.5340 N   0  0  0  0  0  0  0  0  0  0  0  0
   13.5011  -18.7882   24.8190 C   0  0  0  0  0  0  0  0  0  0  0  0
   14.3360  -19.6451   25.2607 O   0  0  0  0  0  0  0  0  0  0  0  0
   12.3570  -18.4079   25.6457 C   0  0  0  0  0  0  0  0  0  0  0  0
   11.4559  -17.3562   25.1009 C   0  0  0  0  0  0  0  0  0  0  0  0
   10.2690  -17.0228   25.9081 C   0  0  2  0  0  0  0  0  0  0  0  0
    9.5546  -15.8719   25.3365 N   0  0  0  0  0  0  0  0  0  0  0  0
   10.3624  -16.8898   27.3478 C   0  0  0  0  0  0  0  0  0  0  0  0
   10.1602  -15.6343   27.9704 O   0  0  0  0  0  0  0  0  0  0  0  0
   10.6181  -17.8120   28.1817 O   0  0  0  0  0  0  0  0  0  0  0  0
  2  1  1  0
  3  2  2  0
  4  2  1  0
  5  4  1  0
  5  7  1  0
  5  6  1  6
  7  8  2  0
  7 14  1  0
 10  9  1  0
 11 12  1  0
 11 10  1  0
 13 12  1  1
 14 13  1  0
 15 13  1  0
 15 23  1  0
 16 15  2  0
 17 18  1  0
 18 20  1  0
 19 18  2  0
 20 21  1  0
 22 21  1  6
 22 23  1  0
 22 24  1  0
 24 25  1  0
 26 24  2  0
M  END
$$$$
