NMQ.pdb
     RDKit          3D

 26 25  0  0  1  0  0  0  0  0999 V2000
    8.7945  -16.6175   16.2818 N   0  0  0  0  0  0  0  0  0  0  0  0
    9.5155  -16.5150   17.5023 C   0  0  0  0  0  0  0  0  0  0  0  0
   10.6346  -17.1078   17.5813 O   0  0  0  0  0  0  0  0  0  0  0  0
    8.9474  -15.7219   18.6504 C   0  0  0  0  0  0  0  0  0  0  0  0
    9.1076  -16.5392   19.8877 C   0  0  2  0  0  0  0  0  0  0  0  0
    8.0888  -17.5441   20.0319 N   0  0  0  0  0  0  0  0  0  0  0  0
    9.2495  -15.7459   21.1151 C   0  0  0  0  0  0  0  0  0  0  0  0
   10.2138  -14.9588   21.2106 O   0  0  0  0  0  0  0  0  0  0  0  0
    6.3838  -11.2012   26.2039 C   0  0  0  0  0  0  0  0  0  0  0  0
    5.9620  -12.9243   25.8135 S   0  0  0  0  0  0  0  0  0  0  0  0
    7.4770  -13.8653   25.3746 C   0  0  0  0  0  0  0  0  0  0  0  0
    7.3440  -14.4225   23.9977 C   0  0  0  0  0  0  0  0  0  0  0  0
    8.4918  -15.1877   23.4711 C   0  0  2  0  0  0  0  0  0  0  0  0
    8.3372  -15.8276   22.2098 N   0  0  0  0  0  0  0  0  0  0  0  0
    9.1800  -16.0517   24.5020 C   0  0  0  0  0  0  0  0  0  0  0  0
    8.7949  -17.2452   24.6323 O   0  0  0  0  0  0  0  0  0  0  0  0
   10.2324  -14.3981   29.9643 N   0  0  0  0  0  0  0  0  0  0  0  0
   11.1268  -15.4946   29.9620 C   0  0  0  0  0  0  0  0  0  0  0  0
   11.4008  -16.0169   31.0928 O   0  0  0  0  0  0  0  0  0  0  0  0
   11.7307  -16.0467   28.7506 C   0  0  0  0  0  0  0  0  0  0  0  0
   11.3274  -15.4284   27.4584 C   0  0  0  0  0  0  0  0  0  0  0  0
   10.8169  -16.3427   26.4216 C   0  0  2  0  0  0  0  0  0  0  0  0
   10.2111  -15.5901   25.3134 N   0  0  0  0  0  0  0  0  0  0  0  0
    9.9835  -17.4745   26.7732 C   0  0  0  0  0  0  0  0  0  0  0  0
   10.5163  -18.7863   26.7838 O   0  0  0  0  0  0  0  0  0  0  0  0
    8.7562  -17.4442   27.0955 O   0  0  0  0  0  0  0  0  0  0  0  0
  2  1  1  0
  3  2  2  0
  4  2  1  0
  5  4  1  0
  5  7  1  0
  5  6  1  1
  7  8  2  0
  7 14  1  0
 10  9  1  0
 11 12  1  0
 11 10  1  0
 13 12  1  1
 14 13  1  0
 15 13  1  0
 15 23  1  0
 16 15  2  0
 17 18  1  0
 18 20  1  0
 19 18  2  0
 20 21  1  0
 22 21  1  1
 22 23  1  0
 22 24  1  0
 24 25  1  0
 26 24  2  0
M  END
$$$$
