NMQ.pdb
     RDKit          3D

 26 25  0  0  1  0  0  0  0  0999 V2000
   10.2334  -16.3332   17.7925 N   0  0  0  0  0  0  0  0  0  0  0  0
    9.0884  -16.0233   18.5752 C   0  0  0  0  0  0  0  0  0  0  0  0
    7.9482  -16.3067   18.0959 O   0  0  0  0  0  0  0  0  0  0  0  0
    9.2502  -15.3793   19.9276 C   0  0  0  0  0  0  0  0  0  0  0  0
    9.0249  -16.4321   20.9598 C   0  0  2  0  0  0  0  0  0  0  0  0
    7.6949  -16.9782   20.9230 N   0  0  0  0  0  0  0  0  0  0  0  0
    9.3951  -16.0248   22.3212 C   0  0  0  0  0  0  0  0  0  0  0  0
   10.5828  -15.7173   22.5515 O   0  0  0  0  0  0  0  0  0  0  0  0
    6.6776  -10.7566   25.8754 C   0  0  0  0  0  0  0  0  0  0  0  0
    6.7730  -12.5064   26.3538 S   0  0  0  0  0  0  0  0  0  0  0  0
    7.7303  -13.4547   25.1059 C   0  0  0  0  0  0  0  0  0  0  0  0
    7.8752  -14.8709   25.5503 C   0  0  0  0  0  0  0  0  0  0  0  0
    8.7854  -15.7291   24.7660 C   0  0  2  0  0  0  0  0  0  0  0  0
    8.4625  -15.9609   23.3999 N   0  0  0  0  0  0  0  0  0  0  0  0
    9.2385  -16.9727   25.4948 C   0  0  0  0  0  0  0  0  0  0  0  0
    8.6276  -18.0522   25.2682 O   0  0  0  0  0  0  0  0  0  0  0  0
   14.4146  -18.4702   24.6229 N   0  0  0  0  0  0  0  0  0  0  0  0
   13.2059  -19.0806   24.2119 C   0  0  0  0  0  0  0  0  0  0  0  0
   13.1812  -19.5763   23.0371 O   0  0  0  0  0  0  0  0  0  0  0  0
   12.0154  -19.1723   25.0553 C   0  0  0  0  0  0  0  0  0  0  0  0
   12.1108  -18.5795   26.4170 C   0  0  0  0  0  0  0  0  0  0  0  0
   10.8426  -18.1784   27.0512 C   0  0  2  0  0  0  0  0  0  0  0  0
   10.2910  -16.9790   26.4040 N   0  0  0  0  0  0  0  0  0  0  0  0
   10.7348  -18.0649   28.4916 C   0  0  0  0  0  0  0  0  0  0  0  0
   11.1748  -19.1156   29.3324 O   0  0  0  0  0  0  0  0  0  0  0  0
   10.2670  -17.0817   29.1441 O   0  0  0  0  0  0  0  0  0  0  0  0
  2  1  1  0
  3  2  2  0
  4  2  1  0
  5  4  1  0
  5  7  1  0
  5  6  1  1
  7  8  2  0
  7 14  1  0
 10  9  1  0
 11 12  1  0
 11 10  1  0
 13 12  1  1
 14 13  1  0
 15 13  1  0
 15 23  1  0
 16 15  2  0
 17 18  1  0
 18 20  1  0
 19 18  2  0
 20 21  1  0
 22 21  1  1
 22 23  1  0
 22 24  1  0
 24 25  1  0
 26 24  2  0
M  END
$$$$
