NMQ.pdb
     RDKit          3D

 26 25  0  0  1  0  0  0  0  0999 V2000
    8.2698  -18.8238   17.5809 N   0  0  0  0  0  0  0  0  0  0  0  0
    8.2933  -18.7560   19.0002 C   0  0  0  0  0  0  0  0  0  0  0  0
    7.8927  -19.7703   19.6489 O   0  0  0  0  0  0  0  0  0  0  0  0
    8.7827  -17.5083   19.6885 C   0  0  0  0  0  0  0  0  0  0  0  0
    8.2686  -17.5327   21.0883 C   0  0  2  0  0  0  0  0  0  0  0  0
    6.8734  -17.8727   21.1676 N   0  0  0  0  0  0  0  0  0  0  0  0
    8.5638  -16.3162   21.8559 C   0  0  0  0  0  0  0  0  0  0  0  0
    9.3910  -15.5033   21.3939 O   0  0  0  0  0  0  0  0  0  0  0  0
    6.5055  -11.3169   27.7423 C   0  0  0  0  0  0  0  0  0  0  0  0
    6.0514  -12.5298   26.4686 S   0  0  0  0  0  0  0  0  0  0  0  0
    7.5588  -13.1845   25.6488 C   0  0  0  0  0  0  0  0  0  0  0  0
    7.1813  -14.2446   24.6703 C   0  0  0  0  0  0  0  0  0  0  0  0
    8.2830  -14.9181   23.9542 C   0  0  2  0  0  0  0  0  0  0  0  0
    7.9505  -16.0129   23.1085 N   0  0  0  0  0  0  0  0  0  0  0  0
    9.5076  -15.1666   24.8037 C   0  0  0  0  0  0  0  0  0  0  0  0
    9.9066  -14.2398   25.5598 O   0  0  0  0  0  0  0  0  0  0  0  0
   11.2284  -18.3163   29.4221 N   0  0  0  0  0  0  0  0  0  0  0  0
   10.9799  -16.9445   29.1797 C   0  0  0  0  0  0  0  0  0  0  0  0
   10.7254  -16.2169   30.1958 O   0  0  0  0  0  0  0  0  0  0  0  0
   11.0080  -16.3372   27.8503 C   0  0  0  0  0  0  0  0  0  0  0  0
   11.4003  -17.2196   26.7180 C   0  0  0  0  0  0  0  0  0  0  0  0
   11.5334  -16.5778   25.3982 C   0  0  2  0  0  0  0  0  0  0  0  0
   10.2143  -16.3644   24.7852 N   0  0  0  0  0  0  0  0  0  0  0  0
   12.4666  -17.0879   24.4141 C   0  0  0  0  0  0  0  0  0  0  0  0
   13.8615  -16.9189   24.5879 O   0  0  0  0  0  0  0  0  0  0  0  0
   12.1802  -17.7086   23.3446 O   0  0  0  0  0  0  0  0  0  0  0  0
  2  1  1  0
  3  2  2  0
  4  2  1  0
  5  4  1  0
  5  7  1  0
  5  6  1  6
  7  8  2  0
  7 14  1  0
 10  9  1  0
 11 12  1  0
 11 10  1  0
 13 12  1  1
 14 13  1  0
 15 13  1  0
 15 23  1  0
 16 15  2  0
 17 18  1  0
 18 20  1  0
 19 18  2  0
 20 21  1  0
 22 21  1  1
 22 23  1  0
 22 24  1  0
 24 25  1  0
 26 24  2  0
M  END
$$$$
