NMQ.pdb
     RDKit          3D

 26 25  0  0  1  0  0  0  0  0999 V2000
    9.6396  -17.7932   17.6311 N   0  0  0  0  0  0  0  0  0  0  0  0
    8.8018  -16.6774   17.9010 C   0  0  0  0  0  0  0  0  0  0  0  0
    7.8192  -16.4724   17.1249 O   0  0  0  0  0  0  0  0  0  0  0  0
    9.0927  -15.7820   19.0773 C   0  0  0  0  0  0  0  0  0  0  0  0
    8.5486  -16.4464   20.2967 C   0  0  2  0  0  0  0  0  0  0  0  0
    7.1265  -16.6520   20.2363 N   0  0  0  0  0  0  0  0  0  0  0  0
    8.9393  -15.7994   21.5557 C   0  0  0  0  0  0  0  0  0  0  0  0
   10.1536  -15.6262   21.7877 O   0  0  0  0  0  0  0  0  0  0  0  0
    7.1670  -11.3564   27.9136 C   0  0  0  0  0  0  0  0  0  0  0  0
    6.6614  -12.0398   26.3084 S   0  0  0  0  0  0  0  0  0  0  0  0
    7.7950  -13.3960   25.8099 C   0  0  0  0  0  0  0  0  0  0  0  0
    7.4322  -13.8823   24.4476 C   0  0  0  0  0  0  0  0  0  0  0  0
    8.3114  -14.9040   23.8450 C   0  0  2  0  0  0  0  0  0  0  0  0
    7.9980  -15.3553   22.5325 N   0  0  0  0  0  0  0  0  0  0  0  0
    8.6930  -16.0209   24.7883 C   0  0  0  0  0  0  0  0  0  0  0  0
    7.7894  -16.8124   25.1714 O   0  0  0  0  0  0  0  0  0  0  0  0
   13.6902  -19.5696   24.0096 N   0  0  0  0  0  0  0  0  0  0  0  0
   13.2545  -19.9108   25.3120 C   0  0  0  0  0  0  0  0  0  0  0  0
   13.8546  -20.8793   25.8849 O   0  0  0  0  0  0  0  0  0  0  0  0
   12.1783  -19.2155   26.0157 C   0  0  0  0  0  0  0  0  0  0  0  0
   11.5588  -18.0567   25.3169 C   0  0  0  0  0  0  0  0  0  0  0  0
   10.4514  -17.3811   26.0159 C   0  0  2  0  0  0  0  0  0  0  0  0
    9.9894  -16.2111   25.2549 N   0  0  0  0  0  0  0  0  0  0  0  0
   10.5493  -17.0560   27.4244 C   0  0  0  0  0  0  0  0  0  0  0  0
   10.4782  -18.0740   28.4058 O   0  0  0  0  0  0  0  0  0  0  0  0
   10.7012  -15.9015   27.9296 O   0  0  0  0  0  0  0  0  0  0  0  0
  2  1  1  0
  3  2  2  0
  4  2  1  0
  5  4  1  0
  5  7  1  0
  5  6  1  6
  7  8  2  0
  7 14  1  0
 10  9  1  0
 11 12  1  0
 11 10  1  0
 13 12  1  1
 14 13  1  0
 15 13  1  0
 15 23  1  0
 16 15  2  0
 17 18  1  0
 18 20  1  0
 19 18  2  0
 20 21  1  0
 22 21  1  6
 22 23  1  0
 22 24  1  0
 24 25  1  0
 26 24  2  0
M  END
$$$$
