NMQ.pdb
     RDKit          3D

 26 25  0  0  1  0  0  0  0  0999 V2000
   10.6539  -17.3606   17.3522 N   0  0  0  0  0  0  0  0  0  0  0  0
    9.3772  -16.8346   17.6887 C   0  0  0  0  0  0  0  0  0  0  0  0
    8.3729  -17.2523   17.0352 O   0  0  0  0  0  0  0  0  0  0  0  0
    9.2472  -15.8148   18.7901 C   0  0  0  0  0  0  0  0  0  0  0  0
    8.8127  -16.5333   20.0227 C   0  0  2  0  0  0  0  0  0  0  0  0
    7.4370  -16.9500   19.9736 N   0  0  0  0  0  0  0  0  0  0  0  0
    9.1065  -15.8151   21.2694 C   0  0  0  0  0  0  0  0  0  0  0  0
   10.2988  -15.5914   21.5641 O   0  0  0  0  0  0  0  0  0  0  0  0
    6.6107  -11.8122   27.7156 C   0  0  0  0  0  0  0  0  0  0  0  0
    6.1561  -12.6881   26.1906 S   0  0  0  0  0  0  0  0  0  0  0  0
    7.6178  -13.5584   25.4982 C   0  0  0  0  0  0  0  0  0  0  0  0
    7.2822  -14.1218   24.1588 C   0  0  0  0  0  0  0  0  0  0  0  0
    8.2915  -14.9955   23.5278 C   0  0  2  0  0  0  0  0  0  0  0  0
    8.0948  -15.3565   22.1656 N   0  0  0  0  0  0  0  0  0  0  0  0
    8.7354  -16.1494   24.3962 C   0  0  0  0  0  0  0  0  0  0  0  0
    8.6094  -17.3193   23.9431 O   0  0  0  0  0  0  0  0  0  0  0  0
   14.3828  -15.9419   24.1709 N   0  0  0  0  0  0  0  0  0  0  0  0
   13.6404  -17.1302   23.9732 C   0  0  0  0  0  0  0  0  0  0  0  0
   14.2349  -18.0885   23.3774 O   0  0  0  0  0  0  0  0  0  0  0  0
   12.2587  -17.3070   24.4164 C   0  0  0  0  0  0  0  0  0  0  0  0
   11.6177  -16.1469   25.0932 C   0  0  0  0  0  0  0  0  0  0  0  0
   10.5905  -16.4583   26.1028 C   0  0  2  0  0  0  0  0  0  0  0  0
    9.2695  -15.9801   25.6692 N   0  0  0  0  0  0  0  0  0  0  0  0
   10.8029  -16.1440   27.5011 C   0  0  0  0  0  0  0  0  0  0  0  0
   11.1741  -17.1560   28.4191 O   0  0  0  0  0  0  0  0  0  0  0  0
   10.6936  -15.0045   28.0496 O   0  0  0  0  0  0  0  0  0  0  0  0
  2  1  1  0
  3  2  2  0
  4  2  1  0
  5  4  1  0
  5  7  1  0
  5  6  1  6
  7  8  2  0
  7 14  1  0
 10  9  1  0
 11 12  1  0
 11 10  1  0
 13 12  1  1
 14 13  1  0
 15 13  1  0
 15 23  1  0
 16 15  2  0
 17 18  1  0
 18 20  1  0
 19 18  2  0
 20 21  1  0
 22 21  1  6
 22 23  1  0
 22 24  1  0
 24 25  1  0
 26 24  2  0
M  END
$$$$
