WYN.pdb
     RDKit          3D

 35 37  0  0  1  0  0  0  0  0999 V2000
   26.7548  -22.3885  -11.9375 N   0  0  0  0  0  0  0  0  0  0  0  0
   26.1250  -21.1689  -11.4265 C   0  0  1  0  0  0  0  0  0  0  0  0
   27.1764  -20.1463  -11.0467 C   0  0  0  0  0  0  0  0  0  0  0  0
   28.0748  -20.6201   -9.9929 C   0  0  0  0  0  0  0  0  0  0  0  0
   29.2407  -21.3694  -10.1216 C   0  0  0  0  0  0  0  0  0  0  0  0
   29.7512  -21.5845   -8.9185 N   0  0  0  0  0  0  0  0  0  0  0  0
   28.9983  -21.0230   -7.9677 C   0  0  0  0  0  0  0  0  0  0  0  0
   29.1185  -20.9753   -6.5906 C   0  0  0  0  0  0  0  0  0  0  0  0
   28.1388  -20.2936   -5.9060 C   0  0  0  0  0  0  0  0  0  0  0  0
   27.0746  -19.6764   -6.5340 C   0  0  0  0  0  0  0  0  0  0  0  0
   26.9843  -19.7413   -7.8906 C   0  0  0  0  0  0  0  0  0  0  0  0
   27.9340  -20.4097   -8.6378 C   0  0  0  0  0  0  0  0  0  0  0  0
   25.1663  -20.6190  -12.4189 C   0  0  0  0  0  0  0  0  0  0  0  0
   25.5964  -19.7199  -13.1838 O   0  0  0  0  0  0  0  0  0  0  0  0
   26.8858  -25.1616  -15.6943 O   0  0  0  0  0  0  0  0  0  0  0  0
   25.9681  -24.1139  -15.4997 C   0  0  0  0  0  0  0  0  0  0  0  0
   26.2963  -22.8221  -15.8489 C   0  0  0  0  0  0  0  0  0  0  0  0
   25.3931  -21.7778  -15.6594 C   0  0  0  0  0  0  0  0  0  0  0  0
   24.1449  -22.0049  -15.1172 C   0  0  0  0  0  0  0  0  0  0  0  0
   23.2465  -20.8509  -14.9472 C   0  0  0  0  0  0  0  0  0  0  0  0
   22.9012  -20.5360  -13.5284 C   0  0  2  0  0  0  0  0  0  0  0  0
   23.8361  -21.0275  -12.5580 N   0  0  0  0  0  0  0  0  0  0  0  0
   21.5754  -21.1536  -13.2529 C   0  0  0  0  0  0  0  0  0  0  0  0
   20.5534  -20.8664  -13.9614 O   0  0  0  0  0  0  0  0  0  0  0  0
   23.8200  -23.2852  -14.7712 C   0  0  0  0  0  0  0  0  0  0  0  0
   24.7211  -24.3352  -14.9590 C   0  0  0  0  0  0  0  0  0  0  0  0
   17.7235  -23.5491  -11.0699 N   0  0  0  0  0  0  0  0  0  0  0  0
   18.4142  -22.7485  -10.1221 C   0  0  0  0  0  0  0  0  0  0  0  0
   17.9403  -22.5330   -8.9958 O   0  0  0  0  0  0  0  0  0  0  0  0
   19.7145  -22.1677  -10.4900 C   0  0  0  0  0  0  0  0  0  0  0  0
   20.1054  -22.6803  -11.8573 C   0  0  2  0  0  0  0  0  0  0  0  0
   21.3930  -22.0793  -12.2013 N   0  0  0  0  0  0  0  0  0  0  0  0
   19.1548  -22.3756  -12.9197 C   0  0  0  0  0  0  0  0  0  0  0  0
   18.2770  -23.3011  -13.4933 O   0  0  0  0  0  0  0  0  0  0  0  0
   19.0893  -21.2085  -13.3810 O   0  0  0  0  0  0  0  0  0  0  0  0
  2  1  1  6
  3  4  1  0
  3  2  1  0
  4  5  2  0
  5  6  1  0
  7  6  1  0
  8  7  2  0
  9  8  1  0
 10 11  1  0
 10  9  2  0
 11 12  2  0
 12  4  1  0
 12  7  1  0
 13  2  1  0
 13 22  1  0
 14 13  2  0
 15 16  1  0
 16 17  2  0
 17 18  1  0
 19 20  1  0
 19 18  2  0
 21 20  1  6
 21 22  1  0
 21 23  1  0
 23 32  1  0
 24 23  2  0
 25 19  1  0
 26 25  2  0
 26 16  1  0
 28 27  1  0
 29 28  2  0
 30 28  1  0
 31 33  1  0
 31 30  1  1
 32 31  1  0
 33 34  1  0
 35 33  2  0
M  END
$$$$
