WYN.pdb
     RDKit          3D

 35 37  0  0  1  0  0  0  0  0999 V2000
   28.2415  -21.6297  -10.3126 N   0  0  0  0  0  0  0  0  0  0  0  0
   26.9455  -21.0638   -9.9313 C   0  0  1  0  0  0  0  0  0  0  0  0
   27.1327  -19.8975   -8.9825 C   0  0  0  0  0  0  0  0  0  0  0  0
   28.1489  -20.1542   -7.9609 C   0  0  0  0  0  0  0  0  0  0  0  0
   29.4858  -20.4992   -8.1373 C   0  0  0  0  0  0  0  0  0  0  0  0
   30.0559  -20.6403   -6.9502 N   0  0  0  0  0  0  0  0  0  0  0  0
   29.1823  -20.4108   -5.9652 C   0  0  0  0  0  0  0  0  0  0  0  0
   29.3034  -20.4352   -4.5875 C   0  0  0  0  0  0  0  0  0  0  0  0
   28.1730  -20.1404   -3.8606 C   0  0  0  0  0  0  0  0  0  0  0  0
   26.9617  -19.8312   -4.4479 C   0  0  0  0  0  0  0  0  0  0  0  0
   26.8746  -19.8156   -5.8062 C   0  0  0  0  0  0  0  0  0  0  0  0
   27.9715  -20.1022   -6.5948 C   0  0  0  0  0  0  0  0  0  0  0  0
   26.1730  -20.6652  -11.1357 C   0  0  0  0  0  0  0  0  0  0  0  0
   26.5109  -19.5925  -11.6957 O   0  0  0  0  0  0  0  0  0  0  0  0
   29.3572  -21.4606  -16.7741 O   0  0  0  0  0  0  0  0  0  0  0  0
   28.1229  -21.5455  -16.1055 C   0  0  0  0  0  0  0  0  0  0  0  0
   27.9869  -22.3351  -14.9846 C   0  0  0  0  0  0  0  0  0  0  0  0
   26.7675  -22.4252  -14.3159 C   0  0  0  0  0  0  0  0  0  0  0  0
   25.6609  -21.7279  -14.7551 C   0  0  0  0  0  0  0  0  0  0  0  0
   24.4075  -21.8746  -13.9967 C   0  0  0  0  0  0  0  0  0  0  0  0
   24.3008  -20.9920  -12.7961 C   0  0  2  0  0  0  0  0  0  0  0  0
   25.1100  -21.3918  -11.6814 N   0  0  0  0  0  0  0  0  0  0  0  0
   22.8758  -21.0067  -12.3670 C   0  0  0  0  0  0  0  0  0  0  0  0
   22.5518  -21.2795  -11.1630 O   0  0  0  0  0  0  0  0  0  0  0  0
   25.7959  -20.9455  -15.8661 C   0  0  0  0  0  0  0  0  0  0  0  0
   27.0155  -20.8516  -16.5396 C   0  0  0  0  0  0  0  0  0  0  0  0
   18.4860  -19.4831  -10.5069 N   0  0  0  0  0  0  0  0  0  0  0  0
   19.1561  -18.8208  -11.5693 C   0  0  0  0  0  0  0  0  0  0  0  0
   18.6062  -17.9095  -12.2072 O   0  0  0  0  0  0  0  0  0  0  0  0
   20.5268  -19.2283  -11.9138 C   0  0  0  0  0  0  0  0  0  0  0  0
   20.4595  -20.4071  -12.8579 C   0  0  2  0  0  0  0  0  0  0  0  0
   21.8271  -20.7203  -13.2692 N   0  0  0  0  0  0  0  0  0  0  0  0
   19.6560  -20.1877  -14.0543 C   0  0  0  0  0  0  0  0  0  0  0  0
   18.2713  -20.3701  -14.1289 O   0  0  0  0  0  0  0  0  0  0  0  0
   20.2106  -19.8074  -15.1158 O   0  0  0  0  0  0  0  0  0  0  0  0
  2  1  1  6
  3  4  1  0
  3  2  1  0
  4  5  2  0
  5  6  1  0
  7  6  1  0
  8  7  2  0
  9  8  1  0
 10 11  1  0
 10  9  2  0
 11 12  2  0
 12  4  1  0
 12  7  1  0
 13  2  1  0
 13 22  1  0
 14 13  2  0
 15 16  1  0
 16 17  2  0
 17 18  1  0
 19 20  1  0
 19 18  2  0
 21 20  1  6
 21 22  1  0
 21 23  1  0
 23 32  1  0
 24 23  2  0
 25 19  1  0
 26 25  2  0
 26 16  1  0
 28 27  1  0
 29 28  2  0
 30 28  1  0
 31 33  1  0
 31 30  1  1
 32 31  1  0
 33 34  1  0
 35 33  2  0
M  END
$$$$
