WYN.pdb
     RDKit          3D

 35 37  0  0  1  0  0  0  0  0999 V2000
   22.1231  -17.4613  -19.6094 N   0  0  0  0  0  0  0  0  0  0  0  0
   21.1958  -18.3699  -18.9311 C   0  0  1  0  0  0  0  0  0  0  0  0
   19.8820  -18.4469  -19.6817 C   0  0  0  0  0  0  0  0  0  0  0  0
   19.1772  -17.1649  -19.7256 C   0  0  0  0  0  0  0  0  0  0  0  0
   19.3790  -16.0955  -20.5933 C   0  0  0  0  0  0  0  0  0  0  0  0
   18.5277  -15.1270  -20.2908 N   0  0  0  0  0  0  0  0  0  0  0  0
   17.7500  -15.4728  -19.2604 C   0  0  0  0  0  0  0  0  0  0  0  0
   16.7332  -14.8104  -18.5966 C   0  0  0  0  0  0  0  0  0  0  0  0
   16.1332  -15.4804  -17.5553 C   0  0  0  0  0  0  0  0  0  0  0  0
   16.5051  -16.7528  -17.1672 C   0  0  0  0  0  0  0  0  0  0  0  0
   17.5094  -17.3782  -17.8403 C   0  0  0  0  0  0  0  0  0  0  0  0
   18.1534  -16.7618  -18.8950 C   0  0  0  0  0  0  0  0  0  0  0  0
   21.8062  -19.7139  -18.7657 C   0  0  0  0  0  0  0  0  0  0  0  0
   22.4027  -20.1916  -19.7630 O   0  0  0  0  0  0  0  0  0  0  0  0
   25.7603  -26.9744  -15.7275 O   0  0  0  0  0  0  0  0  0  0  0  0
   25.1052  -25.7337  -15.8240 C   0  0  0  0  0  0  0  0  0  0  0  0
   25.5946  -24.7463  -16.6511 C   0  0  0  0  0  0  0  0  0  0  0  0
   24.9519  -23.5139  -16.7528 C   0  0  0  0  0  0  0  0  0  0  0  0
   23.8080  -23.2451  -16.0296 C   0  0  0  0  0  0  0  0  0  0  0  0
   23.1865  -21.9200  -16.1894 C   0  0  0  0  0  0  0  0  0  0  0  0
   22.3374  -21.7751  -17.4100 C   0  0  2  0  0  0  0  0  0  0  0  0
   21.7627  -20.4737  -17.5925 N   0  0  0  0  0  0  0  0  0  0  0  0
   21.2293  -22.7617  -17.2923 C   0  0  0  0  0  0  0  0  0  0  0  0
   20.2458  -22.5590  -16.5045 O   0  0  0  0  0  0  0  0  0  0  0  0
   23.3233  -24.2238  -15.2100 C   0  0  0  0  0  0  0  0  0  0  0  0
   23.9633  -25.4603  -15.1046 C   0  0  0  0  0  0  0  0  0  0  0  0
   19.8419  -28.4235  -19.4133 N   0  0  0  0  0  0  0  0  0  0  0  0
   19.6217  -27.2126  -18.7051 C   0  0  0  0  0  0  0  0  0  0  0  0
   18.5261  -26.9671  -18.1768 O   0  0  0  0  0  0  0  0  0  0  0  0
   20.7171  -26.2366  -18.6006 C   0  0  0  0  0  0  0  0  0  0  0  0
   20.1964  -24.9948  -17.9137 C   0  0  2  0  0  0  0  0  0  0  0  0
   21.2190  -23.9580  -18.0439 N   0  0  0  0  0  0  0  0  0  0  0  0
   19.8862  -25.1625  -16.4992 C   0  0  0  0  0  0  0  0  0  0  0  0
   20.7901  -25.6168  -15.5334 O   0  0  0  0  0  0  0  0  0  0  0  0
   18.7341  -24.8904  -16.0777 O   0  0  0  0  0  0  0  0  0  0  0  0
  2  1  1  6
  3  4  1  0
  3  2  1  0
  4  5  2  0
  5  6  1  0
  7  6  1  0
  8  7  2  0
  9  8  1  0
 10 11  1  0
 10  9  2  0
 11 12  2  0
 12  4  1  0
 12  7  1  0
 13  2  1  0
 13 22  1  0
 14 13  2  0
 15 16  1  0
 16 17  2  0
 17 18  1  0
 19 20  1  0
 19 18  2  0
 21 20  1  1
 21 22  1  0
 21 23  1  0
 23 32  1  0
 24 23  2  0
 25 19  1  0
 26 25  2  0
 26 16  1  0
 28 27  1  0
 29 28  2  0
 30 28  1  0
 31 33  1  0
 31 30  1  1
 32 31  1  0
 33 34  1  0
 35 33  2  0
M  END
$$$$
