WYN.pdb
     RDKit          3D

 35 37  0  0  1  0  0  0  0  0999 V2000
   26.5073  -18.5849  -16.2145 N   0  0  0  0  0  0  0  0  0  0  0  0
   25.4717  -19.4970  -16.7053 C   0  0  1  0  0  0  0  0  0  0  0  0
   25.7276  -20.9067  -16.2127 C   0  0  0  0  0  0  0  0  0  0  0  0
   27.0671  -21.3913  -16.5488 C   0  0  0  0  0  0  0  0  0  0  0  0
   28.0730  -21.8217  -15.6884 C   0  0  0  0  0  0  0  0  0  0  0  0
   29.1301  -22.1771  -16.4029 N   0  0  0  0  0  0  0  0  0  0  0  0
   28.9055  -22.0141  -17.7102 C   0  0  0  0  0  0  0  0  0  0  0  0
   29.6899  -22.2429  -18.8263 C   0  0  0  0  0  0  0  0  0  0  0  0
   29.1267  -21.9579  -20.0489 C   0  0  0  0  0  0  0  0  0  0  0  0
   27.8434  -21.4663  -20.1884 C   0  0  0  0  0  0  0  0  0  0  0  0
   27.0966  -21.2515  -19.0708 C   0  0  0  0  0  0  0  0  0  0  0  0
   27.6018  -21.5167  -17.8133 C   0  0  0  0  0  0  0  0  0  0  0  0
   24.1223  -19.0197  -16.3085 C   0  0  0  0  0  0  0  0  0  0  0  0
   23.9802  -18.6506  -15.1160 O   0  0  0  0  0  0  0  0  0  0  0  0
   15.6900  -16.1842  -16.4717 O   0  0  0  0  0  0  0  0  0  0  0  0
   16.9511  -16.6846  -16.8419 C   0  0  0  0  0  0  0  0  0  0  0  0
   18.0591  -15.8656  -16.8334 C   0  0  0  0  0  0  0  0  0  0  0  0
   19.3125  -16.3530  -17.1989 C   0  0  0  0  0  0  0  0  0  0  0  0
   19.4821  -17.6682  -17.5799 C   0  0  0  0  0  0  0  0  0  0  0  0
   20.8365  -18.1090  -17.9528 C   0  0  0  0  0  0  0  0  0  0  0  0
   21.7020  -18.5006  -16.7999 C   0  0  2  0  0  0  0  0  0  0  0  0
   23.0143  -18.9544  -17.1593 N   0  0  0  0  0  0  0  0  0  0  0  0
   21.0061  -19.6052  -16.0853 C   0  0  0  0  0  0  0  0  0  0  0  0
   21.3057  -20.8261  -16.3059 O   0  0  0  0  0  0  0  0  0  0  0  0
   18.3839  -18.4796  -17.5882 C   0  0  0  0  0  0  0  0  0  0  0  0
   17.1259  -17.9963  -17.2228 C   0  0  0  0  0  0  0  0  0  0  0  0
   18.3423  -22.3288  -12.8236 N   0  0  0  0  0  0  0  0  0  0  0  0
   19.5873  -21.7949  -12.3978 C   0  0  0  0  0  0  0  0  0  0  0  0
   20.1155  -22.1629  -11.3370 O   0  0  0  0  0  0  0  0  0  0  0  0
   20.2565  -20.7875  -13.2350 C   0  0  0  0  0  0  0  0  0  0  0  0
   19.3233  -20.3912  -14.3562 C   0  0  2  0  0  0  0  0  0  0  0  0
   19.9903  -19.3505  -15.1371 N   0  0  0  0  0  0  0  0  0  0  0  0
   18.0270  -19.8843  -13.9230 C   0  0  0  0  0  0  0  0  0  0  0  0
   17.8259  -18.6630  -13.2718 O   0  0  0  0  0  0  0  0  0  0  0  0
   16.9911  -20.5646  -14.1309 O   0  0  0  0  0  0  0  0  0  0  0  0
  2  1  1  1
  3  4  1  0
  3  2  1  0
  4  5  2  0
  5  6  1  0
  7  6  1  0
  8  7  2  0
  9  8  1  0
 10 11  1  0
 10  9  2  0
 11 12  2  0
 12  4  1  0
 12  7  1  0
 13  2  1  0
 13 22  1  0
 14 13  2  0
 15 16  1  0
 16 17  2  0
 17 18  1  0
 19 20  1  0
 19 18  2  0
 21 20  1  6
 21 22  1  0
 21 23  1  0
 23 32  1  0
 24 23  2  0
 25 19  1  0
 26 25  2  0
 26 16  1  0
 28 27  1  0
 29 28  2  0
 30 28  1  0
 31 33  1  0
 31 30  1  1
 32 31  1  0
 33 34  1  0
 35 33  2  0
M  END
$$$$
